# generated using pymatgen
data_MgTe4MoW3(SeS)2
_symmetry_space_group_name_H-M   'P 1'
_cell_length_a   6.77539600
_cell_length_b   6.77596222
_cell_length_c   93.10208428
_cell_angle_alpha   90.00802123
_cell_angle_beta   90.00000000
_cell_angle_gamma   119.99721625
_symmetry_Int_Tables_number   1
_chemical_formula_structural   MgTe4MoW3(SeS)2
_chemical_formula_sum   'Mg8 Te32 Mo8 W24 Se16 S16'
_cell_volume   3701.75669776
_cell_formula_units_Z   8
loop_
 _symmetry_equiv_pos_site_id
 _symmetry_equiv_pos_as_xyz
  1  'x, y, z'
loop_
 _atom_site_type_symbol
 _atom_site_label
 _atom_site_symmetry_multiplicity
 _atom_site_fract_x
 _atom_site_fract_y
 _atom_site_fract_z
 _atom_site_occupancy
  Mg  Mg0_0  1  0.00003300  0.00006650  0.09561900  1
  Mg  Mg0_1  1  0.00003300  0.00006650  0.59561900  1
  Mg  Mg0_2  1  0.00003300  0.50006650  0.09561900  1
  Mg  Mg0_3  1  0.00003300  0.50006650  0.59561900  1
  Mg  Mg0_4  1  0.50003300  0.00006650  0.09561900  1
  Mg  Mg0_5  1  0.50003300  0.00006650  0.59561900  1
  Mg  Mg0_6  1  0.50003300  0.50006650  0.09561900  1
  Mg  Mg0_7  1  0.50003300  0.50006650  0.59561900  1
  Te  Te0_0  1  0.16671550  0.33343250  0.34902900  1
  Te  Te0_1  1  0.16671550  0.33343250  0.84902900  1
  Te  Te0_2  1  0.16671550  0.83343250  0.34902900  1
  Te  Te0_3  1  0.16671550  0.83343250  0.84902900  1
  Te  Te0_4  1  0.66671550  0.33343250  0.34902900  1
  Te  Te0_5  1  0.66671550  0.33343250  0.84902900  1
  Te  Te0_6  1  0.66671550  0.83343250  0.34902900  1
  Te  Te0_7  1  0.66671550  0.83343250  0.84902900  1
  Te  Te1_0  1  0.33323100  0.16646200  0.02362000  1
  Te  Te1_1  1  0.33323100  0.16646200  0.52362000  1
  Te  Te1_2  1  0.33323100  0.66646200  0.02362000  1
  Te  Te1_3  1  0.33323100  0.66646200  0.52362000  1
  Te  Te1_4  1  0.83323100  0.16646200  0.02362000  1
  Te  Te1_5  1  0.83323100  0.16646200  0.52362000  1
  Te  Te1_6  1  0.83323100  0.66646200  0.02362000  1
  Te  Te1_7  1  0.83323100  0.66646200  0.52362000  1
  Te  Te2_0  1  0.33326500  0.16653000  0.06413650  1
  Te  Te2_1  1  0.33326500  0.16653000  0.56413650  1
  Te  Te2_2  1  0.33326500  0.66653000  0.06413650  1
  Te  Te2_3  1  0.33326500  0.66653000  0.56413650  1
  Te  Te2_4  1  0.83326500  0.16653000  0.06413650  1
  Te  Te2_5  1  0.83326500  0.16653000  0.56413650  1
  Te  Te2_6  1  0.83326500  0.66653000  0.06413650  1
  Te  Te2_7  1  0.83326500  0.66653000  0.56413650  1
  Te  Te3_0  1  0.16665000  0.33330150  0.30846550  1
  Te  Te3_1  1  0.16665000  0.33330150  0.80846550  1
  Te  Te3_2  1  0.16665000  0.83330150  0.30846550  1
  Te  Te3_3  1  0.16665000  0.83330150  0.80846550  1
  Te  Te3_4  1  0.66665000  0.33330150  0.30846550  1
  Te  Te3_5  1  0.66665000  0.33330150  0.80846550  1
  Te  Te3_6  1  0.66665000  0.83330150  0.30846550  1
  Te  Te3_7  1  0.66665000  0.83330150  0.80846550  1
  Mo  Mo0_0  1  0.16659500  0.33319000  0.04376500  1
  Mo  Mo0_1  1  0.16659500  0.33319000  0.54376500  1
  Mo  Mo0_2  1  0.16659500  0.83319000  0.04376500  1
  Mo  Mo0_3  1  0.16659500  0.83319000  0.54376500  1
  Mo  Mo0_4  1  0.66659500  0.33319000  0.04376500  1
  Mo  Mo0_5  1  0.66659500  0.33319000  0.54376500  1
  Mo  Mo0_6  1  0.66659500  0.83319000  0.04376500  1
  Mo  Mo0_7  1  0.66659500  0.83319000  0.54376500  1
  W  W0_0  1  0.16668800  0.33337650  0.23489350  1
  W  W0_1  1  0.16668800  0.33337650  0.73489350  1
  W  W0_2  1  0.16668800  0.83337650  0.23489350  1
  W  W0_3  1  0.16668800  0.83337650  0.73489350  1
  W  W0_4  1  0.66668800  0.33337650  0.23489350  1
  W  W0_5  1  0.66668800  0.33337650  0.73489350  1
  W  W0_6  1  0.66668800  0.83337650  0.23489350  1
  W  W0_7  1  0.66668800  0.83337650  0.73489350  1
  W  W1_0  1  0.33336550  0.16673050  0.14540850  1
  W  W1_1  1  0.33336550  0.16673050  0.64540850  1
  W  W1_2  1  0.33336550  0.66673050  0.14540850  1
  W  W1_3  1  0.33336550  0.66673050  0.64540850  1
  W  W1_4  1  0.83336550  0.16673050  0.14540850  1
  W  W1_5  1  0.83336550  0.16673050  0.64540850  1
  W  W1_6  1  0.83336550  0.66673050  0.14540850  1
  W  W1_7  1  0.83336550  0.66673050  0.64540850  1
  W  W2_0  1  0.33334000  0.16668000  0.32874950  1
  W  W2_1  1  0.33334000  0.16668000  0.82874950  1
  W  W2_2  1  0.33334000  0.66668000  0.32874950  1
  W  W2_3  1  0.33334000  0.66668000  0.82874950  1
  W  W2_4  1  0.83334000  0.16668000  0.32874950  1
  W  W2_5  1  0.83334000  0.16668000  0.82874950  1
  W  W2_6  1  0.83334000  0.66668000  0.32874950  1
  W  W2_7  1  0.83334000  0.66668000  0.82874950  1
  Se  Se0_0  1  0.33332150  0.16664300  0.21708100  1
  Se  Se0_1  1  0.33332150  0.16664300  0.71708100  1
  Se  Se0_2  1  0.33332150  0.66664300  0.21708100  1
  Se  Se0_3  1  0.33332150  0.66664300  0.71708100  1
  Se  Se0_4  1  0.83332150  0.16664300  0.21708100  1
  Se  Se0_5  1  0.83332150  0.16664300  0.71708100  1
  Se  Se0_6  1  0.83332150  0.66664300  0.21708100  1
  Se  Se0_7  1  0.83332150  0.66664300  0.71708100  1
  Se  Se1_0  1  0.33339400  0.16678800  0.25272300  1
  Se  Se1_1  1  0.33339400  0.16678800  0.75272300  1
  Se  Se1_2  1  0.33339400  0.66678800  0.25272300  1
  Se  Se1_3  1  0.33339400  0.66678800  0.75272300  1
  Se  Se1_4  1  0.83339400  0.16678800  0.25272300  1
  Se  Se1_5  1  0.83339400  0.16678800  0.75272300  1
  Se  Se1_6  1  0.83339400  0.66678800  0.25272300  1
  Se  Se1_7  1  0.83339400  0.66678800  0.75272300  1
  S  S0_0  1  0.16672400  0.33344850  0.16155350  1
  S  S0_1  1  0.16672400  0.33344850  0.66155350  1
  S  S0_2  1  0.16672400  0.83344850  0.16155350  1
  S  S0_3  1  0.16672400  0.83344850  0.66155350  1
  S  S0_4  1  0.66672400  0.33344850  0.16155350  1
  S  S0_5  1  0.66672400  0.33344850  0.66155350  1
  S  S0_6  1  0.66672400  0.83344850  0.16155350  1
  S  S0_7  1  0.66672400  0.83344850  0.66155350  1
  S  S1_0  1  0.16667600  0.33335300  0.12915850  1
  S  S1_1  1  0.16667600  0.33335300  0.62915850  1
  S  S1_2  1  0.16667600  0.83335300  0.12915850  1
  S  S1_3  1  0.16667600  0.83335300  0.62915850  1
  S  S1_4  1  0.66667600  0.33335300  0.12915850  1
  S  S1_5  1  0.66667600  0.33335300  0.62915850  1
  S  S1_6  1  0.66667600  0.83335300  0.12915850  1
  S  S1_7  1  0.66667600  0.83335300  0.62915850  1
loop_
_geom_bond_atom_site_label_1
_geom_bond_atom_site_label_2
_geom_bond_distance
_geom_bond_site_symmetry_2
Mg0_0 Mg0_4 3.387698 1_455
Mg0_0 Mg0_4 3.387698 1_555
Mg0_0 Mg0_2 3.387981 1_555
Mg0_0 Mg0_2 3.387981 1_545
Mg0_0 Mg0_6 3.387982 1_555
Mg0_0 Mg0_6 3.387982 1_445
Mg0_0 Te2_4 3.523573 1_455
Mg0_0 Te2_0 3.523575 1_555
Mg0_0 Te2_6 3.524263 1_445
Mg0_1 Mg0_5 3.387698 1_455
Mg0_1 Mg0_5 3.387698 1_555
Mg0_1 Mg0_3 3.387981 1_555
Mg0_1 Mg0_3 3.387981 1_545
Mg0_1 Mg0_7 3.387982 1_555
Mg0_1 Mg0_7 3.387982 1_445
Mg0_1 Te2_5 3.523573 1_455
Mg0_1 Te2_1 3.523575 1_555
Mg0_1 Te2_7 3.524263 1_445
Mg0_2 Mg0_6 3.387698 1_555
Mg0_2 Mg0_6 3.387698 1_455
Mg0_2 Mg0_4 3.387982 1_455
Mg0_2 Mg0_4 3.387982 1_565
Mg0_2 Te2_6 3.523573 1_455
Mg0_2 Te2_2 3.523575 1_555
Mg0_2 Te2_4 3.524263 1_455
Mg0_3 Mg0_7 3.387698 1_555
Mg0_3 Mg0_7 3.387698 1_455
Mg0_3 Mg0_5 3.387982 1_455
Mg0_3 Mg0_5 3.387982 1_565
Mg0_3 Te2_7 3.523573 1_455
Mg0_3 Te2_3 3.523575 1_555
Mg0_3 Te2_5 3.524263 1_455
Mg0_4 Mg0_6 3.387981 1_555
Mg0_4 Mg0_6 3.387981 1_545
Mg0_4 Te2_0 3.523573 1_555
Mg0_4 Te2_4 3.523575 1_555
Mg0_4 Te2_2 3.524263 1_545
Mg0_5 Mg0_7 3.387981 1_545
Mg0_5 Mg0_7 3.387981 1_555
Mg0_5 Te2_1 3.523573 1_555
Mg0_5 Te2_5 3.523575 1_555
Mg0_5 Te2_3 3.524263 1_545
Mg0_6 Te2_2 3.523573 1_555
Mg0_6 Te2_6 3.523575 1_555
Mg0_6 Te2_0 3.524263 1_555
Mg0_7 Te2_3 3.523573 1_555
Mg0_7 Te2_7 3.523575 1_555
Mg0_7 Te2_1 3.524263 1_555
Te0_0 W2_2 2.718522 1_555
Te0_0 W2_4 2.718615 1_455
Te0_0 W2_0 2.718621 1_555
Te0_1 W2_3 2.718522 1_555
Te0_1 W2_5 2.718615 1_455
Te0_1 W2_1 2.718621 1_555
Te0_2 W2_0 2.718522 1_565
Te0_2 W2_6 2.718615 1_455
Te0_2 W2_2 2.718621 1_555
Te0_3 W2_1 2.718522 1_565
Te0_3 W2_7 2.718615 1_455
Te0_3 W2_3 2.718621 1_555
Te0_4 W2_6 2.718522 1_555
Te0_4 W2_0 2.718615 1_555
Te0_4 W2_4 2.718621 1_555
Te0_5 W2_7 2.718522 1_555
Te0_5 W2_1 2.718615 1_555
Te0_5 W2_5 2.718621 1_555
Te0_6 W2_4 2.718522 1_565
Te0_6 W2_2 2.718615 1_555
Te0_6 W2_6 2.718621 1_555
Te0_7 W2_5 2.718522 1_565
Te0_7 W2_3 2.718615 1_555
Te0_7 W2_7 2.718621 1_555
Te3_0 W2_4 2.718849 1_455
Te3_0 W2_0 2.718855 1_555
Te3_0 W2_2 2.718927 1_555
Te3_1 W2_5 2.718849 1_455
Te3_1 W2_1 2.718855 1_555
Te3_1 W2_3 2.718927 1_555
Te3_2 W2_6 2.718849 1_455
Te3_2 W2_2 2.718855 1_555
Te3_2 W2_0 2.718927 1_565
Te3_3 W2_7 2.718849 1_455
Te3_3 W2_3 2.718855 1_555
Te3_3 W2_1 2.718927 1_565
Te3_4 W2_0 2.718849 1_555
Te3_4 W2_4 2.718855 1_555
Te3_4 W2_6 2.718927 1_555
Te3_5 W2_1 2.718849 1_555
Te3_5 W2_5 2.718855 1_555
Te3_5 W2_7 2.718927 1_555
Te3_6 W2_2 2.718849 1_555
Te3_6 W2_6 2.718855 1_555
Te3_6 W2_4 2.718927 1_565
Te3_7 W2_3 2.718849 1_555
Te3_7 W2_7 2.718855 1_555
Te3_7 W2_5 2.718927 1_565
Mo0_0 Te1_0 2.709885 1_555
Mo0_0 Te1_4 2.709886 1_455
Mo0_0 Te1_2 2.709942 1_555
Mo0_0 Te2_2 2.724428 1_555
Mo0_0 Te2_0 2.724598 1_555
Mo0_0 Te2_4 2.724599 1_455
Mo0_1 Te1_1 2.709885 1_555
Mo0_1 Te1_5 2.709886 1_455
Mo0_1 Te1_3 2.709942 1_555
Mo0_1 Te2_3 2.724428 1_555
Mo0_1 Te2_1 2.724598 1_555
Mo0_1 Te2_5 2.724599 1_455
Mo0_2 Te1_2 2.709885 1_555
Mo0_2 Te1_6 2.709886 1_455
Mo0_2 Te1_0 2.709942 1_565
Mo0_2 Te2_0 2.724428 1_565
Mo0_2 Te2_2 2.724598 1_555
Mo0_2 Te2_6 2.724599 1_455
Mo0_3 Te1_3 2.709885 1_555
Mo0_3 Te1_7 2.709886 1_455
Mo0_3 Te1_1 2.709942 1_565
Mo0_3 Te2_1 2.724428 1_565
Mo0_3 Te2_3 2.724598 1_555
Mo0_3 Te2_7 2.724599 1_455
Mo0_4 Te1_4 2.709885 1_555
Mo0_4 Te1_0 2.709886 1_555
Mo0_4 Te1_6 2.709942 1_555
Mo0_4 Te2_6 2.724428 1_555
Mo0_4 Te2_4 2.724598 1_555
Mo0_4 Te2_0 2.724599 1_555
Mo0_5 Te1_5 2.709885 1_555
Mo0_5 Te1_1 2.709886 1_555
Mo0_5 Te1_7 2.709942 1_555
Mo0_5 Te2_7 2.724428 1_555
Mo0_5 Te2_5 2.724598 1_555
Mo0_5 Te2_1 2.724599 1_555
Mo0_6 Te1_6 2.709885 1_555
Mo0_6 Te1_2 2.709886 1_555
Mo0_6 Te1_4 2.709942 1_565
Mo0_6 Te2_4 2.724428 1_565
Mo0_6 Te2_6 2.724598 1_555
Mo0_6 Te2_2 2.724599 1_555
Mo0_7 Te1_7 2.709885 1_555
Mo0_7 Te1_3 2.709886 1_555
Mo0_7 Te1_5 2.709942 1_565
Mo0_7 Te2_5 2.724428 1_565
Mo0_7 Te2_7 2.724598 1_555
Mo0_7 Te2_3 2.724599 1_555
Se0_0 W0_2 2.564390 1_545
Se0_0 W0_4 2.564406 1_555
Se0_0 W0_0 2.564408 1_555
Se0_1 W0_3 2.564390 1_545
Se0_1 W0_5 2.564406 1_555
Se0_1 W0_1 2.564408 1_555
Se0_2 W0_0 2.564390 1_555
Se0_2 W0_6 2.564406 1_555
Se0_2 W0_2 2.564408 1_555
Se0_3 W0_1 2.564390 1_555
Se0_3 W0_7 2.564406 1_555
Se0_3 W0_3 2.564408 1_555
Se0_4 W0_6 2.564390 1_545
Se0_4 W0_0 2.564406 1_655
Se0_4 W0_4 2.564408 1_555
Se0_5 W0_7 2.564390 1_545
Se0_5 W0_1 2.564406 1_655
Se0_5 W0_5 2.564408 1_555
Se0_6 W0_4 2.564390 1_555
Se0_6 W0_2 2.564406 1_655
Se0_6 W0_6 2.564408 1_555
Se0_7 W0_5 2.564390 1_555
Se0_7 W0_3 2.564406 1_655
Se0_7 W0_7 2.564408 1_555
Se1_0 W0_4 2.565310 1_555
Se1_0 W0_0 2.565312 1_555
Se1_0 W0_2 2.565653 1_545
Se1_1 W0_5 2.565310 1_555
Se1_1 W0_1 2.565312 1_555
Se1_1 W0_3 2.565653 1_545
Se1_2 W0_6 2.565310 1_555
Se1_2 W0_2 2.565312 1_555
Se1_2 W0_0 2.565653 1_555
Se1_3 W0_7 2.565310 1_555
Se1_3 W0_3 2.565312 1_555
Se1_3 W0_1 2.565653 1_555
Se1_4 W0_0 2.565310 1_655
Se1_4 W0_4 2.565312 1_555
Se1_4 W0_6 2.565653 1_545
Se1_5 W0_1 2.565310 1_655
Se1_5 W0_5 2.565312 1_555
Se1_5 W0_7 2.565653 1_545
Se1_6 W0_2 2.565310 1_655
Se1_6 W0_6 2.565312 1_555
Se1_6 W0_4 2.565653 1_555
Se1_7 W0_3 2.565310 1_655
Se1_7 W0_7 2.565312 1_555
Se1_7 W0_5 2.565653 1_555
S0_0 W1_4 2.466825 1_455
S0_0 W1_0 2.466829 1_555
S0_0 W1_2 2.466888 1_555
S0_1 W1_5 2.466825 1_455
S0_1 W1_1 2.466829 1_555
S0_1 W1_3 2.466888 1_555
S0_2 W1_6 2.466825 1_455
S0_2 W1_2 2.466829 1_555
S0_2 W1_0 2.466888 1_565
S0_3 W1_7 2.466825 1_455
S0_3 W1_3 2.466829 1_555
S0_3 W1_1 2.466888 1_565
S0_4 W1_0 2.466825 1_555
S0_4 W1_4 2.466829 1_555
S0_4 W1_6 2.466888 1_555
S0_5 W1_1 2.466825 1_555
S0_5 W1_5 2.466829 1_555
S0_5 W1_7 2.466888 1_555
S0_6 W1_2 2.466825 1_555
S0_6 W1_6 2.466829 1_555
S0_6 W1_4 2.466888 1_565
S0_7 W1_3 2.466825 1_555
S0_7 W1_7 2.466829 1_555
S0_7 W1_5 2.466888 1_565
S1_0 W1_4 2.472764 1_455
S1_0 W1_0 2.472770 1_555
S1_0 W1_2 2.472914 1_555
S1_1 W1_5 2.472764 1_455
S1_1 W1_1 2.472770 1_555
S1_1 W1_3 2.472914 1_555
S1_2 W1_6 2.472764 1_455
S1_2 W1_2 2.472770 1_555
S1_2 W1_0 2.472914 1_565
S1_3 W1_7 2.472764 1_455
S1_3 W1_3 2.472770 1_555
S1_3 W1_1 2.472914 1_565
S1_4 W1_0 2.472764 1_555
S1_4 W1_4 2.472770 1_555
S1_4 W1_6 2.472914 1_555
S1_5 W1_1 2.472764 1_555
S1_5 W1_5 2.472770 1_555
S1_5 W1_7 2.472914 1_555
S1_6 W1_2 2.472764 1_555
S1_6 W1_6 2.472770 1_555
S1_6 W1_4 2.472914 1_565
S1_7 W1_3 2.472764 1_555
S1_7 W1_7 2.472770 1_555
S1_7 W1_5 2.472914 1_565
