# generated using pymatgen
data_Na7Sc2Ti2Si3(PO8)3
_symmetry_space_group_name_H-M   'P 1'
_cell_length_a   9.02798837
_cell_length_b   9.01408106
_cell_length_c   22.17719485
_cell_angle_alpha   90.06824206
_cell_angle_beta   89.95362343
_cell_angle_gamma   119.99106057
_symmetry_Int_Tables_number   1
_chemical_formula_structural   Na7Sc2Ti2Si3(PO8)3
_chemical_formula_sum   'Na21 Sc6 Ti6 Si9 P9 O72'
_cell_volume   1563.10620214
_cell_formula_units_Z   3
loop_
 _symmetry_equiv_pos_site_id
 _symmetry_equiv_pos_as_xyz
  1  'x, y, z'
loop_
 _atom_site_type_symbol
 _atom_site_label
 _atom_site_symmetry_multiplicity
 _atom_site_fract_x
 _atom_site_fract_y
 _atom_site_fract_z
 _atom_site_occupancy
  Na  Na0  1  0.62996426  0.00174087  0.25191053  1
  Na  Na1  1  0.36948696  0.37151372  0.24879567  1
  Na  Na2  1  0.00041729  0.62398942  0.25018595  1
  Na  Na3  1  0.63264964  0.63362461  0.74887788  1
  Na  Na4  1  0.99359279  0.36505576  0.74881595  1
  Na  Na5  1  0.37225963  0.00081784  0.74702523  1
  Na  Na6  1  0.03074425  0.69625975  0.58405948  1
  Na  Na7  1  0.66098336  0.96661935  0.58277677  1
  Na  Na8  1  0.66830761  0.69299064  0.08351966  1
  Na  Na9  1  0.02778444  0.33590290  0.08494199  1
  Na  Na10  1  0.96138859  0.66464696  0.91937253  1
  Na  Na11  1  0.70133603  0.03307454  0.91689942  1
  Na  Na12  1  0.33896104  0.30226252  0.91838339  1
  Na  Na13  1  0.96995882  0.30650644  0.41628081  1
  Na  Na14  1  0.33592108  0.03330988  0.41685417  1
  Na  Na15  1  0.00163312  0.99877533  0.49996837  1
  Na  Na16  1  0.00800021  0.99505805  0.00209407  1
  Na  Na17  1  0.66699731  0.33336751  0.83326191  1
  Na  Na18  1  0.67145150  0.34351810  0.33655192  1
  Na  Na19  1  0.32735286  0.67042448  0.16545240  1
  Na  Na20  1  0.33380939  0.65867100  0.66284344  1
  Sc  Sc0  1  0.99350864  0.99816467  0.85281923  1
  Sc  Sc1  1  0.66847777  0.32974102  0.68074383  1
  Sc  Sc2  1  0.67206502  0.33704465  0.18264769  1
  Sc  Sc3  1  0.66369966  0.33880776  0.98565494  1
  Sc  Sc4  1  0.32804591  0.66303458  0.31762285  1
  Sc  Sc5  1  0.33937477  0.66836799  0.81363365  1
  Ti  Ti0  1  0.98619249  0.99422007  0.35605227  1
  Ti  Ti1  1  0.00141846  0.00860249  0.64436880  1
  Ti  Ti2  1  0.01328154  0.00687187  0.14597268  1
  Ti  Ti3  1  0.66843260  0.32932701  0.48305689  1
  Ti  Ti4  1  0.33605553  0.66800834  0.02098155  1
  Ti  Ti5  1  0.33009836  0.67141179  0.51674138  1
  Si  Si0  1  0.99947614  0.28743097  0.25052166  1
  Si  Si1  1  0.70794617  0.00202807  0.74888617  1
  Si  Si2  1  0.96719867  0.33652186  0.58283515  1
  Si  Si3  1  0.36964225  0.03895009  0.58257679  1
  Si  Si4  1  0.96966804  0.63642501  0.08360743  1
  Si  Si5  1  0.36869573  0.33286945  0.08345783  1
  Si  Si6  1  0.62599370  0.66444089  0.91709800  1
  Si  Si7  1  0.62520274  0.95924755  0.41678496  1
  Si  Si8  1  0.03335613  0.66574294  0.41653599  1
  P  P0  1  0.28508272  0.00085744  0.25146204  1
  P  P1  1  0.71531777  0.71600888  0.24946674  1
  P  P2  1  0.28829440  0.28792520  0.74947698  1
  P  P3  1  0.99835822  0.70977707  0.74862287  1
  P  P4  1  0.66291202  0.62422346  0.58327222  1
  P  P5  1  0.66539550  0.03381436  0.08374572  1
  P  P6  1  0.04392258  0.37717859  0.91744309  1
  P  P7  1  0.33542293  0.95639140  0.91721079  1
  P  P8  1  0.33725032  0.37565358  0.41688420  1
  O  O0  1  0.19901096  0.02265696  0.30815276  1
  O  O1  1  0.83073106  0.80757974  0.30549065  1
  O  O2  1  0.97952005  0.16529746  0.30942868  1
  O  O3  1  0.21361894  0.18346299  0.80757726  1
  O  O4  1  0.97674897  0.79267119  0.80654833  1
  O  O5  1  0.82282254  0.03181705  0.80921662  1
  O  O6  1  0.81211286  0.97778579  0.69108053  1
  O  O7  1  0.16938678  0.18860127  0.69523793  1
  O  O8  1  0.02383731  0.82402587  0.69293953  1
  O  O9  1  0.80077444  0.82325206  0.19289068  1
  O  O10  1  0.01892130  0.18587648  0.19196779  1
  O  O11  1  0.17037551  0.97725999  0.19560635  1
  O  O12  1  0.89129313  0.37835102  0.64272019  1
  O  O13  1  0.48797260  0.11412642  0.64221151  1
  O  O14  1  0.63806906  0.52580558  0.64238420  1
  O  O15  1  0.88935114  0.51101523  0.14237141  1
  O  O16  1  0.63782714  0.11576223  0.14033406  1
  O  O17  1  0.49057041  0.37576839  0.14246391  1
  O  O18  1  0.44698088  0.29919850  0.02304535  1
  O  O19  1  0.84668758  0.55439341  0.02488637  1
  O  O20  1  0.70043111  0.14735189  0.02782424  1
  O  O21  1  0.46818867  0.16180661  0.52444967  1
  O  O22  1  0.69393239  0.52897709  0.53098126  1
  O  O23  1  0.83383577  0.30012848  0.52622644  1
  O  O24  1  0.52268196  0.68844236  0.97470533  1
  O  O25  1  0.15750142  0.47059396  0.97286632  1
  O  O26  1  0.30995920  0.83625651  0.97073714  1
  O  O27  1  0.53023883  0.83782934  0.47517926  1
  O  O28  1  0.30502620  0.46933923  0.46918077  1
  O  O29  1  0.16588712  0.69898794  0.47336350  1
  O  O30  1  0.11032918  0.62174156  0.35692685  1
  O  O31  1  0.50973056  0.88305103  0.35655207  1
  O  O32  1  0.36340156  0.47594282  0.35773610  1
  O  O33  1  0.12086255  0.48406123  0.85987551  1
  O  O34  1  0.35787750  0.87707886  0.85843484  1
  O  O35  1  0.51080552  0.63500225  0.85686349  1
  O  O36  1  0.03038805  0.84586879  0.41021677  1
  O  O37  1  0.82061170  0.98685534  0.41161668  1
  O  O38  1  0.17165116  0.19429539  0.41271549  1
  O  O39  1  0.03528361  0.20126202  0.91538620  1
  O  O40  1  0.17523150  0.97659979  0.91508198  1
  O  O41  1  0.81443241  0.83837687  0.91701255  1
  O  O42  1  0.97250191  0.15644020  0.58909702  1
  O  O43  1  0.17489641  0.00815374  0.58942189  1
  O  O44  1  0.83022435  0.80509360  0.58692152  1
  O  O45  1  0.97836326  0.82097981  0.09335113  1
  O  O46  1  0.82555067  0.01223103  0.09018474  1
  O  O47  1  0.17282658  0.16884434  0.09091699  1
  O  O48  1  0.68865896  0.17240458  0.74583942  1
  O  O49  1  0.46926851  0.31401135  0.74320386  1
  O  O50  1  0.83504895  0.53232669  0.74523476  1
  O  O51  1  0.69857475  0.53666927  0.24803898  1
  O  O52  1  0.82579004  0.30084522  0.24931314  1
  O  O53  1  0.46298445  0.16271554  0.24603803  1
  O  O54  1  0.64612894  0.49444401  0.91986119  1
  O  O55  1  0.86200774  0.35022729  0.92309032  1
  O  O56  1  0.49876010  0.13296802  0.92233425  1
  O  O57  1  0.64798682  0.15216009  0.42512136  1
  O  O58  1  0.49127701  0.34821152  0.42489953  1
  O  O59  1  0.84729333  0.49559089  0.42805231  1
  O  O60  1  0.34637947  0.50406685  0.07526904  1
  O  O61  1  0.15677987  0.65184422  0.07371149  1
  O  O62  1  0.50774763  0.85175544  0.07710569  1
  O  O63  1  0.35156515  0.84738467  0.57408483  1
  O  O64  1  0.51015811  0.65325861  0.57488665  1
  O  O65  1  0.15377056  0.50521652  0.57188189  1
  O  O66  1  0.30229741  0.83855871  0.25242159  1
  O  O67  1  0.53726232  0.69934179  0.25425006  1
  O  O68  1  0.17304089  0.47486542  0.25103762  1
  O  O69  1  0.29573642  0.46301707  0.75065544  1
  O  O70  1  0.15814303  0.68880329  0.75170594  1
  O  O71  1  0.51992174  0.82776151  0.74919383  1
loop_
_geom_bond_atom_site_label_1
_geom_bond_atom_site_label_2
_geom_bond_distance
_geom_bond_site_symmetry_2
Na0 O52 2.373394 1_555
Na0 O67 2.419289 1_545
Na0 O31 2.559132 1_545
Na0 O66 2.562117 1_545
Na0 O53 2.565660 1_555
Na0 O16 2.667801 1_555
Na1 O68 2.380605 1_555
Na1 O53 2.417959 1_555
Na1 O67 2.562419 1_555
Na1 O51 2.573247 1_555
Na1 O17 2.590633 1_555
Na1 O32 2.602348 1_555
Na2 O66 2.429233 1_555
Na2 O51 2.429692 1_455
Na2 O68 2.516038 1_555
Na2 O52 2.525761 1_455
Na2 O30 2.571528 1_555
Na2 O15 2.595517 1_455
Na3 O50 2.418013 1_555
Na3 O71 2.424579 1_555
Na3 O49 2.498563 1_555
Na3 O14 2.562542 1_555
Na3 O69 2.634726 1_555
Na3 O35 2.637166 1_555
Na4 O69 2.411241 1_655
Na4 O48 2.412333 1_555
Na4 O70 2.528435 1_655
Na4 O50 2.546861 1_555
Na4 O12 2.553104 1_555
Na4 O33 2.702463 1_655
Na5 O48 2.476969 1_555
Na5 O70 2.494561 1_545
Na5 O49 2.504596 1_555
Na5 O71 2.508414 1_545
Na5 O13 2.544154 1_555
Na5 O34 2.688278 1_545
Na6 O43 2.440001 1_565
Na6 O44 2.453317 1_455
Na6 O65 2.486498 1_555
Na6 O63 2.519677 1_555
Na6 O8 2.688079 1_555
Na6 O29 2.735166 1_555
Na6 O12 2.808707 1_455
Na6 O22 2.884984 1_455
Na7 O63 2.448345 1_555
Na7 O64 2.453051 1_555
Na7 O42 2.458881 1_565
Na7 O44 2.586017 1_555
Na7 O27 2.657634 1_555
Na7 O6 2.740098 1_555
Na7 O13 2.830852 1_565
Na7 O23 2.891624 1_565
Na8 O45 2.446592 1_555
Na8 O46 2.496666 1_565
Na8 O62 2.498839 1_555
Na8 O60 2.536246 1_555
Na8 O9 2.699304 1_555
Na8 O24 2.739465 1_554
Na8 O19 2.801644 1_555
Na8 O17 2.806878 1_555
Na9 O47 2.443756 1_555
Na9 O61 2.492874 1_555
Na9 O60 2.501543 1_555
Na9 O46 2.556246 1_455
Na9 O10 2.714418 1_555
Na9 O25 2.757603 1_554
Na9 O15 2.764142 1_455
Na9 O20 2.864724 1_455
Na10 O54 2.467613 1_555
Na10 O40 2.493276 1_655
Na10 O41 2.508532 1_555
Na10 O55 2.510527 1_555
Na10 O19 2.551151 1_556
Na10 O4 2.730924 1_555
Na10 O26 2.954390 1_655
Na10 O33 2.966211 1_655
Na11 O56 2.411590 1_555
Na11 O41 2.431887 1_545
Na11 O55 2.479825 1_555
Na11 O39 2.611416 1_655
Na11 O5 2.629488 1_555
Na11 O20 2.667421 1_556
Na12 O39 2.419597 1_555
Na12 O54 2.426839 1_555
Na12 O18 2.523900 1_556
Na12 O40 2.543501 1_545
Na12 O56 2.572785 1_555
Na12 O3 2.693082 1_555
Na13 O59 2.466794 1_555
Na13 O38 2.487125 1_655
Na13 O37 2.499296 1_545
Na13 O57 2.525877 1_555
Na13 O2 2.710232 1_555
Na13 O23 2.717284 1_555
Na13 O30 2.796289 1_655
Na13 O28 2.871250 1_655
Na14 O36 2.413654 1_545
Na14 O58 2.464835 1_555
Na14 O57 2.470139 1_555
Na14 O38 2.542758 1_555
Na14 O21 2.660186 1_555
Na14 O0 2.689614 1_555
Na14 O31 2.863957 1_545
Na14 O29 2.896524 1_545
Na15 O43 2.502384 1_565
Na15 O36 2.505858 1_555
Na15 O37 2.520060 1_455
Na15 O42 2.522333 1_465
Na15 O44 2.542360 1_455
Na15 O38 2.550554 1_565
Na16 O41 2.477980 1_454
Na16 O47 2.493097 1_565
Na16 O45 2.493324 1_455
Na16 O40 2.505274 1_554
Na16 O39 2.600636 1_564
Na16 O46 2.608183 1_465
Na17 O54 2.469484 1_555
Na17 O48 2.485698 1_555
Na17 O50 2.571500 1_555
Na17 O56 2.594774 1_555
Na17 O55 2.613185 1_555
Na17 O49 2.626693 1_555
Na18 O59 2.517939 1_555
Na18 O52 2.522345 1_555
Na18 O57 2.553521 1_555
Na18 O51 2.554547 1_555
Na18 O58 2.559290 1_555
Na18 O53 2.675726 1_555
Na19 O68 2.489847 1_555
Na19 O61 2.507045 1_555
Na19 O66 2.530456 1_555
Na19 O62 2.550295 1_555
Na19 O60 2.555006 1_555
Na19 O67 2.654855 1_555
Na20 O71 2.500307 1_555
Na20 O65 2.524996 1_555
Na20 O64 2.532678 1_555
Na20 O69 2.534185 1_555
Na20 O63 2.555170 1_555
Na20 O70 2.626204 1_555
O0 P0 1.540638 1_555
O0 Ti0 2.095376 1_445
O1 P1 1.565411 1_555
O1 Ti0 1.922254 1_555
O2 Si0 1.660091 1_555
O2 Ti0 1.883508 1_545
O3 P2 1.538910 1_555
O3 Sc0 2.104253 1_445
O4 P3 1.545862 1_555
O4 Sc0 2.054889 1_555
O5 Si1 1.631197 1_555
O5 Sc0 1.967749 1_545
O6 Si1 1.666853 1_565
O6 Ti1 1.895883 1_665
O7 P2 1.561905 1_555
O7 Ti1 1.934798 1_555
O8 P3 1.550555 1_455
O8 Ti1 2.076226 1_565
O9 P1 1.536133 1_555
O9 Ti2 2.080671 1_665
O10 Si0 1.646976 1_455
O10 Ti2 1.886980 1_555
O11 P0 1.559913 1_565
O11 Ti2 1.917281 1_565
O12 Si2 1.622103 1_555
O12 Sc1 2.016548 1_555
O13 Si3 1.620479 1_555
O13 Sc1 1.998800 1_555
O14 P4 1.535991 1_555
O14 Sc1 2.100377 1_555
O15 Si4 1.638471 1_555
O15 Sc2 2.007542 1_555
O16 P5 1.537412 1_555
O16 Sc2 2.081927 1_555
O17 Si5 1.627369 1_555
O17 Sc2 2.043451 1_555
O18 Si5 1.612013 1_555
O18 Sc3 1.985650 1_554
O19 Si4 1.629312 1_555
O19 Sc3 2.012799 1_554
O20 P5 1.537622 1_555
O20 Sc3 2.130593 1_554
O21 Si3 1.642030 1_555
O21 Ti3 1.913778 1_555
O22 P4 1.548501 1_555
O22 Ti3 2.000758 1_555
O23 Si2 1.655269 1_555
O23 Ti3 1.900394 1_555
O24 Si6 1.657728 1_555
O24 Ti4 1.900874 1_556
O25 P6 1.551650 1_555
O25 Ti4 2.008547 1_556
O26 P7 1.545444 1_555
O26 Ti4 1.989691 1_556
O27 Si7 1.635077 1_555
O27 Ti5 1.911937 1_555
O28 P8 1.544553 1_555
O28 Ti5 2.016243 1_555
O29 Si8 1.659145 1_555
O29 Ti5 1.885820 1_555
O30 Si8 1.631141 1_555
O30 Sc4 2.007056 1_555
O31 Si7 1.620837 1_555
O31 Sc4 2.028574 1_555
O32 P8 1.543565 1_555
O32 Sc4 2.068721 1_555
O33 P6 1.540488 1_555
O33 Sc5 2.104210 1_555
O34 P7 1.547106 1_555
O34 Sc5 2.058188 1_555
O35 Si6 1.631508 1_555
O35 Sc5 1.968079 1_555
O36 Si8 1.643382 1_555
O36 Ti0 1.982013 1_455
O37 Si7 1.657748 1_555
O37 Ti0 1.911934 1_555
O38 P8 1.572462 1_555
O38 Ti0 2.148082 1_445
O39 P6 1.548833 1_555
O39 Sc0 2.173404 1_445
O40 P7 1.546100 1_555
O40 Sc0 2.226905 1_455
O41 Si6 1.638844 1_555
O41 Sc0 2.094803 1_555
O42 Si2 1.653732 1_555
O42 Ti1 1.923215 1_655
O43 Si3 1.644073 1_555
O43 Ti1 1.985196 1_555
O44 P4 1.576118 1_555
O44 Ti1 2.130771 1_665
O45 Si4 1.639820 1_555
O45 Ti2 1.933106 1_665
O46 P5 1.558985 1_555
O46 Ti2 2.119172 1_655
O47 Si5 1.651256 1_555
O47 Ti2 1.896348 1_555
O48 Si1 1.631300 1_555
O48 Sc1 2.095789 1_555
O49 P2 1.536126 1_555
O49 Sc1 2.216937 1_555
O50 P3 1.542776 1_555
O50 Sc1 2.212143 1_555
O51 P1 1.546862 1_555
O51 Sc2 2.227579 1_555
O52 Si0 1.632086 1_555
O52 Sc2 2.162306 1_555
O53 P0 1.542770 1_555
O53 Sc2 2.245935 1_555
O54 Si6 1.632074 1_555
O54 Sc3 2.085691 1_555
O55 P6 1.540388 1_655
O55 Sc3 2.225558 1_555
O56 P7 1.540839 1_545
O56 Sc3 2.206141 1_555
O57 Si7 1.655920 1_545
O57 Ti3 1.983960 1_555
O58 P8 1.539742 1_555
O58 Ti3 2.127549 1_555
O59 Si8 1.632133 1_655
O59 Ti3 1.980749 1_555
O60 Si5 1.663294 1_555
O60 Ti4 1.945283 1_555
O61 Si4 1.638833 1_455
O61 Ti4 1.941611 1_555
O62 P5 1.550875 1_565
O62 Ti4 2.031442 1_555
O63 Si3 1.661756 1_565
O63 Ti5 1.964490 1_555
O64 P4 1.538265 1_555
O64 Ti5 2.145206 1_555
O65 Si2 1.627275 1_455
O65 Ti5 1.972522 1_555
O66 P0 1.546701 1_565
O66 Sc4 2.240961 1_555
O67 P1 1.541475 1_555
O67 Sc4 2.242483 1_555
O68 Si0 1.631958 1_455
O68 Sc4 2.154127 1_555
O69 P2 1.545994 1_555
O69 Sc5 2.190431 1_555
O70 P3 1.547310 1_455
O70 Sc5 2.214198 1_555
O71 Si1 1.638079 1_565
O71 Sc5 2.103167 1_555
