# generated using pymatgen
data_Na18Mg16Nb8Si9(S3O16)9
_symmetry_space_group_name_H-M   'P 1'
_cell_length_a   17.64176071
_cell_length_b   8.84370628
_cell_length_c   22.53942656
_cell_angle_alpha   89.97530775
_cell_angle_beta   90.18334179
_cell_angle_gamma   119.99343309
_symmetry_Int_Tables_number   1
_chemical_formula_structural   Na18Mg16Nb8Si9(S3O16)9
_chemical_formula_sum   'Na18 Mg16 Nb8 Si9 S27 O144'
_cell_volume   3045.62092159
_cell_formula_units_Z   1
loop_
 _symmetry_equiv_pos_site_id
 _symmetry_equiv_pos_as_xyz
  1  'x, y, z'
loop_
 _atom_site_type_symbol
 _atom_site_label
 _atom_site_symmetry_multiplicity
 _atom_site_fract_x
 _atom_site_fract_y
 _atom_site_fract_z
 _atom_site_occupancy
  Na  Na0  1  0.35344370  0.03748506  0.90677525  1
  Na  Na1  1  0.84660229  0.03534188  0.90812837  1
  Na  Na2  1  0.66519106  0.28654489  0.90552606  1
  Na  Na3  1  0.16493565  0.04347403  0.41063595  1
  Na  Na4  1  0.34383167  0.65323859  0.42302980  1
  Na  Na5  1  0.85326836  0.67090178  0.41054265  1
  Na  Na6  1  0.00752436  0.03647929  0.49814452  1
  Na  Na7  1  0.51031273  0.01246136  0.50169636  1
  Na  Na8  1  0.00813871  0.00595236  0.99578593  1
  Na  Na9  1  0.50500490  0.97814969  0.99175938  1
  Na  Na10  1  0.32586119  0.33058266  0.82045083  1
  Na  Na11  1  0.82473415  0.31531680  0.82253201  1
  Na  Na12  1  0.32354027  0.31940811  0.32922099  1
  Na  Na13  1  0.82554566  0.32228627  0.32165781  1
  Na  Na14  1  0.16489035  0.67111715  0.16107785  1
  Na  Na15  1  0.67275825  0.67682665  0.15985704  1
  Na  Na16  1  0.17007405  0.66986019  0.66079731  1
  Na  Na17  1  0.66907195  0.66292861  0.66403155  1
  Mg  Mg0  1  0.00560085  0.01025107  0.35014919  1
  Mg  Mg1  1  0.50567033  0.00840060  0.35249513  1
  Mg  Mg2  1  0.00347622  0.00740606  0.84991648  1
  Mg  Mg3  1  0.50495280  0.99947589  0.84987937  1
  Mg  Mg4  1  0.33002547  0.32546194  0.68635608  1
  Mg  Mg5  1  0.82806286  0.32579732  0.68740352  1
  Mg  Mg6  1  0.32756404  0.32426130  0.18442922  1
  Mg  Mg7  1  0.83122222  0.33334334  0.18698937  1
  Mg  Mg8  1  0.33073539  0.33641573  0.98140841  1
  Mg  Mg9  1  0.83260208  0.32579803  0.97871411  1
  Mg  Mg10  1  0.33057737  0.33384924  0.48298640  1
  Mg  Mg11  1  0.82999697  0.32332213  0.48513560  1
  Mg  Mg12  1  0.16543705  0.66519127  0.01929398  1
  Mg  Mg13  1  0.66630574  0.67480643  0.01753171  1
  Mg  Mg14  1  0.16585921  0.65642272  0.52147836  1
  Mg  Mg15  1  0.66502377  0.66635332  0.52098031  1
  Nb  Nb0  1  0.99906492  0.00975097  0.65007584  1
  Nb  Nb1  1  0.49903352  0.01109432  0.65166339  1
  Nb  Nb2  1  0.99969090  0.98554092  0.14977170  1
  Nb  Nb3  1  0.50505718  0.99847891  0.14555078  1
  Nb  Nb4  1  0.16407543  0.65878140  0.31244173  1
  Nb  Nb5  1  0.66932680  0.67482375  0.30837140  1
  Nb  Nb6  1  0.16747558  0.66189238  0.80792937  1
  Nb  Nb7  1  0.67064438  0.68101212  0.80932050  1
  Si  Si0  1  0.15337628  0.00934289  0.25554872  1
  Si  Si1  1  0.65003405  0.01147816  0.25428427  1
  Si  Si2  1  0.85930878  0.70234426  0.25702847  1
  Si  Si3  1  0.15086194  0.28662353  0.75425623  1
  Si  Si4  1  0.65119742  0.29912453  0.75614665  1
  Si  Si5  1  0.35803180  0.01455083  0.75726884  1
  Si  Si6  1  0.85771454  0.01535507  0.75641219  1
  Si  Si7  1  0.66310687  0.96183299  0.92122091  1
  Si  Si8  1  0.16370994  0.36298963  0.42105710  1
  S  S0  1  0.35592282  0.71017583  0.25157483  1
  S  S1  1  0.99979175  0.28796563  0.24937254  1
  S  S2  1  0.49757444  0.28617966  0.25102454  1
  S  S3  1  0.99858893  0.71186227  0.75093272  1
  S  S4  1  0.49865601  0.70982742  0.74944687  1
  S  S5  1  0.47869226  0.33564978  0.58265979  1
  S  S6  1  0.97834779  0.33655303  0.58431943  1
  S  S7  1  0.18529559  0.03386696  0.58117635  1
  S  S8  1  0.68523815  0.03624025  0.58284537  1
  S  S9  1  0.33519939  0.62978732  0.58251377  1
  S  S10  1  0.83394460  0.62632694  0.58078740  1
  S  S11  1  0.47741386  0.61648883  0.08579925  1
  S  S12  1  0.97858477  0.61905623  0.08296987  1
  S  S13  1  0.33202200  0.03872719  0.08221004  1
  S  S14  1  0.83458027  0.04093511  0.08337289  1
  S  S15  1  0.18685344  0.33658412  0.08348820  1
  S  S16  1  0.68807951  0.34085990  0.08251964  1
  S  S17  1  0.30951637  0.66015732  0.91868436  1
  S  S18  1  0.81414330  0.66770842  0.91872273  1
  S  S19  1  0.02274919  0.37655313  0.91938430  1
  S  S20  1  0.51907398  0.37943213  0.91987749  1
  S  S21  1  0.16474482  0.95484085  0.91917278  1
  S  S22  1  0.31435044  0.95776083  0.41694730  1
  S  S23  1  0.80981040  0.96017732  0.41878820  1
  S  S24  1  0.66500691  0.37595329  0.41886978  1
  S  S25  1  0.01957062  0.65834120  0.41953864  1
  S  S26  1  0.52118183  0.66686831  0.41804301  1
  O  O0  1  0.10926034  0.02312734  0.31480784  1
  O  O1  1  0.60099585  0.03000633  0.30893630  1
  O  O2  1  0.40321234  0.79152178  0.30631751  1
  O  O3  1  0.90674687  0.79624111  0.31676861  1
  O  O4  1  0.48308058  0.18153514  0.30395278  1
  O  O5  1  0.98967500  0.18987666  0.30308844  1
  O  O6  1  0.10656638  0.17374745  0.81058901  1
  O  O7  1  0.60859413  0.18890304  0.81409185  1
  O  O8  1  0.48713187  0.78733955  0.80269093  1
  O  O9  1  0.98706458  0.78936551  0.80424561  1
  O  O10  1  0.40622010  0.01631799  0.81670553  1
  O  O11  1  0.90413530  0.01689384  0.81677965  1
  O  O12  1  0.40259104  0.96956731  0.69711986  1
  O  O13  1  0.90522054  0.97281610  0.69680324  1
  O  O14  1  0.08523825  0.19264024  0.69341570  1
  O  O15  1  0.58300243  0.19150391  0.69623723  1
  O  O16  1  0.01704852  0.82584630  0.69657897  1
  O  O17  1  0.51485821  0.82404192  0.69521314  1
  O  O18  1  0.39865499  0.82672154  0.19830122  1
  O  O19  1  0.90455375  0.83713080  0.19721897  1
  O  O20  1  0.01765573  0.21107656  0.19557439  1
  O  O21  1  0.51178787  0.20085065  0.19693864  1
  O  O22  1  0.08545480  0.97765100  0.19588896  1
  O  O23  1  0.58389469  0.97688342  0.19315351  1
  O  O24  1  0.43777166  0.35300683  0.63611843  1
  O  O25  1  0.93416367  0.34777856  0.63687983  1
  O  O26  1  0.23920136  0.12350184  0.63273360  1
  O  O27  1  0.73738629  0.12122489  0.63539682  1
  O  O28  1  0.32829704  0.52130064  0.63298185  1
  O  O29  1  0.82608525  0.51920923  0.63196781  1
  O  O30  1  0.43353365  0.52069982  0.13937319  1
  O  O31  1  0.93822055  0.52218702  0.13702912  1
  O  O32  1  0.32365589  0.12762457  0.13411782  1
  O  O33  1  0.82660839  0.13221411  0.13482743  1
  O  O34  1  0.23865945  0.35814325  0.13702265  1
  O  O35  1  0.73858946  0.35451140  0.13525540  1
  O  O36  1  0.22494547  0.30629133  0.02985767  1
  O  O37  1  0.72036795  0.30561060  0.02750527  1
  O  O38  1  0.42665923  0.54644046  0.03139728  1
  O  O39  1  0.92623257  0.54432077  0.02924209  1
  O  O40  1  0.34772099  0.13876979  0.02678341  1
  O  O41  1  0.84709206  0.13685948  0.02729614  1
  O  O42  1  0.22111841  0.13217927  0.52493138  1
  O  O43  1  0.72201827  0.13910406  0.52790730  1
  O  O44  1  0.34652556  0.55846509  0.52533225  1
  O  O45  1  0.84571348  0.55331657  0.52400857  1
  O  O46  1  0.42680226  0.30743367  0.52829217  1
  O  O47  1  0.92848395  0.30895423  0.52893453  1
  O  O48  1  0.26627634  0.68589082  0.97009422  1
  O  O49  1  0.77070053  0.69033641  0.97062801  1
  O  O50  1  0.07577849  0.46377266  0.97176346  1
  O  O51  1  0.57358674  0.46136037  0.97270550  1
  O  O52  1  0.15731793  0.85273875  0.97238185  1
  O  O53  1  0.65627873  0.84987797  0.97798309  1
  O  O54  1  0.27273612  0.85050111  0.46899633  1
  O  O55  1  0.76543792  0.84586727  0.46913818  1
  O  O56  1  0.16084555  0.47545380  0.47434723  1
  O  O57  1  0.65730052  0.46419683  0.47127305  1
  O  O58  1  0.07621920  0.68591256  0.47022715  1
  O  O59  1  0.57575185  0.69282919  0.47002044  1
  O  O60  1  0.06529662  0.64513504  0.36301726  1
  O  O61  1  0.56618348  0.65125008  0.36310063  1
  O  O62  1  0.25655380  0.87098147  0.36177834  1
  O  O63  1  0.75486895  0.86812154  0.36234324  1
  O  O64  1  0.17566116  0.49640223  0.35949583  1
  O  O65  1  0.67536720  0.48666011  0.36418201  1
  O  O66  1  0.06749539  0.48181796  0.86462233  1
  O  O67  1  0.56236836  0.48156698  0.86529703  1
  O  O68  1  0.17621040  0.86551572  0.86522738  1
  O  O69  1  0.67498428  0.85241294  0.86146728  1
  O  O70  1  0.25512103  0.64253933  0.86318676  1
  O  O71  1  0.75843434  0.64204658  0.86350823  1
  O  O72  1  0.00891852  0.81325108  0.41418193  1
  O  O73  1  0.50613803  0.81828154  0.41253671  1
  O  O74  1  0.39978607  0.96708799  0.40812160  1
  O  O75  1  0.89612713  0.97508749  0.41256864  1
  O  O76  1  0.07844540  0.17297500  0.41417510  1
  O  O77  1  0.58627148  0.20273149  0.41345376  1
  O  O78  1  0.01114936  0.19856736  0.91590525  1
  O  O79  1  0.50748738  0.20070193  0.91619983  1
  O  O80  1  0.08636638  0.97137750  0.91367795  1
  O  O81  1  0.57874670  0.98434878  0.91305738  1
  O  O82  1  0.39613063  0.81731305  0.91304954  1
  O  O83  1  0.90145981  0.82521803  0.91333893  1
  O  O84  1  0.48740386  0.16920429  0.58803434  1
  O  O85  1  0.98772099  0.17032816  0.58886485  1
  O  O86  1  0.09466031  0.01403683  0.58778701  1
  O  O87  1  0.59429641  0.01600900  0.58870361  1
  O  O88  1  0.41729426  0.80929324  0.58811594  1
  O  O89  1  0.91555392  0.80623105  0.58726631  1
  O  O90  1  0.48552731  0.80299711  0.09169730  1
  O  O91  1  0.98748827  0.80435519  0.08871636  1
  O  O92  1  0.41312696  0.01852492  0.09154225  1
  O  O93  1  0.91786900  0.02706029  0.09064113  1
  O  O94  1  0.09620210  0.17434069  0.08990743  1
  O  O95  1  0.59393762  0.17401251  0.09068219  1
  O  O96  1  0.34468571  0.17394652  0.74360432  1
  O  O97  1  0.84680191  0.17743662  0.74278837  1
  O  O98  1  0.24839265  0.34186944  0.74024213  1
  O  O99  1  0.74718126  0.34116381  0.74181536  1
  O  O100  1  0.42545492  0.53634151  0.73899878  1
  O  O101  1  0.92644648  0.53816738  0.73986753  1
  O  O102  1  0.34713558  0.53917452  0.24264071  1
  O  O103  1  0.84510530  0.51537753  0.24372474  1
  O  O104  1  0.42635020  0.32042979  0.24037839  1
  O  O105  1  0.92695072  0.31735574  0.24029415  1
  O  O106  1  0.24852197  0.16936329  0.24382505  1
  O  O107  1  0.74694731  0.15575603  0.24135566  1
  O  O108  1  0.31495082  0.49990096  0.92148031  1
  O  O109  1  0.81976512  0.50701671  0.92232747  1
  O  O110  1  0.43021183  0.36091169  0.92355927  1
  O  O111  1  0.93559816  0.36279977  0.92103026  1
  O  O112  1  0.24716586  0.12825853  0.92157936  1
  O  O113  1  0.75473723  0.15208800  0.91792834  1
  O  O114  1  0.32227509  0.13121447  0.41957762  1
  O  O115  1  0.81475706  0.13058802  0.42089402  1
  O  O116  1  0.25494140  0.35426679  0.41768979  1
  O  O117  1  0.74700750  0.36611071  0.42036783  1
  O  O118  1  0.43471574  0.50523331  0.42042874  1
  O  O119  1  0.93269460  0.49826056  0.42081138  1
  O  O120  1  0.17422939  0.48931360  0.07806224  1
  O  O121  1  0.67164206  0.48786464  0.07867860  1
  O  O122  1  0.06920308  0.65291975  0.07810803  1
  O  O123  1  0.56708850  0.64806074  0.08336265  1
  O  O124  1  0.25605655  0.86030551  0.07814212  1
  O  O125  1  0.75987747  0.85991525  0.08119073  1
  O  O126  1  0.17338473  0.85595994  0.57690136  1
  O  O127  1  0.67328089  0.85849265  0.57751901  1
  O  O128  1  0.25937925  0.65846931  0.58063750  1
  O  O129  1  0.75722558  0.65247744  0.57698790  1
  O  O130  1  0.06800422  0.48672865  0.58143190  1
  O  O131  1  0.56900281  0.48409014  0.57737468  1
  O  O132  1  0.15470867  0.81947857  0.25677949  1
  O  O133  1  0.64629897  0.81472667  0.25718154  1
  O  O134  1  0.26629865  0.69460183  0.25335195  1
  O  O135  1  0.75850192  0.68878272  0.25957890  1
  O  O136  1  0.08277769  0.46911519  0.25356916  1
  O  O137  1  0.58246244  0.45827744  0.25589306  1
  O  O138  1  0.14679790  0.47650838  0.75847933  1
  O  O139  1  0.64604788  0.48237432  0.75861834  1
  O  O140  1  0.08243696  0.70219143  0.75639346  1
  O  O141  1  0.58168220  0.69998260  0.75264115  1
  O  O142  1  0.25804689  0.82705236  0.76009536  1
  O  O143  1  0.75950764  0.82779830  0.75600680  1
loop_
_geom_bond_atom_site_label_1
_geom_bond_atom_site_label_2
_geom_bond_distance
_geom_bond_site_symmetry_2
Na0 O10 2.282542 1_555
Na0 O79 2.364034 1_555
Na0 O112 2.404209 1_555
Na0 O82 2.417351 1_545
Na0 O110 2.506637 1_555
Na0 O68 2.862592 1_545
Na0 O40 2.867638 1_556
Na1 O113 2.327394 1_555
Na1 O11 2.339936 1_555
Na1 O83 2.490123 1_545
Na1 O78 2.519663 1_655
Na1 O111 2.527455 1_555
Na1 O69 2.823816 1_545
Na1 O41 2.831030 1_556
Na2 O7 2.261890 1_555
Na2 O81 2.328809 1_545
Na2 O113 2.421302 1_555
Na2 O109 2.461601 1_555
Na2 O79 2.503417 1_555
Na2 O71 2.885135 1_555
Na2 O37 2.890333 1_556
Na3 O76 2.322542 1_555
Na3 O0 2.339313 1_555
Na3 O116 2.395090 1_555
Na3 O72 2.475070 1_545
Na3 O114 2.488095 1_555
Na3 O42 2.728074 1_555
Na4 O116 2.306101 1_555
Na4 O74 2.460333 1_555
Na4 O44 2.461524 1_555
Na4 O73 2.492137 1_555
Na4 O118 2.527123 1_555
Na4 O54 2.808465 1_555
Na4 O2 2.871793 1_555
Na4 O64 2.938851 1_555
Na5 O3 2.356125 1_555
Na5 O72 2.382064 1_655
Na5 O75 2.403507 1_555
Na5 O117 2.403959 1_555
Na5 O119 2.546493 1_555
Na5 O45 2.738802 1_555
Na5 O65 2.909399 1_555
Na5 O55 2.991891 1_555
Na6 O76 2.260038 1_555
Na6 O85 2.474777 1_455
Na6 O86 2.601859 1_555
Na6 O75 2.605227 1_445
Na6 O89 2.743739 1_445
Na6 O72 2.744346 1_545
Na7 O87 2.444801 1_555
Na7 O77 2.518489 1_555
Na7 O84 2.537575 1_555
Na7 O88 2.604783 1_545
Na7 O73 2.620789 1_545
Na7 O74 2.757462 1_545
Na8 O80 2.421116 1_545
Na8 O78 2.460423 1_555
Na8 O83 2.553950 1_445
Na8 O94 2.607746 1_556
Na8 O91 2.655363 1_446
Na8 O93 2.731534 1_456
Na9 O81 2.187585 1_555
Na9 O82 2.471565 1_555
Na9 O79 2.586026 1_565
Na9 O90 2.657293 1_556
Na9 O95 2.774373 1_566
Na9 O92 2.900977 1_566
Na10 O98 2.294898 1_555
Na10 O96 2.344136 1_555
Na10 O100 2.567093 1_555
Na10 O108 2.785419 1_555
Na10 O112 2.803159 1_555
Na10 O110 2.888155 1_555
Na11 O97 2.313003 1_555
Na11 O99 2.351682 1_555
Na11 O113 2.542455 1_555
Na11 O101 2.656696 1_555
Na11 O111 2.842943 1_555
Na11 O109 2.845081 1_555
Na12 O106 2.333920 1_555
Na12 O116 2.434090 1_555
Na12 O114 2.622671 1_555
Na12 O102 2.636656 1_555
Na12 O104 2.703046 1_555
Na12 O118 2.743765 1_555
Na13 O107 2.304812 1_555
Na13 O103 2.352191 1_555
Na13 O105 2.581570 1_555
Na13 O117 2.752701 1_555
Na13 O115 2.755022 1_555
Na13 O119 2.832762 1_555
Na14 O122 2.466017 1_555
Na14 O124 2.491303 1_555
Na14 O120 2.526408 1_555
Na14 O132 2.578223 1_555
Na14 O136 2.657933 1_555
Na14 O134 2.678505 1_555
Na15 O125 2.377954 1_555
Na15 O123 2.453217 1_555
Na15 O121 2.471924 1_555
Na15 O133 2.663692 1_555
Na15 O135 2.677670 1_555
Na15 O137 2.810499 1_555
Na16 O128 2.435934 1_555
Na16 O130 2.476204 1_555
Na16 O126 2.487927 1_555
Na16 O142 2.678391 1_555
Na16 O138 2.690823 1_555
Na16 O140 2.752922 1_555
Na17 O129 2.537646 1_555
Na17 O139 2.571759 1_555
Na17 O131 2.573334 1_555
Na17 O143 2.573838 1_555
Na17 O127 2.582368 1_555
Na17 O141 2.645463 1_555
Mg0 O0 1.947514 1_555
Mg0 O3 1.970369 1_445
Mg0 O76 1.986436 1_555
Mg0 O5 2.042169 1_455
Mg0 O72 2.284944 1_545
Mg0 O75 2.285293 1_445
Mg1 O1 1.875555 1_555
Mg1 O4 2.075133 1_555
Mg1 O77 2.099902 1_555
Mg1 O74 2.127695 1_545
Mg1 O2 2.133719 1_545
Mg1 O73 2.161087 1_545
Mg2 O6 1.895186 1_555
Mg2 O11 1.942909 1_455
Mg2 O9 2.074461 1_445
Mg2 O80 2.181127 1_545
Mg2 O78 2.204688 1_555
Mg2 O83 2.234698 1_445
Mg3 O7 1.935466 1_565
Mg3 O10 1.966255 1_565
Mg3 O81 1.975496 1_555
Mg3 O8 2.039511 1_555
Mg3 O82 2.287263 1_555
Mg3 O79 2.307754 1_565
Mg4 O98 1.946923 1_555
Mg4 O96 1.967288 1_555
Mg4 O26 2.084801 1_555
Mg4 O28 2.120987 1_555
Mg4 O24 2.122560 1_555
Mg4 O100 2.137817 1_555
Mg5 O99 1.940050 1_555
Mg5 O97 1.954165 1_555
Mg5 O27 2.074240 1_555
Mg5 O25 2.118468 1_555
Mg5 O29 2.132069 1_555
Mg5 O101 2.160524 1_555
Mg6 O106 1.927123 1_555
Mg6 O34 2.037246 1_555
Mg6 O32 2.048444 1_555
Mg6 O30 2.075534 1_555
Mg6 O104 2.161847 1_555
Mg6 O102 2.190030 1_555
Mg7 O107 1.963173 1_555
Mg7 O103 1.972934 1_555
Mg7 O35 2.087783 1_555
Mg7 O33 2.099811 1_555
Mg7 O31 2.116717 1_555
Mg7 O105 2.131011 1_555
Mg8 O36 2.064537 1_556
Mg8 O108 2.095443 1_555
Mg8 O38 2.104804 1_556
Mg8 O110 2.112145 1_555
Mg8 O112 2.157973 1_555
Mg8 O40 2.170522 1_556
Mg9 O113 2.001004 1_555
Mg9 O41 2.116611 1_556
Mg9 O111 2.125884 1_555
Mg9 O39 2.135073 1_556
Mg9 O109 2.143427 1_555
Mg9 O37 2.195915 1_556
Mg10 O116 2.051155 1_555
Mg10 O46 2.089094 1_555
Mg10 O42 2.090583 1_555
Mg10 O44 2.092176 1_555
Mg10 O118 2.211643 1_555
Mg10 O114 2.239178 1_555
Mg11 O43 2.029758 1_555
Mg11 O47 2.054071 1_555
Mg11 O45 2.101870 1_555
Mg11 O115 2.148400 1_555
Mg11 O117 2.226563 1_555
Mg11 O119 2.233939 1_555
Mg12 O50 1.999103 1_554
Mg12 O48 2.028516 1_554
Mg12 O52 2.030911 1_554
Mg12 O120 2.106195 1_555
Mg12 O122 2.116947 1_555
Mg12 O124 2.126728 1_555
Mg13 O53 1.869410 1_554
Mg13 O51 2.040504 1_554
Mg13 O49 2.070707 1_554
Mg13 O125 2.179160 1_555
Mg13 O121 2.189617 1_555
Mg13 O123 2.218953 1_555
Mg14 O56 1.886015 1_555
Mg14 O58 2.074533 1_555
Mg14 O128 2.111027 1_555
Mg14 O126 2.111569 1_555
Mg14 O130 2.116934 1_555
Mg14 O54 2.162700 1_555
Mg15 O59 2.052157 1_555
Mg15 O55 2.055177 1_555
Mg15 O57 2.056035 1_555
Mg15 O127 2.070205 1_555
Mg15 O131 2.089372 1_555
Mg15 O129 2.107318 1_555
Nb0 O14 1.847949 1_655
Nb0 O13 1.851237 1_545
Nb0 O85 2.059339 1_555
Nb0 O16 2.087283 1_645
Nb0 O89 2.179892 1_545
Nb0 O86 2.183554 1_655
Nb1 O15 1.837989 1_555
Nb1 O12 1.861592 1_545
Nb1 O17 2.058282 1_545
Nb1 O84 2.082621 1_555
Nb1 O88 2.175313 1_545
Nb1 O87 2.186843 1_555
Nb2 O22 1.862797 1_655
Nb2 O19 1.868464 1_555
Nb2 O91 2.040294 1_555
Nb2 O93 2.124129 1_565
Nb2 O20 2.124195 1_665
Nb2 O94 2.162845 1_665
Nb3 O23 1.837916 1_555
Nb3 O95 1.993753 1_565
Nb3 O90 1.996094 1_555
Nb3 O21 2.084987 1_565
Nb3 O18 2.099166 1_555
Nb3 O92 2.101954 1_565
Nb4 O64 1.876044 1_555
Nb4 O132 1.962890 1_555
Nb4 O60 2.037923 1_555
Nb4 O136 2.053253 1_555
Nb4 O62 2.085468 1_555
Nb4 O134 2.137815 1_555
Nb5 O135 1.875223 1_555
Nb5 O133 1.877603 1_555
Nb5 O63 2.022459 1_555
Nb5 O137 2.114513 1_555
Nb5 O61 2.123927 1_555
Nb5 O65 2.130142 1_555
Nb6 O138 1.861256 1_555
Nb6 O142 1.877555 1_555
Nb6 O70 2.055082 1_555
Nb6 O140 2.061566 1_555
Nb6 O66 2.117629 1_555
Nb6 O68 2.158180 1_555
Nb7 O143 1.887554 1_555
Nb7 O69 1.889434 1_555
Nb7 O139 1.953634 1_555
Nb7 O141 2.091318 1_555
Nb7 O71 2.128447 1_555
Nb7 O67 2.235322 1_555
O0 Si0 1.583111 1_555
O1 Si1 1.562498 1_555
O2 S0 1.459485 1_555
O3 Si2 1.581761 1_555
O4 S2 1.452387 1_555
O5 S1 1.447722 1_555
O6 Si3 1.563537 1_555
O7 Si4 1.579094 1_555
O8 S4 1.446742 1_555
O9 S3 1.447989 1_555
O10 Si5 1.580227 1_555
O11 Si6 1.582390 1_555
O12 Si5 1.712938 1_565
O13 Si6 1.723927 1_565
O14 Si3 1.714758 1_555
O15 Si4 1.738540 1_555
O16 S3 1.515372 1_455
O17 S4 1.519451 1_555
O18 S0 1.516688 1_555
O19 Si2 1.711590 1_555
O20 S1 1.499820 1_455
O21 S2 1.519996 1_555
O22 Si0 1.725345 1_565
O23 Si1 1.728207 1_565
O24 S5 1.453646 1_555
O25 S6 1.450622 1_555
O26 S7 1.457117 1_555
O27 S8 1.454897 1_555
O28 S9 1.453416 1_555
O29 S10 1.454694 1_555
O30 S11 1.457554 1_555
O31 S12 1.456151 1_555
O32 S13 1.458290 1_555
O33 S14 1.460073 1_555
O34 S15 1.465109 1_555
O35 S16 1.451635 1_555
O36 S15 1.473107 1_555
O37 S16 1.463428 1_555
O38 S11 1.458800 1_555
O39 S12 1.462728 1_555
O40 S13 1.475286 1_555
O41 S14 1.476335 1_555
O42 S7 1.489055 1_555
O43 S8 1.481861 1_555
O44 S9 1.492393 1_555
O45 S10 1.494741 1_555
O46 S5 1.471945 1_555
O47 S6 1.473211 1_555
O48 S17 1.468283 1_555
O49 S18 1.468130 1_555
O50 S19 1.461588 1_555
O51 S20 1.471187 1_555
O52 S21 1.467180 1_555
O53 Si7 1.585019 1_555
O54 S22 1.457174 1_555
O55 S23 1.461560 1_555
O56 Si8 1.576757 1_555
O57 S24 1.459623 1_555
O58 S25 1.453547 1_555
O59 S26 1.457416 1_555
O60 S25 1.545399 1_555
O61 S26 1.516246 1_555
O62 S22 1.544414 1_555
O63 S23 1.557211 1_555
O64 Si8 1.764536 1_555
O65 S24 1.527361 1_555
O66 S19 1.511226 1_555
O67 S20 1.492634 1_555
O68 S21 1.518396 1_555
O69 Si7 1.732013 1_555
O70 S17 1.533908 1_555
O71 S18 1.528271 1_555
O72 S25 1.477782 1_555
O73 S26 1.494612 1_555
O74 S22 1.481801 1_555
O75 S23 1.468499 1_555
O76 Si8 1.606886 1_555
O77 S24 1.470615 1_555
O78 S19 1.484461 1_555
O79 S20 1.491322 1_555
O80 S21 1.466201 1_555
O81 Si7 1.607151 1_555
O82 S17 1.469847 1_555
O83 S18 1.477733 1_555
O84 S5 1.559158 1_555
O85 S6 1.562584 1_555
O86 S7 1.526693 1_555
O87 S8 1.528986 1_555
O88 S9 1.527727 1_555
O89 S10 1.527797 1_555
O90 S11 1.588328 1_555
O91 S12 1.571492 1_555
O92 S13 1.541778 1_555
O93 S14 1.542601 1_555
O94 S15 1.531137 1_555
O95 S16 1.587772 1_555
O96 Si5 1.571114 1_555
O97 Si6 1.568802 1_555
O98 Si3 1.569029 1_555
O99 Si4 1.576034 1_555
O100 S4 1.447250 1_555
O101 S3 1.444055 1_555
O102 S0 1.455081 1_555
O103 Si2 1.572388 1_555
O104 S2 1.451448 1_555
O105 S1 1.446712 1_555
O106 Si0 1.586693 1_555
O107 Si1 1.567767 1_555
O108 S17 1.468851 1_555
O109 S18 1.475384 1_555
O110 S20 1.495142 1_555
O111 S19 1.481034 1_655
O112 S21 1.496430 1_545
O113 Si7 1.652562 1_545
O114 S22 1.470287 1_545
O115 S23 1.466168 1_545
O116 Si8 1.651384 1_555
O117 S24 1.492331 1_555
O118 S26 1.481046 1_555
O119 S25 1.478158 1_655
O120 S15 1.479652 1_555
O121 S16 1.469159 1_555
O122 S12 1.476432 1_455
O123 S11 1.463786 1_555
O124 S13 1.476260 1_565
O125 S14 1.480665 1_565
O126 S7 1.482684 1_565
O127 S8 1.482700 1_565
O128 S9 1.481268 1_555
O129 S10 1.484877 1_555
O130 S6 1.473163 1_455
O131 S5 1.478477 1_555
O132 Si0 1.691192 1_565
O133 Si1 1.709253 1_565
O134 S0 1.517634 1_555
O135 Si2 1.722739 1_555
O136 S1 1.540491 1_455
O137 S2 1.513758 1_555
O138 Si3 1.718941 1_555
O139 Si4 1.668842 1_555
O140 S3 1.528362 1_455
O141 S4 1.511626 1_555
O142 Si5 1.715030 1_565
O143 Si6 1.696992 1_565
