# generated using pymatgen
data_NbSeF9
_symmetry_space_group_name_H-M   'P 1'
_cell_length_a   8.77159116
_cell_length_b   8.77159049
_cell_length_c   8.77159054
_cell_angle_alpha   92.76254644
_cell_angle_beta   92.76254888
_cell_angle_gamma   92.76255012
_symmetry_Int_Tables_number   1
_chemical_formula_structural   NbSeF9
_chemical_formula_sum   'Nb4 Se4 F36'
_cell_volume   672.46169753
_cell_formula_units_Z   4
loop_
 _symmetry_equiv_pos_site_id
 _symmetry_equiv_pos_as_xyz
  1  'x, y, z'
loop_
 _atom_site_type_symbol
 _atom_site_label
 _atom_site_symmetry_multiplicity
 _atom_site_fract_x
 _atom_site_fract_y
 _atom_site_fract_z
 _atom_site_occupancy
  Nb  Nb0  1  -0.00119105  0.76928574  0.34003234  1
  Nb  Nb1  1  0.34003234  -0.00119105  0.76928574  1
  Nb  Nb2  1  0.76928574  0.34003234  -0.00119105  1
  Nb  Nb3  1  0.40471748  0.40471748  0.40471748  1
  Se  Se0  1  0.45702845  0.93755417  0.24470480  1
  Se  Se1  1  0.24470480  0.45702845  0.93755417  1
  Se  Se2  1  0.93755417  0.24470480  0.45702845  1
  Se  Se3  1  0.87591139  0.87591139  0.87591139  1
  F  F0  1  0.90435527  0.42848618  0.51355426  1
  F  F1  1  0.42848618  0.51355426  0.90435527  1
  F  F2  1  0.51355426  0.90435527  0.42848618  1
  F  F3  1  0.81899714  0.12760125  0.93714780  1
  F  F4  1  0.12760125  0.93714780  0.81899714  1
  F  F5  1  0.93714780  0.81899714  0.12760125  1
  F  F6  1  0.83979254  0.28671653  0.20633164  1
  F  F7  1  0.28671653  0.20633164  0.83979254  1
  F  F8  1  0.45452809  0.35688151  0.60703240  1
  F  F9  1  0.60703240  0.45452809  0.35688151  1
  F  F10  1  0.35688151  0.60703240  0.45452809  1
  F  F11  1  0.43526017  0.19022851  0.33336937  1
  F  F12  1  0.33336937  0.43526017  0.19022851  1
  F  F13  1  0.19022851  0.33336937  0.43526017  1
  F  F14  1  0.79215555  0.72975792  0.37780746  1
  F  F15  1  0.37780746  0.79215555  0.72975792  1
  F  F16  1  0.72975792  0.37780746  0.79215555  1
  F  F17  1  0.03603391  0.56880928  0.26808438  1
  F  F18  1  0.26808438  0.03603391  0.56880928  1
  F  F19  1  0.56880928  0.26808438  0.03603391  1
  F  F20  1  0.48482928  0.75400436  0.18261250  1
  F  F21  1  0.18261250  0.48482928  0.75400436  1
  F  F22  1  0.75400436  0.18261250  0.48482928  1
  F  F23  1  0.63749274  0.99823781  0.20196656  1
  F  F24  1  0.20196656  0.63749274  0.99823781  1
  F  F25  1  0.99823781  0.20196656  0.63749274  1
  F  F26  1  0.06919008  0.74077866  0.54195102  1
  F  F27  1  0.54195102  0.06919008  0.74077866  1
  F  F28  1  0.74077866  0.54195102  0.06919008  1
  F  F29  1  0.97032568  0.98899616  0.39290085  1
  F  F30  1  0.39290085  0.97032568  0.98899615  1
  F  F31  1  0.98899615  0.39290085  0.97032568  1
  F  F32  1  0.91318143  0.69065253  0.82800486  1
  F  F33  1  0.82800486  0.91318143  0.69065253  1
  F  F34  1  0.69065253  0.82800486  0.91318143  1
  F  F35  1  0.20633164  0.83979254  0.28671653  1
loop_
_geom_bond_atom_site_label_1
_geom_bond_atom_site_label_2
_geom_bond_distance
_geom_bond_site_symmetry_2
F0 Se2 1.706307 1_555
F1 Se1 1.706307 1_555
F2 Se0 1.706307 1_555
F3 Nb2 1.989645 1_556
F3 Se3 2.330141 1_545
F4 Nb1 1.989645 1_565
F4 Se3 2.330142 1_455
F5 Nb0 1.989645 1_655
F5 Se3 2.330141 1_554
F6 Nb2 1.978921 1_555
F6 Se2 2.373520 1_555
F7 Nb1 1.978921 1_555
F7 Se1 2.373520 1_555
F8 Nb3 1.879084 1_555
F9 Nb3 1.879084 1_555
F10 Nb3 1.879084 1_555
F11 Nb3 1.988567 1_555
F11 Se0 2.332918 1_545
F12 Nb3 1.988567 1_555
F12 Se1 2.332918 1_554
F13 Nb3 1.988567 1_555
F13 Se2 2.332918 1_455
F14 Nb0 1.877286 1_655
F15 Nb1 1.877285 1_565
F16 Nb2 1.877285 1_556
F17 Nb0 1.888240 1_555
F18 Nb1 1.888240 1_555
F19 Nb2 1.888240 1_555
F20 Se0 1.707163 1_555
F21 Se1 1.707163 1_555
F22 Se2 1.707163 1_555
F23 Se0 1.710218 1_555
F24 Se1 1.710218 1_555
F25 Se2 1.710218 1_555
F26 Nb0 1.879572 1_555
F27 Nb1 1.879572 1_555
F28 Nb2 1.879572 1_555
F29 Nb0 1.990741 1_655
F29 Se2 2.320793 1_565
F30 Nb1 1.990740 1_565
F30 Se0 2.320793 1_556
F31 Nb2 1.990741 1_556
F31 Se1 2.320793 1_655
F32 Se3 1.709608 1_555
F33 Se3 1.709608 1_555
F34 Se3 1.709608 1_555
F35 Nb0 1.978921 1_555
F35 Se0 2.373520 1_555
