# generated using pymatgen
data_SrO2
_symmetry_space_group_name_H-M   'P 1'
_cell_length_a   4.20607580
_cell_length_b   4.91195518
_cell_length_c   8.82302311
_cell_angle_alpha   90.00000000
_cell_angle_beta   90.00000000
_cell_angle_gamma   90.00000000
_symmetry_Int_Tables_number   1
_chemical_formula_structural   SrO2
_chemical_formula_sum   'Sr4 O8'
_cell_volume   182.28414989
_cell_formula_units_Z   4
loop_
 _symmetry_equiv_pos_site_id
 _symmetry_equiv_pos_as_xyz
  1  'x, y, z'
loop_
 _atom_site_type_symbol
 _atom_site_label
 _atom_site_symmetry_multiplicity
 _atom_site_fract_x
 _atom_site_fract_y
 _atom_site_fract_z
 _atom_site_occupancy
  Sr  Sr0  1  0.77324306  0.75000000  0.12464389  1
  Sr  Sr1  1  0.72675694  0.75000000  0.62464389  1
  Sr  Sr2  1  0.22675694  0.25000000  0.87535611  1
  Sr  Sr3  1  0.27324306  0.25000000  0.37535611  1
  O  O0  1  0.29232779  0.75000000  0.29111694  1
  O  O1  1  0.20767221  0.75000000  0.79111694  1
  O  O2  1  0.70767221  0.25000000  0.70888306  1
  O  O3  1  0.79232779  0.25000000  0.20888306  1
  O  O4  1  0.22738718  0.75000000  0.45860184  1
  O  O5  1  0.27261282  0.75000000  0.95860184  1
  O  O6  1  0.77261282  0.25000000  0.54139816  1
  O  O7  1  0.72738718  0.25000000  0.04139816  1
loop_
_geom_bond_atom_site_label_1
_geom_bond_atom_site_label_2
_geom_bond_distance
_geom_bond_site_symmetry_2
O0 O4 1.502755 1_555
O0 Sr0 2.499789 1_555
O0 Sr3 2.567232 1_555
O0 Sr3 2.567232 1_565
O0 Sr0 2.631388 1_455
O1 O5 1.502755 1_555
O1 Sr1 2.499789 1_455
O1 Sr2 2.567232 1_555
O1 Sr2 2.567232 1_565
O1 Sr1 2.631388 1_555
O2 O6 1.502755 1_555
O2 Sr2 2.499789 1_555
O2 Sr1 2.567232 1_555
O2 Sr1 2.567232 1_545
O2 Sr2 2.631388 1_655
O3 O7 1.502755 1_555
O3 Sr3 2.499789 1_655
O3 Sr0 2.567232 1_545
O3 Sr0 2.567232 1_555
O3 Sr3 2.631388 1_555
O4 Sr1 2.560826 1_555
O4 Sr1 2.565176 1_455
O4 Sr3 2.570697 1_555
O4 Sr3 2.570697 1_565
O5 Sr0 2.560826 1_456
O5 Sr0 2.565176 1_556
O5 Sr2 2.570697 1_565
O5 Sr2 2.570697 1_555
O6 Sr3 2.560826 1_555
O6 Sr3 2.565176 1_655
O6 Sr1 2.570697 1_555
O6 Sr1 2.570697 1_545
O7 Sr2 2.560826 1_654
O7 Sr2 2.565176 1_554
O7 Sr0 2.570697 1_545
O7 Sr0 2.570697 1_555
