# generated using pymatgen
data_MgMn4FeO8
_symmetry_space_group_name_H-M   'P 1'
_cell_length_a   6.07276565
_cell_length_b   6.07322503
_cell_length_c   6.11881525
_cell_angle_alpha   88.53150043
_cell_angle_beta   59.69816872
_cell_angle_gamma   58.84716564
_symmetry_Int_Tables_number   1
_chemical_formula_structural   MgMn4FeO8
_chemical_formula_sum   'Mg1 Mn4 Fe1 O8'
_cell_volume   158.05304650
_cell_formula_units_Z   1
loop_
 _symmetry_equiv_pos_site_id
 _symmetry_equiv_pos_as_xyz
  1  'x, y, z'
loop_
 _atom_site_type_symbol
 _atom_site_label
 _atom_site_symmetry_multiplicity
 _atom_site_fract_x
 _atom_site_fract_y
 _atom_site_fract_z
 _atom_site_occupancy
  Mg  Mg0  1  0.50000000  0.00000000  0.50000000  1
  Mn  Mn0  1  0.00000000  0.50000000  0.50000000  1
  Mn  Mn1  1  0.00000000  0.00000000  0.00000000  1
  Mn  Mn2  1  0.50000000  0.00000000  0.00000000  1
  Mn  Mn3  1  0.00000000  0.50000000  0.00000000  1
  Fe  Fe0  1  0.50000000  0.50000000  0.00000000  1
  O  O0  1  0.46420000  0.25702400  0.79273100  1
  O  O1  1  0.99098800  0.25269800  0.75774300  1
  O  O2  1  0.49412900  0.74921300  0.75810300  1
  O  O3  1  0.96251200  0.74698600  0.78442100  1
  O  O4  1  0.03748800  0.25301400  0.21557900  1
  O  O5  1  0.50587100  0.25078700  0.24189700  1
  O  O6  1  0.00901200  0.74730200  0.24225700  1
  O  O7  1  0.53580000  0.74297600  0.20726900  1
loop_
_geom_bond_atom_site_label_1
_geom_bond_atom_site_label_2
_geom_bond_distance
_geom_bond_site_symmetry_2
Mg0 O2 2.165936 1_545
Mg0 O5 2.165936 1_555
Mg0 O6 2.166537 1_645
Mg0 O1 2.166537 1_455
Mg0 O7 2.256410 1_545
Mg0 O0 2.256410 1_555
Mn0 O6 2.149998 1_555
Mn0 O1 2.149998 1_455
Mn0 O2 2.153673 1_455
Mn0 O5 2.153673 1_555
Mn0 O4 2.170536 1_555
Mn0 O3 2.170536 1_455
Mn1 O2 2.102345 1_544
Mn1 O5 2.102345 1_455
Mn1 O1 2.105689 1_454
Mn1 O6 2.105689 1_545
Mn1 O3 2.218525 1_444
Mn1 O4 2.218525 1_555
Mn2 O4 1.972269 1_555
Mn2 O3 1.972269 1_544
Mn2 O0 1.979383 1_554
Mn2 O7 1.979383 1_545
Mn2 O5 2.176421 1_555
Mn2 O2 2.176421 1_544
Mn3 O3 1.972341 1_454
Mn3 O4 1.972341 1_555
Mn3 O7 1.979110 1_455
Mn3 O0 1.979110 1_554
Mn3 O6 2.176481 1_555
Mn3 O1 2.176481 1_454
Fe0 O6 2.089025 1_555
Fe0 O1 2.089025 1_554
Fe0 O5 2.089353 1_555
Fe0 O2 2.089353 1_554
Fe0 O7 2.130568 1_555
Fe0 O0 2.130568 1_554
