# generated using pymatgen
data_Na7HfZn3P5SO24
_symmetry_space_group_name_H-M   'P 1'
_cell_length_a   9.09235488
_cell_length_b   9.06594609
_cell_length_c   22.08267752
_cell_angle_alpha   89.25351451
_cell_angle_beta   90.43626066
_cell_angle_gamma   119.89554777
_symmetry_Int_Tables_number   1
_chemical_formula_structural   Na7HfZn3P5SO24
_chemical_formula_sum   'Na21 Hf3 Zn9 P15 S3 O72'
_cell_volume   1577.94112644
_cell_formula_units_Z   3
loop_
 _symmetry_equiv_pos_site_id
 _symmetry_equiv_pos_as_xyz
  1  'x, y, z'
loop_
 _atom_site_type_symbol
 _atom_site_label
 _atom_site_symmetry_multiplicity
 _atom_site_fract_x
 _atom_site_fract_y
 _atom_site_fract_z
 _atom_site_occupancy
  Na  Na0  1  0.62325529  0.99725424  0.25068470  1
  Na  Na1  1  0.36826635  0.36223723  0.25242658  1
  Na  Na2  1  0.00801041  0.63901724  0.24905458  1
  Na  Na3  1  0.64694284  0.63434607  0.74452111  1
  Na  Na4  1  0.99016970  0.35428731  0.74598109  1
  Na  Na5  1  0.29509166  0.33958506  0.58742175  1
  Na  Na6  1  0.03170873  0.70137426  0.58818810  1
  Na  Na7  1  0.67459638  0.95962082  0.58511125  1
  Na  Na8  1  0.29286139  0.95673615  0.08213061  1
  Na  Na9  1  0.66331219  0.70289866  0.07936808  1
  Na  Na10  1  0.04080724  0.33635301  0.07978139  1
  Na  Na11  1  0.97494676  0.68117091  0.90813602  1
  Na  Na12  1  0.32030649  0.29295599  0.90787336  1
  Na  Na13  1  0.32239004  0.02026873  0.40959455  1
  Na  Na14  1  0.69818694  0.67870941  0.41471291  1
  Na  Na15  1  0.99413685  0.01536420  0.49738870  1
  Na  Na16  1  0.98497210  -0.00000752  0.99414577  1
  Na  Na17  1  0.65026516  0.30206642  0.82399230  1
  Na  Na18  1  0.67116863  0.32472484  0.32937886  1
  Na  Na19  1  0.33249352  0.67213291  0.16343664  1
  Na  Na20  1  0.33413536  0.67131113  0.66315220  1
  Hf  Hf0  1  0.66749387  0.32814777  0.98080005  1
  Hf  Hf1  1  0.67749680  0.33747977  0.48044146  1
  Hf  Hf2  1  0.33558346  0.67578205  0.81521524  1
  Zn  Zn0  1  0.01021011  0.01039572  0.35201320  1
  Zn  Zn1  1  0.99669113  0.00241801  0.84524464  1
  Zn  Zn2  1  0.99559689  0.00281191  0.66095030  1
  Zn  Zn3  1  0.00893415  0.99782512  0.14749113  1
  Zn  Zn4  1  0.66967096  0.33715876  0.68465935  1
  Zn  Zn5  1  0.65590127  0.32194718  0.17466419  1
  Zn  Zn6  1  0.33739664  0.66787990  0.01292320  1
  Zn  Zn7  1  0.33042859  0.65453189  0.50858138  1
  Zn  Zn8  1  0.32855474  0.67241174  0.32803314  1
  P  P0  1  0.29819059  0.99857665  0.25001014  1
  P  P1  1  0.30015121  0.29872175  0.75110701  1
  P  P2  1  0.00136948  0.70479113  0.74993437  1
  P  P3  1  0.70282802  0.00193167  0.74784127  1
  P  P4  1  0.96718796  0.33576807  0.58724267  1
  P  P5  1  0.66470142  0.62958686  0.58423008  1
  P  P6  1  0.96024491  0.62672119  0.08649790  1
  P  P7  1  0.66759487  0.03278554  0.08800853  1
  P  P8  1  0.36962997  0.33552629  0.08513510  1
  P  P9  1  0.63250671  0.66979852  0.91964108  1
  P  P10  1  0.03772482  0.36963181  0.91946719  1
  P  P11  1  0.33149229  0.96247243  0.92069288  1
  P  P12  1  0.63295813  0.96443089  0.41649977  1
  P  P13  1  0.33277050  0.36709801  0.41668079  1
  P  P14  1  0.03679645  0.66963334  0.41595788  1
  S  S0  1  0.70311353  0.70332811  0.25008282  1
  S  S1  1  0.00008697  0.29533085  0.24844796  1
  S  S2  1  0.37425715  0.03988278  0.58334496  1
  O  O0  1  0.21303222  0.02208006  0.30690916  1
  O  O1  1  0.80257334  0.78816663  0.30547935  1
  O  O2  1  0.97695799  0.18430362  0.30168103  1
  O  O3  1  0.21585065  0.19763196  0.80927804  1
  O  O4  1  0.98125519  0.78992702  0.80644090  1
  O  O5  1  0.82139042  0.03060740  0.80133492  1
  O  O6  1  0.76748224  0.96108946  0.68869937  1
  O  O7  1  0.18988285  0.22313937  0.69322532  1
  O  O8  1  0.02394544  0.80648837  0.69052922  1
  O  O9  1  0.78547588  0.80562981  0.19452860  1
  O  O10  1  0.01618193  0.21807030  0.19155145  1
  O  O11  1  0.19100397  0.97469073  0.19187191  1
  O  O12  1  0.88720986  0.35777581  0.64479119  1
  O  O13  1  0.47977079  0.12572683  0.63589133  1
  O  O14  1  0.64166418  0.52172203  0.64154915  1
  O  O15  1  0.87524070  0.52056345  0.14431640  1
  O  O16  1  0.64327410  0.10796729  0.14685871  1
  O  O17  1  0.47264829  0.36043463  0.14389843  1
  O  O18  1  0.46995344  0.31773561  0.03026187  1
  O  O19  1  0.84777575  0.52967873  0.02971081  1
  O  O20  1  0.68559069  0.15583571  0.03377320  1
  O  O21  1  0.45994416  0.13948600  0.52605472  1
  O  O22  1  0.67571195  0.52842973  0.52781099  1
  O  O23  1  0.84554719  0.31640176  0.53244229  1
  O  O24  1  0.55234000  0.68594870  0.97810511  1
  O  O25  1  0.14008724  0.45108167  0.97727694  1
  O  O26  1  0.30992466  0.86263489  0.97959150  1
  O  O27  1  0.54755433  0.85502166  0.47359114  1
  O  O28  1  0.31680219  0.44684084  0.47558168  1
  O  O29  1  0.14661398  0.69379241  0.47238068  1
  O  O30  1  0.10847866  0.64141343  0.35714255  1
  O  O31  1  0.52279654  0.89168812  0.35877296  1
  O  O32  1  0.36482534  0.48061282  0.35963472  1
  O  O33  1  0.12976000  0.48843012  0.86360952  1
  O  O34  1  0.35048981  0.86543208  0.86631442  1
  O  O35  1  0.51402385  0.64351644  0.86402761  1
  O  O36  1  0.00926816  0.82515751  0.41284894  1
  O  O37  1  0.80964903  0.98195271  0.41093422  1
  O  O38  1  0.18314770  0.18363978  0.41251967  1
  O  O39  1  0.01920611  0.19364456  0.91239197  1
  O  O40  1  0.17568902  0.98537598  0.91373227  1
  O  O41  1  0.81447992  0.81729289  0.91210759  1
  O  O42  1  0.98196143  0.17288058  0.58650112  1
  O  O43  1  0.20546514  0.02900737  0.58381705  1
  O  O44  1  0.83107290  0.80372240  0.58252381  1
  O  O45  1  0.96926002  0.80262990  0.08471329  1
  O  O46  1  0.83270351  0.02272914  0.08708238  1
  O  O47  1  0.19394048  0.17019252  0.08433385  1
  O  O48  1  0.68077331  0.15863941  0.74273820  1
  O  O49  1  0.48303590  0.33192680  0.74655114  1
  O  O50  1  0.84408188  0.52295552  0.74844547  1
  O  O51  1  0.68919860  0.53179433  0.24863522  1
  O  O52  1  0.84847393  0.31904824  0.24741764  1
  O  O53  1  0.47939102  0.16205314  0.24716294  1
  O  O54  1  0.64013980  0.49786810  0.92123540  1
  O  O55  1  0.86088056  0.36309481  0.92165182  1
  O  O56  1  0.49390884  0.14427580  0.92186807  1
  O  O57  1  0.64716978  0.14493795  0.42302453  1
  O  O58  1  0.50002958  0.35059359  0.42051595  1
  O  O59  1  0.85217171  0.50935177  0.42234317  1
  O  O60  1  0.34942510  0.49449189  0.07889719  1
  O  O61  1  0.13899287  0.64686399  0.08202490  1
  O  O62  1  0.50913026  0.85553311  0.08100120  1
  O  O63  1  0.35290040  0.86642537  0.57971392  1
  O  O64  1  0.50603608  0.65170268  0.57915694  1
  O  O65  1  0.14327522  0.49804096  0.57951789  1
  O  O66  1  0.31691396  0.83560905  0.25420152  1
  O  O67  1  0.52919845  0.68167433  0.25214629  1
  O  O68  1  0.15717032  0.46563413  0.25285080  1
  O  O69  1  0.31536513  0.48272108  0.75607796  1
  O  O70  1  0.16159164  0.67988493  0.75528915  1
  O  O71  1  0.52428879  0.83611144  0.75745510  1
loop_
_geom_bond_atom_site_label_1
_geom_bond_atom_site_label_2
_geom_bond_distance
_geom_bond_site_symmetry_2
Na0 O66 2.417280 1_555
Na0 O53 2.427522 1_565
Na0 O16 2.462029 1_565
Na0 O67 2.544975 1_555
Na0 O31 2.559241 1_555
Na0 O52 2.598295 1_565
Na1 O53 2.482599 1_555
Na1 O67 2.510665 1_555
Na1 O68 2.521258 1_555
Na1 O51 2.532555 1_555
Na1 O17 2.587622 1_555
Na1 O32 2.618835 1_555
Na1 O0 2.922335 1_555
Na2 O66 2.467475 1_555
Na2 O52 2.515474 1_455
Na2 O68 2.537138 1_555
Na2 O30 2.545676 1_555
Na2 O51 2.557086 1_455
Na2 O15 2.586496 1_455
Na3 O49 2.380075 1_555
Na3 O50 2.457642 1_555
Na3 O14 2.495080 1_555
Na3 O71 2.592912 1_555
Na3 O69 2.629695 1_555
Na3 O6 2.860889 1_555
Na3 O35 2.930254 1_555
Na3 O4 2.968483 1_555
Na4 O12 2.422060 1_555
Na4 O48 2.468049 1_555
Na4 O50 2.476597 1_555
Na4 O70 2.570918 1_655
Na4 O69 2.590925 1_655
Na4 O5 2.811822 1_555
Na4 O7 2.879017 1_655
Na4 O33 2.886276 1_655
Na5 O65 2.442554 1_555
Na5 O42 2.470036 1_455
Na5 O64 2.510110 1_555
Na5 O43 2.513173 1_555
Na5 O7 2.539987 1_555
Na5 O28 2.614870 1_555
Na6 O44 2.425975 1_455
Na6 O8 2.479145 1_555
Na6 O65 2.517941 1_555
Na6 O63 2.539224 1_555
Na6 O43 2.577788 1_565
Na6 O29 2.784435 1_555
Na7 O64 2.429129 1_555
Na7 O6 2.430284 1_555
Na7 O44 2.456197 1_555
Na7 O42 2.482592 1_565
Na7 O63 2.611004 1_555
Na7 O27 2.687723 1_555
Na8 O61 2.435495 1_555
Na8 O26 2.463073 1_554
Na8 O47 2.508872 1_565
Na8 O62 2.551263 1_555
Na8 O45 2.552458 1_455
Na8 O11 2.636610 1_555
Na9 O62 2.411891 1_555
Na9 O24 2.421183 1_554
Na9 O45 2.461772 1_555
Na9 O60 2.517917 1_555
Na9 O46 2.523051 1_565
Na9 O9 2.748777 1_555
Na10 O60 2.433029 1_555
Na10 O25 2.460547 1_554
Na10 O61 2.494366 1_555
Na10 O47 2.510516 1_555
Na10 O46 2.514025 1_455
Na10 O10 2.644256 1_555
Na11 O41 2.336450 1_555
Na11 O4 2.430330 1_555
Na11 O40 2.437276 1_655
Na11 O55 2.545825 1_555
Na11 O54 2.659014 1_555
Na11 O33 2.918773 1_655
Na11 O19 2.966315 1_556
Na12 O3 2.364030 1_555
Na12 O40 2.420666 1_545
Na12 O39 2.420817 1_555
Na12 O56 2.550797 1_555
Na12 O54 2.571155 1_555
Na13 O38 2.381951 1_555
Na13 O0 2.472201 1_555
Na13 O36 2.493847 1_545
Na13 O57 2.598847 1_555
Na13 O58 2.612741 1_555
Na13 O21 2.832358 1_555
Na13 O31 2.849788 1_545
Na13 O29 2.906628 1_545
Na14 O37 2.410399 1_555
Na14 O36 2.453883 1_655
Na14 O59 2.545307 1_555
Na14 O1 2.595716 1_555
Na14 O58 2.600445 1_555
Na14 O22 2.788744 1_555
Na14 O27 2.895668 1_555
Na14 O32 2.909697 1_555
Na15 O37 2.451563 1_545
Na15 O38 2.480774 1_655
Na15 O42 2.481545 1_555
Na15 O44 2.554769 1_545
Na15 O36 2.608057 1_645
Na15 O43 2.657702 1_655
Na16 O39 2.412394 1_655
Na16 O41 2.429898 1_545
Na16 O40 2.541633 1_645
Na16 O46 2.551458 1_556
Na16 O45 2.622617 1_546
Na16 O47 2.656571 1_656
Na17 O48 2.327058 1_555
Na17 O49 2.380832 1_555
Na17 O50 2.517696 1_555
Na17 O56 2.584164 1_555
Na17 O55 2.745210 1_555
Na17 O54 2.834797 1_555
Na18 O53 2.443317 1_555
Na18 O52 2.450913 1_555
Na18 O51 2.518080 1_555
Na18 O57 2.558364 1_555
Na18 O58 2.636370 1_555
Na18 O59 2.648897 1_555
Na19 O61 2.437359 1_555
Na19 O62 2.441619 1_555
Na19 O60 2.536214 1_555
Na19 O66 2.554395 1_555
Na19 O67 2.615448 1_555
Na19 O68 2.630841 1_555
Na20 O63 2.484364 1_555
Na20 O65 2.489861 1_555
Na20 O64 2.498932 1_555
Na20 O70 2.604088 1_555
Na20 O69 2.605055 1_555
Na20 O71 2.647522 1_555
Hf0 O20 2.010360 1_556
Hf0 O19 2.056867 1_556
Hf0 O18 2.070290 1_556
Hf0 O56 2.089493 1_555
Hf0 O55 2.089744 1_555
Hf0 O54 2.117376 1_555
Hf1 O23 1.987078 1_555
Hf1 O59 2.026913 1_555
Hf1 O22 2.041268 1_555
Hf1 O57 2.074420 1_555
Hf1 O58 2.126877 1_555
Hf1 O21 2.143168 1_555
Hf2 O34 2.015884 1_555
Hf2 O71 2.045118 1_555
Hf2 O70 2.069006 1_555
Hf2 O35 2.077985 1_555
Hf2 O33 2.084181 1_555
Hf2 O69 2.130220 1_555
O0 P0 1.552396 1_545
O0 Zn0 2.057810 1_555
O1 S0 1.490022 1_555
O1 Zn0 2.216313 1_665
O2 S1 1.483642 1_655
O2 Zn0 2.058388 1_655
O3 P1 1.536759 1_555
O3 Zn1 2.050791 1_455
O4 P2 1.534766 1_655
O4 Zn1 2.058339 1_565
O5 P3 1.527863 1_555
O5 Zn1 1.980427 1_555
O6 P3 1.558724 1_565
O6 Zn2 2.012887 1_565
O7 P1 1.557870 1_555
O7 Zn2 2.029521 1_455
O8 P2 1.548225 1_555
O8 Zn2 2.021248 1_465
O9 S0 1.489289 1_555
O9 Zn3 2.167719 1_655
O10 S1 1.489480 1_555
O10 Zn3 2.203730 1_545
O11 P0 1.556527 1_555
O11 Zn3 2.015197 1_555
O12 P4 1.532619 1_555
O12 Zn4 2.091884 1_555
O13 S2 1.461102 1_555
O13 Zn4 2.131092 1_555
O14 P5 1.539448 1_555
O14 Zn4 2.037254 1_555
O15 P6 1.547679 1_555
O15 Zn5 2.019387 1_555
O16 P7 1.542742 1_555
O16 Zn5 1.990345 1_555
O17 P8 1.546136 1_555
O17 Zn5 1.978806 1_555
O18 P8 1.579556 1_555
O19 P6 1.582617 1_555
O20 P7 1.578565 1_555
O21 S2 1.518839 1_555
O22 P5 1.589493 1_555
O23 P4 1.584325 1_555
O24 P9 1.531395 1_555
O24 Zn6 2.034189 1_556
O25 P10 1.537065 1_555
O25 Zn6 2.050626 1_556
O26 P11 1.531548 1_555
O26 Zn6 2.030916 1_556
O27 P12 1.546226 1_555
O27 Zn7 2.051304 1_555
O28 P13 1.538678 1_555
O28 Zn7 1.973217 1_555
O29 P14 1.538690 1_555
O29 Zn7 2.030824 1_555
O30 P14 1.537822 1_555
O30 Zn8 1.987597 1_555
O31 P12 1.551511 1_555
O31 Zn8 2.012199 1_555
O32 P13 1.550409 1_555
O32 Zn8 2.038582 1_555
O33 P10 1.569842 1_555
O34 P11 1.558192 1_555
O35 P9 1.567527 1_555
O36 P14 1.550613 1_555
O36 Zn0 2.133575 1_565
O37 P12 1.539286 1_555
O37 Zn0 2.154879 1_665
O38 P13 1.540144 1_555
O38 Zn0 2.070130 1_555
O39 P10 1.528611 1_555
O39 Zn1 2.225916 1_455
O40 P11 1.537083 1_555
O40 Zn1 2.273121 1_465
O41 P9 1.531744 1_555
O41 Zn1 2.223189 1_565
O42 P4 1.548367 1_555
O42 Zn2 2.284048 1_555
O43 S2 1.488141 1_555
O43 Zn2 2.487185 1_455
O44 P5 1.549437 1_555
O44 Zn2 2.417728 1_565
O45 P6 1.555537 1_555
O45 Zn3 2.145580 1_655
O46 P7 1.548988 1_555
O46 Zn3 2.172156 1_645
O47 P8 1.553141 1_555
O47 Zn3 2.138994 1_545
O48 P3 1.533228 1_555
O48 Zn4 2.093147 1_555
O49 P1 1.539021 1_555
O49 Zn4 2.168700 1_555
O50 P2 1.553861 1_655
O50 Zn4 2.168226 1_555
O51 S0 1.496836 1_555
O51 Zn5 2.424575 1_555
O52 S1 1.497310 1_655
O52 Zn5 2.376878 1_555
O53 P0 1.574790 1_545
O53 Zn5 2.213517 1_555
O54 P9 1.594368 1_555
O55 P10 1.580315 1_655
O56 P11 1.572356 1_545
O57 P12 1.584472 1_545
O58 P13 1.602146 1_555
O59 P14 1.586198 1_655
O60 P8 1.545338 1_555
O60 Zn6 2.171335 1_555
O61 P6 1.546166 1_455
O61 Zn6 2.304520 1_555
O62 P7 1.541844 1_565
O62 Zn6 2.230542 1_555
O63 S2 1.488528 1_565
O63 Zn7 2.425267 1_555
O64 P5 1.555396 1_555
O64 Zn7 2.231785 1_555
O65 P4 1.551266 1_455
O65 Zn7 2.222251 1_555
O66 P0 1.570779 1_555
O66 Zn8 2.224648 1_555
O67 S0 1.494167 1_555
O67 Zn8 2.456347 1_555
O68 S1 1.495586 1_555
O68 Zn8 2.414245 1_555
O69 P1 1.608836 1_555
O70 P2 1.584868 1_555
O71 P3 1.582567 1_565
