# generated using pymatgen
data_MgCu2(GeO3)2
_symmetry_space_group_name_H-M   'P 1'
_cell_length_a   3.09991162
_cell_length_b   5.55680563
_cell_length_c   8.42903968
_cell_angle_alpha   83.72630096
_cell_angle_beta   90.00000000
_cell_angle_gamma   90.00000000
_symmetry_Int_Tables_number   1
_chemical_formula_structural   MgCu2(GeO3)2
_chemical_formula_sum   'Mg1 Cu2 Ge2 O6'
_cell_volume   144.32577687
_cell_formula_units_Z   1
loop_
 _symmetry_equiv_pos_site_id
 _symmetry_equiv_pos_as_xyz
  1  'x, y, z'
loop_
 _atom_site_type_symbol
 _atom_site_label
 _atom_site_symmetry_multiplicity
 _atom_site_fract_x
 _atom_site_fract_y
 _atom_site_fract_z
 _atom_site_occupancy
  Mg  Mg0  1  -0.00000000  -0.00000000  -0.00000000  1
  Cu  Cu0  1  -0.00000000  0.50000000  0.50000000  1
  Cu  Cu1  1  -0.00000000  0.50000000  -0.00000000  1
  Ge  Ge0  1  0.50000000  0.10040357  0.28238463  1
  Ge  Ge1  1  0.50000000  0.89959643  0.71761537  1
  O  O0  1  -0.00000000  0.92210819  0.25817311  1
  O  O1  1  0.00000000  0.07789181  0.74182689  1
  O  O2  1  0.50000000  0.29629413  0.42940847  1
  O  O3  1  0.50000000  0.70370587  0.57059153  1
  O  O4  1  0.50000000  0.23033872  0.06852376  1
  O  O5  1  0.50000000  0.76966128  0.93147624  1
loop_
_geom_bond_atom_site_label_1
_geom_bond_atom_site_label_2
_geom_bond_distance
_geom_bond_site_symmetry_2
Mg0 O4 2.129745 1_555
Mg0 O5 2.129745 1_444
Mg0 O5 2.129745 1_544
Mg0 O4 2.129745 1_455
Mg0 O1 2.171893 1_554
Mg0 O0 2.171893 1_545
Cu0 O3 2.045711 1_555
Cu0 O3 2.045711 1_455
Cu0 O2 2.045711 1_455
Cu0 O2 2.045711 1_555
Cu1 O4 2.189105 1_455
Cu1 O5 2.189105 1_554
Cu1 O5 2.189105 1_454
Cu1 O4 2.189105 1_555
Ge0 O2 1.736521 1_555
Ge0 O0 1.862738 1_545
Ge0 O0 1.862738 1_645
Ge0 O4 1.867184 1_555
Ge1 O3 1.736521 1_555
Ge1 O1 1.862738 1_565
Ge1 O1 1.862738 1_665
Ge1 O5 1.867184 1_555
