# generated using pymatgen
data_PtO2
_symmetry_space_group_name_H-M   'P 1'
_cell_length_a   4.48378300
_cell_length_b   4.48378300
_cell_length_c   4.48378300
_cell_angle_alpha   90.00000000
_cell_angle_beta   90.00000000
_cell_angle_gamma   90.00000000
_symmetry_Int_Tables_number   1
_chemical_formula_structural   PtO2
_chemical_formula_sum   'Pt2 O4'
_cell_volume   90.14336336
_cell_formula_units_Z   2
loop_
 _symmetry_equiv_pos_site_id
 _symmetry_equiv_pos_as_xyz
  1  'x, y, z'
loop_
 _atom_site_type_symbol
 _atom_site_label
 _atom_site_symmetry_multiplicity
 _atom_site_fract_x
 _atom_site_fract_y
 _atom_site_fract_z
 _atom_site_occupancy
  Pt  Pt0  1  0.00000000  0.00000000  0.00000000  1
  Pt  Pt1  1  0.50000000  0.50000000  0.50000000  1
  O  O0  1  0.75000000  0.25000000  0.25000000  1
  O  O1  1  0.25000000  0.25000000  0.75000000  1
  O  O2  1  0.75000000  0.75000000  0.75000000  1
  O  O3  1  0.25000000  0.75000000  0.25000000  1
loop_
_geom_bond_atom_site_label_1
_geom_bond_atom_site_label_2
_geom_bond_distance
_geom_bond_site_symmetry_2
O0 Pt1 1.941535 1_555
O0 Pt0 1.941535 1_655
O1 Pt1 1.941535 1_555
O1 Pt0 1.941535 1_556
O2 Pt1 1.941535 1_555
O2 Pt0 1.941535 1_666
O3 Pt0 1.941535 1_565
O3 Pt1 1.941535 1_555
