# generated using pymatgen
data_P2SO3
_symmetry_space_group_name_H-M   'P 1'
_cell_length_a   6.75977300
_cell_length_b   11.72622300
_cell_length_c   12.15412761
_cell_angle_alpha   89.68165044
_cell_angle_beta   90.00000000
_cell_angle_gamma   90.00000000
_symmetry_Int_Tables_number   1
_chemical_formula_structural   P2SO3
_chemical_formula_sum   'P16 S8 O24'
_cell_volume   963.40156880
_cell_formula_units_Z   8
loop_
 _symmetry_equiv_pos_site_id
 _symmetry_equiv_pos_as_xyz
  1  'x, y, z'
loop_
 _atom_site_type_symbol
 _atom_site_label
 _atom_site_symmetry_multiplicity
 _atom_site_fract_x
 _atom_site_fract_y
 _atom_site_fract_z
 _atom_site_occupancy
  P  P0  1  0.01427400  0.82181200  0.09604700  1
  P  P1  1  0.85960100  0.84884600  0.47730100  1
  P  P2  1  0.35960100  0.15115400  0.02269900  1
  P  P3  1  0.46887300  0.28818100  0.61852600  1
  P  P4  1  0.14039900  0.15115400  0.52269900  1
  P  P5  1  0.53112700  0.71181900  0.38147400  1
  P  P6  1  0.03112700  0.28818100  0.11852600  1
  P  P7  1  0.24739800  0.37080400  0.92524100  1
  P  P8  1  0.64039900  0.84884600  0.97730100  1
  P  P9  1  0.25260200  0.37080400  0.42524100  1
  P  P10  1  0.48572600  0.82181200  0.59604700  1
  P  P11  1  0.51427400  0.17818800  0.40395300  1
  P  P12  1  0.75260200  0.62919600  0.07475900  1
  P  P13  1  0.96887300  0.71181900  0.88147400  1
  P  P14  1  0.74739800  0.62919600  0.57475900  1
  P  P15  1  0.98572600  0.17818800  0.90395300  1
  S  S0  1  0.30646400  0.89516400  0.69205300  1
  S  S1  1  0.65753200  0.49956800  0.15061800  1
  S  S2  1  0.80646400  0.10483600  0.80794700  1
  S  S3  1  0.84246800  0.49956800  0.65061800  1
  S  S4  1  0.34246800  0.50043200  0.84938200  1
  S  S5  1  0.19353600  0.89516400  0.19205300  1
  S  S6  1  0.69353600  0.10483600  0.30794700  1
  S  S7  1  0.15753200  0.50043200  0.34938200  1
  O  O0  1  0.67792200  0.89579700  0.56120500  1
  O  O1  1  0.39816300  0.77997700  0.47931200  1
  O  O2  1  0.58538000  0.70471700  0.64427300  1
  O  O3  1  0.22356500  0.20028400  0.12522700  1
  O  O4  1  0.91462000  0.70471700  0.14427300  1
  O  O5  1  0.41000200  0.27522000  0.95766700  1
  O  O6  1  0.86832500  0.60828000  0.96035700  1
  O  O7  1  0.13167500  0.39172000  0.03964300  1
  O  O8  1  0.89816300  0.22002300  0.02068800  1
  O  O9  1  0.36832500  0.39172000  0.53964300  1
  O  O10  1  0.60183700  0.22002300  0.52068800  1
  O  O11  1  0.27643500  0.20028400  0.62522700  1
  O  O12  1  0.58999800  0.72478000  0.04233300  1
  O  O13  1  0.32207800  0.10420300  0.43879500  1
  O  O14  1  0.91000200  0.72478000  0.54233300  1
  O  O15  1  0.72356500  0.79971600  0.37477300  1
  O  O16  1  0.41462000  0.29528300  0.35572700  1
  O  O17  1  0.08999800  0.27522000  0.45766700  1
  O  O18  1  0.82207800  0.89579700  0.06120500  1
  O  O19  1  0.77643500  0.79971600  0.87477300  1
  O  O20  1  0.17792200  0.10420300  0.93879500  1
  O  O21  1  0.08538000  0.29528300  0.85572700  1
  O  O22  1  0.63167500  0.60828000  0.46035700  1
  O  O23  1  0.10183700  0.77997700  0.97931200  1
loop_
_geom_bond_atom_site_label_1
_geom_bond_atom_site_label_2
_geom_bond_distance
_geom_bond_site_symmetry_2
P0 S5 1.892345 1_555
P7 S4 1.886280 1_555
P9 S7 1.886280 1_555
P10 S0 1.892345 1_555
P11 S6 1.892345 1_555
P12 S1 1.886280 1_555
P14 S3 1.886280 1_555
P15 S2 1.892345 1_555
O0 P10 1.617356 1_555
O0 P1 1.690431 1_555
O1 P10 1.616097 1_555
O1 P5 1.694472 1_555
O2 P10 1.635165 1_555
O2 P14 1.644949 1_555
O3 P2 1.654797 1_555
O3 P6 1.661391 1_555
O4 P0 1.635165 1_655
O4 P12 1.644949 1_555
O5 P7 1.617053 1_555
O5 P2 1.686582 1_556
O6 P12 1.615316 1_556
O6 P13 1.685922 1_555
O7 P7 1.615316 1_554
O7 P6 1.685922 1_555
O8 P15 1.616097 1_554
O8 P6 1.694472 1_655
O9 P9 1.615316 1_555
O9 P3 1.685922 1_555
O10 P11 1.616097 1_555
O10 P3 1.694472 1_555
O11 P4 1.654797 1_555
O11 P3 1.661391 1_555
O12 P12 1.617053 1_555
O12 P8 1.686582 1_554
O13 P11 1.617356 1_555
O13 P4 1.690431 1_555
O14 P14 1.617053 1_555
O14 P1 1.686582 1_555
O15 P1 1.654797 1_555
O15 P5 1.661391 1_555
O16 P11 1.635165 1_555
O16 P9 1.644949 1_555
O17 P9 1.617053 1_555
O17 P4 1.686582 1_555
O18 P0 1.617356 1_655
O18 P8 1.690431 1_554
O19 P8 1.654797 1_555
O19 P13 1.661391 1_555
O20 P15 1.617356 1_455
O20 P2 1.690431 1_556
O21 P15 1.635165 1_455
O21 P7 1.644949 1_555
O22 P14 1.615316 1_555
O22 P5 1.685922 1_555
O23 P0 1.616097 1_556
O23 P13 1.694472 1_455
