# generated using pymatgen
data_Na4Mg3TiP2(SO6)4
_symmetry_space_group_name_H-M   'P 1'
_cell_length_a   8.78750125
_cell_length_b   8.77776586
_cell_length_c   22.33760544
_cell_angle_alpha   90.26173926
_cell_angle_beta   90.10493395
_cell_angle_gamma   119.93416064
_symmetry_Int_Tables_number   1
_chemical_formula_structural   Na4Mg3TiP2(SO6)4
_chemical_formula_sum   'Na12 Mg9 Ti3 P6 S12 O72'
_cell_volume   1493.12087585
_cell_formula_units_Z   3
loop_
 _symmetry_equiv_pos_site_id
 _symmetry_equiv_pos_as_xyz
  1  'x, y, z'
loop_
 _atom_site_type_symbol
 _atom_site_label
 _atom_site_symmetry_multiplicity
 _atom_site_fract_x
 _atom_site_fract_y
 _atom_site_fract_z
 _atom_site_occupancy
  Na  Na0  1  0.63440615  0.99774403  0.25372228  1
  Na  Na1  1  0.36343536  0.36284396  0.24992074  1
  Na  Na2  1  0.30727128  0.33901290  0.58985997  1
  Na  Na3  1  0.66632937  0.95930598  0.58217073  1
  Na  Na4  1  0.97732156  0.67718195  0.91414768  1
  Na  Na5  1  0.32498632  0.29853782  0.91156392  1
  Na  Na6  1  0.98804487  0.98306954  0.49652756  1
  Na  Na7  1  0.99038015  0.00110079  0.99805147  1
  Na  Na8  1  0.66035381  0.32293874  0.82503080  1
  Na  Na9  1  0.67746486  0.33749940  0.33649568  1
  Na  Na10  1  0.32154287  0.66571599  0.16121689  1
  Na  Na11  1  0.32847933  0.66388607  0.67016448  1
  Mg  Mg0  1  0.99311268  0.99703368  0.35437866  1
  Mg  Mg1  1  0.99830896  0.00420546  0.84941971  1
  Mg  Mg2  1  0.99983229  0.99281763  0.65375785  1
  Mg  Mg3  1  0.00022819  0.99737992  0.14530895  1
  Mg  Mg4  1  0.66210351  0.34040613  0.68807284  1
  Mg  Mg5  1  0.67415131  0.34008645  0.18085255  1
  Mg  Mg6  1  0.33504051  0.66829240  0.01720219  1
  Mg  Mg7  1  0.33856979  0.67199726  0.51470517  1
  Mg  Mg8  1  0.33196677  0.67551667  0.32170541  1
  Ti  Ti0  1  0.66702105  0.32765662  0.97681077  1
  Ti  Ti1  1  0.67082921  0.33949974  0.47943352  1
  Ti  Ti2  1  0.33389806  0.65801128  0.81523475  1
  P  P0  1  0.29462008  0.29322684  0.75097531  1
  P  P1  1  0.66827051  0.62499822  0.58345437  1
  P  P2  1  0.62588491  0.67115013  0.91916190  1
  P  P3  1  0.04376681  0.37496806  0.91844129  1
  P  P4  1  0.33383664  0.95281906  0.91782257  1
  P  P5  1  0.63184468  0.96589043  0.41800807  1
  S  S0  1  0.28943714  0.99744564  0.24957244  1
  S  S1  1  0.70860548  0.70596591  0.24967364  1
  S  S2  1  0.00142331  0.29408825  0.24977114  1
  S  S3  1  0.00362093  0.70493515  0.75181673  1
  S  S4  1  0.70249246  0.99839640  0.74960727  1
  S  S5  1  0.95754871  0.33767846  0.58341401  1
  S  S6  1  0.37679463  0.04253343  0.58289021  1
  S  S7  1  0.95936551  0.62490164  0.08266468  1
  S  S8  1  0.66557311  0.04123940  0.08416270  1
  S  S9  1  0.37446787  0.33409101  0.08372289  1
  S  S10  1  0.33326723  0.37033883  0.41679157  1
  S  S11  1  0.03981686  0.66643116  0.41769710  1
  O  O0  1  0.21020904  0.02839147  0.30298839  1
  O  O1  1  0.81352840  0.78658533  0.30365414  1
  O  O2  1  0.97141191  0.18307337  0.30287921  1
  O  O3  1  0.20798668  0.18803216  0.80720031  1
  O  O4  1  0.97827236  0.78365673  0.80673149  1
  O  O5  1  0.81071507  0.02051668  0.80221269  1
  O  O6  1  0.77509459  0.96753638  0.69352238  1
  O  O7  1  0.18710799  0.22190936  0.69259394  1
  O  O8  1  0.03089604  0.81292277  0.69843078  1
  O  O9  1  0.78759776  0.81651177  0.19640159  1
  O  O10  1  0.03136408  0.21317340  0.19594669  1
  O  O11  1  0.18560182  0.97578652  0.19533750  1
  O  O12  1  0.87511782  0.35862680  0.63678450  1
  O  O13  1  0.48845267  0.12118710  0.63592497  1
  O  O14  1  0.63492484  0.50619179  0.63650095  1
  O  O15  1  0.87527787  0.51886873  0.13591842  1
  O  O16  1  0.64450846  0.12160750  0.13975025  1
  O  O17  1  0.47766369  0.35484943  0.13893177  1
  O  O18  1  0.46598367  0.31331459  0.02960235  1
  O  O19  1  0.84933484  0.53555908  0.02741255  1
  O  O20  1  0.68576727  0.15727993  0.03124103  1
  O  O21  1  0.46359744  0.15621415  0.52902719  1
  O  O22  1  0.68716875  0.52422545  0.52681010  1
  O  O23  1  0.84364155  0.30862473  0.52888824  1
  O  O24  1  0.54390502  0.69575998  0.97436052  1
  O  O25  1  0.15695779  0.45731025  0.97314810  1
  O  O26  1  0.29946452  0.84213021  0.97290285  1
  O  O27  1  0.54496741  0.85751115  0.47379859  1
  O  O28  1  0.30898308  0.45212376  0.47079550  1
  O  O29  1  0.14370324  0.68741885  0.47141282  1
  O  O30  1  0.11219805  0.63168446  0.36336620  1
  O  O31  1  0.52310738  0.89484086  0.35978592  1
  O  O32  1  0.36202684  0.47664564  0.36207895  1
  O  O33  1  0.12638366  0.49928565  0.86289476  1
  O  O34  1  0.36775214  0.86970121  0.86177917  1
  O  O35  1  0.50148868  0.62865715  0.86317654  1
  O  O36  1  0.01738714  0.82096330  0.41127614  1
  O  O37  1  0.81699872  0.99240206  0.41207133  1
  O  O38  1  0.18149787  0.19228365  0.41038259  1
  O  O39  1  0.01754951  0.19187288  0.90912919  1
  O  O40  1  0.17851352  0.98604223  0.90951738  1
  O  O41  1  0.81300288  0.81903570  0.90870734  1
  O  O42  1  0.97352207  0.17517490  0.58576449  1
  O  O43  1  0.20359672  0.03283815  0.58732200  1
  O  O44  1  0.83118980  0.81029743  0.58585144  1
  O  O45  1  0.97093753  0.79897076  0.08623892  1
  O  O46  1  0.82760885  0.02941257  0.08654316  1
  O  O47  1  0.20033674  0.17238553  0.08658056  1
  O  O48  1  0.68248093  0.15502036  0.74363554  1
  O  O49  1  0.48059921  0.32158617  0.74641472  1
  O  O50  1  0.85075698  0.52642374  0.74528305  1
  O  O51  1  0.68185237  0.52445982  0.24332390  1
  O  O52  1  0.84040921  0.30996712  0.24320417  1
  O  O53  1  0.47135331  0.15866175  0.24448593  1
  O  O54  1  0.63838044  0.49391680  0.92550910  1
  O  O55  1  0.85813225  0.36421809  0.92541010  1
  O  O56  1  0.50247913  0.14451658  0.92627451  1
  O  O57  1  0.64906684  0.15512059  0.42844269  1
  O  O58  1  0.49727391  0.35526181  0.42312161  1
  O  O59  1  0.85847188  0.50360913  0.42406416  1
  O  O60  1  0.35793514  0.49235604  0.07848452  1
  O  O61  1  0.13445921  0.64252655  0.07742550  1
  O  O62  1  0.50814742  0.86729188  0.07766420  1
  O  O63  1  0.35583227  0.86538420  0.57521196  1
  O  O64  1  0.50069979  0.64185707  0.57547501  1
  O  O65  1  0.13534393  0.49138100  0.57547356  1
  O  O66  1  0.31487614  0.84201152  0.25485874  1
  O  O67  1  0.52701577  0.68493862  0.25522314  1
  O  O68  1  0.16153180  0.47078049  0.25700786  1
  O  O69  1  0.31164975  0.48425151  0.76069041  1
  O  O70  1  0.16741759  0.69046477  0.75764686  1
  O  O71  1  0.52321585  0.83646242  0.75669045  1
loop_
_geom_bond_atom_site_label_1
_geom_bond_atom_site_label_2
_geom_bond_distance
_geom_bond_site_symmetry_2
Na0 O67 2.417791 1_555
Na0 O52 2.428852 1_565
Na0 O66 2.433790 1_555
Na0 O53 2.472272 1_565
Na0 O31 2.555770 1_555
Na0 O16 2.757025 1_565
Na0 O2 2.790339 1_565
Na0 O9 2.847325 1_555
Na1 O68 2.397474 1_555
Na1 O53 2.412671 1_555
Na1 O51 2.430103 1_555
Na1 O67 2.452367 1_555
Na1 O17 2.690148 1_555
Na1 O32 2.695246 1_555
Na1 O10 2.800241 1_555
Na1 O0 2.815916 1_555
Na2 O64 2.357817 1_555
Na2 O43 2.368728 1_555
Na2 O65 2.488647 1_555
Na2 O7 2.526861 1_555
Na2 O42 2.542924 1_455
Na2 O14 2.699493 1_555
Na2 O28 2.840584 1_555
Na2 O21 2.914612 1_555
Na3 O44 2.389126 1_555
Na3 O42 2.403518 1_565
Na3 O64 2.419321 1_555
Na3 O63 2.429163 1_555
Na3 O27 2.610681 1_555
Na3 O6 2.650711 1_555
Na3 O13 2.848174 1_565
Na3 O23 2.918599 1_565
Na4 O41 2.333515 1_555
Na4 O40 2.388750 1_655
Na4 O55 2.417170 1_555
Na4 O4 2.577509 1_555
Na4 O54 2.597704 1_555
Na4 O33 2.737775 1_655
Na4 O26 2.776864 1_655
Na4 O19 2.802737 1_556
Na5 O39 2.377563 1_555
Na5 O40 2.378648 1_545
Na5 O54 2.429167 1_555
Na5 O3 2.531375 1_555
Na5 O56 2.544634 1_555
Na5 O35 2.742251 1_555
Na5 O25 2.838759 1_555
Na5 O18 2.885943 1_556
Na6 O37 2.436987 1_555
Na6 O36 2.461875 1_655
Na6 O44 2.476386 1_555
Na6 O38 2.625606 1_665
Na6 O42 2.649177 1_565
Na6 O43 2.654055 1_665
Na7 O46 2.524996 1_556
Na7 O39 2.537653 1_655
Na7 O41 2.537703 1_545
Na7 O47 2.601187 1_656
Na7 O45 2.605433 1_546
Na7 O40 2.624757 1_645
Na8 O49 2.355856 1_555
Na8 O48 2.403940 1_555
Na8 O50 2.494095 1_555
Na8 O56 2.714311 1_555
Na8 O55 2.743954 1_555
Na8 O54 2.754498 1_555
Na9 O59 2.475913 1_555
Na9 O57 2.544938 1_555
Na9 O58 2.555522 1_555
Na9 O52 2.608261 1_555
Na9 O51 2.644725 1_555
Na9 O53 2.662370 1_555
Na10 O61 2.428723 1_555
Na10 O60 2.509041 1_555
Na10 O62 2.539428 1_555
Na10 O66 2.614352 1_555
Na10 O68 2.669597 1_555
Na10 O67 2.716051 1_555
Na11 O70 2.492346 1_555
Na11 O71 2.516502 1_555
Na11 O69 2.528766 1_555
Na11 O65 2.653300 1_555
Na11 O64 2.664878 1_555
Na11 O63 2.701228 1_555
Mg0 O37 2.000626 1_555
Mg0 O1 2.061937 1_555
Mg0 O2 2.086529 1_565
Mg0 O38 2.093813 1_665
Mg0 O36 2.096516 1_655
Mg0 O0 2.125986 1_665
Mg1 O3 1.985224 1_655
Mg1 O5 2.020027 1_555
Mg1 O39 2.054813 1_655
Mg1 O4 2.080963 1_545
Mg1 O41 2.105578 1_545
Mg1 O40 2.140401 1_645
Mg2 O8 2.001838 1_655
Mg2 O7 2.044678 1_665
Mg2 O6 2.075869 1_555
Mg2 O44 2.159600 1_555
Mg2 O43 2.217797 1_665
Mg2 O42 2.304932 1_565
Mg3 O11 2.059546 1_555
Mg3 O45 2.090646 1_455
Mg3 O9 2.092402 1_455
Mg3 O10 2.098643 1_565
Mg3 O47 2.122233 1_565
Mg3 O46 2.127184 1_465
Mg4 O14 1.965449 1_555
Mg4 O49 2.004050 1_555
Mg4 O50 2.078267 1_555
Mg4 O13 2.104927 1_555
Mg4 O48 2.128134 1_555
Mg4 O12 2.133713 1_555
Mg5 O15 1.961301 1_555
Mg5 O16 2.018188 1_555
Mg5 O17 2.023219 1_555
Mg5 O51 2.107316 1_555
Mg5 O52 2.127356 1_555
Mg5 O53 2.220351 1_555
Mg6 O26 1.973339 1_554
Mg6 O24 1.977252 1_554
Mg6 O25 1.983023 1_554
Mg6 O62 2.123278 1_555
Mg6 O61 2.140383 1_555
Mg6 O60 2.151209 1_555
Mg7 O27 1.961707 1_555
Mg7 O29 2.027870 1_555
Mg7 O28 2.058036 1_555
Mg7 O64 2.077226 1_555
Mg7 O63 2.110117 1_555
Mg7 O65 2.179046 1_555
Mg8 O31 2.000928 1_555
Mg8 O30 2.002986 1_555
Mg8 O32 2.098592 1_555
Mg8 O66 2.150859 1_555
Mg8 O68 2.200791 1_555
Mg8 O67 2.240307 1_555
O0 S0 1.473436 1_545
O1 S1 1.463485 1_555
O2 S2 1.477052 1_655
O3 P0 1.523840 1_555
O4 S3 1.476033 1_655
O5 S4 1.460295 1_545
O6 S4 1.490713 1_555
O7 P0 1.543670 1_555
O8 S3 1.470602 1_555
O9 S1 1.476751 1_555
O10 S2 1.482931 1_555
O11 S0 1.468712 1_555
O12 S5 1.453915 1_555
O13 S6 1.468006 1_555
O14 P1 1.511643 1_555
O15 S7 1.467749 1_555
O16 S8 1.482191 1_555
O17 S9 1.485045 1_555
O18 S9 1.513077 1_555
O18 Ti0 2.077116 1_554
O19 S7 1.517623 1_555
O19 Ti0 2.057012 1_554
O20 S8 1.515859 1_555
O20 Ti0 2.000939 1_554
O21 S6 1.509927 1_555
O21 Ti1 2.057071 1_555
O22 P1 1.596293 1_555
O22 Ti1 1.876480 1_555
O23 S5 1.512731 1_555
O23 Ti1 2.001812 1_555
O24 P2 1.497354 1_555
O25 P3 1.508339 1_555
O26 P4 1.506130 1_555
O27 P5 1.526573 1_555
O28 S10 1.470384 1_555
O29 S11 1.460536 1_555
O30 S11 1.470889 1_555
O31 P5 1.544894 1_555
O32 S10 1.484741 1_555
O33 P3 1.575563 1_555
O33 Ti2 1.971016 1_555
O34 P4 1.548659 1_555
O34 Ti2 2.012899 1_555
O35 P2 1.575380 1_555
O35 Ti2 1.938435 1_555
O36 S11 1.472368 1_555
O37 P5 1.530424 1_555
O38 S10 1.469317 1_555
O39 P3 1.518740 1_555
O40 P4 1.542477 1_555
O41 P2 1.522263 1_555
O42 S5 1.502534 1_555
O43 S6 1.484863 1_555
O44 P1 1.540455 1_555
O45 S7 1.481587 1_555
O46 S8 1.479311 1_555
O47 S9 1.481151 1_555
O48 S4 1.477053 1_545
O49 P0 1.529078 1_555
O50 S3 1.475651 1_655
O51 S1 1.495906 1_555
O52 S2 1.496384 1_655
O53 S0 1.521644 1_545
O54 P2 1.620137 1_555
O54 Ti0 1.971593 1_555
O55 P3 1.594240 1_655
O55 Ti0 1.927219 1_555
O56 P4 1.603312 1_545
O56 Ti0 1.899188 1_555
O57 P5 1.606757 1_545
O57 Ti1 1.904398 1_555
O58 S10 1.518015 1_555
O58 Ti1 2.032861 1_555
O59 S11 1.527093 1_655
O59 Ti1 1.994218 1_555
O60 S9 1.472264 1_555
O61 S7 1.472512 1_455
O62 S8 1.468110 1_565
O63 S6 1.480836 1_565
O64 P1 1.561654 1_555
O65 S5 1.480615 1_455
O66 S0 1.493711 1_555
O67 S1 1.517481 1_555
O68 S2 1.493393 1_555
O69 P0 1.620857 1_555
O69 Ti2 1.879774 1_555
O70 S3 1.512212 1_555
O70 Ti2 2.070870 1_555
O71 S4 1.515078 1_555
O71 Ti2 2.087444 1_555
