# generated using pymatgen
data_La3B2N5
_symmetry_space_group_name_H-M   'P 1'
_cell_length_a   14.79244026
_cell_length_b   7.63976414
_cell_length_c   9.68630625
_cell_angle_alpha   90.00671332
_cell_angle_beta   89.99954937
_cell_angle_gamma   90.00023879
_symmetry_Int_Tables_number   1
_chemical_formula_structural   La3B2N5
_chemical_formula_sum   'La24 B16 N40'
_cell_volume   1094.65677131
_cell_formula_units_Z   8
loop_
 _symmetry_equiv_pos_site_id
 _symmetry_equiv_pos_as_xyz
  1  'x, y, z'
loop_
 _atom_site_type_symbol
 _atom_site_label
 _atom_site_symmetry_multiplicity
 _atom_site_fract_x
 _atom_site_fract_y
 _atom_site_fract_z
 _atom_site_occupancy
  La  La0  1  0.19312882  0.37815388  0.70114844  1
  La  La1  1  0.69313265  0.12184267  0.29885176  1
  La  La2  1  0.80687246  0.62184798  0.29885462  1
  La  La3  1  0.30687217  0.87815646  0.70114635  1
  La  La4  1  0.11197821  0.12984239  0.98872696  1
  La  La5  1  0.61197399  0.37015985  0.01126440  1
  La  La6  1  0.88804542  0.87014273  0.01127202  1
  La  La7  1  0.38802571  0.62984244  0.98872617  1
  La  La8  1  0.96581934  0.13788885  0.68233971  1
  La  La9  1  0.46583197  0.36213271  0.31763826  1
  La  La10  1  0.03417387  0.86214463  0.31765939  1
  La  La11  1  0.53417051  0.63786690  0.68234779  1
  La  La12  1  0.11007544  0.62360248  0.99486761  1
  La  La13  1  0.61005672  0.87642175  0.00514262  1
  La  La14  1  0.88994215  0.37641055  0.00513906  1
  La  La15  1  0.38993158  0.12360040  0.99486901  1
  La  La16  1  0.75306094  0.87653163  0.67344122  1
  La  La17  1  0.25306799  0.62345488  0.32663538  1
  La  La18  1  0.24693421  0.12345090  0.32662913  1
  La  La19  1  0.74693112  0.37653552  0.67336020  1
  La  La20  1  0.96960197  0.61708096  0.67442589  1
  La  La21  1  0.46960770  0.88291812  0.32557254  1
  La  La22  1  0.03039609  0.38292593  0.32557916  1
  La  La23  1  0.53039360  0.11709172  0.67439954  1
  B  B0  1  0.85798448  0.96624350  0.44014335  1
  B  B1  1  0.35799161  0.53374894  0.55986549  1
  B  B2  1  0.14201008  0.03374398  0.55986859  1
  B  B3  1  0.64200992  0.46625592  0.44012930  1
  B  B4  1  0.10556623  0.87606735  0.76942222  1
  B  B5  1  0.60556556  0.62393300  0.23057060  1
  B  B6  1  0.89443564  0.12393000  0.23057206  1
  B  B7  1  0.39443396  0.37606519  0.76942668  1
  B  B8  1  0.64602916  0.77908019  0.44049632  1
  B  B9  1  0.14602401  0.72092204  0.55951224  1
  B  B10  1  0.35397424  0.22091583  0.55950302  1
  B  B11  1  0.85397496  0.27907839  0.44049299  1
  B  B12  1  0.24808968  0.37607888  0.09428895  1
  B  B13  1  0.74808721  0.12392449  0.90571471  1
  B  B14  1  0.75191221  0.62391297  0.90571449  1
  B  B15  1  0.25191205  0.87607969  0.09428897  1
  N  N0  1  0.89904224  0.83802658  0.52537590  1
  N  N1  1  0.39904458  0.66196700  0.47462790  1
  N  N2  1  0.10095376  0.16196870  0.47462334  1
  N  N3  1  0.60095387  0.33802790  0.52536786  1
  N  N4  1  0.14079841  0.70882168  0.71227332  1
  N  N5  1  0.64080001  0.79117477  0.28772705  1
  N  N6  1  0.85920050  0.29117446  0.28772473  1
  N  N7  1  0.35919782  0.20882128  0.71226915  1
  N  N8  1  0.13858568  0.04556058  0.71271284  1
  N  N9  1  0.63858075  0.45444078  0.28728292  1
  N  N10  1  0.86141776  0.95443937  0.28728796  1
  N  N11  1  0.36141708  0.54555735  0.71271264  1
  N  N12  1  0.23621592  0.37782824  0.94480230  1
  N  N13  1  0.73621045  0.12217701  0.05519683  1
  N  N14  1  0.76378380  0.62216870  0.05519665  1
  N  N15  1  0.26378499  0.87782964  0.94480208  1
  N  N16  1  0.89082538  0.41117463  0.52646783  1
  N  N17  1  0.39082320  0.08882943  0.47352459  1
  N  N18  1  0.10916982  0.58882684  0.47353037  1
  N  N19  1  0.60917428  0.91117059  0.52647467  1
  N  N20  1  0.83780164  0.12138398  0.83837969  1
  N  N21  1  0.33780276  0.37861253  0.16161690  1
  N  N22  1  0.16219846  0.87861422  0.16162171  1
  N  N23  1  0.66219911  0.62138724  0.83837587  1
  N  N24  1  0.97884669  0.63157137  0.15690271  1
  N  N25  1  0.47884585  0.86842855  0.84309124  1
  N  N26  1  0.02115677  0.36843516  0.84309298  1
  N  N27  1  0.52115172  0.13156674  0.15690440  1
  N  N28  1  0.83269603  0.62770117  0.81559193  1
  N  N29  1  0.33269513  0.87229435  0.18440145  1
  N  N30  1  0.16730407  0.37229367  0.18440858  1
  N  N31  1  0.66730414  0.12770591  0.81558923  1
  N  N32  1  0.97085367  0.12399004  0.13825701  1
  N  N33  1  0.47084875  0.37601216  0.86174006  1
  N  N34  1  0.02915091  0.87600944  0.86173960  1
  N  N35  1  0.52914726  0.62398822  0.13826010  1
  N  N36  1  0.81393844  0.12120908  0.50618495  1
  N  N37  1  0.31393798  0.37878938  0.49381952  1
  N  N38  1  0.18605792  0.87878812  0.49381864  1
  N  N39  1  0.68605880  0.62120848  0.50618033  1
loop_
_geom_bond_atom_site_label_1
_geom_bond_atom_site_label_2
_geom_bond_distance
_geom_bond_site_symmetry_2
La0 N12 2.444660 1_555
La0 N4 2.644351 1_555
La0 N8 2.668316 1_555
La0 N37 2.688240 1_555
La0 N7 2.778478 1_555
La0 N11 2.800932 1_555
La0 N26 2.892618 1_555
La0 N18 2.999144 1_555
La0 N2 3.066034 1_555
La1 N13 2.444625 1_555
La1 N5 2.644356 1_545
La1 N9 2.668399 1_555
La1 N36 2.688259 1_555
La1 N6 2.778452 1_555
La1 N10 2.800897 1_545
La1 N27 2.892767 1_555
La1 N19 2.999151 1_545
La1 N3 3.065987 1_555
La2 N14 2.444705 1_555
La2 N6 2.644385 1_555
La2 N10 2.668313 1_555
La2 N39 2.688261 1_555
La2 N5 2.778505 1_555
La2 N9 2.800993 1_555
La2 N24 2.892681 1_555
La2 N16 2.999074 1_555
La2 N0 3.065946 1_555
La3 N15 2.444668 1_555
La3 N7 2.644302 1_565
La3 N11 2.668374 1_555
La3 N38 2.688302 1_555
La3 N4 2.778540 1_555
La3 N8 2.800919 1_565
La3 N25 2.892662 1_555
La3 N17 2.999101 1_565
La3 N1 3.065979 1_555
La4 N32 2.541217 1_456
La4 N34 2.602727 1_545
La4 N22 2.653511 1_546
La4 N26 2.667974 1_555
La4 N12 2.673562 1_555
La4 N30 2.773544 1_556
La4 N8 2.777949 1_555
La4 N15 2.988376 1_545
La5 N33 2.541213 1_554
La5 N35 2.602734 1_555
La5 N23 2.653477 1_554
La5 N27 2.667994 1_555
La5 N13 2.673561 1_555
La5 N31 2.773529 1_554
La5 N9 2.777992 1_555
La5 N14 2.988393 1_555
La6 N34 2.541001 1_654
La6 N32 2.602665 1_565
La6 N20 2.653666 1_564
La6 N24 2.667696 1_555
La6 N14 2.673741 1_555
La6 N28 2.773587 1_554
La6 N10 2.778035 1_555
La6 N13 2.988795 1_565
La7 N35 2.541222 1_556
La7 N33 2.602675 1_555
La7 N21 2.653495 1_556
La7 N25 2.667916 1_555
La7 N15 2.673615 1_555
La7 N29 2.773521 1_556
La7 N11 2.777957 1_555
La7 N12 2.988408 1_555
La8 N20 2.426203 1_555
La8 N26 2.489228 1_655
La8 N8 2.667479 1_655
La8 N16 2.805363 1_555
La8 N34 2.810866 1_645
La8 N36 2.824054 1_555
La8 N2 2.842164 1_655
La8 N0 2.921414 1_545
La9 N21 2.426233 1_555
La9 N27 2.489127 1_555
La9 N9 2.667161 1_555
La9 N17 2.805609 1_555
La9 N35 2.810511 1_555
La9 N37 2.824334 1_555
La9 N3 2.842160 1_555
La9 N1 2.921427 1_555
La10 N22 2.426254 1_555
La10 N24 2.489344 1_455
La10 N10 2.667265 1_455
La10 N18 2.805552 1_555
La10 N32 2.810640 1_465
La10 N38 2.824105 1_555
La10 N0 2.842155 1_455
La10 N2 2.921200 1_565
La11 N23 2.426266 1_555
La11 N25 2.489186 1_555
La11 N11 2.667240 1_555
La11 N19 2.805513 1_555
La11 N33 2.810624 1_555
La11 N39 2.824187 1_555
La11 N1 2.842133 1_555
La11 N3 2.921386 1_555
La12 N24 2.497052 1_456
La12 N34 2.610540 1_555
La12 N22 2.645434 1_556
La12 N12 2.691143 1_555
La12 N26 2.773255 1_555
La12 N30 2.788261 1_556
La12 N4 2.850191 1_555
La12 N15 3.029441 1_555
La13 N25 2.496969 1_554
La13 N35 2.610521 1_555
La13 N23 2.645718 1_554
La13 N13 2.691153 1_565
La13 N27 2.772970 1_565
La13 N31 2.788282 1_564
La13 N5 2.850204 1_555
La13 N14 3.029762 1_555
La14 N26 2.496957 1_654
La14 N32 2.610480 1_555
La14 N20 2.645624 1_554
La14 N14 2.691227 1_555
La14 N24 2.773065 1_555
La14 N28 2.788284 1_554
La14 N6 2.850185 1_555
La14 N13 3.029706 1_555
La15 N27 2.496973 1_556
La15 N33 2.610505 1_555
La15 N21 2.645422 1_556
La15 N15 2.691184 1_545
La15 N25 2.773262 1_545
La15 N29 2.788214 1_546
La15 N7 2.850279 1_555
La15 N12 3.029532 1_555
La16 N19 2.574284 1_555
La16 N0 2.608914 1_555
La16 N28 2.626415 1_555
La16 N36 2.632590 1_565
La16 N31 2.680792 1_565
La16 N39 2.722375 1_555
La16 N20 2.760850 1_565
La16 N23 2.856412 1_555
La17 N18 2.574013 1_555
La17 N1 2.608492 1_555
La17 N29 2.626818 1_555
La17 N37 2.632071 1_555
La17 N30 2.681165 1_555
La17 N38 2.722022 1_555
La17 N21 2.761203 1_555
La17 N22 2.856992 1_555
La18 N17 2.573918 1_555
La18 N2 2.608536 1_555
La18 N30 2.626805 1_555
La18 N38 2.632106 1_545
La18 N29 2.681120 1_545
La18 N37 2.722061 1_555
La18 N22 2.761122 1_545
La18 N21 2.856969 1_555
La19 N16 2.573959 1_555
La19 N3 2.608495 1_555
La19 N31 2.626737 1_555
La19 N39 2.632098 1_555
La19 N28 2.681221 1_555
La19 N36 2.721924 1_555
La19 N23 2.761217 1_555
La19 N20 2.856989 1_555
La20 N16 2.426095 1_555
La20 N28 2.444905 1_555
La20 N0 2.454317 1_555
La20 N26 2.619158 1_655
La20 N4 2.653051 1_655
La20 N34 2.824918 1_655
La20 N18 2.845253 1_655
La21 N17 2.426137 1_565
La21 N29 2.445032 1_555
La21 N1 2.454382 1_555
La21 N27 2.619121 1_565
La21 N5 2.652996 1_555
La21 N35 2.824871 1_555
La21 N19 2.845303 1_555
La22 N18 2.426009 1_555
La22 N30 2.444958 1_555
La22 N2 2.454332 1_555
La22 N24 2.619189 1_455
La22 N6 2.653070 1_455
La22 N32 2.824980 1_455
La22 N16 2.845235 1_455
La23 N19 2.426003 1_545
La23 N31 2.445105 1_555
La23 N3 2.454151 1_555
La23 N25 2.619360 1_545
La23 N7 2.653049 1_555
La23 N33 2.825019 1_555
La23 N17 2.845170 1_555
B0 N0 1.417808 1_555
B0 N10 1.484206 1_555
B0 N36 1.495050 1_565
B1 N1 1.417803 1_555
B1 N11 1.484125 1_555
B1 N37 1.495080 1_555
B2 N2 1.417911 1_555
B2 N8 1.484100 1_555
B2 N38 1.495037 1_545
B3 N3 1.417880 1_555
B3 N9 1.484123 1_555
B3 N39 1.495028 1_555
B4 N34 1.441297 1_555
B4 N4 1.486757 1_555
B4 N8 1.489027 1_565
B5 N35 1.441302 1_555
B5 N5 1.486770 1_555
B5 N9 1.489016 1_555
B6 N32 1.441315 1_555
B6 N6 1.486778 1_555
B6 N10 1.489025 1_545
B7 N33 1.441278 1_555
B7 N7 1.486796 1_555
B7 N11 1.489030 1_555
B8 N19 1.417376 1_555
B8 N5 1.484680 1_555
B8 N39 1.486706 1_555
B9 N18 1.417420 1_555
B9 N4 1.484599 1_555
B9 N38 1.486728 1_555
B10 N17 1.417321 1_555
B10 N7 1.484645 1_555
B10 N37 1.486755 1_555
B11 N16 1.417364 1_555
B11 N6 1.484667 1_555
B11 N36 1.486757 1_555
B12 N12 1.458652 1_554
B12 N21 1.478792 1_555
B12 N30 1.480165 1_555
B13 N13 1.458610 1_556
B13 N20 1.478832 1_555
B13 N31 1.480179 1_555
B14 N14 1.458604 1_556
B14 N23 1.478837 1_555
B14 N28 1.480161 1_555
B15 N15 1.458650 1_554
B15 N22 1.478810 1_555
B15 N29 1.480106 1_555
