# generated using pymatgen
data_V2P
_symmetry_space_group_name_H-M   'P 1'
_cell_length_a   3.26233906
_cell_length_b   6.14269510
_cell_length_c   7.53020811
_cell_angle_alpha   90.00000000
_cell_angle_beta   90.00000000
_cell_angle_gamma   90.00000000
_symmetry_Int_Tables_number   1
_chemical_formula_structural   V2P
_chemical_formula_sum   'V8 P4'
_cell_volume   150.90201324
_cell_formula_units_Z   4
loop_
 _symmetry_equiv_pos_site_id
 _symmetry_equiv_pos_as_xyz
  1  'x, y, z'
loop_
 _atom_site_type_symbol
 _atom_site_label
 _atom_site_symmetry_multiplicity
 _atom_site_fract_x
 _atom_site_fract_y
 _atom_site_fract_z
 _atom_site_occupancy
  V  V0  1  0.75000000  0.04149032  0.33347955  1
  V  V1  1  0.25000000  0.95850968  0.66652045  1
  V  V2  1  0.75000000  0.54149032  0.16652045  1
  V  V3  1  0.25000000  0.45850968  0.83347955  1
  V  V4  1  0.25000000  0.36069303  0.44171573  1
  V  V5  1  0.75000000  0.63930697  0.55828427  1
  V  V6  1  0.25000000  0.86069303  0.05828427  1
  V  V7  1  0.75000000  0.13930697  0.94171573  1
  P  P0  1  0.25000000  0.74837073  0.35748209  1
  P  P1  1  0.75000000  0.25162927  0.64251791  1
  P  P2  1  0.25000000  0.24837073  0.14251791  1
  P  P3  1  0.75000000  0.75162927  0.85748209  1
loop_
_geom_bond_atom_site_label_1
_geom_bond_atom_site_label_2
_geom_bond_distance
_geom_bond_site_symmetry_2
P0 V5 2.322915 1_555
P0 V5 2.322915 1_455
P0 V6 2.356301 1_555
P0 V0 2.436256 1_565
P0 V0 2.436256 1_465
P0 V4 2.464413 1_555
P0 V2 2.518619 1_555
P0 V2 2.518619 1_455
P0 V1 2.661150 1_555
P1 V4 2.322915 1_555
P1 V4 2.322915 1_655
P1 V7 2.356301 1_555
P1 V1 2.436256 1_545
P1 V1 2.436256 1_645
P1 V5 2.464413 1_555
P1 V3 2.518619 1_655
P1 V3 2.518619 1_555
P1 V0 2.661150 1_555
P2 V7 2.322915 1_554
P2 V7 2.322915 1_454
P2 V4 2.356301 1_555
P2 V2 2.436256 1_555
P2 V2 2.436256 1_455
P2 V6 2.464413 1_545
P2 V0 2.518619 1_555
P2 V0 2.518619 1_455
P2 V3 2.661150 1_554
P3 V6 2.322915 1_556
P3 V6 2.322915 1_656
P3 V5 2.356301 1_555
P3 V3 2.436256 1_655
P3 V3 2.436256 1_555
P3 V7 2.464413 1_565
P3 V1 2.518619 1_555
P3 V1 2.518619 1_655
P3 V2 2.661150 1_556
