# generated using pymatgen
data_Na2Al2P2SO12
_symmetry_space_group_name_H-M   'P 1'
_cell_length_a   8.44664146
_cell_length_b   8.44664117
_cell_length_c   21.59955117
_cell_angle_alpha   90.31799941
_cell_angle_beta   89.68199407
_cell_angle_gamma   119.82609852
_symmetry_Int_Tables_number   1
_chemical_formula_structural   Na2Al2P2SO12
_chemical_formula_sum   'Na12 Al12 P12 S6 O72'
_cell_volume   1336.88145415
_cell_formula_units_Z   6
loop_
 _symmetry_equiv_pos_site_id
 _symmetry_equiv_pos_as_xyz
  1  'x, y, z'
loop_
 _atom_site_type_symbol
 _atom_site_label
 _atom_site_symmetry_multiplicity
 _atom_site_fract_x
 _atom_site_fract_y
 _atom_site_fract_z
 _atom_site_occupancy
  Na  Na0  1  0.99736194  0.63235022  0.25110945  1
  Na  Na1  1  0.36764980  0.00263806  0.75110942  1
  Na  Na2  1  0.66402720  0.96568264  0.58444259  1
  Na  Na3  1  0.03431746  0.33597286  0.08444257  1
  Na  Na4  1  0.33070046  0.29902099  0.91777788  1
  Na  Na5  1  0.70097925  0.66929961  0.41777791  1
  Na  Na6  1  0.01170443  0.99978921  0.50017387  1
  Na  Na7  1  0.00021115  0.98829551  0.00017387  1
  Na  Na8  1  0.67837288  0.33312272  0.83350606  1
  Na  Na9  1  0.66687735  0.32162710  0.33350612  1
  Na  Na10  1  0.34503752  0.66645461  0.16683988  1
  Na  Na11  1  0.33354540  0.65496272  0.66683989  1
  Al  Al0  1  0.98954358  0.99728154  0.35239956  1
  Al  Al1  1  0.00271848  0.01045640  0.85239959  1
  Al  Al2  1  0.00193302  0.99918420  0.64776489  1
  Al  Al3  1  0.00081580  0.99806702  0.14776491  1
  Al  Al4  1  0.65620886  0.33062214  0.68573462  1
  Al  Al5  1  0.66937783  0.34379110  0.18573462  1
  Al  Al6  1  0.66859444  0.33252361  0.98110004  1
  Al  Al7  1  0.66747638  0.33140554  0.48110004  1
  Al  Al8  1  0.32287267  0.66394656  0.01906645  1
  Al  Al9  1  0.33605343  0.67712731  0.51906646  1
  Al  Al10  1  0.33525782  0.66585225  0.31443400  1
  Al  Al11  1  0.33414771  0.66474209  0.81443401  1
  P  P0  1  0.70686545  0.71298025  0.24972958  1
  P  P1  1  0.99927659  0.28539605  0.24965525  1
  P  P2  1  0.28701964  0.29313457  0.74972963  1
  P  P3  1  0.71460406  0.00072357  0.74965529  1
  P  P4  1  0.37352769  0.04631234  0.58306127  1
  P  P5  1  0.66594016  0.61872374  0.58298986  1
  P  P6  1  0.95368767  0.62647230  0.08306131  1
  P  P7  1  0.38127629  0.33405973  0.08298991  1
  P  P8  1  0.04019951  0.37964751  0.91639665  1
  P  P9  1  0.33261196  0.95205909  0.91632289  1
  P  P10  1  0.62035250  0.95980039  0.41639661  1
  P  P11  1  0.04794097  0.66738797  0.41632290  1
  S  S0  1  0.29208595  0.00553229  0.25035236  1
  S  S1  1  0.99446777  0.70791405  0.75035235  1
  S  S2  1  0.95874963  0.33886305  0.58368581  1
  S  S3  1  0.66113690  0.04125044  0.08368585  1
  S  S4  1  0.62541591  0.67220035  0.91702019  1
  S  S5  1  0.32779958  0.37458416  0.41702017  1
  O  O0  1  0.20949064  0.03537816  0.30622022  1
  O  O1  1  0.83012973  0.78995242  0.30805639  1
  O  O2  1  0.97071042  0.16823442  0.30682715  1
  O  O3  1  0.21004764  0.16987029  0.80805638  1
  O  O4  1  0.96462181  0.79050931  0.80622022  1
  O  O5  1  0.83176547  0.02928968  0.80682717  1
  O  O6  1  0.79597946  0.96711355  0.69015680  1
  O  O7  1  0.16761399  0.20104054  0.69309672  1
  O  O8  1  0.03464904  0.82557112  0.69502815  1
  O  O9  1  0.79895938  0.83238599  0.19309678  1
  O  O10  1  0.03288656  0.20402046  0.19015673  1
  O  O11  1  0.17442888  0.96535095  0.19502810  1
  O  O12  1  0.87615569  0.36870900  0.63955321  1
  O  O13  1  0.49679108  0.12328156  0.64138934  1
  O  O14  1  0.63737476  0.50157067  0.64015991  1
  O  O15  1  0.87671840  0.50320894  0.14138934  1
  O  O16  1  0.63129117  0.12384462  0.13955331  1
  O  O17  1  0.49842946  0.36262523  0.14015989  1
  O  O18  1  0.46264745  0.30044921  0.02349126  1
  O  O19  1  0.83428637  0.53437643  0.02642913  1
  O  O20  1  0.70131559  0.15890561  0.02836109  1
  O  O21  1  0.46562344  0.16571357  0.52642917  1
  O  O22  1  0.69955082  0.53735247  0.52349132  1
  O  O23  1  0.84109457  0.29868445  0.52836113  1
  O  O24  1  0.54282015  0.70204354  0.97288712  1
  O  O25  1  0.16346465  0.45662031  0.97472365  1
  O  O26  1  0.30404395  0.83490432  0.97349445  1
  O  O27  1  0.54337978  0.83653540  0.47472364  1
  O  O28  1  0.29795641  0.45717985  0.47288712  1
  O  O29  1  0.16509549  0.69595591  0.47349438  1
  O  O30  1  0.12931421  0.63378374  0.35682513  1
  O  O31  1  0.50095033  0.86770863  0.35976290  1
  O  O32  1  0.36798114  0.49223825  0.36169496  1
  O  O33  1  0.13229116  0.49904974  0.85976281  1
  O  O34  1  0.36621633  0.87068607  0.85682520  1
  O  O35  1  0.50776189  0.63201890  0.86169492  1
  O  O36  1  0.02488482  0.83853922  0.40878235  1
  O  O37  1  0.81194053  0.97678128  0.40943553  1
  O  O38  1  0.16722606  0.19261303  0.40917227  1
  O  O39  1  0.02321866  0.18805927  0.90943552  1
  O  O40  1  0.16146029  0.97511518  0.90878232  1
  O  O41  1  0.80738695  0.83277392  0.90917229  1
  O  O42  1  0.97461829  0.17095796  0.58968451  1
  O  O43  1  0.18398879  0.02556898  0.59191311  1
  O  O44  1  0.83404861  0.81446965  0.59043797  1
  O  O45  1  0.97443104  0.81601124  0.09191308  1
  O  O46  1  0.82904220  0.02538184  0.08968453  1
  O  O47  1  0.18553030  0.16595126  0.09043797  1
  O  O48  1  0.69155716  0.17187380  0.74211558  1
  O  O49  1  0.47860553  0.31011370  0.74276871  1
  O  O50  1  0.83389296  0.52594579  0.74250525  1
  O  O51  1  0.68988632  0.52139460  0.24276874  1
  O  O52  1  0.82812627  0.30844295  0.24211560  1
  O  O53  1  0.47405412  0.16610691  0.24250524  1
  O  O54  1  0.64128430  0.50429327  0.92301754  1
  O  O55  1  0.85065759  0.35890590  0.92524622  1
  O  O56  1  0.50071405  0.14780305  0.92377142  1
  O  O57  1  0.64109388  0.14934248  0.42524620  1
  O  O58  1  0.49570688  0.35871568  0.42301755  1
  O  O59  1  0.85219696  0.49928584  0.42377140  1
  O  O60  1  0.35821930  0.50520912  0.07544953  1
  O  O61  1  0.14527690  0.64344983  0.07610265  1
  O  O62  1  0.50055976  0.85928011  0.07584051  1
  O  O63  1  0.35655025  0.85472313  0.57610266  1
  O  O64  1  0.49479105  0.64178086  0.57544944  1
  O  O65  1  0.14071958  0.49943987  0.57584054  1
  O  O66  1  0.30794947  0.83762340  0.25635166  1
  O  O67  1  0.51732750  0.69224641  0.25857971  1
  O  O68  1  0.16737766  0.48113418  0.25710464  1
  O  O69  1  0.30775349  0.48267233  0.75857971  1
  O  O70  1  0.16237647  0.69205059  0.75635163  1
  O  O71  1  0.51886557  0.83262214  0.75710466  1
loop_
_geom_bond_atom_site_label_1
_geom_bond_atom_site_label_2
_geom_bond_distance
_geom_bond_site_symmetry_2
Na0 O51 2.288669 1_555
Na0 O66 2.319018 1_655
Na0 O68 2.353495 1_655
Na0 O52 2.381861 1_555
Na0 O30 2.543789 1_655
Na0 O15 2.595599 1_555
Na0 O1 2.667102 1_555
Na0 O11 2.729241 1_655
Na1 O49 2.288669 1_555
Na1 O70 2.319018 1_545
Na1 O71 2.353495 1_545
Na1 O48 2.381861 1_555
Na1 O34 2.543790 1_545
Na1 O13 2.595598 1_555
Na1 O3 2.667102 1_555
Na1 O8 2.729240 1_545
Na2 O63 2.288673 1_555
Na2 O42 2.319044 1_565
Na2 O44 2.353516 1_555
Na2 O64 2.381820 1_555
Na2 O6 2.543765 1_555
Na2 O27 2.595593 1_555
Na2 O13 2.667104 1_565
Na2 O23 2.729249 1_565
Na3 O61 2.288673 1_555
Na3 O46 2.319043 1_455
Na3 O47 2.353516 1_555
Na3 O60 2.381821 1_555
Na3 O10 2.543765 1_555
Na3 O25 2.595593 1_554
Na3 O15 2.667105 1_455
Na3 O20 2.729250 1_455
Na4 O39 2.288713 1_555
Na4 O54 2.318990 1_555
Na4 O56 2.353491 1_555
Na4 O40 2.381854 1_545
Na4 O18 2.543734 1_556
Na4 O3 2.595659 1_555
Na4 O25 2.667095 1_555
Na4 O35 2.729237 1_555
Na5 O37 2.288712 1_555
Na5 O58 2.318991 1_555
Na5 O59 2.353490 1_555
Na5 O36 2.381852 1_655
Na5 O22 2.543735 1_555
Na5 O1 2.595659 1_555
Na5 O27 2.667096 1_555
Na5 O32 2.729238 1_555
Na6 O43 2.409056 1_565
Na6 O36 2.425445 1_555
Na6 O38 2.473964 1_565
Na6 O44 2.483558 1_455
Na6 O42 2.517783 1_465
Na6 O37 2.536216 1_455
Na7 O45 2.409054 1_455
Na7 O40 2.425441 1_554
Na7 O41 2.473966 1_454
Na7 O47 2.483557 1_565
Na7 O46 2.517785 1_465
Na7 O39 2.536216 1_564
Na8 O55 2.409067 1_555
Na8 O48 2.425432 1_555
Na8 O50 2.473946 1_555
Na8 O56 2.483587 1_555
Na8 O54 2.517815 1_555
Na8 O49 2.536215 1_555
Na9 O57 2.409065 1_555
Na9 O52 2.425433 1_555
Na9 O53 2.473948 1_555
Na9 O59 2.483586 1_555
Na9 O58 2.517814 1_555
Na9 O51 2.536217 1_555
Na10 O67 2.409071 1_555
Na10 O60 2.425407 1_555
Na10 O62 2.473933 1_555
Na10 O68 2.483582 1_555
Na10 O66 2.517809 1_555
Na10 O61 2.536187 1_555
Na11 O69 2.409072 1_555
Na11 O64 2.425409 1_555
Na11 O65 2.473935 1_555
Na11 O71 2.483581 1_555
Na11 O70 2.517808 1_555
Na11 O63 2.536185 1_555
Al0 O2 1.823546 1_565
Al0 O1 1.856699 1_555
Al0 O37 1.876591 1_555
Al0 O36 1.946900 1_655
Al0 O0 1.984502 1_665
Al0 O38 2.003284 1_665
Al1 O5 1.823548 1_455
Al1 O3 1.856699 1_555
Al1 O39 1.876589 1_555
Al1 O40 1.946896 1_545
Al1 O4 1.984502 1_445
Al1 O41 2.003283 1_445
Al2 O7 1.856718 1_565
Al2 O6 1.858591 1_455
Al2 O43 1.873818 1_565
Al2 O8 1.921420 1_555
Al2 O44 1.943092 1_455
Al2 O42 2.022023 1_465
Al3 O9 1.856718 1_455
Al3 O10 1.858589 1_565
Al3 O45 1.873819 1_455
Al3 O11 1.921419 1_555
Al3 O47 1.943091 1_565
Al3 O46 2.022022 1_465
Al4 O14 1.823546 1_555
Al4 O13 1.856787 1_555
Al4 O49 1.876545 1_555
Al4 O48 1.946944 1_555
Al4 O12 1.984547 1_555
Al4 O50 2.003231 1_555
Al5 O17 1.823545 1_555
Al5 O15 1.856787 1_555
Al5 O51 1.876546 1_555
Al5 O52 1.946944 1_555
Al5 O16 1.984544 1_555
Al5 O53 2.003231 1_555
Al6 O19 1.856698 1_556
Al6 O18 1.858526 1_556
Al6 O55 1.873900 1_555
Al6 O20 1.921452 1_556
Al6 O56 1.943126 1_555
Al6 O54 2.022006 1_555
Al7 O21 1.856699 1_555
Al7 O22 1.858526 1_555
Al7 O57 1.873899 1_555
Al7 O23 1.921453 1_555
Al7 O59 1.943126 1_555
Al7 O58 2.022005 1_555
Al8 O26 1.823558 1_554
Al8 O25 1.856668 1_554
Al8 O61 1.876557 1_555
Al8 O60 1.946895 1_555
Al8 O24 1.984504 1_554
Al8 O62 2.003323 1_555
Al9 O29 1.823559 1_555
Al9 O27 1.856668 1_555
Al9 O63 1.876557 1_555
Al9 O64 1.946894 1_555
Al9 O28 1.984504 1_555
Al9 O65 2.003325 1_555
Al10 O31 1.856714 1_555
Al10 O30 1.858516 1_555
Al10 O67 1.873920 1_555
Al10 O32 1.921432 1_555
Al10 O68 1.943126 1_555
Al10 O66 2.022007 1_555
Al11 O33 1.856713 1_555
Al11 O34 1.858519 1_555
Al11 O69 1.873920 1_555
Al11 O35 1.921432 1_555
Al11 O71 1.943125 1_555
Al11 O70 2.022009 1_555
O0 S0 1.472643 1_555
O1 P0 1.557570 1_555
O2 P1 1.528152 1_555
O3 P2 1.557568 1_555
O4 S1 1.472643 1_555
O5 P3 1.528151 1_555
O6 P3 1.544306 1_565
O7 P2 1.530152 1_555
O8 S1 1.484579 1_455
O9 P0 1.530150 1_555
O10 P1 1.544307 1_455
O11 S0 1.484580 1_565
O12 S2 1.472629 1_555
O13 P4 1.557586 1_555
O14 P5 1.528079 1_555
O15 P6 1.557585 1_555
O16 S3 1.472630 1_555
O17 P7 1.528079 1_555
O18 P7 1.544291 1_555
O19 P6 1.530127 1_555
O20 S3 1.484582 1_555
O21 P4 1.530125 1_555
O22 P5 1.544290 1_555
O23 S2 1.484580 1_555
O24 S4 1.472619 1_555
O25 P8 1.557577 1_555
O26 P9 1.528110 1_555
O27 P10 1.557576 1_555
O28 S5 1.472619 1_555
O29 P11 1.528108 1_555
O30 P11 1.544264 1_555
O31 P10 1.530151 1_555
O32 S5 1.484582 1_555
O33 P8 1.530153 1_555
O34 P9 1.544262 1_555
O35 S4 1.484583 1_555
O36 P11 1.561214 1_555
O37 P10 1.558410 1_555
O38 S5 1.468582 1_555
O39 P8 1.558412 1_555
O40 P9 1.561217 1_555
O41 S4 1.468582 1_555
O42 S2 1.495817 1_555
O43 P4 1.532414 1_555
O44 P5 1.562068 1_555
O45 P6 1.532414 1_555
O46 S3 1.495819 1_555
O47 P7 1.562068 1_555
O48 P3 1.561157 1_555
O49 P2 1.558398 1_555
O50 S1 1.468570 1_555
O51 P0 1.558396 1_555
O52 P1 1.561158 1_555
O53 S0 1.468569 1_555
O54 S4 1.495830 1_555
O55 P8 1.532439 1_655
O56 P9 1.562038 1_545
O57 P10 1.532441 1_545
O58 S5 1.495833 1_555
O59 P11 1.562038 1_655
O60 P7 1.561202 1_555
O61 P6 1.558428 1_455
O62 S3 1.468584 1_565
O63 P4 1.558428 1_565
O64 P5 1.561200 1_555
O65 S2 1.468581 1_455
O66 S0 1.495826 1_565
O67 P0 1.532434 1_555
O68 P1 1.562007 1_455
O69 P2 1.532432 1_555
O70 S1 1.495824 1_455
O71 P3 1.562010 1_565
