# generated using pymatgen
data_NpTeAs
_symmetry_space_group_name_H-M   'P 1'
_cell_length_a   4.16481852
_cell_length_b   4.16481852
_cell_length_c   8.87610956
_cell_angle_alpha   90.00000000
_cell_angle_beta   90.00000000
_cell_angle_gamma   90.00000000
_symmetry_Int_Tables_number   1
_chemical_formula_structural   NpTeAs
_chemical_formula_sum   'Np2 Te2 As2'
_cell_volume   153.96245169
_cell_formula_units_Z   2
loop_
 _symmetry_equiv_pos_site_id
 _symmetry_equiv_pos_as_xyz
  1  'x, y, z'
loop_
 _atom_site_type_symbol
 _atom_site_label
 _atom_site_symmetry_multiplicity
 _atom_site_fract_x
 _atom_site_fract_y
 _atom_site_fract_z
 _atom_site_occupancy
  Np  Np0  1  0.75000000  0.75000000  0.75071489  1
  Np  Np1  1  0.25000000  0.25000000  0.24928511  1
  Te  Te0  1  0.25000000  0.25000000  0.62943590  1
  Te  Te1  1  0.75000000  0.75000000  0.37056410  1
  As  As0  1  0.75000000  0.25000000  0.00000000  1
  As  As1  1  0.25000000  0.75000000  0.00000000  1
loop_
_geom_bond_atom_site_label_1
_geom_bond_atom_site_label_2
_geom_bond_distance
_geom_bond_site_symmetry_2
Np0 Te0 3.135551 1_555
Np0 Te0 3.135551 1_655
Np0 Te0 3.135551 1_565
Np0 Te0 3.135551 1_665
Np0 Te1 3.374260 1_555
Np1 Te1 3.135551 1_545
Np1 Te1 3.135551 1_555
Np1 Te1 3.135551 1_445
Np1 Te1 3.135551 1_455
Np1 Te0 3.374260 1_555
As0 As1 2.944971 1_655
As0 As1 2.944971 1_645
As0 As1 2.944971 1_545
As0 As1 2.944971 1_555
As0 Np1 3.038485 1_555
As0 Np1 3.038485 1_655
As0 Np0 3.038485 1_554
As0 Np0 3.038485 1_544
As1 Np0 3.038485 1_454
As1 Np1 3.038485 1_555
As1 Np1 3.038485 1_565
As1 Np0 3.038485 1_554
