# generated using pymatgen
data_LiPH2O3
_symmetry_space_group_name_H-M   'P 1'
_cell_length_a   5.13508800
_cell_length_b   5.26013700
_cell_length_c   11.17583600
_cell_angle_alpha   90.00000000
_cell_angle_beta   90.00000000
_cell_angle_gamma   90.00000000
_symmetry_Int_Tables_number   1
_chemical_formula_structural   LiPH2O3
_chemical_formula_sum   'Li4 P4 H8 O12'
_cell_volume   301.87348329
_cell_formula_units_Z   4
loop_
 _symmetry_equiv_pos_site_id
 _symmetry_equiv_pos_as_xyz
  1  'x, y, z'
loop_
 _atom_site_type_symbol
 _atom_site_label
 _atom_site_symmetry_multiplicity
 _atom_site_fract_x
 _atom_site_fract_y
 _atom_site_fract_z
 _atom_site_occupancy
  Li  Li0  1  0.98108500  0.26186500  0.42072300  1
  Li  Li1  1  0.48108500  0.76186500  0.07927700  1
  Li  Li2  1  0.51891500  0.26186500  0.92072300  1
  Li  Li3  1  0.01891500  0.76186500  0.57927700  1
  P  P0  1  0.68489200  0.74494400  0.34460500  1
  P  P1  1  0.31510800  0.24494400  0.65539500  1
  P  P2  1  0.81510800  0.74494400  0.84460500  1
  P  P3  1  0.18489200  0.24494400  0.15539500  1
  H  H0  1  0.99320400  0.61867200  0.16060000  1
  H  H1  1  0.00679600  0.11867200  0.83940000  1
  H  H2  1  0.50679600  0.61867200  0.66060000  1
  H  H3  1  0.49320400  0.11867200  0.33940000  1
  H  H4  1  0.56544000  0.15006300  0.63030500  1
  H  H5  1  0.06544000  0.65006300  0.86969500  1
  H  H6  1  0.93456000  0.15006300  0.13030500  1
  H  H7  1  0.43456000  0.65006300  0.36969500  1
  O  O0  1  0.88407600  0.62740500  0.42820700  1
  O  O1  1  0.61592400  0.62740500  0.92820700  1
  O  O2  1  0.11592400  0.12740500  0.57179300  1
  O  O3  1  0.38407600  0.12740500  0.07179300  1
  O  O4  1  0.16237600  0.54178900  0.12379900  1
  O  O5  1  0.73420700  0.70586300  0.21093000  1
  O  O6  1  0.33762400  0.54178900  0.62379900  1
  O  O7  1  0.83762400  0.04178900  0.87620100  1
  O  O8  1  0.76579300  0.70586300  0.71093000  1
  O  O9  1  0.23420700  0.20586300  0.28907000  1
  O  O10  1  0.66237600  0.04178900  0.37620100  1
  O  O11  1  0.26579300  0.20586300  0.78907000  1
loop_
_geom_bond_atom_site_label_1
_geom_bond_atom_site_label_2
_geom_bond_distance
_geom_bond_site_symmetry_2
Li0 O2 1.957075 1_655
Li0 O9 1.985217 1_655
Li0 O0 1.988032 1_555
Li0 O10 2.065463 1_555
Li1 O1 1.957075 1_554
Li1 O5 1.985217 1_555
Li1 O3 1.988032 1_565
Li1 O4 2.065463 1_555
Li2 O3 1.957075 1_556
Li2 O11 1.985217 1_555
Li2 O1 1.988032 1_555
Li2 O7 2.065463 1_555
Li3 O0 1.957075 1_455
Li3 O8 1.985217 1_455
Li3 O2 1.988032 1_565
Li3 O6 2.065463 1_555
H0 O4 1.042769 1_655
H0 O5 1.515110 1_555
H1 O7 1.042769 1_455
H1 O11 1.515110 1_555
H2 O6 1.042769 1_555
H2 O8 1.515110 1_555
H3 O10 1.042769 1_555
H3 O9 1.515110 1_555
H4 P1 1.407183 1_555
H5 P2 1.407183 1_455
H6 P3 1.407183 1_655
H7 P0 1.407183 1_555
O0 P0 1.517034 1_555
O1 P2 1.517034 1_555
O2 P1 1.517034 1_555
O3 P3 1.517034 1_555
O4 P3 1.605045 1_555
O5 P0 1.529122 1_555
O6 P1 1.605045 1_555
O7 P2 1.605045 1_545
O8 P2 1.529122 1_555
O9 P3 1.529122 1_555
O10 P0 1.605045 1_545
O11 P1 1.529122 1_555
