# generated using pymatgen
data_Na6Mg2Si5Ge6S7O48
_symmetry_space_group_name_H-M   'P 1'
_cell_length_a   17.13647400
_cell_length_b   8.65419340
_cell_length_c   22.12363888
_cell_angle_alpha   89.73058573
_cell_angle_beta   90.12294311
_cell_angle_gamma   120.36908160
_symmetry_Int_Tables_number   1
_chemical_formula_structural   Na6Mg2Si5Ge6S7O48
_chemical_formula_sum   'Na18 Mg6 Si15 Ge18 S21 O144'
_cell_volume   2830.76100967
_cell_formula_units_Z   3
loop_
 _symmetry_equiv_pos_site_id
 _symmetry_equiv_pos_as_xyz
  1  'x, y, z'
loop_
 _atom_site_type_symbol
 _atom_site_label
 _atom_site_symmetry_multiplicity
 _atom_site_fract_x
 _atom_site_fract_y
 _atom_site_fract_z
 _atom_site_occupancy
  Na  Na0  1  0.65496789  0.34690892  0.58317222  1
  Na  Na1  1  0.51830270  0.68946976  0.58465999  1
  Na  Na2  1  0.82692663  0.96218130  0.58350038  1
  Na  Na3  1  0.15379312  0.96163507  0.08513662  1
  Na  Na4  1  0.32620099  0.69137357  0.08598253  1
  Na  Na5  1  0.01788147  0.34817243  0.08725633  1
  Na  Na6  1  0.00441928  0.99613034  0.49700379  1
  Na  Na7  1  0.49545452  0.00291810  0.49893061  1
  Na  Na8  1  0.99616978  0.98865365  0.00053266  1
  Na  Na9  1  0.50364329  0.00747780  0.99949777  1
  Na  Na10  1  0.32915806  0.32376732  0.82625060  1
  Na  Na11  1  0.83111607  0.33276776  0.83407779  1
  Na  Na12  1  0.32951953  0.32881965  0.33457592  1
  Na  Na13  1  0.83323401  0.33855318  0.32799033  1
  Na  Na14  1  0.16409799  0.66493861  0.16400020  1
  Na  Na15  1  0.67099230  0.67316925  0.16983701  1
  Na  Na16  1  0.17030363  0.66774210  0.66649240  1
  Na  Na17  1  0.66538583  0.66403285  0.66053474  1
  Mg  Mg0  1  0.33139577  0.32393369  0.69103464  1
  Mg  Mg1  1  0.83238128  0.33334317  0.68495171  1
  Mg  Mg2  1  0.33132592  0.32975379  0.18686613  1
  Mg  Mg3  1  0.83317243  0.34075275  0.19291622  1
  Mg  Mg4  1  0.16615651  0.66909601  0.02104989  1
  Mg  Mg5  1  0.66688341  0.66508707  0.52052713  1
  Si  Si0  1  0.64087109  0.99927389  0.25180798  1
  Si  Si1  1  0.85944240  0.71721243  0.25300373  1
  Si  Si2  1  0.14102663  0.28154029  0.75142045  1
  Si  Si3  1  0.36032833  0.00316133  0.75278443  1
  Si  Si4  1  0.47186394  0.33231704  0.58455098  1
  Si  Si5  1  0.68973963  0.04729073  0.58521654  1
  Si  Si6  1  0.83869282  0.63029423  0.58748518  1
  Si  Si7  1  0.97198301  0.61493129  0.08493151  1
  Si  Si8  1  0.33970405  0.04855412  0.08684116  1
  Si  Si9  1  0.18650897  0.33188199  0.08736785  1
  Si  Si10  1  0.81308433  0.67086595  0.91436764  1
  Si  Si11  1  0.66646431  0.96029318  0.91691540  1
  Si  Si12  1  0.31278512  0.95334755  0.41383180  1
  Si  Si13  1  0.16698705  0.37391804  0.41680554  1
  Si  Si14  1  0.01780232  0.65911046  0.41788388  1
  Ge  Ge0  1  0.00302175  0.98972075  0.35705133  1
  Ge  Ge1  1  0.49973446  0.99963431  0.35321526  1
  Ge  Ge2  1  0.99951713  0.99769105  0.85241794  1
  Ge  Ge3  1  0.50298334  0.99571473  0.85004688  1
  Ge  Ge4  1  0.00728912  0.00394057  0.64618208  1
  Ge  Ge5  1  0.49132641  0.00656070  0.64161165  1
  Ge  Ge6  1  0.99550060  0.97907621  0.14685749  1
  Ge  Ge7  1  0.50282865  0.01188698  0.15173748  1
  Ge  Ge8  1  0.32689548  0.31042530  0.98975409  1
  Ge  Ge9  1  0.82920921  0.34942536  0.97710924  1
  Ge  Ge10  1  0.32838237  0.30662553  0.47601839  1
  Ge  Ge11  1  0.83477090  0.35864202  0.48492112  1
  Ge  Ge12  1  0.67370235  0.68498031  0.01320629  1
  Ge  Ge13  1  0.16789275  0.66452535  0.50718617  1
  Ge  Ge14  1  0.16253877  0.65699814  0.32415815  1
  Ge  Ge15  1  0.67557390  0.69042574  0.30935237  1
  Ge  Ge16  1  0.17249262  0.65833824  0.80752488  1
  Ge  Ge17  1  0.67266376  0.68134403  0.81833310  1
  S  S0  1  0.14570490  0.99557732  0.25204863  1
  S  S1  1  0.35306716  0.70965027  0.25092002  1
  S  S2  1  0.00363613  0.28936577  0.25146648  1
  S  S3  1  0.49989862  0.29101489  0.25244727  1
  S  S4  1  0.64557268  0.29623086  0.75197867  1
  S  S5  1  -0.00013658  0.70989519  0.75220915  1
  S  S6  1  0.50361204  0.71226525  0.75082186  1
  S  S7  1  0.85384420  0.99823260  0.75080257  1
  S  S8  1  0.98360477  0.34191427  0.58342274  1
  S  S9  1  0.18850362  0.03619497  0.58316886  1
  S  S10  1  0.32762077  0.61767732  0.58262258  1
  S  S11  1  0.48288791  0.62294941  0.08208135  1
  S  S12  1  0.82910420  0.04079808  0.08233864  1
  S  S13  1  0.68723443  0.33918880  0.08221184  1
  S  S14  1  0.31360361  0.66272040  0.91708989  1
  S  S15  1  0.02212459  0.37640391  0.91520151  1
  S  S16  1  0.52100694  0.37940228  0.91713927  1
  S  S17  1  0.16780948  0.95826592  0.91504931  1
  S  S18  1  0.81264917  0.96170887  0.41691594  1
  S  S19  1  0.66626439  0.37761980  0.41459785  1
  S  S20  1  0.52229857  0.66726500  0.41501171  1
  O  O0  1  0.10412586  0.02715858  0.30575984  1
  O  O1  1  0.59228437  0.03211269  0.31051693  1
  O  O2  1  0.41057346  0.79761980  0.30482560  1
  O  O3  1  0.92111541  0.81926890  0.31169255  1
  O  O4  1  0.48190702  0.17415541  0.30614772  1
  O  O5  1  0.99221061  0.17855552  0.30533622  1
  O  O6  1  0.09304620  0.15415889  0.81126240  1
  O  O7  1  0.60456765  0.18180435  0.80761084  1
  O  O8  1  0.49068969  0.79696618  0.80647758  1
  O  O9  1  0.98196845  0.78848994  0.80686986  1
  O  O10  1  0.42244185  0.02893016  0.81356008  1
  O  O11  1  0.90878134  0.02151805  0.80599696  1
  O  O12  1  0.40209050  0.95031886  0.69345306  1
  O  O13  1  0.89149442  0.96435271  0.69521214  1
  O  O14  1  0.07516293  0.19155172  0.69082248  1
  O  O15  1  0.59089530  0.21602021  0.69639447  1
  O  O16  1  0.01704392  0.82194895  0.69681073  1
  O  O17  1  0.52251182  0.82375209  0.69588179  1
  O  O18  1  0.39246335  0.82102232  0.19352829  1
  O  O19  1  0.89904623  0.84860549  0.19167138  1
  O  O20  1  0.02108008  0.21661226  0.19395299  1
  O  O21  1  0.51721062  0.21387989  0.19601588  1
  O  O22  1  0.09149580  0.96719412  0.19459944  1
  O  O23  1  0.57573446  0.95843150  0.18968194  1
  O  O24  1  0.43365299  0.38203983  0.64119799  1
  O  O25  1  0.94513418  0.36728230  0.63865814  1
  O  O26  1  0.24082186  0.11614832  0.63727764  1
  O  O27  1  0.75246938  0.12273376  0.64264571  1
  O  O28  1  0.31375923  0.51578768  0.63791126  1
  O  O29  1  0.81655625  0.50759844  0.64498433  1
  O  O30  1  0.44518898  0.51930184  0.13706390  1
  O  O31  1  0.93221129  0.48179378  0.13987713  1
  O  O32  1  0.31781075  0.13100697  0.14265242  1
  O  O33  1  0.81230065  0.11077490  0.13683798  1
  O  O34  1  0.25468409  0.38443180  0.14153314  1
  O  O35  1  0.74108916  0.37063304  0.13588841  1
  O  O36  1  0.22596595  0.27824223  0.02365495  1
  O  O37  1  0.72222206  0.29915554  0.02574507  1
  O  O38  1  0.42237309  0.54414445  0.02638639  1
  O  O39  1  0.91113541  0.52728365  0.02097837  1
  O  O40  1  0.36251827  0.17056705  0.02229682  1
  O  O41  1  0.84539183  0.15001409  0.02670435  1
  O  O42  1  0.22264437  0.14673760  0.52676037  1
  O  O43  1  0.73370282  0.18241374  0.52283435  1
  O  O44  1  0.34693647  0.54445012  0.52813125  1
  O  O45  1  0.86132610  0.55575103  0.52479749  1
  O  O46  1  0.41013473  0.29715776  0.52171461  1
  O  O47  1  0.92408644  0.29940906  0.52889342  1
  O  O48  1  0.27458210  0.69351248  0.97074576  1
  O  O49  1  0.77073345  0.70855308  0.97508985  1
  O  O50  1  0.07547735  0.45197248  0.96970377  1
  O  O51  1  0.57835134  0.45971774  0.97232422  1
  O  O52  1  0.15450033  0.85649858  0.97040235  1
  O  O53  1  0.64222630  0.82866164  0.97578953  1
  O  O54  1  0.27318323  0.83449908  0.47581386  1
  O  O55  1  0.77326806  0.84965905  0.47040337  1
  O  O56  1  0.14510456  0.45607394  0.47655099  1
  O  O57  1  0.65241776  0.45169847  0.46996206  1
  O  O58  1  0.08317512  0.70375166  0.47738838  1
  O  O59  1  0.57533685  0.69876651  0.46982879  1
  O  O60  1  0.06046275  0.62129785  0.35722979  1
  O  O61  1  0.56346283  0.63384509  0.36046970  1
  O  O62  1  0.24900233  0.86714224  0.35437789  1
  O  O63  1  0.75420264  0.87880217  0.36117613  1
  O  O64  1  0.19045129  0.50180386  0.35694232  1
  O  O65  1  0.67936094  0.48914933  0.35981791  1
  O  O66  1  0.06347900  0.49400848  0.86026758  1
  O  O67  1  0.56104098  0.49037558  0.86126819  1
  O  O68  1  0.18117467  0.87538963  0.86046884  1
  O  O69  1  0.68553894  0.87343929  0.85714842  1
  O  O70  1  0.25604396  0.62920679  0.86164112  1
  O  O71  1  0.74779459  0.62745882  0.85532799  1
  O  O72  1  0.01002862  0.83877272  0.41185563  1
  O  O73  1  0.51271650  0.83061944  0.40846751  1
  O  O74  1  0.41443879  0.97613067  0.40596607  1
  O  O75  1  0.90314363  0.98129156  0.40940409  1
  O  O76  1  0.07692698  0.17736553  0.40628936  1
  O  O77  1  0.58301231  0.19406302  0.40933242  1
  O  O78  1  0.01231322  0.19441500  0.90850134  1
  O  O79  1  0.51280082  0.20129813  0.91231045  1
  O  O80  1  0.08516220  0.97644582  0.90983045  1
  O  O81  1  0.57649109  0.98293558  0.90655099  1
  O  O82  1  0.40478122  0.82745399  0.90961236  1
  O  O83  1  0.91411980  0.85189316  0.90605985  1
  O  O84  1  0.48366357  0.15210434  0.58807421  1
  O  O85  1  0.99005420  0.17313737  0.58752537  1
  O  O86  1  0.09587042  0.01911820  0.58825935  1
  O  O87  1  0.58497350  0.02258176  0.59388891  1
  O  O88  1  0.41482096  0.80128213  0.58726871  1
  O  O89  1  0.92883028  0.84240054  0.59473793  1
  O  O90  1  0.49079804  0.80254015  0.08516186  1
  O  O91  1  0.98442218  0.81892660  0.08970222  1
  O  O92  1  0.42956379  0.01604087  0.09419571  1
  O  O93  1  0.91272945  0.02639145  0.08615324  1
  O  O94  1  0.08382506  0.14840226  0.09452416  1
  O  O95  1  0.59538344  0.17354902  0.08803301  1
  O  O96  1  0.34987916  0.17253644  0.74926022  1
  O  O97  1  0.84611876  0.15801304  0.74750757  1
  O  O98  1  0.23915024  0.31280463  0.74626402  1
  O  O99  1  0.73478984  0.31508897  0.74900467  1
  O  O100  1  0.42273218  0.53889576  0.74748547  1
  O  O101  1  0.92162817  0.53047955  0.74672048  1
  O  O102  1  0.34825639  0.53699038  0.24643068  1
  O  O103  1  0.84856625  0.52662124  0.24873255  1
  O  O104  1  0.42119999  0.31130030  0.24576846  1
  O  O105  1  0.92326103  0.30315531  0.24639883  1
  O  O106  1  0.23462284  0.15669245  0.24772881  1
  O  O107  1  0.73843529  0.16473156  0.24549978  1
  O  O108  1  0.32434516  0.50193972  0.92221766  1
  O  O109  1  0.82177785  0.49285863  0.92004549  1
  O  O110  1  0.43082083  0.36592566  0.92239744  1
  O  O111  1  0.93029372  0.35271153  0.91912437  1
  O  O112  1  0.25141879  0.14398280  0.91903830  1
  O  O113  1  0.75689678  0.15574010  0.92833255  1
  O  O114  1  0.32276679  0.15040030  0.41988040  1
  O  O115  1  0.81994068  0.13787314  0.42149405  1
  O  O116  1  0.25794376  0.35849952  0.42846746  1
  O  O117  1  0.74757296  0.35736548  0.41823095  1
  O  O118  1  0.43040516  0.50785750  0.41923377  1
  O  O119  1  0.91851331  0.47331107  0.42552331  1
  O  O120  1  0.17179604  0.49530364  0.07384950  1
  O  O121  1  0.67542459  0.49980049  0.07341899  1
  O  O122  1  0.07329536  0.65565647  0.07405473  1
  O  O123  1  0.57345789  0.63764737  0.07415920  1
  O  O124  1  0.25614135  0.85357739  0.07406772  1
  O  O125  1  0.74654604  0.85137860  0.07614310  1
  O  O126  1  0.17785533  0.85587784  0.57636412  1
  O  O127  1  0.67190868  0.85117129  0.57311179  1
  O  O128  1  0.24807352  0.64458538  0.57594310  1
  O  O129  1  0.75505412  0.65969269  0.57577333  1
  O  O130  1  0.07450714  0.50364545  0.57633055  1
  O  O131  1  0.57345548  0.49292296  0.57422750  1
  O  O132  1  0.15088608  0.82893498  0.25619580  1
  O  O133  1  0.64207522  0.80915106  0.25907781  1
  O  O134  1  0.26349228  0.69592008  0.25505569  1
  O  O135  1  0.75668728  0.69577895  0.25875408  1
  O  O136  1  0.08863750  0.47484504  0.25611242  1
  O  O137  1  0.58381679  0.46652277  0.25813161  1
  O  O138  1  0.14250692  0.47444793  0.75857969  1
  O  O139  1  0.64913234  0.47331022  0.75780322  1
  O  O140  1  0.08455176  0.70208798  0.75889920  1
  O  O141  1  0.58783697  0.69571625  0.75836673  1
  O  O142  1  0.25795264  0.81869131  0.75960267  1
  O  O143  1  0.76187001  0.82885886  0.75561575  1
loop_
_geom_bond_atom_site_label_1
_geom_bond_atom_site_label_2
_geom_bond_distance
_geom_bond_site_symmetry_2
Na0 O131 2.316956 1_555
Na0 O129 2.366091 1_555
Na0 O87 2.442095 1_555
Na0 O84 2.543022 1_555
Na0 O57 2.667525 1_555
Na0 O15 2.736907 1_555
Na0 O29 2.753110 1_555
Na0 O43 2.756207 1_555
Na1 O127 2.286334 1_555
Na1 O131 2.338786 1_555
Na1 O88 2.412533 1_555
Na1 O87 2.516318 1_565
Na1 O24 2.611796 1_555
Na1 O59 2.710165 1_555
Na1 O17 2.711415 1_555
Na1 O44 2.834655 1_555
Na2 O129 2.267648 1_555
Na2 O127 2.334850 1_555
Na2 O85 2.448574 1_565
Na2 O89 2.451914 1_555
Na2 O27 2.662262 1_565
Na2 O55 2.676196 1_555
Na2 O13 2.701936 1_555
Na2 O47 2.794845 1_565
Na3 O122 2.299147 1_555
Na3 O124 2.381809 1_555
Na3 O94 2.461102 1_565
Na3 O91 2.516970 1_455
Na3 O22 2.659102 1_555
Na3 O52 2.702625 1_554
Na3 O36 2.726340 1_565
Na3 O32 2.739356 1_565
Na4 O124 2.276091 1_555
Na4 O120 2.326771 1_555
Na4 O92 2.456872 1_565
Na4 O90 2.477496 1_555
Na4 O34 2.598560 1_555
Na4 O18 2.633369 1_555
Na4 O48 2.699808 1_554
Na4 O38 2.868152 1_555
Na5 O120 2.295640 1_555
Na5 O122 2.346686 1_555
Na5 O93 2.434963 1_455
Na5 O94 2.502759 1_555
Na5 O31 2.565999 1_455
Na5 O20 2.628424 1_555
Na5 O50 2.763557 1_554
Na5 O41 2.889943 1_455
Na6 O72 2.360014 1_555
Na6 O76 2.458095 1_565
Na6 O86 2.499294 1_565
Na6 O89 2.523010 1_455
Na6 O75 2.558705 1_455
Na6 O85 2.613447 1_465
Na7 O74 2.424470 1_545
Na7 O84 2.426244 1_555
Na7 O88 2.513028 1_545
Na7 O77 2.527691 1_555
Na7 O87 2.553677 1_555
Na7 O73 2.606337 1_545
Na8 O91 2.401099 1_555
Na8 O83 2.464589 1_554
Na8 O93 2.495789 1_565
Na8 O94 2.530910 1_665
Na8 O80 2.557649 1_654
Na8 O78 2.619773 1_664
Na9 O95 2.470289 1_556
Na9 O92 2.472713 1_556
Na9 O81 2.472888 1_545
Na9 O79 2.502705 1_555
Na9 O90 2.522146 1_546
Na9 O82 2.568608 1_545
Na10 O96 2.287732 1_555
Na10 O98 2.315473 1_555
Na10 O100 2.457004 1_555
Na10 O112 2.509059 1_555
Na10 O110 2.653583 1_555
Na10 O108 2.655604 1_555
Na11 O109 2.410945 1_555
Na11 O99 2.454508 1_555
Na11 O111 2.480160 1_555
Na11 O113 2.514788 1_555
Na11 O101 2.523272 1_555
Na11 O97 2.538505 1_555
Na12 O114 2.398358 1_555
Na12 O106 2.473717 1_555
Na12 O118 2.490449 1_555
Na12 O116 2.493948 1_555
Na12 O102 2.556619 1_555
Na12 O104 2.570681 1_555
Na13 O103 2.309858 1_555
Na13 O107 2.403053 1_555
Na13 O105 2.495459 1_555
Na13 O117 2.534643 1_555
Na13 O119 2.537441 1_555
Na13 O115 2.629751 1_555
Na14 O122 2.499863 1_555
Na14 O136 2.521939 1_555
Na14 O120 2.524865 1_555
Na14 O124 2.547725 1_555
Na14 O134 2.561196 1_555
Na14 O132 2.565160 1_555
Na15 O135 2.401092 1_555
Na15 O133 2.478735 1_555
Na15 O125 2.512767 1_555
Na15 O137 2.554211 1_555
Na15 O123 2.615352 1_555
Na15 O121 2.636869 1_555
Na16 O128 2.472786 1_555
Na16 O142 2.496783 1_555
Na16 O138 2.518375 1_555
Na16 O130 2.519095 1_555
Na16 O126 2.530038 1_555
Na16 O140 2.624397 1_555
Na17 O129 2.439349 1_555
Na17 O131 2.444461 1_555
Na17 O127 2.482861 1_555
Na17 O143 2.611873 1_555
Na17 O141 2.629103 1_555
Na17 O139 2.633825 1_555
Mg0 O24 1.910829 1_555
Mg0 O98 1.963238 1_555
Mg0 O96 1.969356 1_555
Mg0 O26 2.060861 1_555
Mg0 O100 2.130642 1_555
Mg0 O28 2.171838 1_555
Mg1 O29 1.878701 1_555
Mg1 O27 1.886839 1_555
Mg1 O25 2.073739 1_555
Mg1 O101 2.119381 1_555
Mg1 O99 2.137954 1_555
Mg1 O97 2.147819 1_555
Mg2 O34 1.890241 1_555
Mg2 O32 1.892324 1_555
Mg2 O106 2.069635 1_555
Mg2 O104 2.081772 1_555
Mg2 O30 2.113744 1_555
Mg2 O102 2.128780 1_555
Mg3 O31 1.909872 1_555
Mg3 O103 1.941676 1_555
Mg3 O107 1.949445 1_555
Mg3 O105 2.094200 1_555
Mg3 O35 2.132996 1_555
Mg3 O33 2.220331 1_555
Mg4 O122 1.934041 1_555
Mg4 O120 1.940598 1_555
Mg4 O124 1.955277 1_555
Mg4 O52 2.057970 1_554
Mg4 O50 2.072668 1_554
Mg4 O48 2.084510 1_554
Mg5 O131 1.942725 1_555
Mg5 O127 1.957348 1_555
Mg5 O129 1.960064 1_555
Mg5 O55 2.037709 1_555
Mg5 O59 2.062963 1_555
Mg5 O57 2.068474 1_555
Ge0 O3 1.751403 1_455
Ge0 O72 1.825949 1_555
Ge0 O76 1.832716 1_565
Ge0 O0 1.957503 1_565
Ge0 O75 2.039051 1_455
Ge0 O5 2.074039 1_465
Ge1 O1 1.743523 1_565
Ge1 O74 1.801192 1_555
Ge1 O2 1.961295 1_555
Ge1 O4 1.977160 1_565
Ge1 O77 1.998303 1_565
Ge1 O73 1.998550 1_555
Ge2 O6 1.741165 1_665
Ge2 O83 1.807852 1_555
Ge2 O11 1.957112 1_565
Ge2 O9 1.961889 1_555
Ge2 O80 2.015889 1_655
Ge2 O78 2.031569 1_665
Ge3 O10 1.741659 1_565
Ge3 O81 1.815070 1_555
Ge3 O8 1.892159 1_555
Ge3 O7 1.914016 1_565
Ge3 O82 2.050038 1_555
Ge3 O79 2.193309 1_565
Ge4 O14 1.750720 1_555
Ge4 O89 1.779126 1_445
Ge4 O86 1.941338 1_555
Ge4 O16 2.002987 1_545
Ge4 O85 2.081606 1_455
Ge4 O13 2.133036 1_445
Ge5 O12 1.772128 1_545
Ge5 O84 1.777411 1_555
Ge5 O87 1.868201 1_555
Ge5 O88 1.994637 1_545
Ge5 O15 2.133201 1_555
Ge5 O17 2.250409 1_545
Ge6 O19 1.760491 1_555
Ge6 O91 1.818037 1_555
Ge6 O94 1.878204 1_665
Ge6 O22 1.998709 1_655
Ge6 O93 2.134740 1_565
Ge6 O20 2.147239 1_665
Ge7 O23 1.748097 1_545
Ge7 O92 1.799038 1_555
Ge7 O21 1.911963 1_555
Ge7 O18 1.998623 1_545
Ge7 O95 2.051008 1_555
Ge7 O90 2.267246 1_545
Ge8 O40 1.758687 1_556
Ge8 O36 1.774272 1_556
Ge8 O38 2.021986 1_556
Ge8 O112 2.079437 1_555
Ge8 O110 2.182364 1_555
Ge8 O108 2.243001 1_555
Ge9 O39 1.762200 1_556
Ge9 O109 1.815282 1_555
Ge9 O113 1.849517 1_555
Ge9 O37 1.976338 1_556
Ge9 O111 2.146273 1_555
Ge9 O41 2.173427 1_556
Ge10 O46 1.760860 1_555
Ge10 O114 1.806489 1_555
Ge10 O116 1.817494 1_555
Ge10 O42 1.979161 1_555
Ge10 O118 2.139607 1_555
Ge10 O44 2.241760 1_555
Ge11 O45 1.767124 1_555
Ge11 O119 1.823974 1_555
Ge11 O43 1.830994 1_555
Ge11 O47 2.081826 1_555
Ge11 O117 2.093763 1_555
Ge11 O115 2.284007 1_555
Ge12 O49 1.782960 1_554
Ge12 O53 1.785754 1_554
Ge12 O125 1.940228 1_555
Ge12 O51 2.019340 1_554
Ge12 O123 2.056805 1_555
Ge12 O121 2.090759 1_555
Ge13 O58 1.774698 1_555
Ge13 O56 1.778832 1_555
Ge13 O54 1.792529 1_555
Ge13 O128 2.111851 1_555
Ge13 O130 2.139408 1_555
Ge13 O126 2.202423 1_555
Ge14 O60 1.774115 1_555
Ge14 O64 1.788199 1_555
Ge14 O62 1.797865 1_555
Ge14 O136 2.085816 1_555
Ge14 O132 2.189244 1_555
Ge14 O134 2.204729 1_555
Ge15 O135 1.768732 1_555
Ge15 O133 1.790320 1_555
Ge15 O63 1.891463 1_555
Ge15 O61 2.064602 1_555
Ge15 O65 2.092990 1_555
Ge15 O137 2.107953 1_555
Ge16 O142 1.769870 1_555
Ge16 O138 1.776564 1_555
Ge16 O70 1.975280 1_555
Ge16 O140 2.034166 1_555
Ge16 O66 2.044830 1_555
Ge16 O68 2.158675 1_555
Ge17 O71 1.773108 1_555
Ge17 O69 1.786482 1_555
Ge17 O143 1.977637 1_555
Ge17 O141 2.015334 1_555
Ge17 O67 2.022141 1_555
Ge17 O139 2.117428 1_555
O0 S0 1.482566 1_545
O1 Si0 1.645719 1_545
O2 S1 1.489255 1_555
O3 Si1 1.626024 1_555
O4 S3 1.484686 1_555
O5 S2 1.476056 1_655
O6 Si2 1.648791 1_555
O7 S4 1.509266 1_555
O8 S6 1.508727 1_555
O9 S5 1.496428 1_655
O10 Si3 1.657483 1_555
O11 S7 1.491153 1_545
O12 Si3 1.668796 1_565
O13 S7 1.487575 1_555
O14 Si2 1.671012 1_555
O15 S4 1.489105 1_555
O16 S5 1.493615 1_555
O17 S6 1.479143 1_555
O18 S1 1.526812 1_555
O19 Si1 1.674481 1_555
O20 S2 1.517985 1_555
O21 S3 1.517222 1_555
O22 S0 1.518499 1_555
O23 Si0 1.690871 1_555
O24 Si4 1.574178 1_555
O25 S8 1.458916 1_555
O26 S9 1.446203 1_555
O27 Si5 1.577462 1_555
O28 S10 1.452395 1_555
O29 Si6 1.572160 1_555
O30 S11 1.452163 1_555
O31 Si7 1.570383 1_555
O32 Si8 1.567002 1_555
O33 S12 1.445030 1_555
O34 Si9 1.571496 1_555
O35 S13 1.442348 1_555
O36 Si9 1.728338 1_555
O37 S13 1.502483 1_555
O38 S11 1.531689 1_555
O39 Si7 1.693668 1_555
O40 Si8 1.696372 1_555
O41 S12 1.486606 1_555
O42 S9 1.496952 1_555
O43 Si5 1.714132 1_555
O44 S10 1.478346 1_555
O45 Si6 1.659444 1_555
O46 Si4 1.678199 1_555
O47 S8 1.500160 1_555
O48 S14 1.453904 1_555
O49 Si10 1.638730 1_555
O50 S15 1.454520 1_555
O51 S16 1.500517 1_555
O52 S17 1.454407 1_555
O53 Si11 1.636059 1_555
O54 Si12 1.638221 1_555
O55 S18 1.458415 1_555
O56 Si13 1.635175 1_555
O57 S19 1.459460 1_555
O58 Si14 1.642599 1_555
O59 S20 1.455682 1_555
O60 Si14 1.640858 1_555
O61 S20 1.500176 1_555
O62 Si12 1.630922 1_555
O63 S18 1.521524 1_555
O64 Si13 1.636800 1_555
O65 S19 1.490601 1_555
O66 S15 1.509267 1_555
O67 S16 1.499046 1_555
O68 S17 1.483375 1_555
O69 Si11 1.637020 1_555
O70 S14 1.506915 1_555
O71 Si10 1.634736 1_555
O72 Si14 1.631086 1_555
O73 S20 1.509691 1_555
O74 Si12 1.660530 1_555
O75 S18 1.481988 1_555
O76 Si13 1.636191 1_555
O77 S19 1.510578 1_555
O78 S15 1.505025 1_555
O79 S16 1.479615 1_555
O80 S17 1.506114 1_555
O81 Si11 1.664855 1_555
O82 S14 1.499225 1_555
O83 Si10 1.655853 1_555
O84 Si4 1.672411 1_555
O85 S8 1.521783 1_555
O86 S9 1.522427 1_555
O87 Si5 1.708400 1_555
O88 S10 1.538939 1_555
O89 Si6 1.707599 1_555
O90 S11 1.492157 1_555
O91 Si7 1.671649 1_555
O92 Si8 1.706892 1_555
O93 S12 1.502104 1_555
O94 Si9 1.678203 1_555
O95 S13 1.505536 1_555
O96 Si3 1.565562 1_555
O97 S7 1.455680 1_545
O98 Si2 1.566572 1_555
O99 S4 1.454798 1_555
O100 S6 1.440654 1_555
O101 S5 1.455766 1_655
O102 S1 1.458148 1_555
O103 Si1 1.566774 1_555
O104 S3 1.452485 1_555
O105 S2 1.445442 1_655
O106 S0 1.458142 1_545
O107 Si0 1.563185 1_545
O108 S14 1.496737 1_555
O109 Si10 1.625207 1_555
O110 S16 1.494660 1_555
O111 S15 1.483285 1_655
O112 S17 1.521893 1_545
O113 Si11 1.636535 1_545
O114 Si12 1.631694 1_545
O115 S18 1.469331 1_545
O116 Si13 1.649877 1_555
O117 S19 1.491619 1_555
O118 S20 1.481370 1_555
O119 Si14 1.655711 1_655
O120 Si9 1.584127 1_555
O121 S13 1.514107 1_555
O122 Si7 1.605796 1_455
O123 S11 1.502364 1_555
O124 Si8 1.592854 1_565
O125 S12 1.537472 1_565
O126 S9 1.485021 1_565
O127 Si5 1.589118 1_565
O128 S10 1.501350 1_555
O129 Si6 1.597697 1_555
O130 S8 1.484796 1_455
O131 Si4 1.602147 1_555
O132 S0 1.491410 1_555
O133 Si0 1.662928 1_555
O134 S1 1.481480 1_555
O135 Si1 1.679792 1_555
O136 S2 1.531547 1_555
O137 S3 1.477594 1_555
O138 Si2 1.665075 1_555
O139 S4 1.508681 1_555
O140 S5 1.493572 1_555
O141 S6 1.529475 1_555
O142 Si3 1.678124 1_565
O143 S7 1.518977 1_555
