# generated using pymatgen
data_La4MgMnO8
_symmetry_space_group_name_H-M   'P 1'
_cell_length_a   5.65508290
_cell_length_b   6.88966314
_cell_length_c   5.65741800
_cell_angle_alpha   90.00143165
_cell_angle_beta   90.00017539
_cell_angle_gamma   114.22883408
_symmetry_Int_Tables_number   1
_chemical_formula_structural   La4MgMnO8
_chemical_formula_sum   'La4 Mg1 Mn1 O8'
_cell_volume   201.00597909
_cell_formula_units_Z   1
loop_
 _symmetry_equiv_pos_site_id
 _symmetry_equiv_pos_as_xyz
  1  'x, y, z'
loop_
 _atom_site_type_symbol
 _atom_site_label
 _atom_site_symmetry_multiplicity
 _atom_site_fract_x
 _atom_site_fract_y
 _atom_site_fract_z
 _atom_site_occupancy
  La  La0  1  0.13775500  0.27538100  0.49997300  1
  La  La1  1  0.63653000  0.27305200  0.00008400  1
  La  La2  1  0.36350100  0.72695700  0.99993900  1
  La  La3  1  0.86241500  0.72461000  0.49998200  1
  Mg  Mg0  1  0.50002300  0.00000900  0.50000600  1
  Mn  Mn0  1  0.00001200  0.99998200  0.99999200  1
  O  O0  1  0.25538600  0.99996500  0.25572000  1
  O  O1  1  0.25543500  0.00005600  0.74427700  1
  O  O2  1  0.74461500  0.99995200  0.25574900  1
  O  O3  1  0.74464900  0.00003200  0.74425200  1
  O  O4  1  0.18347300  0.36678200  0.00010800  1
  O  O5  1  0.68069100  0.36157400  0.49982500  1
  O  O6  1  0.31896300  0.63842100  0.50012300  1
  O  O7  1  0.81655000  0.63322600  0.99997000  1
loop_
_geom_bond_atom_site_label_1
_geom_bond_atom_site_label_2
_geom_bond_distance
_geom_bond_site_symmetry_2
La0 O6 2.280901 1_555
La0 O1 2.643408 1_555
La0 O0 2.643573 1_545
La0 O3 2.643757 1_455
La0 O2 2.643848 1_445
La0 O5 2.878053 1_555
La0 O5 2.879811 1_455
La0 O4 2.885677 1_555
La0 O4 2.887142 1_556
La1 O7 2.262894 1_554
La1 O0 2.636095 1_545
La1 O1 2.636185 1_554
La1 O2 2.636294 1_545
La1 O3 2.636418 1_554
La1 O5 2.881412 1_555
La1 O5 2.884319 1_554
La1 O4 2.887768 1_555
La1 O4 2.888659 1_655
La2 O4 2.262900 1_556
La2 O0 2.636181 1_556
La2 O1 2.636223 1_565
La2 O3 2.636234 1_565
La2 O2 2.636248 1_556
La2 O6 2.881846 1_555
La2 O6 2.883920 1_556
La2 O7 2.887728 1_555
La2 O7 2.888701 1_455
La3 O5 2.280875 1_555
La3 O0 2.643305 1_655
La3 O2 2.643665 1_555
La3 O1 2.643731 1_665
La3 O3 2.644074 1_565
La3 O6 2.876929 1_655
La3 O6 2.880925 1_555
La3 O7 2.886338 1_555
La3 O7 2.886439 1_554
Mg0 O3 1.955230 1_555
Mg0 O2 1.955304 1_545
Mg0 O1 1.955324 1_555
Mg0 O0 1.955392 1_545
Mg0 O5 2.271633 1_555
Mg0 O6 2.271778 1_545
Mn0 O1 2.044190 1_565
Mn0 O0 2.044222 1_556
Mn0 O3 2.044292 1_465
Mn0 O2 2.044342 1_456
Mn0 O7 2.304247 1_455
Mn0 O4 2.304523 1_566
