# generated using pymatgen
data_Ga2P3(HO3)3
_symmetry_space_group_name_H-M   'P 1'
_cell_length_a   8.06471469
_cell_length_b   8.06471469
_cell_length_c   7.36137700
_cell_angle_alpha   90.00000000
_cell_angle_beta   90.00000000
_cell_angle_gamma   120.00000570
_symmetry_Int_Tables_number   1
_chemical_formula_structural   Ga2P3(HO3)3
_chemical_formula_sum   'Ga4 P6 H6 O18'
_cell_volume   414.63664577
_cell_formula_units_Z   2
loop_
 _symmetry_equiv_pos_site_id
 _symmetry_equiv_pos_as_xyz
  1  'x, y, z'
loop_
 _atom_site_type_symbol
 _atom_site_label
 _atom_site_symmetry_multiplicity
 _atom_site_fract_x
 _atom_site_fract_y
 _atom_site_fract_z
 _atom_site_occupancy
  Ga  Ga0  1  0.33333300  0.66666700  0.54938600  1
  Ga  Ga1  1  0.66666700  0.33333300  0.04938600  1
  Ga  Ga2  1  0.66666700  0.33333300  0.45061400  1
  Ga  Ga3  1  0.33333300  0.66666700  0.95061400  1
  P  P0  1  0.95199400  0.31056900  0.75000000  1
  P  P1  1  0.64142400  0.95199400  0.25000000  1
  P  P2  1  0.31056900  0.35857600  0.25000000  1
  P  P3  1  0.68943100  0.64142400  0.75000000  1
  P  P4  1  0.35857600  0.04800600  0.75000000  1
  P  P5  1  0.04800600  0.68943100  0.25000000  1
  H  H0  1  0.81823900  0.83925000  0.75000000  1
  H  H1  1  0.97898900  0.81823900  0.25000000  1
  H  H2  1  0.83925000  0.02101100  0.25000000  1
  H  H3  1  0.16075000  0.97898900  0.75000000  1
  H  H4  1  0.02101100  0.18176100  0.75000000  1
  H  H5  1  0.18176100  0.16075000  0.25000000  1
  O  O0  1  0.13072600  0.51731500  0.75000000  1
  O  O1  1  0.61341100  0.13072600  0.25000000  1
  O  O2  1  0.51731500  0.38658900  0.25000000  1
  O  O3  1  0.48268500  0.61341100  0.75000000  1
  O  O4  1  0.16287500  0.72904700  0.07467900  1
  O  O5  1  0.43382800  0.16287500  0.57467900  1
  O  O6  1  0.72904700  0.56617200  0.57467900  1
  O  O7  1  0.27095300  0.43382800  0.07467900  1
  O  O8  1  0.56617200  0.83712500  0.07467900  1
  O  O9  1  0.83712500  0.27095300  0.57467900  1
  O  O10  1  0.83712500  0.27095300  0.92532100  1
  O  O11  1  0.56617200  0.83712500  0.42532100  1
  O  O12  1  0.27095300  0.43382800  0.42532100  1
  O  O13  1  0.72904700  0.56617200  0.92532100  1
  O  O14  1  0.43382800  0.16287500  0.92532100  1
  O  O15  1  0.16287500  0.72904700  0.42532100  1
  O  O16  1  0.86927400  0.48268500  0.25000000  1
  O  O17  1  0.38658900  0.86927400  0.75000000  1
loop_
_geom_bond_atom_site_label_1
_geom_bond_atom_site_label_2
_geom_bond_distance
_geom_bond_site_symmetry_2
Ga0 O15 1.915345 1_555
Ga0 O11 1.915350 1_555
Ga0 O12 1.915352 1_555
Ga0 O17 2.081696 1_555
Ga0 O0 2.081698 1_555
Ga0 O3 2.081702 1_555
Ga1 O10 1.915345 1_554
Ga1 O14 1.915350 1_554
Ga1 O13 1.915352 1_554
Ga1 O1 2.081696 1_555
Ga1 O16 2.081698 1_555
Ga1 O2 2.081702 1_555
Ga2 O9 1.915345 1_555
Ga2 O5 1.915350 1_555
Ga2 O6 1.915352 1_555
Ga2 O1 2.081696 1_555
Ga2 O16 2.081698 1_555
Ga2 O2 2.081702 1_555
Ga3 O4 1.915345 1_556
Ga3 O8 1.915350 1_556
Ga3 O7 1.915352 1_556
Ga3 O17 2.081696 1_555
Ga3 O0 2.081698 1_555
Ga3 O3 2.081702 1_555
H0 P3 1.402543 1_555
H1 P5 1.402537 1_655
H2 P1 1.402544 1_545
H3 P4 1.402544 1_565
H4 P0 1.402537 1_455
H5 P2 1.402543 1_555
O0 P0 1.566651 1_455
O1 P1 1.566646 1_545
O2 P2 1.566654 1_555
O3 P3 1.566654 1_555
O4 P5 1.526418 1_555
O5 P4 1.526417 1_555
O6 P3 1.526414 1_555
O7 P2 1.526414 1_555
O8 P1 1.526417 1_555
O9 P0 1.526418 1_555
O10 P0 1.526418 1_555
O11 P1 1.526417 1_555
O12 P2 1.526414 1_555
O13 P3 1.526414 1_555
O14 P4 1.526417 1_555
O15 P5 1.526418 1_555
O16 P5 1.566651 1_655
O17 P4 1.566646 1_565
