# generated using pymatgen
data_K2Na2MgTi2O6
_symmetry_space_group_name_H-M   'P 1'
_cell_length_a   5.51440375
_cell_length_b   5.70329289
_cell_length_c   7.27988322
_cell_angle_alpha   66.93867538
_cell_angle_beta   89.94442334
_cell_angle_gamma   89.85810974
_symmetry_Int_Tables_number   1
_chemical_formula_structural   K2Na2MgTi2O6
_chemical_formula_sum   'K2 Na2 Mg1 Ti2 O6'
_cell_volume   210.65695204
_cell_formula_units_Z   1
loop_
 _symmetry_equiv_pos_site_id
 _symmetry_equiv_pos_as_xyz
  1  'x, y, z'
loop_
 _atom_site_type_symbol
 _atom_site_label
 _atom_site_symmetry_multiplicity
 _atom_site_fract_x
 _atom_site_fract_y
 _atom_site_fract_z
 _atom_site_occupancy
  K  K0  1  0.25000000  0.20095521  0.59808958  1
  K  K1  1  0.75000000  0.76014236  0.47971528  1
  Na  Na0  1  0.25000000  0.63697922  0.72604156  1
  Na  Na1  1  0.75000000  0.42731046  0.14537908  1
  Mg  Mg0  1  0.25000000  0.45011971  0.09976058  1
  Ti  Ti0  1  0.75000000  0.04101369  0.91797262  1
  Ti  Ti1  1  0.25000000  0.94118314  0.11763272  1
  O  O0  1  0.48662124  0.76836899  0.99669951  1
  O  O1  1  0.00816852  0.76625023  0.00390901  1
  O  O2  1  0.01337976  0.23493150  0.99669951  1
  O  O3  1  0.49183148  0.22984076  0.00390901  1
  O  O4  1  0.25000000  0.80418110  0.39163779  1
  O  O5  1  0.75000000  0.17275163  0.65449675  1
loop_
_geom_bond_atom_site_label_1
_geom_bond_atom_site_label_2
_geom_bond_distance
_geom_bond_site_symmetry_2
K0 O5 2.782968 1_555
K0 O5 2.782968 1_455
K0 O4 3.169247 1_555
K0 O4 3.169248 1_545
K1 O4 2.819611 1_555
K1 O4 2.819611 1_655
K1 O5 3.082603 1_555
K1 O5 3.082603 1_565
Na0 O4 2.239876 1_555
Na0 O2 2.704249 1_555
Na0 O0 2.704252 1_555
Na1 O1 2.296801 1_655
Na1 O3 2.296801 1_555
Na1 O0 2.324692 1_554
Na1 O2 2.324696 1_654
Mg0 O2 2.122002 1_554
Mg0 O0 2.122006 1_554
Mg0 O1 2.126099 1_555
Mg0 O3 2.126099 1_555
O0 Ti1 2.029842 1_556
O0 Ti0 2.041370 1_565
O1 Ti0 2.023968 1_464
O1 Ti1 2.028549 1_555
O2 Ti1 2.029842 1_546
O2 Ti0 2.041374 1_455
O3 Ti0 2.023969 1_554
O3 Ti1 2.028553 1_545
O4 Ti1 1.835319 1_555
O5 Ti0 1.764793 1_555
