# generated using pymatgen
data_MgTi3O6
_symmetry_space_group_name_H-M   'P 1'
_cell_length_a   5.13118942
_cell_length_b   7.32673673
_cell_length_c   2.93737545
_cell_angle_alpha   78.42218677
_cell_angle_beta   90.06910925
_cell_angle_gamma   89.62369234
_symmetry_Int_Tables_number   1
_chemical_formula_structural   MgTi3O6
_chemical_formula_sum   'Mg1 Ti3 O6'
_cell_volume   108.18064743
_cell_formula_units_Z   1
loop_
 _symmetry_equiv_pos_site_id
 _symmetry_equiv_pos_as_xyz
  1  'x, y, z'
loop_
 _atom_site_type_symbol
 _atom_site_label
 _atom_site_symmetry_multiplicity
 _atom_site_fract_x
 _atom_site_fract_y
 _atom_site_fract_z
 _atom_site_occupancy
  Mg  Mg0  1  0.00326400  0.60708000  0.69612500  1
  Ti  Ti0  1  0.50577200  0.30484700  0.34918500  1
  Ti  Ti1  1  0.49754200  0.70877100  0.64723500  1
  Ti  Ti2  1  0.00857500  0.02068800  0.99031100  1
  O  O0  1  0.77757600  0.11777300  0.44174700  1
  O  O1  1  0.68483300  0.45178600  0.77636500  1
  O  O2  1  0.76240400  0.76657400  0.11865400  1
  O  O3  1  0.27571500  0.21007700  0.89681600  1
  O  O4  1  0.27821600  0.55997000  0.22089600  1
  O  O5  1  0.19560200  0.87341200  0.56419100  1
loop_
_geom_bond_atom_site_label_1
_geom_bond_atom_site_label_2
_geom_bond_distance
_geom_bond_site_symmetry_2
Mg0 O1 1.984331 1_455
Mg0 O4 2.061540 1_555
Mg0 O4 2.064084 1_556
Mg0 O5 2.157457 1_555
Mg0 O2 2.224992 1_455
Mg0 O2 2.236133 1_456
O0 Ti0 1.929274 1_555
O0 Ti2 2.007876 1_655
O0 Ti2 2.010126 1_654
O1 Ti0 2.030747 1_556
O1 Ti0 2.032280 1_555
O1 Ti1 2.073956 1_555
O2 Ti1 2.045068 1_554
O2 Ti1 2.045922 1_555
O2 Ti2 2.225842 1_664
O3 Ti2 1.937199 1_555
O3 Ti0 2.004647 1_556
O3 Ti0 2.007543 1_555
O4 Ti1 2.139587 1_554
O4 Ti1 2.141068 1_555
O4 Ti0 2.164921 1_555
O5 Ti1 1.942012 1_555
O5 Ti2 2.044329 1_564
O5 Ti2 2.045347 1_565
