# generated using pymatgen
data_K2CoCl4
_symmetry_space_group_name_H-M   'P 1'
_cell_length_a   7.36319900
_cell_length_b   12.54030200
_cell_length_c   27.23224200
_cell_angle_alpha   90.00000000
_cell_angle_beta   90.00000000
_cell_angle_gamma   90.00000000
_symmetry_Int_Tables_number   1
_chemical_formula_structural   K2CoCl4
_chemical_formula_sum   'K24 Co12 Cl48'
_cell_volume   2514.53642592
_cell_formula_units_Z   12
loop_
 _symmetry_equiv_pos_site_id
 _symmetry_equiv_pos_as_xyz
  1  'x, y, z'
loop_
 _atom_site_type_symbol
 _atom_site_label
 _atom_site_symmetry_multiplicity
 _atom_site_fract_x
 _atom_site_fract_y
 _atom_site_fract_z
 _atom_site_occupancy
  K  K0  1  0.21296200  0.92138400  0.04463300  1
  K  K1  1  0.71296200  0.07861600  0.95536700  1
  K  K2  1  0.21296200  0.57861600  0.54463300  1
  K  K3  1  0.71296200  0.42138400  0.45536700  1
  K  K4  1  0.23080000  0.91576700  0.38162500  1
  K  K5  1  0.73080000  0.08423300  0.61837500  1
  K  K6  1  0.23080000  0.58423300  0.88162500  1
  K  K7  1  0.73080000  0.41576700  0.11837500  1
  K  K8  1  0.27759700  0.92012500  0.71128500  1
  K  K9  1  0.77759700  0.07987500  0.28871500  1
  K  K10  1  0.27759700  0.57987500  0.21128500  1
  K  K11  1  0.77759700  0.42012500  0.78871500  1
  K  K12  1  0.20261900  0.31425100  0.99969500  1
  K  K13  1  0.70261900  0.68574900  0.00030500  1
  K  K14  1  0.20261900  0.18574900  0.49969500  1
  K  K15  1  0.70261900  0.81425100  0.50030500  1
  K  K16  1  0.27972800  0.31365500  0.33276800  1
  K  K17  1  0.77972800  0.68634500  0.66723200  1
  K  K18  1  0.27972800  0.18634500  0.83276800  1
  K  K19  1  0.77972800  0.81365500  0.16723200  1
  K  K20  1  0.26746100  0.31702600  0.66751500  1
  K  K21  1  0.76746100  0.68297400  0.33248500  1
  K  K22  1  0.26746100  0.18297400  0.16751500  1
  K  K23  1  0.76746100  0.81702600  0.83248500  1
  Co  Co0  1  0.24862600  0.58221100  0.07298700  1
  Co  Co1  1  0.74862600  0.41778900  0.92701300  1
  Co  Co2  1  0.24862600  0.91778900  0.57298700  1
  Co  Co3  1  0.74862600  0.08221100  0.42701300  1
  Co  Co4  1  0.21947700  0.58337900  0.40545200  1
  Co  Co5  1  0.71947700  0.41662100  0.59454800  1
  Co  Co6  1  0.21947700  0.91662100  0.90545200  1
  Co  Co7  1  0.71947700  0.08337900  0.09454800  1
  Co  Co8  1  0.26299500  0.58473900  0.74167800  1
  Co  Co9  1  0.76299500  0.41526100  0.25832200  1
  Co  Co10  1  0.26299500  0.91526100  0.24167800  1
  Co  Co11  1  0.76299500  0.08473900  0.75832200  1
  Cl  Cl0  1  0.32445300  0.55666600  0.99397500  1
  Cl  Cl1  1  0.82445300  0.44333400  0.00602500  1
  Cl  Cl2  1  0.32445300  0.94333400  0.49397500  1
  Cl  Cl3  1  0.82445300  0.05666600  0.50602500  1
  Cl  Cl4  1  0.18305700  0.56115300  0.32460100  1
  Cl  Cl5  1  0.68305700  0.43884700  0.67539900  1
  Cl  Cl6  1  0.18305700  0.93884700  0.82460100  1
  Cl  Cl7  1  0.68305700  0.06115300  0.17539900  1
  Cl  Cl8  1  0.18930800  0.56605100  0.66211600  1
  Cl  Cl9  1  0.68930800  0.43394900  0.33788400  1
  Cl  Cl10  1  0.18930800  0.93394900  0.16211600  1
  Cl  Cl11  1  0.68930800  0.06605100  0.83788400  1
  Cl  Cl12  1  0.17118300  0.42957100  0.11249400  1
  Cl  Cl13  1  0.67118300  0.57042900  0.88750600  1
  Cl  Cl14  1  0.17118300  0.07042900  0.61249400  1
  Cl  Cl15  1  0.67118300  0.92957100  0.38750600  1
  Cl  Cl16  1  0.17010400  0.42705500  0.44560200  1
  Cl  Cl17  1  0.67010400  0.57294500  0.55439800  1
  Cl  Cl18  1  0.17010400  0.07294500  0.94560200  1
  Cl  Cl19  1  0.67010400  0.92705500  0.05439800  1
  Cl  Cl20  1  0.33989200  0.43024200  0.78002300  1
  Cl  Cl21  1  0.83989200  0.56975800  0.21997700  1
  Cl  Cl22  1  0.33989200  0.06975800  0.28002300  1
  Cl  Cl23  1  0.83989200  0.93024200  0.71997700  1
  Cl  Cl24  1  0.02578400  0.70388100  0.08108800  1
  Cl  Cl25  1  0.52578400  0.29611900  0.91891200  1
  Cl  Cl26  1  0.02578400  0.79611900  0.58108800  1
  Cl  Cl27  1  0.52578400  0.20388100  0.41891200  1
  Cl  Cl28  1  0.01248600  0.70331400  0.43209400  1
  Cl  Cl29  1  0.51248600  0.29668600  0.56790600  1
  Cl  Cl30  1  0.01248600  0.79668600  0.93209400  1
  Cl  Cl31  1  0.51248600  0.20331400  0.06790600  1
  Cl  Cl32  1  0.00196700  0.63691900  0.77950800  1
  Cl  Cl33  1  0.50196700  0.36308100  0.22049200  1
  Cl  Cl34  1  0.00196700  0.86308100  0.27950800  1
  Cl  Cl35  1  0.50196700  0.13691900  0.72049200  1
  Cl  Cl36  1  0.50650700  0.63934300  0.11105300  1
  Cl  Cl37  1  0.00650700  0.36065700  0.88894700  1
  Cl  Cl38  1  0.50650700  0.86065700  0.61105300  1
  Cl  Cl39  1  0.00650700  0.13934300  0.38894700  1
  Cl  Cl40  1  0.49568600  0.64357200  0.42768500  1
  Cl  Cl41  1  0.99568600  0.35642800  0.57231500  1
  Cl  Cl42  1  0.49568600  0.85642800  0.92768500  1
  Cl  Cl43  1  0.99568600  0.14357200  0.07231500  1
  Cl  Cl44  1  0.47980600  0.70924000  0.75305900  1
  Cl  Cl45  1  0.97980600  0.29076000  0.24694100  1
  Cl  Cl46  1  0.47980600  0.79076000  0.25305900  1
  Cl  Cl47  1  0.97980600  0.20924000  0.74694100  1
loop_
_geom_bond_atom_site_label_1
_geom_bond_atom_site_label_2
_geom_bond_distance
_geom_bond_site_symmetry_2
Cl0 Co0 2.245897 1_556
Cl0 K6 3.155287 1_555
Cl0 K12 3.173385 1_555
Cl0 K13 3.225452 1_556
Cl1 Co1 2.245897 1_554
Cl1 K7 3.155287 1_555
Cl1 K13 3.173385 1_555
Cl1 K12 3.225452 1_654
Cl2 Co2 2.245897 1_555
Cl2 K4 3.155287 1_555
Cl2 K14 3.173385 1_565
Cl2 K15 3.225452 1_555
Cl3 Co3 2.245897 1_555
Cl3 K5 3.155287 1_555
Cl3 K15 3.173385 1_545
Cl3 K14 3.225452 1_655
Cl4 Co4 2.235469 1_555
Cl4 K10 3.172091 1_555
Cl4 K16 3.192035 1_555
Cl4 K21 3.426979 1_455
Cl5 Co5 2.235469 1_555
Cl5 K11 3.172091 1_555
Cl5 K17 3.192035 1_555
Cl5 K20 3.426979 1_555
Cl6 Co6 2.235469 1_555
Cl6 K8 3.172091 1_555
Cl6 K18 3.192035 1_565
Cl6 K23 3.426979 1_455
Cl7 Co7 2.235469 1_555
Cl7 K9 3.172091 1_555
Cl7 K19 3.192035 1_545
Cl7 K22 3.426979 1_555
Cl8 Co8 2.245815 1_555
Cl8 K20 3.178829 1_555
Cl8 K2 3.207935 1_555
Cl8 K17 3.374939 1_455
Cl9 Co9 2.245815 1_555
Cl9 K21 3.178829 1_555
Cl9 K3 3.207935 1_555
Cl9 K16 3.374939 1_555
Cl10 Co10 2.245815 1_555
Cl10 K22 3.178829 1_565
Cl10 K0 3.207935 1_555
Cl10 K19 3.374939 1_455
Cl11 Co11 2.245815 1_555
Cl11 K23 3.178829 1_545
Cl11 K1 3.207935 1_555
Cl11 K18 3.374939 1_555
Cl12 Co0 2.268616 1_555
Cl12 K7 3.251192 1_455
Cl12 K10 3.377033 1_555
Cl12 K12 3.403041 1_554
Cl12 K22 3.508638 1_555
Cl13 Co1 2.268616 1_555
Cl13 K6 3.251192 1_555
Cl13 K11 3.377033 1_555
Cl13 K13 3.403041 1_556
Cl13 K23 3.508638 1_555
Cl14 Co2 2.268616 1_545
Cl14 K5 3.251192 1_455
Cl14 K8 3.377033 1_545
Cl14 K14 3.403041 1_555
Cl14 K20 3.508638 1_555
Cl15 Co3 2.268616 1_565
Cl15 K4 3.251192 1_555
Cl15 K9 3.377033 1_565
Cl15 K15 3.403041 1_555
Cl15 K21 3.508638 1_555
Cl16 Co4 2.273896 1_555
Cl16 K2 3.314343 1_555
Cl16 K14 3.374055 1_555
Cl16 K3 3.377264 1_455
Cl16 K16 3.480726 1_555
Cl17 Co5 2.273896 1_555
Cl17 K3 3.314343 1_555
Cl17 K15 3.374055 1_555
Cl17 K2 3.377264 1_555
Cl17 K17 3.480726 1_555
Cl18 Co6 2.273896 1_545
Cl18 K0 3.314343 1_546
Cl18 K12 3.374055 1_555
Cl18 K1 3.377264 1_455
Cl18 K18 3.480726 1_555
Cl19 Co7 2.273896 1_565
Cl19 K1 3.314343 1_564
Cl19 K13 3.374055 1_555
Cl19 K0 3.377264 1_555
Cl19 K19 3.480726 1_555
Cl20 Co8 2.272588 1_555
Cl20 K11 3.234079 1_555
Cl20 K18 3.407942 1_555
Cl20 K20 3.418670 1_555
Cl20 K6 3.468403 1_555
Cl21 Co9 2.272588 1_555
Cl21 K10 3.234079 1_655
Cl21 K19 3.407942 1_555
Cl21 K21 3.418670 1_555
Cl21 K7 3.468403 1_555
Cl22 Co10 2.272588 1_545
Cl22 K9 3.234079 1_555
Cl22 K16 3.407942 1_555
Cl22 K22 3.418670 1_555
Cl22 K4 3.468403 1_545
Cl23 Co11 2.272588 1_565
Cl23 K8 3.234079 1_655
Cl23 K17 3.407942 1_555
Cl23 K23 3.418670 1_555
Cl23 K5 3.468403 1_565
Cl24 Co0 2.251442 1_555
Cl24 K0 3.213194 1_555
Cl24 K13 3.248604 1_455
Cl24 K19 3.268137 1_455
Cl25 Co1 2.251442 1_555
Cl25 K1 3.213194 1_555
Cl25 K12 3.248604 1_555
Cl25 K18 3.268137 1_555
Cl26 Co2 2.251442 1_555
Cl26 K2 3.213194 1_555
Cl26 K15 3.248604 1_455
Cl26 K17 3.268137 1_455
Cl27 Co3 2.251442 1_555
Cl27 K3 3.213194 1_555
Cl27 K14 3.248604 1_555
Cl27 K16 3.268137 1_555
Cl28 Co4 2.260838 1_555
Cl28 K15 3.254473 1_455
Cl28 K21 3.267744 1_455
Cl28 K4 3.401624 1_555
Cl29 Co5 2.260838 1_555
Cl29 K14 3.254473 1_555
Cl29 K20 3.267744 1_555
Cl29 K5 3.401624 1_555
Cl30 Co6 2.260838 1_555
Cl30 K13 3.254473 1_456
Cl30 K23 3.267744 1_455
Cl30 K6 3.401624 1_555
Cl31 Co7 2.260838 1_555
Cl31 K12 3.254473 1_554
Cl31 K22 3.267744 1_555
Cl31 K7 3.401624 1_555
Cl32 Co8 2.276745 1_555
Cl32 K23 3.188124 1_455
Cl32 K11 3.191138 1_455
Cl32 K6 3.317954 1_555
Cl32 K17 3.522842 1_455
Cl33 Co9 2.276745 1_555
Cl33 K22 3.188124 1_555
Cl33 K10 3.191138 1_555
Cl33 K7 3.317954 1_555
Cl33 K16 3.522842 1_555
Cl34 Co10 2.276745 1_555
Cl34 K21 3.188124 1_455
Cl34 K9 3.191138 1_465
Cl34 K4 3.317954 1_555
Cl34 K19 3.522842 1_455
Cl35 Co11 2.276745 1_555
Cl35 K20 3.188124 1_555
Cl35 K8 3.191138 1_545
Cl35 K5 3.317954 1_555
Cl35 K18 3.522842 1_555
Cl36 Co0 2.278913 1_555
Cl36 K7 3.260069 1_555
Cl36 K10 3.293552 1_555
Cl36 K19 3.341566 1_555
Cl36 K13 3.394051 1_555
Cl37 Co1 2.278913 1_455
Cl37 K6 3.260069 1_555
Cl37 K11 3.293552 1_455
Cl37 K18 3.341566 1_555
Cl37 K12 3.394051 1_555
Cl38 Co2 2.278913 1_555
Cl38 K5 3.260069 1_565
Cl38 K8 3.293552 1_555
Cl38 K17 3.341566 1_555
Cl38 K15 3.394051 1_555
Cl39 Co3 2.278913 1_455
Cl39 K4 3.260069 1_545
Cl39 K9 3.293552 1_455
Cl39 K16 3.341566 1_555
Cl39 K14 3.394051 1_555
Cl40 Co4 2.252249 1_555
Cl40 K15 3.288422 1_555
Cl40 K3 3.300194 1_555
Cl40 K21 3.312067 1_555
Cl41 Co5 2.252249 1_555
Cl41 K14 3.288422 1_655
Cl41 K2 3.300194 1_655
Cl41 K20 3.312067 1_655
Cl42 Co6 2.252249 1_555
Cl42 K13 3.288422 1_556
Cl42 K1 3.300194 1_565
Cl42 K23 3.312067 1_555
Cl43 Co7 2.252249 1_555
Cl43 K12 3.288422 1_654
Cl43 K0 3.300194 1_645
Cl43 K22 3.312067 1_655
Cl44 Co8 2.254377 1_555
Cl44 K17 3.228342 1_555
Cl44 K8 3.241092 1_555
Cl44 K23 3.315349 1_555
Cl45 Co9 2.254377 1_555
Cl45 K16 3.228342 1_655
Cl45 K9 3.241092 1_555
Cl45 K22 3.315349 1_655
Cl46 Co10 2.254377 1_555
Cl46 K19 3.228342 1_555
Cl46 K10 3.241092 1_555
Cl46 K21 3.315349 1_555
Cl47 Co11 2.254377 1_555
Cl47 K18 3.228342 1_655
Cl47 K11 3.241092 1_555
Cl47 K20 3.315349 1_655
