# generated using pymatgen
data_MgMn4In2O10
_symmetry_space_group_name_H-M   'P 1'
_cell_length_a   3.91183101
_cell_length_b   5.70734197
_cell_length_c   10.19147819
_cell_angle_alpha   89.97830993
_cell_angle_beta   90.00514418
_cell_angle_gamma   110.04691209
_symmetry_Int_Tables_number   1
_chemical_formula_structural   MgMn4In2O10
_chemical_formula_sum   'Mg1 Mn4 In2 O10'
_cell_volume   213.75060672
_cell_formula_units_Z   1
loop_
 _symmetry_equiv_pos_site_id
 _symmetry_equiv_pos_as_xyz
  1  'x, y, z'
loop_
 _atom_site_type_symbol
 _atom_site_label
 _atom_site_symmetry_multiplicity
 _atom_site_fract_x
 _atom_site_fract_y
 _atom_site_fract_z
 _atom_site_occupancy
  Mg  Mg0  1  0.51548000  0.03749300  0.75001600  1
  Mn  Mn0  1  0.14029300  0.28112200  0.55586200  1
  Mn  Mn1  1  0.14028500  0.28115700  0.94413000  1
  Mn  Mn2  1  0.87579800  0.75096700  0.06291400  1
  Mn  Mn3  1  0.87592000  0.75095300  0.43698500  1
  In  In0  1  0.20347700  0.40675200  0.24997700  1
  In  In1  1  0.79868100  0.59876100  0.74998000  1
  O  O0  1  0.06033000  0.12121900  0.10752000  1
  O  O1  1  0.06020000  0.12121200  0.39250500  1
  O  O2  1  0.29923200  0.59798500  0.45855200  1
  O  O3  1  0.29928700  0.59827400  0.04137500  1
  O  O4  1  0.22667000  0.45415900  0.75007600  1
  O  O5  1  0.79971500  0.59910200  0.24976200  1
  O  O6  1  0.96223800  0.92165700  0.62445500  1
  O  O7  1  0.64866200  0.29772200  0.59601300  1
  O  O8  1  0.96180100  0.92130500  0.87583600  1
  O  O9  1  0.64860100  0.29766100  0.90404200  1
loop_
_geom_bond_atom_site_label_1
_geom_bond_atom_site_label_2
_geom_bond_distance
_geom_bond_site_symmetry_2
Mg0 O7 2.099661 1_555
Mg0 O9 2.100389 1_555
Mg0 O6 2.403649 1_445
Mg0 O8 2.406306 1_445
Mg0 O6 2.433514 1_545
Mg0 O8 2.434129 1_545
Mn0 O1 1.872927 1_555
Mn0 O2 1.966842 1_555
Mn0 O7 2.000029 1_455
Mn0 O7 2.000469 1_555
Mn0 O6 2.049922 1_445
Mn0 O4 2.186278 1_555
Mn1 O0 1.872730 1_556
Mn1 O3 1.968319 1_556
Mn1 O9 1.999809 1_455
Mn1 O9 2.000354 1_555
Mn1 O8 2.051319 1_445
Mn1 O4 2.184100 1_555
Mn2 O0 2.036677 1_665
Mn2 O5 2.070754 1_555
Mn2 O8 2.113746 1_554
Mn2 O3 2.131198 1_655
Mn2 O3 2.132203 1_555
Mn3 O1 2.036101 1_665
Mn3 O5 2.074793 1_555
Mn3 O6 2.118808 1_555
Mn3 O2 2.131554 1_655
Mn3 O2 2.132914 1_555
In0 O1 2.109997 1_555
In0 O0 2.110251 1_555
In0 O5 2.211015 1_455
In0 O5 2.211281 1_555
In0 O2 2.360384 1_555
In0 O3 2.360621 1_555
In1 O4 2.102846 1_555
In1 O4 2.105090 1_655
In1 O6 2.152238 1_555
In1 O8 2.153486 1_555
In1 O7 2.251494 1_555
In1 O9 2.251570 1_555
