# generated using pymatgen
data_Mg2C3
_symmetry_space_group_name_H-M   'P 1'
_cell_length_a   3.74218800
_cell_length_b   5.29149700
_cell_length_c   6.44793000
_cell_angle_alpha   90.00000000
_cell_angle_beta   90.00000000
_cell_angle_gamma   90.00000000
_symmetry_Int_Tables_number   1
_chemical_formula_structural   Mg2C3
_chemical_formula_sum   'Mg4 C6'
_cell_volume   127.68046923
_cell_formula_units_Z   2
loop_
 _symmetry_equiv_pos_site_id
 _symmetry_equiv_pos_as_xyz
  1  'x, y, z'
loop_
 _atom_site_type_symbol
 _atom_site_label
 _atom_site_symmetry_multiplicity
 _atom_site_fract_x
 _atom_site_fract_y
 _atom_site_fract_z
 _atom_site_occupancy
  Mg  Mg0  1  0.50000000  0.89159800  0.20852600  1
  Mg  Mg1  1  0.50000000  0.10840200  0.79147400  1
  Mg  Mg2  1  0.00000000  0.39159800  0.29147400  1
  Mg  Mg3  1  0.00000000  0.60840200  0.70852600  1
  C  C0  1  0.50000000  0.70656500  0.88204200  1
  C  C1  1  0.50000000  0.29343500  0.11795800  1
  C  C2  1  0.00000000  0.20656500  0.61795800  1
  C  C3  1  0.00000000  0.79343500  0.38204200  1
  C  C4  1  0.00000000  0.00000000  0.50000000  1
  C  C5  1  0.50000000  0.50000000  0.00000000  1
loop_
_geom_bond_atom_site_label_1
_geom_bond_atom_site_label_2
_geom_bond_distance
_geom_bond_site_symmetry_2
C0 C5 1.331624 1_556
C0 Mg1 2.205054 1_565
C0 Mg3 2.241106 1_555
C0 Mg3 2.241106 1_655
C0 Mg0 2.321698 1_556
C1 C5 1.331624 1_555
C1 Mg0 2.205054 1_545
C1 Mg2 2.241106 1_655
C1 Mg2 2.241106 1_555
C1 Mg1 2.321698 1_554
C2 C4 1.331624 1_555
C2 Mg3 2.205054 1_555
C2 Mg1 2.241106 1_455
C2 Mg1 2.241106 1_555
C2 Mg2 2.321698 1_555
C3 C4 1.331624 1_565
C3 Mg2 2.205054 1_555
C3 Mg0 2.241106 1_555
C3 Mg0 2.241106 1_455
C3 Mg3 2.321698 1_555
C4 Mg2 2.470143 1_555
C4 Mg3 2.470143 1_545
C5 Mg1 2.470143 1_554
C5 Mg0 2.470143 1_555
