# generated using pymatgen
data_SnI4
_symmetry_space_group_name_H-M   'P 1'
_cell_length_a   12.61586996
_cell_length_b   12.61586996
_cell_length_c   12.61586996
_cell_angle_alpha   90.00000000
_cell_angle_beta   90.00000000
_cell_angle_gamma   90.00000000
_symmetry_Int_Tables_number   1
_chemical_formula_structural   SnI4
_chemical_formula_sum   'Sn8 I32'
_cell_volume   2007.94406869
_cell_formula_units_Z   8
loop_
 _symmetry_equiv_pos_site_id
 _symmetry_equiv_pos_as_xyz
  1  'x, y, z'
loop_
 _atom_site_type_symbol
 _atom_site_label
 _atom_site_symmetry_multiplicity
 _atom_site_fract_x
 _atom_site_fract_y
 _atom_site_fract_z
 _atom_site_occupancy
  Sn  Sn0  1  0.13170220  0.13170220  0.13170220  1
  Sn  Sn1  1  0.36829780  0.86829780  0.63170220  1
  Sn  Sn2  1  0.63170220  0.36829780  0.86829780  1
  Sn  Sn3  1  0.86829780  0.63170220  0.36829780  1
  Sn  Sn4  1  0.86829780  0.86829780  0.86829780  1
  Sn  Sn5  1  0.63170220  0.13170220  0.36829780  1
  Sn  Sn6  1  0.36829780  0.63170220  0.13170220  1
  Sn  Sn7  1  0.13170220  0.36829780  0.63170220  1
  I  I0  1  0.25461201  0.25461201  0.25461201  1
  I  I1  1  0.24538799  0.74538799  0.75461201  1
  I  I2  1  0.75461201  0.24538799  0.74538799  1
  I  I3  1  0.74538799  0.75461201  0.24538799  1
  I  I4  1  0.74538799  0.74538799  0.74538799  1
  I  I5  1  0.75461201  0.25461201  0.24538799  1
  I  I6  1  0.24538799  0.75461201  0.25461201  1
  I  I7  1  0.25461201  0.24538799  0.75461201  1
  I  I8  1  0.01337863  0.00411796  0.25515880  1
  I  I9  1  0.25515880  0.01337863  0.00411796  1
  I  I10  1  0.00411796  0.25515880  0.01337863  1
  I  I11  1  0.49588204  0.74484120  0.51337863  1
  I  I12  1  0.75515880  0.48662137  -0.00411796  1
  I  I13  1  -0.00411796  0.75515880  0.48662137  1
  I  I14  1  0.24484120  0.98662137  0.50411796  1
  I  I15  1  0.74484120  0.51337863  0.49588204  1
  I  I16  1  0.50411796  0.24484120  0.98662137  1
  I  I17  1  0.51337863  0.49588204  0.74484120  1
  I  I18  1  0.98662137  0.50411796  0.24484120  1
  I  I19  1  0.48662137  -0.00411796  0.75515880  1
  I  I20  1  0.98662137  -0.00411796  0.74484120  1
  I  I21  1  0.74484120  0.98662137  -0.00411796  1
  I  I22  1  -0.00411796  0.74484120  0.98662137  1
  I  I23  1  0.50411796  0.25515880  0.48662137  1
  I  I24  1  0.24484120  0.51337863  0.00411796  1
  I  I25  1  0.00411796  0.24484120  0.51337863  1
  I  I26  1  0.75515880  0.01337863  0.49588204  1
  I  I27  1  0.25515880  0.48662137  0.50411796  1
  I  I28  1  0.49588204  0.75515880  0.01337863  1
  I  I29  1  0.48662137  0.50411796  0.25515880  1
  I  I30  1  0.01337863  0.49588204  0.75515880  1
  I  I31  1  0.51337863  0.00411796  0.24484120  1
loop_
_geom_bond_atom_site_label_1
_geom_bond_atom_site_label_2
_geom_bond_distance
_geom_bond_site_symmetry_2
I0 Sn0 2.685743 1_555
I1 Sn1 2.685743 1_555
I2 Sn2 2.685743 1_555
I3 Sn3 2.685743 1_555
I4 Sn4 2.685743 1_555
I5 Sn5 2.685743 1_555
I6 Sn6 2.685743 1_555
I7 Sn7 2.685743 1_555
I8 Sn0 2.691641 1_555
I9 Sn0 2.691641 1_555
I10 Sn0 2.691641 1_555
I11 Sn1 2.691641 1_555
I12 Sn2 2.691641 1_554
I13 Sn3 2.691641 1_455
I14 Sn1 2.691641 1_555
I15 Sn3 2.691641 1_555
I16 Sn2 2.691641 1_555
I17 Sn2 2.691641 1_555
I18 Sn3 2.691641 1_555
I19 Sn1 2.691641 1_545
I20 Sn4 2.691641 1_545
I21 Sn4 2.691641 1_554
I22 Sn4 2.691641 1_455
I23 Sn5 2.691641 1_555
I24 Sn6 2.691641 1_555
I25 Sn7 2.691641 1_555
I26 Sn5 2.691641 1_555
I27 Sn7 2.691641 1_555
I28 Sn6 2.691641 1_555
I29 Sn6 2.691641 1_555
I30 Sn7 2.691641 1_555
I31 Sn5 2.691641 1_555
