# generated using pymatgen
data_Ba(GeP)2
_symmetry_space_group_name_H-M   'P 1'
_cell_length_a   7.67630788
_cell_length_b   7.67630788
_cell_length_c   8.55571845
_cell_angle_alpha   90.00000000
_cell_angle_beta   90.00000000
_cell_angle_gamma   90.00000000
_symmetry_Int_Tables_number   1
_chemical_formula_structural   Ba(GeP)2
_chemical_formula_sum   'Ba4 Ge8 P8'
_cell_volume   504.15172150
_cell_formula_units_Z   4
loop_
 _symmetry_equiv_pos_site_id
 _symmetry_equiv_pos_as_xyz
  1  'x, y, z'
loop_
 _atom_site_type_symbol
 _atom_site_label
 _atom_site_symmetry_multiplicity
 _atom_site_fract_x
 _atom_site_fract_y
 _atom_site_fract_z
 _atom_site_occupancy
  Ba  Ba0  1  0.00000000  0.50000000  0.52691334  1
  Ba  Ba1  1  0.50000000  0.00000000  0.02691334  1
  Ba  Ba2  1  0.00000000  0.00000000  0.49761384  1
  Ba  Ba3  1  0.00000000  0.00000000  0.99761384  1
  Ge  Ge0  1  0.50000000  0.16670888  0.61494034  1
  Ge  Ge1  1  0.83329112  0.50000000  0.11494034  1
  Ge  Ge2  1  0.16670888  0.50000000  0.11494034  1
  Ge  Ge3  1  0.50000000  0.83329112  0.61494034  1
  Ge  Ge4  1  0.50000000  0.33230886  0.36665354  1
  Ge  Ge5  1  0.33230886  0.50000000  0.86665354  1
  Ge  Ge6  1  0.66769114  0.50000000  0.86665354  1
  Ge  Ge7  1  0.50000000  0.66769114  0.36665354  1
  P  P0  1  0.25119428  0.23545373  0.75617202  1
  P  P1  1  0.74880572  0.76454627  0.75617202  1
  P  P2  1  0.23545373  0.74880572  0.25617202  1
  P  P3  1  0.76454627  0.25119428  0.25617202  1
  P  P4  1  0.74880572  0.23545373  0.75617202  1
  P  P5  1  0.23545373  0.25119428  0.25617202  1
  P  P6  1  0.76454627  0.74880572  0.25617202  1
  P  P7  1  0.25119428  0.76454627  0.75617202  1
loop_
_geom_bond_atom_site_label_1
_geom_bond_atom_site_label_2
_geom_bond_distance
_geom_bond_site_symmetry_2
Ba0 P7 3.418977 1_555
Ba0 P1 3.418977 1_455
Ba0 P0 3.418977 1_555
Ba0 P4 3.418977 1_455
Ba0 P2 3.504305 1_555
Ba0 P5 3.504305 1_555
Ba0 P6 3.504305 1_455
Ba0 P3 3.504305 1_455
Ba1 P2 3.418977 1_545
Ba1 P5 3.418977 1_555
Ba1 P3 3.418977 1_555
Ba1 P6 3.418977 1_545
Ba1 P4 3.504305 1_554
Ba1 P0 3.504305 1_554
Ba1 P7 3.504305 1_544
Ba1 P1 3.504305 1_544
Ba2 P6 3.354404 1_445
Ba2 P3 3.354404 1_455
Ba2 P2 3.354404 1_545
Ba2 P5 3.354404 1_555
Ba2 P0 3.446518 1_555
Ba2 P1 3.446518 1_445
Ba2 P4 3.446518 1_455
Ba2 P7 3.446518 1_545
Ba3 P7 3.354404 1_545
Ba3 P0 3.354404 1_555
Ba3 P1 3.354404 1_445
Ba3 P4 3.354404 1_455
Ba3 P3 3.446518 1_456
Ba3 P5 3.446518 1_556
Ba3 P2 3.446518 1_546
Ba3 P6 3.446518 1_446
Ge0 P4 2.320842 1_555
Ge0 P0 2.320842 1_555
Ge0 Ge4 2.475575 1_555
Ge1 P3 2.320842 1_555
Ge1 P6 2.320842 1_555
Ge1 Ge6 2.475575 1_554
Ge2 P2 2.320842 1_555
Ge2 P5 2.320842 1_555
Ge2 Ge5 2.475575 1_554
Ge3 P7 2.320842 1_555
Ge3 P1 2.320842 1_555
Ge3 Ge7 2.475575 1_555
Ge4 P3 2.324887 1_555
Ge4 P5 2.324887 1_555
Ge4 Ge7 2.574498 1_555
Ge5 P7 2.324887 1_555
Ge5 P0 2.324887 1_555
Ge5 Ge6 2.574498 1_555
Ge6 P4 2.324887 1_555
Ge6 P1 2.324887 1_555
Ge7 P6 2.324887 1_555
Ge7 P2 2.324887 1_555
