# generated using pymatgen
data_Rb2Cd3Te4
_symmetry_space_group_name_H-M   'P 1'
_cell_length_a   10.70455008
_cell_length_b   10.70455008
_cell_length_c   13.06396771
_cell_angle_alpha   72.41828822
_cell_angle_beta   72.41828822
_cell_angle_gamma   93.58067167
_symmetry_Int_Tables_number   1
_chemical_formula_structural   Rb2Cd3Te4
_chemical_formula_sum   'Rb8 Cd12 Te16'
_cell_volume   1340.77955210
_cell_formula_units_Z   4
loop_
 _symmetry_equiv_pos_site_id
 _symmetry_equiv_pos_as_xyz
  1  'x, y, z'
loop_
 _atom_site_type_symbol
 _atom_site_label
 _atom_site_symmetry_multiplicity
 _atom_site_fract_x
 _atom_site_fract_y
 _atom_site_fract_z
 _atom_site_occupancy
  Rb  Rb0  1  0.00000000  0.00000000  -0.00000000  1
  Rb  Rb1  1  0.75139972  0.75543503  0.36265434  1
  Rb  Rb2  1  0.75543503  0.75139972  0.86265434  1
  Rb  Rb3  1  0.24860028  0.24456497  0.63734566  1
  Rb  Rb4  1  0.49777142  0.50222858  0.25000000  1
  Rb  Rb5  1  0.50222858  0.49777142  0.75000000  1
  Rb  Rb6  1  0.00000000  0.00000000  0.50000000  1
  Rb  Rb7  1  0.24456497  0.24860028  0.13734566  1
  Cd  Cd0  1  0.40821000  0.88902614  0.80082441  1
  Cd  Cd1  1  0.12505260  0.64803290  0.41045489  1
  Cd  Cd2  1  0.87494740  0.35196710  0.58954511  1
  Cd  Cd3  1  0.64803290  0.12505260  0.91045489  1
  Cd  Cd4  1  0.11097386  0.59179000  0.69917559  1
  Cd  Cd5  1  0.59179000  0.11097386  0.19917559  1
  Cd  Cd6  1  0.88902614  0.40821000  0.30082441  1
  Cd  Cd7  1  0.37933565  0.85889418  0.54323081  1
  Cd  Cd8  1  0.14110582  0.62066435  0.95676919  1
  Cd  Cd9  1  0.62066435  0.14110582  0.45676919  1
  Cd  Cd10  1  0.85889418  0.37933565  0.04323081  1
  Cd  Cd11  1  0.35196710  0.87494740  0.08954511  1
  Te  Te0  1  0.34304858  0.62029560  0.50152219  1
  Te  Te1  1  0.37970440  0.65695142  0.99847781  1
  Te  Te2  1  0.65695142  0.37970440  0.49847781  1
  Te  Te3  1  0.62029560  0.34304858  0.00152219  1
  Te  Te4  1  0.84330497  0.15669503  0.25000000  1
  Te  Te5  1  0.15669503  0.84330497  0.75000000  1
  Te  Te6  1  0.11761776  0.88238224  0.25000000  1
  Te  Te7  1  0.88238224  0.11761776  0.75000000  1
  Te  Te8  1  0.39393180  0.10715563  0.87793488  1
  Te  Te9  1  0.60606820  0.89284437  0.12206512  1
  Te  Te10  1  0.10715563  0.39393180  0.37793488  1
  Te  Te11  1  0.61574380  0.88525413  0.60760884  1
  Te  Te12  1  0.11474587  0.38425620  0.89239116  1
  Te  Te13  1  0.38425620  0.11474587  0.39239116  1
  Te  Te14  1  0.88525413  0.61574380  0.10760884  1
  Te  Te15  1  0.89284437  0.60606820  0.62206512  1
loop_
_geom_bond_atom_site_label_1
_geom_bond_atom_site_label_2
_geom_bond_distance
_geom_bond_site_symmetry_2
Rb0 Te7 3.746344 1_454
Rb0 Te6 3.746344 1_545
Rb0 Te12 3.903399 1_554
Rb0 Te14 3.903399 1_445
Rb0 Te8 3.983581 1_554
Rb0 Te9 3.983581 1_445
Rb0 Te4 4.079845 1_455
Rb0 Te5 4.079845 1_544
Rb1 Te6 3.744521 1_655
Rb1 Te11 3.796262 1_555
Rb1 Te2 3.800548 1_555
Rb1 Te9 3.861270 1_555
Rb1 Te14 3.972917 1_555
Rb1 Te4 4.044991 1_565
Rb1 Te15 4.057418 1_555
Rb1 Te0 4.162361 1_555
Rb2 Te7 3.744521 1_565
Rb2 Te14 3.796262 1_556
Rb2 Te1 3.800548 1_555
Rb2 Te15 3.861270 1_555
Rb2 Te11 3.972917 1_555
Rb2 Te5 4.044991 1_655
Rb2 Te9 4.057418 1_556
Rb2 Te3 4.162361 1_556
Rb3 Te7 3.744521 1_455
Rb3 Te13 3.796262 1_555
Rb3 Te0 3.800548 1_555
Rb3 Te8 3.861270 1_555
Rb3 Te12 3.972917 1_555
Rb3 Te5 4.044991 1_545
Rb3 Te10 4.057418 1_555
Rb3 Te2 4.162361 1_555
Rb4 Te0 3.823609 1_555
Rb4 Te1 3.823609 1_554
Rb4 Te14 3.935084 1_555
Rb4 Te13 3.935084 1_555
Rb4 Te9 3.952613 1_555
Rb4 Te10 3.952613 1_555
Rb4 Te2 4.026102 1_555
Rb4 Te3 4.026102 1_555
Rb5 Te3 3.823609 1_556
Rb5 Te2 3.823609 1_555
Rb5 Te11 3.935084 1_555
Rb5 Te12 3.935084 1_555
Rb5 Te15 3.952613 1_555
Rb5 Te8 3.952613 1_555
Rb5 Te1 4.026102 1_555
Rb5 Te0 4.026102 1_555
Rb6 Te7 3.746344 1_455
Rb6 Te6 3.746344 1_545
Rb6 Te13 3.903399 1_555
Rb6 Te11 3.903399 1_445
Rb6 Te10 3.983581 1_555
Rb6 Te15 3.983581 1_445
Rb6 Te4 4.079845 1_455
Rb6 Te5 4.079845 1_545
Rb7 Te6 3.744521 1_545
Rb7 Te12 3.796262 1_554
Rb7 Te3 3.800548 1_555
Rb7 Te10 3.861270 1_555
Rb7 Te13 3.972917 1_555
Rb7 Te4 4.044991 1_455
Rb7 Te8 4.057418 1_554
Rb7 Te1 4.162361 1_554
Cd0 Te8 2.804080 1_565
Cd0 Te11 2.827261 1_555
Cd0 Te1 2.913086 1_555
Cd0 Te5 3.006802 1_555
Cd1 Te6 2.764471 1_555
Cd1 Te10 2.880625 1_555
Cd1 Te0 2.915363 1_555
Cd1 Te15 2.996942 1_455
Cd2 Te7 2.764471 1_555
Cd2 Te15 2.880625 1_555
Cd2 Te2 2.915363 1_555
Cd2 Te10 2.996942 1_655
Cd3 Te7 2.764471 1_555
Cd3 Te8 2.880625 1_555
Cd3 Te3 2.915363 1_556
Cd3 Te9 2.996942 1_546
Cd4 Te15 2.804080 1_455
Cd4 Te12 2.827261 1_555
Cd4 Te0 2.913086 1_555
Cd4 Te5 3.006802 1_555
Cd5 Te9 2.804080 1_545
Cd5 Te13 2.827261 1_555
Cd5 Te3 2.913086 1_555
Cd5 Te4 3.006802 1_555
Cd6 Te10 2.804080 1_655
Cd6 Te14 2.827261 1_555
Cd6 Te2 2.913086 1_555
Cd6 Te4 3.006802 1_555
Cd7 Te0 2.795685 1_555
Cd7 Te13 2.836480 1_565
Cd7 Te11 2.920803 1_555
Cd7 Te5 2.965332 1_555
Cd8 Te1 2.795685 1_555
Cd8 Te14 2.836480 1_456
Cd8 Te12 2.920803 1_555
Cd8 Te5 2.965332 1_555
Cd9 Te2 2.795685 1_555
Cd9 Te11 2.836480 1_545
Cd9 Te13 2.920803 1_555
Cd9 Te4 2.965332 1_555
Cd10 Te3 2.795685 1_555
Cd10 Te12 2.836480 1_654
Cd10 Te14 2.920803 1_555
Cd10 Te4 2.965332 1_555
Cd11 Te6 2.764471 1_555
Cd11 Te9 2.880625 1_555
Cd11 Te1 2.915363 1_554
Cd11 Te8 2.996942 1_564
