# generated using pymatgen
data_U(Ni2P)2
_symmetry_space_group_name_H-M   'P 1'
_cell_length_a   7.03028875
_cell_length_b   7.03027082
_cell_length_c   3.63416141
_cell_angle_alpha   90.00000000
_cell_angle_beta   90.00000000
_cell_angle_gamma   90.00067440
_symmetry_Int_Tables_number   1
_chemical_formula_structural   U(Ni2P)2
_chemical_formula_sum   'U2 Ni8 P4'
_cell_volume   179.61782389
_cell_formula_units_Z   2
loop_
 _symmetry_equiv_pos_site_id
 _symmetry_equiv_pos_as_xyz
  1  'x, y, z'
loop_
 _atom_site_type_symbol
 _atom_site_label
 _atom_site_symmetry_multiplicity
 _atom_site_fract_x
 _atom_site_fract_y
 _atom_site_fract_z
 _atom_site_occupancy
  U  U0  1  0.49999904  0.49999726  -0.00000000  1
  U  U1  1  0.00000312  -0.00000314  0.50000000  1
  Ni  Ni0  1  0.58801204  0.15989150  0.50000000  1
  Ni  Ni1  1  0.41198659  0.84011484  0.50000000  1
  Ni  Ni2  1  0.15996608  0.58804764  0.50000000  1
  Ni  Ni3  1  0.84002015  0.41195308  0.50000000  1
  Ni  Ni4  1  0.08804871  0.34001721  -0.00000000  1
  Ni  Ni5  1  0.91195139  0.65998232  0.00000000  1
  Ni  Ni6  1  0.65991365  0.91197967  -0.00000000  1
  Ni  Ni7  1  0.34010038  0.08801817  0.00000000  1
  P  P0  1  0.22005083  0.77994659  -0.00000000  1
  P  P1  1  0.27992671  0.27992899  0.50000000  1
  P  P2  1  0.72007313  0.72007165  0.50000000  1
  P  P3  1  0.77994719  0.22005522  -0.00000000  1
loop_
_geom_bond_atom_site_label_1
_geom_bond_atom_site_label_2
_geom_bond_distance
_geom_bond_site_symmetry_2
Ni0 P3 2.302486 1_555
Ni0 P3 2.302486 1_556
Ni0 P1 2.324532 1_555
Ni1 P0 2.302494 1_555
Ni1 P0 2.302494 1_556
Ni1 P2 2.324555 1_555
Ni2 P0 2.302233 1_556
Ni2 P0 2.302233 1_555
Ni2 P1 2.324550 1_555
Ni3 P3 2.302213 1_556
Ni3 P3 2.302213 1_555
Ni3 P2 2.324515 1_555
Ni4 P1 2.302159 1_555
Ni4 P1 2.302159 1_554
Ni4 P3 2.324427 1_455
Ni5 P2 2.302161 1_554
Ni5 P2 2.302161 1_555
Ni5 P0 2.324420 1_655
Ni6 P2 2.302373 1_554
Ni6 P2 2.302373 1_555
Ni6 P3 2.324435 1_565
Ni7 P1 2.302403 1_554
Ni7 P1 2.302403 1_555
Ni7 P0 2.324450 1_545
P0 U0 2.783356 1_555
P0 U1 2.843993 1_565
P0 U1 2.843993 1_564
P1 U1 2.783115 1_555
P1 U0 2.844136 1_555
P1 U0 2.844136 1_556
P2 U1 2.783113 1_665
P2 U0 2.844166 1_556
P2 U0 2.844166 1_555
P3 U0 2.783319 1_555
P3 U1 2.844055 1_655
P3 U1 2.844055 1_654
