# generated using pymatgen
data_Rb2GaSb2
_symmetry_space_group_name_H-M   'P 1'
_cell_length_a   9.38755494
_cell_length_b   10.86776245
_cell_length_c   15.50125679
_cell_angle_alpha   90.00000000
_cell_angle_beta   90.00000000
_cell_angle_gamma   90.00000000
_symmetry_Int_Tables_number   1
_chemical_formula_structural   Rb2GaSb2
_chemical_formula_sum   'Rb16 Ga8 Sb16'
_cell_volume   1581.46483452
_cell_formula_units_Z   8
loop_
 _symmetry_equiv_pos_site_id
 _symmetry_equiv_pos_as_xyz
  1  'x, y, z'
loop_
 _atom_site_type_symbol
 _atom_site_label
 _atom_site_symmetry_multiplicity
 _atom_site_fract_x
 _atom_site_fract_y
 _atom_site_fract_z
 _atom_site_occupancy
  Rb  Rb0  1  0.22526496  0.96757784  0.48247443  1
  Rb  Rb1  1  0.39589808  0.96541970  0.72975176  1
  Rb  Rb2  1  0.10410192  0.53458030  0.22975176  1
  Rb  Rb3  1  0.89589808  0.03458030  0.77024824  1
  Rb  Rb4  1  0.10410192  0.96541970  0.22975176  1
  Rb  Rb5  1  0.60410192  0.03458030  0.27024824  1
  Rb  Rb6  1  0.89589808  0.46541970  0.77024824  1
  Rb  Rb7  1  0.39589808  0.53458030  0.72975176  1
  Rb  Rb8  1  0.72526496  0.03242216  0.01752557  1
  Rb  Rb9  1  0.77473504  0.46757784  0.51752557  1
  Rb  Rb10  1  0.27473504  0.53242216  0.98247443  1
  Rb  Rb11  1  0.77473504  0.03242216  0.51752557  1
  Rb  Rb12  1  0.72526496  0.46757784  0.01752557  1
  Rb  Rb13  1  0.22526496  0.53242216  0.48247443  1
  Rb  Rb14  1  0.60410192  0.46541970  0.27024824  1
  Rb  Rb15  1  0.27473504  0.96757784  0.98247443  1
  Ga  Ga0  1  0.72372887  0.75000000  0.68027758  1
  Ga  Ga1  1  0.22372887  0.25000000  0.81972242  1
  Ga  Ga2  1  0.77627113  0.75000000  0.18027758  1
  Ga  Ga3  1  0.89992430  0.75000000  0.90647445  1
  Ga  Ga4  1  0.39992430  0.25000000  0.59352555  1
  Ga  Ga5  1  0.10007570  0.25000000  0.09352555  1
  Ga  Ga6  1  0.60007570  0.75000000  0.40647445  1
  Ga  Ga7  1  0.27627113  0.25000000  0.31972242  1
  Sb  Sb0  1  0.11711142  0.75000000  0.80446820  1
  Sb  Sb1  1  0.61711142  0.25000000  0.69553180  1
  Sb  Sb2  1  0.88288858  0.25000000  0.19553180  1
  Sb  Sb3  1  0.38288858  0.75000000  0.30446820  1
  Sb  Sb4  1  0.99095798  0.75000000  0.63705993  1
  Sb  Sb5  1  0.49095798  0.25000000  0.86294007  1
  Sb  Sb6  1  0.00904202  0.25000000  0.36294007  1
  Sb  Sb7  1  0.50904202  0.75000000  0.13705993  1
  Sb  Sb8  1  0.64520781  0.75000000  0.84435967  1
  Sb  Sb9  1  0.14520781  0.25000000  0.65564033  1
  Sb  Sb10  1  0.35479219  0.25000000  0.15564033  1
  Sb  Sb11  1  0.85479219  0.75000000  0.34435967  1
  Sb  Sb12  1  0.98263759  0.75000000  0.06592800  1
  Sb  Sb13  1  0.48263759  0.25000000  0.43407200  1
  Sb  Sb14  1  0.01736241  0.25000000  0.93407200  1
  Sb  Sb15  1  0.51736241  0.75000000  0.56592800  1
loop_
_geom_bond_atom_site_label_1
_geom_bond_atom_site_label_2
_geom_bond_distance
_geom_bond_site_symmetry_2
Rb0 Sb15 3.844965 1_555
Rb0 Sb3 3.923598 1_555
Rb0 Sb13 3.977571 1_565
Rb0 Sb4 4.021377 1_455
Rb0 Sb6 4.119958 1_565
Rb0 Sb9 4.146180 1_565
Rb1 Sb15 3.637306 1_555
Rb1 Sb0 3.697521 1_555
Rb1 Sb8 3.756939 1_555
Rb1 Sb1 3.762841 1_565
Rb1 Sb5 3.824130 1_565
Rb1 Sb9 4.052560 1_565
Rb2 Sb12 3.637306 1_455
Rb2 Sb3 3.697521 1_555
Rb2 Sb11 3.756939 1_455
Rb2 Sb2 3.762841 1_455
Rb2 Sb6 3.824130 1_555
Rb2 Sb10 4.052560 1_555
Rb3 Sb14 3.637306 1_655
Rb3 Sb1 3.697521 1_555
Rb3 Sb9 3.756939 1_655
Rb3 Sb0 3.762841 1_645
Rb3 Sb4 3.824130 1_545
Rb3 Sb8 4.052560 1_545
Rb4 Sb12 3.637306 1_455
Rb4 Sb3 3.697521 1_555
Rb4 Sb11 3.756939 1_455
Rb4 Sb2 3.762841 1_465
Rb4 Sb6 3.824130 1_565
Rb4 Sb10 4.052560 1_565
Rb5 Sb13 3.637306 1_555
Rb5 Sb2 3.697521 1_555
Rb5 Sb10 3.756939 1_555
Rb5 Sb3 3.762841 1_545
Rb5 Sb7 3.824130 1_545
Rb5 Sb11 4.052560 1_545
Rb6 Sb14 3.637306 1_655
Rb6 Sb1 3.697521 1_555
Rb6 Sb9 3.756939 1_655
Rb6 Sb0 3.762841 1_655
Rb6 Sb4 3.824130 1_555
Rb6 Sb8 4.052560 1_555
Rb7 Sb15 3.637306 1_555
Rb7 Sb0 3.697521 1_555
Rb7 Sb8 3.756939 1_555
Rb7 Sb1 3.762841 1_555
Rb7 Sb5 3.824130 1_555
Rb7 Sb9 4.052560 1_555
Rb8 Sb14 3.844965 1_654
Rb8 Sb2 3.923598 1_555
Rb8 Sb12 3.977571 1_545
Rb8 Sb5 4.021377 1_554
Rb8 Sb7 4.119958 1_545
Rb8 Sb8 4.146180 1_544
Rb9 Sb13 3.844965 1_555
Rb9 Sb1 3.923598 1_555
Rb9 Sb15 3.977571 1_555
Rb9 Sb6 4.021377 1_655
Rb9 Sb4 4.119958 1_555
Rb9 Sb11 4.146180 1_555
Rb10 Sb12 3.844965 1_456
Rb10 Sb0 3.923598 1_555
Rb10 Sb14 3.977571 1_555
Rb10 Sb7 4.021377 1_556
Rb10 Sb5 4.119958 1_555
Rb10 Sb10 4.146180 1_556
Rb11 Sb13 3.844965 1_555
Rb11 Sb1 3.923598 1_555
Rb11 Sb15 3.977571 1_545
Rb11 Sb6 4.021377 1_655
Rb11 Sb4 4.119958 1_545
Rb11 Sb11 4.146180 1_545
Rb12 Sb14 3.844965 1_654
Rb12 Sb2 3.923598 1_555
Rb12 Sb12 3.977571 1_555
Rb12 Sb5 4.021377 1_554
Rb12 Sb7 4.119958 1_555
Rb12 Sb8 4.146180 1_554
Rb13 Sb15 3.844965 1_555
Rb13 Sb3 3.923598 1_555
Rb13 Sb13 3.977571 1_555
Rb13 Sb4 4.021377 1_455
Rb13 Sb6 4.119958 1_555
Rb13 Sb9 4.146180 1_555
Rb14 Sb13 3.637306 1_555
Rb14 Sb2 3.697521 1_555
Rb14 Sb10 3.756939 1_555
Rb14 Sb3 3.762841 1_555
Rb14 Sb7 3.824130 1_555
Rb14 Sb11 4.052560 1_555
Rb15 Sb12 3.844965 1_456
Rb15 Sb0 3.923598 1_555
Rb15 Sb14 3.977571 1_565
Rb15 Sb7 4.021377 1_556
Rb15 Sb5 4.119958 1_565
Rb15 Sb10 4.146180 1_566
Ga0 Sb4 2.596540 1_555
Ga0 Sb15 2.625836 1_555
Ga0 Sb8 2.648137 1_555
Ga0 Rb3 3.757983 1_565
Ga0 Rb6 3.757983 1_555
Ga0 Rb9 4.001835 1_555
Ga0 Rb11 4.001835 1_565
Ga1 Sb5 2.596540 1_555
Ga1 Sb14 2.625836 1_555
Ga1 Sb9 2.648137 1_555
Ga1 Rb1 3.757983 1_545
Ga1 Rb7 3.757983 1_555
Ga1 Rb10 4.001835 1_555
Ga1 Rb15 4.001835 1_545
Ga2 Sb7 2.596540 1_555
Ga2 Sb12 2.625836 1_555
Ga2 Sb11 2.648137 1_555
Ga2 Rb14 3.757983 1_555
Ga2 Rb5 3.757983 1_565
Ga2 Rb12 4.001835 1_555
Ga2 Rb8 4.001835 1_565
Ga3 Sb8 2.577744 1_555
Ga3 Sb0 2.580156 1_655
Ga3 Sb12 2.590823 1_556
Ga3 Rb6 3.745093 1_555
Ga3 Rb3 3.745093 1_565
Ga3 Rb12 3.882303 1_556
Ga3 Rb8 3.882303 1_566
Ga4 Sb9 2.577744 1_555
Ga4 Sb1 2.580156 1_555
Ga4 Sb13 2.590823 1_555
Ga4 Rb1 3.745093 1_545
Ga4 Rb7 3.745093 1_555
Ga4 Rb0 3.882303 1_545
Ga4 Rb13 3.882303 1_555
Ga5 Sb10 2.577744 1_555
Ga5 Sb2 2.580156 1_455
Ga5 Sb14 2.590823 1_554
Ga5 Rb4 3.745093 1_545
Ga5 Rb2 3.745093 1_555
Ga5 Rb10 3.882303 1_554
Ga5 Rb15 3.882303 1_544
Ga6 Sb11 2.577744 1_555
Ga6 Sb3 2.580156 1_555
Ga6 Sb15 2.590823 1_555
Ga6 Rb14 3.745093 1_555
Ga6 Rb5 3.745093 1_565
Ga6 Rb9 3.882303 1_555
Ga6 Rb11 3.882303 1_565
Ga7 Sb6 2.596540 1_555
Ga7 Sb13 2.625836 1_555
Ga7 Sb10 2.648137 1_555
Ga7 Rb4 3.757983 1_545
Ga7 Rb2 3.757983 1_555
Ga7 Rb0 4.001835 1_545
Ga7 Rb13 4.001835 1_555
Sb0 Sb4 2.852495 1_455
Sb1 Sb5 2.852495 1_555
Sb2 Sb6 2.852495 1_655
Sb3 Sb7 2.852495 1_555
