# generated using pymatgen
data_Na5MgSbO5
_symmetry_space_group_name_H-M   'P 1'
_cell_length_a   4.82973700
_cell_length_b   6.03070655
_cell_length_c   6.70168009
_cell_angle_alpha   74.92409393
_cell_angle_beta   90.00000000
_cell_angle_gamma   66.39500816
_symmetry_Int_Tables_number   1
_chemical_formula_structural   Na5MgSbO5
_chemical_formula_sum   'Na5 Mg1 Sb1 O5'
_cell_volume   171.50846820
_cell_formula_units_Z   1
loop_
 _symmetry_equiv_pos_site_id
 _symmetry_equiv_pos_as_xyz
  1  'x, y, z'
loop_
 _atom_site_type_symbol
 _atom_site_label
 _atom_site_symmetry_multiplicity
 _atom_site_fract_x
 _atom_site_fract_y
 _atom_site_fract_z
 _atom_site_occupancy
  Na  Na0  1  0.68642700  0.62714500  0.88574200  1
  Na  Na1  1  0.70403500  0.59193000  0.30895800  1
  Na  Na2  1  0.29596500  0.40807000  0.69104200  1
  Na  Na3  1  0.31357300  0.37285500  0.11425800  1
  Na  Na4  1  0.00000000  0.00000000  0.50000000  1
  Mg  Mg0  1  0.50000000  0.00000000  0.50000000  1
  Sb  Sb0  1  0.00000000  0.00000000  0.00000000  1
  O  O0  1  0.12989300  0.74021300  0.84094500  1
  O  O1  1  0.13870700  0.72258700  0.27203400  1
  O  O2  1  0.86129300  0.27741300  0.72796600  1
  O  O3  1  0.87010700  0.25978700  0.15905500  1
  O  O4  1  0.50000000  0.00000000  0.00000000  1
loop_
_geom_bond_atom_site_label_1
_geom_bond_atom_site_label_2
_geom_bond_distance
_geom_bond_site_symmetry_2
Na0 O3 2.316289 1_556
Na0 O4 2.393196 1_566
Na0 O2 2.452199 1_555
Na0 O0 2.491111 1_555
Na0 O0 2.491111 1_655
Na1 O3 2.329143 1_555
Na1 O1 2.512509 1_555
Na1 O1 2.512514 1_655
Na1 O4 2.592617 1_565
Na1 O2 2.852252 1_555
Na2 O0 2.329143 1_555
Na2 O2 2.512509 1_555
Na2 O2 2.512514 1_455
Na2 O4 2.592617 1_556
Na2 O1 2.852252 1_555
Na3 O0 2.316289 1_554
Na3 O4 2.393196 1_555
Na3 O1 2.452199 1_555
Na3 O3 2.491111 1_555
Na3 O3 2.491111 1_455
Na4 O3 2.328000 1_455
Na4 O0 2.328000 1_545
Na4 O1 2.452295 1_545
Na4 O2 2.452295 1_455
Mg0 Na4 2.414868 1_555
Mg0 Na4 2.414868 1_655
Mg0 Na3 2.811479 1_555
Mg0 Na0 2.811479 1_545
Mg0 Na1 2.891952 1_545
Mg0 Na2 2.891952 1_555
O0 Sb0 2.016414 1_566
O1 Sb0 2.021672 1_565
O2 Sb0 2.021672 1_656
O3 Sb0 2.016414 1_655
O4 Sb0 2.414868 1_655
O4 Sb0 2.414868 1_555
