# generated using pymatgen
data_TePd3
_symmetry_space_group_name_H-M   'P 1'
_cell_length_a   4.60930813
_cell_length_b   4.60930813
_cell_length_c   4.60930813
_cell_angle_alpha   120.17139675
_cell_angle_beta   120.17139675
_cell_angle_gamma   89.70338759
_symmetry_Int_Tables_number   1
_chemical_formula_structural   TePd3
_chemical_formula_sum   'Te1 Pd3'
_cell_volume   69.06521207
_cell_formula_units_Z   1
loop_
 _symmetry_equiv_pos_site_id
 _symmetry_equiv_pos_as_xyz
  1  'x, y, z'
loop_
 _atom_site_type_symbol
 _atom_site_label
 _atom_site_symmetry_multiplicity
 _atom_site_fract_x
 _atom_site_fract_y
 _atom_site_fract_z
 _atom_site_occupancy
  Te  Te0  1  0.00000000  -0.00000000  0.00000000  1
  Pd  Pd0  1  0.75000000  0.25000000  0.50000000  1
  Pd  Pd1  1  0.25000000  0.75000000  0.50000000  1
  Pd  Pd2  1  0.50000000  0.50000000  0.00000000  1
loop_
_geom_bond_atom_site_label_1
_geom_bond_atom_site_label_2
_geom_bond_distance
_geom_bond_site_symmetry_2
Pd0 Pd2 2.820177 1_656
Pd0 Pd2 2.820177 1_545
Pd0 Te0 2.820177 1_555
Pd0 Te0 2.820177 1_666
Pd0 Te0 2.820177 1_656
Pd0 Pd2 2.820177 1_555
Pd0 Te0 2.820177 1_655
Pd0 Pd2 2.820177 1_556
Pd1 Te0 2.820177 1_565
Pd1 Te0 2.820177 1_555
Pd1 Te0 2.820177 1_666
Pd1 Pd2 2.820177 1_455
Pd1 Pd2 2.820177 1_555
Pd1 Te0 2.820177 1_566
Pd1 Pd2 2.820177 1_556
Pd1 Pd2 2.820177 1_566
Pd2 Te0 3.250826 1_565
Pd2 Te0 3.250826 1_655
Pd2 Te0 3.250826 1_554
Pd2 Te0 3.250826 1_666
Pd2 Te0 3.267699 1_665
Pd2 Te0 3.267699 1_555
