# generated using pymatgen
data_Li2Ta3N5
_symmetry_space_group_name_H-M   'P 1'
_cell_length_a   5.34105074
_cell_length_b   5.34105074
_cell_length_c   9.63966580
_cell_angle_alpha   89.06470999
_cell_angle_beta   89.06470999
_cell_angle_gamma   46.32779780
_symmetry_Int_Tables_number   1
_chemical_formula_structural   Li2Ta3N5
_chemical_formula_sum   'Li4 Ta6 N10'
_cell_volume   198.86884087
_cell_formula_units_Z   2
loop_
 _symmetry_equiv_pos_site_id
 _symmetry_equiv_pos_as_xyz
  1  'x, y, z'
loop_
 _atom_site_type_symbol
 _atom_site_label
 _atom_site_symmetry_multiplicity
 _atom_site_fract_x
 _atom_site_fract_y
 _atom_site_fract_z
 _atom_site_occupancy
  Li  Li0  1  0.64674255  0.64674255  0.45155467  1
  Li  Li1  1  0.45724346  0.45724346  0.84691838  1
  Li  Li2  1  0.54275654  0.54275654  0.15308162  1
  Li  Li3  1  0.35325745  0.35325745  0.54844533  1
  Ta  Ta0  1  0.05503708  0.05503708  0.64376625  1
  Ta  Ta1  1  0.94496292  0.94496292  0.35623375  1
  Ta  Ta2  1  0.76285442  0.76285442  0.74413266  1
  Ta  Ta3  1  0.23714558  0.23714558  0.25586734  1
  Ta  Ta4  1  0.14217974  0.14217974  0.95278502  1
  Ta  Ta5  1  0.85782026  0.85782026  0.04721498  1
  N  N0  1  0.56826214  0.56826214  0.65579990  1
  N  N1  1  0.43173786  0.43173786  0.34420010  1
  N  N2  1  0.86148477  0.86148477  0.55358815  1
  N  N3  1  0.04638417  0.04638417  0.15375598  1
  N  N4  1  0.95361583  0.95361583  0.84624402  1
  N  N5  1  0.13851523  0.13851523  0.44641185  1
  N  N6  1  0.34565981  0.34565981  0.04959614  1
  N  N7  1  0.65434019  0.65434019  0.95040386  1
  N  N8  1  0.75005634  0.75005634  0.25071419  1
  N  N9  1  0.24994366  0.24994366  0.74928581  1
loop_
_geom_bond_atom_site_label_1
_geom_bond_atom_site_label_2
_geom_bond_distance
_geom_bond_site_symmetry_2
Li0 N0 2.101563 1_555
Li0 N5 2.103141 1_565
Li0 N5 2.103141 1_655
Li0 N8 2.169786 1_555
Li0 N2 2.342824 1_555
Li0 N1 2.367947 1_555
Li1 N4 2.101284 1_455
Li1 N4 2.101284 1_545
Li1 N0 2.124049 1_555
Li1 N7 2.193296 1_555
Li1 N6 2.223061 1_556
Li1 N9 2.258008 1_555
Li2 N3 2.101284 1_655
Li2 N3 2.101284 1_565
Li2 N1 2.124049 1_555
Li2 N6 2.193296 1_555
Li2 N7 2.223061 1_554
Li2 N8 2.258008 1_555
Li3 N1 2.101563 1_555
Li3 N2 2.103141 1_545
Li3 N2 2.103141 1_455
Li3 N9 2.169786 1_555
Li3 N5 2.342824 1_555
Li3 N0 2.367947 1_555
N0 Ta2 2.105958 1_555
N0 Ta0 2.108302 1_565
N0 Ta0 2.108302 1_655
N1 Ta3 2.105958 1_555
N1 Ta1 2.108302 1_455
N1 Ta1 2.108302 1_545
N2 Ta1 2.058152 1_555
N2 Ta2 2.061280 1_555
N2 Ta0 2.104193 1_665
N3 Ta3 2.131715 1_555
N3 Ta5 2.133483 1_445
N3 Ta4 2.138573 1_554
N3 Ta1 2.175473 1_445
N4 Ta2 2.131715 1_555
N4 Ta4 2.133483 1_665
N4 Ta5 2.138573 1_556
N4 Ta0 2.175473 1_665
N5 Ta0 2.058152 1_555
N5 Ta3 2.061280 1_555
N5 Ta1 2.104193 1_445
N6 Ta5 2.104464 1_545
N6 Ta5 2.104464 1_455
N6 Ta4 2.220496 1_554
N6 Ta3 2.239235 1_555
N7 Ta4 2.104464 1_655
N7 Ta4 2.104464 1_565
N7 Ta5 2.220496 1_556
N7 Ta2 2.239235 1_555
N8 Ta3 2.105326 1_655
N8 Ta3 2.105326 1_565
N8 Ta1 2.183533 1_555
N8 Ta5 2.212351 1_555
N9 Ta2 2.105326 1_545
N9 Ta2 2.105326 1_455
N9 Ta0 2.183533 1_555
N9 Ta4 2.212351 1_555
