# generated using pymatgen
data_Ba3Ge4
_symmetry_space_group_name_H-M   'P 1'
_cell_length_a   8.67807800
_cell_length_b   8.67807800
_cell_length_c   12.25554300
_cell_angle_alpha   90.00000000
_cell_angle_beta   90.00000000
_cell_angle_gamma   90.00000000
_symmetry_Int_Tables_number   1
_chemical_formula_structural   Ba3Ge4
_chemical_formula_sum   'Ba12 Ge16'
_cell_volume   922.95315073
_cell_formula_units_Z   4
loop_
 _symmetry_equiv_pos_site_id
 _symmetry_equiv_pos_as_xyz
  1  'x, y, z'
loop_
 _atom_site_type_symbol
 _atom_site_label
 _atom_site_symmetry_multiplicity
 _atom_site_fract_x
 _atom_site_fract_y
 _atom_site_fract_z
 _atom_site_occupancy
  Ba  Ba0  1  0.50000000  0.00000000  0.75000000  1
  Ba  Ba1  1  0.50000000  0.00000000  0.25000000  1
  Ba  Ba2  1  0.00000000  0.50000000  0.75000000  1
  Ba  Ba3  1  0.00000000  0.50000000  0.25000000  1
  Ba  Ba4  1  0.00000000  0.00000000  0.66959400  1
  Ba  Ba5  1  0.50000000  0.50000000  0.16959400  1
  Ba  Ba6  1  0.50000000  0.50000000  0.83040600  1
  Ba  Ba7  1  0.00000000  0.00000000  0.33040600  1
  Ba  Ba8  1  0.16233000  0.83767000  0.00000000  1
  Ba  Ba9  1  0.66233000  0.66233000  0.50000000  1
  Ba  Ba10  1  0.33767000  0.33767000  0.50000000  1
  Ba  Ba11  1  0.83767000  0.16233000  0.00000000  1
  Ge  Ge0  1  0.80258200  0.80258200  0.85174300  1
  Ge  Ge1  1  0.19741800  0.19741800  0.85174300  1
  Ge  Ge2  1  0.80258200  0.80258200  0.14825700  1
  Ge  Ge3  1  0.30258200  0.69741800  0.35174300  1
  Ge  Ge4  1  0.69741800  0.30258200  0.35174300  1
  Ge  Ge5  1  0.69741800  0.30258200  0.64825700  1
  Ge  Ge6  1  0.30258200  0.69741800  0.64825700  1
  Ge  Ge7  1  0.19741800  0.19741800  0.14825700  1
  Ge  Ge8  1  0.80399600  0.58860900  0.00000000  1
  Ge  Ge9  1  0.19600400  0.41139100  0.00000000  1
  Ge  Ge10  1  0.58860900  0.80399600  0.00000000  1
  Ge  Ge11  1  0.08860900  0.69600400  0.50000000  1
  Ge  Ge12  1  0.41139100  0.19600400  0.00000000  1
  Ge  Ge13  1  0.30399600  0.91139100  0.50000000  1
  Ge  Ge14  1  0.69600400  0.08860900  0.50000000  1
  Ge  Ge15  1  0.91139100  0.30399600  0.50000000  1
loop_
_geom_bond_atom_site_label_1
_geom_bond_atom_site_label_2
_geom_bond_distance
_geom_bond_site_symmetry_2
Ba0 Ge5 3.374147 1_555
Ba0 Ge0 3.374147 1_545
Ba0 Ge6 3.374147 1_545
Ba0 Ge1 3.374147 1_555
Ba0 Ge14 3.587740 1_555
Ba0 Ge10 3.587740 1_546
Ba0 Ge12 3.587740 1_556
Ba0 Ge13 3.587740 1_545
Ba1 Ge2 3.374147 1_545
Ba1 Ge7 3.374147 1_555
Ba1 Ge3 3.374147 1_545
Ba1 Ge4 3.374147 1_555
Ba1 Ge14 3.587740 1_555
Ba1 Ge12 3.587740 1_555
Ba1 Ge10 3.587740 1_545
Ba1 Ge13 3.587740 1_545
Ba2 Ge5 3.374147 1_455
Ba2 Ge0 3.374147 1_455
Ba2 Ge1 3.374147 1_555
Ba2 Ge6 3.374147 1_555
Ba2 Ge11 3.587740 1_555
Ba2 Ge9 3.587740 1_556
Ba2 Ge8 3.587740 1_456
Ba2 Ge15 3.587740 1_455
Ba3 Ge7 3.374147 1_555
Ba3 Ge3 3.374147 1_555
Ba3 Ge2 3.374147 1_455
Ba3 Ge4 3.374147 1_455
Ba3 Ge11 3.587740 1_555
Ba3 Ge8 3.587740 1_455
Ba3 Ge9 3.587740 1_555
Ba3 Ge15 3.587740 1_455
Ba4 Ge0 3.294463 1_445
Ba4 Ge1 3.294463 1_555
Ba4 Ge15 3.445416 1_455
Ba4 Ge13 3.445416 1_545
Ba4 Ge11 3.445416 1_545
Ba4 Ge14 3.445416 1_455
Ba4 Ge5 3.722680 1_455
Ba4 Ge6 3.722680 1_545
Ba5 Ge3 3.294463 1_555
Ba5 Ge4 3.294463 1_555
Ba5 Ge12 3.445416 1_555
Ba5 Ge9 3.445416 1_555
Ba5 Ge8 3.445416 1_555
Ba5 Ge10 3.445416 1_555
Ba5 Ge7 3.722680 1_555
Ba5 Ge2 3.722680 1_555
Ba6 Ge5 3.294463 1_555
Ba6 Ge6 3.294463 1_555
Ba6 Ge9 3.445416 1_556
Ba6 Ge12 3.445416 1_556
Ba6 Ge8 3.445416 1_556
Ba6 Ge10 3.445416 1_556
Ba6 Ge0 3.722680 1_555
Ba6 Ge1 3.722680 1_555
Ba7 Ge7 3.294463 1_555
Ba7 Ge2 3.294463 1_445
Ba7 Ge15 3.445416 1_455
Ba7 Ge13 3.445416 1_545
Ba7 Ge11 3.445416 1_545
Ba7 Ge14 3.445416 1_455
Ba7 Ge4 3.722680 1_455
Ba7 Ge3 3.722680 1_545
Ba8 Ge0 3.624981 1_454
Ba8 Ge2 3.624981 1_455
Ba8 Ge7 3.624981 1_565
Ba8 Ge1 3.624981 1_564
Ba8 Ge9 3.710807 1_555
Ba8 Ge10 3.710807 1_555
Ba8 Ge8 3.787011 1_455
Ba8 Ge12 3.787011 1_565
Ba9 Ge6 3.624981 1_555
Ba9 Ge5 3.624981 1_555
Ba9 Ge4 3.624981 1_555
Ba9 Ge3 3.624981 1_555
Ba9 Ge14 3.710807 1_565
Ba9 Ge11 3.710807 1_655
Ba9 Ge13 3.787011 1_555
Ba9 Ge15 3.787011 1_555
Ba10 Ge6 3.624981 1_555
Ba10 Ge5 3.624981 1_555
Ba10 Ge4 3.624981 1_555
Ba10 Ge3 3.624981 1_555
Ba10 Ge13 3.710807 1_545
Ba10 Ge15 3.710807 1_455
Ba10 Ge11 3.787011 1_555
Ba10 Ge14 3.787011 1_555
Ba11 Ge0 3.624981 1_544
Ba11 Ge2 3.624981 1_545
Ba11 Ge7 3.624981 1_655
Ba11 Ge1 3.624981 1_654
Ba11 Ge12 3.710807 1_555
Ba11 Ge8 3.710807 1_555
Ba11 Ge10 3.787011 1_545
Ba11 Ge9 3.787011 1_655
Ge0 Ge10 2.597983 1_556
Ge0 Ge8 2.597983 1_556
Ge1 Ge9 2.597983 1_556
Ge1 Ge12 2.597983 1_556
Ge2 Ge8 2.597983 1_555
Ge7 Ge9 2.597983 1_555
Ge10 Ge2 2.597983 1_555
Ge10 Ge8 2.643370 1_555
Ge11 Ge6 2.597983 1_555
Ge11 Ge3 2.597983 1_555
Ge11 Ge13 2.643370 1_555
Ge12 Ge7 2.597983 1_555
Ge12 Ge9 2.643370 1_555
Ge13 Ge6 2.597983 1_555
Ge13 Ge3 2.597983 1_555
Ge14 Ge5 2.597983 1_555
Ge14 Ge4 2.597983 1_555
Ge14 Ge15 2.643370 1_555
Ge15 Ge5 2.597983 1_555
Ge15 Ge4 2.597983 1_555
