# generated using pymatgen
data_LiCoPO4
_symmetry_space_group_name_H-M   'P 1'
_cell_length_a   5.49723759
_cell_length_b   6.25566500
_cell_length_c   8.23988913
_cell_angle_alpha   90.00007528
_cell_angle_beta   90.00026410
_cell_angle_gamma   90.00072800
_symmetry_Int_Tables_number   1
_chemical_formula_structural   LiCoPO4
_chemical_formula_sum   'Li4 Co4 P4 O16'
_cell_volume   283.36053200
_cell_formula_units_Z   4
loop_
 _symmetry_equiv_pos_site_id
 _symmetry_equiv_pos_as_xyz
  1  'x, y, z'
loop_
 _atom_site_type_symbol
 _atom_site_label
 _atom_site_symmetry_multiplicity
 _atom_site_fract_x
 _atom_site_fract_y
 _atom_site_fract_z
 _atom_site_occupancy
  Li  Li0  1  0.99999900  0.25000100  0.67030100  1
  Li  Li1  1  0.50000000  0.25000100  0.17030600  1
  Li  Li2  1  0.00000100  0.74999900  0.32969900  1
  Li  Li3  1  0.50000000  0.74999900  0.82969400  1
  Co  Co0  1  0.50000000  0.00000000  0.50000000  1
  Co  Co1  1  0.50000000  0.50000000  0.50000000  1
  Co  Co2  1  0.00000000  0.00000000  0.00000000  1
  Co  Co3  1  0.99999900  0.50000000  0.00000000  1
  P  P0  1  0.99999800  0.74999300  0.65004800  1
  P  P1  1  0.49999800  0.74999400  0.15006000  1
  P  P2  1  0.00000200  0.25000700  0.34995200  1
  P  P3  1  0.50000200  0.25000600  0.84994000  1
  O  O0  1  0.00000200  0.04666500  0.24488800  1
  O  O1  1  0.50000000  0.04666800  0.74488300  1
  O  O2  1  0.00000000  0.54666300  0.75511200  1
  O  O3  1  0.49999900  0.54667000  0.25511600  1
  O  O4  1  0.99999800  0.95333500  0.75511200  1
  O  O5  1  0.50000000  0.95333200  0.25511700  1
  O  O6  1  0.00000000  0.45333700  0.24488800  1
  O  O7  1  0.50000100  0.45333000  0.74488400  1
  O  O8  1  0.22830100  0.74999800  0.53379900  1
  O  O9  1  0.72830200  0.74999800  0.03380800  1
  O  O10  1  0.77169900  0.25000100  0.46620100  1
  O  O11  1  0.27169800  0.25000200  0.96619200  1
  O  O12  1  0.22831000  0.25000700  0.46620000  1
  O  O13  1  0.72830500  0.25000200  0.96619300  1
  O  O14  1  0.77169000  0.74999300  0.53380000  1
  O  O15  1  0.27169500  0.74999800  0.03380700  1
loop_
_geom_bond_atom_site_label_1
_geom_bond_atom_site_label_2
_geom_bond_distance
_geom_bond_site_symmetry_2
Li0 O2 1.983034 1_655
Li0 O4 1.983059 1_545
Li0 O10 2.098422 1_555
Li0 O12 2.098474 1_655
Li1 O3 1.983072 1_555
Li1 O5 1.983077 1_545
Li1 O11 2.098521 1_554
Li1 O13 2.098534 1_554
Li2 O6 1.983034 1_555
Li2 O0 1.983059 1_565
Li2 O8 2.098422 1_555
Li2 O14 2.098474 1_455
Li3 O7 1.983072 1_555
Li3 O1 1.983077 1_565
Li3 O9 2.098521 1_556
Li3 O15 2.098534 1_556
Co0 O1 2.038818 1_555
Co0 O5 2.038818 1_545
Co0 O10 2.180409 1_555
Co0 O8 2.180414 1_545
Co0 O12 2.180429 1_555
Co0 O14 2.180429 1_545
Co1 O3 2.038829 1_555
Co1 O7 2.038829 1_555
Co1 O12 2.180338 1_555
Co1 O14 2.180338 1_555
Co1 O8 2.180422 1_555
Co1 O10 2.180427 1_555
Co2 O0 2.038856 1_555
Co2 O4 2.038856 1_444
Co2 O11 2.180419 1_554
Co2 O9 2.180419 1_445
Co2 O13 2.180433 1_454
Co2 O15 2.180433 1_545
Co3 O6 2.038855 1_655
Co3 O2 2.038855 1_654
Co3 O13 2.180383 1_554
Co3 O15 2.180391 1_655
Co3 O9 2.180424 1_555
Co3 O11 2.180432 1_654
O0 P2 1.538683 1_555
O1 P3 1.538630 1_555
O2 P0 1.538623 1_455
O3 P1 1.538555 1_555
O4 P0 1.538683 1_555
O5 P1 1.538630 1_555
O6 P2 1.538623 1_555
O7 P3 1.538555 1_555
O8 P0 1.578815 1_455
O9 P1 1.578835 1_555
O10 P2 1.578815 1_655
O11 P3 1.578835 1_555
O12 P2 1.578825 1_555
O13 P3 1.578828 1_555
O14 P0 1.578825 1_555
O15 P1 1.578828 1_555
