# generated using pymatgen
data_Zr2InCo2
_symmetry_space_group_name_H-M   'P 1'
_cell_length_a   14.41052480
_cell_length_b   14.41052480
_cell_length_c   6.72911196
_cell_angle_alpha   90.00000000
_cell_angle_beta   90.00000000
_cell_angle_gamma   90.00000000
_symmetry_Int_Tables_number   1
_chemical_formula_structural   Zr2InCo2
_chemical_formula_sum   'Zr32 In16 Co32'
_cell_volume   1397.38909108
_cell_formula_units_Z   16
loop_
 _symmetry_equiv_pos_site_id
 _symmetry_equiv_pos_as_xyz
  1  'x, y, z'
loop_
 _atom_site_type_symbol
 _atom_site_label
 _atom_site_symmetry_multiplicity
 _atom_site_fract_x
 _atom_site_fract_y
 _atom_site_fract_z
 _atom_site_occupancy
  Zr  Zr0_0  1  0.33625411  0.08625410  0.25000000  1
  Zr  Zr0_1  1  0.33625411  0.08625410  0.75000000  1
  Zr  Zr0_2  1  0.33625411  0.58625410  0.25000000  1
  Zr  Zr0_3  1  0.33625411  0.58625410  0.75000000  1
  Zr  Zr0_4  1  0.83625410  0.08625410  0.25000000  1
  Zr  Zr0_5  1  0.83625410  0.08625410  0.75000000  1
  Zr  Zr0_6  1  0.83625410  0.58625410  0.25000000  1
  Zr  Zr0_7  1  0.83625410  0.58625410  0.75000000  1
  Zr  Zr1_0  1  0.08625410  0.16374590  0.25000000  1
  Zr  Zr1_1  1  0.08625410  0.16374590  0.75000000  1
  Zr  Zr1_2  1  0.08625410  0.66374590  0.25000000  1
  Zr  Zr1_3  1  0.08625410  0.66374590  0.75000000  1
  Zr  Zr1_4  1  0.58625410  0.16374590  0.25000000  1
  Zr  Zr1_5  1  0.58625410  0.16374590  0.75000000  1
  Zr  Zr1_6  1  0.58625410  0.66374590  0.25000000  1
  Zr  Zr1_7  1  0.58625410  0.66374590  0.75000000  1
  Zr  Zr2_0  1  0.41374590  0.33625411  0.25000000  1
  Zr  Zr2_1  1  0.41374590  0.33625411  0.75000000  1
  Zr  Zr2_2  1  0.41374590  0.83625410  0.25000000  1
  Zr  Zr2_3  1  0.41374590  0.83625410  0.75000000  1
  Zr  Zr2_4  1  0.91374589  0.33625411  0.25000000  1
  Zr  Zr2_5  1  0.91374589  0.33625411  0.75000000  1
  Zr  Zr2_6  1  0.91374589  0.83625410  0.25000000  1
  Zr  Zr2_7  1  0.91374589  0.83625410  0.75000000  1
  Zr  Zr3_0  1  0.16374590  0.41374590  0.25000000  1
  Zr  Zr3_1  1  0.16374590  0.41374590  0.75000000  1
  Zr  Zr3_2  1  0.16374590  0.91374589  0.25000000  1
  Zr  Zr3_3  1  0.16374590  0.91374589  0.75000000  1
  Zr  Zr3_4  1  0.66374590  0.41374590  0.25000000  1
  Zr  Zr3_5  1  0.66374590  0.41374590  0.75000000  1
  Zr  Zr3_6  1  0.66374590  0.91374589  0.25000000  1
  Zr  Zr3_7  1  0.66374590  0.91374589  0.75000000  1
  In  In0_0  1  0.00000000  0.00000000  0.00000000  1
  In  In0_1  1  0.00000000  0.00000000  0.50000000  1
  In  In0_2  1  0.00000000  0.50000000  0.00000000  1
  In  In0_3  1  0.00000000  0.50000000  0.50000000  1
  In  In0_4  1  0.50000000  0.00000000  0.00000000  1
  In  In0_5  1  0.50000000  0.00000000  0.50000000  1
  In  In0_6  1  0.50000000  0.50000000  0.00000000  1
  In  In0_7  1  0.50000000  0.50000000  0.50000000  1
  In  In1_0  1  0.25000000  0.25000000  0.00000000  1
  In  In1_1  1  0.25000000  0.25000000  0.50000000  1
  In  In1_2  1  0.25000000  0.75000000  0.00000000  1
  In  In1_3  1  0.25000000  0.75000000  0.50000000  1
  In  In1_4  1  0.75000000  0.25000000  0.00000000  1
  In  In1_5  1  0.75000000  0.25000000  0.50000000  1
  In  In1_6  1  0.75000000  0.75000000  0.00000000  1
  In  In1_7  1  0.75000000  0.75000000  0.50000000  1
  Co  Co0_0  1  0.19139739  0.05860262  0.00000000  1
  Co  Co0_1  1  0.19139739  0.05860262  0.50000000  1
  Co  Co0_2  1  0.19139739  0.55860262  0.00000000  1
  Co  Co0_3  1  0.19139739  0.55860262  0.50000000  1
  Co  Co0_4  1  0.69139739  0.05860262  0.00000000  1
  Co  Co0_5  1  0.69139739  0.05860262  0.50000000  1
  Co  Co0_6  1  0.69139739  0.55860262  0.00000000  1
  Co  Co0_7  1  0.69139739  0.55860262  0.50000000  1
  Co  Co1_0  1  0.05860262  0.30860262  0.00000000  1
  Co  Co1_1  1  0.05860262  0.30860262  0.50000000  1
  Co  Co1_2  1  0.05860262  0.80860261  0.00000000  1
  Co  Co1_3  1  0.05860262  0.80860261  0.50000000  1
  Co  Co1_4  1  0.55860262  0.30860262  0.00000000  1
  Co  Co1_5  1  0.55860262  0.30860262  0.50000000  1
  Co  Co1_6  1  0.55860262  0.80860261  0.00000000  1
  Co  Co1_7  1  0.55860262  0.80860261  0.50000000  1
  Co  Co2_0  1  0.30860262  0.44139739  0.00000000  1
  Co  Co2_1  1  0.30860262  0.44139739  0.50000000  1
  Co  Co2_2  1  0.30860262  0.94139739  0.00000000  1
  Co  Co2_3  1  0.30860262  0.94139739  0.50000000  1
  Co  Co2_4  1  0.80860261  0.44139739  0.00000000  1
  Co  Co2_5  1  0.80860261  0.44139739  0.50000000  1
  Co  Co2_6  1  0.80860261  0.94139739  0.00000000  1
  Co  Co2_7  1  0.80860261  0.94139739  0.50000000  1
  Co  Co3_0  1  0.44139739  0.19139739  0.00000000  1
  Co  Co3_1  1  0.44139739  0.19139739  0.50000000  1
  Co  Co3_2  1  0.44139739  0.69139739  0.00000000  1
  Co  Co3_3  1  0.44139739  0.69139739  0.50000000  1
  Co  Co3_4  1  0.94139739  0.19139739  0.00000000  1
  Co  Co3_5  1  0.94139739  0.19139739  0.50000000  1
  Co  Co3_6  1  0.94139739  0.69139739  0.00000000  1
  Co  Co3_7  1  0.94139739  0.69139739  0.50000000  1
loop_
_geom_bond_atom_site_label_1
_geom_bond_atom_site_label_2
_geom_bond_distance
_geom_bond_site_symmetry_2
In0_0 Zr1_1 3.153259 1_554
In0_0 Zr1_0 3.153259 1_555
In0_0 Zr0_4 3.153259 1_455
In0_0 Zr0_5 3.153259 1_454
In0_0 Zr3_2 3.153259 1_545
In0_0 Zr2_7 3.153259 1_444
In0_0 Zr2_6 3.153259 1_445
In0_0 Zr3_3 3.153259 1_544
In0_0 In0_1 3.364556 1_555
In0_0 In0_1 3.364556 1_554
In0_1 Zr0_5 3.153259 1_455
In0_1 Zr1_1 3.153259 1_555
In0_1 Zr1_0 3.153259 1_555
In0_1 Zr2_7 3.153259 1_445
In0_1 Zr0_4 3.153259 1_455
In0_1 Zr3_3 3.153259 1_545
In0_1 Zr3_2 3.153259 1_545
In0_1 Zr2_6 3.153259 1_445
In0_2 Zr3_0 3.153259 1_555
In0_2 Zr0_6 3.153259 1_455
In0_2 Zr3_1 3.153259 1_554
In0_2 Zr2_5 3.153259 1_454
In0_2 Zr0_7 3.153259 1_454
In0_2 Zr2_4 3.153259 1_455
In0_2 Zr1_2 3.153259 1_555
In0_2 Zr1_3 3.153259 1_554
In0_2 In0_3 3.364556 1_555
In0_2 In0_3 3.364556 1_554
In0_3 Zr1_3 3.153259 1_555
In0_3 Zr2_5 3.153259 1_455
In0_3 Zr3_0 3.153259 1_555
In0_3 Zr0_7 3.153259 1_455
In0_3 Zr3_1 3.153259 1_555
In0_3 Zr0_6 3.153259 1_455
In0_3 Zr2_4 3.153259 1_455
In0_3 Zr1_2 3.153259 1_555
In0_4 Zr1_4 3.153259 1_555
In0_4 Zr0_1 3.153259 1_554
In0_4 Zr0_0 3.153259 1_555
In0_4 Zr2_3 3.153259 1_544
In0_4 Zr1_5 3.153259 1_554
In0_4 Zr2_2 3.153259 1_545
In0_4 Zr3_6 3.153259 1_545
In0_4 Zr3_7 3.153259 1_544
In0_4 In0_5 3.364556 1_554
In0_4 In0_5 3.364556 1_555
In0_5 Zr0_1 3.153259 1_555
In0_5 Zr0_0 3.153259 1_555
In0_5 Zr2_3 3.153259 1_545
In0_5 Zr1_4 3.153259 1_555
In0_5 Zr1_5 3.153259 1_555
In0_5 Zr3_7 3.153259 1_545
In0_5 Zr2_2 3.153259 1_545
In0_5 Zr3_6 3.153259 1_545
In0_6 Zr2_0 3.153259 1_555
In0_6 Zr2_1 3.153259 1_554
In0_6 Zr0_3 3.153259 1_554
In0_6 Zr0_2 3.153259 1_555
In0_6 Zr1_7 3.153259 1_554
In0_6 Zr3_4 3.153259 1_555
In0_6 Zr3_5 3.153259 1_554
In0_6 Zr1_6 3.153259 1_555
In0_6 In0_7 3.364556 1_555
In0_6 In0_7 3.364556 1_554
In0_7 Zr0_3 3.153259 1_555
In0_7 Zr2_1 3.153259 1_555
In0_7 Zr2_0 3.153259 1_555
In0_7 Zr1_7 3.153259 1_555
In0_7 Zr0_2 3.153259 1_555
In0_7 Zr3_5 3.153259 1_555
In0_7 Zr1_6 3.153259 1_555
In0_7 Zr3_4 3.153259 1_555
In1_0 Zr3_0 3.153259 1_555
In1_0 Zr1_1 3.153259 1_554
In1_0 Zr0_0 3.153259 1_555
In1_0 Zr1_0 3.153259 1_555
In1_0 Zr2_0 3.153259 1_555
In1_0 Zr0_1 3.153259 1_554
In1_0 Zr2_1 3.153259 1_554
In1_0 Zr3_1 3.153259 1_554
In1_0 In1_1 3.364556 1_555
In1_0 In1_1 3.364556 1_554
In1_1 Zr1_1 3.153259 1_555
In1_1 Zr0_1 3.153259 1_555
In1_1 Zr3_1 3.153259 1_555
In1_1 Zr3_0 3.153259 1_555
In1_1 Zr1_0 3.153259 1_555
In1_1 Zr0_0 3.153259 1_555
In1_1 Zr2_0 3.153259 1_555
In1_1 Zr2_1 3.153259 1_555
In1_2 Zr3_2 3.153259 1_555
In1_2 Zr3_3 3.153259 1_554
In1_2 Zr1_2 3.153259 1_555
In1_2 Zr0_2 3.153259 1_555
In1_2 Zr2_2 3.153259 1_555
In1_2 Zr2_3 3.153259 1_554
In1_2 Zr1_3 3.153259 1_554
In1_2 Zr0_3 3.153259 1_554
In1_2 In1_3 3.364556 1_554
In1_2 In1_3 3.364556 1_555
In1_3 Zr3_3 3.153259 1_555
In1_3 Zr3_2 3.153259 1_555
In1_3 Zr2_3 3.153259 1_555
In1_3 Zr1_2 3.153259 1_555
In1_3 Zr1_3 3.153259 1_555
In1_3 Zr0_2 3.153259 1_555
In1_3 Zr2_2 3.153259 1_555
In1_3 Zr0_3 3.153259 1_555
In1_4 Zr2_4 3.153259 1_555
In1_4 Zr2_5 3.153259 1_554
In1_4 Zr0_4 3.153259 1_555
In1_4 Zr0_5 3.153259 1_554
In1_4 Zr1_4 3.153259 1_555
In1_4 Zr3_4 3.153259 1_555
In1_4 Zr3_5 3.153259 1_554
In1_4 Zr1_5 3.153259 1_554
In1_4 In1_5 3.364556 1_555
In1_4 In1_5 3.364556 1_554
In1_5 Zr2_4 3.153259 1_555
In1_5 Zr2_5 3.153259 1_555
In1_5 Zr0_4 3.153259 1_555
In1_5 Zr3_5 3.153259 1_555
In1_5 Zr0_5 3.153259 1_555
In1_5 Zr1_5 3.153259 1_555
In1_5 Zr1_4 3.153259 1_555
In1_5 Zr3_4 3.153259 1_555
In1_6 Zr2_7 3.153259 1_554
In1_6 Zr3_6 3.153259 1_555
In1_6 Zr2_6 3.153259 1_555
In1_6 Zr3_7 3.153259 1_554
In1_6 Zr1_7 3.153259 1_554
In1_6 Zr0_6 3.153259 1_555
In1_6 Zr0_7 3.153259 1_554
In1_6 Zr1_6 3.153259 1_555
In1_6 In1_7 3.364556 1_554
In1_6 In1_7 3.364556 1_555
In1_7 Zr3_7 3.153259 1_555
In1_7 Zr2_7 3.153259 1_555
In1_7 Zr3_6 3.153259 1_555
In1_7 Zr2_6 3.153259 1_555
In1_7 Zr0_7 3.153259 1_555
In1_7 Zr1_7 3.153259 1_555
In1_7 Zr0_6 3.153259 1_555
In1_7 Zr1_6 3.153259 1_555
Co0_0 Co2_2 2.388591 1_545
Co0_0 Zr0_0 2.710412 1_555
Co0_0 Zr0_1 2.710412 1_554
Co0_0 Zr3_2 2.710412 1_545
Co0_0 Zr3_3 2.710412 1_544
Co0_0 Zr1_0 2.724250 1_555
Co0_0 Zr1_1 2.724250 1_554
Co0_0 In1_0 2.884526 1_555
Co0_0 In0_0 2.884526 1_555
Co0_1 Co2_3 2.388591 1_545
Co0_1 Zr0_0 2.710412 1_555
Co0_1 Zr0_1 2.710412 1_555
Co0_1 Zr3_3 2.710412 1_545
Co0_1 Zr3_2 2.710412 1_545
Co0_1 Zr1_1 2.724250 1_555
Co0_1 Zr1_0 2.724250 1_555
Co0_1 In0_1 2.884526 1_555
Co0_1 In1_1 2.884526 1_555
Co0_2 Co2_0 2.388591 1_555
Co0_2 Zr0_2 2.710412 1_555
Co0_2 Zr0_3 2.710412 1_554
Co0_2 Zr3_0 2.710412 1_555
Co0_2 Zr3_1 2.710412 1_554
Co0_2 Zr1_2 2.724250 1_555
Co0_2 Zr1_3 2.724250 1_554
Co0_2 In1_2 2.884526 1_555
Co0_2 In0_2 2.884526 1_555
Co0_3 Co2_1 2.388591 1_555
Co0_3 Zr0_3 2.710412 1_555
Co0_3 Zr0_2 2.710412 1_555
Co0_3 Zr3_0 2.710412 1_555
Co0_3 Zr3_1 2.710412 1_555
Co0_3 Zr1_3 2.724250 1_555
Co0_3 Zr1_2 2.724250 1_555
Co0_3 In1_3 2.884526 1_555
Co0_3 In0_3 2.884526 1_555
Co0_4 Co2_6 2.388591 1_545
Co0_4 Zr0_4 2.710412 1_555
Co0_4 Zr0_5 2.710412 1_554
Co0_4 Zr3_6 2.710412 1_545
Co0_4 Zr3_7 2.710412 1_544
Co0_4 Zr1_4 2.724250 1_555
Co0_4 Zr1_5 2.724250 1_554
Co0_4 In1_4 2.884526 1_555
Co0_4 In0_4 2.884526 1_555
Co0_5 Co2_7 2.388591 1_545
Co0_5 Zr0_5 2.710412 1_555
Co0_5 Zr0_4 2.710412 1_555
Co0_5 Zr3_7 2.710412 1_545
Co0_5 Zr3_6 2.710412 1_545
Co0_5 Zr1_4 2.724250 1_555
Co0_5 Zr1_5 2.724250 1_555
Co0_5 In0_5 2.884526 1_555
Co0_5 In1_5 2.884526 1_555
Co0_6 Co2_4 2.388591 1_555
Co0_6 Zr0_6 2.710412 1_555
Co0_6 Zr0_7 2.710412 1_554
Co0_6 Zr3_4 2.710412 1_555
Co0_6 Zr3_5 2.710412 1_554
Co0_6 Zr1_6 2.724250 1_555
Co0_6 Zr1_7 2.724250 1_554
Co0_6 In1_6 2.884526 1_555
Co0_6 In0_6 2.884526 1_555
Co0_7 Co2_5 2.388591 1_555
Co0_7 Zr0_6 2.710412 1_555
Co0_7 Zr0_7 2.710412 1_555
Co0_7 Zr3_5 2.710412 1_555
Co0_7 Zr3_4 2.710412 1_555
Co0_7 Zr1_7 2.724250 1_555
Co0_7 Zr1_6 2.724250 1_555
Co0_7 In1_7 2.884526 1_555
Co0_7 In0_7 2.884526 1_555
Co1_0 Co3_4 2.388591 1_455
Co1_0 Zr1_0 2.710412 1_555
Co1_0 Zr1_1 2.710412 1_554
Co1_0 Zr2_4 2.710412 1_455
Co1_0 Zr2_5 2.710412 1_454
Co1_0 Zr3_0 2.724250 1_555
Co1_0 Zr3_1 2.724250 1_554
Co1_0 In0_2 2.884526 1_555
Co1_0 In1_0 2.884526 1_555
Co1_1 Co3_5 2.388591 1_455
Co1_1 Zr1_1 2.710412 1_555
Co1_1 Zr1_0 2.710412 1_555
Co1_1 Zr2_5 2.710412 1_455
Co1_1 Zr2_4 2.710412 1_455
Co1_1 Zr3_1 2.724250 1_555
Co1_1 Zr3_0 2.724250 1_555
Co1_1 In0_3 2.884526 1_555
Co1_1 In1_1 2.884526 1_555
Co1_2 Co3_6 2.388591 1_455
Co1_2 Zr1_2 2.710412 1_555
Co1_2 Zr1_3 2.710412 1_554
Co1_2 Zr2_6 2.710412 1_455
Co1_2 Zr2_7 2.710412 1_454
Co1_2 Zr3_2 2.724250 1_555
Co1_2 Zr3_3 2.724250 1_554
Co1_2 In1_2 2.884526 1_555
Co1_2 In0_0 2.884526 1_565
Co1_3 Co3_7 2.388591 1_455
Co1_3 Zr1_3 2.710412 1_555
Co1_3 Zr1_2 2.710412 1_555
Co1_3 Zr2_7 2.710412 1_455
Co1_3 Zr2_6 2.710412 1_455
Co1_3 Zr3_3 2.724250 1_555
Co1_3 Zr3_2 2.724250 1_555
Co1_3 In1_3 2.884526 1_555
Co1_3 In0_1 2.884526 1_565
Co1_4 Co3_0 2.388591 1_555
Co1_4 Zr1_4 2.710412 1_555
Co1_4 Zr2_0 2.710412 1_555
Co1_4 Zr2_1 2.710412 1_554
Co1_4 Zr1_5 2.710412 1_554
Co1_4 Zr3_4 2.724250 1_555
Co1_4 Zr3_5 2.724250 1_554
Co1_4 In1_4 2.884526 1_555
Co1_4 In0_6 2.884526 1_555
Co1_5 Co3_1 2.388591 1_555
Co1_5 Zr1_5 2.710412 1_555
Co1_5 Zr2_1 2.710412 1_555
Co1_5 Zr1_4 2.710412 1_555
Co1_5 Zr2_0 2.710412 1_555
Co1_5 Zr3_5 2.724250 1_555
Co1_5 Zr3_4 2.724250 1_555
Co1_5 In1_5 2.884526 1_555
Co1_5 In0_7 2.884526 1_555
Co1_6 Co3_2 2.388591 1_555
Co1_6 Zr1_6 2.710412 1_555
Co1_6 Zr1_7 2.710412 1_554
Co1_6 Zr2_2 2.710412 1_555
Co1_6 Zr2_3 2.710412 1_554
Co1_6 Zr3_6 2.724250 1_555
Co1_6 Zr3_7 2.724250 1_554
Co1_6 In1_6 2.884526 1_555
Co1_6 In0_4 2.884526 1_565
Co1_7 Co3_3 2.388591 1_555
Co1_7 Zr1_6 2.710412 1_555
Co1_7 Zr1_7 2.710412 1_555
Co1_7 Zr2_3 2.710412 1_555
Co1_7 Zr2_2 2.710412 1_555
Co1_7 Zr3_7 2.724250 1_555
Co1_7 Zr3_6 2.724250 1_555
Co1_7 In1_7 2.884526 1_555
Co1_7 In0_5 2.884526 1_565
Co2_0 Zr0_2 2.710412 1_555
Co2_0 Zr0_3 2.710412 1_554
Co2_0 Zr3_0 2.710412 1_555
Co2_0 Zr3_1 2.710412 1_554
Co2_0 Zr2_0 2.724250 1_555
Co2_0 Zr2_1 2.724250 1_554
Co2_0 In0_6 2.884526 1_555
Co2_0 In1_0 2.884526 1_555
Co2_1 Zr0_3 2.710412 1_555
Co2_1 Zr0_2 2.710412 1_555
Co2_1 Zr3_1 2.710412 1_555
Co2_1 Zr3_0 2.710412 1_555
Co2_1 Zr2_1 2.724250 1_555
Co2_1 Zr2_0 2.724250 1_555
Co2_1 In0_7 2.884526 1_555
Co2_1 In1_1 2.884526 1_555
Co2_2 Zr0_0 2.710412 1_565
Co2_2 Zr0_1 2.710412 1_564
Co2_2 Zr3_2 2.710412 1_555
Co2_2 Zr3_3 2.710412 1_554
Co2_2 Zr2_2 2.724250 1_555
Co2_2 Zr2_3 2.724250 1_554
Co2_2 In0_4 2.884526 1_565
Co2_2 In1_2 2.884526 1_555
Co2_3 Zr0_1 2.710412 1_565
Co2_3 Zr0_0 2.710412 1_565
Co2_3 Zr3_3 2.710412 1_555
Co2_3 Zr3_2 2.710412 1_555
Co2_3 Zr2_2 2.724250 1_555
Co2_3 Zr2_3 2.724250 1_555
Co2_3 In0_5 2.884526 1_565
Co2_3 In1_3 2.884526 1_555
Co2_4 Zr3_4 2.710412 1_555
Co2_4 Zr0_6 2.710412 1_555
Co2_4 Zr3_5 2.710412 1_554
Co2_4 Zr0_7 2.710412 1_554
Co2_4 Zr2_4 2.724250 1_555
Co2_4 Zr2_5 2.724250 1_554
Co2_4 In1_4 2.884526 1_555
Co2_4 In0_2 2.884526 1_655
Co2_5 Zr3_5 2.710412 1_555
Co2_5 Zr0_7 2.710412 1_555
Co2_5 Zr3_4 2.710412 1_555
Co2_5 Zr0_6 2.710412 1_555
Co2_5 Zr2_5 2.724250 1_555
Co2_5 Zr2_4 2.724250 1_555
Co2_5 In0_3 2.884526 1_655
Co2_5 In1_5 2.884526 1_555
Co2_6 Zr3_6 2.710412 1_555
Co2_6 Zr3_7 2.710412 1_554
Co2_6 Zr0_4 2.710412 1_565
Co2_6 Zr0_5 2.710412 1_564
Co2_6 Zr2_6 2.724250 1_555
Co2_6 Zr2_7 2.724250 1_554
Co2_6 In0_0 2.884526 1_665
Co2_6 In1_6 2.884526 1_555
Co2_7 Zr3_7 2.710412 1_555
Co2_7 Zr3_6 2.710412 1_555
Co2_7 Zr0_5 2.710412 1_565
Co2_7 Zr0_4 2.710412 1_565
Co2_7 Zr2_6 2.724250 1_555
Co2_7 Zr2_7 2.724250 1_555
Co2_7 In1_7 2.884526 1_555
Co2_7 In0_1 2.884526 1_665
Co3_0 Zr1_4 2.710412 1_555
Co3_0 Zr2_0 2.710412 1_555
Co3_0 Zr1_5 2.710412 1_554
Co3_0 Zr2_1 2.710412 1_554
Co3_0 Zr0_0 2.724250 1_555
Co3_0 Zr0_1 2.724250 1_554
Co3_0 In1_0 2.884526 1_555
Co3_0 In0_4 2.884526 1_555
Co3_1 Zr1_5 2.710412 1_555
Co3_1 Zr1_4 2.710412 1_555
Co3_1 Zr2_0 2.710412 1_555
Co3_1 Zr2_1 2.710412 1_555
Co3_1 Zr0_1 2.724250 1_555
Co3_1 Zr0_0 2.724250 1_555
Co3_1 In0_5 2.884526 1_555
Co3_1 In1_1 2.884526 1_555
Co3_2 Zr1_6 2.710412 1_555
Co3_2 Zr2_2 2.710412 1_555
Co3_2 Zr1_7 2.710412 1_554
Co3_2 Zr2_3 2.710412 1_554
Co3_2 Zr0_2 2.724250 1_555
Co3_2 Zr0_3 2.724250 1_554
Co3_2 In1_2 2.884526 1_555
Co3_2 In0_6 2.884526 1_555
Co3_3 Zr2_3 2.710412 1_555
Co3_3 Zr1_7 2.710412 1_555
Co3_3 Zr1_6 2.710412 1_555
Co3_3 Zr2_2 2.710412 1_555
Co3_3 Zr0_3 2.724250 1_555
Co3_3 Zr0_2 2.724250 1_555
Co3_3 In1_3 2.884526 1_555
Co3_3 In0_7 2.884526 1_555
Co3_4 Zr1_0 2.710412 1_655
Co3_4 Zr2_4 2.710412 1_555
Co3_4 Zr2_5 2.710412 1_554
Co3_4 Zr1_1 2.710412 1_654
Co3_4 Zr0_4 2.724250 1_555
Co3_4 Zr0_5 2.724250 1_554
Co3_4 In0_0 2.884526 1_655
Co3_4 In1_4 2.884526 1_555
Co3_5 Zr2_5 2.710412 1_555
Co3_5 Zr1_0 2.710412 1_655
Co3_5 Zr1_1 2.710412 1_655
Co3_5 Zr2_4 2.710412 1_555
Co3_5 Zr0_5 2.724250 1_555
Co3_5 Zr0_4 2.724250 1_555
Co3_5 In0_1 2.884526 1_655
Co3_5 In1_5 2.884526 1_555
Co3_6 Zr2_6 2.710412 1_555
Co3_6 Zr1_2 2.710412 1_655
Co3_6 Zr2_7 2.710412 1_554
Co3_6 Zr1_3 2.710412 1_654
Co3_6 Zr0_6 2.724250 1_555
Co3_6 Zr0_7 2.724250 1_554
Co3_6 In1_6 2.884526 1_555
Co3_6 In0_2 2.884526 1_655
Co3_7 Zr2_7 2.710412 1_555
Co3_7 Zr1_3 2.710412 1_655
Co3_7 Zr2_6 2.710412 1_555
Co3_7 Zr1_2 2.710412 1_655
Co3_7 Zr0_7 2.724250 1_555
Co3_7 Zr0_6 2.724250 1_555
Co3_7 In1_7 2.884526 1_555
Co3_7 In0_3 2.884526 1_655
