# generated using pymatgen
data_Na2Zn3Ge(SO4)6
_symmetry_space_group_name_H-M   'P 1'
_cell_length_a   8.64596456
_cell_length_b   8.64596428
_cell_length_c   22.48659541
_cell_angle_alpha   90.00000000
_cell_angle_beta   90.00000000
_cell_angle_gamma   120.00000106
_symmetry_Int_Tables_number   1
_chemical_formula_structural   Na2Zn3Ge(SO4)6
_chemical_formula_sum   'Na6 Zn9 Ge3 S18 O72'
_cell_volume   1455.73130394
_cell_formula_units_Z   3
loop_
 _symmetry_equiv_pos_site_id
 _symmetry_equiv_pos_as_xyz
  1  'x, y, z'
loop_
 _atom_site_type_symbol
 _atom_site_label
 _atom_site_symmetry_multiplicity
 _atom_site_fract_x
 _atom_site_fract_y
 _atom_site_fract_z
 _atom_site_occupancy
  Na  Na0  1  0.00000000  0.00000000  0.50368439  1
  Na  Na1  1  0.00000000  0.00000000  0.00269783  1
  Na  Na2  1  0.66666700  0.33333300  0.83027970  1
  Na  Na3  1  0.66666700  0.33333300  0.33618108  1
  Na  Na4  1  0.33333300  0.66666700  0.17321993  1
  Na  Na5  1  0.33333300  0.66666700  0.66043136  1
  Zn  Zn0  1  0.00000000  0.00000000  0.64367751  1
  Zn  Zn1  1  0.00000000  0.00000000  0.15042129  1
  Zn  Zn2  1  0.66666700  0.33333300  0.67627939  1
  Zn  Zn3  1  0.66666700  0.33333300  0.18709777  1
  Zn  Zn4  1  0.66666700  0.33333300  0.98512327  1
  Zn  Zn5  1  0.66666700  0.33333300  0.48543367  1
  Zn  Zn6  1  0.33333300  0.66666700  0.51598538  1
  Zn  Zn7  1  0.33333300  0.66666700  0.32023321  1
  Zn  Zn8  1  0.33333300  0.66666700  0.81363529  1
  Ge  Ge0  1  0.00000000  0.00000000  0.35138207  1
  Ge  Ge1  1  0.00000000  0.00000000  0.84509749  1
  Ge  Ge2  1  0.33333300  0.66666700  0.01726192  1
  S  S0  1  0.28974902  0.00006979  0.25089049  1
  S  S1  1  0.71032077  0.71025098  0.25089049  1
  S  S2  1  -0.00006979  0.28967923  0.25089049  1
  S  S3  1  0.29085016  0.28911212  0.75115060  1
  S  S4  1  0.99826196  0.70914984  0.75115060  1
  S  S5  1  0.71088788  0.00173804  0.75115060  1
  S  S6  1  0.96521759  0.33593412  0.58313134  1
  S  S7  1  0.37071753  0.03478241  0.58313134  1
  S  S8  1  0.66406588  0.62928247  0.58313134  1
  S  S9  1  0.96853198  0.62975164  0.08046691  1
  S  S10  1  0.66122066  0.03146802  0.08046691  1
  S  S11  1  0.37024836  0.33877934  0.08046691  1
  S  S12  1  0.62952757  0.67228777  0.91596108  1
  S  S13  1  0.04275920  0.37047243  0.91596108  1
  S  S14  1  0.32771223  0.95724080  0.91596108  1
  S  S15  1  0.63732688  0.96507961  0.41362220  1
  S  S16  1  0.32775173  0.36267312  0.41362220  1
  S  S17  1  0.03492039  0.67224827  0.41362220  1
  O  O0  1  0.20335360  0.03033212  0.30588201  1
  O  O1  1  0.82697853  0.79664640  0.30588201  1
  O  O2  1  0.96966788  0.17302147  0.30588201  1
  O  O3  1  0.21019887  0.17462460  0.81001366  1
  O  O4  1  0.96442573  0.78980113  0.81001366  1
  O  O5  1  0.82537540  0.03557427  0.81001366  1
  O  O6  1  0.79813750  0.97707181  0.69988588  1
  O  O7  1  0.17893431  0.20186250  0.69988588  1
  O  O8  1  0.02292819  0.82106569  0.69988588  1
  O  O9  1  0.79014112  0.81529972  0.19667090  1
  O  O10  1  0.02515859  0.20985888  0.19667090  1
  O  O11  1  0.18470028  0.97484141  0.19667090  1
  O  O12  1  0.88682209  0.35978318  0.63915803  1
  O  O13  1  0.47296209  0.11317791  0.63915803  1
  O  O14  1  0.64021682  0.52703791  0.63915803  1
  O  O15  1  0.89410519  0.52129252  0.13445685  1
  O  O16  1  0.62718833  0.10589481  0.13445685  1
  O  O17  1  0.47870748  0.37281167  0.13445685  1
  O  O18  1  0.45007257  0.31484768  0.02590162  1
  O  O19  1  0.86477611  0.54992743  0.02590162  1
  O  O20  1  0.68515232  0.13522389  0.02590162  1
  O  O21  1  0.45479120  0.14277159  0.52947562  1
  O  O22  1  0.68798139  0.54520880  0.52947562  1
  O  O23  1  0.85722841  0.31201861  0.52947562  1
  O  O24  1  0.54963616  0.70738954  0.97204008  1
  O  O25  1  0.15775238  0.45036384  0.97204008  1
  O  O26  1  0.29261046  0.84224762  0.97204008  1
  O  O27  1  0.56245171  0.85526471  0.46725917  1
  O  O28  1  0.29281200  0.43754829  0.46725917  1
  O  O29  1  0.14473529  0.70718800  0.46725917  1
  O  O30  1  0.11456372  0.64715113  0.35907393  1
  O  O31  1  0.53258641  0.88543628  0.35907393  1
  O  O32  1  0.35284887  0.46741359  0.35907393  1
  O  O33  1  0.12510190  0.47878585  0.86363643  1
  O  O34  1  0.35368294  0.87489810  0.86363643  1
  O  O35  1  0.52121415  0.64631706  0.86363643  1
  O  O36  1  0.02193046  0.84399524  0.40705115  1
  O  O37  1  0.82206478  0.97806954  0.40705115  1
  O  O38  1  0.15600476  0.17793522  0.40705115  1
  O  O39  1  0.02858173  0.18744319  0.91146678  1
  O  O40  1  0.15886147  0.97141827  0.91146678  1
  O  O41  1  0.81255681  0.84113853  0.91146678  1
  O  O42  1  0.98233682  0.17321676  0.58713656  1
  O  O43  1  0.19087994  0.01766318  0.58713656  1
  O  O44  1  0.82678324  0.80912006  0.58713656  1
  O  O45  1  0.99820789  0.81294467  0.08605239  1
  O  O46  1  0.81473678  0.00179211  0.08605239  1
  O  O47  1  0.18705533  0.18526322  0.08605239  1
  O  O48  1  0.69430352  0.16359872  0.74966272  1
  O  O49  1  0.46929620  0.30569648  0.74966272  1
  O  O50  1  0.83640128  0.53070380  0.74966272  1
  O  O51  1  0.69763858  0.53284991  0.24805350  1
  O  O52  1  0.83521233  0.30236142  0.24805350  1
  O  O53  1  0.46715009  0.16478767  0.24805350  1
  O  O54  1  0.65218556  0.51622760  0.92396151  1
  O  O55  1  0.86404304  0.34781444  0.92396151  1
  O  O56  1  0.48377240  0.13595696  0.92396151  1
  O  O57  1  0.66689868  0.14784579  0.41937649  1
  O  O58  1  0.48094810  0.33310132  0.41937649  1
  O  O59  1  0.85215421  0.51905190  0.41937649  1
  O  O60  1  0.35695464  0.51130064  0.07372832  1
  O  O61  1  0.15434500  0.64304536  0.07372832  1
  O  O62  1  0.48869936  0.84565500  0.07372832  1
  O  O63  1  0.35268744  0.85507498  0.57836449  1
  O  O64  1  0.50238654  0.64731256  0.57836449  1
  O  O65  1  0.14492502  0.49761346  0.57836449  1
  O  O66  1  0.30584139  0.83946465  0.25798149  1
  O  O67  1  0.53362226  0.69415861  0.25798149  1
  O  O68  1  0.16053535  0.46637774  0.25798149  1
  O  O69  1  0.30269220  0.46492137  0.75911361  1
  O  O70  1  0.16222817  0.69730780  0.75911361  1
  O  O71  1  0.53507863  0.83777183  0.75911361  1
loop_
_geom_bond_atom_site_label_1
_geom_bond_atom_site_label_2
_geom_bond_distance
_geom_bond_site_symmetry_2
Na0 O44 2.452830 1_445
Na0 O42 2.452830 1_455
Na0 O43 2.452830 1_555
Na0 O38 2.613946 1_555
Na0 O36 2.613946 1_545
Na0 O37 2.613946 1_445
Na1 O45 2.470624 1_445
Na1 O47 2.470624 1_555
Na1 O46 2.470624 1_455
Na1 O39 2.548640 1_554
Na1 O41 2.548640 1_444
Na1 O40 2.548640 1_544
Na2 O50 2.418182 1_555
Na2 O48 2.418182 1_555
Na2 O49 2.418182 1_555
Na2 O56 2.674299 1_555
Na2 O54 2.674299 1_555
Na2 O55 2.674299 1_555
Na3 O57 2.464740 1_555
Na3 O59 2.464740 1_555
Na3 O58 2.464740 1_555
Na3 O51 2.551971 1_555
Na3 O53 2.551971 1_555
Na3 O52 2.551971 1_555
Na4 O68 2.505291 1_555
Na4 O66 2.505291 1_555
Na4 O67 2.505291 1_555
Na4 O62 2.669396 1_555
Na4 O60 2.669396 1_555
Na4 O61 2.669396 1_555
Na5 O63 2.411321 1_555
Na5 O65 2.411321 1_555
Na5 O64 2.411321 1_555
Na5 O69 2.752218 1_555
Na5 O71 2.752218 1_555
Na5 O70 2.752218 1_555
Ge0 O38 1.917815 1_555
Ge0 O36 1.917815 1_545
Ge0 O37 1.917816 1_445
Ge0 O2 1.935390 1_455
Ge0 O1 1.935390 1_445
Ge0 O0 1.935390 1_555
Ge1 O4 1.860337 1_445
Ge1 O3 1.860337 1_555
Ge1 O5 1.860337 1_455
Ge1 O39 2.124695 1_555
Ge1 O41 2.124695 1_445
Ge1 O40 2.124696 1_545
Ge2 O62 1.932025 1_555
Ge2 O60 1.932025 1_555
Ge2 O61 1.932025 1_555
Ge2 O25 1.999256 1_554
Ge2 O26 1.999256 1_554
Ge2 O24 1.999256 1_554
O0 S0 1.533290 1_555
O1 S1 1.533290 1_555
O2 S2 1.533290 1_655
O3 S3 1.589910 1_555
O4 S4 1.589910 1_555
O5 S5 1.589910 1_555
O6 S5 1.450617 1_565
O6 Zn0 2.082524 1_665
O7 S3 1.450617 1_555
O7 Zn0 2.082524 1_555
O8 S4 1.450617 1_455
O8 Zn0 2.082524 1_565
O9 S1 1.469988 1_555
O9 Zn1 2.006588 1_665
O10 S2 1.469988 1_555
O10 Zn1 2.006588 1_555
O11 S0 1.469988 1_565
O11 Zn1 2.006588 1_565
O12 S6 1.492957 1_555
O12 Zn2 1.984166 1_555
O13 S7 1.492957 1_555
O13 Zn2 1.984166 1_555
O14 S8 1.492957 1_555
O14 Zn2 1.984166 1_555
O15 S9 1.471027 1_555
O15 Zn3 2.171015 1_555
O16 S10 1.471027 1_555
O16 Zn3 2.171015 1_555
O17 S11 1.471027 1_555
O17 Zn3 2.171015 1_555
O18 S11 1.472220 1_555
O18 Zn4 2.018405 1_554
O19 S9 1.472220 1_555
O19 Zn4 2.018405 1_554
O20 S10 1.472220 1_555
O20 Zn4 2.018405 1_554
O21 S7 1.475521 1_555
O21 Zn5 2.008215 1_555
O22 S8 1.475521 1_555
O22 Zn5 2.008215 1_555
O23 S6 1.475521 1_555
O23 Zn5 2.008215 1_555
O24 S12 1.539169 1_555
O25 S13 1.539169 1_555
O26 S14 1.539169 1_555
O27 S15 1.469902 1_555
O27 Zn6 2.133876 1_555
O28 S16 1.469902 1_555
O28 Zn6 2.133876 1_555
O29 S17 1.469902 1_555
O29 Zn6 2.133876 1_555
O30 S17 1.474863 1_555
O30 Zn7 2.012412 1_555
O31 S15 1.474863 1_555
O31 Zn7 2.012412 1_555
O32 S16 1.474863 1_555
O32 Zn7 2.012412 1_555
O33 S13 1.449662 1_555
O33 Zn8 2.054181 1_555
O34 S14 1.449662 1_555
O34 Zn8 2.054181 1_555
O35 S12 1.449662 1_555
O35 Zn8 2.054181 1_555
O36 S17 1.551193 1_555
O37 S15 1.551202 1_555
O38 S16 1.551198 1_555
O39 S13 1.528220 1_555
O40 S14 1.528211 1_555
O41 S12 1.528216 1_555
O42 S6 1.489118 1_555
O42 Zn0 2.027661 1_655
O43 S7 1.489127 1_555
O43 Zn0 2.027661 1_555
O44 S8 1.489123 1_555
O44 Zn0 2.027661 1_665
O45 S9 1.477801 1_555
O45 Zn1 2.164678 1_665
O46 S10 1.477793 1_555
O46 Zn1 2.164678 1_655
O47 S11 1.477798 1_555
O47 Zn1 2.164678 1_555
O48 S5 1.476746 1_555
O48 Zn2 2.298765 1_555
O49 S3 1.476755 1_555
O49 Zn2 2.298765 1_555
O50 S4 1.476751 1_555
O50 Zn2 2.298765 1_555
O51 S1 1.483396 1_555
O51 Zn3 2.112876 1_555
O52 S2 1.483388 1_655
O52 Zn3 2.112876 1_555
O53 S0 1.483392 1_555
O53 Zn3 2.112876 1_555
O54 S12 1.468214 1_555
O54 Zn4 2.146085 1_555
O55 S13 1.468197 1_655
O55 Zn4 2.146085 1_555
O56 S14 1.468204 1_545
O56 Zn4 2.146085 1_555
O57 S15 1.474821 1_545
O57 Zn5 2.186673 1_555
O58 S16 1.474838 1_555
O58 Zn5 2.186673 1_555
O59 S17 1.474827 1_655
O59 Zn5 2.186673 1_555
O60 S11 1.559654 1_555
O61 S9 1.559637 1_455
O62 S10 1.559645 1_565
O63 S7 1.485834 1_565
O63 Zn6 2.092009 1_555
O64 S8 1.485851 1_555
O64 Zn6 2.092009 1_555
O65 S6 1.485841 1_455
O65 Zn6 2.092009 1_555
O66 S0 1.471786 1_565
O66 Zn7 2.145501 1_555
O67 S1 1.471795 1_555
O67 Zn7 2.145501 1_555
O68 S2 1.471791 1_555
O68 Zn7 2.145501 1_555
O69 S3 1.482376 1_555
O69 Zn8 2.038066 1_555
O70 S4 1.482367 1_455
O70 Zn8 2.038066 1_555
O71 S5 1.482372 1_565
O71 Zn8 2.038066 1_555
