# generated using pymatgen
data_Na3LaTi3(PO4)6
_symmetry_space_group_name_H-M   'P 1'
_cell_length_a   8.86587196
_cell_length_b   8.89441465
_cell_length_c   22.45542217
_cell_angle_alpha   89.87434847
_cell_angle_beta   90.11983812
_cell_angle_gamma   120.27598575
_symmetry_Int_Tables_number   1
_chemical_formula_structural   Na3LaTi3(PO4)6
_chemical_formula_sum   'Na9 La3 Ti9 P18 O72'
_cell_volume   1529.23717041
_cell_formula_units_Z   3
loop_
 _symmetry_equiv_pos_site_id
 _symmetry_equiv_pos_as_xyz
  1  'x, y, z'
loop_
 _atom_site_type_symbol
 _atom_site_label
 _atom_site_symmetry_multiplicity
 _atom_site_fract_x
 _atom_site_fract_y
 _atom_site_fract_z
 _atom_site_occupancy
  Na  Na0  1  0.35400428  0.34465200  0.24741275  1
  Na  Na1  1  0.62614896  0.62380536  0.75185958  1
  Na  Na2  1  0.96830305  0.29589361  0.41822358  1
  Na  Na3  1  -0.00029686  0.98821355  0.50632725  1
  Na  Na4  1  0.99974108  0.00035527  0.00054903  1
  Na  Na5  1  0.66716209  0.31918720  0.83944969  1
  Na  Na6  1  0.67021687  0.33553367  0.33032546  1
  Na  Na7  1  0.32936690  0.67969400  0.16292742  1
  Na  Na8  1  0.31510340  0.66671941  0.66637331  1
  La  La0  1  0.99581173  0.98229292  0.35829720  1
  La  La1  1  0.66825894  0.32187901  0.68510464  1
  La  La2  1  0.67887708  0.33412751  0.16870469  1
  Ti  Ti0  1  0.00189722  0.00160695  0.85780302  1
  Ti  Ti1  1  0.00286028  0.00452488  0.64749235  1
  Ti  Ti2  1  0.99645124  0.99732492  0.14611636  1
  Ti  Ti3  1  0.66636494  0.33522896  0.98358366  1
  Ti  Ti4  1  0.65746426  0.33364035  0.48400166  1
  Ti  Ti5  1  0.33498699  0.66527591  0.01301171  1
  Ti  Ti6  1  0.33706587  0.66636703  0.52070783  1
  Ti  Ti7  1  0.33637081  0.67671255  0.31167437  1
  Ti  Ti8  1  0.32482427  0.66813699  0.81511812  1
  P  P0  1  0.29098748  0.98932486  0.24660458  1
  P  P1  1  0.69225145  0.70582494  0.24648248  1
  P  P2  1  0.00799888  0.30195082  0.25248073  1
  P  P3  1  0.27145058  0.29146675  0.75407371  1
  P  P4  1  0.01876769  0.73335931  0.75373958  1
  P  P5  1  0.71336087  0.98682206  0.75491222  1
  P  P6  1  0.97192210  0.33029211  0.58002072  1
  P  P7  1  0.35805261  0.02608489  0.58159625  1
  P  P8  1  0.66945907  0.63780819  0.58498989  1
  P  P9  1  0.98102645  0.64620366  0.07870599  1
  P  P10  1  0.66537637  0.02291052  0.07886246  1
  P  P11  1  0.35786737  0.33399879  0.08095535  1
  P  P12  1  0.62113892  0.65916422  0.91368930  1
  P  P13  1  0.03787174  0.37734635  0.91563718  1
  P  P14  1  0.33986542  0.96104731  0.91550635  1
  P  P15  1  0.60239662  0.96399428  0.41999414  1
  P  P16  1  0.35916990  0.40067029  0.41802682  1
  P  P17  1  0.04166874  0.64574545  0.42132336  1
  O  O0  1  0.22579435  0.03099337  0.30338706  1
  O  O1  1  0.78985499  0.77030233  0.30478052  1
  O  O2  1  0.98993362  0.21366119  0.31268700  1
  O  O3  1  0.17474154  0.18256992  0.80909724  1
  O  O4  1  0.00949456  0.83090751  0.80881302  1
  O  O5  1  0.81943332  0.98906362  0.80966271  1
  O  O6  1  0.80606452  0.97479006  0.69725682  1
  O  O7  1  0.16991244  0.19626244  0.69618382  1
  O  O8  1  0.03065990  0.83666214  0.69608912  1
  O  O9  1  0.80109910  0.82369885  0.19250697  1
  O  O10  1  0.02386785  0.19241279  0.19968485  1
  O  O11  1  0.16971877  0.97256247  0.19269361  1
  O  O12  1  0.91618551  0.38041503  0.63701841  1
  O  O13  1  0.45944134  0.07844609  0.63962005  1
  O  O14  1  0.62637476  0.54237736  0.64462901  1
  O  O15  1  0.94357109  0.55596811  0.13874233  1
  O  O16  1  0.61032852  0.06100898  0.13813403  1
  O  O17  1  0.44733162  0.37798210  0.14153191  1
  O  O18  1  0.47408562  0.30976546  0.03283553  1
  O  O19  1  0.83955258  0.52918351  0.03073842  1
  O  O20  1  0.69248448  0.16379328  0.03073082  1
  O  O21  1  0.46790322  0.15927590  0.53038870  1
  O  O22  1  0.69025191  0.52551055  0.53431900  1
  O  O23  1  0.84605529  0.30473983  0.52670520  1
  O  O24  1  0.52487820  0.68473753  0.96557825  1
  O  O25  1  0.15663783  0.46874217  0.96871352  1
  O  O26  1  0.31346682  0.84082295  0.96773317  1
  O  O27  1  0.50127560  0.85690053  0.47387250  1
  O  O28  1  0.35953783  0.50897020  0.47069006  1
  O  O29  1  0.14440509  0.63394631  0.47382037  1
  O  O30  1  0.13514420  0.64081717  0.36239142  1
  O  O31  1  0.50427272  0.86620102  0.36147476  1
  O  O32  1  0.36755913  0.49441761  0.35807751  1
  O  O33  1  0.13198254  0.49569835  0.85956314  1
  O  O34  1  0.36368596  0.86925278  0.85899887  1
  O  O35  1  0.51210173  0.63516268  0.85574189  1
  O  O36  1  0.02529722  0.80650462  0.42886926  1
  O  O37  1  0.78853640  0.99388311  0.42313953  1
  O  O38  1  0.19051962  0.22339048  0.42238023  1
  O  O39  1  0.01537426  0.19347121  0.90908710  1
  O  O40  1  0.17815482  0.98405079  0.90928069  1
  O  O41  1  0.80821014  0.82122106  0.90942162  1
  O  O42  1  0.97162997  0.15639090  0.58897398  1
  O  O43  1  0.18564086  0.02849711  0.58820717  1
  O  O44  1  0.84308366  0.81310268  0.58985808  1
  O  O45  1  0.98029705  0.81946339  0.08434878  1
  O  O46  1  0.83986516  0.02343424  0.08621988  1
  O  O47  1  0.18034924  0.16267305  0.08606399  1
  O  O48  1  0.69674371  0.14842720  0.75785004  1
  O  O49  1  0.45695968  0.31933741  0.75466199  1
  O  O50  1  0.85018143  0.55564394  0.75406136  1
  O  O51  1  0.64980813  0.51777782  0.23998427  1
  O  O52  1  0.85661794  0.33422202  0.24606397  1
  O  O53  1  0.47418504  0.14420795  0.23896329  1
  O  O54  1  0.63846443  0.49535846  0.92421767  1
  O  O55  1  0.85663135  0.36019028  0.92336665  1
  O  O56  1  0.50375748  0.14313221  0.92404448  1
  O  O57  1  0.61967674  0.14668598  0.42172345  1
  O  O58  1  0.52130331  0.37764294  0.42379779  1
  O  O59  1  0.85733396  0.47854111  0.42175178  1
  O  O60  1  0.33204860  0.48745183  0.06408348  1
  O  O61  1  0.16224007  0.67640275  0.06178935  1
  O  O62  1  0.51763251  0.84074018  0.06115428  1
  O  O63  1  0.31851760  0.83962176  0.56874937  1
  O  O64  1  0.51981325  0.67343684  0.57114255  1
  O  O65  1  0.16244483  0.47686406  0.56924503  1
  O  O66  1  0.29019435  0.81502430  0.25387615  1
  O  O67  1  0.51749806  0.70873389  0.25116812  1
  O  O68  1  0.18749878  0.47833301  0.25348965  1
  O  O69  1  0.28972139  0.47537684  0.75571098  1
  O  O70  1  0.18125973  0.71052338  0.75659938  1
  O  O71  1  0.52983801  0.81839915  0.75576523  1
loop_
_geom_bond_atom_site_label_1
_geom_bond_atom_site_label_2
_geom_bond_distance
_geom_bond_site_symmetry_2
Na0 O51 2.281555 1_555
Na0 O68 2.320132 1_555
Na0 O17 2.486624 1_555
Na0 O53 2.503512 1_555
Na0 O0 2.729101 1_555
Na0 O10 2.747017 1_555
Na0 O32 2.795723 1_555
Na0 O67 2.803994 1_555
Na1 O71 2.285531 1_555
Na1 O49 2.343349 1_555
Na1 O50 2.351343 1_555
Na1 O14 2.516287 1_555
Na1 O35 2.566723 1_555
Na1 O69 2.583996 1_555
Na2 O59 2.286011 1_555
Na2 O37 2.334647 1_545
Na2 O38 2.363490 1_655
Na2 O2 2.517727 1_555
Na2 O57 2.680553 1_555
Na2 O23 2.685676 1_555
Na2 O29 2.883007 1_655
Na2 O30 2.930342 1_655
Na3 O43 2.370905 1_565
Na3 O44 2.385296 1_455
Na3 O36 2.464283 1_555
Na3 O42 2.476538 1_465
Na3 O37 2.660305 1_455
Na3 O38 2.686780 1_565
Na4 O45 2.422352 1_545
Na4 O47 2.450319 1_655
Na4 O46 2.461444 1_555
Na4 O41 2.623189 1_544
Na4 O39 2.633129 1_654
Na4 O40 2.639998 1_644
Na5 O56 2.422888 1_555
Na5 O55 2.424405 1_555
Na5 O48 2.479710 1_555
Na5 O54 2.561339 1_555
Na5 O49 2.661911 1_555
Na5 O50 2.699435 1_555
Na6 O52 2.518732 1_555
Na6 O59 2.540551 1_555
Na6 O57 2.542483 1_555
Na6 O58 2.608182 1_555
Na6 O51 2.656207 1_555
Na6 O53 2.672757 1_555
Na7 O66 2.485095 1_555
Na7 O67 2.515759 1_555
Na7 O68 2.578473 1_555
Na7 O61 2.701246 1_555
Na7 O62 2.766130 1_555
Na7 O60 2.812235 1_555
Na8 O70 2.478820 1_555
Na8 O69 2.563645 1_555
Na8 O71 2.622978 1_555
Na8 O63 2.666492 1_555
Na8 O65 2.672010 1_555
Na8 O64 2.788698 1_555
La0 O1 2.205165 1_555
La0 O0 2.232286 1_665
La0 O2 2.320616 1_565
La0 O36 2.328920 1_655
La0 O37 2.389701 1_555
La0 O38 2.433051 1_665
La1 O13 2.262439 1_555
La1 O12 2.263210 1_555
La1 O48 2.343577 1_555
La1 O14 2.352747 1_555
La1 O49 2.432899 1_555
La1 O50 2.438119 1_555
La2 O15 2.277043 1_555
La2 O16 2.293181 1_555
La2 O52 2.342668 1_555
La2 O17 2.353676 1_555
La2 O53 2.354817 1_555
La2 O51 2.394631 1_555
O0 P0 1.522631 1_545
O1 P1 1.513149 1_555
O2 P2 1.529555 1_655
O3 P3 1.536794 1_555
O3 Ti0 1.909818 1_555
O4 P4 1.538189 1_555
O4 Ti0 1.905424 1_565
O5 P5 1.540356 1_555
O5 Ti0 1.899795 1_665
O6 P5 1.567452 1_555
O6 Ti1 1.975979 1_665
O7 P3 1.564795 1_555
O7 Ti1 1.937002 1_555
O8 P4 1.558497 1_555
O8 Ti1 1.960497 1_565
O9 P1 1.574372 1_555
O9 Ti2 1.942495 1_555
O10 P2 1.586987 1_555
O10 Ti2 2.024745 1_445
O11 P0 1.573987 1_555
O11 Ti2 1.958488 1_455
O12 P6 1.519337 1_555
O13 P7 1.515991 1_555
O14 P8 1.526471 1_555
O15 P9 1.516674 1_555
O16 P10 1.515239 1_555
O17 P11 1.522319 1_555
O18 P11 1.582827 1_555
O18 Ti3 1.948854 1_554
O19 P9 1.581033 1_555
O19 Ti3 1.945553 1_554
O20 P10 1.577209 1_555
O20 Ti3 1.961507 1_554
O21 P7 1.584143 1_555
O21 Ti4 1.920105 1_555
O22 P8 1.586766 1_555
O22 Ti4 1.944332 1_555
O23 P6 1.571669 1_555
O23 Ti4 2.051066 1_555
O24 P12 1.529318 1_555
O24 Ti5 1.926570 1_556
O25 P13 1.525114 1_555
O25 Ti5 1.938919 1_556
O26 P14 1.522146 1_555
O26 Ti5 1.949545 1_556
O27 P15 1.520935 1_555
O27 Ti6 1.899574 1_555
O28 P16 1.525839 1_555
O28 Ti6 1.884183 1_555
O29 P17 1.523706 1_555
O29 Ti6 1.899074 1_555
O30 P17 1.575258 1_555
O30 Ti7 2.003588 1_555
O31 P15 1.573984 1_555
O31 Ti7 1.943852 1_555
O32 P16 1.563963 1_555
O32 Ti7 2.057825 1_555
O33 P13 1.582005 1_555
O33 Ti8 1.904695 1_555
O34 P14 1.581405 1_555
O34 Ti8 1.916855 1_555
O35 P12 1.568813 1_555
O35 Ti8 2.039250 1_555
O36 P17 1.518128 1_555
O37 P15 1.535039 1_555
O38 P16 1.534335 1_555
O39 P13 1.551824 1_555
O39 Ti0 2.013734 1_555
O40 P14 1.552977 1_555
O40 Ti0 2.010042 1_565
O41 P12 1.557920 1_555
O41 Ti0 2.022033 1_665
O42 P6 1.558031 1_555
O42 Ti1 1.998942 1_655
O43 P7 1.546961 1_555
O43 Ti1 2.025631 1_555
O44 P8 1.546748 1_555
O44 Ti1 2.037275 1_665
O45 P9 1.549781 1_555
O45 Ti2 2.056041 1_555
O46 P10 1.553119 1_555
O46 Ti2 2.026365 1_545
O47 P11 1.547247 1_555
O47 Ti2 2.054825 1_445
O48 P5 1.518589 1_545
O49 P3 1.534757 1_555
O50 P4 1.533081 1_655
O51 P1 1.525318 1_555
O52 P2 1.513903 1_655
O53 P0 1.519620 1_545
O54 P12 1.557629 1_555
O54 Ti3 2.052403 1_555
O55 P13 1.545705 1_655
O55 Ti3 2.086595 1_555
O56 P14 1.548655 1_545
O56 Ti3 2.074462 1_555
O57 P15 1.553907 1_545
O57 Ti4 2.068713 1_555
O58 P16 1.555952 1_555
O58 Ti4 1.976201 1_555
O59 P17 1.559479 1_655
O59 Ti4 2.110615 1_555
O60 P11 1.539877 1_555
O60 Ti5 1.941166 1_555
O61 P9 1.537737 1_455
O61 Ti5 1.927565 1_555
O62 P10 1.536177 1_565
O62 Ti5 1.917900 1_555
O63 P7 1.540179 1_565
O63 Ti6 1.956802 1_555
O64 P8 1.542445 1_555
O64 Ti6 1.949766 1_555
O65 P6 1.546357 1_455
O65 Ti6 1.947697 1_555
O66 P0 1.555008 1_555
O66 Ti7 1.965734 1_555
O67 P1 1.566306 1_555
O67 Ti7 2.013002 1_555
O68 P2 1.573810 1_555
O68 Ti7 2.053570 1_555
O69 P3 1.560898 1_555
O69 Ti8 2.070311 1_555
O70 P4 1.554158 1_555
O70 Ti8 1.990895 1_555
O71 P5 1.560174 1_555
O71 Ti8 2.102179 1_555
