# generated using pymatgen
data_Sr(InSe2)2
_symmetry_space_group_name_H-M   'P 1'
_cell_length_a   15.68309818
_cell_length_b   13.01992397
_cell_length_c   13.00434777
_cell_angle_alpha   74.13322108
_cell_angle_beta   53.00049083
_cell_angle_gamma   52.89944343
_symmetry_Int_Tables_number   1
_chemical_formula_structural   Sr(InSe2)2
_chemical_formula_sum   'Sr8 In16 Se32'
_cell_volume   1674.60370533
_cell_formula_units_Z   8
loop_
 _symmetry_equiv_pos_site_id
 _symmetry_equiv_pos_as_xyz
  1  'x, y, z'
loop_
 _atom_site_type_symbol
 _atom_site_label
 _atom_site_symmetry_multiplicity
 _atom_site_fract_x
 _atom_site_fract_y
 _atom_site_fract_z
 _atom_site_occupancy
  Sr  Sr0  1  0.75003267  0.74996892  0.74995953  1
  Sr  Sr1  1  0.49996872  0.50002774  0.50004335  1
  Sr  Sr2  1  0.25004279  0.24998205  0.24996183  1
  Sr  Sr3  1  0.99995618  0.00001799  0.00003601  1
  Sr  Sr4  1  0.00260966  0.49735444  0.00267770  1
  Sr  Sr5  1  0.49734841  0.00264305  0.49738308  1
  Sr  Sr6  1  0.24738880  0.75264628  0.24732391  1
  Sr  Sr7  1  0.75265321  0.24735739  0.75261666  1
  In  In0  1  0.26713673  0.09166150  0.98237074  1
  In  In1  1  0.65872440  0.98239461  0.09167635  1
  In  In2  1  0.98237836  0.65875510  0.26716688  1
  In  In3  1  0.09173900  0.26714283  0.65875945  1
  In  In4  1  0.98287214  0.15833131  0.26763250  1
  In  In5  1  0.59127513  0.26760421  0.15832148  1
  In  In6  1  0.26761806  0.59124696  0.98284857  1
  In  In7  1  0.15825940  0.98286183  0.59123654  1
  In  In8  1  0.51044622  0.76217902  0.23841020  1
  In  In9  1  0.48896588  0.23843066  0.76212608  1
  In  In10  1  0.23840892  0.48899007  0.51045030  1
  In  In11  1  0.76224116  0.51036844  0.48898231  1
  In  In12  1  0.73955137  0.48782227  0.01158256  1
  In  In13  1  0.76103872  0.01156036  0.48787760  1
  In  In14  1  0.01157653  0.76102155  0.73955147  1
  In  In15  1  0.48776592  0.73962252  0.76102328  1
  Se  Se0  1  0.76783874  0.80657360  0.47927027  1
  Se  Se1  1  0.94622071  0.47932709  0.80662707  1
  Se  Se2  1  0.47935737  0.94622063  0.76787290  1
  Se  Se3  1  0.80661142  0.76780905  0.94619150  1
  Se  Se4  1  0.48214122  0.44342333  0.77075053  1
  Se  Se5  1  0.30378709  0.77066269  0.44337512  1
  Se  Se6  1  0.77064982  0.30377417  0.48213110  1
  Se  Se7  1  0.44338645  0.48218567  0.30379215  1
  Se  Se8  1  0.97710121  0.45799929  0.27565513  1
  Se  Se9  1  0.28931024  0.27552952  0.45805849  1
  Se  Se10  1  0.27557222  0.28922570  0.97689527  1
  Se  Se11  1  0.45815329  0.97704184  0.28926934  1
  Se  Se12  1  0.27288838  0.79200843  0.97433565  1
  Se  Se13  1  0.96068177  0.97447683  0.79195234  1
  Se  Se14  1  0.97442674  0.96077705  0.27310030  1
  Se  Se15  1  0.79184135  0.27296527  0.96071739  1
  Se  Se16  1  0.71334414  0.03638101  0.21605381  1
  Se  Se17  1  0.03409033  0.21613360  0.03651474  1
  Se  Se18  1  0.21631760  0.03408882  0.71313597  1
  Se  Se19  1  0.03646216  0.71311792  0.03419705  1
  Se  Se20  1  0.53668738  0.21361565  0.03391987  1
  Se  Se21  1  0.21592978  0.03384677  0.21348781  1
  Se  Se22  1  0.03366958  0.21592701  0.53687732  1
  Se  Se23  1  0.21354461  0.53686871  0.21580981  1
  Se  Se24  1  0.71253057  0.53743597  0.71537591  1
  Se  Se25  1  0.03474855  0.71526124  0.53726534  1
  Se  Se26  1  0.71511721  0.03453200  0.71284199  1
  Se  Se27  1  0.53753015  0.71270942  0.03453772  1
  Se  Se28  1  0.53747843  0.71255810  0.53462932  1
  Se  Se29  1  0.21522886  0.53476347  0.71272850  1
  Se  Se30  1  0.53488676  0.21546699  0.53716275  1
  Se  Se31  1  0.71246849  0.53730104  0.21544716  1
loop_
_geom_bond_atom_site_label_1
_geom_bond_atom_site_label_2
_geom_bond_distance
_geom_bond_site_symmetry_2
In0 Se2 2.560171 1_545
In0 Se21 2.613776 1_556
In0 Se17 2.619351 1_556
In0 Se10 2.634047 1_555
In1 Se3 2.560417 1_554
In1 Se20 2.613962 1_565
In1 Se16 2.619098 1_565
In1 Se11 2.634423 1_555
In2 Se0 2.559891 1_555
In2 Se23 2.613856 1_655
In2 Se19 2.618741 1_655
In2 Se8 2.635021 1_555
In3 Se1 2.560180 1_455
In3 Se22 2.614234 1_555
In3 Se18 2.619524 1_555
In3 Se9 2.635032 1_555
In4 Se6 2.560188 1_555
In4 Se17 2.613721 1_655
In4 Se21 2.619475 1_655
In4 Se14 2.634042 1_545
In5 Se7 2.560282 1_555
In5 Se16 2.613956 1_555
In5 Se20 2.618963 1_555
In5 Se15 2.634464 1_554
In6 Se4 2.559819 1_555
In6 Se19 2.613794 1_556
In6 Se23 2.618706 1_556
In6 Se12 2.634951 1_555
In7 Se5 2.560252 1_555
In7 Se18 2.614373 1_565
In7 Se22 2.619563 1_565
In7 Se13 2.635134 1_455
In8 Se11 2.554798 1_555
In8 Se31 2.616844 1_555
In8 Se27 2.621551 1_555
In8 Se5 2.636749 1_555
In9 Se10 2.554921 1_555
In9 Se30 2.617103 1_555
In9 Se26 2.621609 1_555
In9 Se4 2.636690 1_555
In10 Se9 2.555341 1_555
In10 Se29 2.617573 1_555
In10 Se25 2.621356 1_555
In10 Se7 2.636783 1_555
In11 Se8 2.554722 1_555
In11 Se28 2.617012 1_555
In11 Se24 2.621636 1_555
In11 Se6 2.636197 1_555
In12 Se15 2.554776 1_554
In12 Se27 2.616918 1_555
In12 Se31 2.621511 1_555
In12 Se1 2.636746 1_554
In13 Se14 2.554953 1_545
In13 Se26 2.617138 1_555
In13 Se30 2.621638 1_555
In13 Se0 2.636777 1_545
In14 Se13 2.555371 1_455
In14 Se25 2.617679 1_555
In14 Se29 2.621195 1_555
In14 Se3 2.636693 1_455
In15 Se12 2.554739 1_555
In15 Se24 2.617019 1_555
In15 Se28 2.621616 1_555
In15 Se2 2.636242 1_555
Se0 Sr5 3.260249 1_565
Se0 Sr0 3.264820 1_555
Se1 Sr4 3.260148 1_656
Se1 Sr0 3.264321 1_555
Se2 Sr5 3.261120 1_565
Se2 Sr0 3.263859 1_555
Se3 Sr4 3.260781 1_656
Se3 Sr0 3.263666 1_555
Se4 Sr7 3.260379 1_555
Se4 Sr1 3.264902 1_555
Se5 Sr6 3.260206 1_555
Se5 Sr1 3.264242 1_555
Se6 Sr7 3.261031 1_555
Se6 Sr1 3.263938 1_555
Se7 Sr6 3.260696 1_555
Se7 Sr1 3.263962 1_555
Se8 Sr2 3.249144 1_655
Se8 Sr4 3.250803 1_655
Se9 Sr2 3.249372 1_555
Se9 Sr5 3.249569 1_555
Se10 Sr4 3.248954 1_556
Se10 Sr2 3.251886 1_556
Se11 Sr5 3.249046 1_565
Se11 Sr2 3.250276 1_565
Se12 Sr3 3.248984 1_466
Se12 Sr6 3.250995 1_556
Se13 Sr3 3.249253 1_566
Se13 Sr7 3.249536 1_565
Se14 Sr6 3.248986 1_655
Se14 Sr3 3.251859 1_565
Se15 Sr7 3.248837 1_555
Se15 Sr3 3.250414 1_556
Se16 Sr5 3.324532 1_555
Se16 Sr3 3.358854 1_555
Se17 Sr4 3.323158 1_555
Se17 Sr3 3.358860 1_455
Se18 Sr5 3.321496 1_555
Se18 Sr3 3.362137 1_456
Se19 Sr4 3.321521 1_555
Se19 Sr3 3.361119 1_465
Se20 Sr7 3.324197 1_554
Se20 Sr2 3.359240 1_555
Se21 Sr6 3.323048 1_545
Se21 Sr2 3.358832 1_555
Se22 Sr7 3.321403 1_455
Se22 Sr2 3.362219 1_555
Se23 Sr6 3.321572 1_555
Se23 Sr2 3.361009 1_555
Se24 Sr0 3.341813 1_555
Se24 Sr7 3.375534 1_555
Se25 Sr0 3.343154 1_455
Se25 Sr6 3.375691 1_555
Se26 Sr0 3.339527 1_545
Se26 Sr7 3.377946 1_555
Se27 Sr0 3.340930 1_554
Se27 Sr6 3.377859 1_555
Se28 Sr1 3.341885 1_555
Se28 Sr5 3.375564 1_565
Se29 Sr1 3.343269 1_555
Se29 Sr4 3.375743 1_556
Se30 Sr1 3.339479 1_555
Se30 Sr5 3.377987 1_555
Se31 Sr1 3.341101 1_555
Se31 Sr4 3.377790 1_655
