# generated using pymatgen
data_Na5La2Zn2P3(SO8)3
_symmetry_space_group_name_H-M   'P 1'
_cell_length_a   9.39926999
_cell_length_b   9.34435371
_cell_length_c   23.64490542
_cell_angle_alpha   89.21440752
_cell_angle_beta   90.23180359
_cell_angle_gamma   119.99058097
_symmetry_Int_Tables_number   1
_chemical_formula_structural   Na5La2Zn2P3(SO8)3
_chemical_formula_sum   'Na15 La6 Zn6 P9 S9 O72'
_cell_volume   1798.49697847
_cell_formula_units_Z   3
loop_
 _symmetry_equiv_pos_site_id
 _symmetry_equiv_pos_as_xyz
  1  'x, y, z'
loop_
 _atom_site_type_symbol
 _atom_site_label
 _atom_site_symmetry_multiplicity
 _atom_site_fract_x
 _atom_site_fract_y
 _atom_site_fract_z
 _atom_site_occupancy
  Na  Na0  1  0.63647007  0.02135329  0.25217677  1
  Na  Na1  1  0.99688314  0.63056015  0.24134485  1
  Na  Na2  1  0.62785726  0.62386264  0.74247399  1
  Na  Na3  1  0.99030111  0.34884741  0.74401568  1
  Na  Na4  1  0.30268312  0.35296223  0.58523716  1
  Na  Na5  1  0.66492587  0.96365917  0.57694616  1
  Na  Na6  1  0.29808571  0.95253198  0.07935675  1
  Na  Na7  1  0.69530238  0.02659873  0.90954910  1
  Na  Na8  1  0.96126762  0.28051922  0.41276393  1
  Na  Na9  1  0.97850352  0.96633446  0.48887648  1
  Na  Na10  1  0.00806772  0.98438300  0.98893835  1
  Na  Na11  1  0.62876095  0.30524541  0.82244067  1
  Na  Na12  1  0.63544245  0.31286430  0.32447000  1
  Na  Na13  1  0.31422356  0.63352060  0.15611105  1
  Na  Na14  1  0.32534447  0.66665758  0.65674768  1
  La  La0  1  0.99992105  0.99875429  0.65201208  1
  La  La1  1  0.00325638  0.00939192  0.14995403  1
  La  La2  1  0.67425443  0.35157387  0.98375967  1
  La  La3  1  0.67220368  0.34078179  0.48349903  1
  La  La4  1  0.34015931  0.67297916  0.31923979  1
  La  La5  1  0.33487130  0.67692307  0.81838533  1
  Zn  Zn0  1  0.01037857  0.01515866  0.34036458  1
  Zn  Zn1  1  0.04647366  0.01773028  0.84690109  1
  Zn  Zn2  1  0.66134155  0.32673329  0.67826255  1
  Zn  Zn3  1  0.67977306  0.33822890  0.18058985  1
  Zn  Zn4  1  0.28232753  0.65910076  0.01217073  1
  Zn  Zn5  1  0.35000523  0.67146545  0.51354684  1
  P  P0  1  0.30698899  0.01570198  0.24987821  1
  P  P1  1  0.98310768  0.29822518  0.25322406  1
  P  P2  1  0.31279821  0.30102805  0.74870179  1
  P  P3  1  0.70930641  0.01558182  0.75256566  1
  P  P4  1  0.97903095  0.35032444  0.58484523  1
  P  P5  1  0.64974519  0.62810700  0.58660364  1
  P  P6  1  0.97941397  0.63037594  0.08814229  1
  P  P7  1  0.32233541  0.96612860  0.92133949  1
  P  P8  1  0.65047328  0.96475265  0.41850600  1
  S  S0  1  0.70993709  0.69554812  0.25227148  1
  S  S1  1  0.98186366  0.68691278  0.75328713  1
  S  S2  1  0.37564892  0.02809361  0.58527137  1
  S  S3  1  0.64882046  0.02289250  0.08408770  1
  S  S4  1  0.37814202  0.35071880  0.08529091  1
  S  S5  1  0.64091779  0.68684049  0.91701163  1
  S  S6  1  0.03630115  0.35202929  0.91763227  1
  S  S7  1  0.31508956  0.35313884  0.42014052  1
  S  S8  1  0.04409652  0.68274573  0.41725842  1
  O  O0  1  0.20761297  0.02392212  0.30046291  1
  O  O1  1  0.81343229  0.78263746  0.30171555  1
  O  O2  1  0.96635403  0.19486184  0.30788361  1
  O  O3  1  0.21783043  0.18970353  0.79960210  1
  O  O4  1  0.97621332  0.78101020  0.80196580  1
  O  O5  1  0.81595207  0.03075355  0.80481210  1
  O  O6  1  0.78574591  0.99006256  0.69785822  1
  O  O7  1  0.21763120  0.23170469  0.69261353  1
  O  O8  1  0.00876297  0.78045542  0.69973151  1
  O  O9  1  0.78210138  0.79368822  0.19977347  1
  O  O10  1  0.00155553  0.21250286  0.20117329  1
  O  O11  1  0.20864478  0.98481800  0.19419398  1
  O  O12  1  0.88804496  0.35827385  0.63844875  1
  O  O13  1  0.47887619  0.11416420  0.63507542  1
  O  O14  1  0.63540610  0.52619224  0.64117202  1
  O  O15  1  0.89184490  0.53468678  0.14341234  1
  O  O16  1  0.63827351  0.11316736  0.13450980  1
  O  O17  1  0.47630015  0.36026039  0.13579260  1
  O  O18  1  0.45246992  0.32583156  0.03361556  1
  O  O19  1  0.87825607  0.54504839  0.03551129  1
  O  O20  1  0.66700599  0.11953829  0.03136124  1
  O  O21  1  0.44829268  0.12630927  0.53303970  1
  O  O22  1  0.66469604  0.54166332  0.53418727  1
  O  O23  1  0.87285414  0.32076513  0.53122461  1
  O  O24  1  0.54118352  0.69051700  0.96429033  1
  O  O25  1  0.13952029  0.44826590  0.96580048  1
  O  O26  1  0.30429277  0.86499107  0.97668298  1
  O  O27  1  0.55265683  0.86271065  0.47199001  1
  O  O28  1  0.30442238  0.44022915  0.47123860  1
  O  O29  1  0.14646384  0.68948528  0.46602723  1
  O  O30  1  0.11296921  0.66074433  0.36339998  1
  O  O31  1  0.55457155  0.88817190  0.36317051  1
  O  O32  1  0.33280953  0.45191118  0.36848856  1
  O  O33  1  0.10442784  0.44040951  0.86318714  1
  O  O34  1  0.34966641  0.88238911  0.86979098  1
  O  O35  1  0.55374684  0.66739432  0.86202570  1
  O  O36  1  0.02536313  0.83005214  0.41364448  1
  O  O37  1  0.82396488  0.98269850  0.41552614  1
  O  O38  1  0.15855798  0.19181336  0.41649661  1
  O  O39  1  0.01888499  0.18506970  0.91718337  1
  O  O40  1  0.16618855  0.98087889  0.91351197  1
  O  O41  1  0.80169289  0.84414520  0.91509216  1
  O  O42  1  0.00144340  0.19340789  0.58798435  1
  O  O43  1  0.20919318  0.00866273  0.58963977  1
  O  O44  1  0.79694229  0.80900926  0.58728233  1
  O  O45  1  0.01178018  0.81170160  0.08789820  1
  O  O46  1  0.79302219  0.99895052  0.08707333  1
  O  O47  1  0.21132952  0.19696830  0.08786432  1
  O  O48  1  0.70094207  0.17781099  0.74585151  1
  O  O49  1  0.48949384  0.32821487  0.74549322  1
  O  O50  1  0.82531605  0.52587185  0.75068557  1
  O  O51  1  0.69901028  0.53128109  0.24795980  1
  O  O52  1  0.82045721  0.30707601  0.24796275  1
  O  O53  1  0.48372830  0.16780683  0.24524295  1
  O  O54  1  0.66945480  0.54390137  0.92003869  1
  O  O55  1  0.86534752  0.32670707  0.92206448  1
  O  O56  1  0.48423352  0.13693575  0.92399346  1
  O  O57  1  0.67745456  0.14508313  0.42054789  1
  O  O58  1  0.45834321  0.32803110  0.42189752  1
  O  O59  1  0.87808410  0.52851685  0.42080644  1
  O  O60  1  0.35971718  0.49808670  0.07944191  1
  O  O61  1  0.15372586  0.64574955  0.08320061  1
  O  O62  1  0.49360705  0.86105173  0.08183926  1
  O  O63  1  0.36644082  0.86452174  0.58116515  1
  O  O64  1  0.48860229  0.64056799  0.58184432  1
  O  O65  1  0.15448972  0.50328446  0.57832653  1
  O  O66  1  0.33063222  0.85999419  0.25583447  1
  O  O67  1  0.54277624  0.67624669  0.25631814  1
  O  O68  1  0.12992156  0.47847377  0.25532625  1
  O  O69  1  0.32624173  0.47549134  0.75454986  1
  O  O70  1  0.11950181  0.64897012  0.75669046  1
  O  O71  1  0.53559144  0.85729162  0.75563358  1
loop_
_geom_bond_atom_site_label_1
_geom_bond_atom_site_label_2
_geom_bond_distance
_geom_bond_site_symmetry_2
Na0 O52 2.346730 1_555
Na0 O53 2.432476 1_555
Na0 O66 2.491954 1_545
Na0 O31 2.828085 1_545
Na0 O67 2.887452 1_545
Na0 O16 2.897846 1_555
Na0 O2 2.996258 1_555
Na1 O68 2.335161 1_655
Na1 O51 2.475246 1_555
Na1 O15 2.508685 1_555
Na1 O52 2.624764 1_555
Na1 O66 2.800430 1_655
Na2 O49 2.394184 1_555
Na2 O50 2.451921 1_555
Na2 O69 2.471251 1_555
Na2 O14 2.588706 1_555
Na2 O71 2.742012 1_555
Na2 O35 2.995358 1_555
Na3 O48 2.367872 1_555
Na3 O70 2.458635 1_655
Na3 O12 2.687256 1_555
Na3 O69 2.774702 1_655
Na3 O50 2.782009 1_555
Na3 O5 2.935869 1_555
Na3 O33 2.991126 1_655
Na4 O64 2.362831 1_555
Na4 O65 2.426491 1_555
Na4 O42 2.454113 1_555
Na4 O7 2.720470 1_555
Na4 O28 2.803146 1_555
Na4 O43 2.880797 1_555
Na5 O44 2.338440 1_555
Na5 O63 2.478038 1_555
Na5 O64 2.620070 1_555
Na5 O27 2.685137 1_555
Na5 O42 2.811026 1_665
Na6 O45 2.339048 1_555
Na6 O62 2.383230 1_555
Na6 O61 2.484446 1_555
Na6 O26 2.582566 1_554
Na6 O47 2.792576 1_565
Na6 O11 2.909499 1_555
Na7 O41 2.370888 1_545
Na7 O55 2.458536 1_555
Na7 O39 2.641234 1_655
Na7 O56 2.678713 1_555
Na7 O5 2.719672 1_555
Na8 O57 2.318252 1_555
Na8 O38 2.380533 1_655
Na8 O37 2.412415 1_545
Na8 O2 2.624199 1_555
Na8 O59 2.800421 1_555
Na8 O23 3.006283 1_555
Na9 O37 2.309911 1_555
Na9 O36 2.368382 1_655
Na9 O38 2.567519 1_665
Na9 O44 2.813845 1_555
Na10 O40 2.337160 1_555
Na10 O41 2.454157 1_455
Na10 O39 2.475714 1_565
Na10 O45 2.834099 1_556
Na11 O49 2.306674 1_555
Na11 O48 2.456529 1_555
Na11 O50 2.581425 1_555
Na11 O56 2.805647 1_555
Na12 O53 2.344302 1_555
Na12 O52 2.534114 1_555
Na12 O51 2.546306 1_555
Na12 O57 2.879029 1_555
Na12 O58 2.893733 1_555
Na13 O61 2.325241 1_555
Na13 O60 2.383484 1_555
Na13 O62 2.604826 1_555
Na13 O68 2.834423 1_555
Na14 O65 2.439345 1_555
Na14 O64 2.441043 1_555
Na14 O63 2.441834 1_555
Na14 O69 2.905240 1_555
Na14 O70 3.010262 1_555
Na14 O71 3.017112 1_555
La0 O6 2.255224 1_555
La0 O7 2.331457 1_665
La0 O42 2.345053 1_665
La0 O8 2.355135 1_655
La0 O44 2.407311 1_555
La0 O43 2.427002 1_665
La1 O10 2.272148 1_555
La1 O11 2.300875 1_545
La1 O9 2.353157 1_445
La1 O47 2.361810 1_555
La1 O45 2.407304 1_545
La1 O46 2.431531 1_445
La2 O19 2.240223 1_556
La2 O18 2.303028 1_556
La2 O54 2.346956 1_555
La2 O56 2.384491 1_555
La2 O20 2.399725 1_556
La2 O55 2.419889 1_555
La3 O22 2.271511 1_555
La3 O23 2.279242 1_555
La3 O21 2.357299 1_555
La3 O59 2.361714 1_555
La3 O57 2.393222 1_555
La3 O58 2.432701 1_555
La4 O31 2.274415 1_555
La4 O66 2.322294 1_555
La4 O32 2.328108 1_555
La4 O30 2.331110 1_555
La4 O67 2.409335 1_555
La4 O68 2.439818 1_555
La5 O34 2.231286 1_555
La5 O71 2.318786 1_555
La5 O35 2.338478 1_555
La5 O69 2.398326 1_555
La5 O70 2.398341 1_555
La5 O33 2.422161 1_555
O0 P0 1.546687 1_555
O0 Zn0 2.047903 1_555
O1 S0 1.483518 1_555
O1 Zn0 2.236643 1_665
O2 P1 1.563139 1_555
O2 Zn0 2.058528 1_655
O3 P2 1.540608 1_555
O3 Zn1 1.950657 1_555
O4 S1 1.475022 1_555
O4 Zn1 2.248628 1_665
O5 P3 1.550394 1_555
O5 Zn1 2.437783 1_655
O6 P3 1.560002 1_565
O7 P2 1.553462 1_555
O8 S1 1.477440 1_455
O9 S0 1.481778 1_555
O10 P1 1.534283 1_455
O11 P0 1.550864 1_565
O12 P4 1.555049 1_555
O12 Zn2 2.212324 1_555
O13 S2 1.487154 1_555
O13 Zn2 2.136678 1_555
O14 P5 1.558612 1_555
O14 Zn2 2.170261 1_555
O15 P6 1.557484 1_555
O15 Zn3 2.104238 1_555
O16 S3 1.501652 1_555
O16 Zn3 2.236387 1_555
O17 S4 1.482170 1_555
O17 Zn3 2.278866 1_555
O18 S4 1.487355 1_555
O19 P6 1.532379 1_555
O20 S3 1.488493 1_555
O21 S2 1.477509 1_555
O22 P5 1.533176 1_555
O23 P4 1.550325 1_555
O24 S5 1.473562 1_555
O24 Zn4 2.566472 1_556
O25 S6 1.481231 1_555
O25 Zn4 2.070952 1_556
O26 P7 1.562683 1_555
O26 Zn4 2.002049 1_556
O27 P8 1.566428 1_555
O27 Zn5 2.085975 1_555
O28 S7 1.497201 1_555
O28 Zn5 2.232370 1_555
O29 S8 1.480509 1_555
O29 Zn5 2.291375 1_555
O30 S8 1.493311 1_555
O31 P8 1.551709 1_555
O32 S7 1.479272 1_555
O33 S6 1.482627 1_555
O34 P7 1.547110 1_555
O35 S5 1.497904 1_555
O36 S8 1.473760 1_555
O36 Zn0 2.484618 1_565
O37 P8 1.555467 1_555
O37 Zn0 2.408224 1_665
O38 S7 1.493263 1_555
O38 Zn0 2.380749 1_555
O39 S6 1.485273 1_555
O39 Zn1 2.398767 1_555
O40 P7 1.551333 1_555
O40 Zn1 2.055123 1_565
O41 S5 1.491443 1_555
O42 P4 1.582898 1_455
O43 S2 1.486032 1_555
O44 P5 1.560263 1_555
O45 P6 1.564580 1_455
O46 S3 1.481235 1_565
O47 S4 1.507501 1_555
O48 P3 1.562646 1_555
O48 Zn2 2.254131 1_555
O49 P2 1.551540 1_555
O49 Zn2 2.275954 1_555
O50 S1 1.490497 1_555
O50 Zn2 2.443232 1_555
O51 S0 1.491200 1_555
O51 Zn3 2.361104 1_555
O52 P1 1.576108 1_555
O52 Zn3 2.173957 1_555
O53 P0 1.558386 1_555
O53 Zn3 2.300191 1_555
O54 S5 1.488784 1_555
O55 S6 1.506481 1_655
O56 P7 1.562347 1_545
O57 P8 1.575127 1_545
O58 S7 1.478132 1_555
O59 S8 1.506131 1_655
O60 S4 1.475941 1_555
O60 Zn4 2.518346 1_555
O61 P6 1.576213 1_455
O61 Zn4 2.038944 1_555
O62 S3 1.488007 1_565
O62 Zn4 2.555535 1_555
O63 S2 1.491610 1_565
O63 Zn5 2.373388 1_555
O64 P5 1.579521 1_555
O64 Zn5 2.175885 1_555
O65 P4 1.557558 1_455
O65 Zn5 2.294035 1_555
O66 P0 1.582273 1_565
O67 S0 1.492571 1_555
O68 P1 1.556200 1_455
O69 P2 1.578890 1_555
O70 S1 1.504248 1_455
O71 P3 1.562907 1_565
