# generated using pymatgen
data_MgZn2(FeO2)4
_symmetry_space_group_name_H-M   'P 1'
_cell_length_a   6.71510653
_cell_length_b   6.71510688
_cell_length_c   5.96733000
_cell_angle_alpha   63.62006676
_cell_angle_beta   63.62006524
_cell_angle_gamma   52.30787766
_symmetry_Int_Tables_number   1
_chemical_formula_structural   MgZn2(FeO2)4
_chemical_formula_sum   'Mg1 Zn2 Fe4 O8'
_cell_volume   185.01057810
_cell_formula_units_Z   1
loop_
 _symmetry_equiv_pos_site_id
 _symmetry_equiv_pos_as_xyz
  1  'x, y, z'
loop_
 _atom_site_type_symbol
 _atom_site_label
 _atom_site_symmetry_multiplicity
 _atom_site_fract_x
 _atom_site_fract_y
 _atom_site_fract_z
 _atom_site_occupancy
  Mg  Mg0  1  0.74788300  0.74788300  0.75211700  1
  Zn  Zn0  1  0.18411100  0.67442400  0.57073200  1
  Zn  Zn1  1  0.67442400  0.18411100  0.57073200  1
  Fe  Fe0  1  0.99609400  0.99609300  0.00390700  1
  Fe  Fe1  1  0.25388400  0.25388500  0.24611500  1
  Fe  Fe2  1  0.57735000  0.57735000  0.18493200  1
  Fe  Fe3  1  0.57735000  0.57735000  0.66036900  1
  O  O0  1  0.37273800  0.37273800  0.38247500  1
  O  O1  1  0.37273800  0.37273800  0.87204800  1
  O  O2  1  0.38639600  0.87122500  0.37118900  1
  O  O3  1  0.87122400  0.38639900  0.37118800  1
  O  O4  1  0.37125700  0.83792900  0.89540800  1
  O  O5  1  0.83793200  0.37125600  0.89540700  1
  O  O6  1  0.88830900  0.88830900  0.38259000  1
  O  O7  1  0.88830900  0.88830900  0.84079100  1
loop_
_geom_bond_atom_site_label_1
_geom_bond_atom_site_label_2
_geom_bond_distance
_geom_bond_site_symmetry_2
Mg0 O7 2.008126 1_555
Mg0 O6 2.008130 1_555
Mg0 O4 2.039787 1_555
Mg0 O5 2.039787 1_555
Fe0 O4 1.945146 1_654
Fe0 O5 1.945147 1_564
Fe0 O6 1.971761 1_555
Fe0 O7 1.971771 1_554
Fe1 O1 1.967038 1_554
Fe1 O0 1.967038 1_555
Fe1 O3 2.010364 1_455
Fe1 O2 2.010367 1_545
Fe2 O3 2.088577 1_555
Fe2 O2 2.088583 1_555
Fe2 O4 2.106902 1_554
Fe2 O5 2.106911 1_554
Fe2 O0 2.143644 1_555
Fe3 O3 2.088585 1_555
Fe3 O2 2.088591 1_555
Fe3 O4 2.106907 1_555
Fe3 O5 2.106916 1_555
Fe3 O1 2.143643 1_555
O0 Zn1 2.142556 1_555
O0 Zn0 2.142556 1_555
O1 Zn1 2.142556 1_555
O1 Zn0 2.142556 1_555
O2 Zn0 2.090196 1_555
O3 Zn1 2.090206 1_555
O6 Zn0 2.080634 1_655
O6 Zn1 2.080634 1_565
O7 Zn0 2.080634 1_655
O7 Zn1 2.080634 1_565
