# generated using pymatgen
data_Sr2La2MgRuO8
_symmetry_space_group_name_H-M   'P 1'
_cell_length_a   3.88716568
_cell_length_b   15.62081254
_cell_length_c   6.89685194
_cell_angle_alpha   106.56698659
_cell_angle_beta   106.36196978
_cell_angle_gamma   90.00807435
_symmetry_Int_Tables_number   1
_chemical_formula_structural   Sr2La2MgRuO8
_chemical_formula_sum   'Sr4 La4 Mg2 Ru2 O16'
_cell_volume   383.66363748
_cell_formula_units_Z   2
loop_
 _symmetry_equiv_pos_site_id
 _symmetry_equiv_pos_as_xyz
  1  'x, y, z'
loop_
 _atom_site_type_symbol
 _atom_site_label
 _atom_site_symmetry_multiplicity
 _atom_site_fract_x
 _atom_site_fract_y
 _atom_site_fract_z
 _atom_site_occupancy
  Sr  Sr0  1  0.35372245  0.08881086  0.70762863  1
  Sr  Sr1  1  0.35625125  0.34282910  0.71224664  1
  Sr  Sr2  1  0.64627755  0.16118914  0.29237137  1
  Sr  Sr3  1  0.64374875  0.90717090  0.28775336  1
  La  La0  1  0.36404748  0.58976126  0.72787985  1
  La  La1  1  0.35950266  0.83262806  0.71947242  1
  La  La2  1  0.64049734  0.41737194  0.28052758  1
  La  La3  1  0.63595252  0.66023874  0.27212015  1
  Mg  Mg0  1  0.00303110  0.75102059  0.00882887  1
  Mg  Mg1  1  0.99696890  0.49897941  0.99117113  1
  Ru  Ru0  1  0.00098175  0.00015123  0.00180112  1
  Ru  Ru1  1  0.99901825  0.24984877  -0.00180112  1
  O  O0  1  -0.00000000  0.12500000  0.00000000  1
  O  O1  1  0.00024437  0.37361154  0.00026669  1
  O  O2  1  -0.00000000  0.62500000  0.00000000  1
  O  O3  1  -0.00024437  0.87638846  0.99973331  1
  O  O4  1  0.16300993  0.04137948  0.32571952  1
  O  O5  1  0.16212502  0.29829363  0.32490354  1
  O  O6  1  0.17822550  0.54087681  0.35590750  1
  O  O7  1  0.17556641  0.78564075  0.35228911  1
  O  O8  1  0.49853247  0.99875718  0.99680573  1
  O  O9  1  0.50146753  0.25124282  0.00319427  1
  O  O10  1  0.50577677  0.50098741  0.00968260  1
  O  O11  1  0.49422323  0.74901259  0.99031740  1
  O  O12  1  0.83699007  0.20862052  0.67428048  1
  O  O13  1  0.82443359  0.46435925  0.64771089  1
  O  O14  1  0.82177450  0.70912319  0.64409250  1
  O  O15  1  0.83787498  0.95170637  0.67509646  1
loop_
_geom_bond_atom_site_label_1
_geom_bond_atom_site_label_2
_geom_bond_distance
_geom_bond_site_symmetry_2
La0 O6 2.350525 1_555
La0 O11 2.576116 1_555
La0 O2 2.594778 1_656
La0 O2 2.595232 1_556
La0 O10 2.633975 1_556
La0 O13 2.696383 1_455
La0 O13 2.699335 1_555
La0 O14 2.858141 1_555
La0 O14 2.860583 1_455
La1 O7 2.320078 1_555
La1 O11 2.511974 1_555
La1 O3 2.632227 1_555
La1 O3 2.633080 1_655
La1 O14 2.678808 1_455
La1 O14 2.678909 1_555
La1 O8 2.696583 1_555
La1 O15 2.764253 1_455
La1 O15 2.766902 1_555
La2 O13 2.320078 1_555
La2 O10 2.511974 1_555
La2 O1 2.632227 1_655
La2 O1 2.633080 1_555
La2 O6 2.678808 1_655
La2 O6 2.678909 1_555
La2 O9 2.696583 1_555
La2 O5 2.764253 1_655
La2 O5 2.766902 1_555
La3 O14 2.350525 1_555
La3 O10 2.576116 1_555
La3 O2 2.594778 1_555
La3 O2 2.595232 1_655
La3 O11 2.633975 1_554
La3 O7 2.696383 1_655
La3 O7 2.699335 1_555
La3 O6 2.858141 1_555
La3 O6 2.860583 1_655
Mg0 O11 1.945377 1_454
Mg0 O11 1.948835 1_554
Mg0 O2 1.951985 1_555
Mg0 O3 1.977078 1_554
Mg0 O7 2.174334 1_555
Mg0 O14 2.305449 1_454
Mg1 O10 1.945377 1_656
Mg1 O10 1.948835 1_556
Mg1 O2 1.951985 1_656
Mg1 O1 1.977078 1_656
Mg1 O13 2.174334 1_555
Mg1 O6 2.305449 1_656
O0 Ru1 1.953815 1_455
O0 Ru0 1.953815 1_555
O0 Sr2 2.681123 1_455
O0 Sr0 2.681123 1_554
O0 Sr2 2.681826 1_555
O0 Sr0 2.681826 1_454
O1 Ru1 1.929252 1_455
O1 Sr1 2.663915 1_554
O1 Sr1 2.664018 1_454
O3 Ru0 1.929252 1_566
O3 Sr3 2.663915 1_456
O3 Sr3 2.664018 1_556
O4 Ru0 2.046690 1_555
O4 Sr0 2.413114 1_555
O4 Sr2 2.751786 1_555
O4 Sr2 2.752512 1_455
O4 Sr3 2.814156 1_545
O4 Sr3 2.815278 1_445
O5 Ru1 2.067439 1_455
O5 Sr1 2.448322 1_555
O5 Sr2 2.851174 1_455
O5 Sr2 2.853771 1_555
O7 Sr3 2.835519 1_455
O7 Sr3 2.837488 1_555
O8 Ru0 1.943688 1_666
O8 Ru0 1.944064 1_566
O8 Sr0 2.690914 1_565
O8 Sr2 2.704366 1_566
O8 Sr3 2.718661 1_556
O9 Ru1 1.943688 1_455
O9 Ru1 1.944064 1_555
O9 Sr2 2.690914 1_555
O9 Sr0 2.704366 1_554
O9 Sr1 2.718661 1_554
O10 Sr1 2.662198 1_554
O11 Sr3 2.662198 1_556
O12 Ru1 2.046690 1_556
O12 Sr2 2.413114 1_555
O12 Sr0 2.751786 1_555
O12 Sr0 2.752512 1_655
O12 Sr1 2.814156 1_555
O12 Sr1 2.815278 1_655
O13 Sr1 2.835519 1_655
O13 Sr1 2.837488 1_555
O15 Ru0 2.067439 1_666
O15 Sr3 2.448322 1_555
O15 Sr0 2.851174 1_665
O15 Sr0 2.853771 1_565
