# generated using pymatgen
data_BaYMgCoCuO5
_symmetry_space_group_name_H-M   'P 1'
_cell_length_a   3.88233800
_cell_length_b   3.88234000
_cell_length_c   9.44270000
_cell_angle_alpha   90.00000000
_cell_angle_beta   90.00000000
_cell_angle_gamma   90.00000000
_symmetry_Int_Tables_number   1
_chemical_formula_structural   BaYMgCoCuO5
_chemical_formula_sum   'Ba1 Y1 Mg1 Co1 Cu1 O5'
_cell_volume   142.32562559
_cell_formula_units_Z   1
loop_
 _symmetry_equiv_pos_site_id
 _symmetry_equiv_pos_as_xyz
  1  'x, y, z'
loop_
 _atom_site_type_symbol
 _atom_site_label
 _atom_site_symmetry_multiplicity
 _atom_site_fract_x
 _atom_site_fract_y
 _atom_site_fract_z
 _atom_site_occupancy
  Ba  Ba0  1  0.00000000  0.00000000  0.03840600  1
  Y  Y0  1  0.00000000  0.00000000  0.41486300  1
  Mg  Mg0  1  0.00000000  0.00000000  0.69974500  1
  Co  Co0  1  0.49999900  0.49999900  0.72251900  1
  Cu  Cu0  1  0.49999900  0.49999900  0.26947800  1
  O  O0  1  0.00000000  0.49999900  0.62486400  1
  O  O1  1  0.49999900  0.00000000  0.62486300  1
  O  O2  1  0.00000000  0.49999900  0.28637100  1
  O  O3  1  0.49999900  0.00000000  0.28637100  1
  O  O4  1  0.49999900  0.49999900  0.94543700  1
loop_
_geom_bond_atom_site_label_1
_geom_bond_atom_site_label_2
_geom_bond_distance
_geom_bond_site_symmetry_2
Ba0 O4 2.882173 1_554
Ba0 O4 2.882178 1_454
Ba0 O4 2.882178 1_544
Ba0 O4 2.882183 1_444
Ba0 O3 3.041472 1_555
Ba0 O2 3.041473 1_555
Ba0 O3 3.041477 1_455
Ba0 O2 3.041478 1_545
Ba0 Mg0 3.197874 1_554
Mg0 O0 2.065935 1_555
Mg0 O1 2.065937 1_555
Mg0 O0 2.065942 1_545
Mg0 O1 2.065944 1_455
Co0 O4 2.104948 1_555
Co0 O0 2.149056 1_555
Co0 O1 2.149061 1_555
Co0 O0 2.149063 1_655
Co0 O1 2.149068 1_565
Cu0 O2 1.947708 1_555
Cu0 O3 1.947709 1_555
Cu0 O2 1.947716 1_655
Cu0 O3 1.947717 1_565
O0 Y0 2.774945 1_555
O0 Y0 2.774951 1_565
O1 Y0 2.774938 1_555
O1 Y0 2.774943 1_655
O2 Y0 2.289159 1_555
O2 Y0 2.289166 1_565
O3 Y0 2.289158 1_555
O3 Y0 2.289165 1_655
