# generated using pymatgen
data_MgV6O5F19
_symmetry_space_group_name_H-M   'P 1'
_cell_length_a   5.51574842
_cell_length_b   5.27566421
_cell_length_c   15.42975259
_cell_angle_alpha   89.37186143
_cell_angle_beta   100.20705551
_cell_angle_gamma   91.50497910
_symmetry_Int_Tables_number   1
_chemical_formula_structural   MgV6O5F19
_chemical_formula_sum   'Mg1 V6 O5 F19'
_cell_volume   441.72663474
_cell_formula_units_Z   1
loop_
 _symmetry_equiv_pos_site_id
 _symmetry_equiv_pos_as_xyz
  1  'x, y, z'
loop_
 _atom_site_type_symbol
 _atom_site_label
 _atom_site_symmetry_multiplicity
 _atom_site_fract_x
 _atom_site_fract_y
 _atom_site_fract_z
 _atom_site_occupancy
  Mg  Mg0  1  0.52546400  0.52130300  0.23034700  1
  V  V0  1  0.04609800  0.96072400  0.00244900  1
  V  V1  1  0.12742100  0.48878600  0.33933600  1
  V  V2  1  0.27095000  0.03172600  0.66494000  1
  V  V3  1  0.53426900  0.45768600  0.98912500  1
  V  V4  1  0.67991600  0.01493700  0.34239800  1
  V  V5  1  0.77592600  0.48391000  0.66482500  1
  O  O0  1  0.02878300  0.21393900  0.64451700  1
  O  O1  1  0.52766300  0.29638700  0.64173000  1
  O  O2  1  0.71084000  0.22905200  0.97227000  1
  O  O3  1  0.28117800  0.77684200  0.02493500  1
  O  O4  1  0.83452800  0.33153600  0.30316200  1
  F  F0  1  0.21911700  0.26537500  0.97257100  1
  F  F1  1  0.13638300  0.73129000  0.69446100  1
  F  F2  1  0.03946200  0.09642300  0.10762900  1
  F  F3  1  0.22540500  0.41462200  0.45109300  1
  F  F4  1  0.39905400  0.09335700  0.77639900  1
  F  F5  1  0.16571600  0.58753200  0.22282600  1
  F  F6  1  0.30094500  0.92040000  0.55944000  1
  F  F7  1  0.44833900  0.60563000  0.88474400  1
  F  F8  1  0.36720100  0.21856500  0.30562400  1
  F  F9  1  0.48552900  0.68985700  0.35465500  1
  F  F10  1  0.64284000  0.77558500  0.69105500  1
  F  F11  1  0.54007400  0.40938400  0.11368900  1
  F  F12  1  0.70485600  0.09508100  0.45504900  1
  F  F13  1  0.89005100  0.41004500  0.77650200  1
  F  F14  1  0.63352700  0.87963500  0.22420900  1
  F  F15  1  0.81802100  0.58824600  0.55870000  1
  F  F16  1  0.94513000  0.90975600  0.88852600  1
  F  F17  1  0.79240800  0.71889400  0.02566300  1
  F  F18  1  0.98623400  0.80849200  0.36267100  1
loop_
_geom_bond_atom_site_label_1
_geom_bond_atom_site_label_2
_geom_bond_distance
_geom_bond_site_symmetry_2
Mg0 O4 2.134676 1_555
O0 V2 1.648999 1_555
O0 V5 2.083492 1_455
O1 V5 1.656647 1_555
O1 V2 2.036581 1_555
O2 V3 1.621548 1_555
O2 V0 2.336277 1_646
O3 V0 1.625424 1_555
O3 V3 2.346564 1_554
O4 V1 1.797182 1_655
O4 V4 1.992378 1_555
F0 V0 1.940514 1_546
F0 V3 1.967729 1_555
F1 V2 1.820115 1_565
F1 V5 2.328056 1_455
F2 V0 1.787615 1_545
F3 V1 1.756330 1_555
F4 V2 1.769792 1_555
F5 V1 1.912085 1_555
F5 Mg0 2.006697 1_555
F6 V2 1.773045 1_565
F7 V3 1.774571 1_555
F8 V4 2.046523 1_555
F8 V1 2.100284 1_555
F8 Mg0 2.215271 1_555
F9 V4 2.023560 1_565
F9 Mg0 2.171534 1_555
F9 V1 2.193774 1_555
F10 V5 1.802438 1_555
F10 V2 2.456985 1_565
F11 Mg0 1.916337 1_555
F11 V3 1.930775 1_554
F12 V4 1.774055 1_555
F13 V5 1.769486 1_555
F14 V4 1.937571 1_565
F14 Mg0 1.973549 1_555
F15 V5 1.773842 1_555
F16 V0 1.768580 1_656
F17 V0 1.946240 1_655
F17 V3 1.968151 1_554
F18 V1 1.939743 1_655
F18 V4 2.010124 1_565
