# generated using pymatgen
data_FeAs2
_symmetry_space_group_name_H-M   'P 1'
_cell_length_a   2.87388077
_cell_length_b   5.24609782
_cell_length_c   5.96021767
_cell_angle_alpha   90.00000000
_cell_angle_beta   90.00000000
_cell_angle_gamma   90.00000000
_symmetry_Int_Tables_number   1
_chemical_formula_structural   FeAs2
_chemical_formula_sum   'Fe2 As4'
_cell_volume   89.86017321
_cell_formula_units_Z   2
loop_
 _symmetry_equiv_pos_site_id
 _symmetry_equiv_pos_as_xyz
  1  'x, y, z'
loop_
 _atom_site_type_symbol
 _atom_site_label
 _atom_site_symmetry_multiplicity
 _atom_site_fract_x
 _atom_site_fract_y
 _atom_site_fract_z
 _atom_site_occupancy
  Fe  Fe0  1  0.00000000  0.00000000  0.00000000  1
  Fe  Fe1  1  0.50000000  0.50000000  0.50000000  1
  As  As0  1  -0.00000000  0.17883368  0.36276647  1
  As  As1  1  -0.00000000  0.82116632  0.63723353  1
  As  As2  1  0.50000000  0.67883368  0.13723353  1
  As  As3  1  0.50000000  0.32116632  0.86276647  1
loop_
_geom_bond_atom_site_label_1
_geom_bond_atom_site_label_2
_geom_bond_distance
_geom_bond_site_symmetry_2
As0 Fe0 2.356936 1_555
As0 Fe1 2.360638 1_455
As0 Fe1 2.360638 1_555
As1 Fe0 2.356936 1_566
As1 Fe1 2.360638 1_455
As1 Fe1 2.360638 1_555
As2 Fe1 2.356936 1_555
As2 Fe0 2.360638 1_565
As2 Fe0 2.360638 1_665
As3 Fe1 2.356936 1_555
As3 Fe0 2.360638 1_656
As3 Fe0 2.360638 1_556
