# generated using pymatgen
data_LiCrP2O7
_symmetry_space_group_name_H-M   'P 1'
_cell_length_a   13.12522895
_cell_length_b   13.12522895
_cell_length_c   13.28819833
_cell_angle_alpha   27.56005311
_cell_angle_beta   27.56005311
_cell_angle_gamma   36.15606769
_symmetry_Int_Tables_number   1
_chemical_formula_structural   LiCrP2O7
_chemical_formula_sum   'Li4 Cr4 P8 O28'
_cell_volume   487.57284607
_cell_formula_units_Z   4
loop_
 _symmetry_equiv_pos_site_id
 _symmetry_equiv_pos_as_xyz
  1  'x, y, z'
loop_
 _atom_site_type_symbol
 _atom_site_label
 _atom_site_symmetry_multiplicity
 _atom_site_fract_x
 _atom_site_fract_y
 _atom_site_fract_z
 _atom_site_occupancy
  Li  Li0  1  0.23894700  0.01587600  0.39639700  1
  Li  Li1  1  0.76105300  0.98412400  0.60360300  1
  Li  Li2  1  0.98412400  0.76105300  0.10360300  1
  Li  Li3  1  0.01587600  0.23894700  0.89639700  1
  Cr  Cr0  1  0.87411900  0.40189000  0.36311300  1
  Cr  Cr1  1  0.59811000  0.12588100  0.13688700  1
  Cr  Cr2  1  0.40189000  0.87411900  0.86311300  1
  Cr  Cr3  1  0.12588100  0.59811000  0.63688700  1
  P  P0  1  0.75190000  0.90868900  0.97632100  1
  P  P1  1  0.24810000  0.09131100  0.02367900  1
  P  P2  1  0.66616800  0.58381300  0.17833100  1
  P  P3  1  0.41618700  0.33383200  0.32166900  1
  P  P4  1  0.90868900  0.75190000  0.47632100  1
  P  P5  1  0.58381300  0.66616800  0.67833100  1
  P  P6  1  0.09131100  0.24810000  0.52367900  1
  P  P7  1  0.33383200  0.41618700  0.82166900  1
  O  O0  1  0.90969400  0.72534600  0.04818500  1
  O  O1  1  0.33466500  0.18900400  0.60425500  1
  O  O2  1  0.89102800  0.07136800  0.65791500  1
  O  O3  1  0.92863200  0.10897200  0.84208500  1
  O  O4  1  0.07136800  0.89102800  0.15791500  1
  O  O5  1  0.10897200  0.92863200  0.34208500  1
  O  O6  1  0.66533500  0.81099600  0.39574500  1
  O  O7  1  0.72534600  0.90969400  0.54818500  1
  O  O8  1  0.55925400  0.46463800  0.62035300  1
  O  O9  1  0.01823300  0.57499200  0.60645400  1
  O  O10  1  0.79650600  0.61137800  0.61377300  1
  O  O11  1  0.21460500  0.60553900  0.69789700  1
  O  O12  1  0.39446100  0.78539500  0.80210300  1
  O  O13  1  0.53536200  0.44074600  0.87964700  1
  O  O14  1  0.38862200  0.20349400  0.88622700  1
  O  O15  1  0.44074600  0.53536200  0.37964700  1
  O  O16  1  0.81099600  0.66533500  0.89574500  1
  O  O17  1  0.09030600  0.27465400  0.95181500  1
  O  O18  1  0.42500800  0.98176700  0.89354600  1
  O  O19  1  0.18900400  0.33466500  0.10425500  1
  O  O20  1  0.57499200  0.01823300  0.10645400  1
  O  O21  1  0.61137800  0.79650600  0.11377300  1
  O  O22  1  0.46463800  0.55925400  0.12035300  1
  O  O23  1  0.60553900  0.21460500  0.19789700  1
  O  O24  1  0.78539500  0.39446100  0.30210300  1
  O  O25  1  0.20349400  0.38862200  0.38622700  1
  O  O26  1  0.98176700  0.42500800  0.39354600  1
  O  O27  1  0.27465400  0.09030600  0.45181500  1
loop_
_geom_bond_atom_site_label_1
_geom_bond_atom_site_label_2
_geom_bond_distance
_geom_bond_site_symmetry_2
Li0 O20 2.043964 1_555
Li0 O19 2.071266 1_555
Li0 O27 2.084008 1_555
Li0 O2 2.107116 1_455
Li1 O18 2.043964 1_555
Li1 O16 2.071266 1_555
Li1 O7 2.084008 1_555
Li1 O5 2.107116 1_655
Li2 O26 2.043964 1_555
Li2 O6 2.071266 1_555
Li2 O0 2.084008 1_555
Li2 O3 2.107116 1_564
Li3 O9 2.043964 1_555
Li3 O1 2.071266 1_555
Li3 O17 2.084008 1_555
Li3 O4 2.107116 1_546
Cr0 O8 1.972300 1_555
Cr0 O19 1.994477 1_655
Cr0 O0 1.997562 1_555
Cr0 O24 2.005076 1_555
Cr0 O2 2.017397 1_555
Cr0 O26 2.043247 1_555
Cr1 O13 1.972300 1_554
Cr1 O6 1.994477 1_545
Cr1 O27 1.997562 1_555
Cr1 O23 2.005076 1_555
Cr1 O3 2.017397 1_554
Cr1 O20 2.043247 1_555
Cr2 O22 1.972300 1_556
Cr2 O1 1.994477 1_565
Cr2 O7 1.997562 1_555
Cr2 O12 2.005076 1_555
Cr2 O4 2.017397 1_556
Cr2 O18 2.043247 1_555
Cr3 O15 1.972300 1_555
Cr3 O16 1.994477 1_455
Cr3 O17 1.997562 1_555
Cr3 O11 2.005076 1_555
Cr3 O5 2.017397 1_555
Cr3 O9 2.043247 1_555
O0 P0 1.541510 1_554
O1 P3 1.537297 1_555
O2 P0 1.540997 1_545
O3 P6 1.540997 1_655
O4 P4 1.540997 1_455
O5 P1 1.540997 1_565
O6 P5 1.537297 1_555
O7 P4 1.541510 1_555
O8 P7 1.517613 1_555
O9 P4 1.531999 1_455
O10 P4 1.596843 1_555
O10 P5 1.628539 1_555
O11 P7 1.538238 1_555
O12 P5 1.538238 1_555
O13 P5 1.517613 1_555
O14 P1 1.596843 1_556
O14 P7 1.628539 1_555
O15 P2 1.517613 1_555
O16 P2 1.537297 1_556
O17 P1 1.541510 1_556
O18 P1 1.531999 1_566
O19 P7 1.537297 1_554
O20 P0 1.531999 1_544
O21 P0 1.596843 1_554
O21 P2 1.628539 1_555
O22 P3 1.517613 1_555
O23 P3 1.538238 1_555
O24 P2 1.538238 1_555
O25 P6 1.596843 1_555
O25 P3 1.628539 1_555
O26 P6 1.531999 1_655
O27 P6 1.541510 1_555
