# generated using pymatgen
data_NaTi2In2P3(SO8)3
_symmetry_space_group_name_H-M   'P 1'
_cell_length_a   8.74451964
_cell_length_b   8.75563525
_cell_length_c   22.76181871
_cell_angle_alpha   90.28658911
_cell_angle_beta   89.95042299
_cell_angle_gamma   120.07751684
_symmetry_Int_Tables_number   1
_chemical_formula_structural   NaTi2In2P3(SO8)3
_chemical_formula_sum   'Na3 Ti6 In6 P9 S9 O72'
_cell_volume   1508.04823796
_cell_formula_units_Z   3
loop_
 _symmetry_equiv_pos_site_id
 _symmetry_equiv_pos_as_xyz
  1  'x, y, z'
loop_
 _atom_site_type_symbol
 _atom_site_label
 _atom_site_symmetry_multiplicity
 _atom_site_fract_x
 _atom_site_fract_y
 _atom_site_fract_z
 _atom_site_occupancy
  Na  Na0  1  0.67922048  0.33435218  0.83466281  1
  Na  Na1  1  0.66288792  0.34118587  0.33251042  1
  Na  Na2  1  0.34670121  0.67651902  0.16820535  1
  Ti  Ti0  1  0.00963815  0.99151693  0.35676571  1
  Ti  Ti1  1  0.99211723  0.00173529  0.85733408  1
  Ti  Ti2  1  0.99276703  0.99037353  0.64999225  1
  Ti  Ti3  1  0.99753665  0.99862157  0.14572942  1
  Ti  Ti4  1  0.33170321  0.65512309  0.01982878  1
  Ti  Ti5  1  0.32328820  0.65797773  0.51324494  1
  In  In0  1  0.67261174  0.33511600  0.68697461  1
  In  In1  1  0.65438552  0.32871275  0.18594688  1
  In  In2  1  0.66550239  0.32333254  0.98643328  1
  In  In3  1  0.66453205  0.33557502  0.48379903  1
  In  In4  1  0.33616883  0.66769512  0.31031250  1
  In  In5  1  0.32875041  0.66860293  0.80743535  1
  P  P0  1  0.28240318  -0.00048477  0.24970398  1
  P  P1  1  0.72233097  0.71835292  0.25052686  1
  P  P2  1  0.99428823  0.71796986  0.75234203  1
  P  P3  1  0.71894163  0.00244219  0.75167180  1
  P  P4  1  0.66330925  0.02962604  0.08429834  1
  P  P5  1  0.36592069  0.33074476  0.08354755  1
  P  P6  1  0.04341611  0.37809615  0.91446352  1
  P  P7  1  0.32918043  0.37248345  0.41364259  1
  P  P8  1  0.04179438  0.66450311  0.41453380  1
  S  S0  1  0.99685698  0.27995520  0.25004467  1
  S  S1  1  0.28226963  0.27750821  0.75067759  1
  S  S2  1  0.97015226  0.33335226  0.58339182  1
  S  S3  1  0.36533176  0.03003224  0.58428869  1
  S  S4  1  0.66245175  0.63428735  0.58420668  1
  S  S5  1  0.96868445  0.63349208  0.08383603  1
  S  S6  1  0.62467388  0.66675904  0.91583446  1
  S  S7  1  0.32899587  0.95714783  0.91564822  1
  S  S8  1  0.62786205  0.95636924  0.41701650  1
  O  O0  1  0.18776687  0.01147722  0.30738726  1
  O  O1  1  0.82775304  0.81697427  0.30741314  1
  O  O2  1  0.98607523  0.18225442  0.30400703  1
  O  O3  1  0.19759698  0.17476391  0.80426087  1
  O  O4  1  0.97884718  0.81533608  0.80703052  1
  O  O5  1  0.83408571  0.02628825  0.80732874  1
  O  O6  1  0.81784899  0.99288218  0.69546408  1
  O  O7  1  0.18049998  0.18885804  0.69630223  1
  O  O8  1  0.00602888  0.82561893  0.69527977  1
  O  O9  1  0.81808333  0.82583881  0.19514972  1
  O  O10  1  0.00741296  0.19157472  0.19580102  1
  O  O11  1  0.17609667  0.99347050  0.19512708  1
  O  O12  1  0.89870699  0.37980932  0.63523538  1
  O  O13  1  0.48323717  0.10608002  0.63619252  1
  O  O14  1  0.62146536  0.51866350  0.63598959  1
  O  O15  1  0.89554293  0.51798129  0.13529947  1
  O  O16  1  0.61298796  0.10265054  0.13772613  1
  O  O17  1  0.48956531  0.39031433  0.13667343  1
  O  O18  1  0.43970296  0.29136521  0.02844207  1
  O  O19  1  0.85920411  0.56128384  0.03065106  1
  O  O20  1  0.71395803  0.14569402  0.02990272  1
  O  O21  1  0.43767411  0.14784992  0.53285680  1
  O  O22  1  0.71084925  0.56381175  0.53281633  1
  O  O23  1  0.85187148  0.28834647  0.53199458  1
  O  O24  1  0.53845477  0.69173314  0.96868597  1
  O  O25  1  0.16377083  0.47415281  0.96908257  1
  O  O26  1  0.30883678  0.84932496  0.96801219  1
  O  O27  1  0.53419339  0.84292606  0.46939769  1
  O  O28  1  0.30761446  0.47327514  0.46911782  1
  O  O29  1  0.16250300  0.69030161  0.47011081  1
  O  O30  1  0.11973125  0.63169316  0.36004979  1
  O  O31  1  0.52035632  0.88801395  0.36354369  1
  O  O32  1  0.37230313  0.48794815  0.35992395  1
  O  O33  1  0.12108135  0.48685502  0.85919674  1
  O  O34  1  0.36666417  0.88593634  0.86210696  1
  O  O35  1  0.51835117  0.63532834  0.86251375  1
  O  O36  1  0.03291096  0.83694845  0.40922749  1
  O  O37  1  0.79924941  0.96542195  0.41166461  1
  O  O38  1  0.15460307  0.19537115  0.40678633  1
  O  O39  1  0.03454062  0.19542740  0.90631312  1
  O  O40  1  0.16442346  0.96587694  0.90816754  1
  O  O41  1  0.79959924  0.83263108  0.90993211  1
  O  O42  1  0.99538521  0.18191851  0.59516432  1
  O  O43  1  0.18856914  0.00870671  0.59608891  1
  O  O44  1  0.81961592  0.81257946  0.59539420  1
  O  O45  1  0.99283600  0.81033220  0.09369449  1
  O  O46  1  0.82033514  0.00115139  0.09824730  1
  O  O47  1  0.18157154  0.17456113  0.09684401  1
  O  O48  1  0.70502237  0.17030779  0.74841869  1
  O  O49  1  0.45802777  0.29050859  0.74750671  1
  O  O50  1  0.82219711  0.53818333  0.74909976  1
  O  O51  1  0.71360086  0.53826231  0.24925428  1
  O  O52  1  0.83647272  0.29692370  0.24803707  1
  O  O53  1  0.46468269  0.16815210  0.25129085  1
  O  O54  1  0.65418691  0.51631185  0.92312750  1
  O  O55  1  0.85632715  0.34778685  0.92262202  1
  O  O56  1  0.48031406  0.14021372  0.92104757  1
  O  O57  1  0.65325371  0.13531562  0.42574725  1
  O  O58  1  0.48286205  0.33989601  0.42476097  1
  O  O59  1  0.85707830  0.50733131  0.42416191  1
  O  O60  1  0.33924684  0.49435663  0.07053530  1
  O  O61  1  0.14950404  0.65752861  0.07384168  1
  O  O62  1  0.49979967  0.84230540  0.07019424  1
  O  O63  1  0.34530027  0.85506291  0.57169817  1
  O  O64  1  0.51002554  0.65719459  0.57164471  1
  O  O65  1  0.14637181  0.49093077  0.57112129  1
  O  O66  1  0.29198733  0.82897546  0.24960829  1
  O  O67  1  0.53939013  0.70428965  0.25014024  1
  O  O68  1  0.15973680  0.45629486  0.24920380  1
  O  O69  1  0.29690846  0.45130564  0.75196901  1
  O  O70  1  0.16213741  0.70849172  0.75176680  1
  O  O71  1  0.54519664  0.83072430  0.75408647  1
loop_
_geom_bond_atom_site_label_1
_geom_bond_atom_site_label_2
_geom_bond_distance
_geom_bond_site_symmetry_2
Na0 O55 2.498241 1_555
Na0 O48 2.502681 1_555
Na0 O50 2.516995 1_555
Na0 O56 2.616282 1_555
Na0 O54 2.637706 1_555
Na0 O49 2.660629 1_555
Na1 O51 2.455530 1_555
Na1 O53 2.462223 1_555
Na1 O52 2.593920 1_555
Na1 O59 2.617539 1_555
Na1 O58 2.619957 1_555
Na1 O57 2.765112 1_555
Na2 O67 2.442677 1_555
Na2 O66 2.461256 1_555
Na2 O68 2.580805 1_555
Na2 O62 2.637362 1_555
Na2 O61 2.707407 1_555
Na2 O60 2.711284 1_555
In0 O50 2.125737 1_555
In0 O48 2.132932 1_555
In0 O12 2.161956 1_555
In0 O13 2.179756 1_555
In0 O49 2.199604 1_555
In0 O14 2.206698 1_555
In1 O17 2.100976 1_555
In1 O16 2.124668 1_555
In1 O53 2.149294 1_555
In1 O51 2.175643 1_555
In1 O15 2.243735 1_555
In1 O52 2.249934 1_555
In2 O20 2.062598 1_556
In2 O18 2.082497 1_556
In2 O55 2.140267 1_555
In2 O19 2.160423 1_556
In2 O56 2.187669 1_555
In2 O54 2.265671 1_555
In3 O58 2.096525 1_555
In3 O59 2.101811 1_555
In3 O22 2.137643 1_555
In3 O21 2.151761 1_555
In3 O57 2.152638 1_555
In3 O23 2.178251 1_555
In4 O30 2.089259 1_555
In4 O32 2.090150 1_555
In4 O67 2.136818 1_555
In4 O66 2.149374 1_555
In4 O31 2.156182 1_555
In4 O68 2.203770 1_555
In5 O33 2.082462 1_555
In5 O70 2.089958 1_555
In5 O71 2.095749 1_555
In5 O34 2.150390 1_555
In5 O69 2.176430 1_555
In5 O35 2.212889 1_555
O0 P0 1.582193 1_555
O0 Ti0 1.856378 1_545
O1 P1 1.570046 1_555
O1 Ti0 1.917466 1_655
O2 S0 1.476076 1_555
O2 Ti0 2.153827 1_645
O3 S1 1.478790 1_555
O3 Ti1 2.066185 1_455
O4 P2 1.548876 1_555
O4 Ti1 1.944162 1_565
O5 P3 1.565618 1_555
O5 Ti1 1.885301 1_555
O6 P3 1.568908 1_565
O6 Ti2 1.855278 1_555
O7 S1 1.492053 1_555
O7 Ti2 1.987787 1_445
O8 P2 1.581431 1_455
O8 Ti2 1.827487 1_455
O9 P1 1.547833 1_555
O9 Ti3 1.910747 1_555
O10 S0 1.481086 1_455
O10 Ti3 1.998812 1_445
O11 P0 1.536950 1_565
O11 Ti3 1.943820 1_455
O12 S2 1.482209 1_555
O13 S3 1.486021 1_555
O14 S4 1.479905 1_555
O15 S5 1.471837 1_555
O16 P4 1.534493 1_555
O17 P5 1.527752 1_555
O18 P5 1.525016 1_555
O19 S5 1.472896 1_555
O20 P4 1.523945 1_555
O21 S3 1.480377 1_555
O22 S4 1.477105 1_555
O23 S2 1.477390 1_555
O24 S6 1.491473 1_555
O24 Ti4 2.036112 1_556
O25 P6 1.570091 1_555
O25 Ti4 1.911458 1_556
O26 S7 1.478860 1_555
O26 Ti4 2.164151 1_556
O27 S8 1.507886 1_555
O27 Ti5 2.009766 1_555
O28 P7 1.601272 1_555
O28 Ti5 1.845196 1_555
O29 P8 1.589328 1_555
O29 Ti5 1.850642 1_555
O30 P8 1.508706 1_555
O31 S8 1.467693 1_555
O32 P7 1.512871 1_555
O33 P6 1.520786 1_555
O34 S7 1.476494 1_555
O35 S6 1.468098 1_555
O36 P8 1.555548 1_555
O36 Ti0 1.895138 1_555
O37 S8 1.465584 1_555
O37 Ti0 2.139141 1_655
O38 P7 1.544254 1_555
O38 Ti0 1.950205 1_545
O39 P6 1.571972 1_555
O39 Ti1 1.899416 1_455
O40 S7 1.488846 1_555
O40 Ti1 2.046566 1_465
O41 S6 1.497310 1_555
O41 Ti1 1.993864 1_565
O42 S2 1.474924 1_555
O42 Ti2 2.086395 1_545
O43 S3 1.485498 1_555
O43 Ti2 2.045876 1_445
O44 S4 1.495568 1_555
O44 Ti2 1.970193 1_555
O45 S5 1.470094 1_555
O45 Ti3 2.008731 1_555
O46 P4 1.546964 1_555
O46 Ti3 1.899262 1_545
O47 P5 1.534271 1_555
O47 Ti3 1.931370 1_445
O48 P3 1.536536 1_555
O49 S1 1.484866 1_555
O50 P2 1.540321 1_555
O51 P1 1.540091 1_555
O52 S0 1.483292 1_555
O53 P0 1.537090 1_555
O54 S6 1.473889 1_555
O55 P6 1.531734 1_655
O56 S7 1.485787 1_545
O57 S8 1.480501 1_545
O58 P7 1.528756 1_555
O59 P8 1.524865 1_655
O60 P5 1.591711 1_555
O60 Ti4 1.851295 1_555
O61 S5 1.504156 1_455
O61 Ti4 2.019990 1_555
O62 P4 1.575555 1_565
O62 Ti4 1.931409 1_555
O63 S3 1.478667 1_565
O63 Ti5 2.104649 1_555
O64 S4 1.472340 1_555
O64 Ti5 2.109164 1_555
O65 S2 1.492715 1_455
O65 Ti5 2.003937 1_555
O66 P0 1.536890 1_565
O67 P1 1.541735 1_555
O68 S0 1.486224 1_455
O69 S1 1.461900 1_555
O70 P2 1.511101 1_455
O71 P3 1.510925 1_565
