# generated using pymatgen
data_Si2Ni3
_symmetry_space_group_name_H-M   'P 1'
_cell_length_a   8.07645943
_cell_length_b   8.07645943
_cell_length_c   6.87054356
_cell_angle_alpha   90.00000000
_cell_angle_beta   90.00000000
_cell_angle_gamma   97.03746245
_symmetry_Int_Tables_number   1
_chemical_formula_structural   Si2Ni3
_chemical_formula_sum   'Si16 Ni24'
_cell_volume   444.78371560
_cell_formula_units_Z   8
loop_
 _symmetry_equiv_pos_site_id
 _symmetry_equiv_pos_as_xyz
  1  'x, y, z'
loop_
 _atom_site_type_symbol
 _atom_site_label
 _atom_site_symmetry_multiplicity
 _atom_site_fract_x
 _atom_site_fract_y
 _atom_site_fract_z
 _atom_site_occupancy
  Si  Si0  1  0.59257659  0.59257659  0.25000000  1
  Si  Si1  1  0.40742341  0.40742341  0.75000000  1
  Si  Si2  1  0.84450394  0.84450394  0.75000000  1
  Si  Si3  1  0.15549606  0.15549606  0.25000000  1
  Si  Si4  1  0.49300822  0.18922518  0.45780596  1
  Si  Si5  1  0.50699178  0.81077482  0.95780596  1
  Si  Si6  1  0.81077482  0.50699178  0.95780596  1
  Si  Si7  1  0.18922518  0.49300822  0.45780596  1
  Si  Si8  1  0.49300822  0.18922518  0.04219404  1
  Si  Si9  1  0.50699178  0.81077482  0.54219404  1
  Si  Si10  1  0.81077482  0.50699178  0.54219404  1
  Si  Si11  1  0.18922518  0.49300822  0.04219404  1
  Si  Si12  1  0.17527621  0.93838853  0.75000000  1
  Si  Si13  1  0.82472379  0.06161147  0.25000000  1
  Si  Si14  1  0.06161147  0.82472379  0.25000000  1
  Si  Si15  1  0.93838853  0.17527621  0.75000000  1
  Ni  Ni0  1  0.00000000  0.00000000  0.50000000  1
  Ni  Ni1  1  0.00000000  0.00000000  -0.00000000  1
  Ni  Ni2  1  0.23467731  0.23467731  0.56151340  1
  Ni  Ni3  1  0.76532269  0.76532269  0.06151340  1
  Ni  Ni4  1  0.23467731  0.23467731  0.93848660  1
  Ni  Ni5  1  0.76532269  0.76532269  0.43848660  1
  Ni  Ni6  1  0.38280381  0.38280381  0.25000000  1
  Ni  Ni7  1  0.61719619  0.61719619  0.75000000  1
  Ni  Ni8  1  0.67796841  0.31495527  0.75000000  1
  Ni  Ni9  1  0.32203159  0.68504473  0.25000000  1
  Ni  Ni10  1  0.68504473  0.32203159  0.25000000  1
  Ni  Ni11  1  0.31495527  0.67796841  0.75000000  1
  Ni  Ni12  1  0.44334484  0.04980518  0.75000000  1
  Ni  Ni13  1  0.55665516  0.95019482  0.25000000  1
  Ni  Ni14  1  0.95019482  0.55665516  0.25000000  1
  Ni  Ni15  1  0.04980518  0.44334484  0.75000000  1
  Ni  Ni16  1  0.29099087  0.94607872  0.43994073  1
  Ni  Ni17  1  0.70900913  0.05392128  0.93994073  1
  Ni  Ni18  1  0.05392128  0.70900913  0.93994073  1
  Ni  Ni19  1  0.94607872  0.29099087  0.43994073  1
  Ni  Ni20  1  0.29099087  0.94607872  0.06005927  1
  Ni  Ni21  1  0.70900913  0.05392128  0.56005927  1
  Ni  Ni22  1  0.05392128  0.70900913  0.56005927  1
  Ni  Ni23  1  0.94607872  0.29099087  0.06005927  1
loop_
_geom_bond_atom_site_label_1
_geom_bond_atom_site_label_2
_geom_bond_distance
_geom_bond_site_symmetry_2
Ni0 Si12 2.318285 1_545
Ni0 Si14 2.318285 1_545
Ni0 Si15 2.318285 1_455
Ni0 Si13 2.318285 1_455
Ni0 Si3 2.391268 1_555
Ni0 Si2 2.391268 1_445
Ni0 Ni16 2.476700 1_545
Ni0 Ni19 2.476700 1_455
Ni0 Ni22 2.476700 1_545
Ni0 Ni21 2.476700 1_455
Ni0 Ni2 2.546201 1_555
Ni0 Ni5 2.546201 1_445
Ni1 Si12 2.318285 1_544
Ni1 Si13 2.318285 1_455
Ni1 Si14 2.318285 1_545
Ni1 Si15 2.318285 1_454
Ni1 Si3 2.391268 1_555
Ni1 Si2 2.391268 1_444
Ni1 Ni20 2.476700 1_545
Ni1 Ni23 2.476700 1_455
Ni1 Ni18 2.476700 1_544
Ni1 Ni17 2.476700 1_454
Ni1 Ni4 2.546201 1_554
Ni1 Ni3 2.546201 1_445
Ni2 Si1 2.256791 1_555
Ni2 Si7 2.276661 1_555
Ni2 Si4 2.276661 1_555
Ni2 Si3 2.301838 1_555
Ni2 Ni4 2.590011 1_555
Ni2 Ni6 2.663172 1_555
Ni2 Si15 2.711488 1_455
Ni2 Si12 2.711488 1_545
Ni3 Si0 2.256791 1_555
Ni3 Si6 2.276661 1_554
Ni3 Si5 2.276661 1_554
Ni3 Si2 2.301838 1_554
Ni3 Ni5 2.590011 1_555
Ni3 Ni7 2.663172 1_554
Ni3 Si13 2.711488 1_565
Ni3 Si14 2.711488 1_655
Ni4 Si1 2.256791 1_555
Ni4 Si11 2.276661 1_556
Ni4 Si8 2.276661 1_556
Ni4 Si3 2.301838 1_556
Ni4 Ni6 2.663172 1_556
Ni4 Si15 2.711488 1_455
Ni4 Si12 2.711488 1_545
Ni5 Si0 2.256791 1_555
Ni5 Si9 2.276661 1_555
Ni5 Si10 2.276661 1_555
Ni5 Si2 2.301838 1_555
Ni5 Ni7 2.663172 1_555
Ni5 Si13 2.711488 1_565
Ni5 Si14 2.711488 1_655
Ni6 Si0 2.244420 1_555
Ni6 Si8 2.369798 1_555
Ni6 Si11 2.369798 1_555
Ni6 Si4 2.369798 1_555
Ni6 Si7 2.369798 1_555
Ni6 Si3 2.432032 1_555
Ni6 Ni9 2.548166 1_555
Ni7 Si1 2.244420 1_555
Ni7 Si9 2.369798 1_555
Ni7 Si6 2.369798 1_555
Ni7 Si10 2.369798 1_555
Ni7 Si5 2.369798 1_555
Ni7 Si2 2.432032 1_555
Ni7 Ni8 2.548166 1_555
Ni8 Si6 2.277457 1_555
Ni8 Si10 2.277457 1_555
Ni8 Si1 2.394163 1_555
Ni8 Si15 2.505553 1_555
Ni8 Si4 2.630806 1_555
Ni8 Si8 2.630806 1_556
Ni9 Si7 2.277457 1_555
Ni9 Si11 2.277457 1_555
Ni9 Si0 2.394163 1_555
Ni9 Si14 2.505553 1_555
Ni9 Si5 2.630806 1_554
Ni9 Si9 2.630806 1_555
Ni10 Si8 2.277457 1_555
Ni10 Si4 2.277457 1_555
Ni10 Si0 2.394163 1_555
Ni10 Si13 2.505553 1_555
Ni10 Ni19 2.517938 1_555
Ni10 Ni23 2.517938 1_555
Ni10 Ni6 2.548166 1_555
Ni10 Si6 2.630806 1_554
Ni10 Si10 2.630806 1_555
Ni10 Ni14 2.679985 1_555
Ni11 Si5 2.277457 1_555
Ni11 Si9 2.277457 1_555
Ni11 Si1 2.394163 1_555
Ni11 Si12 2.505553 1_555
Ni11 Ni18 2.517938 1_555
Ni11 Ni22 2.517938 1_555
Ni11 Ni7 2.548166 1_555
Ni11 Si7 2.630806 1_555
Ni11 Si11 2.630806 1_556
Ni11 Ni15 2.679985 1_555
Ni12 Si12 2.240484 1_545
Ni12 Si4 2.312643 1_555
Ni12 Si8 2.312643 1_556
Ni12 Si5 2.504546 1_545
Ni12 Si9 2.504546 1_545
Ni12 Ni17 2.508058 1_555
Ni12 Ni21 2.508058 1_555
Ni12 Ni20 2.549780 1_546
Ni12 Ni16 2.549780 1_545
Ni12 Ni8 2.679985 1_555
Ni12 Ni4 2.713528 1_555
Ni12 Ni2 2.713528 1_555
Ni13 Si13 2.240484 1_565
Ni13 Si5 2.312643 1_554
Ni13 Si9 2.312643 1_555
Ni13 Si4 2.504546 1_565
Ni13 Si8 2.504546 1_565
Ni13 Ni16 2.508058 1_555
Ni13 Ni20 2.508058 1_555
Ni13 Ni21 2.549780 1_565
Ni13 Ni17 2.549780 1_564
Ni13 Ni9 2.679985 1_555
Ni13 Ni3 2.713528 1_555
Ni13 Ni5 2.713528 1_555
Ni14 Si14 2.240484 1_655
Ni14 Si6 2.312643 1_554
Ni14 Si10 2.312643 1_555
Ni14 Si7 2.504546 1_655
Ni14 Si11 2.504546 1_655
Ni14 Ni19 2.508058 1_555
Ni14 Ni23 2.508058 1_555
Ni14 Ni18 2.549780 1_654
Ni14 Ni22 2.549780 1_655
Ni14 Ni5 2.713528 1_555
Ni14 Ni3 2.713528 1_555
Ni15 Si15 2.240484 1_455
Ni15 Si7 2.312643 1_555
Ni15 Si11 2.312643 1_556
Ni15 Si10 2.504546 1_455
Ni15 Si6 2.504546 1_455
Ni15 Ni18 2.508058 1_555
Ni15 Ni22 2.508058 1_555
Ni15 Ni19 2.549780 1_455
Ni15 Ni23 2.549780 1_456
Ni15 Ni4 2.713528 1_555
Ni15 Ni2 2.713528 1_555
Ni16 Si9 2.279958 1_555
Ni16 Si12 2.324031 1_555
Ni16 Si14 2.377131 1_555
Ni16 Si4 2.397580 1_565
Ni16 Si3 2.492939 1_565
Ni16 Ni9 2.517938 1_555
Ni16 Ni2 2.568498 1_565
Ni16 Ni20 2.609992 1_555
Ni16 Ni22 2.667358 1_555
Ni17 Si8 2.279958 1_556
Ni17 Si13 2.324031 1_556
Ni17 Si15 2.377131 1_555
Ni17 Si5 2.397580 1_545
Ni17 Si2 2.492939 1_545
Ni17 Ni8 2.517938 1_555
Ni17 Ni3 2.568498 1_546
Ni17 Ni21 2.609992 1_555
Ni17 Ni23 2.667358 1_556
Ni18 Si11 2.279958 1_556
Ni18 Si14 2.324031 1_556
Ni18 Si12 2.377131 1_555
Ni18 Si6 2.397580 1_455
Ni18 Si2 2.492939 1_455
Ni18 Ni3 2.568498 1_456
Ni18 Ni22 2.609992 1_555
Ni18 Ni20 2.667358 1_556
Ni19 Si10 2.279958 1_555
Ni19 Si15 2.324031 1_555
Ni19 Si13 2.377131 1_555
Ni19 Si7 2.397580 1_655
Ni19 Si3 2.492939 1_655
Ni19 Ni2 2.568498 1_655
Ni19 Ni23 2.609992 1_555
Ni19 Ni21 2.667358 1_555
Ni20 Si5 2.279958 1_554
Ni20 Si12 2.324031 1_554
Ni20 Si14 2.377131 1_555
Ni20 Si8 2.397580 1_565
Ni20 Si3 2.492939 1_565
Ni20 Ni9 2.517938 1_555
Ni20 Ni4 2.568498 1_564
Ni21 Si4 2.279958 1_555
Ni21 Si13 2.324031 1_555
Ni21 Si15 2.377131 1_555
Ni21 Si9 2.397580 1_545
Ni21 Si2 2.492939 1_545
Ni21 Ni8 2.517938 1_555
Ni21 Ni5 2.568498 1_545
Ni22 Si7 2.279958 1_555
Ni22 Si14 2.324031 1_555
Ni22 Si12 2.377131 1_555
Ni22 Si10 2.397580 1_455
Ni22 Si2 2.492939 1_455
Ni22 Ni5 2.568498 1_455
Ni23 Si6 2.279958 1_554
Ni23 Si15 2.324031 1_554
Ni23 Si13 2.377131 1_555
Ni23 Si11 2.397580 1_655
Ni23 Si3 2.492939 1_655
Ni23 Ni4 2.568498 1_654
