# generated using pymatgen
data_K2ReBr6
_symmetry_space_group_name_H-M   'P 1'
_cell_length_a   7.38048740
_cell_length_b   7.38048740
_cell_length_c   7.38048740
_cell_angle_alpha   60.00000000
_cell_angle_beta   60.00000000
_cell_angle_gamma   60.00000000
_symmetry_Int_Tables_number   1
_chemical_formula_structural   K2ReBr6
_chemical_formula_sum   'K2 Re1 Br6'
_cell_volume   284.27595805
_cell_formula_units_Z   1
loop_
 _symmetry_equiv_pos_site_id
 _symmetry_equiv_pos_as_xyz
  1  'x, y, z'
loop_
 _atom_site_type_symbol
 _atom_site_label
 _atom_site_symmetry_multiplicity
 _atom_site_fract_x
 _atom_site_fract_y
 _atom_site_fract_z
 _atom_site_occupancy
  K  K0  1  0.25000000  0.25000000  0.25000000  1
  K  K1  1  0.75000000  0.75000000  0.75000000  1
  Re  Re0  1  0.00000000  -0.00000000  0.00000000  1
  Br  Br0  1  0.24169860  0.75830140  0.24169860  1
  Br  Br1  1  0.24169860  0.75830140  0.75830140  1
  Br  Br2  1  0.75830140  0.75830140  0.24169860  1
  Br  Br3  1  0.75830140  0.24169860  0.24169860  1
  Br  Br4  1  0.24169860  0.24169860  0.75830140  1
  Br  Br5  1  0.75830140  0.24169860  0.75830140  1
loop_
_geom_bond_atom_site_label_1
_geom_bond_atom_site_label_2
_geom_bond_distance
_geom_bond_site_symmetry_2
Br0 Re0 2.522750 1_565
Br0 K0 3.691261 1_555
Br0 K1 3.691261 1_554
Br0 K1 3.691261 1_455
Br0 K0 3.691261 1_565
Br1 Re0 2.522750 1_566
Br1 K1 3.691261 1_455
Br1 K0 3.691261 1_556
Br1 K0 3.691261 1_565
Br1 K1 3.691261 1_555
Br2 Re0 2.522750 1_665
Br2 K1 3.691261 1_554
Br2 K0 3.691261 1_565
Br2 K0 3.691261 1_655
Br2 K1 3.691261 1_555
Br3 Re0 2.522750 1_655
Br3 K0 3.691261 1_555
Br3 K1 3.691261 1_545
Br3 K1 3.691261 1_554
Br3 K0 3.691261 1_655
Br4 Re0 2.522750 1_556
Br4 K0 3.691261 1_555
Br4 K1 3.691261 1_455
Br4 K1 3.691261 1_545
Br4 K0 3.691261 1_556
Br5 Re0 2.522750 1_656
Br5 K1 3.691261 1_545
Br5 K0 3.691261 1_556
Br5 K0 3.691261 1_655
Br5 K1 3.691261 1_555
