# generated using pymatgen
data_La3MgCu4(P2O)2
_symmetry_space_group_name_H-M   'P 1'
_cell_length_a   4.13611000
_cell_length_b   4.94047700
_cell_length_c   12.80644608
_cell_angle_alpha   101.12150148
_cell_angle_beta   99.29312889
_cell_angle_gamma   90.00000000
_symmetry_Int_Tables_number   1
_chemical_formula_structural   La3MgCu4(P2O)2
_chemical_formula_sum   'La3 Mg1 Cu4 P4 O2'
_cell_volume   253.27569333
_cell_formula_units_Z   1
loop_
 _symmetry_equiv_pos_site_id
 _symmetry_equiv_pos_as_xyz
  1  'x, y, z'
loop_
 _atom_site_type_symbol
 _atom_site_label
 _atom_site_symmetry_multiplicity
 _atom_site_fract_x
 _atom_site_fract_y
 _atom_site_fract_z
 _atom_site_occupancy
  La  La0  1  0.00000000  0.00000000  0.00000000  1
  La  La1  1  0.29135800  0.29135800  0.58271600  1
  La  La2  1  0.70864200  0.70864200  0.41728400  1
  Mg  Mg0  1  0.00000000  0.50000000  0.00000000  1
  Cu  Cu0  1  0.89299500  0.39299500  0.78599100  1
  Cu  Cu1  1  0.40459800  0.90459800  0.80919600  1
  Cu  Cu2  1  0.10700500  0.60700500  0.21400900  1
  Cu  Cu3  1  0.59540200  0.09540200  0.19080400  1
  P  P0  1  0.86700200  0.86700200  0.73400500  1
  P  P1  1  0.13299800  0.13299800  0.26599500  1
  P  P2  1  0.43870400  0.43870400  0.87740900  1
  P  P3  1  0.56129600  0.56129600  0.12259100  1
  O  O0  1  0.74894600  0.24894600  0.49789100  1
  O  O1  1  0.25105400  0.75105400  0.50210900  1
loop_
_geom_bond_atom_site_label_1
_geom_bond_atom_site_label_2
_geom_bond_distance
_geom_bond_site_symmetry_2
La0 Mg0 2.470238 1_545
La0 Mg0 2.470238 1_555
La0 P1 3.296902 1_555
La0 P0 3.296902 1_444
La1 O0 2.319963 1_455
La1 O0 2.319966 1_555
La1 O1 2.664629 1_555
La1 O1 2.664634 1_545
La2 O1 2.319963 1_655
La2 O1 2.319966 1_555
La2 O0 2.664629 1_555
La2 O0 2.664634 1_565
Mg0 P3 2.566247 1_455
Mg0 P2 2.566247 1_554
Mg0 P3 2.566250 1_555
Mg0 P2 2.566250 1_454
Cu0 P2 2.358123 1_655
Cu0 P2 2.358123 1_555
Cu0 P0 2.552892 1_555
Cu0 P0 2.552892 1_545
Cu0 Mg0 2.652556 1_656
Cu0 La1 3.259568 1_555
Cu0 La1 3.259571 1_655
Cu1 P0 2.268347 1_555
Cu1 P0 2.268351 1_455
Cu1 P2 2.610918 1_565
Cu1 P2 2.610922 1_555
Cu1 La0 3.141622 1_566
Cu1 La0 3.141622 1_666
Cu2 P3 2.358123 1_455
Cu2 P3 2.358123 1_555
Cu2 P1 2.552892 1_555
Cu2 P1 2.552892 1_565
Cu2 Mg0 2.652556 1_555
Cu2 La2 3.259568 1_555
Cu2 La2 3.259571 1_455
Cu3 P1 2.268347 1_555
Cu3 P1 2.268351 1_655
Cu3 P3 2.610918 1_545
Cu3 P3 2.610922 1_555
Cu3 La0 3.141622 1_555
Cu3 La0 3.141622 1_655
