# generated using pymatgen
data_CeMgTl
_symmetry_space_group_name_H-M   'P 1'
_cell_length_a   7.76388301
_cell_length_b   7.76286876
_cell_length_c   4.79511522
_cell_angle_alpha   90.00000000
_cell_angle_beta   90.00000000
_cell_angle_gamma   119.99543681
_symmetry_Int_Tables_number   1
_chemical_formula_structural   CeMgTl
_chemical_formula_sum   'Ce3 Mg3 Tl3'
_cell_volume   250.29425015
_cell_formula_units_Z   3
loop_
 _symmetry_equiv_pos_site_id
 _symmetry_equiv_pos_as_xyz
  1  'x, y, z'
loop_
 _atom_site_type_symbol
 _atom_site_label
 _atom_site_symmetry_multiplicity
 _atom_site_fract_x
 _atom_site_fract_y
 _atom_site_fract_z
 _atom_site_occupancy
  Ce  Ce0  1  0.57329065  0.57328504  0.00000000  1
  Ce  Ce1  1  0.42671552  0.00008079  -0.00000000  1
  Ce  Ce2  1  -0.00005007  0.42659128  -0.00000000  1
  Mg  Mg0  1  0.00003850  0.75932058  0.50000000  1
  Mg  Mg1  1  0.24078372  0.24069032  0.50000000  1
  Mg  Mg2  1  0.75923802  0.99997602  0.50000000  1
  Tl  Tl0  1  0.33332958  0.66666514  0.50000000  1
  Tl  Tl1  1  0.00000890  0.99994188  0.00000000  1
  Tl  Tl2  1  0.66664419  0.33344896  0.50000000  1
loop_
_geom_bond_atom_site_label_1
_geom_bond_atom_site_label_2
_geom_bond_distance
_geom_bond_site_symmetry_2
Ce0 Tl1 3.312764 1_655
Ce0 Tl2 3.330043 1_555
Ce0 Tl2 3.330043 1_554
Ce0 Tl0 3.330909 1_555
Ce0 Tl0 3.330909 1_554
Ce1 Tl1 3.312361 1_545
Ce1 Tl2 3.330977 1_555
Ce1 Tl2 3.330977 1_554
Ce1 Tl0 3.331176 1_545
Ce1 Tl0 3.331176 1_544
Ce2 Tl1 3.312252 1_545
Ce2 Tl2 3.331171 1_454
Ce2 Tl2 3.331171 1_455
Ce2 Tl0 3.331341 1_555
Ce2 Tl0 3.331341 1_554
Mg0 Tl2 3.012206 1_455
Mg0 Tl0 3.012333 1_555
Mg0 Tl1 3.039376 1_555
Mg0 Tl1 3.039376 1_556
Mg1 Tl2 3.011620 1_555
Mg1 Tl0 3.012549 1_555
Mg1 Tl1 3.040129 1_546
Mg1 Tl1 3.040129 1_545
Mg2 Tl0 3.012380 1_555
Mg2 Tl2 3.013127 1_565
Mg2 Tl1 3.040251 1_656
Mg2 Tl1 3.040251 1_655
