# generated using pymatgen
data_Ho2MgV2O7
_symmetry_space_group_name_H-M   'P 1'
_cell_length_a   5.90976371
_cell_length_b   5.90976388
_cell_length_c   5.46146535
_cell_angle_alpha   83.00726811
_cell_angle_beta   96.99267989
_cell_angle_gamma   66.04984225
_symmetry_Int_Tables_number   1
_chemical_formula_structural   Ho2MgV2O7
_chemical_formula_sum   'Ho2 Mg1 V2 O7'
_cell_volume   169.91533086
_cell_formula_units_Z   1
loop_
 _symmetry_equiv_pos_site_id
 _symmetry_equiv_pos_as_xyz
  1  'x, y, z'
loop_
 _atom_site_type_symbol
 _atom_site_label
 _atom_site_symmetry_multiplicity
 _atom_site_fract_x
 _atom_site_fract_y
 _atom_site_fract_z
 _atom_site_occupancy
  Ho  Ho0  1  0.33099300  0.33099200  0.50000000  1
  Ho  Ho1  1  0.68405200  0.68405100  0.50000000  1
  Mg  Mg0  1  0.21221400  0.21221800  0.00000200  1
  V  V0  1  0.25923800  0.73985100  0.88452800  1
  V  V1  1  0.73984700  0.25924000  0.11547000  1
  O  O0  1  0.07022300  0.54958700  0.74593300  1
  O  O1  1  0.39715400  0.96641200  0.72699800  1
  O  O2  1  0.44969500  0.56517400  0.22910900  1
  O  O3  1  0.56517500  0.44969600  0.77089300  1
  O  O4  1  0.01499100  0.01498700  0.00000000  1
  O  O5  1  0.54958700  0.07022400  0.25406800  1
  O  O6  1  0.96641500  0.39715100  0.27300100  1
loop_
_geom_bond_atom_site_label_1
_geom_bond_atom_site_label_2
_geom_bond_distance
_geom_bond_site_symmetry_2
Ho0 O6 2.208999 1_455
Ho0 O1 2.209003 1_545
Ho0 O2 2.266855 1_555
Ho0 O3 2.266870 1_555
Ho0 O5 2.271117 1_555
Ho0 O0 2.271129 1_555
Ho1 O3 2.268191 1_555
Ho1 O2 2.268194 1_555
Ho1 O0 2.272720 1_655
Ho1 O5 2.272725 1_565
Ho1 O1 2.432011 1_555
Ho1 O6 2.432026 1_555
Mg0 O4 1.954498 1_555
Mg0 O0 2.071047 1_554
Mg0 O5 2.071055 1_555
Mg0 O6 2.272163 1_455
Mg0 O1 2.272219 1_544
O0 V0 2.026355 1_555
O1 V0 1.993357 1_555
O2 V0 1.985452 1_554
O2 V1 2.147012 1_555
O3 V1 1.985428 1_556
O3 V0 2.147019 1_555
O4 V0 1.921170 1_544
O4 V1 1.921208 1_455
O5 V1 2.026346 1_555
O6 V1 1.993370 1_555
