# generated using pymatgen
data_MgMo2W(SeS2)2
_symmetry_space_group_name_H-M   'P 1'
_cell_length_a   6.47298800
_cell_length_b   6.47229342
_cell_length_c   73.48634803
_cell_angle_alpha   90.00273018
_cell_angle_beta   90.00000000
_cell_angle_gamma   120.00355004
_symmetry_Int_Tables_number   1
_chemical_formula_structural   MgMo2W(SeS2)2
_chemical_formula_sum   'Mg8 Mo16 W8 Se16 S32'
_cell_volume   2666.15110204
_cell_formula_units_Z   8
loop_
 _symmetry_equiv_pos_site_id
 _symmetry_equiv_pos_as_xyz
  1  'x, y, z'
loop_
 _atom_site_type_symbol
 _atom_site_label
 _atom_site_symmetry_multiplicity
 _atom_site_fract_x
 _atom_site_fract_y
 _atom_site_fract_z
 _atom_site_occupancy
  Mg  Mg0_0  1  0.00000650  0.00001300  0.11050950  1
  Mg  Mg0_1  1  0.00000650  0.00001300  0.61050950  1
  Mg  Mg0_2  1  0.00000650  0.50001300  0.11050950  1
  Mg  Mg0_3  1  0.00000650  0.50001300  0.61050950  1
  Mg  Mg0_4  1  0.50000650  0.00001300  0.11050950  1
  Mg  Mg0_5  1  0.50000650  0.00001300  0.61050950  1
  Mg  Mg0_6  1  0.50000650  0.50001300  0.11050950  1
  Mg  Mg0_7  1  0.50000650  0.50001300  0.61050950  1
  Mo  Mo0_0  1  0.16666900  0.33333700  0.05396400  1
  Mo  Mo0_1  1  0.16666900  0.33333700  0.55396400  1
  Mo  Mo0_2  1  0.16666900  0.83333700  0.05396400  1
  Mo  Mo0_3  1  0.16666900  0.83333700  0.55396400  1
  Mo  Mo0_4  1  0.66666900  0.33333700  0.05396400  1
  Mo  Mo0_5  1  0.66666900  0.33333700  0.55396400  1
  Mo  Mo0_6  1  0.66666900  0.83333700  0.05396400  1
  Mo  Mo0_7  1  0.66666900  0.83333700  0.55396400  1
  Mo  Mo1_0  1  0.16664800  0.33329550  0.28917700  1
  Mo  Mo1_1  1  0.16664800  0.33329550  0.78917700  1
  Mo  Mo1_2  1  0.16664800  0.83329550  0.28917700  1
  Mo  Mo1_3  1  0.16664800  0.83329550  0.78917700  1
  Mo  Mo1_4  1  0.66664800  0.33329550  0.28917700  1
  Mo  Mo1_5  1  0.66664800  0.33329550  0.78917700  1
  Mo  Mo1_6  1  0.66664800  0.83329550  0.28917700  1
  Mo  Mo1_7  1  0.66664800  0.83329550  0.78917700  1
  W  W0_0  1  0.33333900  0.16667900  0.17795850  1
  W  W0_1  1  0.33333900  0.16667900  0.67795850  1
  W  W0_2  1  0.33333900  0.66667900  0.17795850  1
  W  W0_3  1  0.33333900  0.66667900  0.67795850  1
  W  W0_4  1  0.83333900  0.16667900  0.17795850  1
  W  W0_5  1  0.83333900  0.16667900  0.67795850  1
  W  W0_6  1  0.83333900  0.66667900  0.17795850  1
  W  W0_7  1  0.83333900  0.66667900  0.67795850  1
  Se  Se0_0  1  0.16666850  0.33333700  0.20129600  1
  Se  Se0_1  1  0.16666850  0.33333700  0.70129600  1
  Se  Se0_2  1  0.16666850  0.83333700  0.20129600  1
  Se  Se0_3  1  0.16666850  0.83333700  0.70129600  1
  Se  Se0_4  1  0.66666850  0.33333700  0.20129600  1
  Se  Se0_5  1  0.66666850  0.33333700  0.70129600  1
  Se  Se0_6  1  0.66666850  0.83333700  0.20129600  1
  Se  Se0_7  1  0.66666850  0.83333700  0.70129600  1
  Se  Se1_0  1  0.16666650  0.33333250  0.15450950  1
  Se  Se1_1  1  0.16666650  0.33333250  0.65450950  1
  Se  Se1_2  1  0.16666650  0.83333250  0.15450950  1
  Se  Se1_3  1  0.16666650  0.83333250  0.65450950  1
  Se  Se1_4  1  0.66666650  0.33333250  0.15450950  1
  Se  Se1_5  1  0.66666650  0.33333250  0.65450950  1
  Se  Se1_6  1  0.66666650  0.83333250  0.15450950  1
  Se  Se1_7  1  0.66666650  0.83333250  0.65450950  1
  S  S0_0  1  0.33333450  0.16666850  0.03306550  1
  S  S0_1  1  0.33333450  0.16666850  0.53306550  1
  S  S0_2  1  0.33333450  0.66666850  0.03306550  1
  S  S0_3  1  0.33333450  0.66666850  0.53306550  1
  S  S0_4  1  0.83333450  0.16666850  0.03306550  1
  S  S0_5  1  0.83333450  0.16666850  0.53306550  1
  S  S0_6  1  0.83333450  0.66666850  0.03306550  1
  S  S0_7  1  0.83333450  0.66666850  0.53306550  1
  S  S1_0  1  0.33332400  0.16664800  0.26807250  1
  S  S1_1  1  0.33332400  0.16664800  0.76807250  1
  S  S1_2  1  0.33332400  0.66664800  0.26807250  1
  S  S1_3  1  0.33332400  0.66664800  0.76807250  1
  S  S1_4  1  0.83332400  0.16664800  0.26807250  1
  S  S1_5  1  0.83332400  0.16664800  0.76807250  1
  S  S1_6  1  0.83332400  0.66664800  0.26807250  1
  S  S1_7  1  0.83332400  0.66664800  0.76807250  1
  S  S2_0  1  0.33333350  0.16666700  0.07530050  1
  S  S2_1  1  0.33333350  0.16666700  0.57530050  1
  S  S2_2  1  0.33333350  0.66666700  0.07530050  1
  S  S2_3  1  0.33333350  0.66666700  0.57530050  1
  S  S2_4  1  0.83333350  0.16666700  0.07530050  1
  S  S2_5  1  0.83333350  0.16666700  0.57530050  1
  S  S2_6  1  0.83333350  0.66666700  0.07530050  1
  S  S2_7  1  0.83333350  0.66666700  0.57530050  1
  S  S3_0  1  0.33331150  0.16662300  0.31029000  1
  S  S3_1  1  0.33331150  0.16662300  0.81029000  1
  S  S3_2  1  0.33331150  0.66662300  0.31029000  1
  S  S3_3  1  0.33331150  0.66662300  0.81029000  1
  S  S3_4  1  0.83331150  0.16662300  0.31029000  1
  S  S3_5  1  0.83331150  0.16662300  0.81029000  1
  S  S3_6  1  0.83331150  0.66662300  0.31029000  1
  S  S3_7  1  0.83331150  0.66662300  0.81029000  1
loop_
_geom_bond_atom_site_label_1
_geom_bond_atom_site_label_2
_geom_bond_distance
_geom_bond_site_symmetry_2
Mg0_0 S2_6 3.191380 1_445
Mg0_0 S2_0 3.191560 1_555
Mg0_0 S2_4 3.191560 1_455
Mg0_0 Mg0_2 3.236147 1_545
Mg0_0 Mg0_2 3.236147 1_555
Mg0_0 Mg0_6 3.236147 1_445
Mg0_0 Mg0_6 3.236147 1_555
Mg0_0 Mg0_4 3.236494 1_455
Mg0_0 Mg0_4 3.236494 1_555
Mg0_1 S2_7 3.191380 1_445
Mg0_1 S2_1 3.191560 1_555
Mg0_1 S2_5 3.191560 1_455
Mg0_1 Mg0_3 3.236147 1_555
Mg0_1 Mg0_7 3.236147 1_555
Mg0_1 Mg0_7 3.236147 1_445
Mg0_1 Mg0_3 3.236147 1_545
Mg0_1 Mg0_5 3.236494 1_455
Mg0_1 Mg0_5 3.236494 1_555
Mg0_2 S2_4 3.191380 1_455
Mg0_2 S2_2 3.191560 1_555
Mg0_2 S2_6 3.191560 1_455
Mg0_2 Mg0_4 3.236147 1_455
Mg0_2 Mg0_4 3.236147 1_565
Mg0_2 Mg0_6 3.236494 1_455
Mg0_2 Mg0_6 3.236494 1_555
Mg0_3 S2_5 3.191380 1_455
Mg0_3 S2_3 3.191560 1_555
Mg0_3 S2_7 3.191560 1_455
Mg0_3 Mg0_5 3.236147 1_455
Mg0_3 Mg0_5 3.236147 1_565
Mg0_3 Mg0_7 3.236494 1_455
Mg0_3 Mg0_7 3.236494 1_555
Mg0_4 S2_2 3.191380 1_545
Mg0_4 S2_4 3.191560 1_555
Mg0_4 S2_0 3.191560 1_555
Mg0_4 Mg0_6 3.236147 1_545
Mg0_4 Mg0_6 3.236147 1_555
Mg0_5 S2_3 3.191380 1_545
Mg0_5 S2_1 3.191560 1_555
Mg0_5 S2_5 3.191560 1_555
Mg0_5 Mg0_7 3.236147 1_555
Mg0_5 Mg0_7 3.236147 1_545
Mg0_6 S2_0 3.191380 1_555
Mg0_6 S2_2 3.191560 1_555
Mg0_6 S2_6 3.191560 1_555
Mg0_7 S2_1 3.191380 1_555
Mg0_7 S2_7 3.191560 1_555
Mg0_7 S2_3 3.191560 1_555
Mo0_0 S0_2 2.418564 1_555
Mo0_0 S0_0 2.418632 1_555
Mo0_0 S0_4 2.418634 1_455
Mo0_0 S2_2 2.438992 1_555
Mo0_0 S2_0 2.439264 1_555
Mo0_0 S2_4 2.439268 1_455
Mo0_1 S0_3 2.418564 1_555
Mo0_1 S0_1 2.418632 1_555
Mo0_1 S0_5 2.418634 1_455
Mo0_1 S2_3 2.438992 1_555
Mo0_1 S2_1 2.439264 1_555
Mo0_1 S2_5 2.439268 1_455
Mo0_2 S0_0 2.418564 1_565
Mo0_2 S0_2 2.418632 1_555
Mo0_2 S0_6 2.418634 1_455
Mo0_2 S2_0 2.438992 1_565
Mo0_2 S2_2 2.439264 1_555
Mo0_2 S2_6 2.439268 1_455
Mo0_3 S0_1 2.418564 1_565
Mo0_3 S0_3 2.418632 1_555
Mo0_3 S0_7 2.418634 1_455
Mo0_3 S2_1 2.438992 1_565
Mo0_3 S2_3 2.439264 1_555
Mo0_3 S2_7 2.439268 1_455
Mo0_4 S0_6 2.418564 1_555
Mo0_4 S0_4 2.418632 1_555
Mo0_4 S0_0 2.418634 1_555
Mo0_4 S2_6 2.438992 1_555
Mo0_4 S2_4 2.439264 1_555
Mo0_4 S2_0 2.439268 1_555
Mo0_5 S0_7 2.418564 1_555
Mo0_5 S0_5 2.418632 1_555
Mo0_5 S0_1 2.418634 1_555
Mo0_5 S2_7 2.438992 1_555
Mo0_5 S2_5 2.439264 1_555
Mo0_5 S2_1 2.439268 1_555
Mo0_6 S0_4 2.418564 1_565
Mo0_6 S0_6 2.418632 1_555
Mo0_6 S0_2 2.418634 1_555
Mo0_6 S2_4 2.438992 1_565
Mo0_6 S2_6 2.439264 1_555
Mo0_6 S2_2 2.439268 1_555
Mo0_7 S0_5 2.418564 1_565
Mo0_7 S0_7 2.418632 1_555
Mo0_7 S0_3 2.418634 1_555
Mo0_7 S2_5 2.438992 1_565
Mo0_7 S2_7 2.439264 1_555
Mo0_7 S2_3 2.439268 1_555
Mo1_0 S1_0 2.428227 1_555
Mo1_0 S1_4 2.428229 1_455
Mo1_0 S1_2 2.428296 1_555
Mo1_0 S3_2 2.428456 1_555
Mo1_0 S3_0 2.428745 1_555
Mo1_0 S3_4 2.428747 1_455
Mo1_1 S1_1 2.428227 1_555
Mo1_1 S1_5 2.428229 1_455
Mo1_1 S1_3 2.428296 1_555
Mo1_1 S3_3 2.428456 1_555
Mo1_1 S3_1 2.428745 1_555
Mo1_1 S3_5 2.428747 1_455
Mo1_2 S1_2 2.428227 1_555
Mo1_2 S1_6 2.428229 1_455
Mo1_2 S1_0 2.428296 1_565
Mo1_2 S3_0 2.428456 1_565
Mo1_2 S3_2 2.428745 1_555
Mo1_2 S3_6 2.428747 1_455
Mo1_3 S1_3 2.428227 1_555
Mo1_3 S1_7 2.428229 1_455
Mo1_3 S1_1 2.428296 1_565
Mo1_3 S3_1 2.428456 1_565
Mo1_3 S3_3 2.428745 1_555
Mo1_3 S3_7 2.428747 1_455
Mo1_4 S1_4 2.428227 1_555
Mo1_4 S1_0 2.428229 1_555
Mo1_4 S1_6 2.428296 1_555
Mo1_4 S3_6 2.428456 1_555
Mo1_4 S3_4 2.428745 1_555
Mo1_4 S3_0 2.428747 1_555
Mo1_5 S1_5 2.428227 1_555
Mo1_5 S1_1 2.428229 1_555
Mo1_5 S1_7 2.428296 1_555
Mo1_5 S3_7 2.428456 1_555
Mo1_5 S3_5 2.428745 1_555
Mo1_5 S3_1 2.428747 1_555
Mo1_6 S1_6 2.428227 1_555
Mo1_6 S1_2 2.428229 1_555
Mo1_6 S1_4 2.428296 1_565
Mo1_6 S3_4 2.428456 1_565
Mo1_6 S3_6 2.428745 1_555
Mo1_6 S3_2 2.428747 1_555
Mo1_7 S1_7 2.428227 1_555
Mo1_7 S1_3 2.428229 1_555
Mo1_7 S1_5 2.428296 1_565
Mo1_7 S3_5 2.428456 1_565
Mo1_7 S3_7 2.428745 1_555
Mo1_7 S3_3 2.428747 1_555
Se0_0 W0_0 2.536195 1_555
Se0_0 W0_4 2.536199 1_455
Se0_0 W0_2 2.536208 1_555
Se0_1 W0_1 2.536195 1_555
Se0_1 W0_5 2.536199 1_455
Se0_1 W0_3 2.536208 1_555
Se0_2 W0_2 2.536195 1_555
Se0_2 W0_6 2.536199 1_455
Se0_2 W0_0 2.536208 1_565
Se0_3 W0_3 2.536195 1_555
Se0_3 W0_7 2.536199 1_455
Se0_3 W0_1 2.536208 1_565
Se0_4 W0_4 2.536195 1_555
Se0_4 W0_0 2.536199 1_555
Se0_4 W0_6 2.536208 1_555
Se0_5 W0_5 2.536195 1_555
Se0_5 W0_1 2.536199 1_555
Se0_5 W0_7 2.536208 1_555
Se0_6 W0_6 2.536195 1_555
Se0_6 W0_2 2.536199 1_555
Se0_6 W0_4 2.536208 1_565
Se0_7 W0_7 2.536195 1_555
Se0_7 W0_3 2.536199 1_555
Se0_7 W0_5 2.536208 1_565
Se1_0 W0_2 2.541635 1_555
Se1_0 W0_0 2.541802 1_555
Se1_0 W0_4 2.541808 1_455
Se1_1 W0_3 2.541635 1_555
Se1_1 W0_1 2.541802 1_555
Se1_1 W0_5 2.541808 1_455
Se1_2 W0_0 2.541635 1_565
Se1_2 W0_2 2.541802 1_555
Se1_2 W0_6 2.541808 1_455
Se1_3 W0_1 2.541635 1_565
Se1_3 W0_3 2.541802 1_555
Se1_3 W0_7 2.541808 1_455
Se1_4 W0_6 2.541635 1_555
Se1_4 W0_4 2.541802 1_555
Se1_4 W0_0 2.541808 1_555
Se1_5 W0_7 2.541635 1_555
Se1_5 W0_5 2.541802 1_555
Se1_5 W0_1 2.541808 1_555
Se1_6 W0_4 2.541635 1_565
Se1_6 W0_6 2.541802 1_555
Se1_6 W0_2 2.541808 1_555
Se1_7 W0_5 2.541635 1_565
Se1_7 W0_7 2.541802 1_555
Se1_7 W0_3 2.541808 1_555
