# generated using pymatgen
data_Rb2Mg(FeO2)2
_symmetry_space_group_name_H-M   'P 1'
_cell_length_a   6.41234425
_cell_length_b   5.87601923
_cell_length_c   5.87148969
_cell_angle_alpha   117.35028555
_cell_angle_beta   91.05429661
_cell_angle_gamma   59.35553995
_symmetry_Int_Tables_number   1
_chemical_formula_structural   Rb2Mg(FeO2)2
_chemical_formula_sum   'Rb2 Mg1 Fe2 O4'
_cell_volume   162.18000697
_cell_formula_units_Z   1
loop_
 _symmetry_equiv_pos_site_id
 _symmetry_equiv_pos_as_xyz
  1  'x, y, z'
loop_
 _atom_site_type_symbol
 _atom_site_label
 _atom_site_symmetry_multiplicity
 _atom_site_fract_x
 _atom_site_fract_y
 _atom_site_fract_z
 _atom_site_occupancy
  Rb  Rb0  1  0.64498208  0.90728060  0.44652888  1
  Rb  Rb1  1  0.00193785  0.33162411  0.66509470  1
  Mg  Mg0  1  0.30683176  0.75425212  0.93734232  1
  Fe  Fe0  1  0.85063040  0.12560419  0.02233971  1
  Fe  Fe1  1  0.24539605  0.50781216  0.24656501  1
  O  O0  1  0.16969522  0.19673760  0.10846337  1
  O  O1  1  0.56209193  0.43727263  0.99803870  1
  O  O2  1  0.16607447  0.72838191  0.63352639  1
  O  O3  1  0.00027725  0.84436767  0.15043392  1
loop_
_geom_bond_atom_site_label_1
_geom_bond_atom_site_label_2
_geom_bond_distance
_geom_bond_site_symmetry_2
Mg0 O1 1.938021 1_555
Mg0 O0 1.960708 1_566
Mg0 O2 1.962485 1_555
Mg0 O3 2.032376 1_556
Fe0 O1 1.890428 1_554
Fe0 O3 1.927775 1_645
Fe0 O2 2.282974 1_644
Fe0 O0 2.292560 1_655
Fe1 O0 1.939695 1_555
Fe1 O2 1.940461 1_555
Fe1 O3 2.127039 1_555
Fe1 O1 2.262816 1_554
O0 Rb1 3.057264 1_555
O0 Rb1 3.079916 1_554
O1 Rb1 3.076478 1_655
O1 Rb0 3.094600 1_545
O1 Rb0 3.099462 1_556
O2 Rb1 3.050741 1_565
O2 Rb1 3.079444 1_555
O3 Rb0 2.654483 1_455
O3 Rb1 3.045908 1_554
O3 Rb1 3.067424 1_565
