# generated using pymatgen
data_Na3MgGaP2SO12
_symmetry_space_group_name_H-M   'P 1'
_cell_length_a   8.89659923
_cell_length_b   8.80908139
_cell_length_c   21.84225092
_cell_angle_alpha   91.09904213
_cell_angle_beta   90.00000000
_cell_angle_gamma   120.32919350
_symmetry_Int_Tables_number   1
_chemical_formula_structural   Na3MgGaP2SO12
_chemical_formula_sum   'Na18 Mg6 Ga6 P12 S6 O72'
_cell_volume   1477.15206638
_cell_formula_units_Z   6
loop_
 _symmetry_equiv_pos_site_id
 _symmetry_equiv_pos_as_xyz
  1  'x, y, z'
loop_
 _atom_site_type_symbol
 _atom_site_label
 _atom_site_symmetry_multiplicity
 _atom_site_fract_x
 _atom_site_fract_y
 _atom_site_fract_z
 _atom_site_occupancy
  Na  Na0  1  0.35952597  0.35797379  0.24745716  1
  Na  Na1  1  0.99723998  0.63169049  0.24558587  1
  Na  Na2  1  0.63445051  0.63169049  0.74558587  1
  Na  Na3  1  0.99844782  0.35797379  0.74745716  1
  Na  Na4  1  0.02619297  0.69130679  0.58079016  1
  Na  Na5  1  0.66390698  0.96502349  0.57891887  1
  Na  Na6  1  0.30111751  0.96502349  0.07891887  1
  Na  Na7  1  0.66511482  0.69130679  0.08079016  1
  Na  Na8  1  0.69285897  0.02464079  0.91412416  1
  Na  Na9  1  0.33057298  0.29835749  0.91225287  1
  Na  Na10  1  0.96778351  0.29835749  0.41225287  1
  Na  Na11  1  0.33178082  0.02464079  0.41412416  1
  Na  Na12  1  0.98269239  0.98643260  0.49747209  1
  Na  Na13  1  0.00374020  0.98643260  0.99747209  1
  Na  Na14  1  0.64935939  0.31976560  0.83080509  1
  Na  Na15  1  0.67040720  0.31976560  0.33080509  1
  Na  Na16  1  0.31602539  0.65309960  0.16413909  1
  Na  Na17  1  0.33707320  0.65309960  0.66413909  1
  Mg  Mg0  1  0.99366382  0.99708958  0.35171274  1
  Mg  Mg1  1  0.00342576  0.99708958  0.85171274  1
  Mg  Mg2  1  0.66033082  0.33042258  0.68504574  1
  Mg  Mg3  1  0.67009276  0.33042258  0.18504574  1
  Mg  Mg4  1  0.32699682  0.66375658  0.01837974  1
  Mg  Mg5  1  0.33675876  0.66375658  0.51837974  1
  Ga  Ga0  1  0.99176923  0.01145557  0.65100068  1
  Ga  Ga1  1  0.01968635  0.01145557  0.15100068  1
  Ga  Ga2  1  0.65843623  0.34478857  0.98433368  1
  Ga  Ga3  1  0.68635335  0.34478857  0.48433368  1
  Ga  Ga4  1  0.32510223  0.67812257  0.31766768  1
  Ga  Ga5  1  0.35301935  0.67812257  0.81766768  1
  P  P0  1  0.29701830  0.99828982  0.25174872  1
  P  P1  1  0.00430853  0.29643760  0.25343743  1
  P  P2  1  0.29212907  0.29643760  0.75343743  1
  P  P3  1  0.70127152  0.99828982  0.75174872  1
  P  P4  1  0.96368530  0.33162282  0.58508172  1
  P  P5  1  0.67097553  0.62977060  0.58677043  1
  P  P6  1  0.95879607  0.62977060  0.08677043  1
  P  P7  1  0.36793852  0.33162282  0.08508172  1
  P  P8  1  0.63035130  0.66495682  0.91841572  1
  P  P9  1  0.33764153  0.96310460  0.92010443  1
  P  P10  1  0.62546207  0.96310460  0.42010443  1
  P  P11  1  0.03460452  0.66495682  0.41841572  1
  S  S0  1  0.70182560  0.70984062  0.24851464  1
  S  S1  1  0.00801503  0.70984062  0.74851464  1
  S  S2  1  0.36849260  0.04317362  0.58184764  1
  S  S3  1  0.67468203  0.04317362  0.08184764  1
  S  S4  1  0.03515860  0.37650762  0.91518164  1
  S  S5  1  0.34134803  0.37650762  0.41518164  1
  O  O0  1  0.21065724  0.02421883  0.30822499  1
  O  O1  1  0.81514108  0.79720990  0.30163166  1
  O  O2  1  0.98363194  0.19539403  0.31143642  1
  O  O3  1  0.21176209  0.19539403  0.81143642  1
  O  O4  1  0.98206882  0.79720990  0.80163166  1
  O  O5  1  0.81356159  0.02421883  0.80822499  1
  O  O6  1  0.77897008  0.95741073  0.69284571  1
  O  O7  1  0.16946804  0.20750024  0.69633974  1
  O  O8  1  0.03088410  0.80980198  0.69135812  1
  O  O9  1  0.77891788  0.80980198  0.19135812  1
  O  O10  1  0.03803219  0.20750024  0.19633974  1
  O  O11  1  0.17844065  0.95741073  0.19284571  1
  O  O12  1  0.87732424  0.35755183  0.64155799  1
  O  O13  1  0.48180808  0.13054290  0.63496466  1
  O  O14  1  0.65029894  0.52872703  0.64476942  1
  O  O15  1  0.87842909  0.52872703  0.14476942  1
  O  O16  1  0.64873582  0.13054290  0.13496466  1
  O  O17  1  0.48022859  0.35755183  0.14155799  1
  O  O18  1  0.44563708  0.29074373  0.02617871  1
  O  O19  1  0.83613504  0.54083324  0.02967274  1
  O  O20  1  0.69755110  0.14313498  0.02469112  1
  O  O21  1  0.44558488  0.14313498  0.52469112  1
  O  O22  1  0.70469919  0.54083324  0.52967274  1
  O  O23  1  0.84510765  0.29074373  0.52617871  1
  O  O24  1  0.54399024  0.69088583  0.97489199  1
  O  O25  1  0.14847408  0.46387690  0.96829866  1
  O  O26  1  0.31696494  0.86206103  0.97810342  1
  O  O27  1  0.54509509  0.86206103  0.47810342  1
  O  O28  1  0.31540182  0.46387690  0.46829866  1
  O  O29  1  0.14689459  0.69088583  0.47489199  1
  O  O30  1  0.11230308  0.62407773  0.35951271  1
  O  O31  1  0.50280104  0.87416724  0.36300674  1
  O  O32  1  0.36421710  0.47646898  0.35802512  1
  O  O33  1  0.11225088  0.47646898  0.85802512  1
  O  O34  1  0.37136519  0.87416724  0.86300674  1
  O  O35  1  0.51177365  0.62407773  0.85951271  1
  O  O36  1  0.02147181  0.83029878  0.41109125  1
  O  O37  1  0.81042255  0.99597684  0.41275849  1
  O  O38  1  0.18210295  0.19746973  0.41119200  1
  O  O39  1  0.01536679  0.19746973  0.91119200  1
  O  O40  1  0.18555430  0.99597684  0.91275849  1
  O  O41  1  0.80882697  0.83029878  0.91109125  1
  O  O42  1  0.97490803  0.15994547  0.58882028  1
  O  O43  1  0.19129309  0.01873898  0.58768378  1
  O  O44  1  0.84621061  0.81682442  0.58968824  1
  O  O45  1  0.97061381  0.81682442  0.08968824  1
  O  O46  1  0.82744589  0.01873898  0.08768378  1
  O  O47  1  0.18503744  0.15994547  0.08882028  1
  O  O48  1  0.68813881  0.16363178  0.74442425  1
  O  O49  1  0.47708955  0.32930984  0.74609149  1
  O  O50  1  0.84876995  0.53080273  0.74452500  1
  O  O51  1  0.68203379  0.53080273  0.24452500  1
  O  O52  1  0.85222130  0.32930984  0.24609149  1
  O  O53  1  0.47549397  0.16363178  0.24442425  1
  O  O54  1  0.64157503  0.49327847  0.92215328  1
  O  O55  1  0.85796009  0.35207198  0.92101678  1
  O  O56  1  0.51287761  0.15015742  0.92302124  1
  O  O57  1  0.63728081  0.15015742  0.42302124  1
  O  O58  1  0.49411289  0.35207198  0.42101678  1
  O  O59  1  0.85170444  0.49327847  0.42215328  1
  O  O60  1  0.35480481  0.49696578  0.07775825  1
  O  O61  1  0.14375555  0.66264384  0.07942549  1
  O  O62  1  0.51543595  0.86413673  0.07785900  1
  O  O63  1  0.34869979  0.86413673  0.57785900  1
  O  O64  1  0.51888730  0.66264384  0.57942549  1
  O  O65  1  0.14215997  0.49696578  0.57775825  1
  O  O66  1  0.30824103  0.82661247  0.25548728  1
  O  O67  1  0.52462609  0.68540598  0.25435078  1
  O  O68  1  0.17954361  0.48349142  0.25635524  1
  O  O69  1  0.30394681  0.48349142  0.75635524  1
  O  O70  1  0.16077889  0.68540598  0.75435078  1
  O  O71  1  0.51837044  0.82661247  0.75548728  1
loop_
_geom_bond_atom_site_label_1
_geom_bond_atom_site_label_2
_geom_bond_distance
_geom_bond_site_symmetry_2
Na0 O68 2.367297 1_555
Na0 O53 2.403991 1_555
Na0 O51 2.479212 1_555
Na0 O67 2.490854 1_555
Na0 O17 2.550917 1_555
Na0 O32 2.604440 1_555
Na0 O10 2.701606 1_555
Na0 O0 2.894303 1_555
Na1 O52 2.300065 1_555
Na1 O15 2.396694 1_555
Na1 O66 2.416248 1_655
Na1 O51 2.477194 1_555
Na1 O68 2.557408 1_655
Na1 O30 2.705616 1_655
Na1 O11 2.759345 1_655
Na1 O1 2.926828 1_555
Na2 O49 2.300065 1_555
Na2 O14 2.396696 1_555
Na2 O71 2.416255 1_555
Na2 O50 2.477202 1_555
Na2 O69 2.557416 1_555
Na2 O35 2.705619 1_555
Na2 O6 2.759345 1_555
Na2 O4 2.926828 1_555
Na3 O69 2.367289 1_655
Na3 O48 2.403984 1_555
Na3 O50 2.479204 1_555
Na3 O70 2.490854 1_655
Na3 O12 2.550913 1_555
Na3 O33 2.604439 1_655
Na3 O7 2.701606 1_655
Na3 O5 2.894303 1_555
Na4 O44 2.367297 1_455
Na4 O65 2.403975 1_555
Na4 O63 2.479204 1_555
Na4 O43 2.490854 1_565
Na4 O29 2.550891 1_555
Na4 O8 2.604440 1_555
Na4 O22 2.701606 1_455
Na4 O12 2.894303 1_455
Na5 O64 2.300058 1_555
Na5 O27 2.396675 1_555
Na5 O42 2.416248 1_565
Na5 O63 2.477204 1_555
Na5 O44 2.557408 1_555
Na5 O6 2.705616 1_555
Na5 O23 2.759345 1_565
Na5 O13 2.926828 1_565
Na6 O61 2.300058 1_555
Na6 O26 2.396670 1_554
Na6 O47 2.416255 1_565
Na6 O62 2.477187 1_555
Na6 O45 2.557416 1_455
Na6 O11 2.705619 1_555
Na6 O18 2.759345 1_565
Na6 O16 2.926828 1_565
Na7 O45 2.367289 1_555
Na7 O60 2.403989 1_555
Na7 O62 2.479219 1_555
Na7 O46 2.490854 1_565
Na7 O24 2.550899 1_554
Na7 O9 2.604439 1_555
Na7 O19 2.701606 1_555
Na7 O17 2.894303 1_555
Na8 O56 2.367280 1_555
Na8 O41 2.403991 1_545
Na8 O39 2.479212 1_655
Na8 O55 2.490845 1_555
Na8 O5 2.550917 1_555
Na8 O20 2.604415 1_556
Na8 O34 2.701606 1_545
Na8 O24 2.894303 1_545
Na9 O40 2.300065 1_545
Na9 O3 2.396694 1_555
Na9 O54 2.416252 1_555
Na9 O39 2.477194 1_555
Na9 O56 2.557422 1_555
Na9 O18 2.705601 1_556
Na9 O35 2.759345 1_555
Na9 O25 2.926828 1_555
Na10 O37 2.300065 1_545
Na10 O2 2.396696 1_555
Na10 O59 2.416238 1_555
Na10 O38 2.477202 1_655
Na10 O57 2.557406 1_555
Na10 O23 2.705594 1_555
Na10 O30 2.759345 1_655
Na10 O28 2.926828 1_655
Na11 O57 2.367296 1_555
Na11 O36 2.403984 1_545
Na11 O38 2.479204 1_555
Na11 O58 2.490845 1_555
Na11 O0 2.550913 1_555
Na11 O21 2.604419 1_555
Na11 O31 2.701606 1_545
Na11 O29 2.894303 1_545
Na12 O37 2.432247 1_555
Na12 O36 2.439315 1_655
Na12 O44 2.459054 1_555
Na12 O42 2.512372 1_565
Na12 O43 2.617784 1_665
Na12 O38 2.637891 1_665
Na13 O40 2.432247 1_555
Na13 O41 2.439315 1_455
Na13 O45 2.459054 1_456
Na13 O47 2.512372 1_566
Na13 O46 2.617784 1_466
Na13 O39 2.637891 1_565
Na14 O49 2.432247 1_555
Na14 O48 2.439315 1_555
Na14 O56 2.459054 1_555
Na14 O54 2.512372 1_555
Na14 O55 2.617784 1_555
Na14 O50 2.637891 1_555
Na15 O52 2.432247 1_555
Na15 O53 2.439315 1_555
Na15 O57 2.459054 1_555
Na15 O59 2.512372 1_555
Na15 O58 2.617784 1_555
Na15 O51 2.637891 1_555
Na16 O61 2.432247 1_555
Na16 O60 2.439315 1_555
Na16 O68 2.459054 1_555
Na16 O66 2.512372 1_555
Na16 O67 2.617784 1_555
Na16 O62 2.637891 1_555
Na17 O64 2.432247 1_555
Na17 O65 2.439315 1_555
Na17 O69 2.459054 1_555
Na17 O71 2.512372 1_555
Na17 O70 2.617784 1_555
Na17 O63 2.637891 1_555
Mg0 O1 1.980198 1_555
Mg0 O2 2.012432 1_565
Mg0 O0 2.056447 1_665
Mg0 O36 2.083814 1_655
Mg0 O37 2.102376 1_555
Mg0 O38 2.130154 1_665
Mg1 O4 1.980198 1_455
Mg1 O3 2.012432 1_565
Mg1 O5 2.056447 1_465
Mg1 O41 2.083814 1_455
Mg1 O40 2.102376 1_555
Mg1 O39 2.130154 1_565
Mg2 O13 1.980198 1_555
Mg2 O14 2.012432 1_555
Mg2 O12 2.056447 1_555
Mg2 O48 2.083814 1_555
Mg2 O49 2.102376 1_555
Mg2 O50 2.130154 1_555
Mg3 O16 1.980198 1_555
Mg3 O15 2.012432 1_555
Mg3 O17 2.056447 1_555
Mg3 O53 2.083814 1_555
Mg3 O52 2.102376 1_555
Mg3 O51 2.130154 1_555
Mg4 O25 1.980198 1_554
Mg4 O26 2.012432 1_554
Mg4 O24 2.056447 1_554
Mg4 O60 2.083814 1_555
Mg4 O61 2.102376 1_555
Mg4 O62 2.130154 1_555
Mg5 O28 1.980198 1_555
Mg5 O27 2.012432 1_555
Mg5 O29 2.056447 1_555
Mg5 O65 2.083814 1_555
Mg5 O64 2.102376 1_555
Mg5 O63 2.130154 1_555
Ga0 O7 1.907750 1_655
Ga0 O6 1.937167 1_545
Ga0 O42 1.960724 1_555
Ga0 O44 2.019803 1_545
Ga0 O8 2.176705 1_645
Ga0 O43 2.226222 1_655
Ga1 O10 1.907750 1_555
Ga1 O11 1.937167 1_545
Ga1 O47 1.960724 1_555
Ga1 O45 2.019803 1_445
Ga1 O9 2.176705 1_445
Ga1 O46 2.226222 1_455
Ga2 O19 1.907750 1_556
Ga2 O18 1.937167 1_556
Ga2 O54 1.960724 1_555
Ga2 O56 2.019803 1_555
Ga2 O20 2.176705 1_556
Ga2 O55 2.226222 1_555
Ga3 O22 1.907750 1_555
Ga3 O23 1.937167 1_555
Ga3 O59 1.960724 1_555
Ga3 O57 2.019803 1_555
Ga3 O21 2.176705 1_555
Ga3 O58 2.226222 1_555
Ga4 O31 1.907750 1_555
Ga4 O30 1.937167 1_555
Ga4 O66 1.960724 1_555
Ga4 O68 2.019803 1_555
Ga4 O32 2.176705 1_555
Ga4 O67 2.226222 1_555
Ga5 O34 1.907750 1_555
Ga5 O35 1.937167 1_555
Ga5 O71 1.960724 1_555
Ga5 O69 2.019803 1_555
Ga5 O33 2.176705 1_555
Ga5 O70 2.226222 1_555
O0 P0 1.526632 1_545
O1 S0 1.461799 1_555
O2 P1 1.519496 1_655
O3 P2 1.519496 1_555
O4 S1 1.461799 1_655
O5 P3 1.526632 1_545
O6 P3 1.580002 1_555
O7 P2 1.568150 1_555
O8 S1 1.495526 1_555
O9 S0 1.495526 1_555
O10 P1 1.568150 1_555
O11 P0 1.580002 1_555
O12 P4 1.526632 1_555
O13 S2 1.461799 1_555
O14 P5 1.519496 1_555
O15 P6 1.519496 1_555
O16 S3 1.461799 1_555
O17 P7 1.526632 1_555
O18 P7 1.580002 1_555
O19 P6 1.568150 1_555
O20 S3 1.495526 1_555
O21 S2 1.495526 1_555
O22 P5 1.568150 1_555
O23 P4 1.580002 1_555
O24 P8 1.526632 1_555
O25 S4 1.461799 1_555
O26 P9 1.519496 1_555
O27 P10 1.519496 1_555
O28 S5 1.461799 1_555
O29 P11 1.526632 1_555
O30 P11 1.580002 1_555
O31 P10 1.568150 1_555
O32 S5 1.495526 1_555
O33 S4 1.495526 1_555
O34 P9 1.568150 1_555
O35 P8 1.580002 1_555
O36 P11 1.530187 1_555
O37 P10 1.529013 1_555
O38 S5 1.496757 1_555
O39 S4 1.496761 1_555
O40 P9 1.529004 1_555
O41 P8 1.530192 1_555
O42 P4 1.568752 1_555
O43 S2 1.485328 1_555
O44 P5 1.597268 1_555
O45 P6 1.597272 1_555
O46 S3 1.485319 1_555
O47 P7 1.568757 1_555
O48 P3 1.530187 1_545
O49 P2 1.529013 1_555
O50 S1 1.496757 1_655
O51 S0 1.496761 1_555
O52 P1 1.529004 1_655
O53 P0 1.530192 1_545
O54 P8 1.568764 1_555
O55 S4 1.485314 1_655
O56 P9 1.597266 1_545
O57 P10 1.597258 1_545
O58 S5 1.485331 1_555
O59 P11 1.568754 1_655
O60 P7 1.530198 1_555
O61 P6 1.528999 1_455
O62 S3 1.496755 1_565
O63 S2 1.496747 1_565
O64 P5 1.529016 1_555
O65 P4 1.530188 1_455
O66 P0 1.568752 1_555
O67 S0 1.485328 1_555
O68 P1 1.597268 1_555
O69 P2 1.597272 1_555
O70 S1 1.485319 1_555
O71 P3 1.568757 1_555
