# generated using pymatgen
data_Ba2MgZnWO6
_symmetry_space_group_name_H-M   'P 1'
_cell_length_a   6.59540125
_cell_length_b   6.59539759
_cell_length_c   6.51678358
_cell_angle_alpha   54.99885736
_cell_angle_beta   54.99885113
_cell_angle_gamma   54.05197367
_symmetry_Int_Tables_number   1
_chemical_formula_structural   Ba2MgZnWO6
_chemical_formula_sum   'Ba2 Mg1 Zn1 W1 O6'
_cell_volume   175.58174923
_cell_formula_units_Z   1
loop_
 _symmetry_equiv_pos_site_id
 _symmetry_equiv_pos_as_xyz
  1  'x, y, z'
loop_
 _atom_site_type_symbol
 _atom_site_label
 _atom_site_symmetry_multiplicity
 _atom_site_fract_x
 _atom_site_fract_y
 _atom_site_fract_z
 _atom_site_occupancy
  Ba  Ba0  1  0.77219061  0.77219061  0.77661386  1
  Ba  Ba1  1  0.20470349  0.20470349  0.19901547  1
  Mg  Mg0  1  0.40972751  0.40972751  0.41447294  1
  Zn  Zn0  1  0.58487164  0.58487164  0.57805322  1
  W  W0  1  0.98865628  0.98865628  0.98892548  1
  O  O0  1  0.21467925  0.74658143  0.75851542  1
  O  O1  1  0.75631881  0.22447791  0.21562350  1
  O  O2  1  0.74931727  0.74931627  0.21230321  1
  O  O3  1  0.74658143  0.21467925  0.75851542  1
  O  O4  1  0.22347780  0.22347680  0.75993897  1
  O  O5  1  0.22447691  0.75631881  0.21562350  1
loop_
_geom_bond_atom_site_label_1
_geom_bond_atom_site_label_2
_geom_bond_distance
_geom_bond_site_symmetry_2
Ba0 O2 2.674145 1_556
Ba0 O3 2.758382 1_565
Ba0 O0 2.758384 1_655
Ba0 O4 3.066110 1_565
Ba0 O4 3.066115 1_655
Ba0 O1 3.080537 1_556
Ba0 O5 3.080542 1_556
Ba0 O5 3.136302 1_655
Ba0 O1 3.136304 1_565
Ba0 Zn0 3.191698 1_555
Ba1 O4 2.724554 1_554
Ba1 O1 2.823187 1_455
Ba1 O5 2.823189 1_545
Ba1 O0 3.050847 1_554
Ba1 O3 3.050848 1_554
Ba1 O2 3.053234 1_455
Ba1 O2 3.053241 1_545
Ba1 O0 3.135537 1_545
Ba1 O3 3.135537 1_455
Mg0 O4 1.874279 1_555
Mg0 O1 1.880517 1_555
Mg0 O5 1.880519 1_555
O0 Zn0 1.889266 1_555
O0 W0 2.100914 1_455
O1 W0 2.047047 1_544
O2 Zn0 1.866460 1_555
O2 W0 2.180839 1_554
O3 Zn0 1.889266 1_555
O3 W0 2.100915 1_545
O4 W0 2.130175 1_445
O5 W0 2.047043 1_454
