# generated using pymatgen
data_Na3AlSi3Ge3(SO8)3
_symmetry_space_group_name_H-M   'P 1'
_cell_length_a   8.50538817
_cell_length_b   8.54262302
_cell_length_c   21.90947545
_cell_angle_alpha   89.54568702
_cell_angle_beta   90.28970673
_cell_angle_gamma   120.05505962
_symmetry_Int_Tables_number   1
_chemical_formula_structural   Na3AlSi3Ge3(SO8)3
_chemical_formula_sum   'Na9 Al3 Si9 Ge9 S9 O72'
_cell_volume   1377.82092720
_cell_formula_units_Z   3
loop_
 _symmetry_equiv_pos_site_id
 _symmetry_equiv_pos_as_xyz
  1  'x, y, z'
loop_
 _atom_site_type_symbol
 _atom_site_label
 _atom_site_symmetry_multiplicity
 _atom_site_fract_x
 _atom_site_fract_y
 _atom_site_fract_z
 _atom_site_occupancy
  Na  Na0  1  0.36029891  0.36245231  0.24659925  1
  Na  Na1  1  0.63559889  0.62907730  0.75221247  1
  Na  Na2  1  0.96786141  0.29310108  0.41645639  1
  Na  Na3  1  0.99768689  0.00081787  0.49907662  1
  Na  Na4  1  0.00067662  0.99591951  0.00174353  1
  Na  Na5  1  0.66587659  0.33443950  0.83283551  1
  Na  Na6  1  0.66728464  0.32672111  0.33192399  1
  Na  Na7  1  0.32260732  0.66403344  0.16443261  1
  Na  Na8  1  0.31527655  0.65744857  0.66639882  1
  Al  Al0  1  0.99270982  0.01142087  0.35590200  1
  Al  Al1  1  0.68045699  0.34398348  0.68938141  1
  Al  Al2  1  0.68784597  0.34493530  0.18217984  1
  Si  Si0  1  0.98927998  0.28736467  0.25044260  1
  Si  Si1  1  0.28830276  0.28123627  0.75156293  1
  Si  Si2  1  0.00719107  0.71558599  0.74842866  1
  Si  Si3  1  0.95407167  0.33332103  0.58439831  1
  Si  Si4  1  0.96191377  0.62955152  0.08405874  1
  Si  Si5  1  0.38466487  0.33400097  0.08657729  1
  Si  Si6  1  0.62148029  0.67365212  0.91629609  1
  Si  Si7  1  0.61188039  0.94030380  0.41695483  1
  Si  Si8  1  0.34029368  0.37230213  0.41718278  1
  Ge  Ge0  1  0.00098760  0.98300284  0.85175989  1
  Ge  Ge1  1  0.01695964  0.01954936  0.64843218  1
  Ge  Ge2  1  0.01674939  0.01437167  0.14341324  1
  Ge  Ge3  1  0.66138392  0.36435673  0.98420885  1
  Ge  Ge4  1  0.65614979  0.30795202  0.47919762  1
  Ge  Ge5  1  0.34023645  0.66004621  0.02472406  1
  Ge  Ge6  1  0.33039364  0.64608396  0.51809422  1
  Ge  Ge7  1  0.33682124  0.65869635  0.31578105  1
  Ge  Ge8  1  0.32019640  0.64654289  0.81240717  1
  S  S0  1  0.28633639  0.99448138  0.25159405  1
  S  S1  1  0.71949440  0.71811400  0.25085536  1
  S  S2  1  0.71312938  0.00518332  0.74986750  1
  S  S3  1  0.37893141  0.04304471  0.58506200  1
  S  S4  1  0.66911489  0.62173686  0.58369118  1
  S  S5  1  0.66680276  0.05040977  0.08276101  1
  S  S6  1  0.03969260  0.37301680  0.91766648  1
  S  S7  1  0.33802140  0.95527449  0.91707028  1
  S  S8  1  0.04599554  0.67322918  0.41623676  1
  O  O0  1  0.20058861  0.02440344  0.30507870  1
  O  O1  1  0.82928993  0.79861580  0.30566781  1
  O  O2  1  0.96896102  0.17262701  0.31123974  1
  O  O3  1  0.19381030  0.16030844  0.81277245  1
  O  O4  1  0.94906986  0.79048180  0.80796979  1
  O  O5  1  0.82447237  0.03982866  0.80552515  1
  O  O6  1  0.78722478  0.96036125  0.69531003  1
  O  O7  1  0.16268995  0.21116564  0.69092583  1
  O  O8  1  0.03674003  0.84234102  0.68801270  1
  O  O9  1  0.79538855  0.82579348  0.19487782  1
  O  O10  1  0.04438207  0.19969708  0.19216091  1
  O  O11  1  0.17606007  0.95961340  0.19472504  1
  O  O12  1  0.85766108  0.36203618  0.64151629  1
  O  O13  1  0.48968924  0.13040896  0.63864159  1
  O  O14  1  0.63474720  0.51154240  0.63954850  1
  O  O15  1  0.87949045  0.50128653  0.14191370  1
  O  O16  1  0.63471054  0.12698571  0.13771893  1
  O  O17  1  0.50123099  0.36086404  0.14774935  1
  O  O18  1  0.45717624  0.28577455  0.02396501  1
  O  O19  1  0.84147778  0.54715347  0.02140905  1
  O  O20  1  0.70122801  0.15986350  0.02628843  1
  O  O21  1  0.45110936  0.15528974  0.52779184  1
  O  O22  1  0.69663100  0.54038984  0.52867343  1
  O  O23  1  0.83632246  0.30184816  0.52020103  1
  O  O24  1  0.52814399  0.70746084  0.97536091  1
  O  O25  1  0.15498734  0.45611482  0.97155238  1
  O  O26  1  0.30030589  0.84233230  0.97203419  1
  O  O27  1  0.52026335  0.82398473  0.47935545  1
  O  O28  1  0.27987908  0.45337687  0.47409990  1
  O  O29  1  0.15675950  0.70772061  0.47213114  1
  O  O30  1  0.12006929  0.62615310  0.36178741  1
  O  O31  1  0.48381801  0.86158878  0.35611046  1
  O  O32  1  0.37901192  0.49620858  0.35527250  1
  O  O33  1  0.11420561  0.48851798  0.86112132  1
  O  O34  1  0.36384750  0.87416863  0.86106044  1
  O  O35  1  0.49875339  0.63788310  0.85431710  1
  O  O36  1  0.02766726  0.83168766  0.40633144  1
  O  O37  1  0.81195432  0.96533406  0.41065733  1
  O  O38  1  0.16357885  0.17573408  0.40866030  1
  O  O39  1  0.02813543  0.19644767  0.91032264  1
  O  O40  1  0.17219386  0.97555434  0.91209018  1
  O  O41  1  0.82398853  0.85588543  0.90876983  1
  O  O42  1  0.97304369  0.14861780  0.58980650  1
  O  O43  1  0.19439341  0.02370880  0.58761418  1
  O  O44  1  0.83086162  0.80421229  0.58899091  1
  O  O45  1  0.97172572  0.82459092  0.09399521  1
  O  O46  1  0.82676243  0.02537140  0.08918300  1
  O  O47  1  0.18011119  0.15948081  0.08863093  1
  O  O48  1  0.69145016  0.16321173  0.74191984  1
  O  O49  1  0.48789668  0.30775180  0.74048579  1
  O  O50  1  0.82875613  0.51923296  0.74198914  1
  O  O51  1  0.68985986  0.53230721  0.24654557  1
  O  O52  1  0.81181794  0.30551598  0.24189419  1
  O  O53  1  0.46553033  0.15980115  0.24510797  1
  O  O54  1  0.63998694  0.49025408  0.92077871  1
  O  O55  1  0.85649096  0.35110453  0.92314915  1
  O  O56  1  0.50363797  0.13556498  0.92197749  1
  O  O57  1  0.64460655  0.14837677  0.42231495  1
  O  O58  1  0.52643238  0.36721872  0.42879840  1
  O  O59  1  0.86511375  0.50721055  0.42278346  1
  O  O60  1  0.36662408  0.51463746  0.07792258  1
  O  O61  1  0.16412396  0.65584871  0.07127499  1
  O  O62  1  0.50128111  0.86851313  0.07748189  1
  O  O63  1  0.36310408  0.86483300  0.57846452  1
  O  O64  1  0.50207249  0.63971916  0.57903344  1
  O  O65  1  0.15663808  0.51959350  0.57524824  1
  O  O66  1  0.30600007  0.83200508  0.25638483  1
  O  O67  1  0.53186877  0.69838575  0.25459120  1
  O  O68  1  0.18163179  0.49323386  0.25812635  1
  O  O69  1  0.31599830  0.48720194  0.75728635  1
  O  O70  1  0.19006469  0.70274886  0.76023122  1
  O  O71  1  0.53177688  0.83951901  0.75607033  1
loop_
_geom_bond_atom_site_label_1
_geom_bond_atom_site_label_2
_geom_bond_distance
_geom_bond_site_symmetry_2
Na0 O68 2.308719 1_555
Na0 O53 2.313513 1_555
Na0 O51 2.426619 1_555
Na0 O17 2.484050 1_555
Na0 O67 2.491241 1_555
Na0 O10 2.612929 1_555
Na0 O32 2.618610 1_555
Na0 O0 2.802850 1_555
Na1 O50 2.276173 1_555
Na1 O69 2.360388 1_555
Na1 O71 2.368968 1_555
Na1 O49 2.394330 1_555
Na1 O35 2.545881 1_555
Na1 O4 2.610273 1_555
Na1 O14 2.670779 1_555
Na1 O6 2.744274 1_555
Na2 O38 2.341555 1_655
Na2 O57 2.387562 1_555
Na2 O59 2.394726 1_555
Na2 O37 2.428853 1_545
Na2 O2 2.533947 1_555
Na2 O23 2.556542 1_555
Na2 O28 2.620381 1_655
Na2 O30 2.734528 1_655
Na3 O37 2.416394 1_545
Na3 O42 2.428726 1_555
Na3 O38 2.453028 1_655
Na3 O43 2.499148 1_655
Na3 O44 2.510709 1_545
Na3 O36 2.588892 1_645
Na4 O47 2.404621 1_565
Na4 O45 2.425915 1_455
Na4 O41 2.458819 1_454
Na4 O40 2.511045 1_554
Na4 O46 2.516058 1_465
Na4 O39 2.559406 1_564
Na5 O54 2.423075 1_555
Na5 O49 2.463343 1_555
Na5 O50 2.482014 1_555
Na5 O56 2.496247 1_555
Na5 O55 2.510957 1_555
Na5 O48 2.554194 1_555
Na6 O52 2.384962 1_555
Na6 O57 2.437634 1_555
Na6 O53 2.480913 1_555
Na6 O51 2.496828 1_555
Na6 O58 2.551915 1_555
Na6 O59 2.566605 1_555
Na7 O61 2.422344 1_555
Na7 O60 2.426017 1_555
Na7 O68 2.450614 1_555
Na7 O62 2.511462 1_555
Na7 O66 2.527726 1_555
Na7 O67 2.570284 1_555
Na8 O65 2.369407 1_555
Na8 O70 2.440879 1_555
Na8 O69 2.458321 1_555
Na8 O63 2.499552 1_555
Na8 O64 2.547039 1_555
Na8 O71 2.610149 1_555
Al0 O2 1.774837 1_555
Al0 O37 1.833753 1_545
Al0 O38 1.839535 1_655
Al0 O1 1.983267 1_545
Al0 O36 2.023277 1_645
Al0 O0 2.049362 1_655
Al1 O12 1.782070 1_555
Al1 O50 1.811614 1_555
Al1 O49 1.880727 1_555
Al1 O48 1.958024 1_555
Al1 O14 1.980009 1_555
Al1 O13 2.060568 1_555
Al2 O15 1.741924 1_555
Al2 O52 1.808762 1_555
Al2 O17 1.819197 1_555
Al2 O16 1.949651 1_555
Al2 O51 2.135222 1_555
Al2 O53 2.230217 1_555
Ge0 O4 1.764537 1_455
Ge0 O3 1.794148 1_565
Ge0 O41 1.834591 1_455
Ge0 O40 1.985869 1_555
Ge0 O5 2.054901 1_465
Ge0 O39 2.153300 1_565
Ge1 O7 1.750079 1_555
Ge1 O8 1.817911 1_545
Ge1 O42 1.841264 1_455
Ge1 O43 2.005038 1_555
Ge1 O6 2.037404 1_445
Ge1 O44 2.164706 1_445
Ge2 O47 1.782091 1_555
Ge2 O45 1.830049 1_445
Ge2 O10 1.831371 1_555
Ge2 O11 1.982385 1_545
Ge2 O46 2.040252 1_455
Ge2 O9 2.089480 1_445
Ge3 O19 1.749487 1_556
Ge3 O18 1.750480 1_556
Ge3 O54 1.814091 1_555
Ge3 O20 2.140282 1_556
Ge3 O55 2.183879 1_555
Ge3 O56 2.208219 1_555
Ge4 O23 1.795416 1_555
Ge4 O58 1.797564 1_555
Ge4 O57 1.820099 1_555
Ge4 O21 1.895860 1_555
Ge4 O59 2.131315 1_555
Ge4 O22 2.140527 1_555
Ge5 O60 1.790397 1_555
Ge5 O61 1.801744 1_555
Ge5 O24 1.802825 1_554
Ge5 O62 1.989221 1_555
Ge5 O25 2.034406 1_554
Ge5 O26 2.090490 1_554
Ge6 O28 1.770944 1_555
Ge6 O27 1.781292 1_555
Ge6 O65 1.821374 1_555
Ge6 O64 1.994092 1_555
Ge6 O29 2.056164 1_555
Ge6 O63 2.198547 1_555
Ge7 O31 1.786200 1_555
Ge7 O32 1.811325 1_555
Ge7 O68 1.865062 1_555
Ge7 O30 1.998247 1_555
Ge7 O67 2.028860 1_555
Ge7 O66 2.075782 1_555
Ge8 O35 1.803442 1_555
Ge8 O70 1.809199 1_555
Ge8 O69 1.813704 1_555
Ge8 O33 1.912611 1_555
Ge8 O34 2.088305 1_555
Ge8 O71 2.120904 1_555
O0 S0 1.473273 1_545
O1 S1 1.464813 1_555
O2 Si0 1.605255 1_555
O3 Si1 1.633665 1_555
O4 Si2 1.640748 1_655
O5 S2 1.478086 1_555
O6 S2 1.493038 1_565
O7 Si1 1.619386 1_555
O8 Si2 1.641901 1_555
O9 S1 1.470487 1_555
O10 Si0 1.668482 1_455
O11 S0 1.495033 1_555
O12 Si3 1.585996 1_555
O13 S3 1.456349 1_555
O14 S4 1.476146 1_555
O15 Si4 1.586296 1_555
O16 S5 1.465249 1_555
O17 Si5 1.611032 1_555
O18 Si5 1.644372 1_555
O19 Si4 1.645517 1_555
O20 S5 1.483900 1_555
O21 S3 1.506586 1_555
O22 S4 1.473003 1_555
O23 Si3 1.666030 1_555
O24 Si6 1.623037 1_555
O25 S6 1.470951 1_555
O26 S7 1.469497 1_555
O27 Si7 1.636266 1_555
O28 Si8 1.635680 1_555
O29 S8 1.479880 1_555
O30 S8 1.500268 1_555
O31 Si7 1.637536 1_555
O32 Si8 1.643568 1_555
O33 S6 1.507382 1_555
O34 S7 1.484199 1_555
O35 Si6 1.643074 1_555
O36 S8 1.452632 1_555
O37 Si7 1.611831 1_555
O38 Si8 1.608644 1_555
O39 S6 1.471694 1_555
O40 S7 1.508019 1_555
O41 Si6 1.652374 1_555
O42 Si3 1.667802 1_555
O43 S3 1.494992 1_555
O44 S4 1.479591 1_555
O45 Si4 1.642163 1_555
O46 S5 1.485139 1_555
O47 Si5 1.628871 1_555
O48 S2 1.460152 1_555
O49 Si1 1.615629 1_555
O50 Si2 1.608863 1_655
O51 S1 1.480975 1_555
O52 Si0 1.602646 1_555
O53 S0 1.476680 1_545
O54 Si6 1.653298 1_555
O55 S6 1.478795 1_655
O56 S7 1.481841 1_545
O57 Si7 1.660762 1_545
O58 Si8 1.624110 1_555
O59 S8 1.487386 1_655
O60 Si5 1.634909 1_555
O61 Si4 1.644309 1_455
O62 S5 1.489918 1_565
O63 S3 1.467895 1_565
O64 S4 1.506477 1_555
O65 Si3 1.671220 1_455
O66 S0 1.481720 1_555
O67 S1 1.521013 1_555
O68 Si0 1.708134 1_455
O69 Si1 1.659835 1_555
O70 Si2 1.632340 1_555
O71 S2 1.487623 1_565
