# generated using pymatgen
data_V2O3
_symmetry_space_group_name_H-M   'P 1'
_cell_length_a   8.29142248
_cell_length_b   8.29142248
_cell_length_c   8.29142248
_cell_angle_alpha   109.47122063
_cell_angle_beta   109.47122063
_cell_angle_gamma   109.47122063
_symmetry_Int_Tables_number   1
_chemical_formula_structural   V2O3
_chemical_formula_sum   'V16 O24'
_cell_volume   438.79860993
_cell_formula_units_Z   8
loop_
 _symmetry_equiv_pos_site_id
 _symmetry_equiv_pos_as_xyz
  1  'x, y, z'
loop_
 _atom_site_type_symbol
 _atom_site_label
 _atom_site_symmetry_multiplicity
 _atom_site_fract_x
 _atom_site_fract_y
 _atom_site_fract_z
 _atom_site_occupancy
  V  V0  1  0.71801400  0.46801400  0.25000000  1
  V  V1  1  0.03198600  0.75000000  0.78198600  1
  V  V2  1  0.25000000  0.21801400  0.96801400  1
  V  V3  1  0.25000000  0.71801400  0.46801400  1
  V  V4  1  0.46801400  0.25000000  0.71801400  1
  V  V5  1  0.78198600  0.03198600  0.75000000  1
  V  V6  1  0.53198600  0.75000000  0.28198600  1
  V  V7  1  0.75000000  0.78198600  0.03198600  1
  V  V8  1  0.28198600  0.53198600  0.75000000  1
  V  V9  1  0.96801400  0.25000000  0.21801400  1
  V  V10  1  0.75000000  0.28198600  0.53198600  1
  V  V11  1  0.21801400  0.96801400  0.25000000  1
  V  V12  1  0.00000000  0.00000000  0.50000000  1
  V  V13  1  0.50000000  0.00000000  0.00000000  1
  V  V14  1  0.50000000  0.50000000  0.50000000  1
  V  V15  1  0.00000000  0.50000000  0.00000000  1
  O  O0  1  0.22882300  0.45465000  0.46301600  1
  O  O1  1  0.73419300  0.22582700  0.27117700  1
  O  O2  1  0.72582700  0.99163300  0.95465000  1
  O  O3  1  0.53698400  0.77117700  0.54535000  1
  O  O4  1  0.46301600  0.22882300  0.45465000  1
  O  O5  1  0.77117700  0.54535000  0.53698400  1
  O  O6  1  0.99163300  0.95465000  0.72582700  1
  O  O7  1  0.22582700  0.27117700  0.73419300  1
  O  O8  1  0.76580700  0.03698400  0.49163300  1
  O  O9  1  0.04535000  0.27417300  0.00836700  1
  O  O10  1  0.03698400  0.49163300  0.76580700  1
  O  O11  1  0.49163300  0.76580700  0.03698400  1
  O  O12  1  0.27117700  0.73419300  0.22582700  1
  O  O13  1  0.72882300  0.26580700  0.77417300  1
  O  O14  1  0.26580700  0.77417300  0.72882300  1
  O  O15  1  0.23419300  0.96301600  0.50836700  1
  O  O16  1  0.77417300  0.72882300  0.26580700  1
  O  O17  1  0.27417300  0.00836700  0.04535000  1
  O  O18  1  0.54535000  0.53698400  0.77117700  1
  O  O19  1  0.45465000  0.46301600  0.22882300  1
  O  O20  1  0.96301600  0.50836700  0.23419300  1
  O  O21  1  0.95465000  0.72582700  0.99163300  1
  O  O22  1  0.50836700  0.23419300  0.96301600  1
  O  O23  1  0.00836700  0.04535000  0.27417300  1
loop_
_geom_bond_atom_site_label_1
_geom_bond_atom_site_label_2
_geom_bond_distance
_geom_bond_site_symmetry_2
O0 V9 2.002345 1_455
O0 V14 2.047134 1_555
O0 V8 2.088692 1_555
O0 V3 2.116633 1_555
O1 V10 2.002345 1_555
O1 V13 2.047134 1_555
O1 V9 2.088692 1_555
O1 V0 2.116633 1_555
O2 V5 2.002348 1_565
O2 V13 2.047136 1_566
O2 V7 2.088684 1_556
O2 V9 2.116636 1_566
O3 V5 2.002345 1_565
O3 V14 2.047134 1_555
O3 V3 2.088692 1_555
O3 V6 2.116633 1_555
O4 V11 2.002345 1_545
O4 V14 2.047134 1_555
O4 V10 2.088692 1_555
O4 V4 2.116633 1_555
O5 V1 2.002345 1_655
O5 V14 2.047134 1_555
O5 V0 2.088692 1_555
O5 V10 2.116633 1_555
O6 V1 2.002348 1_655
O6 V12 2.047136 1_665
O6 V5 2.088684 1_565
O6 V2 2.116636 1_665
O7 V8 2.002345 1_555
O7 V12 2.047134 1_555
O7 V2 2.088692 1_555
O7 V4 2.116633 1_555
O8 V10 2.002344 1_555
O8 V12 2.047132 1_655
O8 V6 2.088691 1_545
O8 V5 2.116641 1_555
O9 V2 2.002348 1_554
O9 V15 2.047136 1_555
O9 V9 2.088684 1_455
O9 V5 2.116636 1_454
O10 V8 2.002344 1_555
O10 V15 2.047132 1_556
O10 V10 2.088691 1_455
O10 V1 2.116641 1_555
O11 V6 2.002344 1_555
O11 V13 2.047132 1_565
O11 V8 2.088691 1_554
O11 V7 2.116641 1_555
O12 V6 2.002345 1_555
O12 V15 2.047134 1_555
O12 V11 2.088692 1_555
O12 V3 2.116633 1_555
O13 V4 2.002345 1_555
O13 V15 2.047134 1_656
O13 V5 2.088692 1_555
O13 V10 2.116633 1_555
O14 V3 2.002345 1_555
O14 V13 2.047134 1_566
O14 V1 2.088692 1_555
O14 V8 2.116633 1_555
O15 V3 2.002344 1_555
O15 V12 2.047132 1_565
O15 V4 2.088691 1_565
O15 V11 2.116641 1_555
O16 V0 2.002345 1_555
O16 V12 2.047134 1_665
O16 V7 2.088692 1_555
O16 V6 2.116633 1_555
O17 V11 2.002348 1_545
O17 V13 2.047136 1_555
O17 V2 2.088684 1_554
O17 V1 2.116636 1_544
O18 V7 2.002345 1_556
O18 V14 2.047134 1_555
O18 V4 2.088692 1_555
O18 V8 2.116633 1_555
O19 V2 2.002345 1_554
O19 V14 2.047134 1_555
O19 V6 2.088692 1_555
O19 V0 2.116633 1_555
O20 V0 2.002344 1_555
O20 V15 2.047132 1_655
O20 V3 2.088691 1_655
O20 V9 2.116641 1_555
O21 V7 2.002348 1_556
O21 V15 2.047136 1_656
O21 V1 2.088684 1_655
O21 V11 2.116636 1_656
O22 V4 2.002344 1_555
O22 V13 2.047132 1_556
O22 V0 2.088691 1_556
O22 V2 2.116641 1_555
O23 V9 2.002348 1_455
O23 V12 2.047136 1_555
O23 V11 2.088684 1_545
O23 V7 2.116636 1_445
