# generated using pymatgen
data_Na7Zn3SnP5SO24
_symmetry_space_group_name_H-M   'P 1'
_cell_length_a   9.04101860
_cell_length_b   9.02002304
_cell_length_c   22.04057460
_cell_angle_alpha   89.34393491
_cell_angle_beta   90.39583928
_cell_angle_gamma   119.96467669
_symmetry_Int_Tables_number   1
_chemical_formula_structural   Na7Zn3SnP5SO24
_chemical_formula_sum   'Na21 Zn9 Sn3 P15 S3 O72'
_cell_volume   1557.05568977
_cell_formula_units_Z   3
loop_
 _symmetry_equiv_pos_site_id
 _symmetry_equiv_pos_as_xyz
  1  'x, y, z'
loop_
 _atom_site_type_symbol
 _atom_site_label
 _atom_site_symmetry_multiplicity
 _atom_site_fract_x
 _atom_site_fract_y
 _atom_site_fract_z
 _atom_site_occupancy
  Na  Na0  1  0.62493002  0.99853285  0.25119747  1
  Na  Na1  1  0.36714529  0.36116713  0.25289530  1
  Na  Na2  1  0.00762740  0.63943691  0.25007195  1
  Na  Na3  1  0.64568361  0.63489188  0.74603591  1
  Na  Na4  1  0.99106778  0.35546490  0.74684375  1
  Na  Na5  1  0.29525024  0.33932643  0.58745689  1
  Na  Na6  1  0.03062920  0.69994818  0.58773686  1
  Na  Na7  1  0.67486551  0.96225392  0.58493416  1
  Na  Na8  1  0.29367570  0.95903625  0.08255778  1
  Na  Na9  1  0.66463594  0.70297605  0.07986541  1
  Na  Na10  1  0.03814948  0.33443053  0.08011208  1
  Na  Na11  1  0.97366977  0.67907199  0.90984039  1
  Na  Na12  1  0.32244664  0.29410392  0.90957244  1
  Na  Na13  1  0.32335087  0.02070054  0.41088095  1
  Na  Na14  1  0.69841158  0.67665505  0.41596791  1
  Na  Na15  1  0.99406526  0.01307722  0.49777294  1
  Na  Na16  1  0.98752416  0.00026933  0.99477573  1
  Na  Na17  1  0.65349246  0.30706285  0.82626773  1
  Na  Na18  1  0.67125602  0.32664586  0.33224466  1
  Na  Na19  1  0.33238994  0.67209570  0.16375394  1
  Na  Na20  1  0.33402185  0.67095961  0.66571758  1
  Zn  Zn0  1  0.00988475  0.00979368  0.35316907  1
  Zn  Zn1  1  0.99659202  0.00176416  0.84588314  1
  Zn  Zn2  1  0.99390759  0.00189290  0.66080704  1
  Zn  Zn3  1  0.00818731  0.99823979  0.14819256  1
  Zn  Zn4  1  0.66897316  0.33632539  0.68657935  1
  Zn  Zn5  1  0.65678744  0.32304285  0.17648534  1
  Zn  Zn6  1  0.33612281  0.66832370  0.01372011  1
  Zn  Zn7  1  0.33002377  0.65576079  0.50958407  1
  Zn  Zn8  1  0.33015453  0.67259456  0.32811485  1
  Sn  Sn0  1  0.66739655  0.32933474  0.98211489  1
  Sn  Sn1  1  0.67612727  0.33688581  0.48189625  1
  Sn  Sn2  1  0.33539747  0.67331191  0.81667378  1
  P  P0  1  0.29832765  0.99874871  0.25024677  1
  P  P1  1  0.29972804  0.29958525  0.75158712  1
  P  P2  1  0.00419267  0.70581089  0.75072452  1
  P  P3  1  0.70004251  -0.00056210  0.74909255  1
  P  P4  1  0.96502860  0.33302716  0.58611888  1
  P  P5  1  0.66643453  0.63077107  0.58376166  1
  P  P6  1  0.96035775  0.62710630  0.08545097  1
  P  P7  1  0.66862028  0.03391167  0.08663813  1
  P  P8  1  0.36928582  0.33497447  0.08437166  1
  P  P9  1  0.63188364  0.66735312  0.91930163  1
  P  P10  1  0.03561214  0.36959785  0.91900200  1
  P  P11  1  0.33430756  0.96424192  0.92002137  1
  P  P12  1  0.63357591  0.96710863  0.41740368  1
  P  P13  1  0.33477414  0.36735940  0.41726555  1
  P  P14  1  0.03443267  0.66647024  0.41671708  1
  S  S0  1  0.70292682  0.70327293  0.25034248  1
  S  S1  1  0.00008755  0.29556744  0.24901990  1
  S  S2  1  0.37198969  0.03912669  0.58288532  1
  O  O0  1  0.21351653  0.02526810  0.30649031  1
  O  O1  1  0.80528162  0.78727787  0.30495045  1
  O  O2  1  0.97395818  0.18393411  0.30172086  1
  O  O3  1  0.21651836  0.19869992  0.80969500  1
  O  O4  1  0.98213642  0.78923175  0.80766700  1
  O  O5  1  0.81645427  0.02775149  0.80336532  1
  O  O6  1  0.76694767  0.95980605  0.69012162  1
  O  O7  1  0.18914012  0.22361541  0.69404096  1
  O  O8  1  0.02829894  0.80816107  0.69153204  1
  O  O9  1  0.78340968  0.80765031  0.19489399  1
  O  O10  1  0.01978494  0.21834951  0.19241402  1
  O  O11  1  0.18941427  0.97185895  0.19229820  1
  O  O12  1  0.88170170  0.36110578  0.64177818  1
  O  O13  1  0.48437767  0.12682916  0.63420498  1
  O  O14  1  0.63703072  0.51424388  0.63884211  1
  O  O15  1  0.87587166  0.51662713  0.14216259  1
  O  O16  1  0.63865510  0.11037118  0.14407521  1
  O  O17  1  0.47822153  0.36461183  0.14161273  1
  O  O18  1  0.45569647  0.30298395  0.02754857  1
  O  O19  1  0.84645845  0.54314898  0.02703005  1
  O  O20  1  0.70453624  0.15831726  0.03081820  1
  O  O21  1  0.44881546  0.14248134  0.52455290  1
  O  O22  1  0.69244916  0.54523684  0.52467563  1
  O  O23  1  0.84266439  0.29381754  0.52913798  1
  O  O24  1  0.54976970  0.68434200  0.97688679  1
  O  O25  1  0.14099150  0.45280411  0.97611243  1
  O  O26  1  0.31122924  0.86086726  0.97826003  1
  O  O27  1  0.54856540  0.85817956  0.47449153  1
  O  O28  1  0.31773998  0.44652192  0.47580099  1
  O  O29  1  0.14367089  0.69162138  0.47348161  1
  O  O30  1  0.10818610  0.63890620  0.35800575  1
  O  O31  1  0.52318632  0.89310182  0.35948483  1
  O  O32  1  0.36803926  0.48136179  0.36010159  1
  O  O33  1  0.11820349  0.48940153  0.86158027  1
  O  O34  1  0.36487818  0.88031818  0.86373278  1
  O  O35  1  0.51272563  0.63089377  0.86230411  1
  O  O36  1  0.00961681  0.82461921  0.41302220  1
  O  O37  1  0.81046053  0.98344818  0.41176254  1
  O  O38  1  0.18292459  0.18420210  0.41336290  1
  O  O39  1  0.01961276  0.19396849  0.91243342  1
  O  O40  1  0.17560153  0.98485187  0.91341460  1
  O  O41  1  0.81313461  0.81791565  0.91253527  1
  O  O42  1  0.98517591  0.17192149  0.58818423  1
  O  O43  1  0.20239705  0.02540421  0.58598012  1
  O  O44  1  0.83201810  0.80705071  0.58512108  1
  O  O45  1  0.97286775  0.80482676  0.08599465  1
  O  O46  1  0.83220218  0.01901506  0.08869537  1
  O  O47  1  0.19134273  0.17103216  0.08590210  1
  O  O48  1  0.67959686  0.15829129  0.74421169  1
  O  O49  1  0.48300518  0.33166034  0.74701345  1
  O  O50  1  0.84445392  0.52341741  0.74827567  1
  O  O51  1  0.68988354  0.53129181  0.24772428  1
  O  O52  1  0.84682685  0.31831760  0.24702536  1
  O  O53  1  0.47975372  0.16362392  0.24698635  1
  O  O54  1  0.64044133  0.49420703  0.92051215  1
  O  O55  1  0.85827415  0.36459526  0.92036835  1
  O  O56  1  0.49773509  0.14933300  0.92083663  1
  O  O57  1  0.64132436  0.14675359  0.42147613  1
  O  O58  1  0.50520972  0.35236564  0.42030610  1
  O  O59  1  0.84868581  0.50404216  0.41981496  1
  O  O60  1  0.35257954  0.49665909  0.07856958  1
  O  O61  1  0.13833725  0.64383222  0.08072614  1
  O  O62  1  0.50594152  0.85753651  0.07959179  1
  O  O63  1  0.35640105  0.86789063  0.57874801  1
  O  O64  1  0.50520045  0.64951040  0.57871374  1
  O  O65  1  0.14022502  0.49923592  0.57840803  1
  O  O66  1  0.31673063  0.83492653  0.25412881  1
  O  O67  1  0.52808357  0.68230904  0.25292261  1
  O  O68  1  0.15866625  0.46701821  0.25364055  1
  O  O69  1  0.31215123  0.48455832  0.75509445  1
  O  O70  1  0.16580813  0.68045324  0.75402601  1
  O  O71  1  0.52138769  0.82803301  0.75559155  1
loop_
_geom_bond_atom_site_label_1
_geom_bond_atom_site_label_2
_geom_bond_distance
_geom_bond_site_symmetry_2
Na0 O66 2.416371 1_555
Na0 O53 2.428266 1_565
Na0 O67 2.531233 1_555
Na0 O16 2.536138 1_565
Na0 O31 2.559581 1_555
Na0 O52 2.563054 1_565
Na1 O53 2.459216 1_555
Na1 O68 2.502613 1_555
Na1 O67 2.509534 1_555
Na1 O51 2.531720 1_555
Na1 O32 2.609282 1_555
Na1 O17 2.650751 1_555
Na1 O0 2.870766 1_555
Na2 O66 2.450461 1_555
Na2 O52 2.510865 1_455
Na2 O51 2.531130 1_455
Na2 O68 2.531162 1_555
Na2 O30 2.541665 1_555
Na2 O15 2.646853 1_455
Na2 O11 2.886534 1_555
Na3 O49 2.371773 1_555
Na3 O50 2.458795 1_555
Na3 O71 2.511886 1_555
Na3 O14 2.596849 1_555
Na3 O69 2.624724 1_555
Na3 O35 2.830272 1_555
Na3 O6 2.834824 1_555
Na3 O4 2.965179 1_555
Na4 O50 2.461851 1_555
Na4 O48 2.468511 1_555
Na4 O12 2.521644 1_555
Na4 O69 2.537093 1_655
Na4 O70 2.548537 1_655
Na4 O33 2.796158 1_655
Na4 O5 2.839591 1_555
Na4 O7 2.857215 1_655
Na5 O42 2.431216 1_455
Na5 O65 2.468546 1_555
Na5 O64 2.481086 1_555
Na5 O43 2.520093 1_555
Na5 O7 2.550114 1_555
Na5 O28 2.605495 1_555
Na5 O14 2.905652 1_555
Na6 O44 2.427162 1_455
Na6 O65 2.470836 1_555
Na6 O8 2.501824 1_555
Na6 O43 2.544651 1_565
Na6 O63 2.559907 1_555
Na6 O29 2.740130 1_555
Na6 O12 2.898442 1_455
Na6 O22 2.991829 1_455
Na7 O44 2.442394 1_555
Na7 O64 2.452131 1_555
Na7 O6 2.461511 1_555
Na7 O42 2.480508 1_565
Na7 O63 2.565592 1_555
Na7 O27 2.655880 1_555
Na7 O23 2.857883 1_565
Na7 O13 2.994251 1_565
Na8 O61 2.463869 1_555
Na8 O62 2.506717 1_555
Na8 O26 2.507131 1_554
Na8 O47 2.507868 1_565
Na8 O45 2.514668 1_455
Na8 O11 2.626606 1_555
Na9 O62 2.449490 1_555
Na9 O24 2.461732 1_554
Na9 O45 2.463398 1_555
Na9 O46 2.480712 1_565
Na9 O60 2.485791 1_555
Na9 O9 2.734356 1_555
Na9 O19 2.927277 1_555
Na9 O17 2.967474 1_555
Na10 O60 2.463443 1_555
Na10 O61 2.466730 1_555
Na10 O47 2.477746 1_555
Na10 O25 2.498099 1_554
Na10 O46 2.509553 1_455
Na10 O10 2.650126 1_555
Na10 O20 2.830080 1_455
Na11 O41 2.344607 1_555
Na11 O40 2.433009 1_655
Na11 O4 2.437144 1_555
Na11 O55 2.494107 1_555
Na11 O54 2.625803 1_555
Na11 O19 2.838554 1_556
Na11 O33 2.839014 1_655
Na12 O3 2.386354 1_555
Na12 O39 2.418014 1_555
Na12 O40 2.418179 1_545
Na12 O56 2.516505 1_555
Na12 O54 2.529482 1_555
Na12 O35 2.829351 1_555
Na12 O18 2.843274 1_556
Na13 O38 2.379719 1_555
Na13 O36 2.482844 1_545
Na13 O0 2.507732 1_555
Na13 O57 2.518619 1_555
Na13 O58 2.606206 1_555
Na13 O21 2.747617 1_555
Na13 O31 2.829748 1_545
Na13 O29 2.910989 1_545
Na14 O37 2.426466 1_555
Na14 O36 2.439525 1_655
Na14 O59 2.526997 1_555
Na14 O58 2.551160 1_555
Na14 O1 2.632519 1_555
Na14 O22 2.649849 1_555
Na14 O32 2.878142 1_555
Na14 O27 2.910070 1_555
Na15 O37 2.438370 1_545
Na15 O38 2.470761 1_655
Na15 O42 2.492561 1_555
Na15 O44 2.558060 1_545
Na15 O36 2.591094 1_645
Na15 O43 2.661742 1_655
Na16 O39 2.420507 1_655
Na16 O41 2.432111 1_545
Na16 O40 2.531902 1_645
Na16 O46 2.563398 1_556
Na16 O45 2.618531 1_546
Na16 O47 2.643202 1_656
Na17 O48 2.346316 1_555
Na17 O49 2.402491 1_555
Na17 O56 2.514561 1_555
Na17 O50 2.518457 1_555
Na17 O55 2.647744 1_555
Na17 O54 2.731453 1_555
Na18 O57 2.463689 1_555
Na18 O53 2.483187 1_555
Na18 O52 2.493346 1_555
Na18 O59 2.514520 1_555
Na18 O58 2.544242 1_555
Na18 O51 2.553646 1_555
Na19 O61 2.451813 1_555
Na19 O62 2.459315 1_555
Na19 O66 2.534476 1_555
Na19 O60 2.534524 1_555
Na19 O67 2.606646 1_555
Na19 O68 2.621154 1_555
Na20 O70 2.506671 1_555
Na20 O69 2.518734 1_555
Na20 O71 2.534007 1_555
Na20 O63 2.537513 1_555
Na20 O64 2.541346 1_555
Na20 O65 2.546160 1_555
O0 P0 1.544352 1_545
O0 Zn0 2.057566 1_555
O1 S0 1.477898 1_555
O1 Zn0 2.211929 1_665
O2 S1 1.469127 1_655
O2 Zn0 2.079032 1_655
O3 P1 1.528750 1_555
O3 Zn1 2.050953 1_455
O4 P2 1.534949 1_655
O4 Zn1 2.046169 1_565
O5 P3 1.524774 1_555
O5 Zn1 1.985145 1_555
O6 P3 1.555812 1_565
O6 Zn2 2.001657 1_565
O7 P1 1.547875 1_555
O7 Zn2 2.035007 1_455
O8 P2 1.541827 1_555
O8 Zn2 2.030188 1_465
O9 S0 1.486955 1_555
O9 Zn3 2.154828 1_655
O10 S1 1.490061 1_555
O10 Zn3 2.176628 1_545
O11 P0 1.552697 1_555
O11 Zn3 2.012063 1_555
O12 P4 1.532034 1_555
O12 Zn4 2.077445 1_555
O13 S2 1.462649 1_555
O13 Zn4 2.135811 1_555
O14 P5 1.531457 1_555
O14 Zn4 2.045974 1_555
O15 P6 1.537270 1_555
O15 Zn5 2.019930 1_555
O16 P7 1.537215 1_555
O16 Zn5 1.983094 1_555
O17 P8 1.536463 1_555
O17 Zn5 1.979555 1_555
O18 P8 1.584022 1_555
O18 Sn0 2.071037 1_554
O19 P6 1.586478 1_555
O19 Sn0 2.055012 1_554
O20 P7 1.577404 1_555
O20 Sn0 2.029560 1_554
O21 S2 1.530549 1_555
O21 Sn1 2.138089 1_555
O22 P5 1.598446 1_555
O22 Sn1 2.050443 1_555
O23 P4 1.589455 1_555
O23 Sn1 2.013822 1_555
O24 P9 1.522052 1_555
O24 Zn6 2.037438 1_556
O25 P10 1.531735 1_555
O25 Zn6 2.041891 1_556
O26 P11 1.530552 1_555
O26 Zn6 2.008663 1_556
O27 P12 1.539478 1_555
O27 Zn7 2.054484 1_555
O28 P13 1.527015 1_555
O28 Zn7 1.987579 1_555
O29 P14 1.535509 1_555
O29 Zn7 2.023955 1_555
O30 P14 1.538137 1_555
O30 Zn8 1.989528 1_555
O31 P12 1.551675 1_555
O31 Zn8 2.006784 1_555
O32 P13 1.549809 1_555
O32 Zn8 2.036839 1_555
O33 P10 1.582019 1_555
O33 Sn2 2.079115 1_555
O34 P11 1.556871 1_555
O34 Sn2 2.043690 1_555
O35 P9 1.576002 1_555
O35 Sn2 2.076022 1_555
O36 P14 1.551996 1_555
O36 Zn0 2.115575 1_565
O37 P12 1.536736 1_555
O37 Zn0 2.138275 1_665
O38 P13 1.535417 1_555
O38 Zn0 2.059885 1_555
O39 P10 1.525637 1_555
O39 Zn1 2.212257 1_455
O40 P11 1.541931 1_555
O40 Zn1 2.250812 1_465
O41 P9 1.525639 1_555
O41 Zn1 2.211218 1_565
O42 P4 1.552341 1_555
O42 Zn2 2.232354 1_555
O43 S2 1.477370 1_555
O43 Zn2 2.440003 1_455
O44 P5 1.546910 1_555
O44 Zn2 2.340424 1_565
O45 P6 1.549835 1_555
O45 Zn3 2.125345 1_655
O46 P7 1.550754 1_555
O46 Zn3 2.133002 1_645
O47 P8 1.548937 1_555
O47 Zn3 2.111973 1_545
O48 P3 1.536102 1_555
O48 Zn4 2.075394 1_555
O49 P1 1.536979 1_555
O49 Zn4 2.135859 1_555
O50 P2 1.556533 1_655
O50 Zn4 2.135956 1_555
O51 S0 1.497633 1_555
O51 Zn5 2.362818 1_555
O52 S1 1.499003 1_655
O52 Zn5 2.325039 1_555
O53 P0 1.571551 1_545
O53 Zn5 2.174442 1_555
O54 P9 1.601744 1_555
O54 Sn0 2.103746 1_555
O55 P10 1.581750 1_655
O55 Sn0 2.098971 1_555
O56 P11 1.583333 1_545
O56 Sn0 2.084930 1_555
O57 P12 1.590131 1_545
O57 Sn1 2.078723 1_555
O58 P13 1.613608 1_555
O58 Sn1 2.105307 1_555
O59 P14 1.585210 1_655
O59 Sn1 2.052321 1_555
O60 P8 1.543244 1_555
O60 Zn6 2.153882 1_555
O61 P6 1.543474 1_455
O61 Zn6 2.249866 1_555
O62 P7 1.543836 1_565
O62 Zn6 2.187770 1_555
O63 S2 1.483044 1_565
O63 Zn7 2.376515 1_555
O64 P5 1.552211 1_555
O64 Zn7 2.210643 1_555
O65 P4 1.552791 1_455
O65 Zn7 2.192202 1_555
O66 P0 1.568772 1_555
O66 Zn8 2.222159 1_555
O67 S0 1.496729 1_555
O67 Zn8 2.416094 1_555
O68 S1 1.498089 1_555
O68 Zn8 2.387319 1_555
O69 P1 1.618020 1_555
O69 Sn2 2.115781 1_555
O70 P2 1.588907 1_555
O70 Sn2 2.080624 1_555
O71 P3 1.588505 1_565
O71 Sn2 2.057123 1_555
