# generated using pymatgen
data_Ba2Ho2Co4O11
_symmetry_space_group_name_H-M   'P 1'
_cell_length_a   3.91566800
_cell_length_b   7.67839000
_cell_length_c   7.82637200
_cell_angle_alpha   90.00000000
_cell_angle_beta   90.00000000
_cell_angle_gamma   90.00000000
_symmetry_Int_Tables_number   1
_chemical_formula_structural   Ba2Ho2Co4O11
_chemical_formula_sum   'Ba2 Ho2 Co4 O11'
_cell_volume   235.30790415
_cell_formula_units_Z   1
loop_
 _symmetry_equiv_pos_site_id
 _symmetry_equiv_pos_as_xyz
  1  'x, y, z'
loop_
 _atom_site_type_symbol
 _atom_site_label
 _atom_site_symmetry_multiplicity
 _atom_site_fract_x
 _atom_site_fract_y
 _atom_site_fract_z
 _atom_site_occupancy
  Ba  Ba0  1  0.00000000  0.00000000  0.74983100  1
  Ba  Ba1  1  0.00000000  0.00000000  0.25016900  1
  Ho  Ho0  1  0.00000000  0.50000000  0.72753200  1
  Ho  Ho1  1  0.00000000  0.50000000  0.27246800  1
  Co  Co0  1  0.50000000  0.74496900  0.50000000  1
  Co  Co1  1  0.50000000  0.25503100  0.50000000  1
  Co  Co2  1  0.50000000  0.73907600  0.00000000  1
  Co  Co3  1  0.50000000  0.26092400  0.00000000  1
  O  O0  1  0.50000000  0.69431500  0.76994000  1
  O  O1  1  0.50000000  0.69431500  0.23006000  1
  O  O2  1  0.50000000  0.30568500  0.23006000  1
  O  O3  1  0.50000000  0.30568500  0.76994000  1
  O  O4  1  0.00000000  0.28073200  0.50000000  1
  O  O5  1  0.00000000  0.71926800  0.50000000  1
  O  O6  1  0.00000000  0.31618600  0.00000000  1
  O  O7  1  0.00000000  0.68381400  0.00000000  1
  O  O8  1  0.50000000  0.00000000  0.00000000  1
  O  O9  1  0.50000000  0.00000000  0.50000000  1
  O  O10  1  0.50000000  0.50000000  0.50000000  1
loop_
_geom_bond_atom_site_label_1
_geom_bond_atom_site_label_2
_geom_bond_distance
_geom_bond_site_symmetry_2
Ba0 O9 2.766983 1_555
Ba0 O9 2.766983 1_455
Ba0 O8 2.768853 1_456
Ba0 O8 2.768853 1_556
Ba0 O5 2.910251 1_545
Ba0 O4 2.910251 1_555
Ba0 O0 3.060569 1_445
Ba0 O0 3.060569 1_545
Ba0 O3 3.060569 1_455
Ba0 O3 3.060569 1_555
Ba0 O6 3.118917 1_556
Ba0 O7 3.118917 1_546
Ba1 O9 2.766983 1_555
Ba1 O9 2.766983 1_455
Ba1 O8 2.768853 1_455
Ba1 O8 2.768853 1_555
Ba1 O5 2.910251 1_545
Ba1 O4 2.910251 1_555
Ba1 O1 3.060569 1_445
Ba1 O2 3.060569 1_555
Ba1 O1 3.060569 1_545
Ba1 O2 3.060569 1_455
Ba1 O6 3.118917 1_555
Ba1 O7 3.118917 1_545
Ho0 O5 2.450646 1_555
Ho0 O4 2.450646 1_555
Ho0 O3 2.483831 1_455
Ho0 O0 2.483831 1_455
Ho0 O3 2.483831 1_555
Ho0 O0 2.483831 1_555
Ho0 O7 2.557210 1_556
Ho0 O6 2.557210 1_556
Ho0 O10 2.646542 1_555
Ho0 O10 2.646542 1_455
Ho1 O4 2.450646 1_555
Ho1 O5 2.450646 1_555
Ho1 O2 2.483831 1_555
Ho1 O1 2.483831 1_455
Ho1 O1 2.483831 1_555
Ho1 O2 2.483831 1_455
Ho1 O7 2.557210 1_555
Ho1 O6 2.557210 1_555
Ho1 O10 2.646542 1_555
Ho1 O10 2.646542 1_455
Co0 O10 1.880968 1_555
Co0 O9 1.958227 1_565
Co0 O5 1.967755 1_555
Co0 O5 1.967755 1_655
Co0 O1 2.148155 1_555
Co0 O0 2.148155 1_555
Co1 O10 1.880968 1_555
Co1 O9 1.958227 1_555
Co1 O4 1.967755 1_555
Co1 O4 1.967755 1_655
Co1 O2 2.148155 1_555
Co1 O3 2.148155 1_555
Co2 O0 1.833044 1_554
Co2 O1 1.833044 1_555
Co2 O7 2.003288 1_555
Co2 O7 2.003288 1_655
Co2 O8 2.003476 1_565
Co3 O3 1.833044 1_554
Co3 O2 1.833044 1_555
Co3 O6 2.003288 1_555
Co3 O6 2.003288 1_655
Co3 O8 2.003476 1_555
