# generated using pymatgen
data_BiI
_symmetry_space_group_name_H-M   'P 1'
_cell_length_a   4.39360232
_cell_length_b   7.89828448
_cell_length_c   20.82944880
_cell_angle_alpha   94.51218526
_cell_angle_beta   89.95256266
_cell_angle_gamma   106.16671540
_symmetry_Int_Tables_number   1
_chemical_formula_structural   BiI
_chemical_formula_sum   'Bi8 I8'
_cell_volume   691.91892262
_cell_formula_units_Z   8
loop_
 _symmetry_equiv_pos_site_id
 _symmetry_equiv_pos_as_xyz
  1  'x, y, z'
loop_
 _atom_site_type_symbol
 _atom_site_label
 _atom_site_symmetry_multiplicity
 _atom_site_fract_x
 _atom_site_fract_y
 _atom_site_fract_z
 _atom_site_occupancy
  Bi  Bi0  1  0.74705696  0.49398179  0.39041697  1
  Bi  Bi1  1  0.25294304  0.50601821  0.60958303  1
  Bi  Bi2  1  0.99712882  0.99498535  0.89240410  1
  Bi  Bi3  1  0.00287118  0.00501465  0.10759590  1
  Bi  Bi4  1  0.30416460  0.60860417  0.75566651  1
  Bi  Bi5  1  0.69583540  0.39139583  0.24433349  1
  Bi  Bi6  1  0.94138912  0.88276780  0.74724762  1
  Bi  Bi7  1  0.05861088  0.11723220  0.25275238  1
  I  I0  1  0.61384276  0.23025243  0.63622027  1
  I  I1  1  0.38615724  0.76974757  0.36377973  1
  I  I2  1  0.88087681  0.76467808  0.56469039  1
  I  I3  1  0.11912319  0.23532192  0.43530961  1
  I  I4  1  0.63021022  0.25996487  0.85391141  1
  I  I5  1  0.36978978  0.74003513  0.14608859  1
  I  I6  1  0.36824629  0.73810543  0.93703542  1
  I  I7  1  0.63175371  0.26189457  0.06296458  1
loop_
_geom_bond_atom_site_label_1
_geom_bond_atom_site_label_2
_geom_bond_distance
_geom_bond_site_symmetry_2
Bi0 Bi5 3.078586 1_555
Bi0 I1 3.111428 1_555
Bi0 I1 3.117414 1_655
Bi0 I3 3.133244 1_555
Bi0 I3 3.143764 1_655
Bi1 Bi4 3.078586 1_555
Bi1 I0 3.111428 1_555
Bi1 I0 3.117414 1_455
Bi1 I2 3.133244 1_555
Bi1 I2 3.143764 1_455
Bi2 Bi6 3.073432 1_555
Bi2 I4 3.125197 1_565
Bi2 I4 3.127045 1_665
Bi2 I6 3.127445 1_655
Bi2 I6 3.128250 1_555
Bi3 Bi7 3.073432 1_555
Bi3 I5 3.125197 1_545
Bi3 I5 3.127045 1_445
Bi3 I7 3.127445 1_455
Bi3 I7 3.128250 1_555
Bi4 Bi6 3.039916 1_555
Bi4 Bi6 3.040148 1_455
Bi5 Bi7 3.039916 1_555
Bi5 Bi7 3.040148 1_655
