# generated using pymatgen
data_Ba3MgWO6
_symmetry_space_group_name_H-M   'P 1'
_cell_length_a   7.36435781
_cell_length_b   7.45123571
_cell_length_c   7.45102318
_cell_angle_alpha   48.93988620
_cell_angle_beta   48.99861798
_cell_angle_gamma   48.99543630
_symmetry_Int_Tables_number   1
_chemical_formula_structural   Ba3MgWO6
_chemical_formula_sum   'Ba3 Mg1 W1 O6'
_cell_volume   213.67598777
_cell_formula_units_Z   1
loop_
 _symmetry_equiv_pos_site_id
 _symmetry_equiv_pos_as_xyz
  1  'x, y, z'
loop_
 _atom_site_type_symbol
 _atom_site_label
 _atom_site_symmetry_multiplicity
 _atom_site_fract_x
 _atom_site_fract_y
 _atom_site_fract_z
 _atom_site_occupancy
  Ba  Ba0  1  0.28751465  0.31052701  0.31048168  1
  Ba  Ba1  1  0.49894934  0.50765240  0.50758202  1
  Ba  Ba2  1  0.69124968  0.71792360  0.71783967  1
  Mg  Mg0  1  0.11845184  0.12422818  0.12416362  1
  W  W0  1  0.98390034  0.98797761  0.98805080  1
  O  O0  1  0.25553676  0.77656270  0.77674552  1
  O  O1  1  0.21963166  0.76341555  0.20555305  1
  O  O2  1  0.79854863  0.26279544  0.76374296  1
  O  O3  1  0.21970365  0.20562125  0.76332566  1
  O  O4  1  0.75290796  0.21506306  0.21512022  1
  O  O5  1  0.79860849  0.76364818  0.26280779  1
loop_
_geom_bond_atom_site_label_1
_geom_bond_atom_site_label_2
_geom_bond_distance
_geom_bond_site_symmetry_2
Ba0 O4 2.650809 1_555
Ba0 O3 2.661143 1_555
Ba0 O1 2.661217 1_555
Ba0 O5 2.939342 1_455
Ba0 O2 2.940103 1_455
Ba0 O0 3.153300 1_554
Ba0 O0 3.154746 1_545
Ba0 O2 3.303838 1_554
Ba0 O5 3.304346 1_545
Ba0 Mg0 3.531566 1_555
Ba1 O0 2.664382 1_555
Ba1 O5 2.739917 1_555
Ba1 O2 2.740140 1_555
Ba1 O3 2.867475 1_555
Ba1 O1 2.867642 1_555
Ba1 O4 2.922751 1_555
Ba2 O0 2.691430 1_555
Ba2 O5 2.748630 1_555
Ba2 O2 2.748905 1_555
Ba2 O3 2.982223 1_565
Ba2 O1 2.982554 1_556
Ba2 O4 3.115456 1_565
Ba2 O4 3.116256 1_556
Ba2 O1 3.219937 1_655
Ba2 O3 3.220058 1_655
Mg0 O3 1.993288 1_554
Mg0 O1 1.993316 1_545
Mg0 O4 1.995492 1_455
O0 W0 1.988087 1_455
O1 W0 2.181141 1_454
O2 W0 1.918147 1_545
O3 W0 2.182217 1_445
O4 W0 2.196954 1_544
O5 W0 1.918119 1_554
