# generated using pymatgen
data_Na5NbGa3SiP5O24
_symmetry_space_group_name_H-M   'P 1'
_cell_length_a   8.76498160
_cell_length_b   8.76552073
_cell_length_c   22.01939961
_cell_angle_alpha   90.04507383
_cell_angle_beta   90.17104553
_cell_angle_gamma   119.87153668
_symmetry_Int_Tables_number   1
_chemical_formula_structural   Na5NbGa3SiP5O24
_chemical_formula_sum   'Na15 Nb3 Ga9 Si3 P15 O72'
_cell_volume   1466.97306034
_cell_formula_units_Z   3
loop_
 _symmetry_equiv_pos_site_id
 _symmetry_equiv_pos_as_xyz
  1  'x, y, z'
loop_
 _atom_site_type_symbol
 _atom_site_label
 _atom_site_symmetry_multiplicity
 _atom_site_fract_x
 _atom_site_fract_y
 _atom_site_fract_z
 _atom_site_occupancy
  Na  Na0  1  0.63391636  0.99931320  0.25116522  1
  Na  Na1  1  0.36587109  0.36582343  0.25019044  1
  Na  Na2  1  0.00090786  0.63416780  0.25059557  1
  Na  Na3  1  0.30322830  0.33741025  0.58727126  1
  Na  Na4  1  0.03449012  0.70271801  0.58521883  1
  Na  Na5  1  0.66661342  0.96550161  0.58531928  1
  Na  Na6  1  0.29807808  0.96285693  0.08165742  1
  Na  Na7  1  0.97018472  0.67026609  0.91307012  1
  Na  Na8  1  0.70019794  0.02563288  0.91066772  1
  Na  Na9  1  0.99794179  0.99845478  0.49583293  1
  Na  Na10  1  0.00532898  0.01473172  0.99894588  1
  Na  Na11  1  0.65534061  0.33062388  0.82429569  1
  Na  Na12  1  0.66713845  0.33188827  0.33271751  1
  Na  Na13  1  0.33400201  0.65582165  0.16236619  1
  Na  Na14  1  0.33761818  0.66653449  0.66553341  1
  Nb  Nb0  1  0.66506167  0.33176243  0.97954160  1
  Nb  Nb1  1  0.66885036  0.33889831  0.47709399  1
  Nb  Nb2  1  0.33054463  0.66608362  0.80977197  1
  Ga  Ga0  1  0.99885731  0.99905790  0.35274549  1
  Ga  Ga1  1  0.01151564  0.01079239  0.85073720  1
  Ga  Ga2  1  0.99658604  0.99751963  0.65032976  1
  Ga  Ga3  1  0.99504165  0.00010433  0.14783718  1
  Ga  Ga4  1  0.66432811  0.33543623  0.68659873  1
  Ga  Ga5  1  0.66782716  0.33586428  0.18240199  1
  Ga  Ga6  1  0.32724820  0.65855802  0.01838619  1
  Ga  Ga7  1  0.33923883  0.66724787  0.51547059  1
  Ga  Ga8  1  0.33455741  0.66735064  0.31763832  1
  Si  Si0  1  0.66489702  0.62682051  0.58624470  1
  Si  Si1  1  0.05174629  0.37304703  0.91860753  1
  Si  Si2  1  0.32544249  0.95258386  0.91900300  1
  P  P0  1  0.28893113  -0.00019023  0.24964819  1
  P  P1  1  0.71137326  0.71161031  0.25018311  1
  P  P2  1  -0.00001413  0.28802793  0.25002733  1
  P  P3  1  0.29185195  0.28389602  0.74803937  1
  P  P4  1  0.99150559  0.70848317  0.74942802  1
  P  P5  1  0.71413098  0.00729361  0.74899444  1
  P  P6  1  0.95810497  0.33571834  0.58519527  1
  P  P7  1  0.37802873  0.04268885  0.58466098  1
  P  P8  1  0.96179296  0.62935891  0.08673195  1
  P  P9  1  0.66916530  0.03689969  0.08599994  1
  P  P10  1  0.37245424  0.33838933  0.08686726  1
  P  P11  1  0.61882485  0.66823356  0.91816689  1
  P  P12  1  0.62790760  0.95400035  0.41550440  1
  P  P13  1  0.32362603  0.37165631  0.41535869  1
  P  P14  1  0.05021716  0.67484616  0.41584858  1
  O  O0  1  0.20519295  0.03812588  0.30440901  1
  O  O1  1  0.83113118  0.79089250  0.30609020  1
  O  O2  1  0.95951634  0.16899946  0.30589619  1
  O  O3  1  0.20420200  0.17506183  0.80450545  1
  O  O4  1  0.97164449  0.79484726  0.80730938  1
  O  O5  1  0.81958843  0.02559000  0.80727009  1
  O  O6  1  0.79217729  0.97561677  0.69041011  1
  O  O7  1  0.18260879  0.20836279  0.68874169  1
  O  O8  1  0.02515024  0.81853978  0.69093574  1
  O  O9  1  0.78952366  0.82997313  0.19402864  1
  O  O10  1  0.04048516  0.20934562  0.19381053  1
  O  O11  1  0.17608272  0.96340564  0.19122085  1
  O  O12  1  0.87392364  0.37086974  0.63987141  1
  O  O13  1  0.49999439  0.12096388  0.63946530  1
  O  O14  1  0.61886936  0.49163261  0.64128890  1
  O  O15  1  0.87385288  0.51678679  0.14418190  1
  O  O16  1  0.63477470  0.12420331  0.14242319  1
  O  O17  1  0.48193867  0.36022243  0.14564724  1
  O  O18  1  0.47130694  0.30972761  0.03157362  1
  O  O19  1  0.84597145  0.53487246  0.02917896  1
  O  O20  1  0.68973854  0.15495167  0.02841506  1
  O  O21  1  0.46893998  0.16329771  0.52777978  1
  O  O22  1  0.70035556  0.53121742  0.52610293  1
  O  O23  1  0.83688337  0.30120007  0.52775428  1
  O  O24  1  0.54009138  0.70604875  0.97355807  1
  O  O25  1  0.16571286  0.45813266  0.97798206  1
  O  O26  1  0.29622827  0.83878943  0.97992831  1
  O  O27  1  0.54268853  0.84716905  0.47360398  1
  O  O28  1  0.30261668  0.45705983  0.47364810  1
  O  O29  1  0.15634861  0.69398222  0.47416902  1
  O  O30  1  0.12709549  0.64059476  0.35762827  1
  O  O31  1  0.51503106  0.87527051  0.35728597  1
  O  O32  1  0.35940837  0.48434752  0.35739131  1
  O  O33  1  0.13624716  0.50345626  0.85949677  1
  O  O34  1  0.37249498  0.86436529  0.86099452  1
  O  O35  1  0.50347220  0.63221503  0.86065406  1
  O  O36  1  0.02531932  0.83473933  0.41097854  1
  O  O37  1  0.81122737  0.97498095  0.41041983  1
  O  O38  1  0.16400660  0.18803444  0.40996924  1
  O  O39  1  0.00608454  0.17335632  0.90974455  1
  O  O40  1  0.15240164  0.96775752  0.90956934  1
  O  O41  1  0.80433312  0.82477780  0.90988231  1
  O  O42  1  0.97800996  0.17005270  0.58869354  1
  O  O43  1  0.19620917  0.03061324  0.58855860  1
  O  O44  1  0.84335987  0.82041404  0.58944230  1
  O  O45  1  0.97880716  0.81354491  0.08916536  1
  O  O46  1  0.83786335  0.02752046  0.08929917  1
  O  O47  1  0.19354395  0.16473351  0.08875489  1
  O  O48  1  0.69134829  0.16953776  0.74444275  1
  O  O49  1  0.47539378  0.30441243  0.74420499  1
  O  O50  1  0.83250274  0.52264333  0.74510822  1
  O  O51  1  0.68926987  0.52240670  0.24415673  1
  O  O52  1  0.83324309  0.31098254  0.24330068  1
  O  O53  1  0.47856563  0.16573640  0.24430551  1
  O  O54  1  0.64029219  0.50143597  0.92489348  1
  O  O55  1  0.85427972  0.36228852  0.92457709  1
  O  O56  1  0.50717117  0.14793921  0.92415670  1
  O  O57  1  0.64524492  0.14172465  0.42212766  1
  O  O58  1  0.49499493  0.35355887  0.42216972  1
  O  O59  1  0.86157601  0.50232095  0.42198242  1
  O  O60  1  0.35901602  0.50301838  0.07986564  1
  O  O61  1  0.14642192  0.65085582  0.08232412  1
  O  O62  1  0.50125690  0.85753546  0.07926415  1
  O  O63  1  0.35173247  0.85540632  0.57582483  1
  O  O64  1  0.49104128  0.64880711  0.57652592  1
  O  O65  1  0.14151478  0.50158605  0.57657048  1
  O  O66  1  0.31078320  0.83327598  0.25619759  1
  O  O67  1  0.52222228  0.68806507  0.25664948  1
  O  O68  1  0.16534042  0.47692084  0.25679089  1
  O  O69  1  0.31125822  0.47353472  0.75446765  1
  O  O70  1  0.16475340  0.69237148  0.75513273  1
  O  O71  1  0.52585509  0.83585417  0.75458790  1
loop_
_geom_bond_atom_site_label_1
_geom_bond_atom_site_label_2
_geom_bond_distance
_geom_bond_site_symmetry_2
Na0 O67 2.399381 1_555
Na0 O52 2.407069 1_565
Na0 O53 2.445956 1_565
Na0 O66 2.459314 1_555
Na0 O31 2.572590 1_555
Na0 O16 2.632076 1_565
Na0 O2 2.749114 1_565
Na0 O9 2.769532 1_555
Na1 O68 2.401058 1_555
Na1 O53 2.407199 1_555
Na1 O67 2.453379 1_555
Na1 O51 2.462409 1_555
Na1 O17 2.529829 1_555
Na1 O32 2.590384 1_555
Na1 O10 2.763327 1_555
Na1 O0 2.765035 1_555
Na2 O66 2.390391 1_555
Na2 O51 2.402680 1_455
Na2 O68 2.444097 1_555
Na2 O52 2.462035 1_455
Na2 O15 2.574589 1_455
Na2 O30 2.589040 1_555
Na2 O1 2.763949 1_455
Na2 O11 2.828332 1_555
Na3 O43 2.366474 1_555
Na3 O64 2.396628 1_555
Na3 O42 2.472595 1_455
Na3 O65 2.483134 1_555
Na3 O7 2.493246 1_555
Na3 O14 2.673689 1_555
Na3 O28 2.714629 1_555
Na3 O21 2.893307 1_555
Na4 O44 2.366817 1_455
Na4 O65 2.381691 1_555
Na4 O63 2.421304 1_555
Na4 O43 2.493255 1_565
Na4 O8 2.556634 1_555
Na4 O29 2.687507 1_555
Na4 O12 2.797837 1_455
Na4 O22 2.849577 1_455
Na5 O42 2.407014 1_565
Na5 O64 2.419470 1_555
Na5 O63 2.436257 1_555
Na5 O44 2.446932 1_555
Na5 O6 2.541878 1_555
Na5 O27 2.676675 1_555
Na5 O13 2.720568 1_565
Na5 O23 2.852262 1_565
Na6 O47 2.368690 1_565
Na6 O61 2.371822 1_555
Na6 O62 2.380065 1_555
Na6 O45 2.434366 1_455
Na6 O26 2.485760 1_554
Na6 O11 2.642757 1_555
Na6 O18 2.860578 1_565
Na6 O16 2.883687 1_565
Na7 O40 2.282355 1_655
Na7 O55 2.377975 1_555
Na7 O41 2.431705 1_555
Na7 O54 2.522154 1_555
Na7 O4 2.570250 1_555
Na7 O33 2.788482 1_655
Na7 O19 2.804384 1_556
Na7 O26 2.877955 1_655
Na8 O39 2.325412 1_655
Na8 O41 2.352421 1_545
Na8 O56 2.430904 1_555
Na8 O5 2.508644 1_555
Na8 O55 2.579176 1_555
Na8 O34 2.716443 1_545
Na8 O24 2.799327 1_545
Na8 O20 2.848837 1_556
Na9 O37 2.429695 1_555
Na9 O36 2.439162 1_655
Na9 O38 2.463069 1_665
Na9 O44 2.536809 1_555
Na9 O42 2.594796 1_565
Na9 O43 2.599652 1_665
Na10 O39 2.405506 1_555
Na10 O47 2.485308 1_556
Na10 O40 2.499396 1_545
Na10 O46 2.511235 1_456
Na10 O45 2.590445 1_446
Na10 O41 2.602758 1_445
Na11 O49 2.296156 1_555
Na11 O48 2.372413 1_555
Na11 O50 2.387868 1_555
Na11 O56 2.652729 1_555
Na11 O54 2.712767 1_555
Na11 O55 2.736300 1_555
Na12 O53 2.494277 1_555
Na12 O52 2.512395 1_555
Na12 O51 2.512750 1_555
Na12 O57 2.525891 1_555
Na12 O59 2.537508 1_555
Na12 O58 2.548523 1_555
Na13 O60 2.330925 1_555
Na13 O61 2.392216 1_555
Na13 O62 2.462294 1_555
Na13 O67 2.574053 1_555
Na13 O68 2.584911 1_555
Na13 O66 2.653777 1_555
Na14 O64 2.428390 1_555
Na14 O71 2.511383 1_555
Na14 O69 2.523648 1_555
Na14 O65 2.526292 1_555
Na14 O63 2.541790 1_555
Na14 O70 2.568730 1_555
Nb0 O56 1.940203 1_555
Nb0 O55 1.964034 1_555
Nb0 O18 1.979714 1_556
Nb0 O20 1.985462 1_556
Nb0 O54 2.007486 1_555
Nb0 O19 2.013245 1_556
Nb1 O22 1.901134 1_555
Nb1 O59 1.995682 1_555
Nb1 O58 1.996385 1_555
Nb1 O23 1.999568 1_555
Nb1 O21 2.003220 1_555
Nb1 O57 2.033182 1_555
Nb2 O33 1.930421 1_555
Nb2 O34 1.945759 1_555
Nb2 O70 1.983888 1_555
Nb2 O69 2.017798 1_555
Nb2 O35 2.019751 1_555
Nb2 O71 2.024664 1_555
Ga0 O1 1.965210 1_555
Ga0 O2 1.978391 1_565
Ga0 O0 1.978890 1_665
Ga0 O38 2.006063 1_665
Ga0 O37 2.007263 1_555
Ga0 O36 2.026439 1_655
Ga1 O3 1.884722 1_555
Ga1 O39 1.945763 1_555
Ga1 O40 1.949512 1_545
Ga1 O4 1.988904 1_445
Ga1 O5 1.992678 1_455
Ga1 O41 2.172643 1_445
Ga2 O6 1.921662 1_555
Ga2 O8 1.927578 1_655
Ga2 O7 1.943494 1_665
Ga2 O44 1.979989 1_555
Ga2 O42 2.098297 1_565
Ga2 O43 2.122467 1_665
Ga3 O10 1.953032 1_655
Ga3 O9 1.959788 1_545
Ga3 O46 1.984146 1_555
Ga3 O11 2.008470 1_645
Ga3 O45 2.031567 1_545
Ga3 O47 2.077870 1_655
Ga4 O14 1.889944 1_555
Ga4 O12 1.993357 1_555
Ga4 O13 1.994180 1_555
Ga4 O49 1.997445 1_555
Ga4 O50 2.025164 1_555
Ga4 O48 2.034013 1_555
Ga5 O15 1.908595 1_555
Ga5 O17 1.922018 1_555
Ga5 O16 1.939480 1_555
Ga5 O51 2.060807 1_555
Ga5 O52 2.061960 1_555
Ga5 O53 2.094326 1_555
Ga6 O25 1.842523 1_554
Ga6 O26 1.927553 1_554
Ga6 O24 1.966223 1_554
Ga6 O60 2.036608 1_555
Ga6 O61 2.098948 1_555
Ga6 O62 2.121193 1_555
Ga7 O27 1.930731 1_555
Ga7 O28 1.937017 1_555
Ga7 O64 1.951357 1_555
Ga7 O29 1.953847 1_555
Ga7 O63 2.077047 1_555
Ga7 O65 2.105311 1_555
Ga8 O31 1.924448 1_555
Ga8 O30 1.929257 1_555
Ga8 O32 1.932866 1_555
Ga8 O67 2.063527 1_555
Ga8 O66 2.071806 1_555
Ga8 O68 2.073579 1_555
O0 P0 1.534815 1_555
O1 P1 1.537705 1_555
O2 P2 1.537451 1_655
O3 P3 1.524380 1_555
O4 P4 1.535857 1_555
O5 P5 1.540009 1_555
O6 P5 1.550175 1_565
O7 P3 1.555546 1_555
O8 P4 1.548325 1_455
O9 P1 1.540680 1_555
O10 P2 1.542444 1_555
O11 P0 1.553287 1_565
O12 P6 1.523155 1_555
O13 P7 1.526502 1_555
O14 Si0 1.601555 1_555
O15 P8 1.555063 1_555
O16 P9 1.565433 1_555
O17 P10 1.562684 1_555
O18 P10 1.587098 1_555
O19 P8 1.573429 1_555
O20 P9 1.590171 1_555
O21 P7 1.578053 1_555
O22 Si0 1.677121 1_555
O23 P6 1.578406 1_555
O24 P11 1.518543 1_555
O25 Si1 1.584899 1_555
O26 Si2 1.615540 1_555
O27 P12 1.543480 1_555
O28 P13 1.542370 1_555
O29 P14 1.542628 1_555
O30 P14 1.547169 1_555
O31 P12 1.552213 1_555
O32 P13 1.548902 1_555
O33 Si1 1.647457 1_555
O34 Si2 1.648891 1_555
O35 P11 1.549015 1_555
O36 P14 1.525852 1_555
O37 P12 1.528038 1_555
O38 P13 1.522396 1_555
O39 Si1 1.601034 1_555
O40 Si2 1.600102 1_555
O41 P11 1.529598 1_555
O42 P6 1.548406 1_555
O43 P7 1.546310 1_555
O44 Si0 1.639039 1_555
O45 P8 1.546500 1_555
O46 P9 1.522780 1_555
O47 P10 1.549390 1_555
O48 P5 1.534743 1_555
O49 P3 1.529760 1_555
O50 P4 1.530509 1_555
O51 P1 1.576421 1_555
O52 P2 1.577998 1_655
O53 P0 1.576480 1_555
O54 P11 1.571367 1_555
O55 Si1 1.691331 1_655
O56 Si2 1.662517 1_545
O57 P12 1.581912 1_545
O58 P13 1.593687 1_555
O59 P14 1.596868 1_655
O60 P10 1.513148 1_555
O61 P8 1.536535 1_455
O62 P9 1.534041 1_565
O63 P7 1.551855 1_565
O64 Si0 1.641856 1_555
O65 P6 1.551874 1_455
O66 P0 1.570681 1_565
O67 P1 1.572302 1_555
O68 P2 1.572309 1_555
O69 P3 1.590593 1_555
O70 P4 1.598161 1_455
O71 P5 1.589956 1_565
