# generated using pymatgen
data_Na3MgSbS4
_symmetry_space_group_name_H-M   'P 1'
_cell_length_a   10.16788997
_cell_length_b   5.71830714
_cell_length_c   7.54908771
_cell_angle_alpha   94.80964768
_cell_angle_beta   130.40123006
_cell_angle_gamma   117.46730697
_symmetry_Int_Tables_number   1
_chemical_formula_structural   Na3MgSbS4
_chemical_formula_sum   'Na3 Mg1 Sb1 S4'
_cell_volume   244.38992409
_cell_formula_units_Z   1
loop_
 _symmetry_equiv_pos_site_id
 _symmetry_equiv_pos_as_xyz
  1  'x, y, z'
loop_
 _atom_site_type_symbol
 _atom_site_label
 _atom_site_symmetry_multiplicity
 _atom_site_fract_x
 _atom_site_fract_y
 _atom_site_fract_z
 _atom_site_occupancy
  Na  Na0  1  0.56751649  0.57308554  0.07618458  1
  Na  Na1  1  -0.00556905  0.42691446  0.50309904  1
  Na  Na2  1  0.49673276  -0.00000000  0.60900167  1
  Mg  Mg0  1  0.34713666  0.00000000  0.08152261  1
  Sb  Sb0  1  0.00459872  1.00000000  0.95278820  1
  S  S0  1  0.04362389  0.00000000  0.66269796  1
  S  S1  1  0.44641381  0.41912553  0.40054075  1
  S  S2  1  0.52538344  1.00000000  -0.01204204  1
  S  S3  1  0.02728828  0.58087447  0.98141523  1
loop_
_geom_bond_atom_site_label_1
_geom_bond_atom_site_label_2
_geom_bond_distance
_geom_bond_site_symmetry_2
Na0 S2 2.730252 1_555
Na0 S0 2.915450 1_665
Na0 S2 3.055390 1_545
Na0 S0 3.079881 1_554
Na1 S2 2.730252 1_445
Na1 S0 2.915450 1_555
Na1 S2 3.055391 1_556
Na1 S0 3.079880 1_565
Na2 S2 2.681155 1_546
Na2 S1 3.033536 1_555
Na2 S3 3.033536 1_544
Na2 S1 3.206779 1_545
Na2 S3 3.206779 1_655
Mg0 S2 2.333042 1_545
Mg0 S1 2.492392 1_555
Mg0 S3 2.492392 1_544
Mg0 S0 2.621504 1_554
S0 Sb0 2.465686 1_545
S1 Sb0 2.525141 1_544
S3 Sb0 2.525141 1_555
