# generated using pymatgen
data_Ba2MgCrMoO6
_symmetry_space_group_name_H-M   'P 1'
_cell_length_a   6.20734638
_cell_length_b   5.89059335
_cell_length_c   6.20735303
_cell_angle_alpha   61.67409472
_cell_angle_beta   55.61103722
_cell_angle_gamma   61.67420856
_symmetry_Int_Tables_number   1
_chemical_formula_structural   Ba2MgCrMoO6
_chemical_formula_sum   'Ba2 Mg1 Cr1 Mo1 O6'
_cell_volume   158.07340570
_cell_formula_units_Z   1
loop_
 _symmetry_equiv_pos_site_id
 _symmetry_equiv_pos_as_xyz
  1  'x, y, z'
loop_
 _atom_site_type_symbol
 _atom_site_label
 _atom_site_symmetry_multiplicity
 _atom_site_fract_x
 _atom_site_fract_y
 _atom_site_fract_z
 _atom_site_occupancy
  Ba  Ba0  1  0.19547100  0.30452900  0.19547100  1
  Ba  Ba1  1  0.80452900  0.69547100  0.80452900  1
  Mg  Mg0  1  0.50000000  0.00000000  0.50000000  1
  Cr  Cr0  1  0.00000000  0.00000000  0.00000000  1
  Mo  Mo0  1  0.50000000  0.50000000  0.50000000  1
  O  O0  1  0.74738700  0.23118500  0.25261300  1
  O  O1  1  0.75152900  0.24847100  0.75152900  1
  O  O2  1  0.74738300  0.76881800  0.25261700  1
  O  O3  1  0.25261300  0.76881500  0.74738700  1
  O  O4  1  0.24847100  0.75152900  0.24847100  1
  O  O5  1  0.25261700  0.23118200  0.74738300  1
loop_
_geom_bond_atom_site_label_1
_geom_bond_atom_site_label_2
_geom_bond_distance
_geom_bond_site_symmetry_2
Ba0 O0 2.815886 1_455
Ba0 O3 2.815886 1_554
Ba0 O5 2.815912 1_554
Ba0 O2 2.815912 1_455
Ba0 Mg0 2.822258 1_555
Ba0 O1 2.941792 1_455
Ba0 O1 2.941792 1_554
Ba0 O4 2.985973 1_545
Ba0 O4 2.985973 1_555
Ba1 O3 2.815886 1_655
Ba1 O0 2.815886 1_556
Ba1 O5 2.815912 1_655
Ba1 O2 2.815912 1_556
Ba1 Mg0 2.822258 1_565
Ba1 O4 2.941792 1_556
Ba1 O4 2.941792 1_655
Ba1 O1 2.985973 1_555
Ba1 O1 2.985973 1_565
Mg0 O5 1.976591 1_555
Mg0 O2 1.976591 1_545
Mg0 O0 1.976615 1_555
Mg0 O3 1.976615 1_545
Cr0 O0 1.998664 1_455
Cr0 O3 1.998664 1_544
Cr0 O5 1.998664 1_554
Cr0 O2 1.998664 1_445
Cr0 O1 2.302734 1_454
Cr0 O4 2.302734 1_545
Mo0 O2 2.135382 1_555
Mo0 O5 2.135382 1_555
Mo0 O3 2.135390 1_555
Mo0 O0 2.135390 1_555
Mo0 O1 2.331075 1_555
Mo0 O4 2.331075 1_555
