# generated using pymatgen
data_MgTe2Mo2W2(Se2S)2
_symmetry_space_group_name_H-M   'P 1'
_cell_length_a   3.33469400
_cell_length_b   3.33483665
_cell_length_c   45.49989501
_cell_angle_alpha   90.00105674
_cell_angle_beta   89.99790486
_cell_angle_gamma   119.99571337
_symmetry_Int_Tables_number   1
_chemical_formula_structural   MgTe2Mo2W2(Se2S)2
_chemical_formula_sum   'Mg1 Te2 Mo2 W2 Se4 S2'
_cell_volume   438.21812637
_cell_formula_units_Z   1
loop_
 _symmetry_equiv_pos_site_id
 _symmetry_equiv_pos_as_xyz
  1  'x, y, z'
loop_
 _atom_site_type_symbol
 _atom_site_label
 _atom_site_symmetry_multiplicity
 _atom_site_fract_x
 _atom_site_fract_y
 _atom_site_fract_z
 _atom_site_occupancy
  Mg  Mg0  1  0.99996200  0.99994400  0.37341600  1
  Te  Te0  1  0.66667800  0.33332200  0.05197300  1
  Te  Te1  1  0.66663500  0.33327500  0.13544000  1
  Mo  Mo0  1  0.33332100  0.66664200  0.09372000  1
  Mo  Mo1  1  0.66672900  0.33344700  0.27484900  1
  W  W0  1  0.33330400  0.66659300  0.47725700  1
  W  W1  1  0.66664300  0.33326700  0.65752300  1
  Se  Se0  1  0.33339100  0.66682200  0.31213800  1
  Se  Se1  1  0.66666000  0.33327000  0.44006100  1
  Se  Se2  1  0.66663900  0.33326000  0.51406100  1
  Se  Se3  1  0.33338500  0.66675600  0.23825900  1
  S  S0  1  0.33331100  0.66668600  0.69103300  1
  S  S1  1  0.33334200  0.66671500  0.62401700  1
loop_
_geom_bond_atom_site_label_1
_geom_bond_atom_site_label_2
_geom_bond_distance
_geom_bond_site_symmetry_2
Mo0 Te1 2.703768 1_565
Mo0 Te1 2.703776 1_455
Mo0 Te1 2.703792 1_555
Mo0 Te0 2.704561 1_555
Mo0 Te0 2.704636 1_455
Mo0 Te0 2.704728 1_565
Mo1 Se3 2.545275 1_655
Mo1 Se3 2.545285 1_555
Mo1 Se3 2.545453 1_545
Mo1 Se0 2.566225 1_545
Mo1 Se0 2.566250 1_555
Mo1 Se0 2.566283 1_655
Se1 W0 2.563381 1_555
Se1 W0 2.563448 1_655
Se1 W0 2.563542 1_545
Se2 W0 2.551674 1_655
Se2 W0 2.551697 1_555
Se2 W0 2.551780 1_545
S0 W1 2.455836 1_565
S0 W1 2.456006 1_455
S0 W1 2.456052 1_555
S1 W1 2.455656 1_565
S1 W1 2.455887 1_455
S1 W1 2.456011 1_555
