# generated using pymatgen
data_Y2AlGe3
_symmetry_space_group_name_H-M   'P 1'
_cell_length_a   4.21587000
_cell_length_b   6.84005300
_cell_length_c   17.75491900
_cell_angle_alpha   90.00000000
_cell_angle_beta   90.00000000
_cell_angle_gamma   90.00000000
_symmetry_Int_Tables_number   1
_chemical_formula_structural   Y2AlGe3
_chemical_formula_sum   'Y8 Al4 Ge12'
_cell_volume   511.99459087
_cell_formula_units_Z   4
loop_
 _symmetry_equiv_pos_site_id
 _symmetry_equiv_pos_as_xyz
  1  'x, y, z'
loop_
 _atom_site_type_symbol
 _atom_site_label
 _atom_site_symmetry_multiplicity
 _atom_site_fract_x
 _atom_site_fract_y
 _atom_site_fract_z
 _atom_site_occupancy
  Y  Y0  1  0.25000000  0.66733900  0.79605300  1
  Y  Y1  1  0.75000000  0.33266100  0.20394700  1
  Y  Y2  1  0.25000000  0.16733900  0.70394700  1
  Y  Y3  1  0.75000000  0.83266100  0.29605300  1
  Y  Y4  1  0.25000000  0.16903200  0.91461900  1
  Y  Y5  1  0.75000000  0.83096800  0.08538100  1
  Y  Y6  1  0.25000000  0.66903200  0.58538100  1
  Y  Y7  1  0.75000000  0.33096800  0.41461900  1
  Al  Al0  1  0.25000000  0.44995800  0.06422800  1
  Al  Al1  1  0.75000000  0.55004200  0.93577200  1
  Al  Al2  1  0.25000000  0.94995800  0.43577200  1
  Al  Al3  1  0.75000000  0.05004200  0.56422800  1
  Ge  Ge0  1  0.25000000  0.03657300  0.17297700  1
  Ge  Ge1  1  0.75000000  0.96342700  0.82702300  1
  Ge  Ge2  1  0.25000000  0.53657300  0.32702300  1
  Ge  Ge3  1  0.75000000  0.46342700  0.67297700  1
  Ge  Ge4  1  0.75000000  0.85513300  0.68804900  1
  Ge  Ge5  1  0.25000000  0.14486700  0.31195100  1
  Ge  Ge6  1  0.75000000  0.35513300  0.81195100  1
  Ge  Ge7  1  0.25000000  0.64486700  0.18804900  1
  Ge  Ge8  1  0.75000000  0.75005400  0.46566600  1
  Ge  Ge9  1  0.25000000  0.24994600  0.53433400  1
  Ge  Ge10  1  0.75000000  0.25005400  0.03433400  1
  Ge  Ge11  1  0.25000000  0.74994600  0.96566600  1
loop_
_geom_bond_atom_site_label_1
_geom_bond_atom_site_label_2
_geom_bond_distance
_geom_bond_site_symmetry_2
Al0 Ge10 2.568026 1_555
Al0 Ge10 2.568026 1_455
Al0 Ge7 2.571088 1_555
Al0 Ge11 2.696812 1_554
Al0 Y1 3.352756 1_555
Al0 Y1 3.352756 1_455
Al1 Ge11 2.568026 1_555
Al1 Ge11 2.568026 1_655
Al1 Ge6 2.571088 1_555
Al1 Ge10 2.696812 1_556
Al1 Y0 3.352756 1_655
Al1 Y0 3.352756 1_555
Al2 Ge8 2.568026 1_455
Al2 Ge8 2.568026 1_555
Al2 Ge5 2.571088 1_565
Al2 Ge9 2.696812 1_565
Al2 Y3 3.352756 1_455
Al2 Y3 3.352756 1_555
Al3 Ge9 2.568026 1_555
Al3 Ge9 2.568026 1_655
Al3 Ge4 2.571088 1_545
Al3 Ge8 2.696812 1_545
Al3 Y2 3.352756 1_555
Al3 Y2 3.352756 1_655
Ge0 Ge5 2.576259 1_555
Ge0 Ge7 2.692620 1_545
Ge0 Y5 2.973221 1_545
Ge0 Y5 2.973221 1_445
Ge0 Y1 2.974460 1_555
Ge0 Y1 2.974460 1_455
Ge0 Y3 3.341241 1_545
Ge0 Y3 3.341241 1_445
Ge1 Ge4 2.576259 1_555
Ge1 Ge6 2.692620 1_565
Ge1 Y4 2.973221 1_565
Ge1 Y4 2.973221 1_665
Ge1 Y0 2.974460 1_555
Ge1 Y0 2.974460 1_655
Ge1 Y2 3.341241 1_565
Ge1 Y2 3.341241 1_665
Ge2 Ge7 2.576259 1_555
Ge2 Ge5 2.692620 1_555
Ge2 Y7 2.973221 1_555
Ge2 Y7 2.973221 1_455
Ge2 Y3 2.974460 1_555
Ge2 Y3 2.974460 1_455
Ge2 Y1 3.341241 1_555
Ge2 Y1 3.341241 1_455
Ge3 Ge6 2.576259 1_555
Ge3 Ge4 2.692620 1_555
Ge3 Y6 2.973221 1_655
Ge3 Y6 2.973221 1_555
Ge3 Y2 2.974460 1_655
Ge3 Y2 2.974460 1_555
Ge3 Y0 3.341241 1_555
Ge3 Y0 3.341241 1_655
Ge4 Y2 3.013876 1_565
Ge4 Y2 3.013876 1_665
Ge4 Y6 3.063755 1_655
Ge4 Y6 3.063755 1_555
Ge4 Y0 3.125793 1_655
Ge4 Y0 3.125793 1_555
Ge5 Y3 3.013876 1_545
Ge5 Y3 3.013876 1_445
Ge5 Y7 3.063755 1_555
Ge5 Y7 3.063755 1_455
Ge5 Y1 3.125793 1_555
Ge5 Y1 3.125793 1_455
Ge6 Y0 3.013876 1_655
Ge6 Y0 3.013876 1_555
Ge6 Y4 3.063755 1_655
Ge6 Y4 3.063755 1_555
Ge6 Y2 3.125793 1_555
Ge6 Y2 3.125793 1_655
Ge7 Y1 3.013876 1_555
Ge7 Y1 3.013876 1_455
Ge7 Y5 3.063755 1_555
Ge7 Y5 3.063755 1_455
Ge7 Y3 3.125793 1_455
Ge7 Y3 3.125793 1_555
Ge8 Y7 3.006438 1_555
Ge8 Y6 3.044405 1_655
Ge8 Y6 3.044405 1_555
Ge8 Y3 3.064015 1_555
Ge9 Y6 3.006438 1_555
Ge9 Y7 3.044405 1_455
Ge9 Y7 3.044405 1_555
Ge9 Y2 3.064015 1_555
Ge10 Y5 3.006438 1_545
Ge10 Y4 3.044405 1_654
Ge10 Y4 3.044405 1_554
Ge10 Y1 3.064015 1_555
Ge11 Y4 3.006438 1_565
Ge11 Y5 3.044405 1_556
Ge11 Y5 3.044405 1_456
Ge11 Y0 3.064015 1_555
