# generated using pymatgen
data_Sb2Os
_symmetry_space_group_name_H-M   'P 1'
_cell_length_a   3.24311781
_cell_length_b   5.96539362
_cell_length_c   6.72350117
_cell_angle_alpha   90.00000000
_cell_angle_beta   90.00000000
_cell_angle_gamma   90.00000000
_symmetry_Int_Tables_number   1
_chemical_formula_structural   Sb2Os
_chemical_formula_sum   'Sb4 Os2'
_cell_volume   130.07604254
_cell_formula_units_Z   2
loop_
 _symmetry_equiv_pos_site_id
 _symmetry_equiv_pos_as_xyz
  1  'x, y, z'
loop_
 _atom_site_type_symbol
 _atom_site_label
 _atom_site_symmetry_multiplicity
 _atom_site_fract_x
 _atom_site_fract_y
 _atom_site_fract_z
 _atom_site_occupancy
  Sb  Sb0  1  0.50000000  0.31814397  0.85849703  1
  Sb  Sb1  1  0.50000000  0.68185603  0.14150297  1
  Sb  Sb2  1  -0.00000000  0.18185603  0.35849703  1
  Sb  Sb3  1  -0.00000000  0.81814397  0.64150297  1
  Os  Os0  1  0.50000000  0.50000000  0.50000000  1
  Os  Os1  1  0.00000000  -0.00000000  0.00000000  1
loop_
_geom_bond_atom_site_label_1
_geom_bond_atom_site_label_2
_geom_bond_distance
_geom_bond_site_symmetry_2
Os0 Sb1 2.643236 1_555
Os0 Sb0 2.643236 1_555
Os0 Sb3 2.671415 1_655
Os0 Sb2 2.671415 1_555
Os0 Sb3 2.671415 1_555
Os0 Sb2 2.671415 1_655
Os1 Sb3 2.643236 1_544
Os1 Sb2 2.643236 1_555
Os1 Sb1 2.671415 1_545
Os1 Sb1 2.671415 1_445
Os1 Sb0 2.671415 1_554
Os1 Sb0 2.671415 1_454
