# generated using pymatgen
data_Li8SiO6
_symmetry_space_group_name_H-M   'P 1'
_cell_length_a   5.37511751
_cell_length_b   5.37511549
_cell_length_c   10.53908325
_cell_angle_alpha   89.99999210
_cell_angle_beta   89.99999788
_cell_angle_gamma   119.99734305
_symmetry_Int_Tables_number   1
_chemical_formula_structural   Li8SiO6
_chemical_formula_sum   'Li16 Si2 O12'
_cell_volume   263.70651320
_cell_formula_units_Z   2
loop_
 _symmetry_equiv_pos_site_id
 _symmetry_equiv_pos_as_xyz
  1  'x, y, z'
loop_
 _atom_site_type_symbol
 _atom_site_label
 _atom_site_symmetry_multiplicity
 _atom_site_fract_x
 _atom_site_fract_y
 _atom_site_fract_z
 _atom_site_occupancy
  Li  Li0  1  -0.00001251  0.30861604  0.27017199  1
  Li  Li1  1  0.69138340  0.00001286  0.77017500  1
  Li  Li2  1  0.33334903  0.66667812  0.41122927  1
  Li  Li3  1  0.66665095  0.33332174  0.91123009  1
  Li  Li4  1  0.33332142  0.66665094  0.91123006  1
  Li  Li5  1  0.66667829  0.33334870  0.41122926  1
  Li  Li6  1  0.39404326  0.00001635  0.62902985  1
  Li  Li7  1  0.39400826  0.39400839  0.12902958  1
  Li  Li8  1  0.99998512  0.60595869  0.12902974  1
  Li  Li9  1  0.00001642  0.39404396  0.62902979  1
  Li  Li10  1  0.60599493  0.60599512  0.62902989  1
  Li  Li11  1  0.60595846  0.99998564  0.12902966  1
  Li  Li12  1  0.30861614  -0.00001255  0.27017203  1
  Li  Li13  1  0.69138726  0.69138757  0.27015727  1
  Li  Li14  1  0.00001227  0.69138316  0.77017508  1
  Li  Li15  1  0.30861266  0.30861273  0.77016059  1
  Si  Si0  1  -0.00000184  -0.00000193  0.49966038  1
  Si  Si1  1  0.00000089  0.00000067  0.99966320  1
  O  O0  1  -0.00001022  0.28957024  0.45303325  1
  O  O1  1  0.71043166  0.71043153  0.45303068  1
  O  O2  1  -0.00000448  -0.00000456  0.15787543  1
  O  O3  1  0.00000399  0.00000401  0.65787219  1
  O  O4  1  0.33332651  0.66666031  0.21980265  1
  O  O5  1  0.66667392  0.33334041  0.71980556  1
  O  O6  1  0.33334027  0.66667410  0.71980562  1
  O  O7  1  0.71042770  0.00000868  0.95303610  1
  O  O8  1  0.28957021  -0.00001043  0.45303333  1
  O  O9  1  0.28956795  0.28956776  0.95303325  1
  O  O10  1  0.00000679  0.71042613  0.95303651  1
  O  O11  1  0.66666028  0.33332662  0.21980269  1
loop_
_geom_bond_atom_site_label_1
_geom_bond_atom_site_label_2
_geom_bond_distance
_geom_bond_site_symmetry_2
Li0 O0 1.929908 1_555
Li0 O11 1.935843 1_455
Li0 O4 1.935964 1_555
Li0 O2 2.037794 1_555
Li1 O7 1.929906 1_555
Li1 O5 1.935841 1_555
Li1 O6 1.935961 1_545
Li1 O3 2.037835 1_655
Li2 O8 1.969981 1_565
Li2 O1 1.970007 1_555
Li2 O0 1.970219 1_555
Li2 O4 2.017461 1_555
Li3 O7 1.969987 1_555
Li3 O9 1.970012 1_555
Li3 O10 1.970207 1_655
Li3 O5 2.017439 1_555
Li4 O10 1.969992 1_555
Li4 O9 1.970014 1_555
Li4 O7 1.970216 1_565
Li4 O6 2.017438 1_555
Li5 O0 1.969980 1_655
Li5 O1 1.970008 1_555
Li5 O8 1.970220 1_555
Li5 O11 2.017461 1_555
Li6 O5 1.909825 1_555
Li6 O6 1.909850 1_545
Li6 O8 1.937963 1_555
Li6 O3 2.139676 1_555
Li7 O4 1.909808 1_555
Li7 O11 1.909809 1_555
Li7 O9 1.937938 1_554
Li7 O2 2.139657 1_555
Li8 O11 1.909815 1_555
Li8 O4 1.909834 1_655
Li8 O10 1.937925 1_654
Li8 O2 2.139672 1_665
Li9 O6 1.909824 1_555
Li9 O5 1.909851 1_455
Li9 O0 1.937965 1_555
Li9 O3 2.139679 1_555
Li10 O5 1.909826 1_555
Li10 O6 1.909827 1_555
Li10 O1 1.937961 1_555
Li10 O3 2.139631 1_665
Li11 O4 1.909816 1_555
Li11 O11 1.909832 1_565
Li11 O7 1.937930 1_564
Li11 O2 2.139676 1_665
Li12 O8 1.929908 1_555
Li12 O4 1.935841 1_545
Li12 O11 1.935964 1_555
Li12 O2 2.037795 1_555
Li13 O1 1.930035 1_555
Li13 O4 1.935890 1_555
Li13 O11 1.935891 1_555
Li13 O2 2.037686 1_665
Li14 O10 1.929909 1_555
Li14 O6 1.935843 1_555
Li14 O5 1.935959 1_455
Li14 O3 2.037834 1_565
Li15 O9 1.930027 1_555
Li15 O6 1.935893 1_555
Li15 O5 1.935893 1_555
Li15 O3 2.037729 1_555
O0 Si0 1.632236 1_555
O1 Si0 1.632253 1_665
O2 Si1 1.667412 1_554
O3 Si0 1.667407 1_555
O7 Si1 1.632240 1_655
O8 Si0 1.632236 1_555
O9 Si1 1.632257 1_555
O10 Si1 1.632240 1_565
