# generated using pymatgen
data_MgH2SO5
_symmetry_space_group_name_H-M   'P 1'
_cell_length_a   5.20429234
_cell_length_b   5.20429234
_cell_length_c   7.65709165
_cell_angle_alpha   73.50420163
_cell_angle_beta   73.50420163
_cell_angle_gamma   97.85182363
_symmetry_Int_Tables_number   1
_chemical_formula_structural   MgH2SO5
_chemical_formula_sum   'Mg2 H4 S2 O10'
_cell_volume   185.26984944
_cell_formula_units_Z   2
loop_
 _symmetry_equiv_pos_site_id
 _symmetry_equiv_pos_as_xyz
  1  'x, y, z'
loop_
 _atom_site_type_symbol
 _atom_site_label
 _atom_site_symmetry_multiplicity
 _atom_site_fract_x
 _atom_site_fract_y
 _atom_site_fract_z
 _atom_site_occupancy
  Mg  Mg0  1  0.50000000  0.00000000  0.00000000  1
  Mg  Mg1  1  0.00000000  0.50000000  0.50000000  1
  H  H0  1  0.95261100  0.86653300  0.20792500  1
  H  H1  1  0.13346700  0.04738900  0.29207500  1
  H  H2  1  0.04738900  0.13346700  0.79207500  1
  H  H3  1  0.86653300  0.95261100  0.70792500  1
  S  S0  1  0.41042700  0.58957300  0.75000000  1
  S  S1  1  0.58957300  0.41042700  0.25000000  1
  O  O0  1  0.27329800  0.66782400  0.60527100  1
  O  O1  1  0.33217600  0.72670200  0.89472900  1
  O  O2  1  0.72670200  0.33217600  0.39472900  1
  O  O3  1  0.66782400  0.27329800  0.10527100  1
  O  O4  1  0.32562100  0.28208500  0.84640000  1
  O  O5  1  0.71791500  0.67437900  0.65360000  1
  O  O6  1  0.67437900  0.71791500  0.15360000  1
  O  O7  1  0.28208500  0.32562100  0.34640000  1
  O  O8  1  0.88225800  0.11774200  0.75000000  1
  O  O9  1  0.11774200  0.88225800  0.25000000  1
loop_
_geom_bond_atom_site_label_1
_geom_bond_atom_site_label_2
_geom_bond_distance
_geom_bond_site_symmetry_2
Mg0 O3 2.036433 1_555
Mg0 O1 2.036433 1_544
Mg0 O4 2.086067 1_554
Mg0 O6 2.086067 1_545
Mg0 O9 2.199026 1_545
Mg0 O8 2.199026 1_554
Mg1 O0 2.036433 1_555
Mg1 O2 2.036433 1_455
Mg1 O7 2.086067 1_555
Mg1 O5 2.086067 1_455
Mg1 O8 2.199026 1_455
Mg1 O9 2.199026 1_555
H0 O9 1.001016 1_655
H1 O9 1.001016 1_545
H2 O8 1.001016 1_455
H3 O8 1.001016 1_565
O0 S0 1.474963 1_555
O1 S0 1.474963 1_555
O2 S1 1.474963 1_555
O3 S1 1.474963 1_555
O4 S0 1.500563 1_555
O5 S0 1.500563 1_555
O6 S1 1.500563 1_555
O7 S1 1.500563 1_555
