# generated using pymatgen
data_Na3La2Nb2SiP5O24
_symmetry_space_group_name_H-M   'P 1'
_cell_length_a   9.31100161
_cell_length_b   9.29250209
_cell_length_c   23.01153693
_cell_angle_alpha   89.97589855
_cell_angle_beta   90.11508240
_cell_angle_gamma   120.07273340
_symmetry_Int_Tables_number   1
_chemical_formula_structural   Na3La2Nb2SiP5O24
_chemical_formula_sum   'Na9 La6 Nb6 Si3 P15 O72'
_cell_volume   1723.00122285
_cell_formula_units_Z   3
loop_
 _symmetry_equiv_pos_site_id
 _symmetry_equiv_pos_as_xyz
  1  'x, y, z'
loop_
 _atom_site_type_symbol
 _atom_site_label
 _atom_site_symmetry_multiplicity
 _atom_site_fract_x
 _atom_site_fract_y
 _atom_site_fract_z
 _atom_site_occupancy
  Na  Na0  1  0.33739427  0.98356677  0.75437941  1
  Na  Na1  1  0.67710349  0.98897595  0.58698318  1
  Na  Na2  1  0.68846534  0.69526782  0.08081637  1
  Na  Na3  1  0.03324200  0.99863869  0.49829490  1
  Na  Na4  1  0.02563811  0.00841574  0.99720692  1
  Na  Na5  1  0.68266397  0.36180744  0.83106591  1
  Na  Na6  1  0.66079985  0.32982891  0.32905910  1
  Na  Na7  1  0.32573148  0.66776100  0.16467805  1
  Na  Na8  1  0.32869037  0.63426543  0.66535862  1
  La  La0  1  0.00236248  0.99675623  0.64656456  1
  La  La1  1  0.01136669  0.01119821  0.14828962  1
  La  La2  1  0.66434657  0.32572338  0.97700961  1
  La  La3  1  0.66344811  0.33710871  0.47467322  1
  La  La4  1  0.33752738  0.66773896  0.31023700  1
  La  La5  1  0.34028041  0.66142628  0.81452238  1
  Nb  Nb0  1  0.99967979  0.00063687  0.35175175  1
  Nb  Nb1  1  0.98975051  0.99835462  0.85149453  1
  Nb  Nb2  1  0.66826987  0.33036221  0.68380059  1
  Nb  Nb3  1  0.67116932  0.33390284  0.18605170  1
  Nb  Nb4  1  0.32405236  0.66755195  0.01787305  1
  Nb  Nb5  1  0.33072404  0.66679932  0.51836601  1
  Si  Si0  1  0.70963612  0.02132192  0.74576263  1
  Si  Si1  1  0.37487583  0.02391064  0.58148276  1
  Si  Si2  1  0.96738819  0.61890311  0.08291810  1
  P  P0  1  0.31110722  0.02986105  0.25161918  1
  P  P1  1  0.72107178  0.69161717  0.24755956  1
  P  P2  1  0.96868777  0.28224575  0.25122506  1
  P  P3  1  0.30945391  0.28313042  0.75092144  1
  P  P4  1  0.97677056  0.69354167  0.75337830  1
  P  P5  1  0.96926916  0.35831518  0.58268550  1
  P  P6  1  0.63921052  0.61417656  0.58340417  1
  P  P7  1  0.63933687  0.02350281  0.08517354  1
  P  P8  1  0.38615839  0.36105505  0.08328112  1
  P  P9  1  0.64714602  0.69376483  0.91934808  1
  P  P10  1  0.05346941  0.35602901  0.91664464  1
  P  P11  1  0.30180285  0.94661625  0.91370018  1
  P  P12  1  0.64400772  0.94653007  0.41756198  1
  P  P13  1  0.30164340  0.35789803  0.41569133  1
  P  P14  1  0.05703473  0.69728358  0.41567806  1
  O  O0  1  0.19833294  0.03917794  0.30424951  1
  O  O1  1  0.84247629  0.80358665  0.29997730  1
  O  O2  1  0.95986975  0.16165068  0.30372903  1
  O  O3  1  0.20285126  0.16336986  0.80378186  1
  O  O4  1  0.96329325  0.80235073  0.80635534  1
  O  O5  1  0.84142108  0.03096901  0.80201491  1
  O  O6  1  0.77300861  0.99142334  0.68564097  1
  O  O7  1  0.21792969  0.20770732  0.69473378  1
  O  O8  1  0.01988606  0.80065783  0.69928638  1
  O  O9  1  0.78656669  0.77824563  0.19015016  1
  O  O10  1  0.99316088  0.21607970  0.19501627  1
  O  O11  1  0.21610120  0.00033003  0.19576536  1
  O  O12  1  0.86785378  0.37725182  0.63724186  1
  O  O13  1  0.50455726  0.13716340  0.64110413  1
  O  O14  1  0.63033515  0.50171001  0.63772694  1
  O  O15  1  0.85981735  0.48735078  0.14079964  1
  O  O16  1  0.62549012  0.12778854  0.13893692  1
  O  O17  1  0.50535339  0.37241153  0.13716316  1
  O  O18  1  0.45757354  0.33645584  0.02844039  1
  O  O19  1  0.84979829  0.53839638  0.02914378  1
  O  O20  1  0.67371892  0.12313574  0.03031942  1
  O  O21  1  0.47536808  0.12974373  0.52764027  1
  O  O22  1  0.67213442  0.54771539  0.52853028  1
  O  O23  1  0.86716495  0.32949774  0.52923290  1
  O  O24  1  0.54956982  0.70610779  0.97405123  1
  O  O25  1  0.17505651  0.46625825  0.96982465  1
  O  O26  1  0.29885224  0.82193341  0.96648850  1
  O  O27  1  0.54171912  0.83054610  0.47292468  1
  O  O28  1  0.29128978  0.46329887  0.46953941  1
  O  O29  1  0.17640696  0.70826525  0.47044059  1
  O  O30  1  0.13163025  0.67446114  0.36157709  1
  O  O31  1  0.54181901  0.87215143  0.36390492  1
  O  O32  1  0.32433399  0.45222125  0.36047915  1
  O  O33  1  0.12020237  0.45112206  0.86120260  1
  O  O34  1  0.32186782  0.87958273  0.85661186  1
  O  O35  1  0.55200735  0.67448553  0.86412054  1
  O  O36  1  0.05715603  0.86772616  0.41179238  1
  O  O37  1  0.81292595  0.94334509  0.41058109  1
  O  O38  1  0.13086983  0.18537961  0.41126025  1
  O  O39  1  0.05629639  0.18736123  0.91248781  1
  O  O40  1  0.13373624  0.94393985  0.91489806  1
  O  O41  1  0.81909949  0.86601688  0.91300997  1
  O  O42  1  0.99274154  0.20928708  0.59194204  1
  O  O43  1  0.18723937  0.98196667  0.58373201  1
  O  O44  1  0.77099872  0.79720388  0.59063417  1
  O  O45  1  0.99704651  0.80350000  0.08942701  1
  O  O46  1  0.77094875  0.97433792  0.09483811  1
  O  O47  1  0.20614870  0.22567795  0.09030780  1
  O  O48  1  0.71730978  0.20534605  0.74130710  1
  O  O49  1  0.47848383  0.28019123  0.74993257  1
  O  O50  1  0.80788219  0.52940148  0.74776661  1
  O  O51  1  0.71851103  0.51941347  0.24598483  1
  O  O52  1  0.79581554  0.27747402  0.24788520  1
  O  O53  1  0.47775225  0.20063178  0.24830831  1
  O  O54  1  0.68540190  0.55332817  0.92253036  1
  O  O55  1  0.87615499  0.31476303  0.92530088  1
  O  O56  1  0.44483118  0.12050341  0.92280939  1
  O  O57  1  0.68758660  0.12552758  0.42519857  1
  O  O58  1  0.43974532  0.31786298  0.42227826  1
  O  O59  1  0.88064423  0.55886412  0.42380753  1
  O  O60  1  0.39466012  0.53674676  0.08098920  1
  O  O61  1  0.14915693  0.62397133  0.07242745  1
  O  O62  1  0.46710645  0.85436215  0.07853620  1
  O  O63  1  0.38051496  0.84464205  0.57652994  1
  O  O64  1  0.46604125  0.60951628  0.57827574  1
  O  O65  1  0.14249302  0.52222473  0.57816271  1
  O  O66  1  0.34891852  0.89046821  0.25995225  1
  O  O67  1  0.54454930  0.65602857  0.25586760  1
  O  O68  1  0.10579677  0.46072347  0.25926269  1
  O  O69  1  0.34650330  0.46122390  0.75545200  1
  O  O70  1  0.12024049  0.66291316  0.76338532  1
  O  O71  1  0.51773149  0.88440186  0.75514674  1
loop_
_geom_bond_atom_site_label_1
_geom_bond_atom_site_label_2
_geom_bond_distance
_geom_bond_site_symmetry_2
Na0 O71 2.284614 1_555
Na0 O49 2.388559 1_565
Na0 O34 2.519606 1_555
Na0 O70 2.640611 1_555
Na0 O3 2.785382 1_565
Na0 O8 2.861277 1_555
Na0 O13 3.006834 1_565
Na1 O44 2.346919 1_555
Na1 O63 2.401760 1_555
Na1 O6 2.433840 1_555
Na1 O42 2.609667 1_565
Na2 O46 2.328655 1_555
Na2 O60 2.369597 1_555
Na2 O45 2.531379 1_555
Na2 O9 2.654313 1_555
Na2 O24 2.799332 1_554
Na2 O19 2.828175 1_555
Na2 O17 2.910021 1_555
Na3 O36 2.401471 1_555
Na3 O43 2.481198 1_555
Na3 O38 2.504450 1_565
Na3 O37 2.733872 1_455
Na4 O40 2.360600 1_545
Na4 O39 2.484143 1_555
Na4 O41 2.576823 1_445
Na4 O45 2.773269 1_446
Na4 O47 2.842390 1_556
Na5 O50 2.376080 1_555
Na5 O49 2.493407 1_555
Na5 O48 2.638073 1_555
Na5 O54 2.748707 1_555
Na5 O55 2.985303 1_555
Na5 O56 3.070371 1_555
Na6 O53 2.395320 1_555
Na6 O52 2.435036 1_555
Na6 O51 2.469698 1_555
Na6 O58 2.939116 1_555
Na6 O57 3.004918 1_555
Na6 O59 3.015517 1_555
Na7 O62 2.527622 1_555
Na7 O60 2.528405 1_555
Na7 O61 2.586741 1_555
Na7 O66 2.947923 1_555
Na7 O68 2.949267 1_555
Na7 O67 2.961675 1_555
Na8 O64 2.451431 1_555
Na8 O65 2.508890 1_555
Na8 O69 2.678495 1_555
Na8 O63 2.699640 1_555
Na8 O71 2.942640 1_555
La0 O8 2.261503 1_555
La0 O7 2.269280 1_565
La0 O6 2.296316 1_455
La0 O43 2.306486 1_555
La0 O42 2.379729 1_465
La0 O44 2.392317 1_455
La1 O11 2.241012 1_555
La1 O10 2.266161 1_455
La1 O45 2.306752 1_445
La1 O47 2.329505 1_555
La1 O9 2.336750 1_445
La1 O46 2.421179 1_445
La2 O19 2.213635 1_556
La2 O20 2.284460 1_556
La2 O18 2.306284 1_556
La2 O56 2.335651 1_555
La2 O55 2.350836 1_555
La2 O54 2.380458 1_555
La3 O21 2.211368 1_555
La3 O22 2.283767 1_555
La3 O23 2.303036 1_555
La3 O58 2.332573 1_555
La3 O59 2.353117 1_555
La3 O57 2.378668 1_555
La4 O32 2.261556 1_555
La4 O31 2.263391 1_555
La4 O30 2.281255 1_555
La4 O66 2.326453 1_555
La4 O67 2.347923 1_555
La4 O68 2.358794 1_555
La5 O35 2.225996 1_555
La5 O33 2.272818 1_555
La5 O69 2.328636 1_555
La5 O34 2.329746 1_555
La5 O71 2.337874 1_555
La5 O70 2.366671 1_555
Nb0 O0 2.021947 1_655
Nb0 O2 2.037169 1_555
Nb0 O38 2.051362 1_655
Nb0 O37 2.054460 1_545
Nb0 O1 2.055130 1_545
Nb0 O36 2.092536 1_645
Nb1 O5 1.925765 1_565
Nb1 O4 2.001974 1_555
Nb1 O41 2.022399 1_555
Nb1 O39 2.084839 1_665
Nb1 O3 2.109947 1_665
Nb1 O40 2.202875 1_655
Nb2 O13 1.940318 1_555
Nb2 O48 1.958858 1_555
Nb2 O12 1.996801 1_555
Nb2 O14 2.084420 1_555
Nb2 O49 2.200093 1_555
Nb2 O50 2.205085 1_555
Nb3 O15 1.923240 1_555
Nb3 O16 2.051408 1_555
Nb3 O52 2.061347 1_555
Nb3 O51 2.075107 1_555
Nb3 O17 2.079355 1_555
Nb3 O53 2.145470 1_555
Nb4 O61 1.933570 1_555
Nb4 O26 1.961140 1_554
Nb4 O25 2.010188 1_554
Nb4 O62 2.100851 1_555
Nb4 O24 2.192856 1_554
Nb4 O60 2.194238 1_555
Nb5 O63 1.992231 1_555
Nb5 O29 1.994341 1_555
Nb5 O28 2.068211 1_555
Nb5 O27 2.068653 1_555
Nb5 O65 2.101989 1_555
Nb5 O64 2.106162 1_555
O0 P0 1.634981 1_555
O1 P1 1.622400 1_555
O2 P2 1.621524 1_555
O3 P3 1.612451 1_555
O4 P4 1.628822 1_555
O5 Si0 1.752931 1_555
O6 Si0 1.583450 1_565
O7 P3 1.512265 1_555
O8 P4 1.517170 1_455
O9 P1 1.508479 1_555
O10 P2 1.498414 1_555
O11 P0 1.504068 1_555
O12 P5 1.634074 1_555
O13 Si1 1.780134 1_555
O14 P6 1.604506 1_555
O15 Si2 1.746009 1_555
O16 P7 1.616540 1_555
O17 P8 1.630161 1_555
O18 P8 1.497638 1_555
O19 Si2 1.569748 1_555
O20 P7 1.502200 1_555
O21 Si1 1.568187 1_555
O22 P6 1.503941 1_555
O23 P5 1.492960 1_555
O24 P9 1.591327 1_555
O25 P10 1.631486 1_555
O26 P11 1.669068 1_555
O27 P12 1.633002 1_555
O28 P13 1.612500 1_555
O29 P14 1.647613 1_555
O30 P14 1.492850 1_555
O31 P12 1.498168 1_555
O32 P13 1.497216 1_555
O33 P10 1.498857 1_555
O34 P11 1.505658 1_555
O35 P9 1.506165 1_555
O36 P14 1.585758 1_555
O37 P12 1.596260 1_555
O38 P13 1.597980 1_555
O39 P10 1.583634 1_555
O40 P11 1.552855 1_555
O41 P9 1.605964 1_555
O42 P5 1.521124 1_555
O43 Si1 1.588960 1_565
O44 P6 1.527711 1_555
O45 Si2 1.602026 1_555
O46 P7 1.523087 1_565
O47 P8 1.518454 1_555
O48 Si0 1.678482 1_555
O49 P3 1.587909 1_555
O50 P4 1.552903 1_555
O51 P1 1.588817 1_555
O52 P2 1.589561 1_555
O53 P0 1.569801 1_555
O54 P9 1.516894 1_555
O55 P10 1.509707 1_655
O56 P11 1.506975 1_545
O57 P12 1.511874 1_545
O58 P13 1.514407 1_555
O59 P14 1.506891 1_655
O60 P8 1.595276 1_555
O61 Si2 1.687195 1_455
O62 P7 1.593275 1_565
O63 Si1 1.696661 1_565
O64 P6 1.595253 1_555
O65 P5 1.571836 1_455
O66 P0 1.514956 1_565
O67 P1 1.517829 1_555
O68 P2 1.513930 1_455
O69 P3 1.515429 1_555
O70 P4 1.516006 1_455
O71 Si0 1.606576 1_565
