# generated using pymatgen
data_MgMn6O7F5
_symmetry_space_group_name_H-M   'P 1'
_cell_length_a   5.34684148
_cell_length_b   7.73793575
_cell_length_c   5.74091274
_cell_angle_alpha   97.92018045
_cell_angle_beta   84.89293754
_cell_angle_gamma   89.68732341
_symmetry_Int_Tables_number   1
_chemical_formula_structural   MgMn6O7F5
_chemical_formula_sum   'Mg1 Mn6 O7 F5'
_cell_volume   234.28426298
_cell_formula_units_Z   1
loop_
 _symmetry_equiv_pos_site_id
 _symmetry_equiv_pos_as_xyz
  1  'x, y, z'
loop_
 _atom_site_type_symbol
 _atom_site_label
 _atom_site_symmetry_multiplicity
 _atom_site_fract_x
 _atom_site_fract_y
 _atom_site_fract_z
 _atom_site_occupancy
  Mg  Mg0  1  0.49882954  0.49096481  0.48393323  1
  Mn  Mn0  1  0.50060492  0.98651844  0.48815581  1
  Mn  Mn1  1  0.53286749  0.67502271  0.09820338  1
  Mn  Mn2  1  0.46350450  0.32970705  0.89071534  1
  Mn  Mn3  1  -0.02756854  0.71414784  0.60652378  1
  Mn  Mn4  1  0.01126599  0.19779430  0.52357504  1
  Mn  Mn5  1  0.98996398  0.99262622  0.00493021  1
  O  O0  1  0.81563744  0.78490822  0.91228207  1
  O  O1  1  0.79223516  0.06178878  0.30405471  1
  O  O2  1  0.63858699  0.74788182  0.42476704  1
  O  O3  1  0.62504654  0.44512990  0.14133041  1
  O  O4  1  0.37191673  0.55909820  0.83198262  1
  O  O5  1  0.37804286  0.24132379  0.57012264  1
  O  O6  1  0.16129167  0.93634701  0.66373510  1
  F  F0  1  0.84075223  0.45344627  0.60321985  1
  F  F1  1  0.72682061  0.13399144  0.81044300  1
  F  F2  1  0.32314082  0.89592974  0.15316529  1
  F  F3  1  0.19542086  0.59191839  0.35397596  1
  F  F4  1  0.17552721  0.21145508  0.07536252  1
loop_
_geom_bond_atom_site_label_1
_geom_bond_atom_site_label_2
_geom_bond_distance
_geom_bond_site_symmetry_2
Mg0 O3 2.004637 1_555
Mg0 O4 2.048244 1_555
Mg0 O5 2.147917 1_555
Mg0 O2 2.187022 1_555
Mn0 O1 1.942642 1_565
Mn0 O2 1.959245 1_555
Mn0 O5 2.052719 1_565
Mn0 O6 2.061122 1_555
Mn1 O3 1.897952 1_555
Mn1 O4 1.935422 1_554
Mn1 O2 2.013210 1_555
Mn1 O0 2.031009 1_554
Mn2 O3 1.867966 1_556
Mn2 O4 1.920683 1_555
Mn2 O5 1.967283 1_555
Mn3 O0 1.884662 1_455
Mn3 O6 2.001540 1_555
Mn3 O2 2.178251 1_455
Mn4 O1 1.994494 1_455
Mn4 O5 2.026443 1_555
Mn4 O6 2.435060 1_545
Mn5 O0 1.898463 1_554
Mn5 O1 1.941753 1_565
Mn5 O6 2.075262 1_654
F0 Mg0 2.041442 1_555
F0 Mn3 2.138428 1_655
F0 Mn4 2.147197 1_655
F1 Mn2 2.038866 1_555
F1 Mn5 2.241047 1_546
F1 Mn4 2.248421 1_655
F1 Mn0 2.453595 1_545
F2 Mn1 2.011570 1_555
F2 Mn5 2.210980 1_455
F2 Mn0 2.247412 1_555
F3 Mn3 1.928783 1_555
F3 Mg0 2.039830 1_555
F3 Mn1 2.371970 1_555
F4 Mn5 1.978938 1_445
F4 Mn2 2.079411 1_554
F4 Mn4 2.660314 1_555
