# generated using pymatgen
data_CsSbSI2
_symmetry_space_group_name_H-M   'P 1'
_cell_length_a   12.02727200
_cell_length_b   12.02727200
_cell_length_c   11.42494600
_cell_angle_alpha   90.00000000
_cell_angle_beta   90.00000000
_cell_angle_gamma   90.00000000
_symmetry_Int_Tables_number   1
_chemical_formula_structural   CsSbSI2
_chemical_formula_sum   'Cs8 Sb8 S8 I16'
_cell_volume   1652.67866850
_cell_formula_units_Z   8
loop_
 _symmetry_equiv_pos_site_id
 _symmetry_equiv_pos_as_xyz
  1  'x, y, z'
loop_
 _atom_site_type_symbol
 _atom_site_label
 _atom_site_symmetry_multiplicity
 _atom_site_fract_x
 _atom_site_fract_y
 _atom_site_fract_z
 _atom_site_occupancy
  Cs  Cs0  1  0.00000000  0.00000000  0.25000000  1
  Cs  Cs1  1  0.00000000  0.00000000  0.75000000  1
  Cs  Cs2  1  0.00000000  0.50000000  0.23198500  1
  Cs  Cs3  1  0.00000000  0.50000000  0.76801500  1
  Cs  Cs4  1  0.50000000  0.00000000  0.26801500  1
  Cs  Cs5  1  0.50000000  0.00000000  0.73198500  1
  Cs  Cs6  1  0.50000000  0.50000000  0.25000000  1
  Cs  Cs7  1  0.50000000  0.50000000  0.75000000  1
  Sb  Sb0  1  0.70578900  0.25526300  0.02999500  1
  Sb  Sb1  1  0.70578900  0.74473700  0.97000500  1
  Sb  Sb2  1  0.29421100  0.25526300  0.97000500  1
  Sb  Sb3  1  0.29421100  0.74473700  0.02999500  1
  Sb  Sb4  1  0.74473700  0.29421100  0.47000500  1
  Sb  Sb5  1  0.74473700  0.70578900  0.52999500  1
  Sb  Sb6  1  0.25526300  0.29421100  0.52999500  1
  Sb  Sb7  1  0.25526300  0.70578900  0.47000500  1
  S  S0  1  0.74125300  0.74125300  0.75000000  1
  S  S1  1  0.74125300  0.25874700  0.25000000  1
  S  S2  1  0.25874700  0.74125300  0.25000000  1
  S  S3  1  0.25874700  0.25874700  0.75000000  1
  S  S4  1  0.70782000  0.50000000  0.50000000  1
  S  S5  1  0.29218000  0.50000000  0.50000000  1
  S  S6  1  0.50000000  0.29218000  0.00000000  1
  S  S7  1  0.50000000  0.70782000  0.00000000  1
  I  I0  1  0.70743400  0.00000000  0.00000000  1
  I  I1  1  0.29256500  0.00000000  0.00000000  1
  I  I2  1  0.00000000  0.29256500  0.50000000  1
  I  I3  1  0.00000000  0.70743400  0.50000000  1
  I  I4  1  0.76327700  0.00000000  0.50000000  1
  I  I5  1  0.23672400  0.00000000  0.50000000  1
  I  I6  1  0.00000000  0.23672400  0.00000000  1
  I  I7  1  0.00000000  0.76327700  0.00000000  1
  I  I8  1  0.76276700  0.50000000  0.00000000  1
  I  I9  1  0.23723300  0.50000000  0.00000000  1
  I  I10  1  0.50000000  0.23723300  0.50000000  1
  I  I11  1  0.50000000  0.76276700  0.50000000  1
  I  I12  1  0.74890500  0.74890500  0.25000000  1
  I  I13  1  0.74890500  0.25109500  0.75000000  1
  I  I14  1  0.25109500  0.74890500  0.75000000  1
  I  I15  1  0.25109500  0.25109500  0.25000000  1
loop_
_geom_bond_atom_site_label_1
_geom_bond_atom_site_label_2
_geom_bond_distance
_geom_bond_site_symmetry_2
Cs0 I7 4.032896 1_545
Cs0 I4 4.032896 1_455
Cs0 I6 4.032904 1_555
Cs0 I5 4.032904 1_555
Cs0 I12 4.270908 1_445
Cs0 I15 4.270908 1_555
Cs0 I1 4.532080 1_555
Cs0 I2 4.532080 1_555
Cs0 I0 4.532090 1_455
Cs0 I3 4.532090 1_545
Cs1 I7 4.032896 1_546
Cs1 I4 4.032896 1_455
Cs1 I5 4.032904 1_555
Cs1 I6 4.032904 1_556
Cs1 I14 4.270908 1_545
Cs1 I13 4.270908 1_455
Cs1 I1 4.532080 1_556
Cs1 I2 4.532080 1_555
Cs1 I0 4.532090 1_456
Cs1 I3 4.532090 1_545
Cs2 I9 3.894333 1_555
Cs2 I8 3.894333 1_455
Cs2 I3 3.949752 1_555
Cs2 I2 3.949760 1_555
Cs2 I6 4.129331 1_555
Cs2 I7 4.129341 1_555
Cs2 I15 4.257302 1_555
Cs2 I12 4.257302 1_455
Cs3 I8 3.894333 1_456
Cs3 I9 3.894333 1_556
Cs3 I3 3.949752 1_555
Cs3 I2 3.949760 1_555
Cs3 I6 4.129331 1_556
Cs3 I7 4.129341 1_556
Cs3 I13 4.257302 1_455
Cs3 I14 4.257302 1_555
Cs4 I10 3.894333 1_555
Cs4 I11 3.894333 1_545
Cs4 I0 3.949752 1_555
Cs4 I1 3.949760 1_555
Cs4 I5 4.129331 1_555
Cs4 I4 4.129341 1_555
Cs4 I15 4.257302 1_555
Cs4 I12 4.257302 1_545
Cs5 I10 3.894333 1_555
Cs5 I11 3.894333 1_545
Cs5 I0 3.949752 1_556
Cs5 I1 3.949760 1_556
Cs5 I5 4.129331 1_555
Cs5 I4 4.129341 1_555
Cs5 I14 4.257302 1_545
Cs5 I13 4.257302 1_555
Cs6 S5 3.795474 1_555
Cs6 S6 3.795474 1_555
Cs6 S7 3.795474 1_555
Cs6 S4 3.795474 1_555
Cs6 S1 4.103504 1_555
Cs6 S2 4.103504 1_555
Cs6 I15 4.233658 1_555
Cs6 I12 4.233658 1_555
Cs6 I11 4.259815 1_555
Cs6 I10 4.259815 1_555
Cs6 I8 4.259815 1_555
Cs6 I9 4.259815 1_555
Cs7 S6 3.795474 1_556
Cs7 S7 3.795474 1_556
Cs7 S4 3.795474 1_555
Cs7 S5 3.795474 1_555
Cs7 S3 4.103504 1_555
Cs7 S0 4.103504 1_555
Cs7 I13 4.233658 1_555
Cs7 I14 4.233658 1_555
Cs7 I8 4.259815 1_556
Cs7 I11 4.259815 1_555
Cs7 I10 4.259815 1_555
Cs7 I9 4.259815 1_556
S0 Sb5 2.549823 1_555
S0 Sb1 2.549823 1_555
S1 Sb4 2.549823 1_555
S1 Sb0 2.549823 1_555
S2 Sb3 2.549823 1_555
S2 Sb7 2.549823 1_555
S3 Sb6 2.549823 1_555
S3 Sb2 2.549823 1_555
S4 Sb4 2.537835 1_555
S4 Sb5 2.537835 1_555
S5 Sb7 2.537835 1_555
S5 Sb6 2.537835 1_555
S6 Sb2 2.537835 1_554
S6 Sb0 2.537835 1_555
S7 Sb1 2.537835 1_554
S7 Sb3 2.537835 1_555
I0 Sb1 3.089248 1_544
I0 Sb0 3.089248 1_555
I1 Sb3 3.089248 1_545
I1 Sb2 3.089248 1_554
I2 Sb4 3.089248 1_455
I2 Sb6 3.089248 1_555
I3 Sb5 3.089248 1_455
I3 Sb7 3.089248 1_555
I8 Sb1 3.041605 1_554
I8 Sb0 3.041605 1_555
I9 Sb3 3.041605 1_555
I9 Sb2 3.041605 1_554
I10 Sb4 3.041605 1_555
I10 Sb6 3.041605 1_555
I11 Sb7 3.041605 1_555
I11 Sb5 3.041605 1_555
I12 Sb1 3.241075 1_554
I12 Sb5 3.241075 1_555
I13 Sb0 3.241075 1_556
I13 Sb4 3.241075 1_555
I14 Sb3 3.241075 1_556
I14 Sb7 3.241075 1_555
I15 Sb6 3.241075 1_555
I15 Sb2 3.241075 1_554
