# generated using pymatgen
data_MgFe6O11F
_symmetry_space_group_name_H-M   'P 1'
_cell_length_a   4.91804576
_cell_length_b   7.48080739
_cell_length_c   5.54643785
_cell_angle_alpha   95.87298204
_cell_angle_beta   91.67879178
_cell_angle_gamma   88.51830996
_symmetry_Int_Tables_number   1
_chemical_formula_structural   MgFe6O11F
_chemical_formula_sum   'Mg1 Fe6 O11 F1'
_cell_volume   202.84691017
_cell_formula_units_Z   1
loop_
 _symmetry_equiv_pos_site_id
 _symmetry_equiv_pos_as_xyz
  1  'x, y, z'
loop_
 _atom_site_type_symbol
 _atom_site_label
 _atom_site_symmetry_multiplicity
 _atom_site_fract_x
 _atom_site_fract_y
 _atom_site_fract_z
 _atom_site_occupancy
  Mg  Mg0  1  0.00893400  0.49451600  0.00189300  1
  Fe  Fe0  1  0.51975600  0.69728400  0.13397600  1
  Fe  Fe1  1  0.49196100  0.00126400  0.50771700  1
  Fe  Fe2  1  0.50819900  0.32450400  0.85469800  1
  Fe  Fe3  1  0.98143200  0.69961800  0.63251300  1
  Fe  Fe4  1  0.99370500  0.29809900  0.39488700  1
  Fe  Fe5  1  0.00152900  0.00632200  0.00604400  1
  O  O0  1  0.84657600  0.44530700  0.66566500  1
  O  O1  1  0.84261300  0.76789300  0.96566000  1
  O  O2  1  0.81294000  0.08416900  0.29903200  1
  O  O3  1  0.71036700  0.09953400  0.81650900  1
  O  O4  1  0.66470700  0.76413600  0.45121100  1
  O  O5  1  0.66697100  0.44135800  0.14865100  1
  O  O6  1  0.33691800  0.57392400  0.85686500  1
  O  O7  1  0.33269100  0.24368800  0.55721300  1
  O  O8  1  0.29085700  0.90928100  0.19101500  1
  O  O9  1  0.16412200  0.24256500  0.05627400  1
  O  O10  1  0.17848500  0.91687200  0.70747100  1
  F  F0  1  0.16112400  0.57002400  0.33604000  1
loop_
_geom_bond_atom_site_label_1
_geom_bond_atom_site_label_2
_geom_bond_distance
_geom_bond_site_symmetry_2
Mg0 O6 1.955808 1_554
Mg0 O5 1.957080 1_455
Mg0 O0 2.009549 1_454
Mg0 O9 2.062620 1_555
Mg0 O1 2.209024 1_454
Fe0 O4 1.902390 1_555
Fe0 O6 1.922021 1_554
Fe0 O8 1.925704 1_555
Fe0 O1 1.975566 1_554
Fe0 O5 2.037893 1_555
Fe1 O4 1.946956 1_545
Fe1 O7 1.953216 1_555
Fe1 O8 2.055058 1_545
Fe1 O10 2.072781 1_545
Fe1 O3 2.074342 1_555
Fe1 O2 2.126239 1_555
Fe2 O7 1.890075 1_555
Fe2 O5 1.923824 1_556
Fe2 O3 1.928377 1_555
Fe2 O6 2.026301 1_555
Fe2 O9 2.189511 1_556
Fe2 O0 2.249281 1_555
Fe3 O4 1.907652 1_555
Fe3 O10 1.916505 1_655
Fe3 O1 2.001001 1_555
Fe3 O0 2.058395 1_555
Fe3 O6 2.348632 1_655
Fe4 O2 1.872415 1_555
Fe4 O0 1.917253 1_555
Fe4 O7 1.925518 1_655
Fe4 O9 2.077697 1_655
Fe4 O5 2.382801 1_555
Fe5 O8 1.902029 1_545
Fe5 O3 1.911019 1_454
Fe5 O2 1.925316 1_455
Fe5 O10 1.942961 1_544
Fe5 O9 1.949261 1_555
Fe5 O1 1.955109 1_444
F0 Mg0 2.010087 1_555
F0 Fe3 2.034552 1_455
F0 Fe4 2.271731 1_455
F0 Fe0 2.386263 1_555
