# generated using pymatgen
data_Tl2Ru2O7
_symmetry_space_group_name_H-M   'P 1'
_cell_length_a   7.24185021
_cell_length_b   7.24179701
_cell_length_c   7.24149271
_cell_angle_alpha   60.00475155
_cell_angle_beta   60.00507873
_cell_angle_gamma   60.00652676
_symmetry_Int_Tables_number   1
_chemical_formula_structural   Tl2Ru2O7
_chemical_formula_sum   'Tl4 Ru4 O14'
_cell_volume   268.57319540
_cell_formula_units_Z   2
loop_
 _symmetry_equiv_pos_site_id
 _symmetry_equiv_pos_as_xyz
  1  'x, y, z'
loop_
 _atom_site_type_symbol
 _atom_site_label
 _atom_site_symmetry_multiplicity
 _atom_site_fract_x
 _atom_site_fract_y
 _atom_site_fract_z
 _atom_site_occupancy
  Tl  Tl0  1  0.12500007  0.12499977  0.62500005  1
  Tl  Tl1  1  0.12500013  0.62500000  0.12499981  1
  Tl  Tl2  1  0.62500004  0.12499998  0.12500002  1
  Tl  Tl3  1  0.12499997  0.12500011  0.12499995  1
  Ru  Ru0  1  0.62500044  0.62499987  0.12499999  1
  Ru  Ru1  1  0.62499979  0.12500012  0.62499991  1
  Ru  Ru2  1  0.12499988  0.62500052  0.62500009  1
  Ru  Ru3  1  0.62499960  0.62499989  0.62500061  1
  O  O0  1  0.25000269  0.25000217  0.25000093  1
  O  O1  1  -0.00000271  -0.00000219  0.99999910  1
  O  O2  1  0.55042775  0.94962656  0.55042032  1
  O  O3  1  0.30038777  0.69957615  0.30044410  1
  O  O4  1  0.55042576  0.55042427  0.94960244  1
  O  O5  1  0.94963143  0.55042598  0.55042063  1
  O  O6  1  0.55042491  0.94961074  0.94955588  1
  O  O7  1  0.94959297  0.94958464  0.55041601  1
  O  O8  1  0.94961194  0.55042371  0.94955604  1
  O  O9  1  0.69957485  0.30038954  0.30044419  1
  O  O10  1  0.30036879  0.69957387  0.69957923  1
  O  O11  1  0.69957247  0.30037351  0.69957944  1
  O  O12  1  0.30040700  0.30041513  0.69958381  1
  O  O13  1  0.69957446  0.69957565  0.30039742  1
loop_
_geom_bond_atom_site_label_1
_geom_bond_atom_site_label_2
_geom_bond_distance
_geom_bond_site_symmetry_2
O0 Tl3 2.217255 1_555
O0 Tl0 2.217368 1_555
O0 Tl1 2.217486 1_555
O0 Tl2 2.217507 1_555
O1 Tl3 2.217256 1_556
O1 Tl0 2.217368 1_555
O1 Tl1 2.217486 1_546
O1 Tl2 2.217506 1_456
O2 Ru1 1.964536 1_565
O2 Ru3 1.965399 1_555
O2 Tl2 2.550588 1_565
O2 Tl0 2.550808 1_565
O3 Ru2 1.964862 1_555
O3 Ru0 1.965340 1_555
O3 Tl1 2.550354 1_555
O3 Tl3 2.550775 1_565
O4 Ru0 1.964661 1_556
O4 Ru3 1.965125 1_555
O4 Tl2 2.550742 1_556
O4 Tl1 2.550777 1_556
O5 Ru2 1.964519 1_655
O5 Ru3 1.965452 1_555
O5 Tl1 2.550595 1_655
O5 Tl0 2.550776 1_655
O6 Ru1 1.964858 1_565
O6 Ru0 1.965308 1_556
O6 Tl2 2.550355 1_566
O6 Tl3 2.550807 1_566
O7 Ru2 1.965151 1_655
O7 Ru1 1.965227 1_565
O7 Tl0 2.550356 1_665
O7 Tl3 2.550592 1_665
O8 Ru2 1.964862 1_655
O8 Ru0 1.965333 1_556
O8 Tl1 2.550355 1_656
O8 Tl3 2.550773 1_656
O9 Ru1 1.964856 1_555
O9 Ru0 1.965306 1_555
O9 Tl2 2.550355 1_555
O9 Tl3 2.550808 1_655
O10 Ru2 1.964514 1_555
O10 Ru3 1.965447 1_555
O10 Tl1 2.550594 1_556
O10 Tl0 2.550774 1_565
O11 Ru1 1.964538 1_555
O11 Ru3 1.965398 1_555
O11 Tl2 2.550590 1_556
O11 Tl0 2.550808 1_655
O12 Ru2 1.965158 1_555
O12 Ru1 1.965224 1_555
O12 Tl0 2.550355 1_555
O12 Tl3 2.550592 1_556
O13 Ru0 1.964658 1_555
O13 Ru3 1.965132 1_555
O13 Tl2 2.550742 1_565
O13 Tl1 2.550778 1_655
