# generated using pymatgen
data_Na3ScNbSi2PO12
_symmetry_space_group_name_H-M   'P 1'
_cell_length_a   15.80058488
_cell_length_b   27.34308936
_cell_length_c   9.01919877
_cell_angle_alpha   90.00000000
_cell_angle_beta   124.97307803
_cell_angle_gamma   90.00000000
_symmetry_Int_Tables_number   1
_chemical_formula_structural   Na3ScNbSi2PO12
_chemical_formula_sum   'Na36 Sc12 Nb12 Si24 P12 O144'
_cell_volume   3192.97882786
_cell_formula_units_Z   12
loop_
 _symmetry_equiv_pos_site_id
 _symmetry_equiv_pos_as_xyz
  1  'x, y, z'
loop_
 _atom_site_type_symbol
 _atom_site_label
 _atom_site_symmetry_multiplicity
 _atom_site_fract_x
 _atom_site_fract_y
 _atom_site_fract_z
 _atom_site_occupancy
  Na  Na0  1  0.25453611  0.25477349  0.00832544  1
  Na  Na1  1  0.24814631  0.58721686  0.01799931  1
  Na  Na2  1  0.25009820  0.91818636  0.01915896  1
  Na  Na3  1  0.75453611  0.24522651  0.50832544  1
  Na  Na4  1  0.75009820  0.58181364  0.51915896  1
  Na  Na5  1  0.74814631  0.91278314  0.51799931  1
  Na  Na6  1  0.74814631  0.08721686  0.01799931  1
  Na  Na7  1  0.75009820  0.41818636  0.01915896  1
  Na  Na8  1  0.75453611  0.75477349  0.00832544  1
  Na  Na9  1  0.25009820  0.08181364  0.51915896  1
  Na  Na10  1  0.24814631  0.41278314  0.51799931  1
  Na  Na11  1  0.25453611  0.74522651  0.50832544  1
  Na  Na12  1  0.49441393  0.03261796  0.75083847  1
  Na  Na13  1  0.49642132  0.36639843  0.75613940  1
  Na  Na14  1  0.49377118  0.69911307  0.74572522  1
  Na  Na15  1  0.49377118  0.30088693  0.24572522  1
  Na  Na16  1  0.49642132  0.63360157  0.25613940  1
  Na  Na17  1  0.49441393  0.96738204  0.25083847  1
  Na  Na18  1  0.99377118  0.19911307  0.74572522  1
  Na  Na19  1  0.99441393  0.53261796  0.75083847  1
  Na  Na20  1  0.99642132  0.86639843  0.75613940  1
  Na  Na21  1  0.99642132  0.13360157  0.25613940  1
  Na  Na22  1  0.99441393  0.46738204  0.25083847  1
  Na  Na23  1  0.99377118  0.80088693  0.24572522  1
  Na  Na24  1  0.81756208  0.64369927  0.20147436  1
  Na  Na25  1  0.81638459  0.97788850  0.20625555  1
  Na  Na26  1  0.19352574  0.30723787  0.29234515  1
  Na  Na27  1  0.19352574  0.69276213  0.79234515  1
  Na  Na28  1  0.81638459  0.02211150  0.70625555  1
  Na  Na29  1  0.81756208  0.35630073  0.70147436  1
  Na  Na30  1  0.31756208  0.14369927  0.20147436  1
  Na  Na31  1  0.31638459  0.47788850  0.20625555  1
  Na  Na32  1  0.69352574  0.80723787  0.29234515  1
  Na  Na33  1  0.69352574  0.19276213  0.79234515  1
  Na  Na34  1  0.31638459  0.52211150  0.70625555  1
  Na  Na35  1  0.31756208  0.85630073  0.70147436  1
  Sc  Sc0  1  0.89787634  0.25051596  0.94040184  1
  Sc  Sc1  1  0.89308621  0.58324569  0.93222833  1
  Sc  Sc2  1  0.89377658  0.91449674  0.93483300  1
  Sc  Sc3  1  0.89377658  0.08550326  0.43483300  1
  Sc  Sc4  1  0.89308621  0.41675431  0.43222833  1
  Sc  Sc5  1  0.89787634  0.74948404  0.44040184  1
  Sc  Sc6  1  0.39308621  0.08324569  0.93222833  1
  Sc  Sc7  1  0.39377658  0.41449674  0.93483300  1
  Sc  Sc8  1  0.39787634  0.75051596  0.94040184  1
  Sc  Sc9  1  0.39787634  0.24948404  0.44040184  1
  Sc  Sc10  1  0.39377658  0.58550326  0.43483300  1
  Sc  Sc11  1  0.39308621  0.91675431  0.43222833  1
  Nb  Nb0  1  0.10756987  0.24764337  0.56835441  1
  Nb  Nb1  1  0.10422179  0.58229428  0.56588979  1
  Nb  Nb2  1  0.10595884  0.91692660  0.56632722  1
  Nb  Nb3  1  0.10595884  0.08307340  0.06632722  1
  Nb  Nb4  1  0.10422179  0.41770572  0.06588979  1
  Nb  Nb5  1  0.10756987  0.75235663  0.06835441  1
  Nb  Nb6  1  0.60422179  0.08229428  0.56588979  1
  Nb  Nb7  1  0.60595884  0.41692660  0.56632722  1
  Nb  Nb8  1  0.60756987  0.74764337  0.56835441  1
  Nb  Nb9  1  0.60756987  0.25235663  0.06835441  1
  Nb  Nb10  1  0.60595884  0.58307340  0.06632722  1
  Nb  Nb11  1  0.60422179  0.91770572  0.06588979  1
  Si  Si0  1  0.34958937  0.29698268  0.74658241  1
  Si  Si1  1  0.35169094  0.63116238  0.75468695  1
  Si  Si2  1  0.35036658  0.96472303  0.74974753  1
  Si  Si3  1  0.64537989  0.30082855  0.73985502  1
  Si  Si4  1  0.64517691  0.63179945  0.73885749  1
  Si  Si5  1  0.64553132  0.96612319  0.73856108  1
  Si  Si6  1  0.64553132  0.03387681  0.23856108  1
  Si  Si7  1  0.64517691  0.36820055  0.23885749  1
  Si  Si8  1  0.64537989  0.69917145  0.23985502  1
  Si  Si9  1  0.35036658  0.03527697  0.24974753  1
  Si  Si10  1  0.35169094  0.36883762  0.25468695  1
  Si  Si11  1  0.34958937  0.70301732  0.24658241  1
  Si  Si12  1  0.85169094  0.13116238  0.75468695  1
  Si  Si13  1  0.85036658  0.46472303  0.74974753  1
  Si  Si14  1  0.84958937  0.79698268  0.74658241  1
  Si  Si15  1  0.14517691  0.13179945  0.73885749  1
  Si  Si16  1  0.14553132  0.46612319  0.73856108  1
  Si  Si17  1  0.14537989  0.80082855  0.73985502  1
  Si  Si18  1  0.14537989  0.19917145  0.23985502  1
  Si  Si19  1  0.14553132  0.53387681  0.23856108  1
  Si  Si20  1  0.14517691  0.86820055  0.23885749  1
  Si  Si21  1  0.84958937  0.20301732  0.24658241  1
  Si  Si22  1  0.85036658  0.53527697  0.24974753  1
  Si  Si23  1  0.85169094  0.86883762  0.25468695  1
  P  P0  1  0.00599619  0.31961718  0.75243051  1
  P  P1  1  0.00065416  0.65293603  0.74709567  1
  P  P2  1  0.00314259  0.98664399  0.74603249  1
  P  P3  1  0.00314259  0.01335601  0.24603249  1
  P  P4  1  0.00065416  0.34706397  0.24709567  1
  P  P5  1  0.00599619  0.68038282  0.25243051  1
  P  P6  1  0.50065416  0.15293603  0.74709567  1
  P  P7  1  0.50314259  0.48664399  0.74603249  1
  P  P8  1  0.50599619  0.81961718  0.75243051  1
  P  P9  1  0.50599619  0.18038282  0.25243051  1
  P  P10  1  0.50314259  0.51335601  0.24603249  1
  P  P11  1  0.50065416  0.84706397  0.24709567  1
  O  O0  1  0.14532448  0.19364360  0.74519821  1
  O  O1  1  0.14630841  0.52818499  0.74711116  1
  O  O2  1  0.14656410  0.86160888  0.74605208  1
  O  O3  1  0.84371911  0.19048218  0.75325629  1
  O  O4  1  0.84724431  0.52339607  0.75193015  1
  O  O5  1  0.84540572  0.85644822  0.75189114  1
  O  O6  1  0.84540572  0.14355178  0.25189114  1
  O  O7  1  0.84724431  0.47660393  0.25193015  1
  O  O8  1  0.84371911  0.80951782  0.25325629  1
  O  O9  1  0.14656410  0.13839112  0.24605208  1
  O  O10  1  0.14630841  0.47181501  0.24711116  1
  O  O11  1  0.14532448  0.80635640  0.24519821  1
  O  O12  1  0.64630841  0.02818499  0.74711116  1
  O  O13  1  0.64656410  0.36160888  0.74605208  1
  O  O14  1  0.64532448  0.69364360  0.74519821  1
  O  O15  1  0.34724431  0.02339607  0.75193015  1
  O  O16  1  0.34540572  0.35644822  0.75189114  1
  O  O17  1  0.34371911  0.69048218  0.75325629  1
  O  O18  1  0.34371911  0.30951782  0.25325629  1
  O  O19  1  0.34540572  0.64355178  0.25189114  1
  O  O20  1  0.34724431  0.97660393  0.25193015  1
  O  O21  1  0.64532448  0.30635640  0.24519821  1
  O  O22  1  0.64656410  0.63839112  0.24605208  1
  O  O23  1  0.64630841  0.97181501  0.24711116  1
  O  O24  1  0.43821887  0.18194908  0.57035750  1
  O  O25  1  0.43752870  0.51694446  0.57397776  1
  O  O26  1  0.44256110  0.85233950  0.58789731  1
  O  O27  1  0.56509487  0.18868619  0.91198204  1
  O  O28  1  0.56476123  0.52209348  0.91438603  1
  O  O29  1  0.57078950  0.85258756  0.92870165  1
  O  O30  1  0.57078950  0.14741244  0.42870165  1
  O  O31  1  0.56476123  0.47790652  0.41438603  1
  O  O32  1  0.56509487  0.81131381  0.41198204  1
  O  O33  1  0.44256110  0.14766050  0.08789731  1
  O  O34  1  0.43752870  0.48305554  0.07397776  1
  O  O35  1  0.43821887  0.81805092  0.07035750  1
  O  O36  1  0.93752870  0.01694446  0.57397776  1
  O  O37  1  0.94256110  0.35233950  0.58789731  1
  O  O38  1  0.93821887  0.68194908  0.57035750  1
  O  O39  1  0.06476123  0.02209348  0.91438603  1
  O  O40  1  0.07078950  0.35258756  0.92870165  1
  O  O41  1  0.06509487  0.68868619  0.91198204  1
  O  O42  1  0.06509487  0.31131381  0.41198204  1
  O  O43  1  0.07078950  0.64741244  0.42870165  1
  O  O44  1  0.06476123  0.97790652  0.41438603  1
  O  O45  1  0.93821887  0.31805092  0.07035750  1
  O  O46  1  0.94256110  0.64766050  0.08789731  1
  O  O47  1  0.93752870  0.98305554  0.07397776  1
  O  O48  1  0.25141766  0.27213695  0.73852016  1
  O  O49  1  0.25433540  0.60627636  0.75114831  1
  O  O50  1  0.25437175  0.93752519  0.74384038  1
  O  O51  1  0.74566122  0.28088536  0.75152602  1
  O  O52  1  0.74596410  0.61236771  0.75692661  1
  O  O53  1  0.74886503  0.95139866  0.75251120  1
  O  O54  1  0.74886503  0.04860134  0.25251120  1
  O  O55  1  0.74596410  0.38763229  0.25692661  1
  O  O56  1  0.74566122  0.71911464  0.25152602  1
  O  O57  1  0.25437175  0.06247481  0.24384038  1
  O  O58  1  0.25433540  0.39372364  0.25114831  1
  O  O59  1  0.25141766  0.72786305  0.23852016  1
  O  O60  1  0.75433540  0.10627636  0.75114831  1
  O  O61  1  0.75437175  0.43752519  0.74384038  1
  O  O62  1  0.75141766  0.77213695  0.73852016  1
  O  O63  1  0.24596410  0.11236771  0.75692661  1
  O  O64  1  0.24886503  0.45139866  0.75251120  1
  O  O65  1  0.24566122  0.78088536  0.75152602  1
  O  O66  1  0.24566122  0.21911464  0.25152602  1
  O  O67  1  0.24886503  0.54860134  0.25251120  1
  O  O68  1  0.24596410  0.88763229  0.25692661  1
  O  O69  1  0.75141766  0.22786305  0.23852016  1
  O  O70  1  0.75437175  0.56247481  0.24384038  1
  O  O71  1  0.75433540  0.89372364  0.25114831  1
  O  O72  1  0.34321622  0.28339932  0.56530733  1
  O  O73  1  0.35125038  0.61273842  0.58512227  1
  O  O74  1  0.35412372  0.94500664  0.58659206  1
  O  O75  1  0.63862475  0.28505398  0.91449915  1
  O  O76  1  0.64067092  0.61859721  0.92032664  1
  O  O77  1  0.64376650  0.95153025  0.92246791  1
  O  O78  1  0.64376650  0.04846975  0.42246791  1
  O  O79  1  0.64067092  0.38140279  0.42032664  1
  O  O80  1  0.63862475  0.71494602  0.41449915  1
  O  O81  1  0.35412372  0.05499336  0.08659206  1
  O  O82  1  0.35125038  0.38726158  0.08512227  1
  O  O83  1  0.34321622  0.71660068  0.06530733  1
  O  O84  1  0.85125038  0.11273842  0.58512227  1
  O  O85  1  0.85412372  0.44500664  0.58659206  1
  O  O86  1  0.84321622  0.78339932  0.56530733  1
  O  O87  1  0.14067092  0.11859721  0.92032664  1
  O  O88  1  0.14376650  0.45153025  0.92246791  1
  O  O89  1  0.13862475  0.78505398  0.91449915  1
  O  O90  1  0.13862475  0.21494602  0.41449915  1
  O  O91  1  0.14376650  0.54846975  0.42246791  1
  O  O92  1  0.14067092  0.88140279  0.42032664  1
  O  O93  1  0.84321622  0.21660068  0.06530733  1
  O  O94  1  0.85412372  0.55499336  0.08659206  1
  O  O95  1  0.85125038  0.88726158  0.08512227  1
  O  O96  1  0.46001326  0.27483237  0.92847206  1
  O  O97  1  0.46091128  0.60828607  0.93959974  1
  O  O98  1  0.46106436  0.94093162  0.93828254  1
  O  O99  1  0.54083865  0.28035463  0.55981487  1
  O  O100  1  0.53779077  0.61515913  0.55750713  1
  O  O101  1  0.53992104  0.94836069  0.55880624  1
  O  O102  1  0.53992104  0.05163931  0.05880624  1
  O  O103  1  0.53779077  0.38484087  0.05750713  1
  O  O104  1  0.54083865  0.71964537  0.05981487  1
  O  O105  1  0.46106436  0.05906838  0.43828254  1
  O  O106  1  0.46091128  0.39171393  0.43959974  1
  O  O107  1  0.46001326  0.72516763  0.42847206  1
  O  O108  1  0.96091128  0.10828607  0.93959974  1
  O  O109  1  0.96106436  0.44093162  0.93828254  1
  O  O110  1  0.96001326  0.77483237  0.92847206  1
  O  O111  1  0.03779077  0.11515913  0.55750713  1
  O  O112  1  0.03992104  0.44836069  0.55880624  1
  O  O113  1  0.04083865  0.78035463  0.55981487  1
  O  O114  1  0.04083865  0.21964537  0.05981487  1
  O  O115  1  0.03992104  0.55163931  0.05880624  1
  O  O116  1  0.03779077  0.88484087  0.05750713  1
  O  O117  1  0.96001326  0.22516763  0.42847206  1
  O  O118  1  0.96106436  0.55906838  0.43828254  1
  O  O119  1  0.96091128  0.89171393  0.43959974  1
  O  O120  1  0.08409083  0.28613923  0.74828372  1
  O  O121  1  0.08741574  0.62275316  0.74893628  1
  O  O122  1  0.08459425  0.95450181  0.74639415  1
  O  O123  1  0.92988651  0.28633274  0.76196089  1
  O  O124  1  0.93273831  0.61621261  0.75980813  1
  O  O125  1  0.93006992  0.95287327  0.76045926  1
  O  O126  1  0.93006992  0.04712673  0.26045926  1
  O  O127  1  0.93273831  0.38378739  0.25980813  1
  O  O128  1  0.92988651  0.71366726  0.26196089  1
  O  O129  1  0.08459425  0.04549819  0.24639415  1
  O  O130  1  0.08741574  0.37724684  0.24893628  1
  O  O131  1  0.08409083  0.71386077  0.24828372  1
  O  O132  1  0.58741574  0.12275316  0.74893628  1
  O  O133  1  0.58459425  0.45450181  0.74639415  1
  O  O134  1  0.58409083  0.78613923  0.74828372  1
  O  O135  1  0.43273831  0.11621261  0.75980813  1
  O  O136  1  0.43006992  0.45287327  0.76045926  1
  O  O137  1  0.42988651  0.78633274  0.76196089  1
  O  O138  1  0.42988651  0.21366726  0.26196089  1
  O  O139  1  0.43006992  0.54712673  0.26045926  1
  O  O140  1  0.43273831  0.88378739  0.25980813  1
  O  O141  1  0.58409083  0.21386077  0.24828372  1
  O  O142  1  0.58459425  0.54549819  0.24639415  1
  O  O143  1  0.58741574  0.87724684  0.24893628  1
loop_
_geom_bond_atom_site_label_1
_geom_bond_atom_site_label_2
_geom_bond_distance
_geom_bond_site_symmetry_2
Na0 O18 2.353249 1_555
Na0 O48 2.451928 1_554
Na0 O66 2.476747 1_555
Na0 O120 2.499652 1_554
Na0 O0 2.590165 1_554
Na0 O138 2.628107 1_555
Na1 O19 2.338389 1_555
Na1 O67 2.358206 1_555
Na1 O121 2.493542 1_554
Na1 O49 2.518645 1_554
Na1 O1 2.580104 1_554
Na1 O139 2.653366 1_555
Na2 O68 2.337003 1_555
Na2 O20 2.370826 1_555
Na2 O122 2.549830 1_554
Na2 O2 2.552910 1_554
Na2 O50 2.577293 1_554
Na2 O140 2.596749 1_555
Na3 O3 2.353249 1_555
Na3 O69 2.451928 1_555
Na3 O51 2.476747 1_555
Na3 O141 2.499652 1_555
Na3 O21 2.590165 1_555
Na3 O123 2.628107 1_555
Na4 O52 2.337003 1_555
Na4 O4 2.370826 1_555
Na4 O142 2.549830 1_555
Na4 O22 2.552910 1_555
Na4 O70 2.577293 1_555
Na4 O124 2.596749 1_555
Na5 O5 2.338389 1_555
Na5 O53 2.358206 1_555
Na5 O143 2.493542 1_555
Na5 O71 2.518645 1_555
Na5 O23 2.580104 1_555
Na5 O125 2.653366 1_555
Na6 O6 2.338389 1_555
Na6 O54 2.358206 1_555
Na6 O132 2.493542 1_554
Na6 O60 2.518645 1_554
Na6 O12 2.580104 1_554
Na6 O126 2.653366 1_555
Na7 O55 2.337003 1_555
Na7 O7 2.370826 1_555
Na7 O133 2.549830 1_554
Na7 O13 2.552910 1_554
Na7 O61 2.577293 1_554
Na7 O127 2.596749 1_555
Na8 O8 2.353249 1_555
Na8 O62 2.451928 1_554
Na8 O56 2.476747 1_555
Na8 O134 2.499652 1_554
Na8 O14 2.590165 1_554
Na8 O128 2.628107 1_555
Na9 O63 2.337003 1_555
Na9 O15 2.370826 1_555
Na9 O129 2.549830 1_555
Na9 O9 2.552910 1_555
Na9 O57 2.577293 1_555
Na9 O135 2.596749 1_555
Na10 O16 2.338389 1_555
Na10 O64 2.358206 1_555
Na10 O130 2.493542 1_555
Na10 O58 2.518645 1_555
Na10 O10 2.580104 1_555
Na10 O136 2.653366 1_555
Na11 O17 2.353249 1_555
Na11 O59 2.451928 1_555
Na11 O65 2.476747 1_555
Na11 O131 2.499652 1_555
Na11 O11 2.590165 1_555
Na11 O137 2.628107 1_555
Na12 O15 2.344622 1_555
Na12 O12 2.422482 1_555
Na12 O102 2.492616 1_556
Na12 O135 2.504233 1_555
Na12 O105 2.654171 1_555
Na13 O16 2.379983 1_555
Na13 O13 2.429171 1_555
Na13 O103 2.456178 1_556
Na13 O136 2.595819 1_555
Na13 O106 2.666135 1_555
Na13 O133 2.809348 1_555
Na13 O75 2.890790 1_555
Na14 O14 2.402019 1_555
Na14 O17 2.422012 1_555
Na14 O104 2.545207 1_556
Na14 O137 2.626280 1_555
Na14 O107 2.688833 1_555
Na14 O134 2.767983 1_555
Na14 O76 2.919586 1_555
Na14 O73 3.001291 1_555
Na15 O21 2.402019 1_555
Na15 O18 2.422012 1_555
Na15 O99 2.545207 1_555
Na15 O138 2.626280 1_555
Na15 O96 2.688833 1_554
Na15 O141 2.767983 1_555
Na15 O79 2.919586 1_555
Na15 O82 3.001291 1_555
Na16 O19 2.379983 1_555
Na16 O22 2.429171 1_555
Na16 O100 2.456178 1_555
Na16 O139 2.595819 1_555
Na16 O97 2.666135 1_554
Na16 O142 2.809348 1_555
Na16 O80 2.890790 1_555
Na17 O20 2.344622 1_555
Na17 O23 2.422482 1_555
Na17 O101 2.492616 1_555
Na17 O140 2.504233 1_555
Na17 O98 2.654171 1_554
Na18 O0 2.402019 1_655
Na18 O3 2.422012 1_555
Na18 O114 2.545207 1_656
Na18 O123 2.626280 1_555
Na18 O117 2.688833 1_555
Na18 O120 2.767983 1_655
Na18 O87 2.919586 1_655
Na18 O84 3.001291 1_555
Na19 O4 2.344622 1_555
Na19 O1 2.422482 1_655
Na19 O115 2.492616 1_656
Na19 O124 2.504233 1_555
Na19 O118 2.654171 1_555
Na20 O5 2.379983 1_555
Na20 O2 2.429171 1_655
Na20 O116 2.456178 1_656
Na20 O125 2.595819 1_555
Na20 O119 2.666135 1_555
Na20 O122 2.809348 1_655
Na20 O89 2.890790 1_655
Na21 O6 2.379983 1_555
Na21 O9 2.429171 1_655
Na21 O111 2.456178 1_655
Na21 O126 2.595819 1_555
Na21 O108 2.666135 1_554
Na21 O129 2.809348 1_655
Na21 O90 2.890790 1_655
Na22 O7 2.344622 1_555
Na22 O10 2.422482 1_655
Na22 O112 2.492616 1_655
Na22 O127 2.504233 1_555
Na22 O109 2.654171 1_554
Na23 O11 2.402019 1_655
Na23 O8 2.422012 1_555
Na23 O113 2.545207 1_655
Na23 O128 2.626280 1_555
Na23 O110 2.688833 1_554
Na23 O131 2.767983 1_655
Na23 O92 2.919586 1_655
Na23 O95 3.001291 1_555
Na24 O128 2.449011 1_555
Na24 O56 2.516862 1_555
Na24 O70 2.552014 1_555
Na24 O76 2.566743 1_554
Na24 O46 2.698386 1_555
Na24 O94 2.824278 1_555
Na24 O38 2.919970 1_555
Na24 O22 2.954340 1_555
Na25 O54 2.358155 1_565
Na25 O126 2.458276 1_565
Na25 O77 2.550839 1_554
Na25 O71 2.622277 1_555
Na25 O47 2.779426 1_555
Na25 O95 2.885769 1_555
Na25 O23 2.918928 1_555
Na25 O36 2.919980 1_565
Na26 O72 2.324807 1_555
Na26 O130 2.424081 1_555
Na26 O18 2.592125 1_555
Na26 O66 2.639658 1_555
Na26 O58 2.657582 1_555
Na26 O42 2.793724 1_555
Na26 O40 2.960383 1_554
Na27 O83 2.324807 1_556
Na27 O121 2.424081 1_555
Na27 O17 2.592125 1_555
Na27 O65 2.639658 1_555
Na27 O49 2.657582 1_555
Na27 O41 2.793724 1_555
Na27 O43 2.960383 1_555
Na28 O53 2.358155 1_545
Na28 O125 2.458276 1_545
Na28 O78 2.550839 1_555
Na28 O60 2.622277 1_555
Na28 O36 2.779426 1_555
Na28 O84 2.885769 1_555
Na28 O12 2.918928 1_555
Na28 O47 2.919980 1_546
Na29 O123 2.449011 1_555
Na29 O51 2.516862 1_555
Na29 O61 2.552014 1_555
Na29 O79 2.566743 1_555
Na29 O37 2.698386 1_555
Na29 O85 2.824278 1_555
Na29 O45 2.919970 1_556
Na29 O13 2.954340 1_555
Na30 O138 2.449011 1_555
Na30 O66 2.516862 1_555
Na30 O57 2.552014 1_555
Na30 O87 2.566743 1_554
Na30 O33 2.698386 1_555
Na30 O81 2.824278 1_555
Na30 O24 2.919970 1_555
Na30 O9 2.954340 1_555
Na31 O67 2.358155 1_555
Na31 O139 2.458276 1_555
Na31 O88 2.550839 1_554
Na31 O58 2.622277 1_555
Na31 O34 2.779426 1_555
Na31 O82 2.885769 1_555
Na31 O10 2.918928 1_555
Na31 O25 2.919980 1_555
Na32 O86 2.324807 1_555
Na32 O143 2.424081 1_555
Na32 O8 2.592125 1_555
Na32 O56 2.639658 1_555
Na32 O71 2.657582 1_555
Na32 O32 2.793724 1_555
Na32 O29 2.960383 1_554
Na33 O93 2.324807 1_556
Na33 O132 2.424081 1_555
Na33 O3 2.592125 1_555
Na33 O51 2.639658 1_555
Na33 O60 2.657582 1_555
Na33 O27 2.793724 1_555
Na33 O30 2.960383 1_555
Na34 O64 2.358155 1_555
Na34 O136 2.458276 1_555
Na34 O91 2.550839 1_555
Na34 O49 2.622277 1_555
Na34 O25 2.779426 1_555
Na34 O73 2.885769 1_555
Na34 O1 2.918928 1_555
Na34 O34 2.919980 1_556
Na35 O137 2.449011 1_555
Na35 O65 2.516862 1_555
Na35 O50 2.552014 1_555
Na35 O92 2.566743 1_555
Na35 O26 2.698386 1_555
Na35 O74 2.824278 1_555
Na35 O35 2.919970 1_556
Na35 O2 2.954340 1_555
Nb0 O90 1.935520 1_555
Nb0 O48 1.992750 1_555
Nb0 O0 1.997300 1_555
Nb0 O117 2.008269 1_455
Nb0 O42 2.094116 1_555
Nb0 O120 2.137590 1_555
Nb1 O91 1.961027 1_555
Nb1 O118 1.964691 1_455
Nb1 O1 2.014115 1_555
Nb1 O43 2.056945 1_555
Nb1 O49 2.074706 1_555
Nb1 O121 2.126617 1_555
Nb2 O92 1.950959 1_555
Nb2 O119 2.007785 1_455
Nb2 O44 2.014750 1_555
Nb2 O50 2.018807 1_555
Nb2 O2 2.033418 1_555
Nb2 O122 2.106089 1_555
Nb3 O87 1.950959 1_554
Nb3 O108 2.007785 1_454
Nb3 O39 2.014750 1_554
Nb3 O57 2.018807 1_555
Nb3 O9 2.033418 1_555
Nb3 O129 2.106089 1_555
Nb4 O88 1.961027 1_554
Nb4 O109 1.964691 1_454
Nb4 O10 2.014115 1_555
Nb4 O40 2.056945 1_554
Nb4 O58 2.074706 1_555
Nb4 O130 2.126617 1_555
Nb5 O89 1.935520 1_554
Nb5 O59 1.992750 1_555
Nb5 O11 1.997300 1_555
Nb5 O110 2.008269 1_454
Nb5 O41 2.094116 1_554
Nb5 O131 2.137590 1_555
Nb6 O78 1.961027 1_555
Nb6 O105 1.964691 1_555
Nb6 O12 2.014115 1_555
Nb6 O30 2.056945 1_555
Nb6 O60 2.074706 1_555
Nb6 O132 2.126617 1_555
Nb7 O79 1.950959 1_555
Nb7 O106 2.007785 1_555
Nb7 O31 2.014750 1_555
Nb7 O61 2.018807 1_555
Nb7 O13 2.033418 1_555
Nb7 O133 2.106089 1_555
Nb8 O80 1.935520 1_555
Nb8 O62 1.992750 1_555
Nb8 O14 1.997300 1_555
Nb8 O107 2.008269 1_555
Nb8 O32 2.094116 1_555
Nb8 O134 2.137590 1_555
Nb9 O75 1.935520 1_554
Nb9 O69 1.992750 1_555
Nb9 O21 1.997300 1_555
Nb9 O96 2.008269 1_554
Nb9 O27 2.094116 1_554
Nb9 O141 2.137590 1_555
Nb10 O76 1.950959 1_554
Nb10 O97 2.007785 1_554
Nb10 O28 2.014750 1_554
Nb10 O70 2.018807 1_555
Nb10 O22 2.033418 1_555
Nb10 O142 2.106089 1_555
Nb11 O77 1.961027 1_554
Nb11 O98 1.964691 1_554
Nb11 O23 2.014115 1_555
Nb11 O29 2.056945 1_554
Nb11 O71 2.074706 1_555
Nb11 O143 2.126617 1_555
O0 Si15 1.691933 1_555
O1 Si16 1.698437 1_555
O2 Si17 1.662606 1_555
O3 Si12 1.626349 1_555
O3 Sc0 2.149424 1_555
O4 Si13 1.605528 1_555
O4 Sc1 2.120557 1_555
O5 Si14 1.629133 1_555
O5 Sc2 2.092898 1_555
O6 Si21 1.629133 1_555
O6 Sc3 2.092898 1_555
O7 Si22 1.605528 1_555
O7 Sc4 2.120557 1_555
O8 Si23 1.626349 1_555
O8 Sc5 2.149424 1_555
O9 Si18 1.662606 1_555
O10 Si19 1.698437 1_555
O11 Si20 1.691933 1_555
O12 Si5 1.698437 1_545
O13 Si3 1.662606 1_555
O14 Si4 1.691933 1_555
O15 Si2 1.605528 1_545
O15 Sc6 2.120557 1_555
O16 Si0 1.629133 1_555
O16 Sc7 2.092898 1_555
O17 Si1 1.626349 1_555
O17 Sc8 2.149424 1_555
O18 Si10 1.626349 1_555
O18 Sc9 2.149424 1_555
O19 Si11 1.629133 1_555
O19 Sc10 2.092898 1_555
O20 Si9 1.605528 1_565
O20 Sc11 2.120557 1_555
O21 Si7 1.691933 1_555
O22 Si8 1.662606 1_555
O23 Si6 1.698437 1_565
O24 P6 1.529956 1_555
O24 Sc9 2.081733 1_555
O25 P7 1.524800 1_555
O25 Sc10 2.138330 1_555
O26 P8 1.517295 1_555
O26 Sc11 2.103878 1_555
O27 P6 1.570989 1_555
O28 P7 1.580598 1_555
O29 P8 1.588239 1_555
O30 P9 1.588239 1_555
O31 P10 1.580598 1_555
O32 P11 1.570989 1_555
O33 P9 1.517295 1_555
O33 Sc6 2.103878 1_554
O34 P10 1.524800 1_555
O34 Sc7 2.138330 1_554
O35 P11 1.529956 1_555
O35 Sc8 2.081733 1_554
O36 P2 1.524800 1_645
O36 Sc3 2.138330 1_555
O37 P0 1.517295 1_655
O37 Sc4 2.103878 1_555
O38 P1 1.529956 1_655
O38 Sc5 2.081733 1_555
O39 P2 1.580598 1_545
O40 P0 1.588239 1_555
O41 P1 1.570989 1_555
O42 P4 1.570989 1_555
O43 P5 1.588239 1_555
O44 P3 1.580598 1_565
O45 P4 1.529956 1_655
O45 Sc0 2.081733 1_554
O46 P5 1.517295 1_655
O46 Sc1 2.103878 1_554
O47 P3 1.524800 1_665
O47 Sc2 2.138330 1_554
O48 Si0 1.656394 1_555
O49 Si1 1.665549 1_555
O50 Si2 1.662484 1_555
O51 Si3 1.621076 1_555
O51 Sc0 2.163125 1_555
O52 Si4 1.596055 1_555
O52 Sc1 2.079496 1_555
O53 Si5 1.615006 1_555
O53 Sc2 2.156039 1_555
O54 Si6 1.615006 1_555
O54 Sc3 2.156039 1_555
O55 Si7 1.596055 1_555
O55 Sc4 2.079496 1_555
O56 Si8 1.621076 1_555
O56 Sc5 2.163125 1_555
O57 Si9 1.662484 1_555
O58 Si10 1.665549 1_555
O59 Si11 1.656394 1_555
O60 Si12 1.665549 1_555
O61 Si13 1.662484 1_555
O62 Si14 1.656394 1_555
O63 Si15 1.596055 1_555
O63 Sc6 2.079496 1_555
O64 Si16 1.615006 1_555
O64 Sc7 2.156039 1_555
O65 Si17 1.621076 1_555
O65 Sc8 2.163125 1_555
O66 Si18 1.621076 1_555
O66 Sc9 2.163125 1_555
O67 Si19 1.615006 1_555
O67 Sc10 2.156039 1_555
O68 Si20 1.596055 1_555
O68 Sc11 2.079496 1_555
O69 Si21 1.656394 1_555
O70 Si22 1.662484 1_555
O71 Si23 1.665549 1_555
O72 Si0 1.622476 1_555
O72 Sc9 1.997593 1_555
O73 Si1 1.606393 1_555
O73 Sc10 1.971688 1_555
O74 Si2 1.599910 1_555
O74 Sc11 1.973996 1_555
O75 Si3 1.694481 1_555
O76 Si4 1.716909 1_555
O77 Si5 1.721707 1_555
O78 Si6 1.721707 1_555
O79 Si7 1.716909 1_555
O80 Si8 1.694481 1_555
O81 Si9 1.599910 1_555
O81 Sc6 1.973996 1_554
O82 Si10 1.606393 1_555
O82 Sc7 1.971688 1_554
O83 Si11 1.622476 1_555
O83 Sc8 1.997593 1_554
O84 Si12 1.606393 1_555
O84 Sc3 1.971688 1_555
O85 Si13 1.599910 1_555
O85 Sc4 1.973996 1_555
O86 Si14 1.622476 1_555
O86 Sc5 1.997593 1_555
O87 Si15 1.716909 1_555
O88 Si16 1.721707 1_555
O89 Si17 1.694481 1_555
O90 Si18 1.694481 1_555
O91 Si19 1.721707 1_555
O92 Si20 1.716909 1_555
O93 Si21 1.622476 1_555
O93 Sc0 1.997593 1_554
O94 Si22 1.599910 1_555
O94 Sc1 1.973996 1_554
O95 Si23 1.606393 1_555
O95 Sc2 1.971688 1_554
O96 Si0 1.679578 1_555
O97 Si1 1.688624 1_555
O98 Si2 1.721742 1_555
O99 Si3 1.613627 1_555
O99 Sc9 2.045985 1_555
O100 Si4 1.606173 1_555
O100 Sc10 2.042896 1_555
O101 Si5 1.596088 1_555
O101 Sc11 2.096796 1_555
O102 Si6 1.596088 1_555
O102 Sc6 2.096796 1_554
O103 Si7 1.606173 1_555
O103 Sc7 2.042896 1_554
O104 Si8 1.613627 1_555
O104 Sc8 2.045985 1_554
O105 Si9 1.721742 1_555
O106 Si10 1.688624 1_555
O107 Si11 1.679578 1_555
O108 Si12 1.688624 1_555
O109 Si13 1.721742 1_555
O110 Si14 1.679578 1_555
O111 Si15 1.606173 1_555
O111 Sc3 2.042896 1_455
O112 Si16 1.596088 1_555
O112 Sc4 2.096796 1_455
O113 Si17 1.613627 1_555
O113 Sc5 2.045985 1_455
O114 Si18 1.613627 1_555
O114 Sc0 2.045985 1_454
O115 Si19 1.596088 1_555
O115 Sc1 2.096796 1_454
O116 Si20 1.606173 1_555
O116 Sc2 2.042896 1_454
O117 Si21 1.679578 1_555
O118 Si22 1.721742 1_555
O119 Si23 1.688624 1_555
O120 P0 1.553980 1_555
O121 P1 1.592048 1_555
O122 P2 1.556898 1_555
O123 P0 1.549310 1_655
O123 Sc0 2.176747 1_555
O124 P1 1.521197 1_655
O124 Sc1 2.177229 1_555
O125 P2 1.541069 1_655
O125 Sc2 2.221998 1_555
O126 P3 1.541069 1_655
O126 Sc3 2.221998 1_555
O127 P4 1.521197 1_655
O127 Sc4 2.177229 1_555
O128 P5 1.549310 1_655
O128 Sc5 2.176747 1_555
O129 P3 1.556898 1_555
O130 P4 1.592048 1_555
O131 P5 1.553980 1_555
O132 P6 1.592048 1_555
O133 P7 1.556898 1_555
O134 P8 1.553980 1_555
O135 P6 1.521197 1_555
O135 Sc6 2.177229 1_555
O136 P7 1.541069 1_555
O136 Sc7 2.221998 1_555
O137 P8 1.549310 1_555
O137 Sc8 2.176747 1_555
O138 P9 1.549310 1_555
O138 Sc9 2.176747 1_555
O139 P10 1.541069 1_555
O139 Sc10 2.221998 1_555
O140 P11 1.521197 1_555
O140 Sc11 2.177229 1_555
O141 P9 1.553980 1_555
O142 P10 1.556898 1_555
O143 P11 1.592048 1_555
