# generated using pymatgen
data_Re3Te8Cl3
_symmetry_space_group_name_H-M   'P 1'
_cell_length_a   8.69506300
_cell_length_b   10.87883800
_cell_length_c   18.84558900
_cell_angle_alpha   90.00000000
_cell_angle_beta   90.00000000
_cell_angle_gamma   90.00000000
_symmetry_Int_Tables_number   1
_chemical_formula_structural   Re3Te8Cl3
_chemical_formula_sum   'Re12 Te32 Cl12'
_cell_volume   1782.64538038
_cell_formula_units_Z   4
loop_
 _symmetry_equiv_pos_site_id
 _symmetry_equiv_pos_as_xyz
  1  'x, y, z'
loop_
 _atom_site_type_symbol
 _atom_site_label
 _atom_site_symmetry_multiplicity
 _atom_site_fract_x
 _atom_site_fract_y
 _atom_site_fract_z
 _atom_site_occupancy
  Re  Re0  1  0.34696900  0.06799100  0.01524900  1
  Re  Re1  1  0.84696900  0.93200900  0.48475100  1
  Re  Re2  1  0.65303100  0.06799100  0.98475100  1
  Re  Re3  1  0.15303100  0.93200900  0.51524900  1
  Re  Re4  1  0.45408900  0.19228000  0.90020700  1
  Re  Re5  1  0.95408900  0.80772000  0.59979300  1
  Re  Re6  1  0.54591100  0.19228000  0.09979300  1
  Re  Re7  1  0.04591100  0.80772000  0.40020700  1
  Re  Re8  1  0.34728600  0.31698300  0.01484900  1
  Re  Re9  1  0.84728600  0.68301700  0.48515100  1
  Re  Re10  1  0.65271400  0.31698300  0.98515100  1
  Re  Re11  1  0.15271400  0.68301700  0.51484900  1
  Te  Te0  1  0.34880800  0.80784200  0.42925700  1
  Te  Te1  1  0.84880800  0.19215800  0.07074300  1
  Te  Te2  1  0.65119200  0.80784200  0.57074300  1
  Te  Te3  1  0.15119200  0.19215800  0.92925700  1
  Te  Te4  1  0.11822300  0.82259900  0.25789700  1
  Te  Te5  1  0.61822300  0.17740100  0.24210300  1
  Te  Te6  1  0.88177700  0.82259900  0.74210300  1
  Te  Te7  1  0.38177700  0.17740100  0.75789700  1
  Te  Te8  1  0.04700800  0.05734700  0.39909900  1
  Te  Te9  1  0.54700800  0.94265300  0.10090100  1
  Te  Te10  1  0.95299200  0.05734700  0.60090100  1
  Te  Te11  1  0.45299200  0.94265300  0.89909900  1
  Te  Te12  1  0.37096300  0.51437200  0.55254000  1
  Te  Te13  1  0.87096300  0.48562800  0.94746000  1
  Te  Te14  1  0.62903700  0.51437200  0.44746000  1
  Te  Te15  1  0.12903700  0.48562800  0.05254000  1
  Te  Te16  1  0.74542600  0.80696500  0.36740100  1
  Te  Te17  1  0.24542600  0.19303500  0.13259900  1
  Te  Te18  1  0.25457400  0.80696500  0.63259900  1
  Te  Te19  1  0.75457400  0.19303500  0.86740100  1
  Te  Te20  1  0.37019000  0.10201400  0.55260700  1
  Te  Te21  1  0.87019000  0.89798600  0.94739300  1
  Te  Te22  1  0.62981000  0.10201400  0.44739300  1
  Te  Te23  1  0.12981000  0.89798600  0.05260700  1
  Te  Te24  1  0.04546700  0.55880200  0.39803300  1
  Te  Te25  1  0.54546700  0.44119800  0.10196700  1
  Te  Te26  1  0.95453300  0.55880200  0.60196700  1
  Te  Te27  1  0.45453300  0.44119800  0.89803300  1
  Te  Te28  1  0.22887000  0.30823400  0.49144600  1
  Te  Te29  1  0.72887000  0.69176600  0.00855400  1
  Te  Te30  1  0.77113000  0.30823400  0.50855400  1
  Te  Te31  1  0.27113000  0.69176600  0.99144600  1
  Cl  Cl0  1  0.17733200  0.33588500  0.74975100  1
  Cl  Cl1  1  0.67733200  0.66411500  0.75024900  1
  Cl  Cl2  1  0.82266800  0.33588500  0.25024900  1
  Cl  Cl3  1  0.32266800  0.66411500  0.24975100  1
  Cl  Cl4  1  0.55938300  0.32477200  0.70694000  1
  Cl  Cl5  1  0.05938300  0.67522800  0.79306000  1
  Cl  Cl6  1  0.44061700  0.32477200  0.29306000  1
  Cl  Cl7  1  0.94061700  0.67522800  0.20694000  1
  Cl  Cl8  1  0.60703700  0.00307200  0.72226500  1
  Cl  Cl9  1  0.10703700  0.99692800  0.77773500  1
  Cl  Cl10  1  0.39296300  0.00307200  0.27773500  1
  Cl  Cl11  1  0.89296300  0.99692800  0.22226500  1
loop_
_geom_bond_atom_site_label_1
_geom_bond_atom_site_label_2
_geom_bond_distance
_geom_bond_site_symmetry_2
Re0 Re8 2.708756 1_555
Re0 Te3 2.710847 1_554
Re0 Re6 2.712753 1_555
Re0 Re4 2.719584 1_554
Re0 Re2 2.722586 1_554
Re0 Te23 2.735232 1_545
Re0 Te9 2.736802 1_545
Re0 Te11 2.738690 1_544
Re0 Te17 2.742430 1_555
Re1 Re9 2.708756 1_555
Re1 Te2 2.710847 1_555
Re1 Re7 2.712753 1_655
Re1 Re5 2.719584 1_555
Re1 Re3 2.722586 1_655
Re1 Te22 2.735232 1_565
Re1 Te8 2.736802 1_665
Re1 Te10 2.738690 1_565
Re1 Te16 2.742430 1_555
Re2 Te1 2.710847 1_556
Re2 Re4 2.712753 1_555
Re2 Re6 2.719584 1_556
Re2 Te21 2.735232 1_545
Re2 Te11 2.736802 1_545
Re2 Te9 2.738690 1_546
Re2 Te19 2.742430 1_555
Re3 Te0 2.710847 1_555
Re3 Re5 2.712753 1_455
Re3 Re7 2.719584 1_555
Re3 Te20 2.735232 1_565
Re3 Te10 2.736802 1_465
Re3 Te8 2.738690 1_565
Re3 Te18 2.742430 1_555
Re4 Te19 2.684900 1_555
Re4 Te3 2.690007 1_555
Re4 Te27 2.708251 1_555
Re4 Re8 2.714881 1_556
Re4 Te11 2.715749 1_545
Re4 Te7 2.759386 1_555
Re5 Te18 2.684900 1_655
Re5 Te2 2.690007 1_555
Re5 Te26 2.708251 1_555
Re5 Re9 2.714881 1_555
Re5 Te10 2.715749 1_565
Re5 Te6 2.759386 1_555
Re6 Te17 2.684900 1_555
Re6 Te1 2.690007 1_555
Re6 Te25 2.708251 1_555
Re6 Te9 2.715749 1_545
Re6 Re8 2.717679 1_555
Re6 Te5 2.759386 1_555
Re7 Te16 2.684900 1_455
Re7 Te0 2.690007 1_555
Re7 Te24 2.708251 1_555
Re7 Te8 2.715749 1_565
Re7 Re9 2.717679 1_455
Re7 Te4 2.759386 1_555
Re8 Te3 2.711659 1_554
Re8 Te15 2.733449 1_555
Re8 Te25 2.736957 1_555
Re8 Te17 2.743520 1_555
Re8 Te27 2.746288 1_554
Re9 Te2 2.711659 1_555
Re9 Te14 2.733449 1_555
Re9 Te24 2.736957 1_655
Re9 Te16 2.743520 1_555
Re9 Te26 2.746288 1_555
Re10 Re2 2.708756 1_555
Re10 Te1 2.711659 1_556
Re10 Re8 2.714049 1_556
Re10 Re6 2.714881 1_556
Re10 Re4 2.717679 1_555
Re10 Te13 2.733449 1_555
Re10 Te27 2.736957 1_555
Re10 Te19 2.743520 1_555
Re10 Te25 2.746288 1_556
Re11 Re3 2.708756 1_555
Re11 Te0 2.711659 1_555
Re11 Re9 2.714049 1_455
Re11 Re7 2.714881 1_555
Re11 Re5 2.717679 1_455
Re11 Te12 2.733449 1_555
Re11 Te26 2.736957 1_455
Re11 Te18 2.743520 1_555
Re11 Te24 2.746288 1_555
Te12 Te28 2.807327 1_555
Te12 Te14 2.992819 1_555
Te13 Te29 2.807327 1_556
Te13 Te15 2.992819 1_656
Te14 Te30 2.807327 1_555
Te15 Te31 2.807327 1_554
Te20 Te28 2.805607 1_555
Te20 Te22 3.004577 1_555
Te21 Te29 2.805607 1_556
Te21 Te23 3.004577 1_656
Te22 Te30 2.805607 1_555
Te23 Te31 2.805607 1_554
Cl0 Te7 2.481178 1_555
Cl1 Te6 2.481178 1_555
Cl2 Te5 2.481178 1_555
Cl3 Te4 2.481178 1_555
Cl4 Te7 2.424332 1_555
Cl5 Te6 2.424332 1_455
Cl6 Te5 2.424332 1_555
Cl7 Te4 2.424332 1_655
Cl8 Te7 2.807834 1_555
Cl8 Te6 3.114678 1_545
Cl9 Te6 2.807834 1_455
Cl9 Te7 3.114678 1_565
Cl10 Te5 2.807834 1_555
Cl10 Te4 3.114678 1_545
Cl11 Te4 2.807834 1_655
Cl11 Te5 3.114678 1_565
