# generated using pymatgen
data_Na9Ta4Zn2Si6(PO12)3
_symmetry_space_group_name_H-M   'P 1'
_cell_length_a   9.05765226
_cell_length_b   27.09004342
_cell_length_c   22.32958641
_cell_angle_alpha   89.85702185
_cell_angle_beta   90.10479428
_cell_angle_gamma   119.96507844
_symmetry_Int_Tables_number   1
_chemical_formula_structural   Na9Ta4Zn2Si6(PO12)3
_chemical_formula_sum   'Na54 Ta24 Zn12 Si36 P18 O216'
_cell_volume   4746.65778698
_cell_formula_units_Z   6
loop_
 _symmetry_equiv_pos_site_id
 _symmetry_equiv_pos_as_xyz
  1  'x, y, z'
loop_
 _atom_site_type_symbol
 _atom_site_label
 _atom_site_symmetry_multiplicity
 _atom_site_fract_x
 _atom_site_fract_y
 _atom_site_fract_z
 _atom_site_occupancy
  Na  Na0  1  0.01656989  0.99992474  0.49384537  1
  Na  Na1  1  0.00559301  0.32842482  0.50247152  1
  Na  Na2  1  0.99680632  0.66698912  0.49939577  1
  Na  Na3  1  0.98625490  0.00753520  0.00063120  1
  Na  Na4  1  0.01896683  0.34091282  0.00118319  1
  Na  Na5  1  0.00374853  0.66534282  0.00923308  1
  Na  Na6  1  0.68134603  0.11069197  0.82910686  1
  Na  Na7  1  0.64616822  0.44502567  0.84488278  1
  Na  Na8  1  0.68337373  0.77676629  0.82532282  1
  Na  Na9  1  0.65918911  0.10402874  0.32338878  1
  Na  Na10  1  0.67018735  0.44302510  0.33928315  1
  Na  Na11  1  0.66801998  0.77996541  0.33366948  1
  Na  Na12  1  0.32401470  0.21945845  0.16389931  1
  Na  Na13  1  0.31818860  0.55637795  0.17099340  1
  Na  Na14  1  0.34098178  0.89390578  0.16115278  1
  Na  Na15  1  0.31937290  0.21840122  0.67007904  1
  Na  Na16  1  0.34425048  0.55628038  0.67255695  1
  Na  Na17  1  0.29321337  0.88607560  0.65886591  1
  Na  Na18  1  0.62407526  0.66074923  0.25528830  1
  Na  Na19  1  0.38125871  0.12054224  0.24411005  1
  Na  Na20  1  0.36200954  0.46004839  0.25856012  1
  Na  Na21  1  0.34950601  0.78644121  0.23952400  1
  Na  Na22  1  0.98735728  0.20648414  0.24379807  1
  Na  Na23  1  0.02354181  0.54810099  0.25108648  1
  Na  Na24  1  0.60439390  0.20310930  0.74795159  1
  Na  Na25  1  0.61943253  0.54216415  0.76093702  1
  Na  Na26  1  0.62151524  0.86902331  0.74176115  1
  Na  Na27  1  0.99318414  0.12897640  0.74939520  1
  Na  Na28  1  0.01955265  0.46277198  0.75729278  1
  Na  Na29  1  0.38797313  0.00491501  0.74114586  1
  Na  Na30  1  0.37383771  0.32804641  0.75899281  1
  Na  Na31  1  0.38824028  0.66699633  0.74947637  1
  Na  Na32  1  0.31194089  0.78433912  0.57598644  1
  Na  Na33  1  0.01617519  0.56375565  0.57527266  1
  Na  Na34  1  0.67143289  0.32526149  0.57560635  1
  Na  Na35  1  0.65332787  0.98598128  0.57521536  1
  Na  Na36  1  0.31097246  0.32843033  0.07225739  1
  Na  Na37  1  0.30652338  0.98431056  0.07368506  1
  Na  Na38  1  0.66343584  0.22657764  0.08932687  1
  Na  Na39  1  0.68420189  0.57241628  0.08990040  1
  Na  Na40  1  0.65420786  0.90068378  0.07213510  1
  Na  Na41  1  0.06005367  0.77939501  0.08394606  1
  Na  Na42  1  0.95567355  0.54926534  0.92652324  1
  Na  Na43  1  0.98729588  0.89266485  0.92080820  1
  Na  Na44  1  0.69681519  0.34758973  0.92394758  1
  Na  Na45  1  0.34397990  0.10502595  0.90958993  1
  Na  Na46  1  0.32869642  0.77072962  0.92418142  1
  Na  Na47  1  0.97077799  0.09496469  0.40862850  1
  Na  Na48  1  0.94778607  0.43421505  0.42419126  1
  Na  Na49  1  0.99293413  0.77399669  0.42658574  1
  Na  Na50  1  0.31075874  0.00854603  0.41503883  1
  Na  Na51  1  0.34980442  0.34959421  0.42721365  1
  Na  Na52  1  0.69710895  0.55008934  0.42685571  1
  Na  Na53  1  0.70972947  0.89574419  0.40850597  1
  Ta  Ta0  1  0.99110652  0.33306778  0.35460384  1
  Ta  Ta1  1  0.00931346  0.66747271  0.35227867  1
  Ta  Ta2  1  0.99565247  0.00022001  0.85543076  1
  Ta  Ta3  1  0.00900567  0.33515297  0.85587037  1
  Ta  Ta4  1  0.98947580  0.66386026  0.85676749  1
  Ta  Ta5  1  0.00275225  0.99839161  0.64274864  1
  Ta  Ta6  1  0.00066028  0.33224323  0.64436236  1
  Ta  Ta7  1  -0.00017495  0.67014203  0.64385521  1
  Ta  Ta8  1  0.99706786  -0.00016803  0.14914683  1
  Ta  Ta9  1  0.99328802  0.33207262  0.14603671  1
  Ta  Ta10  1  0.66835890  0.44446164  0.68620352  1
  Ta  Ta11  1  0.66770823  0.44271169  0.18493614  1
  Ta  Ta12  1  0.66424615  0.77552123  0.18895910  1
  Ta  Ta13  1  0.67255231  0.11051108  0.98076031  1
  Ta  Ta14  1  0.66915294  0.77900803  0.97703777  1
  Ta  Ta15  1  0.66694409  0.11345590  0.48284915  1
  Ta  Ta16  1  0.67009774  0.77814251  0.48102571  1
  Ta  Ta17  1  0.33240314  0.22181165  0.01671963  1
  Ta  Ta18  1  0.32898826  0.55509423  0.01959876  1
  Ta  Ta19  1  0.33562207  0.22208718  0.52353897  1
  Ta  Ta20  1  0.33723297  0.55651407  0.52091495  1
  Ta  Ta21  1  0.33987712  0.22150028  0.31259423  1
  Ta  Ta22  1  0.32755146  0.88969361  0.31304116  1
  Ta  Ta23  1  0.33117685  0.88865054  0.81220357  1
  Zn  Zn0  1  0.99596233  0.99564112  0.34733818  1
  Zn  Zn1  1  0.01118745  0.67041622  0.14837404  1
  Zn  Zn2  1  0.67823527  0.11338935  0.67909926  1
  Zn  Zn3  1  0.66654927  0.77497714  0.68784481  1
  Zn  Zn4  1  0.67415957  0.11555896  0.18102652  1
  Zn  Zn5  1  0.64950299  0.44000824  0.98770727  1
  Zn  Zn6  1  0.66252892  0.44267840  0.49006103  1
  Zn  Zn7  1  0.32740589  0.88869120  0.01134335  1
  Zn  Zn8  1  0.31941649  0.88701385  0.51471000  1
  Zn  Zn9  1  0.33940076  0.56148223  0.31756417  1
  Zn  Zn10  1  0.33289398  0.21918819  0.81888244  1
  Zn  Zn11  1  0.33825819  0.55924555  0.81495137  1
  Si  Si0  1  0.28942474  0.33340310  0.25035345  1
  Si  Si1  1  0.29026178  0.66391061  0.24543666  1
  Si  Si2  1  0.70383781  0.23436765  0.24935427  1
  Si  Si3  1  0.69887422  0.90244369  0.25194299  1
  Si  Si4  1  0.99526533  0.43028069  0.25121171  1
  Si  Si5  1  0.99758107  0.76389924  0.24752009  1
  Si  Si6  1  0.29458525  0.43036019  0.75011982  1
  Si  Si7  1  0.28634874  0.76205160  0.75142068  1
  Si  Si8  1  0.00181788  0.57104810  0.74898776  1
  Si  Si9  1  0.99958429  0.90191225  0.75007452  1
  Si  Si10  1  0.71043566  0.00018147  0.74789202  1
  Si  Si11  1  0.70964265  0.33218461  0.74971738  1
  Si  Si12  1  0.95957380  0.11043249  0.58620623  1
  Si  Si13  1  0.95937711  0.44343235  0.58010275  1
  Si  Si14  1  0.37247703  0.34610206  0.58173758  1
  Si  Si15  1  0.37712087  0.68176100  0.58801333  1
  Si  Si16  1  0.66524487  0.20779548  0.59008642  1
  Si  Si17  1  0.66345414  0.54155190  0.58163814  1
  Si  Si18  1  0.96368976  0.20862300  0.08647156  1
  Si  Si19  1  0.95862868  0.87474061  0.08330185  1
  Si  Si20  1  0.66778897  0.34657478  0.07798338  1
  Si  Si21  1  0.66695462  0.68096776  0.08370285  1
  Si  Si22  1  0.37439045  0.11078838  0.08516941  1
  Si  Si23  1  0.37398299  0.44475552  0.08439040  1
  Si  Si24  1  0.63164926  0.22315651  0.91489232  1
  Si  Si25  1  0.62482975  0.89093545  0.91885994  1
  Si  Si26  1  0.03928193  0.12628450  0.90988806  1
  Si  Si27  1  0.04109107  0.79094929  0.92024821  1
  Si  Si28  1  0.33257162  0.65233808  0.91172089  1
  Si  Si29  1  0.33900907  0.98737361  0.91790712  1
  Si  Si30  1  0.62595120  0.31970700  0.41851473  1
  Si  Si31  1  0.63020778  0.65299210  0.41418827  1
  Si  Si32  1  0.33947177  0.12566787  0.41658499  1
  Si  Si33  1  0.33971271  0.79265509  0.41842290  1
  Si  Si34  1  0.04656688  0.22189540  0.41642058  1
  Si  Si35  1  0.04219588  0.89218847  0.41987813  1
  P  P0  1  0.29435647  0.00017421  0.25252969  1
  P  P1  1  0.71454981  0.56938710  0.24670760  1
  P  P2  1  0.00166022  0.09663581  0.25476122  1
  P  P3  1  0.28289137  0.09632049  0.74910502  1
  P  P4  1  0.99342304  0.23658938  0.75182237  1
  P  P5  1  0.71407314  0.66794108  0.74969991  1
  P  P6  1  0.95950613  0.77999514  0.58715341  1
  P  P7  1  0.37370886  0.01306987  0.58633775  1
  P  P8  1  0.66973623  0.87476338  0.58603041  1
  P  P9  1  0.95829234  0.54013825  0.07875916  1
  P  P10  1  0.66965317  0.01601969  0.08833208  1
  P  P11  1  0.37697476  0.77627598  0.08364190  1
  P  P12  1  0.61934461  0.55343005  0.91497292  1
  P  P13  1  0.04574784  0.45869329  0.91199734  1
  P  P14  1  0.33478235  0.32116088  0.91294493  1
  P  P15  1  0.61821658  0.98624041  0.42040161  1
  P  P16  1  0.32650787  0.45909756  0.41326527  1
  P  P17  1  0.03944319  0.55530627  0.41241611  1
  O  O0  1  0.21911216  0.00853862  0.31012877  1
  O  O1  1  0.19901540  0.34552502  0.30843624  1
  O  O2  1  0.18649417  0.67043573  0.30546229  1
  O  O3  1  0.82976022  0.27551142  0.30445548  1
  O  O4  1  0.82855190  0.60040456  0.30363691  1
  O  O5  1  0.79983234  0.92571559  0.31278911  1
  O  O6  1  0.00181858  0.06661696  0.31225757  1
  O  O7  1  0.98085623  0.39567235  0.31441357  1
  O  O8  1  0.97033327  0.72042236  0.30505683  1
  O  O9  1  0.18290249  0.06364342  0.80683004  1
  O  O10  1  0.19982920  0.39233438  0.81092614  1
  O  O11  1  0.16953578  0.71971116  0.80721797  1
  O  O12  1  0.99756740  0.27358237  0.80752890  1
  O  O13  1  0.97280115  0.59870768  0.81085215  1
  O  O14  1  0.99965124  0.94054598  0.80830826  1
  O  O15  1  0.82841004  0.00378971  0.80618204  1
  O  O16  1  0.83745260  0.34187373  0.80801713  1
  O  O17  1  0.81064489  0.66323557  0.80611674  1
  O  O18  1  0.80563671  0.32743344  0.68976618  1
  O  O19  1  0.82462270  0.66991769  0.69450336  1
  O  O20  1  0.80664650  0.99135643  0.68875709  1
  O  O21  1  0.17254620  0.05956994  0.69420901  1
  O  O22  1  0.16898943  0.39142881  0.69556891  1
  O  O23  1  0.18027339  0.73378602  0.68822535  1
  O  O24  1  0.99001900  0.27099111  0.69632181  1
  O  O25  1  0.01085528  0.61232029  0.69237577  1
  O  O26  1  0.02153057  0.94249290  0.69094648  1
  O  O27  1  0.79933568  0.26815251  0.18767627  1
  O  O28  1  0.78840487  0.60428709  0.18997440  1
  O  O29  1  0.80517590  0.94345983  0.19379066  1
  O  O30  1  0.02054633  0.06303912  0.19967362  1
  O  O31  1  0.99773665  0.38820724  0.19853183  1
  O  O32  1  0.04356806  0.74332510  0.18706579  1
  O  O33  1  0.16634868  0.32222734  0.19195278  1
  O  O34  1  0.16969871  0.65362837  0.18959737  1
  O  O35  1  0.17173502  0.99244396  0.19710756  1
  O  O36  1  0.89253502  0.12083800  0.64832236  1
  O  O37  1  0.86482037  0.45445814  0.63867794  1
  O  O38  1  0.86968801  0.78242512  0.64196709  1
  O  O39  1  0.47263813  0.04237147  0.64324782  1
  O  O40  1  0.50241218  0.38083636  0.63924807  1
  O  O41  1  0.46812548  0.70198959  0.65092882  1
  O  O42  1  0.63992572  0.17534416  0.65189429  1
  O  O43  1  0.64136063  0.50228809  0.64174938  1
  O  O44  1  0.64408882  0.83958520  0.64196538  1
  O  O45  1  0.89968525  0.17825887  0.14984959  1
  O  O46  1  0.86571411  0.50252428  0.13665303  1
  O  O47  1  0.83786689  0.83094308  0.13718630  1
  O  O48  1  0.64932934  0.04565105  0.14192624  1
  O  O49  1  0.64270347  0.38283036  0.13431762  1
  O  O50  1  0.64305194  0.70780443  0.14700279  1
  O  O51  1  0.49198238  0.13082976  0.14421840  1
  O  O52  1  0.49866620  0.45738263  0.14462521  1
  O  O53  1  0.47595383  0.77153274  0.13905678  1
  O  O54  1  0.46490341  0.09777933  0.02807029  1
  O  O55  1  0.44203764  0.42335708  0.03035089  1
  O  O56  1  0.48704651  0.78206363  0.02674226  1
  O  O57  1  0.82587731  0.17092476  0.03382123  1
  O  O58  1  0.85657452  0.51044627  0.02254394  1
  O  O59  1  0.84792467  0.84765495  0.02108798  1
  O  O60  1  0.68656514  0.04997131  0.02923572  1
  O  O61  1  0.69679976  0.37961578  0.01658555  1
  O  O62  1  0.68110729  0.72549656  0.02993372  1
  O  O63  1  0.46800061  0.05066024  0.52902594  1
  O  O64  1  0.44395227  0.38096674  0.52080142  1
  O  O65  1  0.48732147  0.72638634  0.53285156  1
  O  O66  1  0.68313985  0.17168572  0.53250916  1
  O  O67  1  0.71330607  0.51847856  0.52321211  1
  O  O68  1  0.68932746  0.84447416  0.52851450  1
  O  O69  1  0.82792901  0.09949726  0.52876723  1
  O  O70  1  0.84182566  0.42738665  0.52151253  1
  O  O71  1  0.85725693  0.77716762  0.52825102  1
  O  O72  1  0.53756326  0.23545213  0.97239881  1
  O  O73  1  0.51967240  0.55829831  0.97037822  1
  O  O74  1  0.54618816  0.89874592  0.97954717  1
  O  O75  1  0.17740298  0.16443958  0.96352158  1
  O  O76  1  0.15516132  0.49027485  0.96887565  1
  O  O77  1  0.15292487  0.81180488  0.98054344  1
  O  O78  1  0.32435651  0.28575850  0.97053286  1
  O  O79  1  0.30618217  0.60757365  0.96716718  1
  O  O80  1  0.28270361  0.94744347  0.97660594  1
  O  O81  1  0.53668523  0.28607371  0.48013956  1
  O  O82  1  0.51957847  0.60840892  0.46896075  1
  O  O83  1  0.54459192  0.95184074  0.47760692  1
  O  O84  1  0.33352680  0.16678987  0.46909631  1
  O  O85  1  0.30483943  0.49072558  0.46869366  1
  O  O86  1  0.29229007  0.81347252  0.47858785  1
  O  O87  1  0.17762597  0.23522535  0.47209011  1
  O  O88  1  0.14777116  0.55966807  0.46905029  1
  O  O89  1  0.15963957  0.90360093  0.47694409  1
  O  O90  1  0.13071542  0.20975827  0.35610622  1
  O  O91  1  0.11983364  0.54992227  0.35479716  1
  O  O92  1  0.14175029  0.88230237  0.36138588  1
  O  O93  1  0.50125592  0.27949382  0.36234694  1
  O  O94  1  0.53734866  0.63168221  0.35156466  1
  O  O95  1  0.49880678  0.95413072  0.36511955  1
  O  O96  1  0.35343492  0.16041512  0.35297297  1
  O  O97  1  0.33483301  0.49078627  0.35578995  1
  O  O98  1  0.36667064  0.83492696  0.36081891  1
  O  O99  1  0.10424942  0.15698774  0.84670076  1
  O  O100  1  0.13204386  0.49161353  0.85519452  1
  O  O101  1  0.14356115  0.83511772  0.86389501  1
  O  O102  1  0.34469105  0.29144106  0.85626302  1
  O  O103  1  0.36320829  0.63115460  0.84913313  1
  O  O104  1  0.35973575  0.95511805  0.85844477  1
  O  O105  1  0.51476285  0.20595006  0.85575536  1
  O  O106  1  0.52756272  0.54938981  0.85659678  1
  O  O107  1  0.50430607  0.88192389  0.85983040  1
  O  O108  1  0.03198221  0.27984836  0.40803864  1
  O  O109  1  0.02214531  0.61081431  0.41235796  1
  O  O110  1  0.00728795  0.94452772  0.41244439  1
  O  O111  1  0.81708500  0.32514486  0.41367891  1
  O  O112  1  0.82198499  0.65792538  0.41419092  1
  O  O113  1  0.79884510  0.99672199  0.41187897  1
  O  O114  1  0.17183743  0.06405689  0.41896335  1
  O  O115  1  0.16131218  0.39769419  0.41571664  1
  O  O116  1  0.17033924  0.72922817  0.40441689  1
  O  O117  1  0.02970519  0.06340540  0.91322681  1
  O  O118  1  0.02931111  0.39749333  0.91358452  1
  O  O119  1  0.01271005  0.72693975  0.90724862  1
  O  O120  1  0.16633992  0.32497132  0.91439195  1
  O  O121  1  0.15321659  0.65645356  0.91373899  1
  O  O122  1  0.17686055  0.99921803  0.90737741  1
  O  O123  1  0.81879410  0.28239383  0.91122817  1
  O  O124  1  0.80127774  0.61023531  0.91609220  1
  O  O125  1  0.82412040  0.94405505  0.91137363  1
  O  O126  1  0.97292082  0.05106391  0.58691175  1
  O  O127  1  0.98717616  0.38881042  0.59153285  1
  O  O128  1  0.96973447  0.72243475  0.58464453  1
  O  O129  1  0.19338647  0.00884508  0.58627201  1
  O  O130  1  0.17979876  0.33510646  0.59340837  1
  O  O131  1  0.18242124  0.67564301  0.58484024  1
  O  O132  1  0.83360370  0.27291445  0.58638889  1
  O  O133  1  0.82953175  0.60639182  0.59204099  1
  O  O134  1  0.83861376  0.93509493  0.58640245  1
  O  O135  1  0.98401588  0.27345319  0.08392371  1
  O  O136  1  0.97388271  0.59846198  0.08371319  1
  O  O137  1  0.96675305  0.93741738  0.09173773  1
  O  O138  1  0.83852543  0.01115197  0.09153523  1
  O  O139  1  0.82622395  0.33490759  0.09059866  1
  O  O140  1  0.83454462  0.67462674  0.08263729  1
  O  O141  1  0.18549406  0.05266293  0.09296066  1
  O  O142  1  0.18083120  0.39074405  0.09691115  1
  O  O143  1  0.20180816  0.72381667  0.07696359  1
  O  O144  1  0.68910445  0.05562882  0.74755878  1
  O  O145  1  0.70338900  0.39253380  0.74401522  1
  O  O146  1  0.69793372  0.72024054  0.75402502  1
  O  O147  1  0.45539388  0.09958678  0.75271207  1
  O  O148  1  0.47919096  0.43154017  0.74557933  1
  O  O149  1  0.47089648  0.76761772  0.75390174  1
  O  O150  1  0.83052684  0.17932793  0.75758235  1
  O  O151  1  0.82417925  0.50831968  0.74342351  1
  O  O152  1  0.82789812  0.84218716  0.74991390  1
  O  O153  1  0.68707638  0.17274641  0.25548789  1
  O  O154  1  0.71459727  0.51074850  0.24492616  1
  O  O155  1  0.66362994  0.83692504  0.23850302  1
  O  O156  1  0.84963126  0.10555150  0.25065179  1
  O  O157  1  0.82206561  0.43564533  0.24321448  1
  O  O158  1  0.82180966  0.76817014  0.24731527  1
  O  O159  1  0.46956638  0.05188482  0.24261013  1
  O  O160  1  0.47674473  0.39150507  0.24131189  1
  O  O161  1  0.47566154  0.72507203  0.24705041  1
  O  O162  1  0.65191787  0.16740875  0.93081377  1
  O  O163  1  0.65456606  0.50399116  0.92197520  1
  O  O164  1  0.64375639  0.83274548  0.91964435  1
  O  O165  1  0.85153256  0.11675737  0.92761252  1
  O  O166  1  0.86589721  0.45052392  0.91496995  1
  O  O167  1  0.85364774  0.78762458  0.92195372  1
  O  O168  1  0.50622132  0.05142445  0.92284198  1
  O  O169  1  0.49301897  0.38037394  0.91587450  1
  O  O170  1  0.48756601  0.71756897  0.92780409  1
  O  O171  1  0.62292964  0.04543282  0.42192061  1
  O  O172  1  0.64312793  0.38152880  0.41229166  1
  O  O173  1  0.66405249  0.71733765  0.43093645  1
  O  O174  1  0.51173091  0.11984700  0.42397636  1
  O  O175  1  0.48587526  0.45315853  0.41788217  1
  O  O176  1  0.51386602  0.78751928  0.42272366  1
  O  O177  1  0.86141103  0.16369664  0.42734290  1
  O  O178  1  0.85824968  0.50369451  0.41693438  1
  O  O179  1  0.85494505  0.83093277  0.42354485  1
  O  O180  1  0.34834655  0.16592392  0.06852576  1
  O  O181  1  0.36535889  0.50349611  0.07516016  1
  O  O182  1  0.37179592  0.83159644  0.09241244  1
  O  O183  1  0.15595232  0.22005048  0.07052455  1
  O  O184  1  0.13897732  0.54425745  0.07646087  1
  O  O185  1  0.14468043  0.88128385  0.08499628  1
  O  O186  1  0.49175773  0.28315616  0.07918128  1
  O  O187  1  0.49449542  0.61752508  0.07183866  1
  O  O188  1  0.51685162  0.95510826  0.08356367  1
  O  O189  1  0.36233495  0.28366713  0.58232621  1
  O  O190  1  0.34001360  0.61695823  0.56973526  1
  O  O191  1  0.35844349  0.95445509  0.58267051  1
  O  O192  1  0.50234970  0.21760122  0.57768190  1
  O  O193  1  0.49084068  0.54742737  0.57524772  1
  O  O194  1  0.51722035  0.88458409  0.57938057  1
  O  O195  1  0.14878681  0.16477356  0.57171246  1
  O  O196  1  0.14268309  0.50294864  0.57378033  1
  O  O197  1  0.14511280  0.82851527  0.58294904  1
  O  O198  1  0.30116686  0.27521261  0.25763666  1
  O  O199  1  0.32469812  0.61124888  0.25147641  1
  O  O200  1  0.30290051  0.94372558  0.25482138  1
  O  O201  1  0.51565857  0.23037884  0.25232516  1
  O  O202  1  0.53237371  0.55757885  0.25482841  1
  O  O203  1  0.50488645  0.89467865  0.25351162  1
  O  O204  1  0.17324889  0.15715055  0.25021453  1
  O  O205  1  0.16259306  0.49178847  0.24728083  1
  O  O206  1  0.16455301  0.82622656  0.26306980  1
  O  O207  1  0.29249622  0.15412900  0.74376933  1
  O  O208  1  0.31868612  0.49307080  0.75007462  1
  O  O209  1  0.30438738  0.82553161  0.75874268  1
  O  O210  1  0.15674619  0.23354695  0.74788149  1
  O  O211  1  0.16747994  0.56408913  0.74706280  1
  O  O212  1  0.18222598  0.90194467  0.75422400  1
  O  O213  1  0.52183661  0.27709766  0.75423924  1
  O  O214  1  0.54256860  0.61214078  0.74416531  1
  O  O215  1  0.52460594  0.94068378  0.75458350  1
loop_
_geom_bond_atom_site_label_1
_geom_bond_atom_site_label_2
_geom_bond_distance
_geom_bond_site_symmetry_2
Na0 O114 2.312018 1_565
Na0 O110 2.334537 1_555
Na0 O129 2.546880 1_565
Na0 O126 2.637932 1_465
Na0 O113 2.657666 1_455
Na0 O134 2.668376 1_455
Na1 O132 2.419897 1_455
Na1 O130 2.520037 1_555
Na1 O108 2.562249 1_555
Na1 O115 2.571250 1_555
Na1 O111 2.586754 1_455
Na1 O127 2.636059 1_455
Na2 O112 2.406332 1_555
Na2 O131 2.473564 1_655
Na2 O128 2.514692 1_555
Na2 O109 2.551673 1_655
Na2 O133 2.603837 1_555
Na2 O116 2.675501 1_655
Na3 O117 2.376517 1_654
Na3 O138 2.462163 1_555
Na3 O125 2.563194 1_544
Na3 O141 2.607083 1_655
Na3 O137 2.724849 1_545
Na3 O122 2.787737 1_644
Na4 O118 2.454894 1_554
Na4 O135 2.502153 1_455
Na4 O120 2.512712 1_554
Na4 O142 2.562589 1_555
Na4 O139 2.605408 1_455
Na4 O123 2.639409 1_454
Na5 O143 2.275556 1_555
Na5 O140 2.344137 1_455
Na5 O136 2.370391 1_455
Na5 O121 2.603177 1_554
Na5 O124 2.680314 1_454
Na5 O119 2.797034 1_554
Na6 O150 2.305882 1_555
Na6 O144 2.380029 1_555
Na6 O147 2.561986 1_555
Na6 O168 2.631755 1_555
Na6 O165 2.641547 1_555
Na6 O162 2.831655 1_555
Na7 O169 2.252078 1_555
Na7 O163 2.326506 1_555
Na7 O166 2.475100 1_555
Na7 O148 2.603383 1_555
Na7 O151 2.811522 1_555
Na7 O145 2.849597 1_555
Na8 O146 2.260866 1_555
Na8 O152 2.316355 1_555
Na8 O149 2.413083 1_555
Na8 O167 2.580457 1_555
Na8 O164 2.725196 1_555
Na8 O170 2.847664 1_555
Na9 O153 2.312072 1_555
Na9 O156 2.356692 1_555
Na9 O159 2.403462 1_555
Na9 O171 2.633020 1_555
Na9 O174 2.756792 1_555
Na9 O177 2.898542 1_555
Na10 O172 2.252367 1_555
Na10 O178 2.411647 1_555
Na10 O175 2.532511 1_555
Na10 O157 2.611866 1_555
Na10 O154 2.685801 1_555
Na10 O160 2.713324 1_555
Na11 O158 2.493627 1_555
Na11 O176 2.498673 1_555
Na11 O161 2.530189 1_555
Na11 O179 2.542972 1_555
Na11 O155 2.634940 1_555
Na11 O173 2.741894 1_555
Na12 O204 2.473770 1_555
Na12 O186 2.497975 1_555
Na12 O201 2.544950 1_555
Na12 O183 2.584071 1_555
Na12 O180 2.650214 1_555
Na12 O198 2.652324 1_555
Na13 O199 2.316933 1_555
Na13 O205 2.340968 1_555
Na13 O184 2.580114 1_555
Na13 O202 2.681991 1_555
Na13 O181 2.728391 1_555
Na13 O187 2.747437 1_555
Na14 O185 2.356836 1_555
Na14 O188 2.376036 1_555
Na14 O182 2.401726 1_555
Na14 O203 2.532911 1_555
Na14 O200 2.607090 1_555
Na14 O206 2.856567 1_555
Na15 O207 2.315633 1_555
Na15 O210 2.443968 1_555
Na15 O189 2.532832 1_555
Na15 O213 2.551942 1_555
Na15 O192 2.655675 1_555
Na15 O195 2.661513 1_555
Na16 O214 2.315074 1_555
Na16 O208 2.360614 1_555
Na16 O211 2.392916 1_555
Na16 O193 2.621662 1_555
Na16 O196 2.766168 1_555
Na16 O190 2.831740 1_555
Na17 O197 2.240526 1_555
Na17 O191 2.360069 1_555
Na17 O212 2.484645 1_555
Na17 O194 2.713667 1_555
Na17 O209 2.796581 1_555
Na17 O215 2.837514 1_555
Na18 O94 2.288805 1_555
Na18 O199 2.350709 1_555
Na18 O202 2.486471 1_555
Na18 O158 2.549491 1_555
Na18 O161 2.686019 1_555
Na18 O50 2.695982 1_555
Na18 O8 2.935325 1_555
Na18 O28 2.995892 1_555
Na19 O159 2.363635 1_555
Na19 O51 2.405131 1_555
Na19 O153 2.413170 1_555
Na19 O204 2.533767 1_555
Na19 O201 2.598576 1_555
Na19 O96 2.725185 1_555
Na20 O202 2.301187 1_555
Na20 O205 2.369384 1_555
Na20 O97 2.383985 1_555
Na20 O160 2.570775 1_555
Na20 O154 2.792500 1_555
Na20 O52 2.848089 1_555
Na20 O1 2.908339 1_555
Na21 O161 2.448145 1_555
Na21 O206 2.460524 1_555
Na21 O155 2.465607 1_555
Na21 O203 2.560562 1_555
Na21 O53 2.642663 1_555
Na21 O32 2.678984 1_555
Na22 O45 2.238639 1_555
Na22 O156 2.376368 1_555
Na22 O153 2.412301 1_555
Na22 O198 2.520765 1_655
Na22 O204 2.624430 1_655
Na22 O90 2.803056 1_655
Na22 O33 2.951385 1_655
Na23 O199 2.388682 1_555
Na23 O205 2.416824 1_555
Na23 O154 2.458474 1_455
Na23 O91 2.465021 1_555
Na23 O157 2.662673 1_455
Na23 O34 2.831377 1_555
Na23 O46 2.887310 1_455
Na24 O42 2.349977 1_555
Na24 O147 2.432226 1_555
Na24 O150 2.443850 1_555
Na24 O207 2.450591 1_555
Na24 O213 2.468866 1_555
Na24 O105 2.555422 1_555
Na25 O106 2.337675 1_555
Na25 O214 2.352108 1_555
Na25 O208 2.372392 1_555
Na25 O151 2.477049 1_555
Na25 O148 2.629230 1_555
Na26 O152 2.326320 1_555
Na26 O149 2.394789 1_555
Na26 O44 2.411837 1_555
Na26 O215 2.515342 1_555
Na26 O209 2.530582 1_555
Na26 O107 2.930099 1_555
Na27 O99 2.355108 1_655
Na27 O36 2.401572 1_555
Na27 O207 2.446514 1_655
Na27 O210 2.455233 1_655
Na27 O144 2.463494 1_555
Na27 O150 2.464609 1_555
Na28 O100 2.373355 1_555
Na28 O211 2.388532 1_555
Na28 O208 2.412503 1_555
Na28 O145 2.542774 1_455
Na28 O151 2.631970 1_455
Na29 O147 2.335665 1_555
Na29 O144 2.367221 1_555
Na29 O39 2.369417 1_555
Na29 O212 2.478785 1_545
Na29 O215 2.607007 1_545
Na29 O104 2.895820 1_545
Na30 O210 2.335488 1_555
Na30 O102 2.345310 1_555
Na30 O213 2.358543 1_555
Na30 O148 2.486977 1_555
Na30 O145 2.620182 1_555
Na31 O41 2.361087 1_555
Na31 O103 2.391076 1_555
Na31 O146 2.432547 1_555
Na31 O149 2.441913 1_555
Na31 O211 2.490926 1_555
Na31 O214 2.500585 1_555
Na32 O86 2.348395 1_555
Na32 O197 2.355399 1_555
Na32 O194 2.407103 1_555
Na32 O131 2.575478 1_555
Na32 O128 2.695403 1_455
Na32 O23 2.818039 1_555
Na32 O65 2.901778 1_555
Na32 O44 2.993055 1_555
Na33 O196 2.431781 1_555
Na33 O133 2.507439 1_455
Na33 O190 2.544336 1_555
Na33 O131 2.634954 1_555
Na33 O67 2.648705 1_455
Na33 O88 2.683734 1_555
Na33 O37 2.929517 1_455
Na33 O25 2.941368 1_555
Na34 O81 2.422470 1_555
Na34 O189 2.445373 1_555
Na34 O132 2.510850 1_555
Na34 O127 2.519975 1_555
Na34 O192 2.528119 1_555
Na34 O70 2.686955 1_555
Na34 O18 2.810190 1_555
Na35 O191 2.369248 1_555
Na35 O83 2.380784 1_555
Na35 O194 2.385382 1_555
Na35 O126 2.541169 1_565
Na35 O134 2.662150 1_555
Na35 O20 2.857380 1_555
Na35 O69 2.857496 1_565
Na36 O55 2.416686 1_555
Na36 O186 2.492766 1_555
Na36 O183 2.544688 1_555
Na36 O142 2.556749 1_555
Na36 O135 2.578984 1_455
Na36 O78 2.581599 1_554
Na36 O33 2.945924 1_555
Na36 O49 2.948224 1_555
Na37 O80 2.353070 1_554
Na37 O188 2.409753 1_555
Na37 O185 2.431699 1_555
Na37 O141 2.617082 1_565
Na37 O137 2.709984 1_455
Na37 O54 2.851113 1_565
Na38 O27 2.494813 1_555
Na38 O180 2.524920 1_555
Na38 O135 2.525016 1_555
Na38 O139 2.542612 1_555
Na38 O51 2.570831 1_555
Na38 O186 2.682610 1_555
Na38 O57 2.864589 1_555
Na38 O72 2.904224 1_554
Na39 O136 2.356455 1_555
Na39 O140 2.404041 1_555
Na39 O28 2.411975 1_555
Na39 O181 2.558882 1_555
Na39 O187 2.588634 1_555
Na39 O52 2.964050 1_555
Na39 O73 2.985169 1_554
Na40 O74 2.275130 1_554
Na40 O182 2.338528 1_555
Na40 O188 2.371098 1_555
Na40 O137 2.525769 1_555
Na40 O138 2.635041 1_565
Na41 O143 2.423383 1_555
Na41 O182 2.453386 1_555
Na41 O77 2.463508 1_554
Na41 O185 2.468486 1_555
Na41 O32 2.474556 1_555
Na41 O140 2.537194 1_455
Na42 O58 2.358306 1_556
Na42 O163 2.368757 1_555
Na42 O166 2.390139 1_555
Na42 O121 2.553880 1_655
Na42 O124 2.653726 1_555
Na42 O13 2.875063 1_555
Na42 O79 2.895701 1_655
Na43 O167 2.474254 1_555
Na43 O125 2.493946 1_555
Na43 O122 2.533124 1_655
Na43 O59 2.559976 1_556
Na43 O80 2.635236 1_655
Na43 O164 2.696719 1_555
Na43 O14 2.800944 1_555
Na43 O101 2.875659 1_655
Na44 O61 2.245163 1_556
Na44 O169 2.421637 1_555
Na44 O166 2.427680 1_555
Na44 O123 2.524596 1_555
Na44 O118 2.623923 1_655
Na44 O72 2.844557 1_555
Na44 O16 2.925581 1_555
Na45 O162 2.480056 1_555
Na45 O117 2.484990 1_555
Na45 O122 2.485131 1_545
Na45 O168 2.546259 1_555
Na45 O9 2.649007 1_555
Na45 O105 2.660545 1_555
Na45 O54 2.905008 1_556
Na45 O75 2.959641 1_555
Na46 O164 2.487437 1_555
Na46 O170 2.494054 1_555
Na46 O119 2.519609 1_555
Na46 O56 2.635860 1_556
Na46 O77 2.672229 1_555
Na46 O121 2.692817 1_555
Na46 O11 2.970448 1_555
Na46 O107 2.978086 1_555
Na47 O113 2.317915 1_545
Na47 O6 2.350680 1_655
Na47 O114 2.364640 1_655
Na47 O177 2.543759 1_555
Na47 O171 2.755659 1_555
Na47 O90 2.938109 1_655
Na47 O69 3.009791 1_555
Na48 O70 2.346523 1_555
Na48 O178 2.397806 1_555
Na48 O172 2.405683 1_555
Na48 O115 2.582414 1_655
Na48 O111 2.587499 1_555
Na48 O7 2.741647 1_555
Na49 O179 2.422946 1_555
Na49 O116 2.500112 1_655
Na49 O173 2.583023 1_555
Na49 O71 2.605341 1_555
Na49 O86 2.634786 1_655
Na49 O112 2.738688 1_555
Na49 O92 2.929183 1_655
Na49 O8 3.038621 1_555
Na50 O114 2.396597 1_555
Na50 O110 2.409249 1_545
Na50 O0 2.483860 1_555
Na50 O171 2.488735 1_555
Na50 O174 2.638836 1_555
Na50 O89 2.822560 1_545
Na50 O63 2.861224 1_555
Na50 O95 2.973208 1_545
Na51 O64 2.257217 1_555
Na51 O172 2.371482 1_555
Na51 O175 2.444888 1_555
Na51 O108 2.570299 1_555
Na51 O115 2.626347 1_555
Na51 O87 2.863386 1_555
Na51 O1 2.958004 1_555
Na52 O67 2.345072 1_555
Na52 O175 2.361875 1_555
Na52 O178 2.365183 1_555
Na52 O112 2.567010 1_555
Na52 O109 2.577076 1_655
Na52 O82 2.918286 1_555
Na52 O4 3.036092 1_555
Na53 O5 2.286743 1_555
Na53 O110 2.336640 1_655
Na53 O113 2.436234 1_555
Na53 O176 2.577852 1_555
Na53 O179 2.688458 1_555
Na53 O98 2.895904 1_555
Na53 O68 2.978434 1_555
O0 P0 1.526100 1_555
O0 Zn0 2.048650 1_445
O1 Si0 1.653839 1_555
O1 Ta0 2.023238 1_455
O2 Si1 1.697919 1_555
O2 Ta1 1.884631 1_555
O3 Si2 1.669981 1_555
O3 Ta0 1.883423 1_555
O4 P1 1.588098 1_555
O4 Ta1 2.047730 1_655
O5 Si3 1.582238 1_555
O5 Zn0 1.995001 1_555
O6 P2 1.518415 1_555
O6 Zn0 2.050391 1_445
O7 Si4 1.661187 1_555
O7 Ta0 1.959510 1_555
O8 Si5 1.673910 1_555
O8 Ta1 1.947059 1_655
O9 P3 1.569399 1_555
O9 Ta2 2.023060 1_455
O10 Si6 1.659950 1_555
O10 Ta3 1.928254 1_555
O11 Si7 1.665177 1_555
O11 Ta4 1.925230 1_455
O12 P4 1.587912 1_555
O12 Ta3 1.947806 1_655
O13 Si8 1.655907 1_655
O13 Ta4 1.982761 1_555
O14 Si9 1.671041 1_555
O14 Ta2 1.946514 1_565
O15 Si10 1.654312 1_555
O15 Ta2 1.911308 1_555
O16 Si11 1.672252 1_555
O16 Ta3 1.965961 1_655
O17 P5 1.573191 1_555
O17 Ta4 1.967027 1_555
O18 Si11 1.637544 1_555
O18 Ta6 1.985246 1_655
O19 P5 1.573286 1_555
O19 Ta7 1.947898 1_655
O20 Si10 1.665558 1_565
O20 Ta5 1.978482 1_655
O21 P3 1.581239 1_555
O21 Ta5 1.972117 1_545
O22 Si6 1.641046 1_555
O22 Ta6 1.939978 1_555
O23 Si7 1.663200 1_555
O23 Ta7 1.952743 1_555
O24 P4 1.558251 1_555
O24 Ta6 1.984897 1_655
O25 Si8 1.660324 1_555
O25 Ta7 1.945478 1_555
O26 Si9 1.663330 1_455
O26 Ta5 1.931011 1_555
O27 Si2 1.640089 1_555
O27 Ta9 1.976940 1_555
O28 P1 1.520378 1_555
O28 Zn1 2.128723 1_655
O29 Si3 1.666278 1_555
O29 Ta8 1.922003 1_565
O30 P2 1.591414 1_555
O30 Ta8 1.973598 1_455
O31 Si4 1.647903 1_555
O31 Ta9 1.906744 1_555
O32 Si5 1.595040 1_455
O32 Zn1 2.040202 1_555
O33 Si0 1.641487 1_555
O33 Ta9 1.997464 1_455
O34 Si1 1.586716 1_555
O34 Zn1 1.939287 1_555
O35 P0 1.604022 1_565
O35 Ta8 1.999743 1_465
O36 Si12 1.596255 1_555
O36 Zn2 1.973226 1_555
O37 Si13 1.671854 1_555
O37 Ta10 1.972353 1_555
O38 P6 1.490577 1_555
O38 Zn3 2.027470 1_555
O39 P7 1.529131 1_555
O39 Zn2 2.057521 1_555
O40 Si14 1.677466 1_555
O40 Ta10 1.935124 1_555
O41 Si15 1.581710 1_555
O41 Zn3 2.066871 1_555
O42 Si16 1.588688 1_555
O42 Zn2 1.970337 1_555
O43 Si17 1.659609 1_555
O43 Ta10 1.968033 1_555
O44 P8 1.515295 1_555
O44 Zn3 2.121373 1_555
O45 Si18 1.592588 1_555
O45 Zn4 2.018849 1_555
O46 P9 1.598900 1_555
O46 Ta11 2.024795 1_555
O47 Si19 1.659267 1_555
O47 Ta12 1.924345 1_555
O48 P10 1.504536 1_555
O48 Zn4 1.995355 1_555
O49 Si20 1.681897 1_555
O49 Ta11 1.897774 1_555
O50 Si21 1.654317 1_555
O50 Ta12 1.983914 1_555
O51 Si22 1.608894 1_555
O51 Zn4 2.060277 1_555
O52 Si23 1.676999 1_555
O52 Ta11 1.978277 1_555
O53 P11 1.568954 1_555
O53 Ta12 1.992884 1_555
O54 Si22 1.648222 1_555
O54 Ta13 2.032204 1_554
O55 Si23 1.592244 1_555
O55 Zn5 1.949112 1_554
O56 P11 1.574912 1_555
O56 Ta14 2.025572 1_554
O57 Si18 1.646347 1_555
O57 Ta13 1.934985 1_554
O58 P9 1.527099 1_555
O58 Zn5 2.047181 1_554
O59 Si19 1.654921 1_555
O59 Ta14 2.010728 1_554
O60 P10 1.569931 1_555
O60 Ta13 2.018919 1_554
O61 Si20 1.584320 1_555
O61 Zn5 1.992438 1_554
O62 Si21 1.658906 1_555
O62 Ta14 1.912076 1_554
O63 P7 1.591498 1_555
O63 Ta15 2.034702 1_555
O64 Si14 1.596440 1_555
O64 Zn6 1.969402 1_555
O65 Si15 1.663313 1_555
O65 Ta16 1.930284 1_555
O66 Si16 1.673788 1_555
O66 Ta15 1.875225 1_555
O67 Si17 1.607735 1_555
O67 Zn6 2.009724 1_555
O68 P8 1.582958 1_555
O68 Ta16 2.019883 1_555
O69 Si12 1.672733 1_555
O69 Ta15 1.965676 1_555
O70 Si13 1.603018 1_555
O70 Zn6 1.992147 1_555
O71 P6 1.587043 1_555
O71 Ta16 2.006125 1_555
O72 Si24 1.666070 1_555
O72 Ta17 1.971828 1_556
O73 P12 1.576984 1_555
O73 Ta18 2.013767 1_556
O74 Si25 1.594999 1_555
O74 Zn7 1.992541 1_556
O75 Si26 1.666354 1_555
O75 Ta17 1.902919 1_556
O76 P13 1.575124 1_555
O76 Ta18 2.021584 1_556
O77 Si27 1.607823 1_555
O77 Zn7 2.005950 1_556
O78 P14 1.576735 1_555
O78 Ta17 2.046175 1_556
O79 Si28 1.662712 1_555
O79 Ta18 1.928394 1_556
O80 Si29 1.610113 1_555
O80 Zn7 1.983746 1_556
O81 Si30 1.624602 1_555
O81 Ta19 2.026090 1_555
O82 Si31 1.657341 1_555
O82 Ta20 1.931193 1_555
O83 P15 1.523545 1_555
O83 Zn8 2.085959 1_555
O84 Si32 1.638734 1_555
O84 Ta19 1.924285 1_555
O85 P16 1.574383 1_555
O85 Ta20 2.027035 1_555
O86 Si33 1.598527 1_555
O86 Zn8 2.048972 1_555
O87 Si34 1.628940 1_555
O87 Ta19 1.998801 1_555
O88 P17 1.567277 1_555
O88 Ta20 2.105272 1_555
O89 Si35 1.587259 1_555
O89 Zn8 1.910683 1_555
O90 Si34 1.661083 1_555
O90 Ta21 2.009373 1_555
O91 P17 1.522263 1_555
O91 Zn9 2.031520 1_555
O92 Si35 1.684652 1_555
O92 Ta22 1.925261 1_555
O93 Si30 1.675697 1_555
O93 Ta21 1.883560 1_555
O94 Si31 1.584546 1_555
O94 Zn9 2.000936 1_555
O95 P15 1.584585 1_555
O95 Ta22 2.025892 1_555
O96 Si32 1.671745 1_555
O96 Ta21 1.939470 1_555
O97 P16 1.523131 1_555
O97 Zn9 2.076278 1_555
O98 Si33 1.655282 1_555
O98 Ta22 1.995181 1_555
O99 Si26 1.592830 1_555
O99 Zn10 2.006895 1_555
O100 P13 1.522079 1_555
O100 Zn11 2.057290 1_555
O101 Si27 1.662507 1_555
O101 Ta23 1.964741 1_555
O102 P14 1.528364 1_555
O102 Zn10 2.082831 1_555
O103 Si28 1.588707 1_555
O103 Zn11 1.998861 1_555
O104 Si29 1.652974 1_555
O104 Ta23 1.979463 1_555
O105 Si24 1.608374 1_555
O105 Zn10 2.025794 1_555
O106 P12 1.519241 1_555
O106 Zn11 2.079983 1_555
O107 Si25 1.648892 1_555
O107 Ta23 1.975266 1_555
O108 Si34 1.650102 1_555
O108 Ta0 2.040173 1_455
O109 P17 1.587781 1_555
O109 Ta1 2.082418 1_555
O110 Si35 1.607593 1_555
O110 Zn0 2.042704 1_455
O111 Si30 1.666235 1_555
O111 Ta0 1.984661 1_555
O112 Si31 1.674308 1_555
O112 Ta1 2.103693 1_655
O113 P15 1.526556 1_555
O113 Zn0 2.308115 1_555
O114 Si32 1.600713 1_555
O114 Zn0 2.363644 1_445
O115 P16 1.588192 1_555
O115 Ta0 2.147563 1_455
O116 Si33 1.664756 1_555
O116 Ta1 1.961511 1_555
O117 Si26 1.663260 1_555
O117 Ta2 2.042733 1_455
O118 P13 1.589102 1_555
O118 Ta3 2.060688 1_555
O119 Si27 1.647460 1_555
O119 Ta4 1.970917 1_455
O120 P14 1.580177 1_555
O120 Ta3 2.049048 1_555
O121 Si28 1.683685 1_555
O121 Ta4 2.036498 1_455
O122 Si29 1.668648 1_555
O122 Ta2 2.019289 1_465
O123 Si24 1.654620 1_555
O123 Ta3 2.019450 1_655
O124 P12 1.597214 1_555
O124 Ta4 2.072651 1_555
O125 Si25 1.661982 1_555
O125 Ta2 1.981297 1_565
O126 Si12 1.671998 1_555
O126 Ta5 2.009631 1_645
O127 Si13 1.639559 1_555
O127 Ta6 1.982978 1_655
O128 P6 1.608709 1_555
O128 Ta7 2.050409 1_655
O129 P7 1.579247 1_555
O129 Ta5 2.042004 1_545
O130 Si14 1.638410 1_555
O130 Ta6 1.952921 1_555
O131 Si15 1.688232 1_555
O131 Ta7 2.062741 1_555
O132 Si16 1.660326 1_555
O132 Ta6 2.030364 1_655
O133 Si17 1.662352 1_555
O133 Ta7 2.010660 1_655
O134 P8 1.585469 1_555
O134 Ta5 2.047171 1_655
O135 Si18 1.672752 1_555
O135 Ta9 2.080817 1_555
O136 P9 1.518713 1_555
O136 Zn1 2.313600 1_655
O137 Si19 1.673484 1_555
O137 Ta8 2.030597 1_565
O138 P10 1.600993 1_555
O138 Ta8 2.059688 1_555
O139 Si20 1.640055 1_555
O139 Ta9 1.984157 1_555
O140 Si21 1.610883 1_555
O140 Zn1 2.213695 1_655
O141 Si22 1.656965 1_555
O141 Ta8 2.023370 1_455
O142 Si23 1.649977 1_555
O142 Ta9 1.978927 1_455
O143 P11 1.518864 1_555
O143 Zn1 2.262722 1_555
O144 Si10 1.607312 1_555
O144 Zn2 2.221784 1_555
O145 Si11 1.668423 1_555
O145 Ta10 2.044827 1_555
O146 P5 1.498544 1_555
O146 Zn3 2.207256 1_555
O147 P3 1.522199 1_555
O147 Zn2 2.484125 1_555
O148 Si6 1.659642 1_555
O148 Ta10 2.055001 1_555
O149 Si7 1.602457 1_555
O149 Zn3 2.238556 1_555
O150 P4 1.520904 1_555
O150 Zn2 2.389596 1_555
O151 Si8 1.661621 1_655
O151 Ta10 2.045128 1_555
O152 Si9 1.588292 1_555
O152 Zn3 2.172300 1_555
O153 Si2 1.604435 1_555
O153 Zn4 2.238162 1_555
O154 P1 1.589334 1_555
O154 Ta11 2.144797 1_555
O155 Si3 1.666901 1_555
O155 Ta12 2.002350 1_555
O156 P2 1.514800 1_655
O156 Zn4 2.331513 1_555
O157 Si4 1.655501 1_555
O157 Ta11 1.986024 1_555
O158 Si5 1.652904 1_555
O158 Ta12 2.012518 1_555
O159 P0 1.519514 1_555
O159 Zn4 2.259387 1_555
O160 Si0 1.651923 1_555
O160 Ta11 2.025630 1_555
O161 Si1 1.669481 1_555
O161 Ta12 2.033565 1_555
O162 Si24 1.647687 1_555
O162 Ta13 1.983184 1_555
O163 P12 1.531517 1_555
O163 Zn5 2.251427 1_555
O164 Si25 1.668664 1_555
O164 Ta14 2.034373 1_555
O165 Si26 1.636674 1_655
O165 Ta13 1.948630 1_555
O166 P13 1.532087 1_655
O166 Zn5 2.452024 1_555
O167 Si27 1.655156 1_655
O167 Ta14 1.994082 1_555
O168 Si29 1.640694 1_545
O168 Ta13 2.024527 1_555
O169 P14 1.528113 1_555
O169 Zn5 2.215594 1_555
O170 Si28 1.657005 1_555
O170 Ta14 1.987940 1_555
O171 P15 1.583083 1_545
O171 Ta15 2.163863 1_555
O172 Si30 1.608401 1_555
O172 Zn6 2.348000 1_555
O173 Si31 1.655703 1_555
O173 Ta16 1.971329 1_555
O174 Si32 1.652643 1_555
O174 Ta15 1.992455 1_555
O175 P16 1.533479 1_555
O175 Zn6 2.383390 1_555
O176 Si33 1.653919 1_555
O176 Ta16 2.027940 1_555
O177 Si34 1.648041 1_655
O177 Ta15 2.023840 1_555
O178 P17 1.538251 1_655
O178 Zn6 2.368789 1_555
O179 Si35 1.680866 1_655
O179 Ta16 2.025504 1_555
O180 Si22 1.665400 1_555
O180 Ta17 1.964768 1_555
O181 Si23 1.644155 1_555
O181 Ta18 2.012820 1_555
O182 P11 1.535637 1_555
O182 Zn7 2.536827 1_555
O183 Si18 1.648775 1_455
O183 Ta17 1.982585 1_555
O184 P9 1.584718 1_455
O184 Ta18 2.040045 1_555
O185 Si19 1.604409 1_455
O185 Zn7 2.271759 1_555
O186 Si20 1.660740 1_555
O186 Ta17 2.097238 1_555
O187 Si21 1.668227 1_555
O187 Ta18 1.984724 1_555
O188 P10 1.539041 1_565
O188 Zn7 2.388007 1_555
O189 Si14 1.647425 1_555
O189 Ta19 2.042345 1_555
O190 Si15 1.665840 1_555
O190 Ta20 1.959040 1_555
O191 P7 1.525930 1_565
O191 Zn8 2.265494 1_555
O192 Si16 1.647389 1_555
O192 Ta19 1.983160 1_555
O193 Si17 1.654631 1_555
O193 Ta20 1.950068 1_555
O194 P8 1.538629 1_555
O194 Zn8 2.325403 1_555
O195 Si12 1.639638 1_455
O195 Ta19 1.950696 1_555
O196 Si13 1.643691 1_455
O196 Ta20 2.012232 1_555
O197 P6 1.534715 1_455
O197 Zn8 2.196174 1_555
O198 Si0 1.639781 1_555
O198 Ta21 2.060411 1_555
O199 Si1 1.610616 1_555
O199 Zn9 2.044934 1_555
O200 P0 1.569987 1_565
O200 Ta22 2.048983 1_555
O201 Si2 1.654588 1_555
O201 Ta21 2.006902 1_555
O202 P1 1.526932 1_555
O202 Zn9 2.285392 1_555
O203 Si3 1.662454 1_555
O203 Ta22 2.038487 1_555
O204 P2 1.602452 1_555
O204 Ta21 2.152477 1_555
O205 Si4 1.599432 1_455
O205 Zn9 2.361668 1_555
O206 Si5 1.645853 1_455
O206 Ta22 1.961818 1_555
O207 P3 1.528803 1_555
O207 Zn10 2.328429 1_555
O208 Si6 1.601007 1_555
O208 Zn11 2.244621 1_555
O209 Si7 1.652677 1_555
O209 Ta23 2.000585 1_555
O210 P4 1.524876 1_455
O210 Zn10 2.412067 1_555
O211 Si8 1.603673 1_555
O211 Zn11 2.213858 1_555
O212 Si9 1.656291 1_455
O212 Ta23 2.025509 1_555
O213 Si11 1.610862 1_555
O213 Zn10 2.188430 1_555
O214 P5 1.538812 1_555
O214 Zn11 2.307972 1_555
O215 Si10 1.656184 1_565
O215 Ta23 2.060119 1_555
