# generated using pymatgen
data_MgMn6(O5F)2
_symmetry_space_group_name_H-M   'P 1'
_cell_length_a   8.00718665
_cell_length_b   5.69907981
_cell_length_c   5.89342630
_cell_angle_alpha   69.78036055
_cell_angle_beta   64.76640208
_cell_angle_gamma   66.46594911
_symmetry_Int_Tables_number   1
_chemical_formula_structural   MgMn6(O5F)2
_chemical_formula_sum   'Mg1 Mn6 O10 F2'
_cell_volume   217.99530383
_cell_formula_units_Z   1
loop_
 _symmetry_equiv_pos_site_id
 _symmetry_equiv_pos_as_xyz
  1  'x, y, z'
loop_
 _atom_site_type_symbol
 _atom_site_label
 _atom_site_symmetry_multiplicity
 _atom_site_fract_x
 _atom_site_fract_y
 _atom_site_fract_z
 _atom_site_occupancy
  Mg  Mg0  1  0.49791059  0.00041806  0.51374620  1
  Mn  Mn0  1  0.88798952  0.65421821  0.68696138  1
  Mn  Mn1  1  0.66719492  0.39266748  0.29974807  1
  Mn  Mn2  1  0.32223389  0.62906084  0.67383408  1
  Mn  Mn3  1  0.12279316  0.32006846  0.32372901  1
  Mn  Mn4  1  0.51012154  0.02399028  0.02707478  1
  Mn  Mn5  1  0.98251722  -0.00099961  0.01482549  1
  O  O0  1  0.32456829  0.35852142  0.98239513  1
  O  O1  1  0.59511251  0.59828215  0.53994084  1
  O  O2  1  0.93938474  0.24609513  0.20785764  1
  O  O3  1  0.68456527  0.11597366  0.15443466  1
  O  O4  1  0.04701055  0.75840907  0.79945291  1
  O  O5  1  0.39389625  0.40678022  0.45835815  1
  O  O6  1  0.32053074  0.96979481  0.36887330  1
  O  O7  1  0.66902323  0.66408758  0.01393888  1
  O  O8  1  0.98759531  0.28914684  0.69064024  1
  O  O9  1  0.00002129  0.69057801  0.32205838  1
  F  F0  1  0.67363149  0.04361364  0.64729334  1
  F  F1  1  0.30908649  0.89881476  0.85817352  1
loop_
_geom_bond_atom_site_label_1
_geom_bond_atom_site_label_2
_geom_bond_distance
_geom_bond_site_symmetry_2
Mg0 O6 2.027711 1_545
Mg0 O3 2.067658 1_555
Mg0 O1 2.077350 1_545
Mg0 O5 2.081460 1_555
Mn0 O8 1.903615 1_555
Mn0 O9 1.915204 1_655
Mn0 O7 1.976386 1_556
Mn0 O4 2.002269 1_655
Mn1 O7 1.850991 1_555
Mn1 O2 1.895686 1_555
Mn1 O1 1.902620 1_555
Mn1 O5 1.958683 1_555
Mn1 O3 1.973865 1_555
Mn2 O5 1.859264 1_555
Mn2 O4 1.907072 1_555
Mn2 O1 1.935761 1_555
Mn2 O0 1.937094 1_555
Mn2 O6 2.142076 1_555
Mn3 O9 1.939428 1_555
Mn3 O8 1.942129 1_455
Mn3 O0 1.977860 1_554
Mn3 O6 2.007639 1_545
Mn3 O2 2.085495 1_455
Mn4 O0 1.906851 1_554
Mn4 O7 1.942580 1_545
Mn4 O6 1.948008 1_545
Mn4 O3 2.130701 1_555
Mn5 O2 1.944353 1_555
Mn5 O4 1.958698 1_644
Mn5 O8 2.046912 1_554
Mn5 O9 2.051191 1_645
Mn5 O3 2.061212 1_555
F0 Mg0 2.003626 1_555
F0 Mn4 2.044909 1_556
F0 Mn0 2.206169 1_545
F0 Mn1 2.312321 1_555
F1 Mg0 2.002889 1_565
F1 Mn2 2.117190 1_555
F1 Mn5 2.264901 1_466
F1 Mn4 2.620127 1_566
