# generated using pymatgen
data_MgTe2Mo3W(Se2S)2
_symmetry_space_group_name_H-M   'P 1'
_cell_length_a   3.34393200
_cell_length_b   3.34403467
_cell_length_c   44.14144249
_cell_angle_alpha   89.96511058
_cell_angle_beta   90.00000000
_cell_angle_gamma   119.99896455
_symmetry_Int_Tables_number   1
_chemical_formula_structural   MgTe2Mo3W(Se2S)2
_chemical_formula_sum   'Mg1 Te2 Mo3 W1 Se4 S2'
_cell_volume   427.47407992
_cell_formula_units_Z   1
loop_
 _symmetry_equiv_pos_site_id
 _symmetry_equiv_pos_as_xyz
  1  'x, y, z'
loop_
 _atom_site_type_symbol
 _atom_site_label
 _atom_site_symmetry_multiplicity
 _atom_site_fract_x
 _atom_site_fract_y
 _atom_site_fract_z
 _atom_site_occupancy
  Mg  Mg0  1  0.99975700  0.99951500  0.38454700  1
  Te  Te0  1  0.66673500  0.33346700  0.05031300  1
  Te  Te1  1  0.66629000  0.33257900  0.13624000  1
  Mo  Mo0  1  0.33315900  0.66631900  0.09326600  1
  Mo  Mo1  1  0.33333500  0.66667000  0.47489300  1
  Mo  Mo2  1  0.66669700  0.33339400  0.27610000  1
  W  W0  1  0.66686300  0.33372600  0.65747300  1
  Se  Se0  1  0.33315600  0.66631300  0.31415500  1
  Se  Se1  1  0.33330400  0.66660900  0.69538900  1
  Se  Se2  1  0.33355400  0.66711000  0.23841900  1
  Se  Se3  1  0.33373300  0.66746700  0.61953400  1
  S  S0  1  0.66686600  0.33373100  0.43973500  1
  S  S1  1  0.66655200  0.33310100  0.50889200  1
loop_
_geom_bond_atom_site_label_1
_geom_bond_atom_site_label_2
_geom_bond_distance
_geom_bond_site_symmetry_2
Mg0 S0 3.105738 1_555
Mg0 S0 3.109677 1_565
Mg0 S0 3.109681 1_665
Mo0 Te0 2.705933 1_455
Mo0 Te0 2.705941 1_555
Mo0 Te0 2.706045 1_565
Mo0 Te1 2.706551 1_455
Mo0 Te1 2.706555 1_555
Mo0 Te1 2.706762 1_565
Mo1 S1 2.445185 1_455
Mo1 S1 2.445191 1_555
Mo1 S1 2.445677 1_565
Mo1 S0 2.477042 1_455
Mo1 S0 2.477044 1_555
Mo1 S0 2.477149 1_565
Mo2 Se2 2.548291 1_655
Mo2 Se2 2.548295 1_555
Mo2 Se2 2.548408 1_545
Mo2 Se0 2.559114 1_655
Mo2 Se0 2.559116 1_555
Mo2 Se0 2.559181 1_545
Se1 W0 2.555050 1_455
Se1 W0 2.555052 1_555
Se1 W0 2.555240 1_565
Se3 W0 2.555764 1_455
Se3 W0 2.555766 1_555
Se3 W0 2.555807 1_565
