# generated using pymatgen
data_Na6Hf8Si7S5O48
_symmetry_space_group_name_H-M   'P 1'
_cell_length_a   18.04128831
_cell_length_b   8.98415553
_cell_length_c   23.26156265
_cell_angle_alpha   89.90783376
_cell_angle_beta   90.10780005
_cell_angle_gamma   119.88548926
_symmetry_Int_Tables_number   1
_chemical_formula_structural   Na6Hf8Si7S5O48
_chemical_formula_sum   'Na18 Hf24 Si21 S15 O144'
_cell_volume   3268.98854251
_cell_formula_units_Z   3
loop_
 _symmetry_equiv_pos_site_id
 _symmetry_equiv_pos_as_xyz
  1  'x, y, z'
loop_
 _atom_site_type_symbol
 _atom_site_label
 _atom_site_symmetry_multiplicity
 _atom_site_fract_x
 _atom_site_fract_y
 _atom_site_fract_z
 _atom_site_occupancy
  Na  Na0  1  0.00055727  0.63317401  0.25198127  1
  Na  Na1  1  0.49791747  0.64612415  0.24663384  1
  Na  Na2  1  0.99930998  0.35004818  0.75250164  1
  Na  Na3  1  0.50034469  0.36927113  0.75366342  1
  Na  Na4  1  0.66519435  0.31228940  0.91769214  1
  Na  Na5  1  0.16596173  0.02100169  0.41498477  1
  Na  Na6  1  0.99934826  0.98667765  0.50266841  1
  Na  Na7  1  0.49483992  0.99041902  0.49480309  1
  Na  Na8  1  0.99507326  0.99916533  0.99647211  1
  Na  Na9  1  0.49836460  0.00360721  0.00641906  1
  Na  Na10  1  0.33448973  0.33604379  0.83239855  1
  Na  Na11  1  0.83315163  0.33171057  0.83541810  1
  Na  Na12  1  0.33263623  0.33500189  0.33009424  1
  Na  Na13  1  0.83378851  0.33049708  0.32830985  1
  Na  Na14  1  0.17470087  0.67470583  0.17101432  1
  Na  Na15  1  0.66864029  0.66576065  0.16235696  1
  Na  Na16  1  0.17472756  0.68020763  0.66689451  1
  Na  Na17  1  0.67270628  0.67336040  0.67270004  1
  Hf  Hf0  1  0.99913672  0.99423770  0.34739578  1
  Hf  Hf1  1  0.49624160  0.97889101  0.35292531  1
  Hf  Hf2  1  0.99647410  0.01438741  0.85511625  1
  Hf  Hf3  1  0.49865793  0.00246230  0.84890867  1
  Hf  Hf4  1  0.99951124  0.00063367  0.64579780  1
  Hf  Hf5  1  0.49768295  0.99463639  0.65338028  1
  Hf  Hf6  1  0.99863378  0.00223563  0.15310331  1
  Hf  Hf7  1  0.49796032  0.98668002  0.14182000  1
  Hf  Hf8  1  0.32559178  0.32404578  0.69123969  1
  Hf  Hf9  1  0.82518039  0.33176416  0.68820713  1
  Hf  Hf10  1  0.33178676  0.32833545  0.18462952  1
  Hf  Hf11  1  0.82539928  0.32572216  0.19063576  1
  Hf  Hf12  1  0.34354315  0.33524219  0.98256686  1
  Hf  Hf13  1  0.83332667  0.33826287  0.97917461  1
  Hf  Hf14  1  0.33374445  0.32898350  0.47846190  1
  Hf  Hf15  1  0.83880470  0.35280614  0.48003224  1
  Hf  Hf16  1  0.16664845  0.66665914  0.02046335  1
  Hf  Hf17  1  0.66383059  0.64643103  0.02096573  1
  Hf  Hf18  1  0.17004086  0.68844977  0.51786719  1
  Hf  Hf19  1  0.66598908  0.66650827  0.51976759  1
  Hf  Hf20  1  0.16848558  0.67598519  0.31001440  1
  Hf  Hf21  1  0.66564338  0.67240281  0.31105366  1
  Hf  Hf22  1  0.16775924  0.66062217  0.81341831  1
  Hf  Hf23  1  0.66835493  0.66205217  0.81202799  1
  Si  Si0  1  0.14825909  0.00710623  0.24982453  1
  Si  Si1  1  0.64274340  0.00348740  0.25072007  1
  Si  Si2  1  0.35338033  0.70700539  0.24818957  1
  Si  Si3  1  0.85197330  0.70778506  0.24940823  1
  Si  Si4  1  0.00017538  0.29218847  0.25078980  1
  Si  Si5  1  0.14270810  0.28441256  0.75064000  1
  Si  Si6  1  0.64512414  0.28920436  0.75049081  1
  Si  Si7  1  0.50058424  0.70818072  0.75082259  1
  Si  Si8  1  0.35183789  0.99520104  0.74978759  1
  Si  Si9  1  0.85391307  -0.00156930  0.74819359  1
  Si  Si10  1  0.18780154  0.04495263  0.58315246  1
  Si  Si11  1  0.83293325  0.62888512  0.58407831  1
  Si  Si12  1  0.48105293  0.62356643  0.08421799  1
  Si  Si13  1  0.33230810  0.03866993  0.08422314  1
  Si  Si14  1  0.68829571  0.33083416  0.08334274  1
  Si  Si15  1  0.81345850  0.67236220  0.91734028  1
  Si  Si16  1  0.02139368  0.37928031  0.91724484  1
  Si  Si17  1  0.51912411  0.37246620  0.91463667  1
  Si  Si18  1  0.31531868  0.95841682  0.41562404  1
  Si  Si19  1  0.02042947  0.66756847  0.41496535  1
  Si  Si20  1  0.52161609  0.66596491  0.41696194  1
  S  S0  1  0.50009045  0.28776362  0.25082152  1
  S  S1  1  0.00037607  0.71141996  0.75014009  1
  S  S2  1  0.47893215  0.33251970  0.58305164  1
  S  S3  1  0.97873858  0.33444164  0.58331678  1
  S  S4  1  0.68754428  0.04326457  0.58206573  1
  S  S5  1  0.33364604  0.62388299  0.58289710  1
  S  S6  1  0.97895812  0.62538522  0.08311376  1
  S  S7  1  0.83458330  0.04427933  0.08294268  1
  S  S8  1  0.18706282  0.33088870  0.08182724  1
  S  S9  1  0.31131292  0.66529564  0.91749569  1
  S  S10  1  0.16670939  0.95696644  0.91655966  1
  S  S11  1  0.66609193  0.95453285  0.91736817  1
  S  S12  1  0.81133028  0.95660491  0.41763165  1
  S  S13  1  0.16570323  0.37729119  0.41813345  1
  S  S14  1  0.66673448  0.37699770  0.41712279  1
  O  O0  1  0.10355790  0.03087170  0.30850662  1
  O  O1  1  0.60144822  0.03473721  0.30827651  1
  O  O2  1  0.41530146  0.79267295  0.30557855  1
  O  O3  1  0.91422494  0.79354556  0.30569463  1
  O  O4  1  0.48785026  0.18614019  0.30300550  1
  O  O5  1  0.98360052  0.17083984  0.30721118  1
  O  O6  1  0.09988997  0.16627528  0.80691470  1
  O  O7  1  0.60337358  0.17476247  0.80832031  1
  O  O8  1  0.48364739  0.79649303  0.80661587  1
  O  O9  1  0.98579610  0.78509036  0.80164130  1
  O  O10  1  0.41449141  0.03404779  0.80534486  1
  O  O11  1  0.91655240  0.04013791  0.80457474  1
  O  O12  1  0.39674518  0.96641698  0.69290523  1
  O  O13  1  0.90046761  0.97097362  0.69264979  1
  O  O14  1  0.08197858  0.20338729  0.69419245  1
  O  O15  1  0.58414064  0.19982350  0.69397382  1
  O  O16  1  0.01398244  0.81516773  0.69788295  1
  O  O17  1  0.51503145  0.82825090  0.69347494  1
  O  O18  1  0.39953016  0.83078547  0.19385153  1
  O  O19  1  0.89731219  0.82773614  0.19304254  1
  O  O20  1  0.01499839  0.20178431  0.19395028  1
  O  O21  1  0.51461343  0.21477719  0.19875560  1
  O  O22  1  0.08368309  0.96827084  0.19465461  1
  O  O23  1  0.58205566  0.96115490  0.19514967  1
  O  O24  1  0.44278506  0.36264939  0.63533214  1
  O  O25  1  0.93928064  0.35983916  0.63546752  1
  O  O26  1  0.25036793  0.13871365  0.63782396  1
  O  O27  1  0.74065979  0.12093702  0.63447623  1
  O  O28  1  0.32316297  0.52101270  0.63483453  1
  O  O29  1  0.81932205  0.50259770  0.63853534  1
  O  O30  1  0.43574717  0.50709528  0.14179762  1
  O  O31  1  0.94285982  0.52291915  0.13553161  1
  O  O32  1  0.31456505  0.12821317  0.13935688  1
  O  O33  1  0.82456934  0.12764611  0.13486465  1
  O  O34  1  0.23931236  0.35979103  0.13421012  1
  O  O35  1  0.75148496  0.36120671  0.13779901  1
  O  O36  1  0.22713039  0.30759936  0.03011068  1
  O  O37  1  0.73386078  0.30542621  0.02527399  1
  O  O38  1  0.41836659  0.53091998  0.02808911  1
  O  O39  1  0.92541376  0.54035214  0.03170882  1
  O  O40  1  0.34297653  0.15547048  0.02696931  1
  O  O41  1  0.84813292  0.15255564  0.03128593  1
  O  O42  1  0.23284960  0.15960737  0.52510777  1
  O  O43  1  0.73003575  0.14856434  0.53078097  1
  O  O44  1  0.34687310  0.54374988  0.53126767  1
  O  O45  1  0.84475439  0.52970194  0.52769700  1
  O  O46  1  0.42530408  0.31047759  0.53174498  1
  O  O47  1  0.92318492  0.30803172  0.53187331  1
  O  O48  1  0.27011333  0.69230244  0.96869192  1
  O  O49  1  0.76862118  0.70171133  0.97319140  1
  O  O50  1  0.08343451  0.47691756  0.97211824  1
  O  O51  1  0.58136909  0.46312123  0.97036352  1
  O  O52  1  0.15593246  0.84900040  0.96829634  1
  O  O53  1  0.65434089  0.85279242  0.96911236  1
  O  O54  1  0.26968194  0.83976149  0.47309160  1
  O  O55  1  0.76986717  0.84726889  0.46932505  1
  O  O56  1  0.15423853  0.45706906  0.47012804  1
  O  O57  1  0.65712217  0.46356005  0.46911445  1
  O  O58  1  0.08114380  0.69490828  0.47165151  1
  O  O59  1  0.58324590  0.69057575  0.47272228  1
  O  O60  1  0.06254609  0.63654208  0.35813809  1
  O  O61  1  0.56635969  0.63577998  0.36032827  1
  O  O62  1  0.24990389  0.87012608  0.36213941  1
  O  O63  1  0.75841503  0.87536231  0.36589387  1
  O  O64  1  0.17969170  0.48112337  0.36607021  1
  O  O65  1  0.68314890  0.48528382  0.36597548  1
  O  O66  1  0.06540703  0.49512820  0.85900593  1
  O  O67  1  0.56304239  0.48776170  0.85714966  1
  O  O68  1  0.18079272  0.87574700  0.86513905  1
  O  O69  1  0.67993247  0.87932074  0.86514701  1
  O  O70  1  0.25826119  0.64419456  0.86525212  1
  O  O71  1  0.75098581  0.63133081  0.86140720  1
  O  O72  1  0.01412303  0.84426161  0.41232089  1
  O  O73  1  0.51518485  0.84064167  0.41270010  1
  O  O74  1  0.41139825  0.99049053  0.40999157  1
  O  O75  1  0.89681765  0.97530472  0.41237549  1
  O  O76  1  0.09027222  0.20151502  0.41276238  1
  O  O77  1  0.58999317  0.20863020  0.41220911  1
  O  O78  1  0.01520662  0.19145286  0.91235285  1
  O  O79  1  0.51403822  0.18342844  0.91045116  1
  O  O80  1  0.08837856  0.96773186  0.91068931  1
  O  O81  1  0.59063967  0.98007635  0.91114093  1
  O  O82  1  0.39653723  0.81824857  0.91131142  1
  O  O83  1  0.91052060  0.83114932  0.90876074  1
  O  O84  1  0.48879492  0.17839668  0.58728833  1
  O  O85  1  0.98549094  0.17722557  0.58772299  1
  O  O86  1  0.09305192  0.02328583  0.59066882  1
  O  O87  1  0.60199358  0.02569673  0.58799124  1
  O  O88  1  0.41068544  0.79900411  0.58801727  1
  O  O89  1  0.91762100  0.81555259  0.58944086  1
  O  O90  1  0.48723400  0.81003648  0.08734560  1
  O  O91  1  0.98867766  0.79893971  0.08730176  1
  O  O92  1  0.41718466  0.02376546  0.08976647  1
  O  O93  1  0.91246292  0.02590264  0.08826955  1
  O  O94  1  0.10054370  0.17769453  0.08824492  1
  O  O95  1  0.59392622  0.16645324  0.09071386  1
  O  O96  1  0.34989526  0.17414124  0.74215952  1
  O  O97  1  0.85242682  0.18064233  0.73905382  1
  O  O98  1  0.23910712  0.31615960  0.74354660  1
  O  O99  1  0.74005131  0.30929050  0.74346827  1
  O  O100  1  0.41828550  0.51722789  0.73965702  1
  O  O101  1  0.92543930  0.53311375  0.74178794  1
  O  O102  1  0.34997004  0.52084797  0.24265309  1
  O  O103  1  0.85021557  0.52512667  0.24236245  1
  O  O104  1  0.42464517  0.31429814  0.24509858  1
  O  O105  1  0.91837448  0.31984172  0.24057822  1
  O  O106  1  0.24202975  0.17404387  0.24380372  1
  O  O107  1  0.73991420  0.16385178  0.24475978  1
  O  O108  1  0.31611265  0.50713865  0.92308562  1
  O  O109  1  0.81777814  0.49145076  0.92463634  1
  O  O110  1  0.42379427  0.35253944  0.92116370  1
  O  O111  1  0.92594812  0.35348489  0.92544456  1
  O  O112  1  0.24201922  0.12963460  0.92349386  1
  O  O113  1  0.74344151  0.13209133  0.92300169  1
  O  O114  1  0.31798469  0.14463099  0.42499929  1
  O  O115  1  0.81789019  0.12682434  0.42566872  1
  O  O116  1  0.24298404  0.35529771  0.42436917  1
  O  O117  1  0.74342880  0.35474143  0.42564552  1
  O  O118  1  0.42639219  0.49987322  0.42676714  1
  O  O119  1  0.92503833  0.49460132  0.42424196  1
  O  O120  1  0.17816903  0.48778172  0.07553084  1
  O  O121  1  0.68230823  0.50684827  0.07818665  1
  O  O122  1  0.06574263  0.64418526  0.07473755  1
  O  O123  1  0.57636715  0.64912857  0.07561226  1
  O  O124  1  0.24627978  0.84799106  0.07389470  1
  O  O125  1  0.75754228  0.87491527  0.07688507  1
  O  O126  1  0.17795262  0.85109410  0.57780537  1
  O  O127  1  0.67931614  0.86980556  0.57608025  1
  O  O128  1  0.25538737  0.63815382  0.57668605  1
  O  O129  1  0.74677839  0.64395069  0.57414349  1
  O  O130  1  0.06460027  0.48519710  0.57572046  1
  O  O131  1  0.56595678  0.48736572  0.57462478  1
  O  O132  1  0.15055407  0.82777076  0.25532969  1
  O  O133  1  0.65050818  0.82640029  0.25924598  1
  O  O134  1  0.25917718  0.68303492  0.25821571  1
  O  O135  1  0.75760319  0.68332013  0.25973640  1
  O  O136  1  0.08345245  0.48251985  0.25724386  1
  O  O137  1  0.57687069  0.46594487  0.25796757  1
  O  O138  1  0.14965945  0.47599752  0.75832092  1
  O  O139  1  0.65108981  0.47526709  0.75496079  1
  O  O140  1  0.07690887  0.68838928  0.75627596  1
  O  O141  1  0.58379186  0.68427632  0.75656843  1
  O  O142  1  0.25670680  0.83087335  0.75859790  1
  O  O143  1  0.75937067  0.83642704  0.75699669  1
loop_
_geom_bond_atom_site_label_1
_geom_bond_atom_site_label_2
_geom_bond_distance
_geom_bond_site_symmetry_2
Na0 O132 2.381318 1_555
Na0 O103 2.392456 1_455
Na0 O105 2.456556 1_455
Na0 O136 2.469727 1_555
Na0 O60 2.702882 1_555
Na0 O3 2.883135 1_455
Na0 O31 2.893585 1_455
Na0 O22 2.930211 1_555
Na1 O102 2.324956 1_555
Na1 O133 2.417253 1_555
Na1 O104 2.590192 1_555
Na1 O137 2.648371 1_555
Na1 O30 2.714519 1_555
Na1 O23 2.731945 1_555
Na1 O2 2.793605 1_555
Na1 O61 2.937533 1_555
Na2 O97 2.327179 1_555
Na2 O138 2.365754 1_655
Na2 O101 2.593263 1_555
Na2 O140 2.639524 1_655
Na2 O11 2.702214 1_555
Na2 O66 2.776518 1_655
Na2 O14 2.787830 1_655
Na2 O25 2.945361 1_555
Na3 O139 2.392293 1_555
Na3 O96 2.401916 1_555
Na3 O100 2.454127 1_555
Na3 O141 2.456553 1_555
Na3 O67 2.646812 1_555
Na3 O10 2.874262 1_555
Na3 O24 2.930319 1_555
Na3 O15 2.973058 1_555
Na4 O79 2.378691 1_555
Na4 O109 2.403842 1_555
Na4 O81 2.596271 1_545
Na4 O113 2.627777 1_555
Na4 O51 2.771118 1_555
Na4 O37 2.804475 1_556
Na4 O7 2.805258 1_555
Na4 O71 2.810711 1_555
Na5 O72 2.386269 1_545
Na5 O114 2.402695 1_555
Na5 O76 2.589176 1_555
Na5 O116 2.615493 1_555
Na5 O0 2.738331 1_555
Na5 O62 2.774882 1_545
Na5 O42 2.840772 1_555
Na5 O58 2.861774 1_545
Na6 O89 2.520731 1_555
Na6 O72 2.544720 1_655
Na6 O86 2.567384 1_665
Na6 O85 2.710512 1_565
Na6 O76 2.763108 1_665
Na6 O75 2.764300 1_555
Na7 O73 2.469015 1_555
Na7 O74 2.479542 1_555
Na7 O77 2.669849 1_565
Na7 O88 2.713396 1_555
Na7 O84 2.772803 1_565
Na7 O87 2.812910 1_565
Na8 O78 2.512302 1_665
Na8 O83 2.543991 1_555
Na8 O93 2.684979 1_566
Na8 O80 2.717239 1_655
Na8 O91 2.737726 1_556
Na8 O94 2.775774 1_666
Na9 O92 2.492564 1_555
Na9 O90 2.500257 1_545
Na9 O95 2.537829 1_555
Na9 O79 2.684941 1_554
Na9 O82 2.826743 1_544
Na9 O81 2.845048 1_544
Na10 O110 2.575231 1_555
Na10 O98 2.635606 1_555
Na10 O96 2.648415 1_555
Na10 O100 2.671669 1_555
Na10 O108 2.728324 1_555
Na10 O112 2.762237 1_555
Na11 O109 2.617641 1_555
Na11 O111 2.624567 1_555
Na11 O99 2.662215 1_555
Na11 O113 2.663575 1_555
Na11 O97 2.733264 1_555
Na11 O101 2.790802 1_555
Na12 O106 2.536462 1_555
Na12 O102 2.548324 1_555
Na12 O104 2.649593 1_555
Na12 O114 2.721813 1_555
Na12 O118 2.758929 1_555
Na12 O116 2.786947 1_555
Na13 O107 2.521346 1_555
Na13 O103 2.572356 1_555
Na13 O105 2.580824 1_555
Na13 O119 2.727931 1_555
Na13 O115 2.832945 1_555
Na13 O117 2.863713 1_555
Na14 O134 2.513591 1_555
Na14 O132 2.556650 1_555
Na14 O136 2.623624 1_555
Na14 O124 2.681661 1_555
Na14 O120 2.806180 1_555
Na14 O122 2.898826 1_555
Na15 O121 2.508836 1_555
Na15 O123 2.570149 1_555
Na15 O125 2.655745 1_555
Na15 O135 2.732617 1_555
Na15 O133 2.784449 1_555
Na15 O137 2.819460 1_555
Na16 O126 2.560524 1_555
Na16 O142 2.563682 1_555
Na16 O128 2.688039 1_555
Na16 O138 2.694001 1_555
Na16 O140 2.754320 1_555
Na16 O130 2.835888 1_555
Na17 O143 2.480115 1_555
Na17 O139 2.506223 1_555
Na17 O141 2.560872 1_555
Na17 O129 2.734397 1_555
Na17 O127 2.821163 1_555
Na17 O131 2.914575 1_555
Hf0 O3 1.945817 1_555
Hf0 O0 1.965523 1_665
Hf0 O5 1.976644 1_565
Hf0 O72 2.127076 1_655
Hf0 O75 2.327664 1_555
Hf0 O76 2.330600 1_665
Hf1 O2 1.926041 1_555
Hf1 O1 1.997446 1_565
Hf1 O73 2.002132 1_555
Hf1 O74 2.069548 1_555
Hf1 O4 2.260866 1_565
Hf1 O77 2.354595 1_565
Hf2 O11 1.959578 1_555
Hf2 O78 1.971505 1_655
Hf2 O6 2.016459 1_655
Hf2 O83 2.031902 1_545
Hf2 O80 2.297565 1_645
Hf2 O9 2.332392 1_545
Hf3 O10 1.958539 1_555
Hf3 O7 1.986059 1_555
Hf3 O8 1.992703 1_545
Hf3 O79 2.079937 1_555
Hf3 O82 2.281287 1_545
Hf3 O81 2.283092 1_545
Hf4 O13 1.995895 1_545
Hf4 O14 2.024479 1_655
Hf4 O86 2.049135 1_655
Hf4 O89 2.053733 1_545
Hf4 O16 2.176771 1_645
Hf4 O85 2.190376 1_555
Hf5 O17 1.913900 1_555
Hf5 O12 1.941976 1_555
Hf5 O15 1.964053 1_565
Hf5 O88 2.261617 1_555
Hf5 O84 2.317242 1_565
Hf5 O87 2.327893 1_565
Hf6 O20 1.918590 1_655
Hf6 O19 1.951475 1_545
Hf6 O22 1.960044 1_645
Hf6 O93 2.248583 1_555
Hf6 O94 2.292607 1_655
Hf6 O91 2.322082 1_545
Hf7 O90 1.964991 1_555
Hf7 O18 2.025861 1_555
Hf7 O92 2.043722 1_565
Hf7 O23 2.057204 1_555
Hf7 O95 2.057754 1_565
Hf7 O21 2.331840 1_565
Hf8 O98 1.953637 1_555
Hf8 O26 1.976497 1_555
Hf8 O96 1.997596 1_555
Hf8 O100 2.045521 1_555
Hf8 O28 2.219112 1_555
Hf8 O24 2.357979 1_555
Hf9 O99 1.936374 1_555
Hf9 O29 1.964002 1_555
Hf9 O97 2.035109 1_555
Hf9 O27 2.144107 1_555
Hf9 O101 2.198997 1_555
Hf9 O25 2.301574 1_555
Hf10 O32 1.971372 1_555
Hf10 O30 2.022342 1_555
Hf10 O106 2.050312 1_555
Hf10 O102 2.088342 1_555
Hf10 O34 2.168003 1_555
Hf10 O104 2.236544 1_555
Hf11 O35 1.951077 1_555
Hf11 O107 1.960840 1_555
Hf11 O103 2.015753 1_555
Hf11 O105 2.060790 1_555
Hf11 O33 2.197921 1_555
Hf11 O31 2.352461 1_555
Hf12 O40 1.911461 1_556
Hf12 O38 1.915677 1_556
Hf12 O110 1.985789 1_555
Hf12 O36 2.276808 1_556
Hf12 O112 2.298322 1_555
Hf12 O108 2.301413 1_555
Hf13 O37 1.983890 1_556
Hf13 O109 1.989980 1_555
Hf13 O111 2.037810 1_555
Hf13 O39 2.131542 1_556
Hf13 O41 2.181926 1_556
Hf13 O113 2.185070 1_555
Hf14 O114 1.976518 1_555
Hf14 O118 2.010298 1_555
Hf14 O42 2.011993 1_555
Hf14 O46 2.134903 1_555
Hf14 O116 2.167351 1_555
Hf14 O44 2.199768 1_555
Hf15 O45 1.897849 1_555
Hf15 O119 1.937704 1_555
Hf15 O47 2.129620 1_555
Hf15 O117 2.140842 1_555
Hf15 O43 2.241602 1_555
Hf15 O115 2.259763 1_555
Hf16 O50 1.968229 1_554
Hf16 O124 1.982475 1_555
Hf16 O52 2.121768 1_554
Hf16 O48 2.136992 1_554
Hf16 O122 2.142505 1_555
Hf16 O120 2.142881 1_555
Hf17 O121 1.965954 1_555
Hf17 O51 1.967000 1_554
Hf17 O49 2.031332 1_554
Hf17 O123 2.037679 1_555
Hf17 O53 2.286876 1_554
Hf17 O125 2.303465 1_555
Hf18 O54 1.931731 1_555
Hf18 O58 1.953811 1_555
Hf18 O126 1.974196 1_555
Hf18 O56 2.247521 1_555
Hf18 O128 2.265063 1_555
Hf18 O130 2.303108 1_555
Hf19 O59 1.946160 1_555
Hf19 O129 2.012957 1_555
Hf19 O57 2.110436 1_555
Hf19 O55 2.120269 1_555
Hf19 O131 2.140834 1_555
Hf19 O127 2.162989 1_555
Hf20 O132 2.003710 1_555
Hf20 O134 2.009197 1_555
Hf20 O62 2.029033 1_555
Hf20 O136 2.055218 1_555
Hf20 O60 2.088910 1_555
Hf20 O64 2.269442 1_555
Hf21 O133 1.952164 1_555
Hf21 O135 2.007990 1_555
Hf21 O61 2.012377 1_555
Hf21 O137 2.137741 1_555
Hf21 O63 2.170635 1_555
Hf21 O65 2.253598 1_555
Hf22 O138 1.991492 1_555
Hf22 O66 2.002815 1_555
Hf22 O142 2.023924 1_555
Hf22 O70 2.091336 1_555
Hf22 O68 2.188989 1_555
Hf22 O140 2.216703 1_555
Hf23 O71 2.005120 1_555
Hf23 O139 2.039599 1_555
Hf23 O67 2.049609 1_555
Hf23 O143 2.056013 1_555
Hf23 O141 2.080150 1_555
Hf23 O69 2.231838 1_555
O0 Si0 1.654079 1_555
O1 Si1 1.624748 1_555
O2 Si2 1.662328 1_555
O3 Si3 1.644588 1_555
O4 S0 1.467095 1_555
O5 Si4 1.634780 1_655
O6 Si5 1.618362 1_555
O7 Si6 1.631458 1_555
O8 Si7 1.629005 1_555
O9 S1 1.455916 1_655
O10 Si8 1.634774 1_545
O11 Si9 1.646695 1_555
O12 Si8 1.639507 1_555
O13 Si9 1.627029 1_565
O14 Si5 1.630125 1_555
O15 Si6 1.643534 1_555
O16 S1 1.475178 1_555
O17 Si7 1.651552 1_555
O18 Si2 1.613787 1_555
O19 Si3 1.634197 1_555
O20 Si4 1.643345 1_555
O21 S0 1.463021 1_555
O22 Si0 1.648252 1_565
O23 Si1 1.611106 1_565
O24 S2 1.468837 1_555
O25 S3 1.482048 1_555
O26 Si10 1.628357 1_555
O27 S4 1.491148 1_555
O28 S5 1.473980 1_555
O29 Si11 1.634367 1_555
O30 Si12 1.644473 1_555
O31 S6 1.469781 1_555
O32 Si13 1.629702 1_555
O33 S7 1.480181 1_555
O34 S8 1.481062 1_555
O35 Si14 1.632298 1_555
O36 S8 1.472534 1_555
O37 Si14 1.656691 1_555
O38 Si12 1.654209 1_555
O39 S6 1.486539 1_555
O40 Si13 1.645331 1_555
O41 S7 1.486706 1_555
O42 Si10 1.646217 1_555
O43 S4 1.477466 1_555
O44 S5 1.480764 1_555
O45 Si11 1.659449 1_555
O46 S2 1.484981 1_555
O47 S3 1.500741 1_555
O48 S9 1.487815 1_555
O49 Si15 1.621535 1_555
O50 Si16 1.634435 1_555
O51 Si17 1.640509 1_555
O52 S10 1.495396 1_555
O53 S11 1.460658 1_555
O54 Si18 1.651116 1_555
O55 S12 1.495906 1_555
O56 S13 1.473360 1_555
O57 S14 1.495244 1_555
O58 Si19 1.651174 1_555
O59 Si20 1.648656 1_555
O60 Si19 1.618172 1_555
O61 Si20 1.638285 1_555
O62 Si18 1.623153 1_555
O63 S12 1.482111 1_555
O64 S13 1.470882 1_555
O65 S14 1.469761 1_555
O66 Si16 1.650755 1_555
O67 Si17 1.634197 1_555
O68 S10 1.488766 1_555
O69 S11 1.471896 1_555
O70 S9 1.498146 1_555
O71 Si15 1.637387 1_555
O72 Si19 1.648131 1_555
O73 Si20 1.633088 1_555
O74 Si18 1.614883 1_555
O75 S12 1.471156 1_555
O76 S13 1.489901 1_555
O77 S14 1.459782 1_555
O78 Si16 1.638850 1_555
O79 Si17 1.657552 1_555
O80 S10 1.469879 1_555
O81 S11 1.495702 1_555
O82 S9 1.472327 1_555
O83 Si15 1.628594 1_555
O84 S2 1.484485 1_555
O85 S3 1.480314 1_555
O86 Si10 1.630934 1_555
O87 S4 1.477870 1_555
O88 S5 1.497371 1_555
O89 Si11 1.615230 1_555
O90 Si12 1.624337 1_555
O91 S6 1.483046 1_555
O92 Si13 1.607146 1_555
O93 S7 1.499073 1_555
O94 S8 1.487394 1_555
O95 Si14 1.613600 1_555
O96 Si8 1.634743 1_545
O97 Si9 1.663835 1_555
O98 Si5 1.624766 1_555
O99 Si6 1.638674 1_555
O100 Si7 1.636071 1_555
O101 S1 1.507809 1_655
O102 Si2 1.647919 1_555
O103 Si3 1.633964 1_555
O104 S0 1.499933 1_555
O105 Si4 1.630945 1_655
O106 Si0 1.613298 1_555
O107 Si1 1.628356 1_555
O108 S9 1.471517 1_555
O109 Si15 1.673883 1_555
O110 Si17 1.645335 1_555
O111 Si16 1.630537 1_655
O112 S10 1.475835 1_545
O113 S11 1.513557 1_545
O114 Si18 1.664233 1_545
O115 S12 1.485976 1_545
O116 S13 1.509201 1_555
O117 S14 1.506109 1_555
O118 Si20 1.635782 1_555
O119 Si19 1.660837 1_655
O120 S8 1.502886 1_555
O121 Si14 1.642027 1_555
O122 S6 1.501809 1_455
O123 Si12 1.630157 1_555
O124 Si13 1.658795 1_565
O125 S7 1.469477 1_565
O126 Si10 1.665119 1_565
O127 S4 1.496684 1_565
O128 S5 1.486709 1_555
O129 Si11 1.641925 1_555
O130 S3 1.474685 1_455
O131 S2 1.504141 1_555
O132 Si0 1.637010 1_565
O133 Si1 1.676649 1_565
O134 Si2 1.620438 1_555
O135 Si3 1.622709 1_555
O136 Si4 1.625911 1_555
O137 S0 1.516326 1_555
O138 Si5 1.672146 1_555
O139 Si6 1.624169 1_555
O140 S1 1.501174 1_555
O141 Si7 1.624172 1_555
O142 Si8 1.625587 1_555
O143 Si9 1.611219 1_565
