# generated using pymatgen
data_Na5Y3Zr(PO4)6
_symmetry_space_group_name_H-M   'P 1'
_cell_length_a   9.27502489
_cell_length_b   9.27162394
_cell_length_c   23.26940900
_cell_angle_alpha   89.88490907
_cell_angle_beta   89.95490892
_cell_angle_gamma   120.03562173
_symmetry_Int_Tables_number   1
_chemical_formula_structural   Na5Y3Zr(PO4)6
_chemical_formula_sum   'Na15 Y9 Zr3 P18 O72'
_cell_volume   1732.32378693
_cell_formula_units_Z   3
loop_
 _symmetry_equiv_pos_site_id
 _symmetry_equiv_pos_as_xyz
  1  'x, y, z'
loop_
 _atom_site_type_symbol
 _atom_site_label
 _atom_site_symmetry_multiplicity
 _atom_site_fract_x
 _atom_site_fract_y
 _atom_site_fract_z
 _atom_site_occupancy
  Na  Na0  1  0.64048209  0.00077672  0.25594466  1
  Na  Na1  1  0.36197057  0.36265351  0.25758434  1
  Na  Na2  1  0.99753339  0.63696768  0.25611238  1
  Na  Na3  1  0.64891781  0.64452837  0.74957247  1
  Na  Na4  1  0.99522951  0.35676308  0.74990665  1
  Na  Na5  1  0.03250008  0.69978755  0.57871476  1
  Na  Na6  1  0.66496171  0.96621759  0.57840142  1
  Na  Na7  1  0.66359489  0.69907520  0.07857422  1
  Na  Na8  1  0.03490078  0.33317936  0.07828786  1
  Na  Na9  1  0.01671153  0.01659234  0.49381461  1
  Na  Na10  1  0.01681834  0.00026976  0.99293909  1
  Na  Na11  1  0.64966553  0.31652998  0.83543243  1
  Na  Na12  1  0.66655159  0.33315452  0.34409012  1
  Na  Na13  1  0.33384694  0.68300375  0.16658111  1
  Na  Na14  1  0.33373959  0.66584474  0.66372380  1
  Y  Y0  1  0.99694911  0.99749228  0.35425669  1
  Y  Y1  1  0.00215938  0.99960732  0.85272583  1
  Y  Y2  1  0.01332097  0.00861934  0.65022904  1
  Y  Y3  1  0.00904366  0.99976601  0.14642275  1
  Y  Y4  1  0.65250158  0.32455499  0.68412906  1
  Y  Y5  1  0.66115973  0.32760341  0.18102241  1
  Y  Y6  1  0.33318161  0.67493339  0.01402579  1
  Y  Y7  1  0.33263851  0.65580911  0.51377149  1
  Y  Y8  1  0.33348268  0.66542612  0.32548878  1
  Zr  Zr0  1  0.66391544  0.33104403  0.97831850  1
  Zr  Zr1  1  0.66256347  0.33344206  0.48226634  1
  Zr  Zr2  1  0.33306413  0.67363438  0.82083046  1
  P  P0  1  0.29812231  0.99567176  0.25101296  1
  P  P1  1  0.69852884  0.70171923  0.24684942  1
  P  P2  1  0.00338495  0.30148508  0.24714154  1
  P  P3  1  0.29958019  0.31167948  0.75366901  1
  P  P4  1  0.00479504  0.69838374  0.74916210  1
  P  P5  1  0.69818054  0.99290664  0.74963009  1
  P  P6  1  0.95629045  0.33223065  0.58511725  1
  P  P7  1  0.36874375  0.03275275  0.58073018  1
  P  P8  1  0.67064114  0.63345186  0.58522822  1
  P  P9  1  0.95693174  0.62398000  0.08193245  1
  P  P10  1  0.67009632  0.03764172  0.08246314  1
  P  P11  1  0.37092397  0.33533321  0.08111502  1
  P  P12  1  0.62849970  0.65952921  0.91799027  1
  P  P13  1  0.03063394  0.37076922  0.91873693  1
  P  P14  1  0.34058472  0.97222710  0.91736854  1
  P  P15  1  0.63863178  0.97887906  0.41905702  1
  P  P16  1  0.33955548  0.35864431  0.41475345  1
  P  P17  1  0.02192935  0.66035736  0.41925275  1
  O  O0  1  0.21212141  0.02154231  0.30249094  1
  O  O1  1  0.81621319  0.79289762  0.29684689  1
  O  O2  1  0.97857443  0.18409508  0.29722388  1
  O  O3  1  0.21490518  0.20252069  0.80546303  1
  O  O4  1  0.97540898  0.79003138  0.79822902  1
  O  O5  1  0.81775646  0.02063239  0.79897887  1
  O  O6  1  0.76854950  0.96054189  0.69332659  1
  O  O7  1  0.19284938  0.23451140  0.69898630  1
  O  O8  1  0.03172633  0.79445381  0.69198740  1
  O  O9  1  0.77490024  0.79892334  0.18994005  1
  O  O10  1  0.02587048  0.22604986  0.19042790  1
  O  O11  1  0.19435581  0.97179114  0.19616570  1
  O  O12  1  0.88093906  0.35104438  0.64195470  1
  O  O13  1  0.46908444  0.11346658  0.63543567  1
  O  O14  1  0.65314829  0.54226306  0.64243513  1
  O  O15  1  0.88161293  0.53206450  0.13919064  1
  O  O16  1  0.65400123  0.11010254  0.14010026  1
  O  O17  1  0.46170125  0.35018075  0.13826797  1
  O  O18  1  0.47492087  0.32549109  0.03060547  1
  O  O19  1  0.84029989  0.51915327  0.03176266  1
  O  O20  1  0.67783362  0.15266927  0.03223868  1
  O  O21  1  0.46508089  0.14276080  0.52872817  1
  O  O22  1  0.67975050  0.52798265  0.53488658  1
  O  O23  1  0.83878732  0.31735498  0.53487430  1
  O  O24  1  0.54974058  0.67786144  0.97353942  1
  O  O25  1  0.12747679  0.44874208  0.97439849  1
  O  O26  1  0.32085499  0.87306319  0.97192502  1
  O  O27  1  0.54659563  0.87136675  0.47170205  1
  O  O28  1  0.32319235  0.45810989  0.46414945  1
  O  O29  1  0.12882022  0.67569695  0.47193354  1
  O  O30  1  0.10159941  0.63961473  0.36303994  1
  O  O31  1  0.53925699  0.89812159  0.36282655  1
  O  O32  1  0.36034861  0.45180297  0.35677362  1
  O  O33  1  0.12882663  0.48694663  0.86637945  1
  O  O34  1  0.35689332  0.87509789  0.86499486  1
  O  O35  1  0.51498918  0.64495640  0.86540103  1
  O  O36  1  0.99944211  0.81316585  0.41621037  1
  O  O37  1  0.81407205  0.00127693  0.41628745  1
  O  O38  1  0.18691244  0.18346521  0.41454770  1
  O  O39  1  0.00691670  0.19605186  0.91176833  1
  O  O40  1  0.18919343  0.99555555  0.91151265  1
  O  O41  1  0.80381100  0.81044871  0.91152087  1
  O  O42  1  0.96379698  0.16872531  0.58543679  1
  O  O43  1  0.19158314  0.00998864  0.58270929  1
  O  O44  1  0.83668425  0.80467050  0.58441447  1
  O  O45  1  0.96311220  0.79403237  0.08086322  1
  O  O46  1  0.83624662  0.03330095  0.08090284  1
  O  O47  1  0.19338521  0.18211279  0.08008262  1
  O  O48  1  0.68016669  0.14955624  0.74605958  1
  O  O49  1  0.48094066  0.34722933  0.74850425  1
  O  O50  1  0.84952750  0.51947394  0.74660524  1
  O  O51  1  0.67477003  0.52257527  0.24507264  1
  O  O52  1  0.84663505  0.32296832  0.24525789  1
  O  O53  1  0.47608383  0.15209314  0.24680136  1
  O  O54  1  0.63785578  0.49590529  0.92053911  1
  O  O55  1  0.85730153  0.36056811  0.92143724  1
  O  O56  1  0.50382547  0.14410005  0.91977237  1
  O  O57  1  0.65384513  0.15372952  0.42430188  1
  O  O58  1  0.50034948  0.34766017  0.42287064  1
  O  O59  1  0.84724316  0.50045740  0.42506616  1
  O  O60  1  0.35679138  0.49555304  0.07734639  1
  O  O61  1  0.12877063  0.63703148  0.07728668  1
  O  O62  1  0.52357331  0.85708215  0.07833057  1
  O  O63  1  0.35186050  0.85713401  0.57717642  1
  O  O64  1  0.52369991  0.66685801  0.57956306  1
  O  O65  1  0.12845646  0.49093888  0.57872287  1
  O  O66  1  0.31706276  0.83834922  0.25623967  1
  O  O67  1  0.52494669  0.68734585  0.25422412  1
  O  O68  1  0.16043810  0.47719112  0.25419861  1
  O  O69  1  0.31196995  0.48724330  0.76005342  1
  O  O70  1  0.15896452  0.67443718  0.75958493  1
  O  O71  1  0.52528810  0.83153207  0.76007260  1
loop_
_geom_bond_atom_site_label_1
_geom_bond_atom_site_label_2
_geom_bond_distance
_geom_bond_site_symmetry_2
Na0 O67 2.545181 1_545
Na0 O53 2.545461 1_555
Na0 O66 2.596901 1_545
Na0 O52 2.630544 1_555
Na0 O31 2.658039 1_545
Na0 O16 2.858469 1_555
Na0 O2 2.884539 1_555
Na1 O32 2.455748 1_555
Na1 O51 2.528027 1_555
Na1 O68 2.571959 1_555
Na1 O67 2.607128 1_555
Na1 O53 2.657900 1_555
Na1 O0 2.934293 1_555
Na1 O17 2.946499 1_555
Na2 O52 2.534313 1_555
Na2 O68 2.592357 1_655
Na2 O66 2.594212 1_655
Na2 O51 2.641319 1_555
Na2 O30 2.665220 1_655
Na2 O1 2.872945 1_555
Na2 O15 2.910767 1_555
Na3 O49 2.393144 1_555
Na3 O71 2.524328 1_555
Na3 O50 2.640258 1_555
Na3 O14 2.676248 1_555
Na3 O69 2.718084 1_555
Na3 O4 2.862488 1_555
Na3 O6 2.873427 1_555
Na3 O35 2.967693 1_555
Na4 O50 2.479638 1_555
Na4 O70 2.560772 1_655
Na4 O69 2.567917 1_655
Na4 O48 2.572783 1_555
Na4 O12 2.717537 1_555
Na4 O7 2.851338 1_655
Na4 O5 2.927995 1_555
Na4 O33 2.976399 1_655
Na5 O44 2.455599 1_455
Na5 O43 2.492105 1_565
Na5 O65 2.503363 1_555
Na5 O63 2.564598 1_555
Na5 O29 2.687082 1_555
Na5 O8 2.780894 1_555
Na6 O64 2.404211 1_555
Na6 O42 2.454933 1_565
Na6 O63 2.552853 1_555
Na6 O44 2.680944 1_555
Na6 O27 2.681353 1_555
Na6 O6 2.851582 1_555
Na7 O62 2.395294 1_555
Na7 O45 2.459146 1_555
Na7 O60 2.506783 1_555
Na7 O24 2.631636 1_554
Na7 O46 2.683858 1_565
Na7 O9 2.774047 1_555
Na8 O46 2.449438 1_455
Na8 O47 2.487005 1_555
Na8 O61 2.497894 1_555
Na8 O60 2.584699 1_555
Na8 O25 2.606657 1_554
Na8 O10 2.776453 1_555
Na9 O38 2.413893 1_555
Na9 O37 2.558570 1_455
Na9 O36 2.560400 1_445
Na9 O43 2.649042 1_555
Na9 O42 2.734826 1_455
Na9 O44 2.790473 1_445
Na10 O40 2.492709 1_545
Na10 O47 2.625124 1_556
Na10 O39 2.650355 1_555
Na10 O45 2.668241 1_446
Na10 O41 2.669915 1_445
Na10 O46 2.756631 1_456
Na11 O56 2.460794 1_555
Na11 O54 2.625846 1_555
Na11 O49 2.658981 1_555
Na11 O55 2.665114 1_555
Na11 O48 2.692972 1_555
Na11 O50 2.781309 1_555
Na12 O58 2.441111 1_555
Na12 O57 2.460891 1_555
Na12 O59 2.485873 1_555
Na12 O53 2.848992 1_555
Na12 O52 2.870614 1_555
Na12 O51 2.872005 1_555
Na13 O66 2.585998 1_555
Na13 O62 2.656381 1_555
Na13 O67 2.690160 1_555
Na13 O68 2.700309 1_555
Na13 O61 2.704654 1_555
Na13 O60 2.785946 1_555
Na14 O63 2.629886 1_555
Na14 O64 2.630109 1_555
Na14 O65 2.663651 1_555
Na14 O69 2.730749 1_555
Na14 O70 2.781034 1_555
Na14 O71 2.798333 1_555
O0 P0 1.523107 1_545
O0 Y0 2.243493 1_445
O1 P1 1.530300 1_555
O1 Y0 2.241300 1_555
O2 P2 1.529522 1_655
O2 Y0 2.251639 1_545
O3 P3 1.513787 1_555
O3 Y1 2.216873 1_545
O4 P4 1.528130 1_655
O4 Y1 2.230045 1_655
O5 P5 1.527263 1_545
O5 Y1 2.205351 1_645
O6 P5 1.558465 1_555
O6 Y2 2.310855 1_665
O7 P3 1.551632 1_555
O7 Y2 2.228825 1_555
O8 P4 1.548480 1_555
O8 Y2 2.290858 1_565
O9 P1 1.556365 1_555
O9 Y3 2.269319 1_655
O10 P2 1.556776 1_555
O10 Y3 2.270607 1_545
O11 P0 1.547223 1_555
O11 Y3 2.193046 1_555
O12 P6 1.545828 1_555
O12 Y4 2.233249 1_555
O13 P7 1.534626 1_555
O13 Y4 2.164987 1_555
O14 P8 1.539797 1_555
O14 Y4 2.235103 1_555
O15 P9 1.545142 1_555
O15 Y5 2.197982 1_555
O16 P10 1.541465 1_555
O16 Y5 2.202625 1_555
O17 P11 1.543694 1_555
O17 Y5 2.201307 1_555
O18 P11 1.551414 1_555
O18 Zr0 2.112294 1_554
O19 P9 1.559402 1_555
O19 Zr0 2.102467 1_554
O20 P10 1.557769 1_555
O20 Zr0 2.128776 1_554
O21 P7 1.544000 1_555
O21 Zr1 2.096872 1_555
O22 P8 1.556519 1_555
O22 Zr1 2.121172 1_555
O23 P6 1.557502 1_555
O23 Zr1 2.106846 1_555
O24 P12 1.535254 1_555
O24 Y6 2.205684 1_556
O25 P13 1.537058 1_555
O25 Y6 2.212132 1_556
O26 P14 1.522151 1_555
O26 Y6 2.133193 1_556
O27 P15 1.537732 1_555
O27 Y7 2.215715 1_555
O28 P16 1.529298 1_555
O28 Y7 2.132770 1_555
O29 P17 1.538604 1_555
O29 Y7 2.215086 1_555
O30 P17 1.560686 1_555
O30 Y8 2.219763 1_555
O31 P15 1.561145 1_555
O31 Y8 2.222651 1_555
O32 P16 1.559360 1_555
O32 Y8 2.236855 1_555
O33 P13 1.576371 1_555
O33 Zr2 2.101162 1_555
O34 P14 1.568307 1_555
O34 Zr2 2.046654 1_555
O35 P12 1.576215 1_555
O35 Zr2 2.108152 1_555
O36 P17 1.533370 1_655
O36 Y0 2.242595 1_555
O37 P15 1.535123 1_545
O37 Y0 2.240018 1_545
O38 P16 1.529874 1_555
O38 Y0 2.240090 1_445
O39 P13 1.530747 1_555
O39 Y1 2.266396 1_545
O40 P14 1.530107 1_555
O40 Y1 2.225031 1_555
O41 P12 1.531545 1_555
O41 Y1 2.255776 1_655
O42 P6 1.551983 1_555
O42 Y2 2.315673 1_655
O43 P7 1.548978 1_555
O43 Y2 2.275337 1_555
O44 P8 1.563523 1_555
O44 Y2 2.349340 1_665
O45 P9 1.548912 1_555
O45 Y3 2.312240 1_655
O46 P10 1.561977 1_555
O46 Y3 2.343190 1_645
O47 P11 1.545522 1_555
O47 Y3 2.292649 1_545
O48 P5 1.544906 1_545
O48 Y4 2.276646 1_555
O49 P3 1.548260 1_555
O49 Y4 2.269919 1_555
O50 P4 1.561458 1_655
O50 Y4 2.329725 1_555
O51 P1 1.562986 1_555
O51 Y5 2.299508 1_555
O52 P2 1.563734 1_655
O52 Y5 2.296351 1_555
O53 P0 1.562100 1_545
O53 Y5 2.264291 1_555
O54 P12 1.563315 1_555
O54 Zr0 2.136491 1_555
O55 P13 1.563672 1_655
O55 Zr0 2.132449 1_555
O56 P14 1.555654 1_545
O56 Zr0 2.121604 1_555
O57 P15 1.560369 1_545
O57 Zr1 2.115757 1_555
O58 P16 1.556483 1_555
O58 Zr1 2.095785 1_555
O59 P17 1.560624 1_655
O59 Zr1 2.106264 1_555
O60 P11 1.557562 1_555
O60 Y6 2.310902 1_555
O61 P9 1.540508 1_455
O61 Y6 2.282864 1_555
O62 P10 1.543375 1_565
O62 Y6 2.288736 1_555
O63 P7 1.558184 1_565
O63 Y7 2.317571 1_555
O64 P8 1.547081 1_555
O64 Y7 2.306024 1_555
O65 P6 1.543956 1_455
O65 Y7 2.301218 1_555
O66 P0 1.558560 1_555
O66 Y8 2.329099 1_555
O67 P1 1.556897 1_555
O67 Y8 2.361677 1_555
O68 P2 1.558404 1_555
O68 Y8 2.363359 1_555
O69 P3 1.580704 1_555
O69 Zr2 2.167174 1_555
O70 P4 1.571926 1_555
O70 Zr2 2.157364 1_555
O71 P5 1.570097 1_555
O71 Zr2 2.166916 1_555
