# generated using pymatgen
data_DyGePt
_symmetry_space_group_name_H-M   'P 1'
_cell_length_a   4.35816040
_cell_length_b   7.01813796
_cell_length_c   7.55886069
_cell_angle_alpha   90.00007024
_cell_angle_beta   90.00000000
_cell_angle_gamma   90.00000000
_symmetry_Int_Tables_number   1
_chemical_formula_structural   DyGePt
_chemical_formula_sum   'Dy4 Ge4 Pt4'
_cell_volume   231.19660517
_cell_formula_units_Z   4
loop_
 _symmetry_equiv_pos_site_id
 _symmetry_equiv_pos_as_xyz
  1  'x, y, z'
loop_
 _atom_site_type_symbol
 _atom_site_label
 _atom_site_symmetry_multiplicity
 _atom_site_fract_x
 _atom_site_fract_y
 _atom_site_fract_z
 _atom_site_occupancy
  Dy  Dy0  1  0.75000000  0.50305492  0.79521029  1
  Dy  Dy1  1  0.25000000  0.99694520  0.29521012  1
  Dy  Dy2  1  0.75000000  0.00305480  0.70479088  1
  Dy  Dy3  1  0.25000000  0.49694508  0.20479071  1
  Ge  Ge0  1  0.25000000  0.81017308  0.91201970  1
  Ge  Ge1  1  0.25000000  0.31017291  0.58798182  1
  Ge  Ge2  1  0.75000000  0.18982692  0.08798330  1
  Ge  Ge3  1  0.75000000  0.68982709  0.41201718  1
  Pt  Pt0  1  0.25000000  0.70530697  0.58371492  1
  Pt  Pt1  1  0.25000000  0.20530715  0.91628229  1
  Pt  Pt2  1  0.75000000  0.79469185  0.08371471  1
  Pt  Pt3  1  0.75000000  0.29469303  0.41628408  1
loop_
_geom_bond_atom_site_label_1
_geom_bond_atom_site_label_2
_geom_bond_distance
_geom_bond_site_symmetry_2
Dy0 Pt2 2.990803 1_556
Dy0 Ge1 3.005738 1_555
Dy0 Ge1 3.005738 1_655
Dy0 Pt0 3.052689 1_655
Dy0 Pt0 3.052689 1_555
Dy0 Ge2 3.119285 1_556
Dy0 Pt1 3.154758 1_655
Dy0 Pt1 3.154758 1_555
Dy0 Ge3 3.179295 1_555
Dy0 Ge0 3.189627 1_655
Dy0 Ge0 3.189627 1_555
Dy0 Pt3 3.215941 1_555
Dy1 Pt0 2.990815 1_555
Dy1 Ge2 3.005732 1_465
Dy1 Ge2 3.005732 1_565
Dy1 Pt2 3.052692 1_555
Dy1 Pt2 3.052692 1_455
Dy1 Ge1 3.119273 1_565
Dy1 Pt3 3.154761 1_565
Dy1 Pt3 3.154761 1_465
Dy1 Ge0 3.179274 1_554
Dy1 Ge3 3.189623 1_455
Dy1 Ge3 3.189623 1_555
Dy1 Pt1 3.215956 1_564
Dy2 Pt3 2.990826 1_555
Dy2 Ge0 3.005740 1_645
Dy2 Ge0 3.005740 1_545
Dy2 Pt1 3.052673 1_555
Dy2 Pt1 3.052673 1_655
Dy2 Ge3 3.119283 1_545
Dy2 Pt0 3.154766 1_545
Dy2 Pt0 3.154766 1_645
Dy2 Ge2 3.179288 1_556
Dy2 Ge1 3.189627 1_555
Dy2 Ge1 3.189627 1_655
Dy2 Pt2 3.215932 1_546
Dy3 Pt1 2.990830 1_554
Dy3 Ge3 3.005730 1_555
Dy3 Ge3 3.005730 1_455
Dy3 Pt3 3.052681 1_555
Dy3 Pt3 3.052681 1_455
Dy3 Ge0 3.119274 1_554
Dy3 Pt2 3.154762 1_555
Dy3 Pt2 3.154762 1_455
Dy3 Ge1 3.179282 1_555
Dy3 Ge2 3.189623 1_455
Dy3 Ge2 3.189623 1_555
Dy3 Pt0 3.215928 1_555
Ge0 Pt2 2.538608 1_556
Ge0 Pt2 2.538608 1_456
Ge0 Pt0 2.588441 1_555
Ge0 Pt1 2.773293 1_565
Ge1 Pt3 2.538618 1_455
Ge1 Pt3 2.538618 1_555
Ge1 Pt1 2.588411 1_555
Ge1 Pt0 2.773293 1_555
Ge2 Pt1 2.538631 1_654
Ge2 Pt1 2.538631 1_554
Ge2 Pt3 2.588412 1_555
Ge2 Pt2 2.773300 1_545
Ge3 Pt0 2.538618 1_655
Ge3 Pt0 2.538618 1_555
Ge3 Pt2 2.588424 1_555
Ge3 Pt3 2.773293 1_555
