# generated using pymatgen
data_MgMoW2(Se2S)2
_symmetry_space_group_name_H-M   'P 1'
_cell_length_a   3.28486800
_cell_length_b   3.28485959
_cell_length_c   37.31430200
_cell_angle_alpha   90.00030691
_cell_angle_beta   90.00000768
_cell_angle_gamma   120.00006457
_symmetry_Int_Tables_number   1
_chemical_formula_structural   MgMoW2(Se2S)2
_chemical_formula_sum   'Mg1 Mo1 W2 Se4 S2'
_cell_volume   348.69073179
_cell_formula_units_Z   1
loop_
 _symmetry_equiv_pos_site_id
 _symmetry_equiv_pos_as_xyz
  1  'x, y, z'
loop_
 _atom_site_type_symbol
 _atom_site_label
 _atom_site_symmetry_multiplicity
 _atom_site_fract_x
 _atom_site_fract_y
 _atom_site_fract_z
 _atom_site_occupancy
  Mg  Mg0  1  0.99997100  0.99994100  0.24136400  1
  Mo  Mo0  1  0.66671900  0.33344000  0.35400100  1
  W  W0  1  0.33316400  0.66632900  0.10709800  1
  W  W1  1  0.33344200  0.66688400  0.57867700  1
  Se  Se0  1  0.66652600  0.33305200  0.06162200  1
  Se  Se1  1  0.66674800  0.33349600  0.53318800  1
  Se  Se2  1  0.66646600  0.33293200  0.15276100  1
  Se  Se3  1  0.66679500  0.33359100  0.62414600  1
  S  S0  1  0.33340200  0.66680500  0.39476200  1
  S  S1  1  0.33336600  0.66673300  0.31272100  1
loop_
_geom_bond_atom_site_label_1
_geom_bond_atom_site_label_2
_geom_bond_distance
_geom_bond_site_symmetry_2
Mo0 S0 2.431008 1_545
Mo0 S0 2.431105 1_555
Mo0 S0 2.431107 1_655
Mo0 S1 2.443195 1_555
Mo0 S1 2.443198 1_655
Mo0 S1 2.443316 1_545
Se0 W0 2.544786 1_655
Se0 W0 2.544788 1_555
Se0 W0 2.544975 1_545
Se1 W1 2.545063 1_545
Se1 W1 2.545229 1_555
Se1 W1 2.545229 1_655
Se2 W0 2.549363 1_545
Se2 W0 2.549580 1_655
Se2 W0 2.549581 1_555
Se3 W1 2.544637 1_555
Se3 W1 2.544640 1_655
Se3 W1 2.544751 1_545
