# generated using pymatgen
data_Na3LaSi2GeSO12
_symmetry_space_group_name_H-M   'P 1'
_cell_length_a   9.45002920
_cell_length_b   9.45002883
_cell_length_c   22.62976616
_cell_angle_alpha   85.15802640
_cell_angle_beta   94.84197368
_cell_angle_gamma   117.39837182
_symmetry_Int_Tables_number   1
_chemical_formula_structural   Na3LaSi2GeSO12
_chemical_formula_sum   'Na18 La6 Si12 Ge6 S6 O72'
_cell_volume   1785.44278638
_cell_formula_units_Z   6
loop_
 _symmetry_equiv_pos_site_id
 _symmetry_equiv_pos_as_xyz
  1  'x, y, z'
loop_
 _atom_site_type_symbol
 _atom_site_label
 _atom_site_symmetry_multiplicity
 _atom_site_fract_x
 _atom_site_fract_y
 _atom_site_fract_z
 _atom_site_occupancy
  Na  Na0  1  0.64086412  -0.00054359  0.24059092  1
  Na  Na1  1  -0.00027238  0.62942278  0.25244218  1
  Na  Na2  1  0.00054359  0.35913588  0.74059092  1
  Na  Na3  1  0.37057722  0.00027238  0.75244218  1
  Na  Na4  1  0.30753112  0.33278941  0.57392392  1
  Na  Na5  1  0.66639462  0.96275578  0.58577518  1
  Na  Na6  1  0.66721059  0.69246888  0.07392392  1
  Na  Na7  1  0.03724422  0.33360538  0.08577518  1
  Na  Na8  1  0.97419712  0.66612341  0.90725792  1
  Na  Na9  1  0.33306062  0.29608978  0.91910918  1
  Na  Na10  1  0.33387659  0.02580288  0.40725792  1
  Na  Na11  1  0.70391022  0.66693938  0.41910918  1
  Na  Na12  1  0.98687735  0.01052076  0.50435050  1
  Na  Na13  1  0.98947924  0.01312265  0.00435050  1
  Na  Na14  1  0.65354435  0.34385376  0.83768350  1
  Na  Na15  1  0.65614624  0.34645565  0.33768350  1
  Na  Na16  1  0.32021035  0.67718776  0.17101750  1
  Na  Na17  1  0.32281224  0.67978965  0.67101750  1
  La  La0  1  0.00726210  0.01761067  0.35081801  1
  La  La1  1  0.98238933  0.99273790  0.85081801  1
  La  La2  1  0.67392910  0.35094367  0.68415101  1
  La  La3  1  0.64905633  0.32607090  0.18415101  1
  La  La4  1  0.34059510  0.68427767  0.01748501  1
  La  La5  1  0.31572233  0.65940490  0.51748501  1
  Si  Si0  1  0.28174904  0.97015147  0.25433896  1
  Si  Si1  1  0.70002188  0.70262757  0.25327402  1
  Si  Si2  1  0.29737243  0.29997812  0.75327402  1
  Si  Si3  1  0.02984853  0.71825096  0.75433896  1
  Si  Si4  1  0.94841604  0.30348447  0.58767196  1
  Si  Si5  1  0.36668888  0.03596057  0.58660702  1
  Si  Si6  1  0.96403943  0.63331112  0.08660702  1
  Si  Si7  1  0.69651553  0.05158396  0.08767196  1
  Si  Si8  1  0.61508204  0.63681847  0.92100596  1
  Si  Si9  1  0.03335488  0.36929457  0.91994102  1
  Si  Si10  1  0.63070543  0.96664512  0.41994102  1
  Si  Si11  1  0.36318153  0.38491796  0.42100596  1
  Ge  Ge0  1  0.07301913  0.03885002  0.64814932  1
  Ge  Ge1  1  0.96114998  0.92698087  0.14814932  1
  Ge  Ge2  1  0.73968613  0.37218302  0.98148232  1
  Ge  Ge3  1  0.62781698  0.26031387  0.48148232  1
  Ge  Ge4  1  0.40635213  0.70551702  0.31481632  1
  Ge  Ge5  1  0.29448298  0.59364787  0.81481632  1
  S  S0  1  0.02416005  0.32827531  0.24358790  1
  S  S1  1  0.67172469  0.97583995  0.74358790  1
  S  S2  1  0.69082705  0.66160831  0.57692090  1
  S  S3  1  0.33839169  0.30917295  0.07692090  1
  S  S4  1  0.35749305  0.99494231  0.91025490  1
  S  S5  1  0.00505769  0.64250695  0.41025490  1
  O  O0  1  0.21574430  0.99454808  0.31338388  1
  O  O1  1  0.79892215  0.79305043  0.31079885  1
  O  O2  1  0.01591572  0.23512802  0.30011426  1
  O  O3  1  0.20694957  0.20107785  0.81079885  1
  O  O4  1  0.00545192  0.78425570  0.81338388  1
  O  O5  1  0.76487198  0.98408428  0.80011426  1
  O  O6  1  0.75835980  0.97718751  0.69262703  1
  O  O7  1  0.18425641  0.21489296  0.69063847  1
  O  O8  1  0.06380198  0.86857576  0.69682691  1
  O  O9  1  0.78510704  0.81574359  0.19063847  1
  O  O10  1  0.02281249  0.24164020  0.19262703  1
  O  O11  1  0.13142424  0.93619802  0.19682691  1
  O  O12  1  0.88241130  0.32788108  0.64671688  1
  O  O13  1  0.46558915  0.12638343  0.64413185  1
  O  O14  1  0.68258272  0.56846102  0.63344726  1
  O  O15  1  0.87361657  0.53441085  0.14413185  1
  O  O16  1  0.67211892  0.11758870  0.14671688  1
  O  O17  1  0.43153898  0.31741728  0.13344726  1
  O  O18  1  0.42502680  0.31052051  0.02596003  1
  O  O19  1  0.85092341  0.54822596  0.02397147  1
  O  O20  1  0.73046898  0.20190876  0.03015991  1
  O  O21  1  0.45177404  0.14907659  0.52397147  1
  O  O22  1  0.68947949  0.57497320  0.52596003  1
  O  O23  1  0.79809124  0.26953102  0.53015991  1
  O  O24  1  0.54907730  0.66121508  0.98005088  1
  O  O25  1  0.13225515  0.45971743  0.97746585  1
  O  O26  1  0.34924872  0.90179502  0.96678126  1
  O  O27  1  0.54028257  0.86774485  0.47746585  1
  O  O28  1  0.33878492  0.45092270  0.48005088  1
  O  O29  1  0.09820498  0.65075128  0.46678126  1
  O  O30  1  0.09169280  0.64385451  0.35929403  1
  O  O31  1  0.51758941  0.88155996  0.35730547  1
  O  O32  1  0.39713498  0.53524276  0.36349391  1
  O  O33  1  0.11844004  0.48241059  0.85730547  1
  O  O34  1  0.35614549  0.90830720  0.85929403  1
  O  O35  1  0.46475724  0.60286502  0.86349391  1
  O  O36  1  0.98450789  0.79101023  0.41150205  1
  O  O37  1  0.80882805  0.98697193  0.41805031  1
  O  O38  1  0.22719591  0.20673368  0.40819338  1
  O  O39  1  0.01302807  0.19117195  0.91805031  1
  O  O40  1  0.20898977  0.01549211  0.91150205  1
  O  O41  1  0.79326632  0.77280409  0.90819338  1
  O  O42  1  0.96014699  0.12378517  0.59576992  1
  O  O43  1  0.18972479  0.04543760  0.58613962  1
  O  O44  1  0.83237971  0.81922864  0.57840351  1
  O  O45  1  0.95456240  0.81027521  0.08613962  1
  O  O46  1  0.87621483  0.03985301  0.09576992  1
  O  O47  1  0.18077136  0.16762029  0.07840351  1
  O  O48  1  0.65117489  0.12434323  0.74483505  1
  O  O49  1  0.47549505  0.32030493  0.75138331  1
  O  O50  1  0.89386291  0.54006668  0.74152638  1
  O  O51  1  0.67969507  0.52450495  0.25138331  1
  O  O52  1  0.87565677  0.34882511  0.24483505  1
  O  O53  1  0.45993332  0.10613709  0.24152638  1
  O  O54  1  0.62681399  0.45711817  0.92910292  1
  O  O55  1  0.85639179  0.37877060  0.91947262  1
  O  O56  1  0.49904671  0.15256164  0.91173651  1
  O  O57  1  0.62122940  0.14360821  0.41947262  1
  O  O58  1  0.54288183  0.37318601  0.42910292  1
  O  O59  1  0.84743836  0.50095329  0.41173651  1
  O  O60  1  0.31784089  0.45767723  0.07816905  1
  O  O61  1  0.14216105  0.65363893  0.08471731  1
  O  O62  1  0.56052891  0.87340068  0.07486038  1
  O  O63  1  0.34636107  0.85783895  0.58471731  1
  O  O64  1  0.54232277  0.68215911  0.57816905  1
  O  O65  1  0.12659932  0.43947109  0.57486038  1
  O  O66  1  0.29347999  0.79045217  0.26243692  1
  O  O67  1  0.52305779  0.71210460  0.25280662  1
  O  O68  1  0.16571271  0.48589564  0.24507051  1
  O  O69  1  0.28789540  0.47694221  0.75280662  1
  O  O70  1  0.20954783  0.70652001  0.76243692  1
  O  O71  1  0.51410436  0.83428729  0.74507051  1
loop_
_geom_bond_atom_site_label_1
_geom_bond_atom_site_label_2
_geom_bond_distance
_geom_bond_site_symmetry_2
Na0 O16 2.290948 1_555
Na0 O53 2.352942 1_555
Na0 O67 2.415075 1_545
Na1 O52 2.370070 1_455
Na1 O66 2.477322 1_555
Na1 O30 2.492508 1_555
Na1 O68 2.523545 1_555
Na1 O15 2.669759 1_455
Na1 O51 2.713331 1_455
Na1 O11 2.804487 1_555
Na2 O12 2.290949 1_455
Na2 O50 2.352942 1_455
Na2 O69 2.415075 1_555
Na3 O48 2.370070 1_555
Na3 O70 2.477322 1_545
Na3 O34 2.492508 1_545
Na3 O71 2.523545 1_545
Na3 O13 2.669759 1_555
Na3 O49 2.713331 1_555
Na3 O8 2.804487 1_545
Na4 O28 2.290932 1_555
Na4 O65 2.352960 1_555
Na4 O43 2.415075 1_555
Na5 O64 2.370059 1_555
Na5 O42 2.477322 1_565
Na5 O6 2.492508 1_555
Na5 O44 2.523545 1_555
Na5 O27 2.669739 1_555
Na5 O63 2.713343 1_555
Na5 O23 2.804487 1_565
Na6 O24 2.290932 1_554
Na6 O62 2.352960 1_555
Na6 O45 2.415075 1_555
Na7 O60 2.370059 1_555
Na7 O46 2.477322 1_455
Na7 O10 2.492508 1_555
Na7 O47 2.523545 1_555
Na7 O25 2.669739 1_554
Na7 O61 2.713343 1_555
Na7 O20 2.804487 1_455
Na8 O4 2.290948 1_655
Na8 O41 2.352942 1_555
Na8 O55 2.415083 1_555
Na9 O40 2.370070 1_555
Na9 O54 2.477328 1_555
Na9 O18 2.492490 1_556
Na9 O56 2.523565 1_555
Na9 O3 2.669759 1_555
Na9 O39 2.713331 1_555
Na9 O35 2.804487 1_555
Na10 O0 2.290949 1_545
Na10 O38 2.352942 1_555
Na10 O57 2.415083 1_555
Na11 O36 2.370070 1_555
Na11 O58 2.477328 1_555
Na11 O22 2.492490 1_555
Na11 O59 2.523565 1_555
Na11 O1 2.669759 1_555
Na11 O37 2.713331 1_555
Na11 O32 2.804487 1_555
Na12 O44 2.383348 1_545
Na12 O37 2.422525 1_545
Na12 O43 2.476119 1_655
Na12 O42 2.490034 1_555
Na13 O47 2.383348 1_655
Na13 O39 2.422525 1_654
Na13 O45 2.476119 1_545
Na13 O46 2.490034 1_555
Na14 O56 2.383348 1_555
Na14 O49 2.422525 1_555
Na14 O55 2.476119 1_555
Na14 O54 2.490034 1_555
Na15 O59 2.383348 1_555
Na15 O51 2.422525 1_555
Na15 O57 2.476119 1_555
Na15 O58 2.490034 1_555
Na16 O68 2.383348 1_555
Na16 O61 2.422525 1_555
Na16 O67 2.476119 1_555
Na16 O66 2.490034 1_555
Na17 O71 2.383348 1_555
Na17 O63 2.422525 1_555
Na17 O69 2.476119 1_555
Na17 O70 2.490034 1_555
La0 O2 2.238634 1_555
La0 O0 2.314035 1_545
La0 O1 2.319030 1_445
La0 O36 2.376393 1_445
La0 O38 2.391058 1_555
La0 O37 2.413011 1_445
La1 O5 2.238634 1_555
La1 O4 2.314035 1_655
La1 O3 2.319030 1_665
La1 O40 2.376393 1_665
La1 O41 2.391058 1_555
La1 O39 2.413011 1_665
La2 O14 2.238634 1_555
La2 O12 2.314035 1_555
La2 O13 2.319030 1_555
La2 O48 2.376393 1_555
La2 O50 2.391058 1_555
La2 O49 2.413011 1_555
La3 O17 2.238634 1_555
La3 O16 2.314035 1_555
La3 O15 2.319030 1_555
La3 O52 2.376393 1_555
La3 O53 2.391058 1_555
La3 O51 2.413011 1_555
La4 O26 2.238634 1_554
La4 O24 2.314035 1_554
La4 O25 2.319030 1_554
La4 O60 2.376393 1_555
La4 O62 2.391058 1_555
La4 O61 2.413011 1_555
La5 O29 2.238634 1_555
La5 O28 2.314035 1_555
La5 O27 2.319030 1_555
La5 O64 2.376393 1_555
La5 O65 2.391058 1_555
La5 O63 2.413011 1_555
Ge0 O7 1.813023 1_555
Ge0 O43 1.836486 1_555
Ge0 O8 1.843419 1_545
Ge0 O42 1.897595 1_455
Ge1 O9 1.813023 1_555
Ge1 O45 1.836486 1_555
Ge1 O11 1.843419 1_655
Ge1 O46 1.897595 1_565
Ge2 O19 1.813023 1_556
Ge2 O55 1.836486 1_555
Ge2 O20 1.843419 1_556
Ge2 O54 1.897595 1_555
Ge3 O21 1.813023 1_555
Ge3 O57 1.836486 1_555
Ge3 O23 1.843419 1_555
Ge3 O58 1.897595 1_555
Ge4 O31 1.813023 1_555
Ge4 O67 1.836486 1_555
Ge4 O32 1.843419 1_555
Ge4 O66 1.897595 1_555
Ge5 O33 1.813023 1_555
Ge5 O69 1.836486 1_555
Ge5 O35 1.843419 1_555
Ge5 O70 1.897595 1_555
O0 Si0 1.597692 1_555
O1 Si1 1.595513 1_555
O2 S0 1.476760 1_555
O3 Si2 1.595513 1_555
O4 Si3 1.597692 1_555
O5 S1 1.476760 1_555
O6 S1 1.465503 1_555
O7 Si2 1.715763 1_555
O8 Si3 1.775872 1_555
O9 Si1 1.715763 1_555
O10 S0 1.465503 1_555
O11 Si0 1.775872 1_555
O12 Si4 1.597692 1_555
O13 Si5 1.595513 1_555
O14 S2 1.476760 1_555
O15 Si6 1.595513 1_555
O16 Si7 1.597692 1_555
O17 S3 1.476760 1_555
O18 S3 1.465503 1_555
O19 Si6 1.715763 1_555
O20 Si7 1.775872 1_555
O21 Si5 1.715763 1_555
O22 S2 1.465503 1_555
O23 Si4 1.775872 1_555
O24 Si8 1.597692 1_555
O25 Si9 1.595513 1_555
O26 S4 1.476760 1_555
O27 Si10 1.595513 1_555
O28 Si11 1.597692 1_555
O29 S5 1.476760 1_555
O30 S5 1.465503 1_555
O31 Si10 1.715763 1_555
O32 Si11 1.775872 1_555
O33 Si9 1.715763 1_555
O34 S4 1.465503 1_555
O35 Si8 1.775872 1_555
O36 S5 1.505444 1_655
O37 Si10 1.607885 1_555
O38 Si11 1.612086 1_555
O39 Si9 1.607885 1_555
O40 S4 1.505444 1_545
O41 Si8 1.612086 1_555
O42 Si4 1.745545 1_555
O43 Si5 1.714487 1_555
O44 S2 1.475207 1_555
O45 Si6 1.714487 1_555
O46 Si7 1.745545 1_555
O47 S3 1.475207 1_555
O48 S1 1.505444 1_545
O49 Si2 1.607885 1_555
O50 Si3 1.612086 1_655
O51 Si1 1.607885 1_555
O52 S0 1.505444 1_655
O53 Si0 1.612086 1_545
O54 Si8 1.745559 1_555
O55 Si9 1.714471 1_655
O56 S4 1.475205 1_545
O57 Si10 1.714471 1_545
O58 Si11 1.745559 1_555
O59 S5 1.475205 1_655
O60 S3 1.505461 1_555
O61 Si6 1.607870 1_455
O62 Si7 1.612078 1_565
O63 Si5 1.607870 1_565
O64 S2 1.505461 1_555
O65 Si4 1.612078 1_455
O66 Si0 1.745545 1_555
O67 Si1 1.714487 1_555
O68 S0 1.475207 1_555
O69 Si2 1.714487 1_555
O70 Si3 1.745545 1_555
O71 S1 1.475207 1_555
