# generated using pymatgen
data_Na2Ca2Si3Ge6(S3O16)3
_symmetry_space_group_name_H-M   'P 1'
_cell_length_a   17.13501008
_cell_length_b   8.58844823
_cell_length_c   22.48068085
_cell_angle_alpha   90.04604936
_cell_angle_beta   89.27816091
_cell_angle_gamma   120.08105025
_symmetry_Int_Tables_number   1
_chemical_formula_structural   Na2Ca2Si3Ge6(S3O16)3
_chemical_formula_sum   'Na6 Ca6 Si9 Ge18 S27 O144'
_cell_volume   2862.46778585
_cell_formula_units_Z   3
loop_
 _symmetry_equiv_pos_site_id
 _symmetry_equiv_pos_as_xyz
  1  'x, y, z'
loop_
 _atom_site_type_symbol
 _atom_site_label
 _atom_site_symmetry_multiplicity
 _atom_site_fract_x
 _atom_site_fract_y
 _atom_site_fract_z
 _atom_site_occupancy
  Na  Na0  1  0.00104512  0.98918348  0.49695565  1
  Na  Na1  1  0.49965665  0.01338255  0.99947846  1
  Na  Na2  1  0.33161304  0.32627379  0.83629304  1
  Na  Na3  1  0.83456825  0.33475625  0.83285098  1
  Na  Na4  1  0.32227258  0.31714265  0.32895838  1
  Na  Na5  1  0.83364987  0.34026347  0.33457717  1
  Ca  Ca0  1  0.00471680  0.99277601  0.35221451  1
  Ca  Ca1  1  0.50000166  0.01094779  0.85449583  1
  Ca  Ca2  1  0.99862651  0.01048765  0.65228962  1
  Ca  Ca3  1  0.49859424  0.98813231  0.15222108  1
  Ca  Ca4  1  0.84048853  0.33736638  0.97983884  1
  Ca  Ca5  1  0.33977039  0.34111795  0.47770802  1
  Si  Si0  1  0.15435161  0.00559008  0.24932577  1
  Si  Si1  1  0.64993535  0.99117334  0.25075649  1
  Si  Si2  1  0.15046846  0.30888415  0.75095798  1
  Si  Si3  1  0.69009580  0.03893056  0.58060298  1
  Si  Si4  1  0.18902665  0.34143572  0.07931519  1
  Si  Si5  1  0.52114944  0.38840436  0.92316495  1
  Si  Si6  1  0.16479180  0.93617320  0.91719998  1
  Si  Si7  1  0.66284856  0.39072116  0.41683214  1
  Si  Si8  1  0.01890367  0.65377608  0.42259196  1
  Ge  Ge0  1  0.51635392  0.02941584  0.35356865  1
  Ge  Ge1  1  0.01824374  0.00665333  0.85625998  1
  Ge  Ge2  1  0.50758977  0.00263306  0.64520315  1
  Ge  Ge3  1  0.01812010  0.01208379  0.14789651  1
  Ge  Ge4  1  0.32283930  0.32535516  0.68367616  1
  Ge  Ge5  1  0.83098270  0.31938475  0.67651987  1
  Ge  Ge6  1  0.32328572  0.34633686  0.18153093  1
  Ge  Ge7  1  0.82535408  0.31956871  0.18551630  1
  Ge  Ge8  1  0.32257430  0.30941370  0.97528698  1
  Ge  Ge9  1  0.82095693  0.33269226  0.47385763  1
  Ge  Ge10  1  0.16429965  0.67129018  0.02516002  1
  Ge  Ge11  1  0.66576169  0.66121673  0.02449539  1
  Ge  Ge12  1  0.16938868  0.67776878  0.51740598  1
  Ge  Ge13  1  0.66159216  0.66542087  0.51978726  1
  Ge  Ge14  1  0.15210657  0.66595520  0.31149734  1
  Ge  Ge15  1  0.67232588  0.66737836  0.31207274  1
  Ge  Ge16  1  0.17017490  0.66969093  0.81502496  1
  Ge  Ge17  1  0.65738634  0.65795482  0.81660259  1
  S  S0  1  0.34636181  0.69844908  0.25642580  1
  S  S1  1  0.85159262  0.69979824  0.24413832  1
  S  S2  1  0.99850188  0.29691751  0.24575573  1
  S  S3  1  0.50055780  0.30294928  0.25421733  1
  S  S4  1  0.65443900  0.30681004  0.74624978  1
  S  S5  1  0.99807642  0.69420000  0.75325224  1
  S  S6  1  0.50023177  0.69813139  0.74620915  1
  S  S7  1  0.35268976  0.00442057  0.74385192  1
  S  S8  1  0.84331859  0.99435484  0.75571949  1
  S  S9  1  0.48092730  0.33037448  0.58843810  1
  S  S10  1  0.97880766  0.34600092  0.57875324  1
  S  S11  1  0.18846798  0.02657066  0.58225802  1
  S  S12  1  0.33325169  0.63675462  0.58689013  1
  S  S13  1  0.82786571  0.61288156  0.57914171  1
  S  S14  1  0.47607566  0.60835207  0.08008291  1
  S  S15  1  0.98054456  0.63234119  0.08772596  1
  S  S16  1  0.32904713  0.04437172  0.07862490  1
  S  S17  1  0.83436883  0.02767272  0.08686043  1
  S  S18  1  0.68865442  0.34811918  0.08254636  1
  S  S19  1  0.30541145  0.65772499  0.92105235  1
  S  S20  1  0.81313426  0.68334390  0.91126480  1
  S  S21  1  0.02661661  0.37081016  0.91261458  1
  S  S22  1  0.66751062  0.94326940  0.91837135  1
  S  S23  1  0.31332197  0.94180017  0.41126169  1
  S  S24  1  0.80655873  0.95412933  0.42084990  1
  S  S25  1  0.16642186  0.39513710  0.41684340  1
  S  S26  1  0.52785514  0.68314884  0.41220924  1
  O  O0  1  0.13069587  0.07198708  0.30872279  1
  O  O1  1  0.60563707  0.04553101  0.30865240  1
  O  O2  1  0.40813481  0.78469135  0.30712323  1
  O  O3  1  0.90064961  0.75903702  0.29934031  1
  O  O4  1  0.47826777  0.17561660  0.30742065  1
  O  O5  1  0.97390572  0.18942700  0.29969109  1
  O  O6  1  0.10523351  0.16550121  0.80902126  1
  O  O7  1  0.62333685  0.19776709  0.80014245  1
  O  O8  1  0.47955586  0.76413396  0.80008234  1
  O  O9  1  0.97591103  0.77520938  0.80642443  1
  O  O10  1  0.40422543  0.04594379  0.79822917  1
  O  O11  1  0.90255485  0.02908296  0.80688120  1
  O  O12  1  0.39931682  0.97055298  0.69241884  1
  O  O13  1  0.87297684  0.95293166  0.70047681  1
  O  O14  1  0.09643687  0.24836109  0.69177780  1
  O  O15  1  0.59350616  0.22116348  0.69453624  1
  O  O16  1  0.01473512  0.79730997  0.69911593  1
  O  O17  1  0.51718707  0.81972234  0.69317782  1
  O  O18  1  0.37514489  0.80075722  0.20133053  1
  O  O19  1  0.89526787  0.82185133  0.19277240  1
  O  O20  1  0.01221742  0.20918496  0.19220551  1
  O  O21  1  0.51835343  0.23177750  0.20039724  1
  O  O22  1  0.08459044  0.96026978  0.19308989  1
  O  O23  1  0.59650543  0.94301293  0.19118522  1
  O  O24  1  0.43449047  0.36485568  0.64029754  1
  O  O25  1  0.94195891  0.37688284  0.63905850  1
  O  O26  1  0.24391084  0.11520182  0.63802314  1
  O  O27  1  0.75281391  0.11959528  0.64086630  1
  O  O28  1  0.31503297  0.51586267  0.64077404  1
  O  O29  1  0.81580401  0.50289353  0.63561805  1
  O  O30  1  0.43814881  0.50300461  0.13809437  1
  O  O31  1  0.93515260  0.50550150  0.13932760  1
  O  O32  1  0.31860019  0.13109463  0.13248978  1
  O  O33  1  0.81302404  0.11257439  0.13935569  1
  O  O34  1  0.25362856  0.39399455  0.13797986  1
  O  O35  1  0.74453254  0.36951019  0.13690757  1
  O  O36  1  0.23532242  0.29896058  0.02252306  1
  O  O37  1  0.72808961  0.32292834  0.02855606  1
  O  O38  1  0.42151725  0.51249911  0.02838694  1
  O  O39  1  0.93143295  0.56651328  0.03293920  1
  O  O40  1  0.34514548  0.15273741  0.02291989  1
  O  O41  1  0.85440000  0.13528265  0.03305133  1
  O  O42  1  0.22940181  0.13718214  0.52990575  1
  O  O43  1  0.73629526  0.17440244  0.52459587  1
  O  O44  1  0.35571722  0.56994658  0.53423157  1
  O  O45  1  0.84531602  0.53250383  0.52575740  1
  O  O46  1  0.42962568  0.28906185  0.53447585  1
  O  O47  1  0.92013809  0.32837127  0.52976568  1
  O  O48  1  0.26085520  0.68342480  0.97393830  1
  O  O49  1  0.77642130  0.71181775  0.96793872  1
  O  O50  1  0.07428729  0.44338317  0.96887028  1
  O  O51  1  0.59232795  0.48795268  0.97809496  1
  O  O52  1  0.14522338  0.80954210  0.97610992  1
  O  O53  1  0.66496012  0.84683904  0.97458208  1
  O  O54  1  0.27808632  0.84283898  0.47032427  1
  O  O55  1  0.76310040  0.84062219  0.47505147  1
  O  O56  1  0.16413315  0.48283842  0.47624653  1
  O  O57  1  0.64475203  0.47796115  0.47712203  1
  O  O58  1  0.08931257  0.70287167  0.47903744  1
  O  O59  1  0.57546967  0.70723632  0.46993959  1
  O  O60  1  0.05994629  0.61758162  0.35995550  1
  O  O61  1  0.57549010  0.65783634  0.36125110  1
  O  O62  1  0.25220585  0.85080355  0.36113522  1
  O  O63  1  0.75661851  0.87487260  0.36540164  1
  O  O64  1  0.17535829  0.50108736  0.36265895  1
  O  O65  1  0.68733494  0.51739828  0.35721540  1
  O  O66  1  0.07261238  0.48776853  0.86037905  1
  O  O67  1  0.56191229  0.50031881  0.85785446  1
  O  O68  1  0.18735122  0.85860845  0.85605169  1
  O  O69  1  0.67825505  0.86073920  0.86181807  1
  O  O70  1  0.25695229  0.63767280  0.86466976  1
  O  O71  1  0.75175278  0.64702001  0.85880150  1
  O  O72  1  0.00488016  0.82190675  0.42314408  1
  O  O73  1  0.51990573  0.84722388  0.40637749  1
  O  O74  1  0.40132685  0.94831150  0.40372903  1
  O  O75  1  0.89716476  0.98187693  0.41916445  1
  O  O76  1  0.08235211  0.22408868  0.41895223  1
  O  O77  1  0.57120613  0.19662418  0.40838340  1
  O  O78  1  0.01822808  0.18942162  0.90625441  1
  O  O79  1  0.51038756  0.19431627  0.92242073  1
  O  O80  1  0.07184142  0.94389330  0.90933433  1
  O  O81  1  0.58358626  0.94619301  0.91750439  1
  O  O82  1  0.39625601  0.81290975  0.91900386  1
  O  O83  1  0.90061940  0.85299999  0.90179390  1
  O  O84  1  0.49152090  0.17060137  0.60089866  1
  O  O85  1  0.98445772  0.18192159  0.58123127  1
  O  O86  1  0.09677552  0.98948045  0.58920118  1
  O  O87  1  0.59131349  0.02135094  0.59528680  1
  O  O88  1  0.41152007  0.81930975  0.59935425  1
  O  O89  1  0.90628191  0.79199578  0.58442448  1
  O  O90  1  0.48452258  0.78575240  0.08070021  1
  O  O91  1  0.98722665  0.80985418  0.09745051  1
  O  O92  1  0.40565482  0.01493991  0.08159939  1
  O  O93  1  0.90939852  0.99847992  0.10033030  1
  O  O94  1  0.08970022  0.16425621  0.09232220  1
  O  O95  1  0.59647845  0.20236836  0.08846143  1
  O  O96  1  0.34466178  0.16888500  0.73286505  1
  O  O97  1  0.83527568  0.16300963  0.74823219  1
  O  O98  1  0.25214118  0.32220016  0.74340361  1
  O  O99  1  0.74732440  0.33378612  0.73415345  1
  O  O100  1  0.42357442  0.51449627  0.73431504  1
  O  O101  1  0.91557028  0.50872048  0.74677100  1
  O  O102  1  0.34438859  0.51896599  0.24756797  1
  O  O103  1  0.84220615  0.51651203  0.23377265  1
  O  O104  1  0.42259846  0.32917088  0.24897252  1
  O  O105  1  0.92280685  0.33450225  0.23420163  1
  O  O106  1  0.25610126  0.17644836  0.23224342  1
  O  O107  1  0.75134001  0.18072972  0.24340202  1
  O  O108  1  0.30840987  0.48747134  0.92432360  1
  O  O109  1  0.82405559  0.52476697  0.91333692  1
  O  O110  1  0.42318367  0.38276939  0.92770470  1
  O  O111  1  0.93650155  0.35037803  0.91159837  1
  O  O112  1  0.25289061  0.13767798  0.92194154  1
  O  O113  1  0.74778683  0.12242992  0.91674880  1
  O  O114  1  0.32421905  0.12170307  0.41461756  1
  O  O115  1  0.80719237  0.12809971  0.42505940  1
  O  O116  1  0.24729377  0.37828387  0.41695425  1
  O  O117  1  0.75117080  0.36608641  0.42236995  1
  O  O118  1  0.43862416  0.52258467  0.41267290  1
  O  O119  1  0.92160731  0.46078841  0.42837434  1
  O  O120  1  0.17440574  0.51367353  0.06878660  1
  O  O121  1  0.69157235  0.52784819  0.08034255  1
  O  O122  1  0.07154367  0.65029444  0.08332506  1
  O  O123  1  0.56930006  0.62978698  0.07782872  1
  O  O124  1  0.24308280  0.86807569  0.07441476  1
  O  O125  1  0.74809522  0.84835322  0.07895484  1
  O  O126  1  0.19205696  0.85442372  0.57890318  1
  O  O127  1  0.67344552  0.83599359  0.56967724  1
  O  O128  1  0.25044048  0.64970912  0.57948222  1
  O  O129  1  0.74323045  0.61804970  0.57527019  1
  O  O130  1  0.07040201  0.50867798  0.57608220  1
  O  O131  1  0.57081293  0.49453199  0.58347250  1
  O  O132  1  0.16112202  0.82171291  0.25709466  1
  O  O133  1  0.67054739  0.83149269  0.26866107  1
  O  O134  1  0.25287808  0.65597188  0.26948466  1
  O  O135  1  0.75901270  0.67360724  0.25006831  1
  O  O136  1  0.08337526  0.47336206  0.25190800  1
  O  O137  1  0.58258276  0.48033186  0.26537901  1
  O  O138  1  0.17077061  0.51044618  0.76811214  1
  O  O139  1  0.66284926  0.48756663  0.75431411  1
  O  O140  1  0.07729484  0.67358264  0.76515954  1
  O  O141  1  0.58469193  0.68726766  0.75202663  1
  O  O142  1  0.26193026  0.84552054  0.74918929  1
  O  O143  1  0.74927039  0.83532125  0.76630386  1
loop_
_geom_bond_atom_site_label_1
_geom_bond_atom_site_label_2
_geom_bond_distance
_geom_bond_site_symmetry_2
Na0 O72 2.215790 1_555
Na0 O75 2.489355 1_455
Na0 O76 2.492530 1_565
Na0 O89 2.557247 1_455
Na0 O85 2.619792 1_465
Na0 O86 2.659444 1_555
Na1 O79 2.271411 1_555
Na1 O92 2.439150 1_556
Na1 O82 2.528688 1_545
Na1 O81 2.561383 1_545
Na1 O90 2.590137 1_546
Na1 O95 2.601437 1_556
Na2 O112 2.428944 1_555
Na2 O110 2.497369 1_555
Na2 O98 2.498002 1_555
Na2 O108 2.553171 1_555
Na2 O96 2.751039 1_555
Na2 O100 2.777292 1_555
Na3 O101 2.400344 1_555
Na3 O97 2.409858 1_555
Na3 O111 2.458713 1_555
Na3 O109 2.500222 1_555
Na3 O113 2.512054 1_555
Na3 O99 2.688670 1_555
Na4 O102 2.413526 1_555
Na4 O104 2.437952 1_555
Na4 O106 2.481409 1_555
Na4 O116 2.539733 1_555
Na4 O114 2.567044 1_555
Na4 O118 2.681908 1_555
Na4 O0 2.919502 1_555
Na5 O117 2.486971 1_555
Na5 O107 2.489744 1_555
Na5 O119 2.510366 1_555
Na5 O115 2.611126 1_555
Na5 O103 2.687548 1_555
Na5 O105 2.723401 1_555
Ca0 O0 2.134079 1_565
Ca0 O72 2.168902 1_555
Ca0 O3 2.254697 1_455
Ca0 O76 2.315921 1_565
Ca0 O75 2.329751 1_455
Ca0 O5 2.331987 1_465
Ca1 O79 2.136722 1_555
Ca1 O10 2.220590 1_555
Ca1 O82 2.250355 1_545
Ca1 O7 2.252245 1_555
Ca1 O81 2.284253 1_545
Ca1 O8 2.318317 1_545
Ca2 O14 2.091143 1_655
Ca2 O13 2.220025 1_545
Ca2 O16 2.247982 1_645
Ca2 O86 2.261880 1_645
Ca2 O85 2.269464 1_555
Ca2 O89 2.330742 1_545
Ca3 O23 2.102719 1_555
Ca3 O18 2.194239 1_555
Ca3 O21 2.227482 1_565
Ca3 O95 2.259018 1_565
Ca3 O90 2.291185 1_555
Ca3 O92 2.354042 1_565
Ca4 O37 2.152163 1_556
Ca4 O39 2.166852 1_556
Ca4 O111 2.196575 1_555
Ca4 O41 2.219314 1_556
Ca4 O113 2.248446 1_555
Ca4 O109 2.318090 1_555
Ca5 O42 2.155948 1_555
Ca5 O118 2.174987 1_555
Ca5 O46 2.222515 1_555
Ca5 O44 2.240102 1_555
Ca5 O116 2.245093 1_555
Ca5 O114 2.266179 1_555
Ge0 O1 1.768696 1_555
Ge0 O77 1.771286 1_555
Ge0 O4 1.979747 1_555
Ge0 O73 1.990427 1_545
Ge0 O74 2.051964 1_545
Ge0 O2 2.254905 1_545
Ge1 O80 1.755696 1_545
Ge1 O6 1.770508 1_555
Ge1 O78 1.929947 1_555
Ge1 O83 2.033579 1_445
Ge1 O9 2.074598 1_445
Ge1 O11 2.374360 1_455
Ge2 O87 1.752629 1_555
Ge2 O84 1.885808 1_555
Ge2 O88 1.921748 1_545
Ge2 O17 1.980950 1_545
Ge2 O12 2.020642 1_545
Ge2 O15 2.046408 1_555
Ge3 O22 1.750845 1_545
Ge3 O94 1.769294 1_555
Ge3 O91 1.916564 1_445
Ge3 O20 2.008574 1_555
Ge3 O93 2.111744 1_445
Ge3 O19 2.149383 1_445
Ge4 O98 1.788101 1_555
Ge4 O96 1.919648 1_555
Ge4 O26 1.930039 1_555
Ge4 O28 1.962219 1_555
Ge4 O24 2.007260 1_555
Ge4 O100 2.037124 1_555
Ge5 O27 1.761151 1_555
Ge5 O25 1.894220 1_555
Ge5 O29 1.953548 1_555
Ge5 O99 1.969657 1_555
Ge5 O97 2.124527 1_555
Ge5 O101 2.220371 1_555
Ge6 O106 1.743472 1_555
Ge6 O34 1.752293 1_555
Ge6 O30 1.984102 1_555
Ge6 O102 2.001344 1_555
Ge6 O32 2.118818 1_555
Ge6 O104 2.352260 1_555
Ge7 O107 1.780062 1_555
Ge7 O103 1.906971 1_555
Ge7 O105 1.958029 1_555
Ge7 O33 1.976860 1_555
Ge7 O35 1.982503 1_555
Ge7 O31 2.027208 1_555
Ge8 O36 1.787876 1_556
Ge8 O112 1.818555 1_555
Ge8 O110 1.838197 1_555
Ge8 O40 1.908230 1_556
Ge8 O108 2.022864 1_555
Ge8 O38 2.103530 1_556
Ge9 O117 1.797532 1_555
Ge9 O43 1.799298 1_555
Ge9 O119 1.812619 1_555
Ge9 O45 1.942016 1_555
Ge9 O115 1.983574 1_555
Ge9 O47 2.141581 1_555
Ge10 O120 1.750921 1_555
Ge10 O52 1.769985 1_554
Ge10 O124 1.911113 1_555
Ge10 O48 1.963023 1_554
Ge10 O122 1.982204 1_555
Ge10 O50 2.197799 1_554
Ge11 O51 1.743357 1_554
Ge11 O121 1.899465 1_555
Ge11 O123 1.935382 1_555
Ge11 O53 1.956010 1_554
Ge11 O125 1.959514 1_555
Ge11 O49 2.124827 1_554
Ge12 O58 1.731996 1_555
Ge12 O56 1.874974 1_555
Ge12 O126 1.945110 1_555
Ge12 O54 1.976091 1_555
Ge12 O130 2.050200 1_555
Ge12 O128 2.078282 1_555
Ge13 O57 1.770329 1_555
Ge13 O127 1.774844 1_555
Ge13 O55 1.906731 1_555
Ge13 O59 2.033726 1_555
Ge13 O131 2.069320 1_555
Ge13 O129 2.072054 1_555
Ge14 O132 1.760629 1_555
Ge14 O60 1.775615 1_555
Ge14 O134 1.997033 1_555
Ge14 O136 2.000230 1_555
Ge14 O62 2.005793 1_555
Ge14 O64 2.016484 1_555
Ge15 O133 1.728013 1_555
Ge15 O65 1.759543 1_555
Ge15 O137 1.899688 1_555
Ge15 O61 1.949311 1_555
Ge15 O135 2.005111 1_555
Ge15 O63 2.039397 1_555
Ge16 O138 1.730395 1_555
Ge16 O68 1.759415 1_555
Ge16 O66 1.901762 1_555
Ge16 O140 1.972052 1_555
Ge16 O70 1.996081 1_555
Ge16 O142 2.123141 1_555
Ge17 O67 1.764310 1_555
Ge17 O69 1.891107 1_555
Ge17 O143 1.905672 1_555
Ge17 O71 1.927275 1_555
Ge17 O141 2.020623 1_555
Ge17 O139 2.059549 1_555
O0 Si0 1.577758 1_555
O1 Si1 1.678533 1_545
O2 S0 1.486963 1_555
O3 S1 1.449835 1_555
O4 S3 1.531088 1_555
O5 S2 1.448771 1_555
O6 Si2 1.685615 1_555
O7 S4 1.454009 1_555
O8 S6 1.450182 1_555
O9 S5 1.519633 1_555
O10 S7 1.453321 1_555
O11 S8 1.472223 1_545
O12 S7 1.506318 1_565
O13 S8 1.446289 1_555
O14 Si2 1.563601 1_555
O15 S4 1.497345 1_555
O16 S5 1.444441 1_455
O17 S6 1.511739 1_555
O18 S0 1.449593 1_555
O19 S1 1.478540 1_555
O20 S2 1.497046 1_455
O21 S3 1.451504 1_555
O22 Si0 1.658165 1_565
O23 Si1 1.566245 1_555
O24 S9 1.514031 1_555
O25 S10 1.566103 1_555
O26 S11 1.535290 1_555
O27 Si3 1.661050 1_555
O28 S12 1.520001 1_555
O29 S13 1.531859 1_555
O30 S14 1.527363 1_555
O31 S15 1.505749 1_555
O32 S16 1.476436 1_555
O33 S17 1.520938 1_555
O34 Si4 1.644179 1_555
O35 S18 1.515508 1_555
O36 Si4 1.629792 1_555
O37 S18 1.449839 1_555
O38 S14 1.468548 1_555
O39 S15 1.446655 1_555
O40 S16 1.498771 1_555
O41 S17 1.452099 1_555
O42 S11 1.446584 1_555
O43 Si3 1.618518 1_555
O44 S12 1.444863 1_555
O45 S13 1.484174 1_555
O46 S9 1.443528 1_555
O47 S10 1.456504 1_555
O48 S19 1.480120 1_555
O49 S20 1.487384 1_555
O50 S21 1.472916 1_555
O51 Si5 1.653581 1_555
O52 Si6 1.635438 1_555
O53 S22 1.499546 1_555
O54 S23 1.522193 1_555
O55 S24 1.496964 1_555
O56 S25 1.542370 1_555
O57 Si7 1.647790 1_555
O58 Si8 1.664717 1_555
O59 S26 1.499944 1_555
O60 Si8 1.663575 1_555
O61 S26 1.476395 1_555
O62 S23 1.478240 1_555
O63 S24 1.480205 1_555
O64 S25 1.480754 1_555
O65 Si7 1.639048 1_555
O66 S21 1.481243 1_555
O67 Si5 1.694352 1_555
O68 Si6 1.651106 1_555
O69 S22 1.508681 1_555
O70 S19 1.486122 1_555
O71 S20 1.515355 1_555
O72 Si8 1.578196 1_555
O73 S26 1.488156 1_555
O74 S23 1.488222 1_555
O75 S24 1.447838 1_555
O76 S25 1.453435 1_555
O77 Si7 1.632081 1_555
O78 S21 1.497891 1_555
O79 Si5 1.582651 1_555
O80 Si6 1.638704 1_555
O81 S22 1.451167 1_555
O82 S19 1.456053 1_555
O83 S20 1.489447 1_555
O84 S9 1.498650 1_555
O85 S10 1.461270 1_555
O86 S11 1.444486 1_565
O87 Si3 1.651241 1_555
O88 S12 1.495408 1_555
O89 S13 1.455208 1_555
O90 S14 1.456514 1_555
O91 S15 1.486707 1_555
O92 S16 1.458197 1_555
O93 S17 1.463034 1_565
O94 Si4 1.640029 1_555
O95 S18 1.446470 1_555
O96 S7 1.507071 1_555
O97 S8 1.531834 1_545
O98 Si2 1.694078 1_555
O99 S4 1.510079 1_555
O100 S6 1.488523 1_555
O101 S5 1.518132 1_555
O102 S0 1.537657 1_555
O103 S1 1.518109 1_555
O104 S3 1.467874 1_555
O105 S2 1.510724 1_555
O106 Si0 1.661282 1_555
O107 Si1 1.689486 1_545
O108 S19 1.490536 1_555
O109 S20 1.465557 1_555
O110 Si5 1.656761 1_555
O111 S21 1.464543 1_655
O112 Si6 1.634035 1_545
O113 S22 1.462241 1_545
O114 S23 1.462467 1_545
O115 S24 1.491660 1_545
O116 S25 1.463691 1_555
O117 Si7 1.635977 1_555
O118 S26 1.457913 1_555
O119 Si8 1.663849 1_655
O120 Si4 1.637237 1_555
O121 S18 1.519976 1_555
O122 S15 1.489970 1_455
O123 S14 1.513715 1_555
O124 S16 1.496246 1_565
O125 S17 1.520756 1_565
O126 S11 1.512021 1_565
O127 Si3 1.637704 1_565
O128 S12 1.489240 1_555
O129 S13 1.476623 1_555
O130 S10 1.489452 1_455
O131 S9 1.480372 1_555
O132 Si0 1.650002 1_565
O133 Si1 1.630195 1_555
O134 S0 1.479087 1_555
O135 S1 1.490608 1_555
O136 S2 1.491988 1_455
O137 S3 1.490334 1_555
O138 Si2 1.632507 1_555
O139 S4 1.496522 1_555
O140 S5 1.481805 1_455
O141 S6 1.503469 1_555
O142 S7 1.470842 1_565
O143 S8 1.517739 1_555
