# generated using pymatgen
data_EuCu5
_symmetry_space_group_name_H-M   'P 1'
_cell_length_a   5.10691850
_cell_length_b   5.10691905
_cell_length_c   4.02126109
_cell_angle_alpha   90.00000000
_cell_angle_beta   90.00000000
_cell_angle_gamma   120.00003913
_symmetry_Int_Tables_number   1
_chemical_formula_structural   EuCu5
_chemical_formula_sum   'Eu1 Cu5'
_cell_volume   90.82609308
_cell_formula_units_Z   1
loop_
 _symmetry_equiv_pos_site_id
 _symmetry_equiv_pos_as_xyz
  1  'x, y, z'
loop_
 _atom_site_type_symbol
 _atom_site_label
 _atom_site_symmetry_multiplicity
 _atom_site_fract_x
 _atom_site_fract_y
 _atom_site_fract_z
 _atom_site_occupancy
  Eu  Eu0  1  0.00000000  0.00000000  -0.00000000  1
  Cu  Cu0  1  0.00000000  0.50000000  0.50000000  1
  Cu  Cu1  1  0.33333300  0.66666700  0.00000000  1
  Cu  Cu2  1  0.66666700  0.33333300  0.00000000  1
  Cu  Cu3  1  0.50000000  0.00000000  0.50000000  1
  Cu  Cu4  1  0.50000000  0.50000000  0.50000000  1
loop_
_geom_bond_atom_site_label_1
_geom_bond_atom_site_label_2
_geom_bond_distance
_geom_bond_site_symmetry_2
Cu0 Cu1 2.493194 1_555
Cu0 Cu2 2.493194 1_456
Cu0 Cu1 2.493194 1_556
Cu0 Cu2 2.493194 1_455
Cu0 Cu3 2.553458 1_565
Cu0 Cu3 2.553458 1_455
Cu0 Cu4 2.553459 1_455
Cu0 Cu4 2.553459 1_555
Cu0 Eu0 3.250045 1_565
Cu0 Eu0 3.250045 1_555
Cu0 Eu0 3.250045 1_556
Cu0 Eu0 3.250045 1_566
Cu1 Cu3 2.493194 1_565
Cu1 Cu3 2.493194 1_564
Cu1 Cu4 2.493197 1_554
Cu1 Cu4 2.493197 1_555
Cu1 Eu0 2.948479 1_565
Cu1 Eu0 2.948481 1_665
Cu1 Eu0 2.948481 1_555
Cu2 Cu3 2.493194 1_554
Cu2 Cu3 2.493194 1_555
Cu2 Cu4 2.493197 1_554
Cu2 Cu4 2.493197 1_555
Cu2 Eu0 2.948479 1_655
Cu2 Eu0 2.948481 1_555
Cu2 Eu0 2.948481 1_665
Cu3 Cu4 2.553460 1_555
Cu3 Cu4 2.553460 1_545
Cu3 Eu0 3.250045 1_656
Cu3 Eu0 3.250045 1_556
Cu3 Eu0 3.250045 1_555
Cu3 Eu0 3.250045 1_655
Cu4 Eu0 3.250043 1_555
Cu4 Eu0 3.250043 1_556
Cu4 Eu0 3.250043 1_665
Cu4 Eu0 3.250043 1_666
