# generated using pymatgen
data_LiMn2(PO4)3
_symmetry_space_group_name_H-M   'P 1'
_cell_length_a   8.42328265
_cell_length_b   8.42328265
_cell_length_c   11.89133967
_cell_angle_alpha   45.03856066
_cell_angle_beta   45.03856066
_cell_angle_gamma   60.05248464
_symmetry_Int_Tables_number   1
_chemical_formula_structural   LiMn2(PO4)3
_chemical_formula_sum   'Li2 Mn4 P6 O24'
_cell_volume   422.42314053
_cell_formula_units_Z   2
loop_
 _symmetry_equiv_pos_site_id
 _symmetry_equiv_pos_as_xyz
  1  'x, y, z'
loop_
 _atom_site_type_symbol
 _atom_site_label
 _atom_site_symmetry_multiplicity
 _atom_site_fract_x
 _atom_site_fract_y
 _atom_site_fract_z
 _atom_site_occupancy
  Li  Li0  1  0.00000000  0.00000000  0.00000000  1
  Li  Li1  1  0.00000000  0.00000000  0.50000000  1
  Mn  Mn0  1  0.28058800  0.28077900  0.08061400  1
  Mn  Mn1  1  0.71922100  0.71941200  0.41938600  1
  Mn  Mn2  1  0.28077900  0.28058800  0.58061400  1
  Mn  Mn3  1  0.71941200  0.71922100  0.91938600  1
  P  P0  1  0.21331100  0.50274900  0.74784000  1
  P  P1  1  0.78714200  0.21285800  0.75000000  1
  P  P2  1  0.49725100  0.78668900  0.75216000  1
  P  P3  1  0.50274900  0.21331100  0.24784000  1
  P  P4  1  0.78668900  0.49725100  0.25216000  1
  P  P5  1  0.21285800  0.78714200  0.25000000  1
  O  O0  1  0.42963700  0.80622700  0.06288400  1
  O  O1  1  0.80307700  0.62625800  0.06828900  1
  O  O2  1  0.56887500  0.36260700  0.44304800  1
  O  O3  1  0.02658600  0.68268300  0.73788900  1
  O  O4  1  0.57036300  0.19377300  0.93711600  1
  O  O5  1  0.19692300  0.37374200  0.93171100  1
  O  O6  1  0.43112500  0.63739300  0.55695200  1
  O  O7  1  0.97341400  0.31731700  0.26211100  1
  O  O8  1  0.02463800  0.81274500  0.24204700  1
  O  O9  1  0.68268300  0.02658600  0.23788900  1
  O  O10  1  0.31905200  0.18340000  0.26308600  1
  O  O11  1  0.19377300  0.57036300  0.43711600  1
  O  O12  1  0.81274500  0.02463800  0.74204700  1
  O  O13  1  0.18340000  0.31905200  0.76308600  1
  O  O14  1  0.62625800  0.80307700  0.56828900  1
  O  O15  1  0.36260700  0.56887500  0.94304800  1
  O  O16  1  0.63739300  0.43112500  0.05695200  1
  O  O17  1  0.37374200  0.19692300  0.43171100  1
  O  O18  1  0.81660000  0.68094800  0.23691400  1
  O  O19  1  0.18725500  0.97536200  0.25795300  1
  O  O20  1  0.80622700  0.42963700  0.56288400  1
  O  O21  1  0.68094800  0.81660000  0.73691400  1
  O  O22  1  0.31731700  0.97341400  0.76211100  1
  O  O23  1  0.97536200  0.18725500  0.75795300  1
loop_
_geom_bond_atom_site_label_1
_geom_bond_atom_site_label_2
_geom_bond_distance
_geom_bond_site_symmetry_2
Li0 O22 2.192826 1_544
Li0 O9 2.192826 1_455
Li0 O18 2.200008 1_445
Li0 O13 2.200008 1_554
Li0 O8 2.217355 1_545
Li0 O23 2.217355 1_454
Li1 O7 2.192826 1_455
Li1 O3 2.192826 1_545
Li1 O21 2.200008 1_445
Li1 O10 2.200008 1_555
Li1 O19 2.217355 1_545
Li1 O12 2.217355 1_455
Mn0 O5 1.870318 1_554
Mn0 O4 1.871288 1_554
Mn0 O15 1.873138 1_554
Mn0 O19 1.921616 1_545
Mn0 O10 1.923237 1_555
Mn0 O7 1.923304 1_455
Mn1 O14 1.870318 1_555
Mn1 O20 1.871288 1_555
Mn1 O6 1.873138 1_555
Mn1 O8 1.921616 1_655
Mn1 O18 1.923237 1_555
Mn1 O9 1.923304 1_565
Mn2 O17 1.870318 1_555
Mn2 O11 1.871288 1_555
Mn2 O2 1.873138 1_555
Mn2 O23 1.921616 1_455
Mn2 O13 1.923237 1_555
Mn2 O22 1.923304 1_545
Mn3 O1 1.870318 1_556
Mn3 O0 1.871288 1_556
Mn3 O16 1.873138 1_556
Mn3 O12 1.921616 1_565
Mn3 O21 1.923237 1_555
Mn3 O3 1.923304 1_655
O0 P5 1.535103 1_555
O1 P4 1.531638 1_555
O2 P4 1.535723 1_555
O3 P0 1.553857 1_555
O4 P1 1.535103 1_555
O5 P0 1.531638 1_555
O6 P0 1.535723 1_555
O7 P4 1.553857 1_555
O8 P5 1.552658 1_555
O9 P3 1.553857 1_555
O10 P3 1.555250 1_555
O11 P5 1.535103 1_555
O12 P1 1.552658 1_555
O13 P0 1.555250 1_555
O14 P2 1.531638 1_555
O15 P2 1.535723 1_555
O16 P3 1.535723 1_555
O17 P3 1.531638 1_555
O18 P4 1.555250 1_555
O19 P5 1.552658 1_555
O20 P1 1.535103 1_555
O21 P2 1.555250 1_555
O22 P2 1.553857 1_555
O23 P1 1.552658 1_555
