# generated using pymatgen
data_Na4LaScSi(PO6)2
_symmetry_space_group_name_H-M   'P 1'
_cell_length_a   9.48709935
_cell_length_b   9.47933138
_cell_length_c   22.76267906
_cell_angle_alpha   90.06158790
_cell_angle_beta   89.93405941
_cell_angle_gamma   119.95224364
_symmetry_Int_Tables_number   1
_chemical_formula_structural   Na4LaScSi(PO6)2
_chemical_formula_sum   'Na24 La6 Sc6 Si6 P12 O72'
_cell_volume   1773.67315639
_cell_formula_units_Z   6
loop_
 _symmetry_equiv_pos_site_id
 _symmetry_equiv_pos_as_xyz
  1  'x, y, z'
loop_
 _atom_site_type_symbol
 _atom_site_label
 _atom_site_symmetry_multiplicity
 _atom_site_fract_x
 _atom_site_fract_y
 _atom_site_fract_z
 _atom_site_occupancy
  Na  Na0  1  0.63521582  0.99842231  0.25749662  1
  Na  Na1  1  0.35901976  0.36841447  0.25229256  1
  Na  Na2  1  0.00606955  0.62949310  0.25252108  1
  Na  Na3  1  0.63889307  0.63338806  0.73767687  1
  Na  Na4  1  0.98424867  0.35775477  0.74372058  1
  Na  Na5  1  0.38125832  0.01321214  0.74144849  1
  Na  Na6  1  0.29856720  0.32500135  0.58245638  1
  Na  Na7  1  0.03997174  0.71209361  0.58117229  1
  Na  Na8  1  0.66450955  0.96761851  0.58912447  1
  Na  Na9  1  0.28891972  0.97100130  0.08480565  1
  Na  Na10  1  0.68849759  0.70473542  0.08553680  1
  Na  Na11  1  0.02698132  0.32846549  0.09500820  1
  Na  Na12  1  0.97421019  0.67698077  0.92241011  1
  Na  Na13  1  0.69391821  0.03376220  0.90855166  1
  Na  Na14  1  0.33262729  0.29792062  0.91574313  1
  Na  Na15  1  0.96618392  0.30454356  0.40868480  1
  Na  Na16  1  0.32536748  0.02573828  0.41846169  1
  Na  Na17  1  0.70418296  0.66673359  0.41375930  1
  Na  Na18  1  0.00629565  0.99264682  0.49956210  1
  Na  Na19  1  0.00610199  0.99449349  0.00129314  1
  Na  Na20  1  0.66211535  0.32169572  0.83279761  1
  Na  Na21  1  0.67672647  0.33647312  0.33956864  1
  Na  Na22  1  0.32385152  0.66232300  0.16930600  1
  Na  Na23  1  0.33724015  0.67670635  0.66394678  1
  La  La0  1  0.00035107  0.00010176  0.83892936  1
  La  La1  1  0.67145640  0.33411244  0.18723856  1
  La  La2  1  0.66856344  0.33407443  0.99152605  1
  La  La3  1  0.33015813  0.67123446  0.01386581  1
  La  La4  1  0.33014913  0.67095826  0.51187475  1
  La  La5  1  0.33757643  0.67511032  0.81393108  1
  Sc  Sc0  1  0.99917785  -0.00018061  0.35052886  1
  Sc  Sc1  1  0.00031412  0.99918417  0.64706171  1
  Sc  Sc2  1  0.00128650  0.00162920  0.15572379  1
  Sc  Sc3  1  0.66307477  0.32533079  0.67954699  1
  Sc  Sc4  1  0.66503934  0.33149947  0.48338200  1
  Sc  Sc5  1  0.32100014  0.65929111  0.31839848  1
  Si  Si0  1  0.01112836  0.30032936  0.25427336  1
  Si  Si1  1  0.69880516  0.00790342  0.74485350  1
  Si  Si2  1  0.36709456  0.04204101  0.58224644  1
  Si  Si3  1  0.98301144  0.65782997  0.08696326  1
  Si  Si4  1  0.33421324  0.98774025  0.91595996  1
  Si  Si5  1  0.02163669  0.66601566  0.41671683  1
  P  P0  1  0.28628010  0.98755939  0.25444398  1
  P  P1  1  0.69900601  0.71398857  0.25377137  1
  P  P2  1  0.31003179  0.30383348  0.74290194  1
  P  P3  1  0.99062797  0.68845534  0.74294953  1
  P  P4  1  0.95391934  0.32274642  0.58294196  1
  P  P5  1  0.67510501  0.62858559  0.58336898  1
  P  P6  1  0.67754338  0.01756318  0.08719565  1
  P  P7  1  0.34306889  0.32448227  0.08766631  1
  P  P8  1  0.64863761  0.66485551  0.91625534  1
  P  P9  1  0.01793429  0.35099616  0.91493905  1
  P  P10  1  0.64009051  0.97431153  0.41447511  1
  P  P11  1  0.33491005  0.35903305  0.41519377  1
  O  O0  1  0.19235752  -0.00399616  0.30825374  1
  O  O1  1  0.80416232  0.80366726  0.30776725  1
  O  O2  1  0.00158399  0.18990091  0.31060598  1
  O  O3  1  0.24775559  0.22226569  0.80360413  1
  O  O4  1  0.97582045  0.75373689  0.80362145  1
  O  O5  1  0.78260850  0.02662942  0.80937292  1
  O  O6  1  0.81672863  0.99540986  0.69381710  1
  O  O7  1  0.19209225  0.19209958  0.69403896  1
  O  O8  1  0.00662247  0.81072678  0.69410564  1
  O  O9  1  0.78821781  0.80997324  0.19744803  1
  O  O10  1  0.02348611  0.20986462  0.19433514  1
  O  O11  1  0.19024075  0.97720292  0.19782763  1
  O  O12  1  0.86762453  0.33871497  0.63804397  1
  O  O13  1  0.47777401  0.13896732  0.63962942  1
  O  O14  1  0.66389742  0.52824238  0.63824838  1
  O  O15  1  0.88556526  0.53328602  0.14140851  1
  O  O16  1  0.64677564  0.10418143  0.13930792  1
  O  O17  1  0.45454900  0.34496879  0.14041817  1
  O  O18  1  0.42277106  0.30928222  0.03011385  1
  O  O19  1  0.88212867  0.57961079  0.02557442  1
  O  O20  1  0.69256293  0.11204821  0.02974142  1
  O  O21  1  0.46241814  0.15081009  0.52336828  1
  O  O22  1  0.68711476  0.54006809  0.52744952  1
  O  O23  1  0.85267243  0.31255574  0.52765107  1
  O  O24  1  0.56082657  0.66812142  0.97310155  1
  O  O25  1  0.11434340  0.43909523  0.97091551  1
  O  O26  1  0.32143435  0.88631845  0.97596038  1
  O  O27  1  0.57637452  0.87616841  0.47228606  1
  O  O28  1  0.30255853  0.42360128  0.47317307  1
  O  O29  1  0.12744574  0.70749949  0.47757962  1
  O  O30  1  0.12942410  0.64052853  0.36383615  1
  O  O31  1  0.52180636  0.87641453  0.36342745  1
  O  O32  1  0.35410233  0.47791454  0.36405899  1
  O  O33  1  0.11102365  0.44863578  0.85958932  1
  O  O34  1  0.34756739  0.89175780  0.85776598  1
  O  O35  1  0.54521928  0.65478326  0.86186150  1
  O  O36  1  0.99536070  0.82442634  0.40819369  1
  O  O37  1  0.81501353  0.00159750  0.40675364  1
  O  O38  1  0.18739413  0.18361316  0.40764986  1
  O  O39  1  -0.00168492  0.17899723  0.91581011  1
  O  O40  1  0.16944301  0.00294896  0.91557658  1
  O  O41  1  0.81737603  0.82192122  0.91579008  1
  O  O42  1  0.96782749  0.16471030  0.58498231  1
  O  O43  1  0.18279468  0.02305267  0.58499409  1
  O  O44  1  0.83058247  0.80252200  0.58526991  1
  O  O45  1  0.99122775  0.83417803  0.09362562  1
  O  O46  1  0.83966136  0.01679960  0.09347910  1
  O  O47  1  0.17667554  0.16507092  0.09223666  1
  O  O48  1  0.67955234  0.17138068  0.73979003  1
  O  O49  1  0.48484317  0.33015638  0.73733920  1
  O  O50  1  0.83608769  0.51885598  0.73682815  1
  O  O51  1  0.67358997  0.53798507  0.25418863  1
  O  O52  1  0.84698614  0.31997679  0.25743499  1
  O  O53  1  0.45854844  0.14235396  0.25538429  1
  O  O54  1  0.66795829  0.51226654  0.91417364  1
  O  O55  1  0.84937719  0.33998514  0.91419267  1
  O  O56  1  0.49927475  0.16747031  0.91529540  1
  O  O57  1  0.64828652  0.14310157  0.41838861  1
  O  O58  1  0.49626205  0.35268985  0.41807837  1
  O  O59  1  0.84392915  0.49501202  0.42019676  1
  O  O60  1  0.31899133  0.47431921  0.08753712  1
  O  O61  1  0.16648019  0.68117304  0.08879791  1
  O  O62  1  0.53403299  0.84021015  0.08637420  1
  O  O63  1  0.35135835  0.85984984  0.58412808  1
  O  O64  1  0.52024281  0.64618559  0.58260729  1
  O  O65  1  0.12865594  0.47390529  0.58190102  1
  O  O66  1  0.30517508  0.83260326  0.25677408  1
  O  O67  1  0.52890857  0.70232916  0.25644360  1
  O  O68  1  0.17737947  0.48503081  0.25654150  1
  O  O69  1  0.31670186  0.47061306  0.73903178  1
  O  O70  1  0.14453515  0.67027019  0.73947301  1
  O  O71  1  0.51934913  0.84114838  0.73896077  1
loop_
_geom_bond_atom_site_label_1
_geom_bond_atom_site_label_2
_geom_bond_distance
_geom_bond_site_symmetry_2
Na0 O67 2.463517 1_555
Na0 O53 2.637578 1_565
Na0 O31 2.658366 1_555
Na0 O52 2.685588 1_565
Na0 O66 2.713016 1_555
Na0 O16 2.854835 1_565
Na1 O68 2.470324 1_555
Na1 O51 2.588825 1_555
Na1 O53 2.740353 1_555
Na1 O67 2.744292 1_555
Na1 O17 2.747789 1_555
Na1 O32 2.755805 1_555
Na2 O66 2.512614 1_555
Na2 O52 2.545055 1_455
Na2 O68 2.597698 1_555
Na2 O15 2.737927 1_455
Na2 O30 2.772146 1_555
Na2 O51 2.823280 1_455
Na3 O49 2.490676 1_555
Na3 O14 2.530229 1_555
Na3 O50 2.589797 1_555
Na3 O69 2.648630 1_555
Na3 O71 2.719540 1_555
Na3 O35 2.999088 1_555
Na4 O48 2.527044 1_555
Na4 O50 2.544994 1_555
Na4 O70 2.568990 1_655
Na4 O12 2.617038 1_555
Na4 O69 2.780978 1_655
Na4 O33 2.848299 1_655
Na5 O48 2.453770 1_555
Na5 O71 2.552096 1_545
Na5 O13 2.557769 1_555
Na5 O49 2.655782 1_555
Na5 O34 2.841675 1_545
Na5 O70 2.885036 1_545
Na6 O43 2.502655 1_555
Na6 O65 2.619743 1_555
Na6 O28 2.651891 1_555
Na6 O64 2.701624 1_555
Na6 O42 2.719662 1_455
Na6 O7 2.790866 1_555
Na7 O29 2.506459 1_555
Na7 O44 2.527732 1_455
Na7 O43 2.558088 1_565
Na7 O63 2.561616 1_555
Na7 O65 2.775455 1_555
Na7 O8 2.805522 1_555
Na8 O42 2.532063 1_565
Na8 O63 2.617765 1_555
Na8 O64 2.648492 1_555
Na8 O44 2.720453 1_555
Na8 O6 2.731419 1_555
Na8 O27 2.792889 1_555
Na9 O61 2.391487 1_555
Na9 O45 2.457707 1_455
Na9 O47 2.549893 1_565
Na9 O26 2.668205 1_554
Na9 O11 2.747302 1_555
Na10 O62 2.382455 1_555
Na10 O45 2.503961 1_555
Na10 O46 2.569691 1_565
Na10 O9 2.727108 1_555
Na10 O24 2.779053 1_554
Na11 O60 2.406225 1_555
Na11 O10 2.518929 1_555
Na11 O47 2.572140 1_555
Na11 O46 2.577783 1_455
Na12 O41 2.483256 1_555
Na12 O19 2.514828 1_556
Na12 O54 2.526921 1_555
Na12 O40 2.699648 1_665
Na12 O4 2.798929 1_555
Na12 O55 2.804245 1_555
Na13 O5 2.421012 1_555
Na13 O39 2.508564 1_655
Na13 O55 2.518430 1_555
Na13 O56 2.715882 1_555
Na13 O41 2.789493 1_545
Na13 O20 2.857589 1_556
Na14 O40 2.427458 1_555
Na14 O56 2.445599 1_555
Na14 O3 2.665053 1_555
Na14 O18 2.726377 1_556
Na14 O39 2.785665 1_555
Na14 O54 2.792087 1_555
Na15 O37 2.488547 1_555
Na15 O2 2.575948 1_655
Na15 O59 2.600607 1_555
Na15 O57 2.622403 1_555
Na15 O38 2.849748 1_655
Na15 O23 2.928003 1_555
Na15 O30 2.943184 1_655
Na16 O38 2.443615 1_555
Na16 O58 2.686383 1_555
Na16 O57 2.686962 1_555
Na16 O21 2.694491 1_555
Na16 O36 2.744636 1_445
Na16 O0 2.759638 1_555
Na16 O29 2.963730 1_545
Na17 O36 2.399540 1_555
Na17 O59 2.566106 1_555
Na17 O58 2.626641 1_555
Na17 O1 2.679097 1_555
Na17 O37 2.806239 1_565
Na17 O22 2.824301 1_555
Na18 O43 2.488568 1_565
Na18 O36 2.589840 1_455
Na18 O44 2.614047 1_455
Na18 O42 2.675838 1_465
Na18 O38 2.738645 1_565
Na18 O37 2.815366 1_465
Na19 O40 2.466592 1_564
Na19 O45 2.557085 1_455
Na19 O41 2.597358 1_454
Na19 O47 2.627989 1_565
Na19 O39 2.643341 1_564
Na19 O46 2.695584 1_465
Na20 O56 2.407138 1_555
Na20 O55 2.513632 1_555
Na20 O54 2.567227 1_555
Na20 O48 2.601513 1_555
Na20 O49 2.774851 1_555
Na20 O50 2.812379 1_555
Na21 O59 2.400720 1_555
Na21 O57 2.482718 1_555
Na21 O52 2.524585 1_555
Na21 O58 2.530560 1_555
Na21 O51 2.737101 1_555
Na21 O53 2.746036 1_555
Na22 O61 2.427491 1_555
Na22 O68 2.523354 1_555
Na22 O60 2.559991 1_555
Na22 O66 2.622753 1_555
Na22 O62 2.650237 1_555
Na22 O67 2.670800 1_555
Na23 O71 2.375336 1_555
Na23 O63 2.471237 1_555
Na23 O70 2.486618 1_555
Na23 O69 2.530231 1_555
Na23 O64 2.649352 1_555
Na23 O65 2.702133 1_555
La0 O5 2.303356 1_455
La0 O40 2.362463 1_555
La0 O4 2.368069 1_445
La0 O3 2.377855 1_555
La0 O39 2.442322 1_555
La0 O41 2.449231 1_445
La1 O15 2.224594 1_555
La1 O16 2.341294 1_555
La1 O52 2.360853 1_555
La1 O17 2.365970 1_555
La1 O51 2.452020 1_555
La1 O53 2.474427 1_555
La2 O19 2.326777 1_556
La2 O56 2.356334 1_555
La2 O18 2.390148 1_556
La2 O20 2.391868 1_556
La2 O55 2.437565 1_555
La2 O54 2.443270 1_555
La3 O26 2.254038 1_554
La3 O61 2.338601 1_555
La3 O25 2.343336 1_554
La3 O24 2.389688 1_554
La3 O62 2.436977 1_555
La3 O60 2.473166 1_555
La4 O29 2.257606 1_555
La4 O27 2.348244 1_555
La4 O63 2.363524 1_555
La4 O28 2.392865 1_555
La4 O65 2.473449 1_555
La4 O64 2.515992 1_555
La5 O34 2.241338 1_555
La5 O35 2.343611 1_555
La5 O71 2.377405 1_555
La5 O33 2.387617 1_555
La5 O70 2.480278 1_555
La5 O69 2.512774 1_555
O0 P0 1.539205 1_545
O0 Sc0 2.085239 1_455
O1 P1 1.543473 1_555
O1 Sc0 2.095918 1_565
O2 Si0 1.629779 1_555
O2 Sc0 2.008830 1_455
O3 P2 1.549318 1_555
O4 P3 1.547423 1_555
O5 Si1 1.637591 1_555
O6 Si1 1.656578 1_565
O6 Sc1 2.025106 1_655
O7 P2 1.558146 1_555
O7 Sc1 2.115612 1_545
O8 P3 1.558629 1_455
O8 Sc1 2.110146 1_555
O9 P1 1.555294 1_555
O9 Sc2 2.149635 1_665
O10 Si0 1.645631 1_555
O10 Sc2 2.072389 1_555
O11 P0 1.553630 1_555
O11 Sc2 2.145823 1_565
O12 P4 1.545098 1_555
O12 Sc3 2.103484 1_555
O13 Si2 1.640148 1_555
O13 Sc3 1.983941 1_555
O14 P5 1.542020 1_555
O14 Sc3 2.138315 1_555
O15 Si3 1.641654 1_555
O16 P6 1.550136 1_555
O17 P7 1.547729 1_555
O18 P7 1.553977 1_555
O19 Si3 1.646411 1_555
O20 P6 1.551620 1_555
O21 Si2 1.657172 1_555
O21 Sc4 2.041797 1_555
O22 P5 1.558878 1_555
O22 Sc4 2.131127 1_555
O23 P4 1.557507 1_555
O23 Sc4 2.130756 1_555
O24 P8 1.546776 1_555
O25 P9 1.547636 1_555
O26 Si4 1.640241 1_555
O27 P10 1.549786 1_555
O28 P11 1.547746 1_555
O29 Si5 1.639965 1_555
O30 Si5 1.672188 1_555
O30 Sc5 2.019397 1_555
O31 P10 1.559316 1_555
O31 Sc5 2.236210 1_555
O32 P11 1.566955 1_555
O32 Sc5 2.163038 1_555
O33 P9 1.551676 1_555
O34 Si4 1.646422 1_555
O35 P8 1.553630 1_555
O36 Si5 1.652027 1_655
O36 Sc0 2.105463 1_565
O37 P10 1.556465 1_545
O37 Sc0 2.171430 1_555
O38 P11 1.558628 1_555
O38 Sc0 2.192814 1_455
O39 P9 1.546086 1_555
O40 Si4 1.639970 1_545
O41 P8 1.549044 1_555
O42 P4 1.568868 1_555
O42 Sc1 2.245549 1_645
O43 Si2 1.667024 1_555
O43 Sc1 2.155988 1_545
O44 P5 1.570861 1_555
O44 Sc1 2.246925 1_655
O45 Si3 1.641004 1_555
O45 Sc2 2.090688 1_665
O46 P6 1.548441 1_555
O46 Sc2 2.145917 1_655
O47 P7 1.550551 1_555
O47 Sc2 2.163913 1_555
O48 Si1 1.652619 1_555
O48 Sc3 2.065712 1_555
O49 P2 1.554066 1_555
O49 Sc3 2.159579 1_555
O50 P3 1.549174 1_555
O50 Sc3 2.180050 1_555
O51 P1 1.562080 1_555
O52 Si0 1.659567 1_655
O53 P0 1.558828 1_545
O54 P8 1.546808 1_555
O55 P9 1.549758 1_655
O56 Si4 1.640430 1_545
O57 P10 1.565092 1_545
O57 Sc4 2.261587 1_555
O58 P11 1.563109 1_555
O58 Sc4 2.267409 1_555
O59 Si5 1.657497 1_655
O59 Sc4 2.173429 1_555
O60 P7 1.547120 1_555
O61 Si3 1.641920 1_455
O62 P6 1.547508 1_565
O63 Si2 1.658164 1_565
O64 P5 1.559323 1_555
O65 P4 1.558811 1_455
O66 P0 1.567059 1_555
O66 Sc5 2.222838 1_555
O67 P1 1.562605 1_555
O67 Sc5 2.288474 1_555
O68 Si0 1.672809 1_555
O68 Sc5 2.078382 1_555
O69 P2 1.552928 1_555
O70 P3 1.555316 1_455
O71 Si1 1.651664 1_565
