# generated using pymatgen
data_RbHg(NO2)3
_symmetry_space_group_name_H-M   'P 1'
_cell_length_a   6.10137100
_cell_length_b   6.10137100
_cell_length_c   6.10137100
_cell_angle_alpha   90.00000000
_cell_angle_beta   90.00000000
_cell_angle_gamma   90.00000000
_symmetry_Int_Tables_number   1
_chemical_formula_structural   RbHg(NO2)3
_chemical_formula_sum   'Rb1 Hg1 N3 O6'
_cell_volume   227.13407913
_cell_formula_units_Z   1
loop_
 _symmetry_equiv_pos_site_id
 _symmetry_equiv_pos_as_xyz
  1  'x, y, z'
loop_
 _atom_site_type_symbol
 _atom_site_label
 _atom_site_symmetry_multiplicity
 _atom_site_fract_x
 _atom_site_fract_y
 _atom_site_fract_z
 _atom_site_occupancy
  Rb  Rb0  1  0.00000000  0.00000000  0.00000000  1
  Hg  Hg0  1  0.50000000  0.50000000  0.50000000  1
  N  N0  1  0.50000000  0.50000000  0.00000000  1
  N  N1  1  0.50000000  0.00000000  0.50000000  1
  N  N2  1  0.00000000  0.50000000  0.50000000  1
  O  O0  1  0.50000000  0.00000000  0.70364900  1
  O  O1  1  0.00000000  0.70364900  0.50000000  1
  O  O2  1  0.00000000  0.29635100  0.50000000  1
  O  O3  1  0.50000000  0.00000000  0.29635100  1
  O  O4  1  0.29635100  0.50000000  0.00000000  1
  O  O5  1  0.70364900  0.50000000  0.00000000  1
loop_
_geom_bond_atom_site_label_1
_geom_bond_atom_site_label_2
_geom_bond_distance
_geom_bond_site_symmetry_2
N0 O5 1.242538 1_555
N0 O4 1.242538 1_555
N1 O0 1.242538 1_555
N1 O3 1.242538 1_555
N2 O1 1.242538 1_555
N2 O2 1.242538 1_555
O0 Rb0 3.546277 1_656
O0 Rb0 3.546277 1_556
O1 Rb0 3.546277 1_566
O1 Rb0 3.546277 1_565
O2 Rb0 3.546277 1_555
O2 Rb0 3.546277 1_556
O3 Rb0 3.546277 1_555
O3 Rb0 3.546277 1_655
O4 Rb0 3.546277 1_555
O4 Rb0 3.546277 1_565
O5 Rb0 3.546277 1_655
O5 Rb0 3.546277 1_665
