# generated using pymatgen
data_La3(ReO5)2
_symmetry_space_group_name_H-M   'P 1'
_cell_length_a   5.56798152
_cell_length_b   5.56797757
_cell_length_c   7.14731971
_cell_angle_alpha   72.50340391
_cell_angle_beta   72.50336280
_cell_angle_gamma   89.68746436
_symmetry_Int_Tables_number   1
_chemical_formula_structural   La3(ReO5)2
_chemical_formula_sum   'La3 Re2 O10'
_cell_volume   200.67442898
_cell_formula_units_Z   1
loop_
 _symmetry_equiv_pos_site_id
 _symmetry_equiv_pos_as_xyz
  1  'x, y, z'
loop_
 _atom_site_type_symbol
 _atom_site_label
 _atom_site_symmetry_multiplicity
 _atom_site_fract_x
 _atom_site_fract_y
 _atom_site_fract_z
 _atom_site_occupancy
  La  La0  1  0.74223634  0.25776466  0.50000000  1
  La  La1  1  0.25776366  0.74223534  0.50000000  1
  La  La2  1  -0.00000000  -0.00000000  -0.00000000  1
  Re  Re0  1  0.36565089  0.36565189  0.17487642  1
  Re  Re1  1  0.63434911  0.63434811  0.82512358  1
  O  O0  1  0.32906789  0.32906689  0.47170305  1
  O  O1  1  0.67093211  0.67093311  0.52829695  1
  O  O2  1  0.86984411  0.39649327  0.78710034  1
  O  O3  1  0.60350873  0.13015389  0.21289966  1
  O  O4  1  0.13015589  0.60350673  0.21289966  1
  O  O5  1  0.64767872  0.64767872  0.09584946  1
  O  O6  1  0.35232128  0.35232128  0.90415054  1
  O  O7  1  0.90537093  0.90537193  0.71836961  1
  O  O8  1  0.09462907  0.09462807  0.28163039  1
  O  O9  1  0.39649127  0.86984611  0.78710034  1
loop_
_geom_bond_atom_site_label_1
_geom_bond_atom_site_label_2
_geom_bond_distance
_geom_bond_site_symmetry_2
La0 O1 2.390065 1_555
La0 O0 2.390065 1_555
La0 O7 2.470329 1_545
La0 O8 2.470334 1_655
La0 O2 2.673564 1_555
La0 O3 2.673569 1_555
La0 O4 2.754441 1_655
La0 O9 2.754446 1_545
La1 O0 2.390065 1_555
La1 O1 2.390065 1_555
La1 O8 2.470329 1_565
La1 O7 2.470334 1_455
La1 O4 2.673564 1_555
La1 O9 2.673569 1_555
La1 O2 2.754441 1_455
La1 O3 2.754446 1_565
La2 O7 2.426001 1_444
La2 O8 2.426001 1_555
La2 O9 2.517946 1_544
La2 O3 2.517946 1_455
La2 O2 2.517960 1_454
La2 O4 2.517960 1_545
La2 O5 2.567449 1_445
La2 O6 2.567449 1_554
O0 Re0 2.016076 1_555
O1 Re1 2.016076 1_555
O2 Re1 1.878921 1_555
O3 Re0 1.878944 1_555
O4 Re0 1.878921 1_555
O5 Re1 1.981887 1_554
O5 Re0 2.052096 1_555
O6 Re0 1.981887 1_556
O6 Re1 2.052096 1_555
O7 Re1 1.943398 1_555
O8 Re0 1.943398 1_555
O9 Re1 1.878944 1_555
