# generated using pymatgen
data_NaTa2SiGe2P5O24
_symmetry_space_group_name_H-M   'P 1'
_cell_length_a   8.60337165
_cell_length_b   8.60200242
_cell_length_c   22.17943967
_cell_angle_alpha   90.03608129
_cell_angle_beta   89.94441767
_cell_angle_gamma   119.98612822
_symmetry_Int_Tables_number   1
_chemical_formula_structural   NaTa2SiGe2P5O24
_chemical_formula_sum   'Na3 Ta6 Si3 Ge6 P15 O72'
_cell_volume   1421.70642109
_cell_formula_units_Z   3
loop_
 _symmetry_equiv_pos_site_id
 _symmetry_equiv_pos_as_xyz
  1  'x, y, z'
loop_
 _atom_site_type_symbol
 _atom_site_label
 _atom_site_symmetry_multiplicity
 _atom_site_fract_x
 _atom_site_fract_y
 _atom_site_fract_z
 _atom_site_occupancy
  Na  Na0  1  0.99969518  0.99875931  0.99854812  1
  Na  Na1  1  0.66557879  0.33335599  0.82992412  1
  Na  Na2  1  0.66833527  0.33355297  0.33783492  1
  Ta  Ta0  1  0.99821882  0.00332193  0.36113419  1
  Ta  Ta1  1  0.00046178  0.99973737  0.63811365  1
  Ta  Ta2  1  0.66845389  0.33347319  0.19234320  1
  Ta  Ta3  1  0.66429676  0.33371949  0.97716625  1
  Ta  Ta4  1  0.33659870  0.67179505  0.02268026  1
  Ta  Ta5  1  0.33807984  0.66960859  0.80646357  1
  Si  Si0  1  0.01585253  0.29343939  0.25027643  1
  Si  Si1  1  0.63001806  0.67804852  0.91393324  1
  Si  Si2  1  0.32288579  0.95293349  0.91420965  1
  Ge  Ge0  1  -0.00012420  0.99759295  0.85336034  1
  Ge  Ge1  1  0.00197660  0.00290453  0.15011497  1
  Ge  Ge2  1  0.66625186  0.33356433  0.68402577  1
  Ge  Ge3  1  0.66733298  0.33359382  0.47995412  1
  Ge  Ge4  1  0.33233794  0.66618182  0.52232288  1
  Ge  Ge5  1  0.33102206  0.66422120  0.31210198  1
  P  P0  1  0.27824709  0.98802499  0.25075745  1
  P  P1  1  0.70996324  0.72231594  0.25085688  1
  P  P2  1  0.28928860  0.27822543  0.74913296  1
  P  P3  1  0.98792799  0.70793253  0.74885238  1
  P  P4  1  0.72280565  0.01284255  0.74904958  1
  P  P5  1  0.95287641  0.34538707  0.58137021  1
  P  P6  1  0.39306465  0.04707477  0.58130444  1
  P  P7  1  0.65402108  0.60734409  0.58132847  1
  P  P8  1  0.95537833  0.63181491  0.08568275  1
  P  P9  1  0.67707512  0.04550633  0.08537771  1
  P  P10  1  0.36763613  0.32324944  0.08552735  1
  P  P11  1  0.04915255  0.37490307  0.91475454  1
  P  P12  1  0.60499648  0.94897714  0.41847851  1
  P  P13  1  0.34496760  0.39317734  0.41883739  1
  P  P14  1  0.04907229  0.65709237  0.41881809  1
  O  O0  1  0.19810018  0.02967916  0.30641832  1
  O  O1  1  0.83292145  0.79793868  0.30651643  1
  O  O2  1  0.96726863  0.16156399  0.30886658  1
  O  O3  1  0.20602907  0.16375699  0.80638186  1
  O  O4  1  0.95524910  0.79043662  0.80603716  1
  O  O5  1  0.83667226  0.04428007  0.80631077  1
  O  O6  1  0.80583829  0.97738734  0.69308951  1
  O  O7  1  0.17168390  0.19352745  0.69306015  1
  O  O8  1  0.02350478  0.82717589  0.69298445  1
  O  O9  1  0.79415602  0.83104177  0.19278115  1
  O  O10  1  0.04083815  0.20146465  0.18982796  1
  O  O11  1  0.16681754  0.95687337  0.19283159  1
  O  O12  1  0.87133550  0.37647504  0.63943333  1
  O  O13  1  0.50505006  0.12847115  0.63946077  1
  O  O14  1  0.62289803  0.49491610  0.63939307  1
  O  O15  1  0.86510052  0.50931674  0.14052681  1
  O  O16  1  0.64225656  0.13377612  0.14016625  1
  O  O17  1  0.48954782  0.35804756  0.14015194  1
  O  O18  1  0.45987050  0.29662407  0.02884274  1
  O  O19  1  0.83823256  0.54366371  0.02908714  1
  O  O20  1  0.70567081  0.16254950  0.02890946  1
  O  O21  1  0.46829830  0.16955124  0.52565936  1
  O  O22  1  0.70170901  0.53217654  0.52573480  1
  O  O23  1  0.83041285  0.29792973  0.52571776  1
  O  O24  1  0.53529458  0.70203996  0.97463466  1
  O  O25  1  0.16167697  0.45929889  0.97232138  1
  O  O26  1  0.29307650  0.83204862  0.97477377  1
  O  O27  1  0.52879103  0.83229885  0.47495613  1
  O  O28  1  0.30225541  0.46832352  0.47522474  1
  O  O29  1  0.16588575  0.69747006  0.47534008  1
  O  O30  1  0.12862186  0.62388059  0.36123033  1
  O  O31  1  0.49416502  0.87013284  0.36041436  1
  O  O32  1  0.37924737  0.50560174  0.36123003  1
  O  O33  1  0.12855184  0.49440151  0.85895691  1
  O  O34  1  0.36397921  0.86354386  0.85648857  1
  O  O35  1  0.49763156  0.62940757  0.85634549  1
  O  O36  1  0.02713019  0.82433976  0.40938439  1
  O  O37  1  0.79406446  0.96772184  0.41020403  1
  O  O38  1  0.17712034  0.20235766  0.41003034  1
  O  O39  1  0.02898974  0.18975209  0.90748597  1
  O  O40  1  0.15279594  0.97992843  0.90721798  1
  O  O41  1  0.82166819  0.85572240  0.90691735  1
  O  O42  1  0.97188949  0.17530861  0.59137255  1
  O  O43  1  0.20395660  0.02821901  0.59118544  1
  O  O44  1  0.82428827  0.79629995  0.59138254  1
  O  O45  1  0.97293153  0.81728070  0.09285836  1
  O  O46  1  0.84241512  0.02381510  0.09142942  1
  O  O47  1  0.18416337  0.15162268  0.09036621  1
  O  O48  1  0.69745002  0.17784860  0.74154738  1
  O  O49  1  0.47928197  0.30205807  0.74160010  1
  O  O50  1  0.82057781  0.51874228  0.74107770  1
  O  O51  1  0.68802539  0.53066869  0.24291680  1
  O  O52  1  0.83213430  0.30998877  0.24344435  1
  O  O53  1  0.46627757  0.16223268  0.24281573  1
  O  O54  1  0.64967111  0.49996415  0.92366508  1
  O  O55  1  0.86267864  0.35786319  0.92411185  1
  O  O56  1  0.50668422  0.14618755  0.92382384  1
  O  O57  1  0.63425090  0.14245333  0.42475694  1
  O  O58  1  0.51010541  0.36523434  0.42527778  1
  O  O59  1  0.85635386  0.49034378  0.42525091  1
  O  O60  1  0.35040220  0.49023954  0.07593241  1
  O  O61  1  0.13728034  0.64264592  0.07741139  1
  O  O62  1  0.50521557  0.86194930  0.07771860  1
  O  O63  1  0.36539284  0.85828431  0.57341134  1
  O  O64  1  0.49294913  0.63497827  0.57324188  1
  O  O65  1  0.14165515  0.50674049  0.57340582  1
  O  O66  1  0.30811316  0.83026647  0.26039776  1
  O  O67  1  0.52614324  0.70215755  0.26051759  1
  O  O68  1  0.18392262  0.48922388  0.26114848  1
  O  O69  1  0.30404768  0.46341703  0.75625075  1
  O  O70  1  0.15518287  0.68782194  0.75662226  1
  O  O71  1  0.53573984  0.84224422  0.75574247  1
loop_
_geom_bond_atom_site_label_1
_geom_bond_atom_site_label_2
_geom_bond_distance
_geom_bond_site_symmetry_2
Na0 O40 2.464174 1_655
Na0 O41 2.471693 1_555
Na0 O47 2.512351 1_666
Na0 O46 2.531169 1_566
Na0 O39 2.535985 1_665
Na0 O45 2.551328 1_556
Na1 O49 2.460301 1_555
Na1 O48 2.463539 1_555
Na1 O50 2.465286 1_555
Na1 O54 2.566553 1_555
Na1 O56 2.568466 1_555
Na1 O55 2.633052 1_555
Na2 O59 2.452910 1_555
Na2 O57 2.454788 1_555
Na2 O58 2.460464 1_555
Na2 O52 2.586337 1_555
Na2 O51 2.655637 1_555
Na2 O53 2.660378 1_555
Ge0 O41 1.838208 1_455
Ge0 O40 1.839560 1_555
Ge0 O3 1.933559 1_565
Ge0 O4 1.933649 1_455
Ge0 O5 1.946476 1_465
Ge0 O39 1.954576 1_565
Ge1 O10 1.797995 1_555
Ge1 O11 1.905271 1_545
Ge1 O9 1.906356 1_445
Ge1 O45 1.955488 1_445
Ge1 O47 1.960427 1_555
Ge1 O46 1.965100 1_455
Ge2 O14 1.888226 1_555
Ge2 O13 1.888811 1_555
Ge2 O12 1.890412 1_555
Ge2 O50 1.946290 1_555
Ge2 O49 1.962722 1_555
Ge2 O48 1.963687 1_555
Ge3 O23 1.877839 1_555
Ge3 O22 1.878795 1_555
Ge3 O21 1.879934 1_555
Ge3 O59 1.934205 1_555
Ge3 O58 1.935476 1_555
Ge3 O57 1.952822 1_555
Ge4 O27 1.893811 1_555
Ge4 O29 1.896731 1_555
Ge4 O65 1.898767 1_555
Ge4 O28 1.900763 1_555
Ge4 O63 1.903679 1_555
Ge4 O64 1.905518 1_555
Ge5 O68 1.800323 1_555
Ge5 O66 1.917793 1_555
Ge5 O67 1.919032 1_555
Ge5 O30 1.932028 1_555
Ge5 O31 1.941919 1_555
Ge5 O32 1.946734 1_555
O0 P0 1.540342 1_545
O0 Ta0 2.021863 1_455
O1 P1 1.542683 1_555
O1 Ta0 2.024938 1_565
O2 Si0 1.636182 1_655
O2 Ta0 1.905925 1_555
O3 P2 1.545865 1_555
O4 P3 1.545637 1_555
O5 P4 1.543679 1_555
O6 P4 1.536032 1_565
O6 Ta1 2.000492 1_655
O7 P2 1.538081 1_555
O7 Ta1 1.995081 1_545
O8 P3 1.538918 1_455
O8 Ta1 2.005158 1_555
O9 P1 1.543079 1_555
O10 Si0 1.624121 1_555
O11 P0 1.544876 1_555
O12 P5 1.551592 1_555
O13 P6 1.552170 1_555
O14 P7 1.551637 1_555
O15 P8 1.541088 1_555
O15 Ta2 1.977743 1_555
O16 P9 1.538966 1_555
O16 Ta2 1.987928 1_555
O17 P10 1.531571 1_555
O17 Ta2 2.020589 1_555
O18 P10 1.562736 1_555
O18 Ta3 1.986023 1_554
O19 P8 1.550408 1_555
O19 Ta3 2.031318 1_554
O20 P9 1.547958 1_555
O20 Ta3 2.034345 1_554
O21 P6 1.539659 1_555
O22 P7 1.539471 1_555
O23 P5 1.540220 1_555
O24 Si1 1.638579 1_555
O24 Ta4 1.917742 1_556
O25 P11 1.546988 1_555
O25 Ta4 2.025961 1_556
O26 Si2 1.638897 1_555
O26 Ta4 1.920423 1_556
O27 P12 1.532495 1_555
O28 P13 1.533787 1_555
O29 P14 1.534666 1_555
O30 P14 1.541007 1_555
O31 P12 1.543552 1_555
O32 P13 1.539630 1_555
O33 P11 1.533914 1_555
O33 Ta5 2.039354 1_555
O34 Si2 1.620132 1_555
O34 Ta5 1.921010 1_555
O35 Si1 1.621578 1_555
O35 Ta5 1.925039 1_555
O36 P14 1.555986 1_555
O36 Ta0 1.990700 1_465
O37 P12 1.562968 1_555
O37 Ta0 1.955077 1_565
O38 P13 1.564789 1_555
O38 Ta0 1.960416 1_455
O39 P11 1.521922 1_555
O40 Si2 1.599843 1_555
O41 Si1 1.599872 1_555
O42 P5 1.567189 1_555
O42 Ta1 1.946693 1_645
O43 P6 1.567460 1_555
O43 Ta1 1.943324 1_545
O44 P7 1.567696 1_555
O44 Ta1 1.945106 1_655
O45 P8 1.533709 1_555
O46 P9 1.530357 1_555
O47 P10 1.534005 1_555
O48 P4 1.549125 1_555
O49 P2 1.551243 1_555
O50 P3 1.552149 1_555
O51 P1 1.572589 1_555
O51 Ta2 1.968850 1_555
O52 Si0 1.663406 1_655
O52 Ta2 1.896357 1_555
O53 P0 1.571686 1_545
O53 Ta2 1.971208 1_555
O54 Si1 1.637448 1_555
O54 Ta3 1.910815 1_555
O55 P11 1.550060 1_655
O55 Ta3 1.995719 1_555
O56 Si2 1.637694 1_545
O56 Ta3 1.911785 1_555
O57 P12 1.560015 1_545
O58 P13 1.561563 1_555
O59 P14 1.565057 1_655
O60 P10 1.531012 1_555
O60 Ta4 2.009011 1_555
O61 P8 1.531401 1_455
O61 Ta4 2.010861 1_555
O62 P9 1.540995 1_565
O62 Ta4 1.974636 1_555
O63 P6 1.529015 1_565
O64 P7 1.529319 1_555
O65 P5 1.530332 1_455
O66 P0 1.517337 1_555
O67 P1 1.517335 1_555
O68 Si0 1.597270 1_555
O69 P2 1.541520 1_555
O69 Ta5 1.987702 1_555
O70 P3 1.542582 1_455
O70 Ta5 1.993135 1_555
O71 P4 1.550724 1_565
O71 Ta5 1.958770 1_555
