# generated using pymatgen
data_Gd(GeRh)2
_symmetry_space_group_name_H-M   'P 1'
_cell_length_a   5.94618420
_cell_length_b   5.94618420
_cell_length_c   5.94618420
_cell_angle_alpha   139.44913014
_cell_angle_beta   139.44913014
_cell_angle_gamma   58.69067892
_symmetry_Int_Tables_number   1
_chemical_formula_structural   Gd(GeRh)2
_chemical_formula_sum   'Gd1 Ge2 Rh2'
_cell_volume   88.02853730
_cell_formula_units_Z   1
loop_
 _symmetry_equiv_pos_site_id
 _symmetry_equiv_pos_as_xyz
  1  'x, y, z'
loop_
 _atom_site_type_symbol
 _atom_site_label
 _atom_site_symmetry_multiplicity
 _atom_site_fract_x
 _atom_site_fract_y
 _atom_site_fract_z
 _atom_site_occupancy
  Gd  Gd0  1  0.00000000  0.00000000  -0.00000000  1
  Ge  Ge0  1  0.62270181  0.62270181  -0.00000000  1
  Ge  Ge1  1  0.37729819  0.37729819  0.00000000  1
  Rh  Rh0  1  0.75000000  0.25000000  0.50000000  1
  Rh  Rh1  1  0.25000000  0.75000000  0.50000000  1
loop_
_geom_bond_atom_site_label_1
_geom_bond_atom_site_label_2
_geom_bond_distance
_geom_bond_site_symmetry_2
Gd0 Ge1 3.179569 1_556
Gd0 Ge1 3.179569 1_444
Gd0 Ge1 3.179569 1_545
Gd0 Ge1 3.179569 1_455
Gd0 Ge0 3.179569 1_556
Gd0 Ge0 3.179569 1_545
Gd0 Ge0 3.179569 1_444
Gd0 Ge0 3.179569 1_455
Gd0 Rh1 3.310923 1_544
Gd0 Rh1 3.310923 1_555
Gd0 Rh1 3.310923 1_545
Gd0 Rh0 3.310923 1_455
Gd0 Rh0 3.310923 1_555
Gd0 Rh0 3.310923 1_454
Gd0 Rh0 3.310923 1_444
Gd0 Rh1 3.310923 1_444
Ge0 Rh1 2.446890 1_655
Ge0 Rh1 2.446890 1_554
Ge0 Rh0 2.446890 1_565
Ge0 Rh0 2.446890 1_554
Ge0 Ge1 2.543942 1_555
Ge1 Rh1 2.446890 1_544
Ge1 Rh1 2.446890 1_555
Ge1 Rh0 2.446890 1_555
Ge1 Rh0 2.446890 1_454
