# generated using pymatgen
data_Na3SbH18S4O9
_symmetry_space_group_name_H-M   'P 1'
_cell_length_a   12.01488100
_cell_length_b   12.01488100
_cell_length_c   12.01488100
_cell_angle_alpha   90.00000000
_cell_angle_beta   90.00000000
_cell_angle_gamma   90.00000000
_symmetry_Int_Tables_number   1
_chemical_formula_structural   Na3SbH18S4O9
_chemical_formula_sum   'Na12 Sb4 H72 S16 O36'
_cell_volume   1734.43656729
_cell_formula_units_Z   4
loop_
 _symmetry_equiv_pos_site_id
 _symmetry_equiv_pos_as_xyz
  1  'x, y, z'
loop_
 _atom_site_type_symbol
 _atom_site_label
 _atom_site_symmetry_multiplicity
 _atom_site_fract_x
 _atom_site_fract_y
 _atom_site_fract_z
 _atom_site_occupancy
  Na  Na0  1  0.29199100  0.29199100  0.29199100  1
  Na  Na1  1  0.95034900  0.04965100  0.54965100  1
  Na  Na2  1  0.54965100  0.95034900  0.04965100  1
  Na  Na3  1  0.60514700  0.60514700  0.60514700  1
  Na  Na4  1  0.89485300  0.39485300  0.10514700  1
  Na  Na5  1  0.10514700  0.89485300  0.39485300  1
  Na  Na6  1  0.39485300  0.10514700  0.89485300  1
  Na  Na7  1  0.70800900  0.79199100  0.20800900  1
  Na  Na8  1  0.79199100  0.20800900  0.70800900  1
  Na  Na9  1  0.20800900  0.70800900  0.79199100  1
  Na  Na10  1  0.45034900  0.45034900  0.45034900  1
  Na  Na11  1  0.04965100  0.54965100  0.95034900  1
  Sb  Sb0  1  0.03768700  0.03768700  0.03768700  1
  Sb  Sb1  1  0.46231300  0.96231300  0.53768700  1
  Sb  Sb2  1  0.53768700  0.46231300  0.96231300  1
  Sb  Sb3  1  0.96231300  0.53768700  0.46231300  1
  H  H0  1  0.44227600  0.69560000  0.87366300  1
  H  H1  1  0.94227600  0.80440000  0.12633700  1
  H  H2  1  0.55772400  0.19560000  0.62633700  1
  H  H3  1  0.80440000  0.12633700  0.94227600  1
  H  H4  1  0.62633700  0.55772400  0.19560000  1
  H  H5  1  0.12633700  0.94227600  0.80440000  1
  H  H6  1  0.69560000  0.87366300  0.44227600  1
  H  H7  1  0.87366300  0.44227600  0.69560000  1
  H  H8  1  0.19560000  0.62633700  0.55772400  1
  H  H9  1  0.30440000  0.37366300  0.05772400  1
  H  H10  1  0.37366300  0.05772400  0.30440000  1
  H  H11  1  0.05772400  0.30440000  0.37366300  1
  H  H12  1  0.45337000  0.77913600  0.77398200  1
  H  H13  1  0.95337000  0.72086400  0.22601800  1
  H  H14  1  0.54663000  0.27913600  0.72601800  1
  H  H15  1  0.72086400  0.22601800  0.95337000  1
  H  H16  1  0.72601800  0.54663000  0.27913600  1
  H  H17  1  0.22601800  0.95337000  0.72086400  1
  H  H18  1  0.77913600  0.77398200  0.45337000  1
  H  H19  1  0.77398200  0.45337000  0.77913600  1
  H  H20  1  0.27913600  0.72601800  0.54663000  1
  H  H21  1  0.22086400  0.27398200  0.04663000  1
  H  H22  1  0.27398200  0.04663000  0.22086400  1
  H  H23  1  0.04663000  0.22086400  0.27398200  1
  H  H24  1  0.32708100  0.23980400  0.54171500  1
  H  H25  1  0.82708100  0.26019600  0.45828500  1
  H  H26  1  0.67291900  0.73980400  0.95828500  1
  H  H27  1  0.26019600  0.45828500  0.82708100  1
  H  H28  1  0.95828500  0.67291900  0.73980400  1
  H  H29  1  0.45828500  0.82708100  0.26019600  1
  H  H30  1  0.23980400  0.54171500  0.32708100  1
  H  H31  1  0.54171500  0.32708100  0.23980400  1
  H  H32  1  0.73980400  0.95828500  0.67291900  1
  H  H33  1  0.76019600  0.04171500  0.17291900  1
  H  H34  1  0.20010900  0.08246400  0.52080000  1
  H  H35  1  0.04171500  0.17291900  0.76019600  1
  H  H36  1  0.24460900  0.34011400  0.52218700  1
  H  H37  1  0.74460900  0.15988600  0.47781300  1
  H  H38  1  0.75539100  0.84011400  0.97781300  1
  H  H39  1  0.15988600  0.47781300  0.74460900  1
  H  H40  1  0.97781300  0.75539100  0.84011400  1
  H  H41  1  0.47781300  0.74460900  0.15988600  1
  H  H42  1  0.34011400  0.52218700  0.24460900  1
  H  H43  1  0.52218700  0.24460900  0.34011400  1
  H  H44  1  0.84011400  0.97781300  0.75539100  1
  H  H45  1  0.65988600  0.02218700  0.25539100  1
  H  H46  1  0.02218700  0.25539100  0.65988600  1
  H  H47  1  0.25539100  0.65988600  0.02218700  1
  H  H48  1  0.57703900  0.63155600  0.35971300  1
  H  H49  1  0.07703900  0.86844400  0.64028700  1
  H  H50  1  0.42296100  0.13155600  0.14028700  1
  H  H51  1  0.86844400  0.64028700  0.07703900  1
  H  H52  1  0.14028700  0.42296100  0.13155600  1
  H  H53  1  0.64028700  0.07703900  0.86844400  1
  H  H54  1  0.63155600  0.35971300  0.57703900  1
  H  H55  1  0.35971300  0.57703900  0.63155600  1
  H  H56  1  0.13155600  0.14028700  0.42296100  1
  H  H57  1  0.36844400  0.85971300  0.92296100  1
  H  H58  1  0.85971300  0.92296100  0.36844400  1
  H  H59  1  0.92296100  0.36844400  0.85971300  1
  H  H60  1  0.47920000  0.70010900  0.41753600  1
  H  H61  1  0.97920000  0.79989100  0.58246400  1
  H  H62  1  0.52080000  0.20010900  0.08246400  1
  H  H63  1  0.79989100  0.58246400  0.97920000  1
  H  H64  1  0.08246400  0.52080000  0.20010900  1
  H  H65  1  0.58246400  0.97920000  0.79989100  1
  H  H66  1  0.70010900  0.41753600  0.47920000  1
  H  H67  1  0.41753600  0.47920000  0.70010900  1
  H  H68  1  0.02080000  0.29989100  0.91753600  1
  H  H69  1  0.91753600  0.02080000  0.29989100  1
  H  H70  1  0.29989100  0.91753600  0.02080000  1
  H  H71  1  0.17291900  0.76019600  0.04171500  1
  S  S0  1  0.07612100  0.42387900  0.57612100  1
  S  S1  1  0.14614500  0.15390400  0.92121000  1
  S  S2  1  0.57612100  0.07612100  0.42387900  1
  S  S3  1  0.92387900  0.92387900  0.92387900  1
  S  S4  1  0.92121000  0.14614500  0.15390400  1
  S  S5  1  0.15390400  0.92121000  0.14614500  1
  S  S6  1  0.34609600  0.07879000  0.64614500  1
  S  S7  1  0.42121000  0.35385500  0.84609600  1
  S  S8  1  0.84609600  0.42121000  0.35385500  1
  S  S9  1  0.57879000  0.85385500  0.65390400  1
  S  S10  1  0.07879000  0.64614500  0.34609600  1
  S  S11  1  0.65390400  0.57879000  0.85385500  1
  S  S12  1  0.64614500  0.34609600  0.07879000  1
  S  S13  1  0.85385500  0.65390400  0.57879000  1
  S  S14  1  0.42387900  0.57612100  0.07612100  1
  S  S15  1  0.35385500  0.84609600  0.42121000  1
  O  O0  1  0.40005100  0.75036000  0.83037300  1
  O  O1  1  0.90005100  0.74964000  0.16962700  1
  O  O2  1  0.59994900  0.25036000  0.66962700  1
  O  O3  1  0.74964000  0.16962700  0.90005100  1
  O  O4  1  0.66962700  0.59994900  0.25036000  1
  O  O5  1  0.16962700  0.90005100  0.74964000  1
  O  O6  1  0.75036000  0.83037300  0.40005100  1
  O  O7  1  0.83037300  0.40005100  0.75036000  1
  O  O8  1  0.25036000  0.66962700  0.59994900  1
  O  O9  1  0.24964000  0.33037300  0.09994900  1
  O  O10  1  0.33037300  0.09994900  0.24964000  1
  O  O11  1  0.09994900  0.24964000  0.33037300  1
  O  O12  1  0.31341300  0.30535700  0.49378200  1
  O  O13  1  0.81341300  0.19464300  0.50621800  1
  O  O14  1  0.68658700  0.80535700  0.00621800  1
  O  O15  1  0.19464300  0.50621800  0.81341300  1
  O  O16  1  0.00621800  0.68658700  0.80535700  1
  O  O17  1  0.50621800  0.81341300  0.19464300  1
  O  O18  1  0.30535700  0.49378200  0.31341300  1
  O  O19  1  0.49378200  0.31341300  0.30535700  1
  O  O20  1  0.80535700  0.00621800  0.68658700  1
  O  O21  1  0.69464300  0.99378200  0.18658700  1
  O  O22  1  0.99378200  0.18658700  0.69464300  1
  O  O23  1  0.18658700  0.69464300  0.99378200  1
  O  O24  1  0.52772400  0.63438700  0.42595000  1
  O  O25  1  0.02772400  0.86561300  0.57405000  1
  O  O26  1  0.47227600  0.13438700  0.07405000  1
  O  O27  1  0.86561300  0.57405000  0.02772400  1
  O  O28  1  0.07405000  0.47227600  0.13438700  1
  O  O29  1  0.57405000  0.02772400  0.86561300  1
  O  O30  1  0.63438700  0.42595000  0.52772400  1
  O  O31  1  0.42595000  0.52772400  0.63438700  1
  O  O32  1  0.13438700  0.07405000  0.47227600  1
  O  O33  1  0.36561300  0.92595000  0.97227600  1
  O  O34  1  0.92595000  0.97227600  0.36561300  1
  O  O35  1  0.97227600  0.36561300  0.92595000  1
loop_
_geom_bond_atom_site_label_1
_geom_bond_atom_site_label_2
_geom_bond_distance
_geom_bond_site_symmetry_2
Na0 O9 2.407385 1_555
Na0 O10 2.407385 1_555
Na0 O11 2.407385 1_555
Na0 O18 2.443401 1_555
Na0 O12 2.443401 1_555
Na0 O19 2.443401 1_555
Na1 O34 2.416520 1_545
Na1 O32 2.416520 1_655
Na1 O25 2.416520 1_645
Na1 O13 2.452348 1_555
Na1 O20 2.452348 1_555
Na1 O22 2.452348 1_555
Na2 O33 2.416520 1_554
Na2 O26 2.416520 1_565
Na2 O29 2.416520 1_564
Na2 O14 2.452348 1_555
Na2 O17 2.452348 1_555
Na2 O21 2.452348 1_555
Na3 O30 2.371558 1_555
Na3 O24 2.371558 1_555
Na3 O31 2.371558 1_555
Na3 S13 3.061499 1_555
Na3 S11 3.061499 1_555
Na3 S9 3.061499 1_555
Na4 O35 2.371558 1_554
Na4 O28 2.371558 1_655
Na4 O27 2.371558 1_555
Na4 S4 3.061499 1_555
Na4 S8 3.061499 1_555
Na4 S12 3.061499 1_555
Na5 O34 2.371558 1_455
Na5 O25 2.371558 1_555
Na5 O32 2.371558 1_565
Na5 S5 3.061499 1_555
Na5 S15 3.061499 1_555
Na5 S10 3.061499 1_555
Na6 O26 2.371558 1_556
Na6 O33 2.371558 1_545
Na6 O29 2.371558 1_555
Na6 S7 3.061499 1_555
Na6 S1 3.061499 1_555
Na6 S6 3.061499 1_555
Na7 O6 2.407385 1_555
Na7 O4 2.407385 1_555
Na7 O1 2.407385 1_555
Na7 O14 2.443401 1_555
Na7 O21 2.443401 1_555
Na7 O17 2.443401 1_555
Na8 O7 2.407385 1_555
Na8 O2 2.407385 1_555
Na8 O3 2.407385 1_555
Na8 O20 2.443401 1_555
Na8 O22 2.443401 1_555
Na8 O13 2.443401 1_555
Na9 O0 2.407385 1_555
Na9 O5 2.407385 1_555
Na9 O8 2.407385 1_555
Na9 O16 2.443401 1_555
Na9 O23 2.443401 1_555
Na9 O15 2.443401 1_555
Na10 O31 2.416520 1_555
Na10 O24 2.416520 1_555
Na10 O30 2.416520 1_555
Na10 O18 2.452348 1_555
Na10 O19 2.452348 1_555
Na10 O12 2.452348 1_555
Na11 O35 2.416520 1_455
Na11 O28 2.416520 1_556
Na11 O27 2.416520 1_456
Na11 O16 2.452348 1_555
Na11 O15 2.452348 1_555
Na11 O23 2.452348 1_555
H0 O0 0.980199 1_555
H1 O1 0.980199 1_555
H2 O2 0.980199 1_555
H3 O3 0.980199 1_555
H4 O4 0.980199 1_555
H5 O5 0.980199 1_555
H6 O6 0.980199 1_555
H7 O7 0.980199 1_555
H8 O8 0.980199 1_555
H9 O9 0.980199 1_555
H10 O10 0.980199 1_555
H11 O11 0.980199 1_555
H12 O0 0.994475 1_555
H13 O1 0.994475 1_555
H14 O2 0.994475 1_555
H15 O3 0.994475 1_555
H16 O4 0.994475 1_555
H17 O5 0.994475 1_555
H18 O6 0.994475 1_555
H19 O7 0.994475 1_555
H20 O8 0.994475 1_555
H21 O9 0.994475 1_555
H22 O10 0.994475 1_555
H23 O11 0.994475 1_555
H24 O12 0.989430 1_555
H25 O13 0.989430 1_555
H26 O14 0.989430 1_556
H27 O15 0.989430 1_555
H28 O16 0.989430 1_655
H29 O17 0.989430 1_555
H30 O18 0.989430 1_555
H31 O19 0.989430 1_555
H32 O20 0.989430 1_565
H33 O21 0.989430 1_545
H34 O32 0.986740 1_555
H35 O22 0.989430 1_455
H36 O12 0.987042 1_555
H37 O13 0.987042 1_555
H38 O14 0.987042 1_556
H39 O15 0.987042 1_555
H40 O16 0.987042 1_655
H41 O17 0.987042 1_555
H42 O18 0.987042 1_555
H43 O19 0.987042 1_555
H44 O20 0.987042 1_565
H45 O21 0.987042 1_545
H46 O22 0.987042 1_455
H47 O23 0.987042 1_554
H48 O24 0.992761 1_555
H49 O25 0.992761 1_555
H50 O26 0.992761 1_555
H51 O27 0.992761 1_555
H52 O28 0.992761 1_555
H53 O29 0.992761 1_555
H54 O30 0.992761 1_555
H55 O31 0.992761 1_555
H56 O32 0.992761 1_555
H57 O33 0.992761 1_555
H58 O34 0.992761 1_555
H59 O35 0.992761 1_555
H60 O24 0.986740 1_555
H61 O25 0.986740 1_655
H62 O26 0.986740 1_555
H63 O27 0.986740 1_556
H64 O28 0.986740 1_555
H65 O29 0.986740 1_565
H66 O30 0.986740 1_555
H67 O31 0.986740 1_555
H68 O35 0.986740 1_455
H69 O34 0.986740 1_545
H70 O33 0.986740 1_554
H71 O23 0.989430 1_554
S0 Sb3 2.368388 1_455
S1 Sb0 2.367768 1_556
S2 Sb1 2.368388 1_545
S3 Sb0 2.368388 1_666
S4 Sb0 2.367768 1_655
S5 Sb0 2.367768 1_565
S6 Sb1 2.367768 1_545
S7 Sb2 2.367768 1_555
S8 Sb3 2.367768 1_555
S9 Sb1 2.367768 1_555
S10 Sb3 2.367768 1_455
S11 Sb2 2.367768 1_555
S12 Sb2 2.367768 1_554
S13 Sb3 2.367768 1_555
S14 Sb2 2.368388 1_554
S15 Sb1 2.367768 1_555
