# generated using pymatgen
data_Mn4Nb7Ge8
_symmetry_space_group_name_H-M   'P 1'
_cell_length_a   5.23136700
_cell_length_b   13.85728800
_cell_length_c   16.57659300
_cell_angle_alpha   90.00000000
_cell_angle_beta   90.00000000
_cell_angle_gamma   90.00000000
_symmetry_Int_Tables_number   1
_chemical_formula_structural   Mn4Nb7Ge8
_chemical_formula_sum   'Mn16 Nb28 Ge32'
_cell_volume   1201.67964860
_cell_formula_units_Z   4
loop_
 _symmetry_equiv_pos_site_id
 _symmetry_equiv_pos_as_xyz
  1  'x, y, z'
loop_
 _atom_site_type_symbol
 _atom_site_label
 _atom_site_symmetry_multiplicity
 _atom_site_fract_x
 _atom_site_fract_y
 _atom_site_fract_z
 _atom_site_occupancy
  Mn  Mn0  1  0.50103000  0.55755600  0.11664400  1
  Mn  Mn1  1  0.00103000  0.44244400  0.88335600  1
  Mn  Mn2  1  0.99897000  0.05755600  0.38335600  1
  Mn  Mn3  1  0.49897000  0.94244400  0.61664400  1
  Mn  Mn4  1  0.49897000  0.44244400  0.88335600  1
  Mn  Mn5  1  0.99897000  0.55755600  0.11664400  1
  Mn  Mn6  1  0.00103000  0.94244400  0.61664400  1
  Mn  Mn7  1  0.50103000  0.05755600  0.38335600  1
  Mn  Mn8  1  0.75000000  0.63422300  0.84627200  1
  Mn  Mn9  1  0.25000000  0.36577700  0.15372800  1
  Mn  Mn10  1  0.75000000  0.13422300  0.65372800  1
  Mn  Mn11  1  0.25000000  0.86577700  0.34627200  1
  Mn  Mn12  1  0.75000000  0.81040700  0.75163300  1
  Mn  Mn13  1  0.25000000  0.18959300  0.24836700  1
  Mn  Mn14  1  0.75000000  0.31040700  0.74836700  1
  Mn  Mn15  1  0.25000000  0.68959300  0.25163300  1
  Nb  Nb0  1  0.49680000  0.86293900  0.17885100  1
  Nb  Nb1  1  0.99680000  0.13706100  0.82114900  1
  Nb  Nb2  1  0.00320000  0.36293900  0.32114900  1
  Nb  Nb3  1  0.50320000  0.63706100  0.67885100  1
  Nb  Nb4  1  0.50320000  0.13706100  0.82114900  1
  Nb  Nb5  1  0.00320000  0.86293900  0.17885100  1
  Nb  Nb6  1  0.99680000  0.63706100  0.67885100  1
  Nb  Nb7  1  0.49680000  0.36293900  0.32114900  1
  Nb  Nb8  1  0.75000000  0.56745200  0.30504600  1
  Nb  Nb9  1  0.25000000  0.43254800  0.69495400  1
  Nb  Nb10  1  0.75000000  0.06745200  0.19495400  1
  Nb  Nb11  1  0.25000000  0.93254800  0.80504600  1
  Nb  Nb12  1  0.75000000  0.86927000  0.46160000  1
  Nb  Nb13  1  0.25000000  0.13073000  0.53840000  1
  Nb  Nb14  1  0.75000000  0.36927000  0.03840000  1
  Nb  Nb15  1  0.25000000  0.63073000  0.96160000  1
  Nb  Nb16  1  0.75000000  0.75061500  0.02238900  1
  Nb  Nb17  1  0.25000000  0.24938500  0.97761100  1
  Nb  Nb18  1  0.75000000  0.25061500  0.47761100  1
  Nb  Nb19  1  0.25000000  0.74938500  0.52238900  1
  Nb  Nb20  1  0.75000000  0.95123500  0.90112000  1
  Nb  Nb21  1  0.25000000  0.04876500  0.09888000  1
  Nb  Nb22  1  0.75000000  0.45123500  0.59888000  1
  Nb  Nb23  1  0.25000000  0.54876500  0.40112000  1
  Nb  Nb24  1  0.75000000  0.62899100  0.50505600  1
  Nb  Nb25  1  0.25000000  0.37100900  0.49494400  1
  Nb  Nb26  1  0.75000000  0.12899100  0.99494400  1
  Nb  Nb27  1  0.25000000  0.87100900  0.00505600  1
  Ge  Ge0  1  0.50473400  0.72031200  0.37841300  1
  Ge  Ge1  1  0.00473400  0.27968800  0.62158700  1
  Ge  Ge2  1  0.99526600  0.22031200  0.12158700  1
  Ge  Ge3  1  0.49526600  0.77968800  0.87841300  1
  Ge  Ge4  1  0.49526600  0.27968800  0.62158700  1
  Ge  Ge5  1  0.99526600  0.72031200  0.37841300  1
  Ge  Ge6  1  0.00473400  0.77968800  0.87841300  1
  Ge  Ge7  1  0.50473400  0.22031200  0.12158700  1
  Ge  Ge8  1  0.75000000  0.69499400  0.18842500  1
  Ge  Ge9  1  0.25000000  0.30500600  0.81157500  1
  Ge  Ge10  1  0.75000000  0.19499400  0.31157500  1
  Ge  Ge11  1  0.25000000  0.80500600  0.68842500  1
  Ge  Ge12  1  0.75000000  0.92172200  0.31107300  1
  Ge  Ge13  1  0.25000000  0.07827800  0.68892700  1
  Ge  Ge14  1  0.75000000  0.42172200  0.18892700  1
  Ge  Ge15  1  0.25000000  0.57827800  0.81107300  1
  Ge  Ge16  1  0.75000000  0.55518700  0.98295600  1
  Ge  Ge17  1  0.25000000  0.44481300  0.01704400  1
  Ge  Ge18  1  0.75000000  0.05518700  0.51704400  1
  Ge  Ge19  1  0.25000000  0.94481300  0.48295600  1
  Ge  Ge20  1  0.75000000  0.95048000  0.05963300  1
  Ge  Ge21  1  0.25000000  0.04952000  0.94036700  1
  Ge  Ge22  1  0.75000000  0.45048000  0.44036700  1
  Ge  Ge23  1  0.25000000  0.54952000  0.55963300  1
  Ge  Ge24  1  0.75000000  0.78397200  0.60182100  1
  Ge  Ge25  1  0.25000000  0.21602800  0.39817900  1
  Ge  Ge26  1  0.75000000  0.28397200  0.89817900  1
  Ge  Ge27  1  0.25000000  0.71602800  0.10182100  1
  Ge  Ge28  1  0.75000000  0.98917900  0.74363500  1
  Ge  Ge29  1  0.25000000  0.01082100  0.25636500  1
  Ge  Ge30  1  0.75000000  0.48917900  0.75636500  1
  Ge  Ge31  1  0.25000000  0.51082100  0.24363500  1
loop_
_geom_bond_atom_site_label_1
_geom_bond_atom_site_label_2
_geom_bond_distance
_geom_bond_site_symmetry_2
Ge0 Mn11 2.474460 1_555
Ge0 Mn15 2.524616 1_555
Ge0 Ge5 2.566153 1_555
Ge0 Ge5 2.665214 1_455
Ge0 Nb23 2.751089 1_555
Ge0 Nb8 2.759030 1_555
Ge0 Nb19 2.762998 1_555
Ge0 Nb24 2.766727 1_555
Ge0 Nb12 2.794376 1_555
Ge1 Mn10 2.474460 1_455
Ge1 Mn14 2.524616 1_455
Ge1 Ge4 2.566153 1_555
Ge1 Ge4 2.665214 1_455
Ge1 Nb22 2.751089 1_455
Ge1 Nb9 2.759030 1_555
Ge1 Nb18 2.762998 1_455
Ge1 Nb25 2.766727 1_555
Ge1 Nb13 2.794376 1_555
Ge2 Mn9 2.474460 1_655
Ge2 Mn13 2.524616 1_655
Ge2 Ge7 2.566153 1_555
Ge2 Ge7 2.665214 1_655
Ge2 Nb21 2.751089 1_655
Ge2 Nb10 2.759030 1_555
Ge2 Nb17 2.762998 1_654
Ge2 Nb26 2.766727 1_554
Ge2 Nb14 2.794376 1_555
Ge3 Mn8 2.474460 1_555
Ge3 Mn12 2.524616 1_555
Ge3 Ge6 2.566153 1_555
Ge3 Ge6 2.665214 1_655
Ge3 Nb20 2.751089 1_555
Ge3 Nb11 2.759030 1_555
Ge3 Nb16 2.762998 1_556
Ge3 Nb27 2.766727 1_556
Ge3 Nb15 2.794376 1_555
Ge4 Mn10 2.474460 1_555
Ge4 Mn14 2.524616 1_555
Ge4 Nb22 2.751089 1_555
Ge4 Nb9 2.759030 1_555
Ge4 Nb18 2.762998 1_555
Ge4 Nb25 2.766727 1_555
Ge4 Nb13 2.794376 1_555
Ge5 Mn11 2.474460 1_655
Ge5 Mn15 2.524616 1_655
Ge5 Nb23 2.751089 1_655
Ge5 Nb8 2.759030 1_555
Ge5 Nb19 2.762998 1_655
Ge5 Nb24 2.766727 1_555
Ge5 Nb12 2.794376 1_555
Ge6 Mn8 2.474460 1_455
Ge6 Mn12 2.524616 1_455
Ge6 Nb20 2.751089 1_455
Ge6 Nb11 2.759030 1_555
Ge6 Nb16 2.762998 1_456
Ge6 Nb27 2.766727 1_556
Ge6 Nb15 2.794376 1_555
Ge7 Mn9 2.474460 1_555
Ge7 Mn13 2.524616 1_555
Ge7 Nb21 2.751089 1_555
Ge7 Nb10 2.759030 1_555
Ge7 Nb17 2.762998 1_554
Ge7 Nb26 2.766727 1_554
Ge7 Nb14 2.794376 1_555
Ge8 Mn0 2.596035 1_555
Ge8 Mn5 2.596035 1_555
Ge8 Nb8 2.619319 1_555
Ge8 Nb0 2.682509 1_555
Ge8 Nb5 2.682509 1_655
Ge8 Mn15 2.818729 1_555
Ge8 Mn15 2.818729 1_655
Ge8 Nb16 2.858196 1_555
Ge9 Mn4 2.596035 1_555
Ge9 Mn1 2.596035 1_555
Ge9 Nb9 2.619319 1_555
Ge9 Nb4 2.682509 1_555
Ge9 Nb1 2.682509 1_455
Ge9 Mn14 2.818729 1_455
Ge9 Mn14 2.818729 1_555
Ge9 Nb17 2.858196 1_555
Ge10 Mn7 2.596035 1_555
Ge10 Mn2 2.596035 1_555
Ge10 Nb10 2.619319 1_555
Ge10 Nb7 2.682509 1_555
Ge10 Nb2 2.682509 1_655
Ge10 Mn13 2.818729 1_555
Ge10 Mn13 2.818729 1_655
Ge10 Nb18 2.858196 1_555
Ge11 Mn6 2.596035 1_555
Ge11 Mn3 2.596035 1_555
Ge11 Nb11 2.619319 1_555
Ge11 Nb6 2.682509 1_455
Ge11 Nb3 2.682509 1_555
Ge11 Mn12 2.818729 1_555
Ge11 Mn12 2.818729 1_455
Ge11 Nb19 2.858196 1_555
Ge12 Mn7 2.583622 1_565
Ge12 Mn2 2.583622 1_565
Ge12 Nb12 2.598932 1_555
Ge12 Nb0 2.687376 1_555
Ge12 Nb5 2.687376 1_655
Ge12 Nb10 2.789829 1_565
Ge12 Mn11 2.789849 1_555
Ge12 Mn11 2.789849 1_655
Ge13 Mn6 2.583622 1_545
Ge13 Mn3 2.583622 1_545
Ge13 Nb13 2.598932 1_555
Ge13 Nb1 2.687376 1_455
Ge13 Nb4 2.687376 1_555
Ge13 Nb11 2.789829 1_545
Ge13 Mn10 2.789849 1_455
Ge13 Mn10 2.789849 1_555
Ge14 Mn5 2.583622 1_555
Ge14 Mn0 2.583622 1_555
Ge14 Nb14 2.598932 1_555
Ge14 Nb7 2.687376 1_555
Ge14 Nb2 2.687376 1_655
Ge14 Nb8 2.789829 1_555
Ge14 Mn9 2.789849 1_555
Ge14 Mn9 2.789849 1_655
Ge15 Mn1 2.583622 1_555
Ge15 Mn4 2.583622 1_555
Ge15 Nb15 2.598932 1_555
Ge15 Nb3 2.687376 1_555
Ge15 Nb6 2.687376 1_455
Ge15 Nb9 2.789829 1_555
Ge15 Mn8 2.789849 1_555
Ge15 Mn8 2.789849 1_455
Ge16 Mn8 2.516578 1_555
Ge16 Mn0 2.570705 1_556
Ge16 Mn5 2.570705 1_556
Ge16 Mn4 2.625126 1_555
Ge16 Mn1 2.625126 1_655
Ge16 Nb14 2.735333 1_556
Ge16 Nb16 2.785874 1_556
Ge16 Nb15 2.839535 1_555
Ge16 Nb15 2.839535 1_655
Ge17 Mn9 2.516578 1_555
Ge17 Mn1 2.570705 1_554
Ge17 Mn4 2.570705 1_554
Ge17 Mn5 2.625126 1_455
Ge17 Mn0 2.625126 1_555
Ge17 Nb15 2.735333 1_554
Ge17 Nb17 2.785874 1_554
Ge17 Nb14 2.839535 1_555
Ge17 Nb14 2.839535 1_455
Ge18 Mn10 2.516578 1_555
Ge18 Mn7 2.570705 1_555
Ge18 Mn2 2.570705 1_555
Ge18 Mn3 2.625126 1_545
Ge18 Mn6 2.625126 1_645
Ge18 Nb12 2.735333 1_545
Ge18 Nb18 2.785874 1_555
Ge18 Nb13 2.839535 1_555
Ge18 Nb13 2.839535 1_655
Ge19 Mn11 2.516578 1_555
Ge19 Mn6 2.570705 1_555
Ge19 Mn3 2.570705 1_555
Ge19 Mn7 2.625126 1_565
Ge19 Mn2 2.625126 1_465
Ge19 Nb13 2.735333 1_565
Ge19 Nb19 2.785874 1_555
Ge19 Nb12 2.839535 1_455
Ge19 Nb12 2.839535 1_555
Ge20 Nb20 2.627626 1_554
Ge20 Nb0 2.670498 1_555
Ge20 Nb5 2.670498 1_655
Ge20 Nb26 2.696101 1_564
Ge20 Nb10 2.767514 1_565
Ge20 Nb16 2.837564 1_555
Ge20 Nb27 2.978765 1_555
Ge20 Nb27 2.978765 1_655
Ge20 Nb21 3.019934 1_565
Ge20 Nb21 3.019934 1_665
Ge21 Nb21 2.627626 1_556
Ge21 Nb1 2.670498 1_455
Ge21 Nb4 2.670498 1_555
Ge21 Nb27 2.696101 1_546
Ge21 Nb11 2.767514 1_545
Ge21 Nb17 2.837564 1_555
Ge21 Nb26 2.978765 1_455
Ge21 Nb26 2.978765 1_555
Ge21 Nb20 3.019934 1_445
Ge21 Nb20 3.019934 1_545
Ge22 Nb22 2.627626 1_555
Ge22 Nb7 2.670498 1_555
Ge22 Nb2 2.670498 1_655
Ge22 Nb24 2.696101 1_555
Ge22 Nb8 2.767514 1_555
Ge22 Nb18 2.837564 1_555
Ge22 Nb25 2.978765 1_655
Ge22 Nb25 2.978765 1_555
Ge22 Nb23 3.019934 1_555
Ge22 Nb23 3.019934 1_655
Ge23 Nb23 2.627626 1_555
Ge23 Nb6 2.670498 1_455
Ge23 Nb3 2.670498 1_555
Ge23 Nb25 2.696101 1_555
Ge23 Nb9 2.767514 1_555
Ge23 Nb19 2.837564 1_555
Ge23 Nb24 2.978765 1_555
Ge23 Nb24 2.978765 1_455
Ge23 Nb22 3.019934 1_455
Ge23 Nb22 3.019934 1_555
Ge24 Mn12 2.510245 1_555
Ge24 Mn3 2.570473 1_555
Ge24 Mn6 2.570473 1_655
Ge24 Nb12 2.607661 1_555
Ge24 Nb24 2.680519 1_555
Ge24 Nb6 2.727973 1_555
Ge24 Nb3 2.727973 1_555
Ge24 Nb19 2.967363 1_555
Ge24 Nb19 2.967363 1_655
Ge25 Mn13 2.510245 1_555
Ge25 Mn7 2.570473 1_555
Ge25 Mn2 2.570473 1_455
Ge25 Nb13 2.607661 1_555
Ge25 Nb25 2.680519 1_555
Ge25 Nb2 2.727973 1_555
Ge25 Nb7 2.727973 1_555
Ge25 Nb18 2.967363 1_455
Ge25 Nb18 2.967363 1_555
Ge26 Mn14 2.510245 1_555
Ge26 Mn1 2.570473 1_655
Ge26 Mn4 2.570473 1_555
Ge26 Nb14 2.607661 1_556
Ge26 Nb26 2.680519 1_555
Ge26 Nb4 2.727973 1_555
Ge26 Nb1 2.727973 1_555
Ge26 Nb17 2.967363 1_555
Ge26 Nb17 2.967363 1_655
Ge27 Mn15 2.510245 1_555
Ge27 Mn0 2.570473 1_555
Ge27 Mn5 2.570473 1_455
Ge27 Nb15 2.607661 1_554
Ge27 Nb27 2.680519 1_555
Ge27 Nb5 2.727973 1_555
Ge27 Nb0 2.727973 1_555
Ge27 Nb16 2.967363 1_455
Ge27 Nb16 2.967363 1_555
Ge28 Mn12 2.480840 1_555
Ge28 Mn10 2.502182 1_565
Ge28 Mn3 2.564242 1_555
Ge28 Mn6 2.564242 1_655
Ge28 Nb20 2.662990 1_555
Ge28 Nb4 2.741780 1_565
Ge28 Nb1 2.741780 1_565
Ge28 Nb11 2.914435 1_655
Ge28 Nb11 2.914435 1_555
Ge29 Mn13 2.480840 1_555
Ge29 Mn11 2.502182 1_545
Ge29 Mn7 2.564242 1_555
Ge29 Mn2 2.564242 1_455
Ge29 Nb21 2.662990 1_555
Ge29 Nb0 2.741780 1_545
Ge29 Nb5 2.741780 1_545
Ge29 Nb10 2.914435 1_455
Ge29 Nb10 2.914435 1_555
Ge30 Mn14 2.480840 1_555
Ge30 Mn8 2.502182 1_555
Ge30 Mn4 2.564242 1_555
Ge30 Mn1 2.564242 1_655
Ge30 Nb22 2.662990 1_555
Ge30 Nb6 2.741780 1_555
Ge30 Nb3 2.741780 1_555
Ge30 Nb9 2.914435 1_555
Ge30 Nb9 2.914435 1_655
Ge31 Mn15 2.480840 1_555
Ge31 Mn9 2.502182 1_555
Ge31 Mn0 2.564242 1_555
Ge31 Mn5 2.564242 1_455
Ge31 Nb23 2.662990 1_555
Ge31 Nb2 2.741780 1_555
Ge31 Nb7 2.741780 1_555
Ge31 Nb8 2.914435 1_455
Ge31 Nb8 2.914435 1_555
