# generated using pymatgen
data_KAs2F7
_symmetry_space_group_name_H-M   'P 1'
_cell_length_a   7.26754686
_cell_length_b   8.61391017
_cell_length_c   10.71303339
_cell_angle_alpha   69.40835726
_cell_angle_beta   90.00000000
_cell_angle_gamma   90.00000000
_symmetry_Int_Tables_number   1
_chemical_formula_structural   KAs2F7
_chemical_formula_sum   'K4 As8 F28'
_cell_volume   627.80954521
_cell_formula_units_Z   4
loop_
 _symmetry_equiv_pos_site_id
 _symmetry_equiv_pos_as_xyz
  1  'x, y, z'
loop_
 _atom_site_type_symbol
 _atom_site_label
 _atom_site_symmetry_multiplicity
 _atom_site_fract_x
 _atom_site_fract_y
 _atom_site_fract_z
 _atom_site_occupancy
  K  K0  1  0.65486728  0.27569622  0.07883987  1
  K  K1  1  0.15486728  0.22430378  0.92116013  1
  K  K2  1  0.34513272  0.72430378  0.92116013  1
  K  K3  1  0.84513272  0.77569622  0.07883987  1
  As  As0  1  0.18457001  0.33350797  0.23021898  1
  As  As1  1  0.68457001  0.16649203  0.76978102  1
  As  As2  1  0.81542999  0.66649203  0.76978102  1
  As  As3  1  0.31542999  0.83350797  0.23021898  1
  As  As4  1  0.67252455  0.37546262  0.40550574  1
  As  As5  1  0.17252455  0.12453738  0.59449426  1
  As  As6  1  0.32747545  0.62453738  0.59449426  1
  As  As7  1  0.82747545  0.87546262  0.40550574  1
  F  F0  1  0.00075298  0.30063029  0.37099403  1
  F  F1  1  0.50075298  0.19936971  0.62900597  1
  F  F2  1  0.99924702  0.69936971  0.62900597  1
  F  F3  1  0.49924702  0.80063029  0.37099403  1
  F  F4  1  0.12965017  0.54700271  0.18118260  1
  F  F5  1  0.62965017  0.95299729  0.81881740  1
  F  F6  1  0.87034983  0.45299729  0.81881740  1
  F  F7  1  0.37034983  0.04700271  0.18118260  1
  F  F8  1  0.00519239  0.28892872  0.13592704  1
  F  F9  1  0.50519239  0.21107128  0.86407296  1
  F  F10  1  0.99480761  0.71107128  0.86407296  1
  F  F11  1  0.49480761  0.78892872  0.13592704  1
  F  F12  1  0.06024783  0.94376372  0.38501350  1
  F  F13  1  0.56024783  0.55623628  0.61498650  1
  F  F14  1  0.93975217  0.05623628  0.61498650  1
  F  F15  1  0.43975217  0.44376372  0.38501350  1
  F  F16  1  0.87923060  0.69387898  0.37322012  1
  F  F17  1  0.37923060  0.80612102  0.62677988  1
  F  F18  1  0.12076940  0.30612102  0.62677988  1
  F  F19  1  0.62076940  0.19387898  0.37322012  1
  F  F20  1  0.79148904  0.98253066  0.23335185  1
  F  F21  1  0.29148904  0.51746934  0.76664815  1
  F  F22  1  0.20851096  0.01746934  0.76664815  1
  F  F23  1  0.70851096  0.48253066  0.23335185  1
  F  F24  1  0.18034647  0.89918499  0.06525862  1
  F  F25  1  0.68034647  0.60081501  0.93474138  1
  F  F26  1  0.81965353  0.10081501  0.93474138  1
  F  F27  1  0.31965353  0.39918499  0.06525862  1
loop_
_geom_bond_atom_site_label_1
_geom_bond_atom_site_label_2
_geom_bond_distance
_geom_bond_site_symmetry_2
As0 F4 1.771364 1_555
As0 F8 1.772056 1_555
As0 F27 1.924493 1_555
As0 F0 1.959298 1_555
As1 F5 1.771364 1_545
As1 F9 1.772056 1_555
As1 F26 1.924493 1_555
As1 F1 1.959298 1_555
As2 F6 1.771364 1_555
As2 F10 1.772056 1_555
As2 F25 1.924493 1_555
As2 F2 1.959298 1_555
As3 F7 1.771364 1_565
As3 F11 1.772056 1_555
As3 F24 1.924493 1_555
As3 F3 1.959298 1_555
As4 F19 1.757328 1_555
As4 F23 1.767466 1_555
As4 F15 1.779124 1_555
As5 F18 1.757328 1_555
As5 F22 1.767466 1_555
As5 F14 1.779124 1_455
As6 F17 1.757328 1_555
As6 F21 1.767466 1_555
As6 F13 1.779124 1_555
As7 F16 1.757328 1_555
As7 F20 1.767466 1_555
As7 F12 1.779124 1_655
F4 K3 2.799836 1_455
F4 K2 3.090651 1_554
F5 K2 2.799836 1_555
F5 K3 3.090651 1_556
F6 K1 2.799836 1_655
F6 K0 3.090651 1_556
F7 K0 2.799836 1_555
F7 K1 3.090651 1_554
F8 K0 2.630245 1_455
F8 K1 2.772680 1_554
F9 K1 2.630245 1_555
F9 K0 2.772680 1_556
F10 K2 2.630245 1_655
F10 K3 2.772680 1_556
F11 K3 2.630245 1_555
F11 K2 2.772680 1_554
F16 K3 2.990074 1_555
F17 K2 2.990074 1_555
F18 K1 2.990074 1_555
F19 K0 2.990074 1_555
F20 K0 2.676316 1_565
F20 K3 2.853198 1_555
F21 K1 2.676316 1_555
F21 K2 2.853198 1_555
F22 K2 2.676316 1_545
F22 K1 2.853198 1_555
F23 K3 2.676316 1_555
F23 K0 2.853198 1_555
F24 K3 2.641740 1_455
F24 K1 2.686894 1_564
F24 K2 2.778918 1_554
F25 K2 2.641740 1_555
F25 K0 2.686894 1_556
F25 K3 2.778918 1_556
F26 K1 2.641740 1_655
F26 K3 2.686894 1_546
F26 K0 2.778918 1_556
F27 K0 2.641740 1_555
F27 K2 2.686894 1_554
F27 K1 2.778918 1_554
