# generated using pymatgen
data_Sr2UCoO6
_symmetry_space_group_name_H-M   'P 1'
_cell_length_a   5.86778100
_cell_length_b   5.83853900
_cell_length_c   10.08467682
_cell_angle_alpha   54.97745551
_cell_angle_beta   90.00000000
_cell_angle_gamma   90.00000000
_symmetry_Int_Tables_number   1
_chemical_formula_structural   Sr2UCoO6
_chemical_formula_sum   'Sr4 U2 Co2 O12'
_cell_volume   282.93383227
_cell_formula_units_Z   2
loop_
 _symmetry_equiv_pos_site_id
 _symmetry_equiv_pos_as_xyz
  1  'x, y, z'
loop_
 _atom_site_type_symbol
 _atom_site_label
 _atom_site_symmetry_multiplicity
 _atom_site_fract_x
 _atom_site_fract_y
 _atom_site_fract_z
 _atom_site_occupancy
  Sr  Sr0  1  0.46657900  0.26173700  0.24818800  1
  Sr  Sr1  1  0.03342100  0.26173700  0.74818800  1
  Sr  Sr2  1  0.53342100  0.73826300  0.75181200  1
  Sr  Sr3  1  0.96657900  0.73826300  0.25181200  1
  U  U0  1  0.50000000  0.00000000  0.00000000  1
  U  U1  1  0.00000000  0.00000000  0.50000000  1
  Co  Co0  1  0.50000000  0.50000000  0.50000000  1
  Co  Co1  1  0.00000000  0.50000000  0.00000000  1
  O  O0  1  0.27844500  0.74074400  0.54402400  1
  O  O1  1  0.77844500  0.25925600  0.95597600  1
  O  O2  1  0.72155500  0.25925600  0.45597600  1
  O  O3  1  0.22155500  0.74074400  0.04402400  1
  O  O4  1  0.21642800  0.32011000  0.46007700  1
  O  O5  1  0.71642800  0.67989000  0.03992300  1
  O  O6  1  0.78357200  0.67989000  0.53992300  1
  O  O7  1  0.28357200  0.32011000  0.96007700  1
  O  O8  1  0.48055800  0.16755800  0.75358400  1
  O  O9  1  0.98055800  0.83244200  0.74641600  1
  O  O10  1  0.01944200  0.16755800  0.25358400  1
  O  O11  1  0.51944200  0.83244200  0.24641600  1
loop_
_geom_bond_atom_site_label_1
_geom_bond_atom_site_label_2
_geom_bond_distance
_geom_bond_site_symmetry_2
Co0 O4 2.125856 1_555
Co0 O6 2.125856 1_555
Co0 O0 2.139898 1_555
Co0 O2 2.139898 1_555
Co0 O8 2.150104 1_555
Co0 O11 2.150104 1_555
Co1 O7 2.125856 1_554
Co1 O5 2.125856 1_455
Co1 O1 2.139898 1_454
Co1 O3 2.139898 1_555
Co1 O10 2.150104 1_555
Co1 O9 2.150104 1_454
O0 U1 2.094387 1_565
O0 Sr2 2.568040 1_555
O0 Sr1 2.742004 1_555
O0 Sr0 2.992634 1_565
O1 U0 2.094387 1_556
O1 Sr1 2.568040 1_655
O1 Sr2 2.742004 1_555
O1 Sr3 2.992634 1_546
O2 U1 2.094387 1_655
O2 Sr0 2.568040 1_555
O2 Sr3 2.742004 1_555
O2 Sr2 2.992634 1_545
O3 U0 2.094387 1_565
O3 Sr3 2.568040 1_455
O3 Sr0 2.742004 1_555
O3 Sr1 2.992634 1_564
O4 U1 2.098632 1_555
O4 Sr3 2.575943 1_455
O4 Sr0 2.769951 1_555
O4 Sr1 2.928255 1_555
O5 U0 2.098632 1_565
O5 Sr0 2.575943 1_555
O5 Sr3 2.769951 1_555
O5 Sr2 2.928255 1_554
O6 U1 2.098632 1_665
O6 Sr1 2.575943 1_655
O6 Sr2 2.769951 1_555
O6 Sr3 2.928255 1_555
O7 U0 2.098632 1_556
O7 Sr2 2.575943 1_555
O7 Sr1 2.769951 1_555
O7 Sr0 2.928255 1_556
O8 U0 2.086872 1_556
O8 Sr2 2.535797 1_545
O8 Sr1 2.674843 1_555
O9 U1 2.086872 1_665
O9 Sr1 2.535797 1_665
O9 Sr2 2.674843 1_555
O10 U1 2.086872 1_555
O10 Sr3 2.535797 1_445
O10 Sr0 2.674843 1_555
O11 U0 2.086872 1_565
O11 Sr0 2.535797 1_565
O11 Sr3 2.674843 1_555
