# generated using pymatgen
data_MgV2(OF3)2
_symmetry_space_group_name_H-M   'P 1'
_cell_length_a   5.60534030
_cell_length_b   5.78657990
_cell_length_c   5.09385224
_cell_angle_alpha   90.00215808
_cell_angle_beta   89.93369272
_cell_angle_gamma   116.69375817
_symmetry_Int_Tables_number   1
_chemical_formula_structural   MgV2(OF3)2
_chemical_formula_sum   'Mg1 V2 O2 F6'
_cell_volume   147.61339155
_cell_formula_units_Z   1
loop_
 _symmetry_equiv_pos_site_id
 _symmetry_equiv_pos_as_xyz
  1  'x, y, z'
loop_
 _atom_site_type_symbol
 _atom_site_label
 _atom_site_symmetry_multiplicity
 _atom_site_fract_x
 _atom_site_fract_y
 _atom_site_fract_z
 _atom_site_occupancy
  Mg  Mg0  1  0.91673600  0.35565100  0.75667300  1
  V  V0  1  0.37046300  0.33075500  0.26457600  1
  V  V1  1  0.60041000  0.64469300  0.74899400  1
  O  O0  1  0.30160100  0.49872400  0.93471600  1
  O  O1  1  0.53629300  0.32360400  0.55443700  1
  F  F0  1  0.24118400  0.02265400  0.10951100  1
  F  F1  1  0.49548200  0.71953400  0.42048700  1
  F  F2  1  0.74215400  0.99610800  0.86809500  1
  F  F3  1  0.71568700  0.46073900  0.05174200  1
  F  F4  1  0.95918900  0.71232800  0.66711400  1
  F  F5  1  0.03764700  0.26872200  0.42365500  1
loop_
_geom_bond_atom_site_label_1
_geom_bond_atom_site_label_2
_geom_bond_distance
_geom_bond_site_symmetry_2
Mg0 O0 2.135813 1_655
Mg0 O1 2.300652 1_555
O0 V1 1.771764 1_555
O0 V0 2.062929 1_556
O1 V0 1.756008 1_555
O1 V1 1.991046 1_555
F0 V0 1.779906 1_555
F1 V1 1.888072 1_555
F1 V0 2.183507 1_555
F2 V1 1.919340 1_555
F2 Mg0 1.943693 1_565
F3 V0 2.042850 1_555
F3 Mg0 2.123825 1_554
F3 V1 2.132898 1_554
F4 V1 1.913763 1_555
F4 Mg0 2.020680 1_555
F5 V0 1.913275 1_555
F5 Mg0 1.973203 1_455
