# generated using pymatgen
data_K4Al3Si3ClO12
_symmetry_space_group_name_H-M   'P 1'
_cell_length_a   9.36999200
_cell_length_b   9.36999200
_cell_length_c   9.36999200
_cell_angle_alpha   90.00000000
_cell_angle_beta   90.00000000
_cell_angle_gamma   90.00000000
_symmetry_Int_Tables_number   1
_chemical_formula_structural   K4Al3Si3ClO12
_chemical_formula_sum   'K8 Al6 Si6 Cl2 O24'
_cell_volume   822.65484588
_cell_formula_units_Z   2
loop_
 _symmetry_equiv_pos_site_id
 _symmetry_equiv_pos_as_xyz
  1  'x, y, z'
loop_
 _atom_site_type_symbol
 _atom_site_label
 _atom_site_symmetry_multiplicity
 _atom_site_fract_x
 _atom_site_fract_y
 _atom_site_fract_z
 _atom_site_occupancy
  K  K0  1  0.31364700  0.31364700  0.68635300  1
  K  K1  1  0.81364700  0.81364700  0.18635300  1
  K  K2  1  0.68635300  0.31364700  0.31364700  1
  K  K3  1  0.81364700  0.18635300  0.81364700  1
  K  K4  1  0.31364700  0.68635300  0.31364700  1
  K  K5  1  0.18635300  0.18635300  0.18635300  1
  K  K6  1  0.68635300  0.68635300  0.68635300  1
  K  K7  1  0.18635300  0.81364700  0.81364700  1
  Al  Al0  1  0.25000000  0.50000000  0.00000000  1
  Al  Al1  1  0.50000000  0.00000000  0.75000000  1
  Al  Al2  1  0.50000000  0.00000000  0.25000000  1
  Al  Al3  1  0.00000000  0.25000000  0.50000000  1
  Al  Al4  1  0.00000000  0.75000000  0.50000000  1
  Al  Al5  1  0.75000000  0.50000000  0.00000000  1
  Si  Si0  1  0.75000000  0.00000000  0.50000000  1
  Si  Si1  1  0.00000000  0.50000000  0.75000000  1
  Si  Si2  1  0.00000000  0.50000000  0.25000000  1
  Si  Si3  1  0.50000000  0.25000000  0.00000000  1
  Si  Si4  1  0.25000000  0.00000000  0.50000000  1
  Si  Si5  1  0.50000000  0.75000000  0.00000000  1
  Cl  Cl0  1  0.50000000  0.50000000  0.50000000  1
  Cl  Cl1  1  0.00000000  0.00000000  0.00000000  1
  O  O0  1  0.65357200  0.97883200  0.64426200  1
  O  O1  1  0.65357200  0.02116800  0.35573800  1
  O  O2  1  0.97883200  0.64426200  0.65357200  1
  O  O3  1  0.02116800  0.64426200  0.34642800  1
  O  O4  1  0.64426200  0.65357200  0.97883200  1
  O  O5  1  0.35573800  0.34642800  0.97883200  1
  O  O6  1  0.84642800  0.85573800  0.47883200  1
  O  O7  1  0.84642800  0.14426200  0.52116800  1
  O  O8  1  0.15357200  0.85573800  0.52116800  1
  O  O9  1  0.14426200  0.52116800  0.84642800  1
  O  O10  1  0.52116800  0.15357200  0.85573800  1
  O  O11  1  0.52116800  0.84642800  0.14426200  1
  O  O12  1  0.85573800  0.47883200  0.84642800  1
  O  O13  1  0.47883200  0.84642800  0.85573800  1
  O  O14  1  0.85573800  0.52116800  0.15357200  1
  O  O15  1  0.14426200  0.47883200  0.15357200  1
  O  O16  1  0.47883200  0.15357200  0.14426200  1
  O  O17  1  0.35573800  0.65357200  0.02116800  1
  O  O18  1  0.64426200  0.34642800  0.02116800  1
  O  O19  1  0.97883200  0.35573800  0.34642800  1
  O  O20  1  0.02116800  0.35573800  0.65357200  1
  O  O21  1  0.34642800  0.02116800  0.64426200  1
  O  O22  1  0.15357200  0.14426200  0.47883200  1
  O  O23  1  0.34642800  0.97883200  0.35573800  1
loop_
_geom_bond_atom_site_label_1
_geom_bond_atom_site_label_2
_geom_bond_distance
_geom_bond_site_symmetry_2
K0 O21 2.785745 1_555
K0 O20 2.785745 1_555
K0 O5 2.785745 1_555
K0 O9 2.923982 1_555
K0 O22 2.923982 1_555
K0 O10 2.923982 1_555
K1 O6 2.785745 1_555
K1 O14 2.785745 1_555
K1 O11 2.785745 1_555
K1 O4 2.923982 1_554
K1 O1 2.923982 1_565
K1 O3 2.923982 1_655
K2 O18 2.785745 1_555
K2 O1 2.785745 1_555
K2 O19 2.785745 1_555
K2 O7 2.923982 1_555
K2 O14 2.923982 1_555
K2 O16 2.923982 1_555
K3 O12 2.785745 1_555
K3 O7 2.785745 1_555
K3 O10 2.785745 1_555
K3 O0 2.923982 1_545
K3 O20 2.923982 1_655
K3 O18 2.923982 1_556
K4 O3 2.785745 1_555
K4 O17 2.785745 1_555
K4 O23 2.785745 1_555
K4 O11 2.923982 1_555
K4 O15 2.923982 1_555
K4 O8 2.923982 1_555
K5 O15 2.785745 1_555
K5 O16 2.785745 1_555
K5 O22 2.785745 1_555
K5 O5 2.923982 1_554
K5 O23 2.923982 1_545
K5 O19 2.923982 1_455
K6 O2 2.785745 1_555
K6 O0 2.785745 1_555
K6 O4 2.785745 1_555
K6 O13 2.923982 1_555
K6 O12 2.923982 1_555
K6 O6 2.923982 1_555
K7 O13 2.785745 1_555
K7 O9 2.785745 1_555
K7 O8 2.785745 1_555
K7 O2 2.923982 1_455
K7 O17 2.923982 1_556
K7 O21 2.923982 1_565
Al0 O15 1.758290 1_555
Al0 O5 1.758290 1_554
Al0 O9 1.758290 1_554
Al0 O17 1.758290 1_555
Al1 O10 1.758290 1_555
Al1 O21 1.758290 1_555
Al1 O0 1.758290 1_545
Al1 O13 1.758290 1_545
Al2 O16 1.758290 1_555
Al2 O23 1.758290 1_545
Al2 O11 1.758290 1_545
Al2 O1 1.758290 1_555
Al3 O22 1.758290 1_555
Al3 O19 1.758290 1_455
Al3 O7 1.758290 1_455
Al3 O20 1.758290 1_555
Al4 O8 1.758290 1_555
Al4 O3 1.758290 1_555
Al4 O6 1.758290 1_455
Al4 O2 1.758290 1_455
Al5 O14 1.758290 1_555
Al5 O18 1.758290 1_555
Al5 O4 1.758290 1_554
Al5 O12 1.758290 1_554
Cl0 K2 3.024379 1_555
Cl0 K6 3.024379 1_555
Cl0 K0 3.024379 1_555
Cl0 K4 3.024379 1_555
Cl1 K1 3.024379 1_445
Cl1 K7 3.024379 1_544
Cl1 K3 3.024379 1_454
Cl1 K5 3.024379 1_555
O0 Si0 1.637953 1_565
O1 Si0 1.637953 1_555
O2 Si1 1.637953 1_655
O3 Si2 1.637953 1_555
O4 Si5 1.637953 1_556
O5 Si3 1.637953 1_556
O6 Si0 1.637953 1_565
O7 Si0 1.637953 1_555
O8 Si4 1.637953 1_565
O9 Si1 1.637953 1_555
O10 Si3 1.637953 1_556
O11 Si5 1.637953 1_555
O12 Si1 1.637953 1_655
O13 Si5 1.637953 1_556
O14 Si2 1.637953 1_655
O15 Si2 1.637953 1_555
O16 Si3 1.637953 1_555
O17 Si5 1.637953 1_555
O18 Si3 1.637953 1_555
O19 Si2 1.637953 1_655
O20 Si1 1.637953 1_555
O21 Si4 1.637953 1_555
O22 Si4 1.637953 1_555
O23 Si4 1.637953 1_565
