# generated using pymatgen
data_Zn2Mo(WO4)2
_symmetry_space_group_name_H-M   'P 1'
_cell_length_a   5.77211231
_cell_length_b   5.76108628
_cell_length_c   10.47117765
_cell_angle_alpha   89.95759503
_cell_angle_beta   89.91872005
_cell_angle_gamma   60.05527176
_symmetry_Int_Tables_number   1
_chemical_formula_structural   Zn2Mo(WO4)2
_chemical_formula_sum   'Zn4 Mo2 W4 O16'
_cell_volume   301.72165876
_cell_formula_units_Z   2
loop_
 _symmetry_equiv_pos_site_id
 _symmetry_equiv_pos_as_xyz
  1  'x, y, z'
loop_
 _atom_site_type_symbol
 _atom_site_label
 _atom_site_symmetry_multiplicity
 _atom_site_fract_x
 _atom_site_fract_y
 _atom_site_fract_z
 _atom_site_occupancy
  Zn  Zn0  1  0.33310685  0.33430434  0.03499766  1
  Zn  Zn1  1  0.66201769  0.66878240  0.53626976  1
  Zn  Zn2  1  0.33067419  0.33524768  0.42589481  1
  Zn  Zn3  1  0.66902998  0.66426440  0.92380586  1
  Mo  Mo0  1  0.18342018  0.63216943  0.74266578  1
  Mo  Mo1  1  0.18349447  0.18310177  0.74270466  1
  W  W0  1  0.63818833  0.18019029  0.74224990  1
  W  W1  1  0.81613214  0.36691905  0.24251221  1
  W  W2  1  0.81614363  0.81831035  0.24250216  1
  W  W3  1  0.36494893  0.81823328  0.24241578  1
  O  O0  1  0.99635221  0.00102369  0.83743936  1
  O  O1  1  0.99916551  0.00101450  0.33842859  1
  O  O2  1  0.49064437  0.02823630  0.87109916  1
  O  O3  1  0.49029770  0.47913893  0.87152750  1
  O  O4  1  0.03335100  0.48251793  0.87173011  1
  O  O5  1  0.51350623  0.97182310  0.37214536  1
  O  O6  1  0.51360466  0.51582683  0.37228705  1
  O  O7  1  0.96858454  0.51620635  0.37261266  1
  O  O8  1  0.34034119  0.32938008  0.60668541  1
  O  O9  1  0.66581656  0.66792948  0.10464793  1
  O  O10  1  0.16676401  0.66602835  0.14834803  1
  O  O11  1  0.16674822  0.16885003  0.14827831  1
  O  O12  1  0.66428275  0.16867538  0.14811746  1
  O  O13  1  0.82990535  0.33589213  0.64922293  1
  O  O14  1  0.83007987  0.83320996  0.64902700  1
  O  O15  1  0.33339944  0.83272498  0.64938255  1
loop_
_geom_bond_atom_site_label_1
_geom_bond_atom_site_label_2
_geom_bond_distance
_geom_bond_site_symmetry_2
Mo0 O15 2.008241 1_555
Mo0 O4 2.015091 1_555
Mo0 O14 2.026879 1_455
Mo0 O3 2.044886 1_555
Mo0 O8 2.076870 1_555
Mo0 O0 2.091836 1_465
Mo1 O15 2.008729 1_545
Mo1 O4 2.014844 1_555
Mo1 O13 2.027156 1_455
Mo1 O2 2.042689 1_555
Mo1 O8 2.077169 1_555
Mo1 O0 2.092328 1_455
O0 W0 2.051069 1_555
O1 W1 2.084493 1_555
O1 W2 2.085082 1_545
O1 W3 2.086470 1_645
O2 Zn3 1.898977 1_545
O2 W0 2.012782 1_555
O2 Zn0 2.297989 1_556
O3 Zn3 1.897995 1_555
O3 W0 2.014899 1_555
O3 Zn0 2.280079 1_556
O4 Zn3 1.901390 1_455
O4 Zn0 2.275265 1_556
O5 Zn2 1.899563 1_565
O5 W3 2.031282 1_555
O5 W2 2.032052 1_555
O5 Zn1 2.289534 1_555
O6 Zn2 1.899053 1_555
O6 W3 2.031805 1_555
O6 W1 2.032559 1_555
O6 Zn1 2.284467 1_555
O7 Zn2 1.895659 1_655
O7 W2 2.032381 1_555
O7 W1 2.032393 1_555
O7 Zn1 2.298133 1_555
O8 Zn2 1.893771 1_555
O8 W0 2.058975 1_555
O9 Zn3 1.893724 1_554
O9 W3 2.083332 1_555
O9 W1 2.083698 1_555
O9 W2 2.084000 1_555
O10 W3 2.013359 1_555
O10 W2 2.015093 1_455
O10 Zn0 2.037443 1_555
O11 W3 2.013418 1_545
O11 W1 2.015445 1_455
O11 Zn0 2.036305 1_555
O12 W2 2.013094 1_545
O12 W1 2.013233 1_555
O12 Zn0 2.037511 1_555
O13 W0 1.991163 1_555
O13 Zn1 2.039731 1_555
O14 W0 1.991241 1_565
O14 Zn1 2.038319 1_555
O15 Zn1 2.024747 1_555
