# generated using pymatgen
data_Na7MgTi3Si3(PO8)3
_symmetry_space_group_name_H-M   'P 1'
_cell_length_a   8.95374271
_cell_length_b   8.94846319
_cell_length_c   21.98006403
_cell_angle_alpha   89.89309596
_cell_angle_beta   90.25268590
_cell_angle_gamma   119.93556049
_symmetry_Int_Tables_number   1
_chemical_formula_structural   Na7MgTi3Si3(PO8)3
_chemical_formula_sum   'Na21 Mg3 Ti9 Si9 P9 O72'
_cell_volume   1526.12473767
_cell_formula_units_Z   3
loop_
 _symmetry_equiv_pos_site_id
 _symmetry_equiv_pos_as_xyz
  1  'x, y, z'
loop_
 _atom_site_type_symbol
 _atom_site_label
 _atom_site_symmetry_multiplicity
 _atom_site_fract_x
 _atom_site_fract_y
 _atom_site_fract_z
 _atom_site_occupancy
  Na  Na0  1  0.63490337  0.00795803  0.24560011  1
  Na  Na1  1  0.37464983  0.36675987  0.24566463  1
  Na  Na2  1  0.99358421  0.63061596  0.24817471  1
  Na  Na3  1  0.63134621  0.62323594  0.74691887  1
  Na  Na4  1  0.98971224  0.37007547  0.74431188  1
  Na  Na5  1  0.37486132  0.00526842  0.74639920  1
  Na  Na6  1  0.02903087  0.69174627  0.58469633  1
  Na  Na7  1  0.66463952  0.96883704  0.58169741  1
  Na  Na8  1  0.30908949  0.97127661  0.08373171  1
  Na  Na9  1  0.66202652  0.68940889  0.08599466  1
  Na  Na10  1  0.02843562  0.33634967  0.08152418  1
  Na  Na11  1  0.33341549  0.29697033  0.91735113  1
  Na  Na12  1  0.96579693  0.28725700  0.41480363  1
  Na  Na13  1  0.32214720  0.03503065  0.41566120  1
  Na  Na14  1  0.71279019  0.67699135  0.41576654  1
  Na  Na15  1  0.00812799  0.00970265  0.49565976  1
  Na  Na16  1  0.98984826  0.99248366  0.99634585  1
  Na  Na17  1  0.68130023  0.34002727  0.83469991  1
  Na  Na18  1  0.66472818  0.33356217  0.33231491  1
  Na  Na19  1  0.33716205  0.66860702  0.16556773  1
  Na  Na20  1  0.32944445  0.65305116  0.66357164  1
  Mg  Mg0  1  0.99885640  0.99945303  0.35472010  1
  Mg  Mg1  1  0.67226430  0.33962813  0.68489565  1
  Mg  Mg2  1  0.66334491  0.33197353  0.18239025  1
  Ti  Ti0  1  0.98823100  0.98974956  0.85618435  1
  Ti  Ti1  1  0.00814747  0.00518853  0.64508848  1
  Ti  Ti2  1  0.00062332  0.00552962  0.14593032  1
  Ti  Ti3  1  0.67176985  0.33065473  0.97949330  1
  Ti  Ti4  1  0.67062472  0.32986962  0.48015145  1
  Ti  Ti5  1  0.34058930  0.66321789  0.01673472  1
  Ti  Ti6  1  0.32843546  0.65697963  0.51833724  1
  Ti  Ti7  1  0.33399143  0.66706229  0.31773125  1
  Ti  Ti8  1  0.32413472  0.66185015  0.81628851  1
  Si  Si0  1  0.00196791  0.71134599  0.75044366  1
  Si  Si1  1  0.96426909  0.33478331  0.58614014  1
  Si  Si2  1  0.66348335  0.03915251  0.08525160  1
  Si  Si3  1  0.37544482  0.33373575  0.08374933  1
  Si  Si4  1  0.62582490  0.66520277  0.91536651  1
  Si  Si5  1  0.03679374  0.37328548  0.91662785  1
  Si  Si6  1  0.62102297  0.95712792  0.41886735  1
  Si  Si7  1  0.33756516  0.37676075  0.41648252  1
  Si  Si8  1  0.04203793  0.66416609  0.41767746  1
  P  P0  1  0.29066603  0.99889419  0.25142314  1
  P  P1  1  0.70880363  0.70931227  0.25108700  1
  P  P2  1  0.00094183  0.29379531  0.25112661  1
  P  P3  1  0.28613194  0.28767066  0.75179199  1
  P  P4  1  0.71108446  0.99672385  0.74983848  1
  P  P5  1  0.37584236  0.04424530  0.58485866  1
  P  P6  1  0.66464947  0.62431493  0.58507578  1
  P  P7  1  0.95860512  0.62491877  0.08409646  1
  P  P8  1  0.33380852  0.95588456  0.91676744  1
  O  O0  1  0.20572211  0.02023720  0.30797634  1
  O  O1  1  0.81448793  0.79312706  0.30808924  1
  O  O2  1  0.97657015  0.18577219  0.30752208  1
  O  O3  1  0.20123964  0.18091570  0.80948316  1
  O  O4  1  0.98287192  0.82101960  0.80724708  1
  O  O5  1  0.83032655  0.02499964  0.80570875  1
  O  O6  1  0.79785404  0.97100845  0.69211579  1
  O  O7  1  0.16595598  0.19652379  0.69539204  1
  O  O8  1  0.03139851  0.83463926  0.68980092  1
  O  O9  1  0.80196264  0.82443223  0.19315231  1
  O  O10  1  0.02212226  0.19875089  0.19307416  1
  O  O11  1  0.17563091  0.97705149  0.19319873  1
  O  O12  1  0.88674613  0.37377853  0.64575135  1
  O  O13  1  0.48316075  0.12361680  0.64215884  1
  O  O14  1  0.63968670  0.52372273  0.64358556  1
  O  O15  1  0.88828194  0.51862394  0.14227957  1
  O  O16  1  0.62521107  0.11195439  0.14596058  1
  O  O17  1  0.49052729  0.38042046  0.14414768  1
  O  O18  1  0.46462945  0.29660685  0.02452718  1
  O  O19  1  0.83406620  0.53498803  0.02932692  1
  O  O20  1  0.70342000  0.17474191  0.02800684  1
  O  O21  1  0.46359405  0.15511558  0.52694869  1
  O  O22  1  0.69309306  0.53500696  0.52851721  1
  O  O23  1  0.83352250  0.30204097  0.52632399  1
  O  O24  1  0.53215398  0.69139820  0.97572425  1
  O  O25  1  0.16366424  0.47074801  0.97493929  1
  O  O26  1  0.30980346  0.84579354  0.97417104  1
  O  O27  1  0.52635966  0.83757024  0.47801715  1
  O  O28  1  0.30856150  0.47852032  0.47296460  1
  O  O29  1  0.16554226  0.69277365  0.47670236  1
  O  O30  1  0.13305916  0.62800198  0.35713879  1
  O  O31  1  0.49461631  0.86471508  0.35782600  1
  O  O32  1  0.37147817  0.50275177  0.35554485  1
  O  O33  1  0.13342195  0.49638798  0.85612976  1
  O  O34  1  0.35509817  0.86576808  0.85918856  1
  O  O35  1  0.49872791  0.63777409  0.85659880  1
  O  O36  1  0.02104126  0.83133788  0.41362411  1
  O  O37  1  0.80982219  0.98004797  0.41398781  1
  O  O38  1  0.16900526  0.19014619  0.41290520  1
  O  O39  1  0.03240133  0.18895783  0.91061594  1
  O  O40  1  0.17438304  0.98103950  0.91138974  1
  O  O41  1  0.81542970  0.83837091  0.91052653  1
  O  O42  1  0.97246769  0.15379015  0.58941368  1
  O  O43  1  0.18953391  0.02097105  0.58766210  1
  O  O44  1  0.83454667  0.80830530  0.58762071  1
  O  O45  1  0.97564628  0.80836900  0.08857841  1
  O  O46  1  0.83797700  0.01703669  0.08952706  1
  O  O47  1  0.17995077  0.15780186  0.08990462  1
  O  O48  1  0.68769448  0.15535266  0.74690770  1
  O  O49  1  0.46534110  0.30629493  0.74579372  1
  O  O50  1  0.83100277  0.52339534  0.75067886  1
  O  O51  1  0.68731951  0.52733118  0.24582265  1
  O  O52  1  0.84394777  0.31998615  0.24455977  1
  O  O53  1  0.47317492  0.15807276  0.24665477  1
  O  O54  1  0.63296261  0.48739712  0.92214820  1
  O  O55  1  0.84833108  0.35689730  0.92308861  1
  O  O56  1  0.49661560  0.13784659  0.92070026  1
  O  O57  1  0.63017967  0.14613343  0.42262863  1
  O  O58  1  0.51485901  0.36751299  0.42314229  1
  O  O59  1  0.85311897  0.48643549  0.42325332  1
  O  O60  1  0.34201269  0.49945226  0.07490607  1
  O  O61  1  0.14256878  0.65220159  0.07476106  1
  O  O62  1  0.49494135  0.84550309  0.07488318  1
  O  O63  1  0.35276175  0.85958079  0.57919899  1
  O  O64  1  0.51136480  0.65835629  0.57784604  1
  O  O65  1  0.15488330  0.50652334  0.57675758  1
  O  O66  1  0.30228288  0.82822556  0.25195166  1
  O  O67  1  0.52671757  0.69743157  0.25140260  1
  O  O68  1  0.17198441  0.47392412  0.25116482  1
  O  O69  1  0.30125341  0.47057474  0.75365184  1
  O  O70  1  0.18131849  0.69945929  0.75462031  1
  O  O71  1  0.53156011  0.82897989  0.75474013  1
loop_
_geom_bond_atom_site_label_1
_geom_bond_atom_site_label_2
_geom_bond_distance
_geom_bond_site_symmetry_2
Na0 O16 2.396111 1_555
Na0 O53 2.417378 1_555
Na0 O67 2.447303 1_545
Na0 O52 2.466628 1_555
Na0 O66 2.588072 1_545
Na0 O31 2.777438 1_545
Na0 O9 2.955921 1_545
Na0 O2 2.975920 1_555
Na1 O51 2.426381 1_555
Na1 O53 2.431016 1_555
Na1 O17 2.441959 1_555
Na1 O68 2.442569 1_555
Na1 O67 2.569887 1_555
Na1 O32 2.713084 1_555
Na2 O52 2.410568 1_555
Na2 O51 2.417858 1_555
Na2 O66 2.427751 1_655
Na2 O15 2.521354 1_555
Na2 O68 2.599224 1_655
Na2 O30 2.701643 1_655
Na3 O50 2.365007 1_555
Na3 O71 2.421098 1_555
Na3 O14 2.456144 1_555
Na3 O49 2.458897 1_555
Na3 O69 2.568439 1_555
Na3 O35 2.723845 1_555
Na4 O12 2.357288 1_555
Na4 O48 2.413082 1_555
Na4 O50 2.422722 1_555
Na4 O69 2.474656 1_655
Na4 O70 2.575747 1_655
Na4 O33 2.739487 1_655
Na4 O7 2.919833 1_655
Na4 O5 2.999364 1_555
Na5 O49 2.394699 1_555
Na5 O70 2.406701 1_545
Na5 O48 2.427933 1_555
Na5 O13 2.509402 1_555
Na5 O71 2.587726 1_545
Na5 O34 2.739978 1_545
Na6 O65 2.431933 1_555
Na6 O44 2.436873 1_455
Na6 O63 2.515886 1_555
Na6 O43 2.554039 1_565
Na6 O8 2.637431 1_555
Na6 O29 2.672618 1_555
Na6 O12 2.811199 1_455
Na6 O22 2.881420 1_455
Na7 O64 2.409160 1_555
Na7 O42 2.410148 1_565
Na7 O63 2.455770 1_555
Na7 O44 2.563895 1_555
Na7 O27 2.576759 1_555
Na7 O6 2.695353 1_555
Na7 O23 2.856751 1_565
Na7 O13 2.932045 1_565
Na8 O62 2.438557 1_555
Na8 O47 2.463686 1_565
Na8 O61 2.482933 1_555
Na8 O45 2.590073 1_455
Na8 O26 2.660354 1_554
Na8 O11 2.703205 1_555
Na8 O16 2.807706 1_565
Na8 O18 2.839627 1_565
Na9 O45 2.457049 1_555
Na9 O60 2.508626 1_555
Na9 O62 2.515937 1_555
Na9 O46 2.544255 1_565
Na9 O9 2.655373 1_555
Na9 O24 2.687514 1_554
Na9 O17 2.720927 1_555
Na9 O19 2.825149 1_555
Na10 O60 2.438727 1_555
Na10 O61 2.484341 1_555
Na10 O46 2.498223 1_455
Na10 O47 2.566535 1_555
Na10 O25 2.638567 1_554
Na10 O10 2.729739 1_555
Na10 O20 2.778433 1_455
Na10 O15 2.843281 1_455
Na11 O54 2.354799 1_555
Na11 O39 2.370085 1_555
Na11 O40 2.453408 1_545
Na11 O56 2.498701 1_555
Na11 O3 2.618830 1_555
Na11 O18 2.628529 1_556
Na11 O25 2.951905 1_555
Na11 O35 2.961676 1_555
Na12 O38 2.376176 1_655
Na12 O37 2.382478 1_545
Na12 O59 2.454926 1_555
Na12 O2 2.547913 1_555
Na12 O57 2.621226 1_555
Na12 O23 2.758965 1_555
Na12 O30 2.931109 1_655
Na12 O28 2.951876 1_655
Na13 O36 2.384868 1_545
Na13 O38 2.389359 1_555
Na13 O57 2.424630 1_555
Na13 O0 2.558944 1_555
Na13 O58 2.594580 1_555
Na13 O21 2.714097 1_555
Na13 O31 2.949058 1_545
Na13 O29 2.976813 1_545
Na14 O36 2.392437 1_655
Na14 O37 2.399812 1_555
Na14 O58 2.436985 1_555
Na14 O1 2.564382 1_555
Na14 O59 2.578546 1_555
Na14 O22 2.748755 1_555
Na15 O38 2.383592 1_555
Na15 O37 2.439075 1_445
Na15 O36 2.451322 1_545
Na15 O42 2.537234 1_455
Na15 O43 2.558532 1_555
Na15 O44 2.639647 1_445
Na16 O41 2.394400 1_555
Na16 O39 2.472329 1_665
Na16 O46 2.533108 1_566
Na16 O40 2.534615 1_655
Na16 O45 2.573157 1_556
Na16 O47 2.604217 1_666
Na17 O50 2.390633 1_555
Na17 O55 2.405001 1_555
Na17 O54 2.491456 1_555
Na17 O48 2.562260 1_555
Na17 O56 2.570952 1_555
Na17 O49 2.652391 1_555
Na18 O53 2.499420 1_555
Na18 O51 2.510515 1_555
Na18 O58 2.512234 1_555
Na18 O57 2.514855 1_555
Na18 O59 2.527737 1_555
Na18 O52 2.555979 1_555
Na19 O67 2.458301 1_555
Na19 O68 2.490557 1_555
Na19 O66 2.490661 1_555
Na19 O62 2.501142 1_555
Na19 O60 2.518289 1_555
Na19 O61 2.599268 1_555
Na20 O65 2.396024 1_555
Na20 O64 2.481016 1_555
Na20 O69 2.496253 1_555
Na20 O63 2.550276 1_555
Na20 O70 2.552004 1_555
Na20 O71 2.627795 1_555
Mg0 O1 2.033390 1_555
Mg0 O0 2.047728 1_665
Mg0 O2 2.054168 1_565
Mg0 O38 2.065133 1_665
Mg0 O36 2.065813 1_655
Mg0 O37 2.077798 1_555
Mg1 O12 1.987342 1_555
Mg1 O14 2.023616 1_555
Mg1 O13 2.052289 1_555
Mg1 O50 2.114949 1_555
Mg1 O49 2.186808 1_555
Mg1 O48 2.193947 1_555
Mg2 O17 1.986336 1_555
Mg2 O16 1.991630 1_555
Mg2 O15 2.067872 1_555
Mg2 O52 2.155645 1_555
Mg2 O51 2.162860 1_555
Mg2 O53 2.164400 1_555
O0 P0 1.521280 1_545
O1 P1 1.520676 1_555
O2 P2 1.518535 1_655
O3 P3 1.541941 1_555
O3 Ti0 2.090930 1_445
O4 Si0 1.650815 1_655
O4 Ti0 1.836390 1_555
O5 P4 1.559476 1_545
O5 Ti0 1.938888 1_545
O6 P4 1.566678 1_555
O6 Ti1 2.036805 1_665
O7 P3 1.573515 1_555
O7 Ti1 1.931130 1_555
O8 Si0 1.664581 1_555
O8 Ti1 1.909986 1_565
O9 P1 1.589154 1_555
O9 Ti2 2.000133 1_665
O10 P2 1.598326 1_555
O10 Ti2 1.942451 1_555
O11 P0 1.589119 1_555
O11 Ti2 1.995741 1_565
O12 Si1 1.603687 1_555
O13 P5 1.524974 1_555
O14 P6 1.520380 1_555
O15 P7 1.530204 1_555
O16 Si2 1.597658 1_555
O17 Si3 1.599711 1_555
O18 Si3 1.648655 1_555
O18 Ti3 1.990870 1_554
O19 P7 1.560905 1_555
O19 Ti3 1.999077 1_554
O20 Si2 1.657841 1_555
O20 Ti3 1.884220 1_554
O21 P5 1.564587 1_555
O21 Ti4 2.014281 1_555
O22 P6 1.567997 1_555
O22 Ti4 2.043796 1_555
O23 Si1 1.682394 1_555
O23 Ti4 1.888873 1_555
O24 Si4 1.650942 1_555
O24 Ti5 1.843698 1_556
O25 Si5 1.642045 1_555
O25 Ti5 1.894678 1_556
O26 P8 1.547613 1_555
O26 Ti5 2.015426 1_556
O27 Si6 1.628743 1_555
O27 Ti6 1.920344 1_555
O28 Si7 1.637365 1_555
O28 Ti6 1.815827 1_555
O29 Si8 1.636340 1_555
O29 Ti6 1.876349 1_555
O30 Si8 1.677477 1_555
O30 Ti7 1.869275 1_555
O31 Si6 1.679763 1_555
O31 Ti7 1.851810 1_555
O32 Si7 1.677379 1_555
O32 Ti7 1.857646 1_555
O33 Si5 1.668451 1_555
O33 Ti8 1.833025 1_555
O34 P8 1.564510 1_555
O34 Ti8 1.948060 1_555
O35 Si4 1.653256 1_555
O35 Ti8 1.896958 1_555
O36 Si8 1.600353 1_555
O37 Si6 1.602093 1_555
O38 Si7 1.598955 1_555
O39 Si5 1.635761 1_555
O39 Ti0 2.016347 1_445
O40 P8 1.556076 1_555
O40 Ti0 2.089977 1_455
O41 Si4 1.634027 1_555
O41 Ti0 1.890507 1_555
O42 Si1 1.658880 1_555
O42 Ti1 1.944815 1_655
O43 P5 1.576082 1_555
O43 Ti1 2.009811 1_555
O44 P6 1.589924 1_555
O44 Ti1 2.091265 1_665
O45 P7 1.574265 1_555
O45 Ti2 2.088981 1_665
O46 Si2 1.672193 1_555
O46 Ti2 1.949777 1_655
O47 Si3 1.676811 1_555
O47 Ti2 1.943925 1_555
O48 P4 1.535964 1_545
O49 P3 1.534523 1_555
O50 Si0 1.613220 1_655
O51 P1 1.545998 1_555
O52 P2 1.542271 1_655
O53 P0 1.545359 1_545
O54 Si4 1.630454 1_555
O54 Ti3 2.037821 1_555
O55 Si5 1.626100 1_655
O55 Ti3 1.933152 1_555
O56 P8 1.553768 1_545
O56 Ti3 2.096706 1_555
O57 Si6 1.654131 1_545
O57 Ti4 1.960219 1_555
O58 Si7 1.636236 1_555
O58 Ti4 2.020070 1_555
O59 Si8 1.649796 1_655
O59 Ti4 1.980801 1_555
O60 Si3 1.663685 1_555
O60 Ti5 1.947834 1_555
O61 P7 1.554444 1_455
O61 Ti5 2.150598 1_555
O62 Si2 1.649420 1_565
O62 Ti5 1.986592 1_555
O63 P5 1.564778 1_565
O63 Ti6 2.176287 1_555
O64 P6 1.554633 1_555
O64 Ti6 2.086812 1_555
O65 Si1 1.643569 1_455
O65 Ti6 1.949190 1_555
O66 P0 1.581717 1_555
O66 Ti7 2.155954 1_555
O67 P1 1.580033 1_555
O67 Ti7 2.174807 1_555
O68 P2 1.574742 1_555
O68 Ti7 2.172670 1_555
O69 P3 1.574121 1_555
O69 Ti8 2.126830 1_555
O70 Si0 1.663631 1_555
O70 Ti8 1.999565 1_555
O71 P4 1.562484 1_555
O71 Ti8 2.181421 1_555
