# generated using pymatgen
data_Na2La2MgTi2O8
_symmetry_space_group_name_H-M   'P 1'
_cell_length_a   3.74331632
_cell_length_b   3.74331632
_cell_length_c   15.61771022
_cell_angle_alpha   90.00000000
_cell_angle_beta   90.00000000
_cell_angle_gamma   90.00000000
_symmetry_Int_Tables_number   1
_chemical_formula_structural   Na2La2MgTi2O8
_chemical_formula_sum   'Na2 La2 Mg1 Ti2 O8'
_cell_volume   218.84186931
_cell_formula_units_Z   1
loop_
 _symmetry_equiv_pos_site_id
 _symmetry_equiv_pos_as_xyz
  1  'x, y, z'
loop_
 _atom_site_type_symbol
 _atom_site_label
 _atom_site_symmetry_multiplicity
 _atom_site_fract_x
 _atom_site_fract_y
 _atom_site_fract_z
 _atom_site_occupancy
  Na  Na0  1  0.25000000  0.25000000  0.56583811  1
  Na  Na1  1  0.75000000  0.75000000  0.43416189  1
  La  La0  1  0.75000000  0.75000000  0.16028719  1
  La  La1  1  0.25000000  0.25000000  0.83971281  1
  Mg  Mg0  1  0.25000000  0.75000000  -0.00000000  1
  Ti  Ti0  1  0.25000000  0.25000000  0.30190724  1
  Ti  Ti1  1  0.75000000  0.75000000  0.69809276  1
  O  O0  1  0.75000000  0.75000000  0.92772257  1
  O  O1  1  0.25000000  0.25000000  0.07227743  1
  O  O2  1  0.75000000  0.75000000  0.58324131  1
  O  O3  1  0.25000000  0.25000000  0.41675869  1
  O  O4  1  0.75000000  0.25000000  0.25477052  1
  O  O5  1  0.25000000  0.75000000  0.25341912  1
  O  O6  1  0.75000000  0.25000000  0.74522948  1
  O  O7  1  0.25000000  0.75000000  0.74658088  1
loop_
_geom_bond_atom_site_label_1
_geom_bond_atom_site_label_2
_geom_bond_distance
_geom_bond_site_symmetry_2
Na0 O3 2.328279 1_555
Na0 O2 2.660842 1_445
Na0 O2 2.660842 1_545
Na0 O2 2.660842 1_455
Na0 O2 2.660842 1_555
Na1 O2 2.328279 1_555
Na1 O3 2.660842 1_555
Na1 O3 2.660842 1_655
Na1 O3 2.660842 1_565
Na1 O3 2.660842 1_665
La0 O5 2.370379 1_555
La0 O5 2.370379 1_655
La0 O4 2.383388 1_555
La0 O4 2.383388 1_565
La0 O1 2.982531 1_665
La0 O1 2.982531 1_555
La0 O1 2.982531 1_655
La0 O1 2.982531 1_565
La1 O7 2.370379 1_555
La1 O7 2.370379 1_545
La1 O6 2.383388 1_455
La1 O6 2.383388 1_555
La1 O0 2.982531 1_545
La1 O0 2.982531 1_555
La1 O0 2.982531 1_455
La1 O0 2.982531 1_445
Mg0 O0 2.185706 1_554
Mg0 O0 2.185706 1_454
Mg0 O1 2.185706 1_565
Mg0 O1 2.185706 1_555
O2 Ti1 1.793717 1_555
O3 Ti0 1.793717 1_555
O4 Ti0 2.011230 1_555
O4 Ti0 2.011230 1_655
O5 Ti0 2.019051 1_565
O5 Ti0 2.019051 1_555
O6 Ti1 2.011230 1_545
O6 Ti1 2.011230 1_555
O7 Ti1 2.019051 1_555
O7 Ti1 2.019051 1_455
