# generated using pymatgen
data_Na2Nb3AlSi2(PO6)4
_symmetry_space_group_name_H-M   'P 1'
_cell_length_a   8.72746555
_cell_length_b   8.72827223
_cell_length_c   22.60262658
_cell_angle_alpha   90.02965542
_cell_angle_beta   89.97158235
_cell_angle_gamma   119.97691005
_symmetry_Int_Tables_number   1
_chemical_formula_structural   Na2Nb3AlSi2(PO6)4
_chemical_formula_sum   'Na6 Nb9 Al3 Si6 P12 O72'
_cell_volume   1491.44380251
_cell_formula_units_Z   3
loop_
 _symmetry_equiv_pos_site_id
 _symmetry_equiv_pos_as_xyz
  1  'x, y, z'
loop_
 _atom_site_type_symbol
 _atom_site_label
 _atom_site_symmetry_multiplicity
 _atom_site_fract_x
 _atom_site_fract_y
 _atom_site_fract_z
 _atom_site_occupancy
  Na  Na0  1  0.99835692  0.00002823  0.49474877  1
  Na  Na1  1  0.00047587  0.00022819  0.00089372  1
  Na  Na2  1  0.66767941  0.33358438  0.83170752  1
  Na  Na3  1  0.66632602  0.33355641  0.32841765  1
  Na  Na4  1  0.33327953  0.66507021  0.16561665  1
  Na  Na5  1  0.33147206  0.66541222  0.66683906  1
  Nb  Nb0  1  0.00049481  0.99992718  0.85552466  1
  Nb  Nb1  1  0.99949345  0.00221274  0.64458802  1
  Nb  Nb2  1  0.00258057  0.00299954  0.14625516  1
  Nb  Nb3  1  0.66134443  0.33159016  0.97867323  1
  Nb  Nb4  1  0.67035573  0.32915774  0.47767722  1
  Nb  Nb5  1  0.33328896  0.66330536  0.02261160  1
  Nb  Nb6  1  0.33483397  0.66630665  0.52023515  1
  Nb  Nb7  1  0.33729564  0.67145483  0.31005642  1
  Nb  Nb8  1  0.33277938  0.66664828  0.81287865  1
  Al  Al0  1  0.99600120  0.00000633  0.35161191  1
  Al  Al1  1  0.67032136  0.33537277  0.68622489  1
  Al  Al2  1  0.66536440  0.33516442  0.18655176  1
  Si  Si0  1  0.94958599  0.33690000  0.58745932  1
  Si  Si1  1  0.38669347  0.33470053  0.08822578  1
  Si  Si2  1  0.62014093  0.66579659  0.91681810  1
  Si  Si3  1  0.04409716  0.37976136  0.91690351  1
  Si  Si4  1  0.33457776  0.95358847  0.91742375  1
  Si  Si5  1  0.63543977  0.95537703  0.41469633  1
  P  P0  1  0.29089603  0.01100466  0.25241452  1
  P  P1  1  0.72018014  0.70788015  0.25174453  1
  P  P2  1  0.98901793  0.28253563  0.25193163  1
  P  P3  1  0.29900441  0.28984652  0.74838292  1
  P  P4  1  0.99127602  0.70207409  0.74835527  1
  P  P5  1  0.70976377  0.00828036  0.74871012  1
  P  P6  1  0.38643639  0.05153248  0.58605055  1
  P  P7  1  0.66529741  0.61279990  0.58592943  1
  P  P8  1  0.94775080  0.61401614  0.08694165  1
  P  P9  1  0.66561424  0.05184362  0.08694262  1
  P  P10  1  0.32575019  0.37042717  0.41474344  1
  P  P11  1  0.04650815  0.67619092  0.41478811  1
  O  O0  1  0.19788314  0.03004269  0.30631145  1
  O  O1  1  0.83104274  0.80022160  0.30593963  1
  O  O2  1  0.96880047  0.16951033  0.30564071  1
  O  O3  1  0.20689228  0.17521510  0.80343946  1
  O  O4  1  0.97015714  0.79537115  0.80369059  1
  O  O5  1  0.82521272  0.03101917  0.80360285  1
  O  O6  1  0.80050480  0.97407663  0.69459077  1
  O  O7  1  0.17387905  0.19929692  0.69433082  1
  O  O8  1  0.02598996  0.82557851  0.69443733  1
  O  O9  1  0.79735934  0.82651111  0.19558718  1
  O  O10  1  0.02782804  0.20065283  0.19548469  1
  O  O11  1  0.17191704  0.97173415  0.19583834  1
  O  O12  1  0.85816699  0.36514548  0.64327891  1
  O  O13  1  0.49785470  0.13573115  0.64029510  1
  O  O14  1  0.63426382  0.50087994  0.64043140  1
  O  O15  1  0.86516034  0.50118353  0.14085112  1
  O  O16  1  0.64021470  0.13777947  0.14085215  1
  O  O17  1  0.50638369  0.36357124  0.14390207  1
  O  O18  1  0.46686936  0.30145563  0.02654212  1
  O  O19  1  0.84044616  0.53658744  0.02920234  1
  O  O20  1  0.69897749  0.15996365  0.02909240  1
  O  O21  1  0.46321243  0.16182734  0.52875483  1
  O  O22  1  0.69566433  0.53551533  0.52874338  1
  O  O23  1  0.83258593  0.30235924  0.52624690  1
  O  O24  1  0.53411884  0.70224070  0.97473432  1
  O  O25  1  0.16805002  0.46644120  0.97460608  1
  O  O26  1  0.29820615  0.83264229  0.97520554  1
  O  O27  1  0.53167707  0.83420608  0.47338176  1
  O  O28  1  0.30086632  0.46170431  0.47115444  1
  O  O29  1  0.15974179  0.69633988  0.47111798  1
  O  O30  1  0.12924590  0.63429996  0.36124378  1
  O  O31  1  0.49764403  0.86136566  0.35924473  1
  O  O32  1  0.36145526  0.49446315  0.36137020  1
  O  O33  1  0.13464106  0.50021185  0.85802116  1
  O  O34  1  0.36571858  0.86525792  0.85805659  1
  O  O35  1  0.49958861  0.63353918  0.85798861  1
  O  O36  1  0.02925974  0.83859881  0.40728778  1
  O  O37  1  0.82562148  0.97743236  0.40649371  1
  O  O38  1  0.16539786  0.18903551  0.40719144  1
  O  O39  1  0.02657346  0.18721138  0.90745977  1
  O  O40  1  0.16203591  0.97520238  0.90749048  1
  O  O41  1  0.81341004  0.83941235  0.90765995  1
  O  O42  1  0.97527978  0.16147579  0.59164496  1
  O  O43  1  0.19635198  0.02486862  0.59149759  1
  O  O44  1  0.83032723  0.80219161  0.59178474  1
  O  O45  1  0.97054681  0.80307271  0.09199017  1
  O  O46  1  0.82935995  0.02466173  0.09192689  1
  O  O47  1  0.18464977  0.16028344  0.09194516  1
  O  O48  1  0.69011190  0.17031096  0.74102935  1
  O  O49  1  0.47981900  0.30762461  0.73977333  1
  O  O50  1  0.82667611  0.52152233  0.74161827  1
  O  O51  1  0.69463507  0.52359472  0.24279541  1
  O  O52  1  0.83017435  0.30710398  0.24116139  1
  O  O53  1  0.47620921  0.16656620  0.24266322  1
  O  O54  1  0.64405072  0.49572388  0.92346266  1
  O  O55  1  0.85218169  0.35792997  0.92389088  1
  O  O56  1  0.50742500  0.14659919  0.92295194  1
  O  O57  1  0.63989473  0.14578291  0.42374008  1
  O  O58  1  0.49675723  0.36137316  0.42438115  1
  O  O59  1  0.86193855  0.50717815  0.42410184  1
  O  O60  1  0.35720922  0.50484295  0.07828321  1
  O  O61  1  0.13659008  0.64182249  0.07859491  1
  O  O62  1  0.50218447  0.86496534  0.07864771  1
  O  O63  1  0.36078726  0.86347931  0.57659056  1
  O  O64  1  0.50333791  0.64049034  0.57692595  1
  O  O65  1  0.14832551  0.50525254  0.57545846  1
  O  O66  1  0.30420650  0.83609725  0.25767171  1
  O  O67  1  0.52959065  0.69005941  0.25809776  1
  O  O68  1  0.16125204  0.46940170  0.25795033  1
  O  O69  1  0.30914473  0.47136641  0.75420556  1
  O  O70  1  0.16231745  0.69044894  0.75456747  1
  O  O71  1  0.52837209  0.83649353  0.75427881  1
loop_
_geom_bond_atom_site_label_1
_geom_bond_atom_site_label_2
_geom_bond_distance
_geom_bond_site_symmetry_2
Na0 O37 2.448725 1_545
Na0 O36 2.518389 1_645
Na0 O38 2.522016 1_655
Na0 O42 2.665117 1_555
Na0 O44 2.722672 1_545
Na0 O43 2.728340 1_655
Na1 O47 2.554800 1_555
Na1 O41 2.605151 1_444
Na1 O40 2.607140 1_544
Na1 O39 2.609019 1_554
Na1 O45 2.612086 1_445
Na1 O46 2.612314 1_455
Na2 O50 2.547291 1_555
Na2 O48 2.558384 1_555
Na2 O56 2.567621 1_555
Na2 O54 2.575767 1_555
Na2 O55 2.576876 1_555
Na2 O49 2.586310 1_555
Na3 O51 2.480123 1_555
Na3 O53 2.493581 1_555
Na3 O52 2.512860 1_555
Na3 O57 2.647021 1_555
Na3 O59 2.702464 1_555
Na3 O58 2.703531 1_555
Na4 O60 2.486881 1_555
Na4 O61 2.551769 1_555
Na4 O62 2.551810 1_555
Na4 O68 2.639055 1_555
Na4 O67 2.642354 1_555
Na4 O66 2.645139 1_555
Na5 O70 2.545208 1_555
Na5 O69 2.545448 1_555
Na5 O71 2.554388 1_555
Na5 O65 2.557837 1_555
Na5 O64 2.598052 1_555
Na5 O63 2.603130 1_555
Nb0 O40 1.928672 1_555
Nb0 O39 1.930906 1_565
Nb0 O41 1.931650 1_455
Nb0 O4 2.038674 1_455
Nb0 O5 2.051358 1_465
Nb0 O3 2.053590 1_565
Nb1 O42 1.924712 1_555
Nb1 O7 1.980650 1_655
Nb1 O6 1.981365 1_545
Nb1 O8 2.014494 1_645
Nb1 O44 2.018901 1_545
Nb1 O43 2.022262 1_655
Nb2 O47 1.932965 1_555
Nb2 O10 1.970100 1_555
Nb2 O11 1.979789 1_545
Nb2 O9 2.016644 1_445
Nb2 O46 2.028997 1_455
Nb2 O45 2.034263 1_445
Nb3 O18 1.916488 1_556
Nb3 O56 1.957017 1_555
Nb3 O54 1.962271 1_555
Nb3 O55 1.993901 1_555
Nb3 O20 2.035777 1_556
Nb3 O19 2.038124 1_556
Nb4 O23 1.896652 1_555
Nb4 O57 1.921399 1_555
Nb4 O59 2.019935 1_555
Nb4 O21 2.023698 1_555
Nb4 O22 2.055651 1_555
Nb4 O58 2.062410 1_555
Nb5 O25 1.932077 1_554
Nb5 O24 1.939560 1_554
Nb5 O60 1.957176 1_555
Nb5 O26 1.969923 1_554
Nb5 O61 2.063914 1_555
Nb5 O62 2.069276 1_555
Nb6 O27 1.924681 1_555
Nb6 O65 1.974041 1_555
Nb6 O28 1.994230 1_555
Nb6 O29 2.009630 1_555
Nb6 O64 2.046625 1_555
Nb6 O63 2.060111 1_555
Nb7 O31 1.903592 1_555
Nb7 O67 1.986961 1_555
Nb7 O66 1.991791 1_555
Nb7 O32 2.025774 1_555
Nb7 O68 2.037100 1_555
Nb7 O30 2.037291 1_555
Nb8 O34 1.905497 1_555
Nb8 O33 1.905567 1_555
Nb8 O35 1.914345 1_555
Nb8 O70 2.074744 1_555
Nb8 O71 2.082525 1_555
Nb8 O69 2.086405 1_555
Al0 O37 1.869320 1_545
Al0 O1 1.915718 1_545
Al0 O2 1.917729 1_555
Al0 O0 1.938652 1_655
Al0 O38 2.012007 1_655
Al0 O36 2.015801 1_645
Al1 O12 1.808428 1_555
Al1 O14 1.927009 1_555
Al1 O13 1.938660 1_555
Al1 O50 1.963045 1_555
Al1 O49 1.970719 1_555
Al1 O48 1.972467 1_555
Al2 O17 1.805898 1_555
Al2 O15 1.918876 1_555
Al2 O16 1.924516 1_555
Al2 O51 1.991129 1_555
Al2 O52 2.001640 1_555
Al2 O53 2.017802 1_555
O0 P0 1.517967 1_555
O1 P1 1.518926 1_555
O2 P2 1.518269 1_555
O3 P3 1.546752 1_555
O4 P4 1.552451 1_555
O5 P5 1.547623 1_555
O6 P5 1.564458 1_565
O7 P3 1.564485 1_555
O8 P4 1.553595 1_455
O9 P1 1.562219 1_555
O10 P2 1.579191 1_455
O11 P0 1.573587 1_565
O12 Si0 1.576199 1_555
O13 P6 1.508317 1_555
O14 P7 1.510528 1_555
O15 P8 1.505052 1_555
O16 P9 1.503803 1_555
O17 Si1 1.573611 1_555
O18 Si1 1.648990 1_555
O19 P8 1.550735 1_555
O20 P9 1.552867 1_555
O21 P6 1.551991 1_555
O22 P7 1.540577 1_555
O23 Si0 1.655640 1_555
O24 Si2 1.617309 1_555
O25 Si3 1.620551 1_555
O26 Si4 1.608417 1_555
O27 Si5 1.655674 1_555
O28 P10 1.574539 1_555
O29 P11 1.567143 1_555
O30 P11 1.543472 1_555
O31 Si5 1.644622 1_555
O32 P10 1.545434 1_555
O33 Si3 1.634387 1_555
O34 Si4 1.636090 1_555
O35 Si2 1.630738 1_555
O36 P11 1.508090 1_555
O37 Si5 1.583293 1_555
O38 P10 1.510000 1_555
O39 Si3 1.623661 1_555
O40 Si4 1.624147 1_555
O41 Si2 1.621735 1_555
O42 Si0 1.657388 1_555
O43 P6 1.560597 1_555
O44 P7 1.563747 1_555
O45 P8 1.564390 1_555
O46 P9 1.565333 1_555
O47 Si1 1.658739 1_555
O48 P5 1.517341 1_555
O49 P3 1.518956 1_555
O50 P4 1.519213 1_555
O51 P1 1.522900 1_555
O52 P2 1.524643 1_555
O53 P0 1.520982 1_555
O54 Si2 1.606073 1_555
O55 Si3 1.596087 1_655
O56 Si4 1.609256 1_545
O57 Si5 1.655397 1_545
O58 P10 1.548977 1_555
O59 P11 1.562251 1_655
O60 Si1 1.644495 1_555
O61 P8 1.552648 1_455
O62 P9 1.550866 1_565
O63 P6 1.556428 1_565
O64 P7 1.561897 1_555
O65 Si0 1.641424 1_455
O66 P0 1.592377 1_565
O67 P1 1.597759 1_555
O68 P2 1.577412 1_455
O69 P3 1.547583 1_555
O70 P4 1.552392 1_455
O71 P5 1.548609 1_565
