# generated using pymatgen
data_Na5CoO4
_symmetry_space_group_name_H-M   'P 1'
_cell_length_a   5.90659547
_cell_length_b   10.22110955
_cell_length_c   17.72073386
_cell_angle_alpha   90.00000000
_cell_angle_beta   90.00000000
_cell_angle_gamma   90.00000000
_symmetry_Int_Tables_number   1
_chemical_formula_structural   Na5CoO4
_chemical_formula_sum   'Na40 Co8 O32'
_cell_volume   1069.83542454
_cell_formula_units_Z   8
loop_
 _symmetry_equiv_pos_site_id
 _symmetry_equiv_pos_as_xyz
  1  'x, y, z'
loop_
 _atom_site_type_symbol
 _atom_site_label
 _atom_site_symmetry_multiplicity
 _atom_site_fract_x
 _atom_site_fract_y
 _atom_site_fract_z
 _atom_site_occupancy
  Na  Na0  1  0.10338164  0.42183148  0.75240038  1
  Na  Na1  1  0.42187374  0.29926586  0.64024069  1
  Na  Na2  1  0.57812726  0.20073314  0.14024069  1
  Na  Na3  1  0.07812726  0.79926686  0.35975931  1
  Na  Na4  1  0.07812726  0.29926586  0.14024069  1
  Na  Na5  1  0.57812726  0.70073314  0.35975931  1
  Na  Na6  1  0.42187374  0.79926686  0.85975931  1
  Na  Na7  1  0.92187374  0.20073314  0.64024069  1
  Na  Na8  1  0.89657532  0.82711100  0.17123499  1
  Na  Na9  1  0.39657532  0.17288800  0.32876501  1
  Na  Na10  1  0.60342568  0.32711200  0.82876501  1
  Na  Na11  1  0.10342468  0.67288900  0.67123499  1
  Na  Na12  1  0.10342468  0.17288800  0.82876501  1
  Na  Na13  1  0.60342568  0.82711100  0.67123499  1
  Na  Na14  1  0.39657532  0.67288900  0.17123499  1
  Na  Na15  1  0.89657532  0.32711200  0.32876501  1
  Na  Na16  1  0.91695033  0.16044173  0.00137924  1
  Na  Na17  1  0.41695033  0.83955827  0.49862076  1
  Na  Na18  1  0.58305067  0.66044073  0.99862076  1
  Na  Na19  1  0.08305067  0.33955927  0.50137924  1
  Na  Na20  1  0.08305067  0.83955827  0.99862076  1
  Na  Na21  1  0.58305067  0.16044173  0.50137924  1
  Na  Na22  1  0.41695033  0.33955927  0.00137924  1
  Na  Na23  1  0.91695033  0.66044073  0.49862076  1
  Na  Na24  1  0.92433055  0.93848138  0.56529209  1
  Na  Na25  1  0.39661936  0.92183148  0.24759962  1
  Na  Na26  1  0.60338164  0.57816752  0.74759962  1
  Na  Na27  1  0.92187374  0.70073314  0.85975931  1
  Na  Na28  1  0.10338164  0.92183148  0.74759962  1
  Na  Na29  1  0.60338164  0.07816852  0.75240038  1
  Na  Na30  1  0.39661936  0.42183148  0.25240038  1
  Na  Na31  1  0.89661936  0.57816752  0.24759962  1
  Na  Na32  1  0.92433055  0.43848038  0.93470791  1
  Na  Na33  1  0.42433055  0.56151862  0.56529209  1
  Na  Na34  1  0.57567045  0.93848138  0.06529209  1
  Na  Na35  1  0.07566945  0.06151962  0.43470791  1
  Na  Na36  1  0.07566945  0.56151862  0.06529209  1
  Na  Na37  1  0.57567045  0.43848038  0.43470791  1
  Na  Na38  1  0.42433055  0.06151962  0.93470791  1
  Na  Na39  1  0.89661936  0.07816852  0.25240038  1
  Co  Co0  1  0.82658686  0.45941032  0.62294897  1
  Co  Co1  1  0.32658686  0.54059068  0.87705103  1
  Co  Co2  1  0.67341414  0.95940932  0.37705103  1
  Co  Co3  1  0.17341314  0.04059068  0.12294897  1
  Co  Co4  1  0.17341314  0.54059068  0.37705103  1
  Co  Co5  1  0.67341414  0.45941032  0.12294897  1
  Co  Co6  1  0.32658686  0.04059068  0.62294897  1
  Co  Co7  1  0.82658686  0.95940932  0.87705103  1
  O  O0  1  0.85916086  0.04427072  0.12097181  1
  O  O1  1  0.35916186  0.95572928  0.37902819  1
  O  O2  1  0.64083814  0.54427072  0.87902819  1
  O  O3  1  0.14083814  0.45572828  0.62097181  1
  O  O4  1  0.14083814  0.95572928  0.87902819  1
  O  O5  1  0.64083814  0.04427072  0.62097181  1
  O  O6  1  0.35916186  0.45572828  0.12097181  1
  O  O7  1  0.85916086  0.54427072  0.37902819  1
  O  O8  1  0.81103074  0.36549379  0.04649711  1
  O  O9  1  0.31103074  0.63450621  0.45350289  1
  O  O10  1  0.68896826  0.86549479  0.95350289  1
  O  O11  1  0.18896826  0.13450521  0.54649711  1
  O  O12  1  0.18896826  0.63450621  0.95350289  1
  O  O13  1  0.68896826  0.36549379  0.54649711  1
  O  O14  1  0.31103074  0.13450521  0.04649711  1
  O  O15  1  0.81103074  0.86549479  0.45350289  1
  O  O16  1  0.73477077  0.37023785  0.71166999  1
  O  O17  1  0.23476977  0.62976215  0.78833001  1
  O  O18  1  0.76522823  0.87023785  0.28833001  1
  O  O19  1  0.26522823  0.12976115  0.21166999  1
  O  O20  1  0.26522823  0.62976215  0.28833001  1
  O  O21  1  0.76522823  0.37023785  0.21166999  1
  O  O22  1  0.23476977  0.12976115  0.71166999  1
  O  O23  1  0.73477077  0.87023785  0.78833001  1
  O  O24  1  0.74281649  0.13761984  0.87570266  1
  O  O25  1  0.24281549  0.86238016  0.62429734  1
  O  O26  1  0.75718451  0.63761984  0.12429734  1
  O  O27  1  0.25718451  0.36238016  0.37570266  1
  O  O28  1  0.25718451  0.86238016  0.12429734  1
  O  O29  1  0.75718451  0.13761984  0.37570266  1
  O  O30  1  0.24281549  0.36238016  0.87570266  1
  O  O31  1  0.74281649  0.63761984  0.62429734  1
loop_
_geom_bond_atom_site_label_1
_geom_bond_atom_site_label_2
_geom_bond_distance
_geom_bond_site_symmetry_2
Na0 O17 2.350420 1_555
Na0 O16 2.353593 1_455
Na0 O3 2.365011 1_555
Na0 O30 2.412838 1_555
Na1 O3 2.330145 1_555
Na1 O16 2.354592 1_555
Na1 O13 2.388872 1_555
Na1 O22 2.413544 1_555
Na1 O11 2.736434 1_555
Na2 O0 2.330137 1_555
Na2 O19 2.354601 1_555
Na2 O14 2.388880 1_555
Na2 O21 2.413536 1_555
Na2 O8 2.736428 1_555
Na3 O1 2.330141 1_555
Na3 O18 2.354598 1_455
Na3 O15 2.388880 1_455
Na3 O20 2.413536 1_555
Na3 O9 2.736428 1_555
Na4 O6 2.330141 1_555
Na4 O21 2.354601 1_455
Na4 O8 2.388880 1_455
Na4 O19 2.413536 1_555
Na4 O14 2.736428 1_555
Na5 O7 2.330137 1_555
Na5 O20 2.354598 1_555
Na5 O9 2.388877 1_555
Na5 O18 2.413536 1_555
Na5 O15 2.736435 1_555
Na6 O4 2.330145 1_555
Na6 O23 2.354589 1_555
Na6 O10 2.388872 1_555
Na6 O17 2.413544 1_555
Na6 O12 2.736434 1_555
Na7 O5 2.330145 1_555
Na7 O22 2.354587 1_655
Na7 O11 2.388872 1_655
Na7 O16 2.413542 1_555
Na7 O13 2.736434 1_555
Na8 O18 2.258730 1_555
Na8 O26 2.262949 1_555
Na8 O28 2.314860 1_655
Na8 O0 2.401847 1_565
Na9 O19 2.258730 1_555
Na9 O27 2.262958 1_555
Na9 O29 2.314858 1_555
Na9 O1 2.401837 1_545
Na10 O16 2.258724 1_555
Na10 O24 2.262958 1_555
Na10 O30 2.314864 1_555
Na10 O2 2.401836 1_555
Na11 O17 2.258726 1_555
Na11 O25 2.262949 1_555
Na11 O31 2.314855 1_455
Na11 O3 2.401856 1_555
Na12 O22 2.258726 1_555
Na12 O30 2.262958 1_555
Na12 O24 2.314853 1_455
Na12 O4 2.401837 1_545
Na13 O23 2.258726 1_555
Na13 O31 2.262949 1_555
Na13 O25 2.314865 1_555
Na13 O5 2.401846 1_565
Na14 O20 2.258730 1_555
Na14 O28 2.262949 1_555
Na14 O26 2.314860 1_555
Na14 O6 2.401856 1_555
Na15 O21 2.258728 1_555
Na15 O29 2.262958 1_555
Na15 O27 2.314858 1_655
Na15 O7 2.401837 1_555
Na16 O8 2.328791 1_555
Na16 O0 2.453104 1_555
Na16 O24 2.464182 1_554
Na16 O14 2.475394 1_655
Na17 O9 2.328791 1_555
Na17 O1 2.453103 1_555
Na17 O25 2.464185 1_555
Na17 O15 2.475394 1_555
Na18 O10 2.328806 1_555
Na18 O2 2.453098 1_555
Na18 O26 2.464181 1_556
Na18 O12 2.475403 1_555
Na19 O11 2.328806 1_555
Na19 O3 2.453093 1_555
Na19 O27 2.464181 1_555
Na19 O13 2.475403 1_455
Na20 O12 2.328788 1_555
Na20 O4 2.453103 1_555
Na20 O28 2.464182 1_556
Na20 O10 2.475405 1_455
Na21 O13 2.328788 1_555
Na21 O5 2.453103 1_555
Na21 O29 2.464182 1_555
Na21 O11 2.475405 1_555
Na22 O14 2.328809 1_555
Na22 O6 2.453094 1_555
Na22 O30 2.464184 1_554
Na22 O8 2.475392 1_555
Na23 O15 2.328809 1_555
Na23 O7 2.453099 1_555
Na23 O31 2.464181 1_555
Na23 O9 2.475392 1_655
Na24 O15 2.220063 1_555
Na24 O5 2.224093 1_565
Na24 O25 2.288475 1_655
Na24 O11 2.562923 1_665
Na25 O19 2.350417 1_565
Na25 O18 2.353582 1_555
Na25 O1 2.365013 1_555
Na25 O28 2.412840 1_555
Na26 O16 2.350413 1_555
Na26 O17 2.353601 1_555
Na26 O2 2.365011 1_555
Na26 O31 2.412843 1_555
Na27 O2 2.330145 1_555
Na27 O17 2.354584 1_655
Na27 O12 2.388869 1_655
Na27 O23 2.413542 1_555
Na27 O10 2.736441 1_555
Na28 O22 2.350411 1_565
Na28 O23 2.353593 1_455
Na28 O4 2.365012 1_555
Na28 O25 2.412838 1_555
Na29 O23 2.350422 1_545
Na29 O22 2.353596 1_555
Na29 O5 2.365012 1_555
Na29 O24 2.412840 1_555
Na30 O20 2.350426 1_555
Na30 O21 2.353582 1_555
Na30 O6 2.365011 1_555
Na30 O27 2.412840 1_555
Na31 O21 2.350417 1_555
Na31 O20 2.353585 1_655
Na31 O7 2.365012 1_555
Na31 O26 2.412843 1_555
Na32 O8 2.220063 1_556
Na32 O2 2.224098 1_555
Na32 O30 2.288471 1_655
Na32 O12 2.562939 1_655
Na33 O9 2.220067 1_555
Na33 O3 2.224098 1_555
Na33 O31 2.288480 1_555
Na33 O13 2.562931 1_555
Na34 O10 2.220060 1_554
Na34 O0 2.224084 1_565
Na34 O28 2.288480 1_555
Na34 O14 2.562930 1_565
Na35 O11 2.220058 1_555
Na35 O1 2.224098 1_545
Na35 O29 2.288471 1_455
Na35 O15 2.562934 1_445
Na36 O12 2.220065 1_554
Na36 O6 2.224098 1_555
Na36 O26 2.288475 1_455
Na36 O8 2.562934 1_455
Na37 O13 2.220060 1_555
Na37 O7 2.224089 1_555
Na37 O27 2.288476 1_555
Na37 O9 2.562946 1_555
Na38 O14 2.220060 1_556
Na38 O4 2.224098 1_545
Na38 O24 2.288476 1_555
Na38 O10 2.562931 1_545
Na39 O18 2.350426 1_545
Na39 O19 2.353580 1_655
Na39 O0 2.365013 1_555
Na39 O29 2.412840 1_555
Co0 O13 1.848687 1_555
Co0 O3 1.856867 1_655
Co0 O31 1.887658 1_555
Co0 O16 1.896485 1_555
Co1 O12 1.848681 1_555
Co1 O2 1.856867 1_555
Co1 O30 1.887670 1_555
Co1 O17 1.896482 1_555
Co2 O15 1.848671 1_555
Co2 O1 1.856873 1_555
Co2 O29 1.887668 1_565
Co2 O18 1.896477 1_555
Co3 O14 1.848673 1_555
Co3 O0 1.856873 1_455
Co3 O28 1.887670 1_545
Co3 O19 1.896473 1_555
Co4 O9 1.848679 1_555
Co4 O7 1.856873 1_455
Co4 O27 1.887670 1_555
Co4 O20 1.896478 1_555
Co5 O8 1.848681 1_555
Co5 O6 1.856873 1_555
Co5 O26 1.887658 1_555
Co5 O21 1.896482 1_555
Co6 O11 1.848676 1_555
Co6 O5 1.856867 1_555
Co6 O25 1.887670 1_545
Co6 O22 1.896477 1_555
Co7 O10 1.848676 1_555
Co7 O4 1.856867 1_655
Co7 O24 1.887668 1_565
Co7 O23 1.896480 1_555
