# generated using pymatgen
data_MgMn6(OF)6
_symmetry_space_group_name_H-M   'P 1'
_cell_length_a   5.24578902
_cell_length_b   14.64649407
_cell_length_c   3.15045994
_cell_angle_alpha   90.00000000
_cell_angle_beta   90.00000000
_cell_angle_gamma   81.06227532
_symmetry_Int_Tables_number   1
_chemical_formula_structural   MgMn6(OF)6
_chemical_formula_sum   'Mg1 Mn6 O6 F6'
_cell_volume   239.11834109
_cell_formula_units_Z   1
loop_
 _symmetry_equiv_pos_site_id
 _symmetry_equiv_pos_as_xyz
  1  'x, y, z'
loop_
 _atom_site_type_symbol
 _atom_site_label
 _atom_site_symmetry_multiplicity
 _atom_site_fract_x
 _atom_site_fract_y
 _atom_site_fract_z
 _atom_site_occupancy
  Mg  Mg0  1  0.50000000  0.00000000  0.48011598  1
  Mn  Mn0  1  0.00000000  0.00000000  0.98081113  1
  Mn  Mn1  1  0.13853317  0.34746798  0.99145364  1
  Mn  Mn2  1  0.86146683  0.65253202  0.99145364  1
  Mn  Mn3  1  0.75492264  0.21047716  0.49005353  1
  Mn  Mn4  1  0.50000000  0.50000000  0.49253921  1
  Mn  Mn5  1  0.24507736  0.78952284  0.49005353  1
  O  O0  1  0.18780196  0.93059293  0.48113295  1
  O  O1  1  0.09197625  0.74433693  0.99020287  1
  O  O2  1  0.38129392  0.43230905  0.99235353  1
  O  O3  1  0.90802375  0.25566307  0.99020287  1
  O  O4  1  0.61870608  0.56769095  0.99235353  1
  O  O5  1  0.81219804  0.06940707  0.48113295  1
  F  F0  1  0.35997872  0.27056211  0.49182778  1
  F  F1  1  0.07328191  0.59066087  0.49142384  1
  F  F2  1  0.32919955  0.07371186  0.98023519  1
  F  F3  1  0.67080045  0.92628814  0.98023519  1
  F  F4  1  0.92671809  0.40933913  0.49142384  1
  F  F5  1  0.64002128  0.72943789  0.49182778  1
loop_
_geom_bond_atom_site_label_1
_geom_bond_atom_site_label_2
_geom_bond_distance
_geom_bond_site_symmetry_2
Mg0 O0 2.057396 1_545
Mg0 O5 2.057396 1_555
Mn0 O5 2.042289 1_455
Mn0 O0 2.042289 1_545
Mn0 O5 2.043852 1_456
Mn0 O0 2.043852 1_546
Mn1 O2 1.912473 1_555
Mn1 O3 1.943039 1_455
Mn2 O4 1.912473 1_555
Mn2 O1 1.943039 1_655
Mn3 O3 1.930816 1_554
Mn3 O3 1.931584 1_555
Mn3 O5 2.041391 1_555
Mn4 O2 2.010484 1_555
Mn4 O4 2.010484 1_555
Mn4 O2 2.011400 1_554
Mn4 O4 2.011400 1_554
Mn5 O1 1.930816 1_554
Mn5 O1 1.931584 1_555
Mn5 O0 2.041391 1_555
F0 Mn3 2.121389 1_555
F0 Mn1 2.165476 1_555
F0 Mn1 2.167190 1_554
F1 Mn2 2.055238 1_454
F1 Mn2 2.055382 1_455
F1 Mn4 2.418762 1_555
F2 Mg0 2.036655 1_556
F2 Mg0 2.037236 1_555
F2 Mn0 2.174194 1_555
F3 Mg0 2.036655 1_566
F3 Mg0 2.037236 1_565
F3 Mn0 2.174194 1_665
F4 Mn1 2.055238 1_654
F4 Mn1 2.055382 1_655
F4 Mn4 2.418762 1_555
F5 Mn5 2.121389 1_555
F5 Mn2 2.165476 1_555
F5 Mn2 2.167190 1_554
