# generated using pymatgen
data_LiVPO5
_symmetry_space_group_name_H-M   'P 1'
_cell_length_a   5.28325449
_cell_length_b   10.26638166
_cell_length_c   7.36653565
_cell_angle_alpha   71.54949283
_cell_angle_beta   68.99256879
_cell_angle_gamma   75.09360028
_symmetry_Int_Tables_number   1
_chemical_formula_structural   LiVPO5
_chemical_formula_sum   'Li4 V4 P4 O20'
_cell_volume   349.13449339
_cell_formula_units_Z   4
loop_
 _symmetry_equiv_pos_site_id
 _symmetry_equiv_pos_as_xyz
  1  'x, y, z'
loop_
 _atom_site_type_symbol
 _atom_site_label
 _atom_site_symmetry_multiplicity
 _atom_site_fract_x
 _atom_site_fract_y
 _atom_site_fract_z
 _atom_site_occupancy
  Li  Li0  1  0.50000100  0.25000000  0.75000000  1
  Li  Li1  1  0.49999900  0.25000000  0.25000000  1
  Li  Li2  1  0.50000100  0.75000000  0.75000000  1
  Li  Li3  1  0.99999900  0.75000000  0.25000000  1
  V  V0  1  0.47768800  0.00003900  0.50000100  1
  V  V1  1  0.99999900  0.25000000  0.75000000  1
  V  V2  1  0.52231200  0.49996100  0.99999800  1
  V  V3  1  0.49999900  0.75000000  0.24999900  1
  P  P0  1  0.10928300  0.06144900  0.19008000  1
  P  P1  1  0.13901300  0.56150000  0.69011300  1
  P  P2  1  0.89071800  0.43855000  0.30991900  1
  P  P3  1  0.86098800  0.93849900  0.80988800  1
  O  O0  1  0.83912300  0.34008300  0.52288100  1
  O  O1  1  0.79348500  0.09443300  0.81218800  1
  O  O2  1  0.32079600  0.16115000  0.59294200  1
  O  O3  1  0.79620200  0.08659800  0.30022700  1
  O  O4  1  0.28158300  0.09747100  0.29260300  1
  O  O5  1  0.67920300  0.33885100  0.90705700  1
  O  O6  1  0.20651500  0.40556600  0.68781300  1
  O  O7  1  0.16087600  0.15991800  0.97711900  1
  O  O8  1  0.31674900  0.58661900  0.80037000  1
  O  O9  1  0.82817400  0.59747200  0.79259400  1
  O  O10  1  0.71841600  0.40252900  0.20739800  1
  O  O11  1  0.20379900  0.41340100  0.19977400  1
  O  O12  1  0.79803400  0.84007400  0.02282700  1
  O  O13  1  0.79995400  0.59444400  0.31231600  1
  O  O14  1  0.42519300  0.66111500  0.09301000  1
  O  O15  1  0.17182800  0.90252800  0.70740600  1
  O  O16  1  0.68325200  0.91338000  0.69963000  1
  O  O17  1  0.57480700  0.83888400  0.40699000  1
  O  O18  1  0.20004600  0.90555700  0.18768400  1
  O  O19  1  0.20196600  0.65992700  0.47717300  1
loop_
_geom_bond_atom_site_label_1
_geom_bond_atom_site_label_2
_geom_bond_distance
_geom_bond_site_symmetry_2
Li0 O6 1.984173 1_555
Li0 O1 1.984173 1_555
Li0 O0 2.142065 1_555
Li0 O7 2.142072 1_555
Li0 O5 2.228162 1_555
Li0 O2 2.228172 1_555
Li1 O11 2.017819 1_555
Li1 O3 2.017836 1_555
Li1 O4 2.059402 1_555
Li1 O10 2.059408 1_555
Li1 O2 2.319785 1_555
Li1 O5 2.319793 1_554
Li2 O16 2.018016 1_555
Li2 O8 2.018029 1_555
Li2 O9 2.058857 1_555
Li2 O15 2.058857 1_555
Li2 O14 2.320270 1_556
Li2 O17 2.320271 1_555
Li3 O13 1.983588 1_555
Li3 O18 1.983604 1_655
Li3 O12 2.141801 1_555
Li3 O19 2.141807 1_655
Li3 O17 2.228707 1_555
Li3 O14 2.228718 1_655
O0 P2 1.545534 1_555
O0 V1 2.003165 1_555
O1 P3 1.552221 1_545
O1 V1 2.006510 1_555
O2 V0 1.869805 1_555
O2 V1 1.873463 1_455
O3 P0 1.552948 1_655
O3 V0 1.988270 1_555
O4 P0 1.542307 1_555
O4 V0 2.010620 1_555
O5 V2 1.869796 1_555
O5 V1 1.873462 1_555
O6 P1 1.552221 1_555
O6 V1 2.006510 1_455
O7 P0 1.545536 1_556
O7 V1 2.003167 1_455
O8 P1 1.553046 1_555
O8 V2 1.988320 1_555
O9 P1 1.542340 1_655
O9 V2 2.010412 1_555
O10 P2 1.542299 1_555
O10 V2 2.010628 1_554
O11 P2 1.552945 1_455
O11 V2 1.988275 1_554
O12 P3 1.545252 1_554
O12 V3 2.003825 1_555
O13 P2 1.552006 1_555
O13 V3 2.006994 1_555
O14 V2 1.870489 1_554
O14 V3 1.872843 1_555
O15 P3 1.542345 1_455
O15 V0 2.010408 1_565
O16 P3 1.553052 1_555
O16 V0 1.988331 1_565
O17 V0 1.870494 1_565
O17 V3 1.872854 1_555
O18 P0 1.551985 1_565
O18 V3 2.006988 1_555
O19 P1 1.545265 1_555
O19 V3 2.003821 1_555
