# generated using pymatgen
data_MgCu4(ClO3)2
_symmetry_space_group_name_H-M   'P 1'
_cell_length_a   5.93462857
_cell_length_b   5.95718805
_cell_length_c   5.96091073
_cell_angle_alpha   62.94113460
_cell_angle_beta   63.09531913
_cell_angle_gamma   63.11463881
_symmetry_Int_Tables_number   1
_chemical_formula_structural   MgCu4(ClO3)2
_chemical_formula_sum   'Mg1 Cu4 Cl2 O6'
_cell_volume   159.10241727
_cell_formula_units_Z   1
loop_
 _symmetry_equiv_pos_site_id
 _symmetry_equiv_pos_as_xyz
  1  'x, y, z'
loop_
 _atom_site_type_symbol
 _atom_site_label
 _atom_site_symmetry_multiplicity
 _atom_site_fract_x
 _atom_site_fract_y
 _atom_site_fract_z
 _atom_site_occupancy
  Mg  Mg0  1  0.00000000  0.00000000  0.00000000  1
  Cu  Cu0  1  0.50000000  0.50000000  0.50000000  1
  Cu  Cu1  1  0.50000000  0.00000000  0.50000000  1
  Cu  Cu2  1  0.00000000  0.50000000  0.50000000  1
  Cu  Cu3  1  0.50000000  0.50000000  0.00000000  1
  Cl  Cl0  1  0.80210900  0.80192000  0.80195300  1
  Cl  Cl1  1  0.19789000  0.19807900  0.19804600  1
  O  O0  1  0.74721800  0.32455500  0.74834600  1
  O  O1  1  0.32253100  0.74948200  0.74961400  1
  O  O2  1  0.74706600  0.74805200  0.32481800  1
  O  O3  1  0.25278200  0.67544500  0.25165400  1
  O  O4  1  0.67746900  0.25051800  0.25038600  1
  O  O5  1  0.25293400  0.25194800  0.67518200  1
loop_
_geom_bond_atom_site_label_1
_geom_bond_atom_site_label_2
_geom_bond_distance
_geom_bond_site_symmetry_2
Mg0 O1 2.230729 1_544
Mg0 O4 2.230729 1_455
Mg0 O0 2.239104 1_454
Mg0 O3 2.239104 1_545
Mg0 O5 2.240121 1_554
Mg0 O2 2.240121 1_445
Cu0 O5 2.143330 1_555
Cu0 O2 2.143330 1_555
Cu0 O3 2.146504 1_555
Cu0 O0 2.146504 1_555
Cu0 O4 2.170256 1_555
Cu0 O1 2.170256 1_555
Cu1 O1 1.879735 1_545
Cu1 O4 1.879735 1_555
Cu1 O2 1.882276 1_545
Cu1 O5 1.882276 1_555
Cu2 O3 1.880121 1_555
Cu2 O0 1.880121 1_455
Cu2 O5 1.880379 1_555
Cu2 O2 1.880379 1_455
Cu3 O4 1.880035 1_555
Cu3 O1 1.880035 1_554
Cu3 O3 1.882269 1_555
Cu3 O0 1.882269 1_554
Cl0 Cu3 2.629112 1_556
Cl0 Cu1 2.630856 1_565
Cl0 Cu2 2.641171 1_655
Cl0 Mg0 2.817943 1_666
Cl1 Cu3 2.629122 1_555
Cl1 Cu1 2.630866 1_555
Cl1 Cu2 2.641181 1_555
Cl1 Mg0 2.817929 1_555
