# generated using pymatgen
data_K2TeS3
_symmetry_space_group_name_H-M   'P 1'
_cell_length_a   9.13773204
_cell_length_b   6.40237003
_cell_length_c   14.65000235
_cell_angle_alpha   64.94139879
_cell_angle_beta   90.00000000
_cell_angle_gamma   90.00000000
_symmetry_Int_Tables_number   1
_chemical_formula_structural   K2TeS3
_chemical_formula_sum   'K8 Te4 S12'
_cell_volume   776.39939708
_cell_formula_units_Z   4
loop_
 _symmetry_equiv_pos_site_id
 _symmetry_equiv_pos_as_xyz
  1  'x, y, z'
loop_
 _atom_site_type_symbol
 _atom_site_label
 _atom_site_symmetry_multiplicity
 _atom_site_fract_x
 _atom_site_fract_y
 _atom_site_fract_z
 _atom_site_occupancy
  K  K0  1  0.11047302  0.00131979  0.74987750  1
  K  K1  1  0.38952698  0.00131979  0.24987750  1
  K  K2  1  0.88952698  0.99868021  0.25012250  1
  K  K3  1  0.61047302  0.99868021  0.75012250  1
  K  K4  1  0.36885524  0.66214007  0.58395527  1
  K  K5  1  0.86885524  0.33785993  0.91604473  1
  K  K6  1  0.63114476  0.33785993  0.41604473  1
  K  K7  1  0.13114476  0.66214007  0.08395527  1
  Te  Te0  1  0.67978004  0.71934190  0.08067462  1
  Te  Te1  1  0.17978004  0.28065810  0.41932538  1
  Te  Te2  1  0.32021996  0.28065810  0.91932538  1
  Te  Te3  1  0.82021996  0.71934190  0.58067462  1
  S  S0  1  0.86070664  0.07387952  0.58829159  1
  S  S1  1  0.63929336  0.07387952  0.08829159  1
  S  S2  1  0.13929336  0.92612048  0.41170841  1
  S  S3  1  0.36070664  0.92612048  0.91170841  1
  S  S4  1  0.66315366  0.81570640  0.44010784  1
  S  S5  1  0.16315366  0.18429360  0.05989216  1
  S  S6  1  0.33684634  0.18429360  0.55989216  1
  S  S7  1  0.83684634  0.81570640  0.94010784  1
  S  S8  1  0.65939512  0.53106252  0.71776168  1
  S  S9  1  0.15939512  0.46893748  0.78223832  1
  S  S10  1  0.34060488  0.46893748  0.28223832  1
  S  S11  1  0.84060488  0.53106252  0.21776168  1
loop_
_geom_bond_atom_site_label_1
_geom_bond_atom_site_label_2
_geom_bond_distance
_geom_bond_site_symmetry_2
K0 S0 3.177568 1_455
K0 S3 3.180265 1_545
K0 S9 3.254247 1_555
K0 S6 3.261274 1_555
K0 S9 3.267062 1_545
K0 S7 3.553183 1_445
K1 S1 3.177568 1_555
K1 S2 3.180265 1_545
K1 S10 3.254247 1_555
K1 S5 3.261274 1_555
K1 S10 3.267062 1_545
K1 S4 3.553183 1_545
K2 S2 3.177568 1_655
K2 S1 3.180265 1_565
K2 S11 3.254247 1_555
K2 S4 3.261274 1_555
K2 S11 3.267062 1_565
K2 S5 3.553183 1_665
K3 S3 3.177568 1_555
K3 S0 3.180265 1_565
K3 S8 3.254247 1_555
K3 S7 3.261274 1_555
K3 S8 3.267062 1_565
K3 S6 3.553183 1_565
K4 S2 3.164114 1_555
K4 S8 3.194018 1_555
K4 S6 3.222936 1_565
K4 S6 3.237751 1_555
K4 S9 3.253893 1_555
K4 S4 3.299157 1_555
K5 S1 3.164114 1_556
K5 S9 3.194018 1_655
K5 S7 3.222936 1_545
K5 S7 3.237751 1_555
K5 S8 3.253893 1_555
K5 S5 3.299157 1_656
K6 S0 3.164114 1_555
K6 S10 3.194018 1_555
K6 S4 3.222936 1_545
K6 S4 3.237751 1_555
K6 S11 3.253893 1_555
K6 S6 3.299157 1_555
K7 S3 3.164114 1_554
K7 S11 3.194018 1_455
K7 S5 3.222936 1_565
K7 S5 3.237751 1_555
K7 S10 3.253893 1_555
K7 S7 3.299157 1_454
S0 Te3 2.348668 1_545
S1 Te0 2.348668 1_545
S2 Te1 2.348668 1_565
S3 Te2 2.348668 1_565
S4 Te3 2.367492 1_555
S5 Te2 2.367492 1_554
S6 Te1 2.367492 1_555
S7 Te0 2.367492 1_556
S8 Te3 2.365453 1_555
S9 Te2 2.365453 1_555
S10 Te1 2.365453 1_555
S11 Te0 2.365453 1_555
