# generated using pymatgen
data_Ca(MnBi)2
_symmetry_space_group_name_H-M   'P 1'
_cell_length_a   4.62638171
_cell_length_b   4.62638171
_cell_length_c   7.72879200
_cell_angle_alpha   90.00000000
_cell_angle_beta   90.00000000
_cell_angle_gamma   119.99999579
_symmetry_Int_Tables_number   1
_chemical_formula_structural   Ca(MnBi)2
_chemical_formula_sum   'Ca1 Mn2 Bi2'
_cell_volume   143.26008141
_cell_formula_units_Z   1
loop_
 _symmetry_equiv_pos_site_id
 _symmetry_equiv_pos_as_xyz
  1  'x, y, z'
loop_
 _atom_site_type_symbol
 _atom_site_label
 _atom_site_symmetry_multiplicity
 _atom_site_fract_x
 _atom_site_fract_y
 _atom_site_fract_z
 _atom_site_occupancy
  Ca  Ca0  1  0.00000000  0.00000000  0.00000000  1
  Mn  Mn0  1  0.33333300  0.66666700  0.37926500  1
  Mn  Mn1  1  0.66666700  0.33333300  0.62073500  1
  Bi  Bi0  1  0.33333300  0.66666700  0.75119100  1
  Bi  Bi1  1  0.66666700  0.33333300  0.24880900  1
loop_
_geom_bond_atom_site_label_1
_geom_bond_atom_site_label_2
_geom_bond_distance
_geom_bond_site_symmetry_2
Mn0 Mn1 3.258439 1_455
Mn0 Mn1 3.258439 1_565
Mn0 Mn1 3.258445 1_555
Bi0 Mn1 2.855006 1_455
Bi0 Mn1 2.855006 1_565
Bi0 Mn1 2.855013 1_555
Bi0 Mn0 2.874539 1_555
Bi0 Ca0 3.291255 1_566
Bi0 Ca0 3.291258 1_556
Bi0 Ca0 3.291258 1_666
Bi1 Mn0 2.855006 1_545
Bi1 Mn0 2.855006 1_655
Bi1 Mn0 2.855013 1_555
Bi1 Mn1 2.874539 1_555
Bi1 Ca0 3.291255 1_655
Bi1 Ca0 3.291258 1_665
Bi1 Ca0 3.291258 1_555
