# generated using pymatgen
data_Na42Mg8Nb16Si33(SO48)3
_symmetry_space_group_name_H-M   'P 1'
_cell_length_a   18.24114632
_cell_length_b   9.12695850
_cell_length_c   22.41317169
_cell_angle_alpha   89.90223224
_cell_angle_beta   90.24187480
_cell_angle_gamma   120.04739418
_symmetry_Int_Tables_number   1
_chemical_formula_structural   Na42Mg8Nb16Si33(SO48)3
_chemical_formula_sum   'Na42 Mg8 Nb16 Si33 S3 O144'
_cell_volume   3229.98591032
_cell_formula_units_Z   1
loop_
 _symmetry_equiv_pos_site_id
 _symmetry_equiv_pos_as_xyz
  1  'x, y, z'
loop_
 _atom_site_type_symbol
 _atom_site_label
 _atom_site_symmetry_multiplicity
 _atom_site_fract_x
 _atom_site_fract_y
 _atom_site_fract_z
 _atom_site_occupancy
  Na  Na0  1  0.31521250  0.98187855  0.25399399  1
  Na  Na1  1  0.81678567  0.98330931  0.25465938  1
  Na  Na2  1  0.17918415  0.38436544  0.25361163  1
  Na  Na3  1  0.68008886  0.38594072  0.25371611  1
  Na  Na4  1  0.00593064  0.63537768  0.26040474  1
  Na  Na5  1  0.50514462  0.63320384  0.25871022  1
  Na  Na6  1  0.31685688  0.65170769  0.75550297  1
  Na  Na7  1  0.80901479  0.63972518  0.75414111  1
  Na  Na8  1  0.00416723  0.38091657  0.75707315  1
  Na  Na9  1  0.51264705  0.37845567  0.75721456  1
  Na  Na10  1  0.17947177  0.97392148  0.75404322  1
  Na  Na11  1  0.67932619  0.97787252  0.75402432  1
  Na  Na12  1  0.14269731  0.32058296  0.58429873  1
  Na  Na13  1  0.64199668  0.31600345  0.59204697  1
  Na  Na14  1  0.01616155  0.71542196  0.59010779  1
  Na  Na15  1  0.51926024  0.72329826  0.59071689  1
  Na  Na16  1  0.34196336  0.96146264  0.59030217  1
  Na  Na17  1  0.84208744  0.96700865  0.59101472  1
  Na  Na18  1  0.34055506  0.71948696  0.09003287  1
  Na  Na19  1  0.84065235  0.71953498  0.09053124  1
  Na  Na20  1  0.01864484  0.31734883  0.08988331  1
  Na  Na21  1  0.51715997  0.31479174  0.08909075  1
  Na  Na22  1  0.48585500  0.66324267  0.91371014  1
  Na  Na23  1  0.98931554  0.65924733  0.91376304  1
  Na  Na24  1  0.34615437  0.02639105  0.91484816  1
  Na  Na25  1  0.84273977  0.02639407  0.91350552  1
  Na  Na26  1  0.66544607  0.30644673  0.91295959  1
  Na  Na27  1  0.48843248  0.31779811  0.41411347  1
  Na  Na28  1  0.34165045  0.65942773  0.41339762  1
  Na  Na29  1  0.84449470  0.65842222  0.41419747  1
  Na  Na30  1  0.00412335  0.00667723  0.50524912  1
  Na  Na31  1  0.50586097  0.00001055  0.50743085  1
  Na  Na32  1  0.01149861  0.00971076  0.00987093  1
  Na  Na33  1  0.50462641  0.99859488  0.00872393  1
  Na  Na34  1  0.33063023  0.33360332  0.83687821  1
  Na  Na35  1  0.83268423  0.33276232  0.83251622  1
  Na  Na36  1  0.32850424  0.32539299  0.33468199  1
  Na  Na37  1  0.83620035  0.32685497  0.33772235  1
  Na  Na38  1  0.16641630  0.66402957  0.17115289  1
  Na  Na39  1  0.66726731  0.66382377  0.17157007  1
  Na  Na40  1  0.16741796  0.67974637  0.67228462  1
  Na  Na41  1  0.66651310  0.66561861  0.67696733  1
  Mg  Mg0  1  0.99665668  0.98992530  0.64484865  1
  Mg  Mg1  1  0.49957639  0.99959423  0.64782474  1
  Mg  Mg2  1  0.99910873  0.00244910  0.14464911  1
  Mg  Mg3  1  0.49895889  0.00224893  0.14413298  1
  Mg  Mg4  1  0.16592601  0.65865105  0.31760123  1
  Mg  Mg5  1  0.66705122  0.65908977  0.31740982  1
  Mg  Mg6  1  0.16722080  0.67519013  0.81834347  1
  Mg  Mg7  1  0.66638569  0.66676025  0.81471799  1
  Nb  Nb0  1  0.99238725  0.99952594  0.35802021  1
  Nb  Nb1  1  0.49338402  0.99667337  0.35665670  1
  Nb  Nb2  1  0.99438470  0.99117808  0.85656111  1
  Nb  Nb3  1  0.49821043  0.99899053  0.85149952  1
  Nb  Nb4  1  0.33950502  0.33544889  0.68537440  1
  Nb  Nb5  1  0.83266220  0.33353086  0.68886076  1
  Nb  Nb6  1  0.33785074  0.33988845  0.18480853  1
  Nb  Nb7  1  0.83883690  0.34209044  0.18527119  1
  Nb  Nb8  1  0.33005108  0.33415766  0.98036971  1
  Nb  Nb9  1  0.83347181  0.33308462  0.98122443  1
  Nb  Nb10  1  0.33036242  0.33035456  0.47895772  1
  Nb  Nb11  1  0.83504169  0.32961752  0.47862314  1
  Nb  Nb12  1  0.16715187  0.66889868  0.01959218  1
  Nb  Nb13  1  0.66619559  0.66862278  0.02125334  1
  Nb  Nb14  1  0.16427502  0.66411587  0.51790038  1
  Nb  Nb15  1  0.66671164  0.66696440  0.51871128  1
  Si  Si0  1  0.35225046  0.70735929  0.24589897  1
  Si  Si1  1  0.85306379  0.70922211  0.24652056  1
  Si  Si2  1  0.00136691  0.29350473  0.24612004  1
  Si  Si3  1  0.50114184  0.29413736  0.24629116  1
  Si  Si4  1  0.64502205  0.29190463  0.74603429  1
  Si  Si5  1  0.00272937  0.71063798  0.74612179  1
  Si  Si6  1  0.49975497  0.70763132  0.74617831  1
  Si  Si7  1  0.35112973  0.99584299  0.74562325  1
  Si  Si8  1  0.85428010  -0.00091656  0.74577542  1
  Si  Si9  1  0.48173717  0.33461261  0.58050754  1
  Si  Si10  1  0.98040815  0.33631709  0.58514575  1
  Si  Si11  1  0.18761980  0.04017346  0.58431879  1
  Si  Si12  1  0.68905568  0.04218463  0.58274897  1
  Si  Si13  1  0.33198278  0.62423231  0.58303296  1
  Si  Si14  1  0.83246951  0.62276026  0.58171736  1
  Si  Si15  1  0.48227358  0.63090003  0.08177379  1
  Si  Si16  1  0.98369982  0.63276243  0.08214108  1
  Si  Si17  1  0.33073798  0.03989753  0.08271736  1
  Si  Si18  1  0.83065788  0.03853491  0.08415375  1
  Si  Si19  1  0.18612216  0.33156854  0.08440936  1
  Si  Si20  1  0.68630417  0.33035570  0.08338470  1
  Si  Si21  1  0.31016871  0.66295928  0.91261132  1
  Si  Si22  1  0.80932812  0.66175384  0.91525798  1
  Si  Si23  1  0.02286335  0.37515982  0.91459183  1
  Si  Si24  1  0.52040152  0.37555281  0.91511275  1
  Si  Si25  1  0.16732606  0.96109953  0.91397218  1
  Si  Si26  1  0.66669931  0.95799093  0.91386564  1
  Si  Si27  1  0.30755766  0.95762028  0.41303700  1
  Si  Si28  1  0.80751179  0.95763854  0.41255699  1
  Si  Si29  1  0.16459456  0.37179756  0.41380261  1
  Si  Si30  1  0.66717781  0.37200298  0.41445978  1
  Si  Si31  1  0.02123131  0.66811532  0.41243720  1
  Si  Si32  1  0.52184513  0.66972535  0.41395010  1
  S  S0  1  0.14381288  0.00314345  0.24891252  1
  S  S1  1  0.64329646  0.00272908  0.24901405  1
  S  S2  1  0.14473471  0.28694023  0.74858950  1
  O  O0  1  0.10453156  0.02765075  0.30378474  1
  O  O1  1  0.60273012  0.02635225  0.30398536  1
  O  O2  1  0.41483635  0.80216917  0.30746816  1
  O  O3  1  0.91484263  0.80031610  0.30768311  1
  O  O4  1  0.48712859  0.16692856  0.30674239  1
  O  O5  1  0.98687097  0.16139844  0.30464856  1
  O  O6  1  0.10215879  0.17874601  0.80202844  1
  O  O7  1  0.59730604  0.16611884  0.80678884  1
  O  O8  1  0.48306882  0.80073398  0.80649472  1
  O  O9  1  0.98949860  0.81069317  0.80640332  1
  O  O10  1  0.41439716  0.02979835  0.80643630  1
  O  O11  1  0.91628856  0.02648821  0.80723101  1
  O  O12  1  0.39517702  0.97584118  0.68739177  1
  O  O13  1  0.90010588  0.97998879  0.68838158  1
  O  O14  1  0.09716760  0.21063478  0.69343954  1
  O  O15  1  0.58950139  0.20694227  0.68782478  1
  O  O16  1  0.01924563  0.82684357  0.68861616  1
  O  O17  1  0.51076736  0.81553783  0.68765037  1
  O  O18  1  0.39969337  0.81823119  0.18896748  1
  O  O19  1  0.89904305  0.81816818  0.18871516  1
  O  O20  1  0.01559910  0.21017904  0.18815569  1
  O  O21  1  0.51582572  0.20860016  0.18919164  1
  O  O22  1  0.09399255  0.98262297  0.19567356  1
  O  O23  1  0.59348268  0.98209976  0.19591598  1
  O  O24  1  0.43393536  0.36488770  0.64055564  1
  O  O25  1  0.93473107  0.36923073  0.64386239  1
  O  O26  1  0.24961827  0.13448845  0.64354567  1
  O  O27  1  0.75061242  0.13354501  0.64252251  1
  O  O28  1  0.31678553  0.49672429  0.64147741  1
  O  O29  1  0.81704717  0.49892472  0.64105102  1
  O  O30  1  0.43379234  0.50119782  0.14122524  1
  O  O31  1  0.93398179  0.50241965  0.14110423  1
  O  O32  1  0.31961952  0.13760702  0.14227237  1
  O  O33  1  0.81970506  0.13730529  0.14277639  1
  O  O34  1  0.24962443  0.36285211  0.14327808  1
  O  O35  1  0.75030887  0.36096643  0.14173791  1
  O  O36  1  0.24127606  0.32146447  0.02808859  1
  O  O37  1  0.73976847  0.32226132  0.02515094  1
  O  O38  1  0.42208632  0.52598349  0.02471158  1
  O  O39  1  0.92233665  0.52491286  0.02507196  1
  O  O40  1  0.34043547  0.16202351  0.02595676  1
  O  O41  1  0.83860265  0.15866707  0.02636960  1
  O  O42  1  0.24158819  0.16473318  0.52845891  1
  O  O43  1  0.74242956  0.16783874  0.52774136  1
  O  O44  1  0.34071816  0.52116584  0.52577876  1
  O  O45  1  0.84264851  0.52349289  0.52474756  1
  O  O46  1  0.42100062  0.31990495  0.52454662  1
  O  O47  1  0.91846658  0.31457179  0.52860070  1
  O  O48  1  0.26398576  0.69523856  0.97182026  1
  O  O49  1  0.76710237  0.69794727  0.97459015  1
  O  O50  1  0.08089089  0.46890470  0.97474792  1
  O  O51  1  0.58327578  0.46811291  0.97439832  1
  O  O52  1  0.15012465  0.82878617  0.97085072  1
  O  O53  1  0.65251275  0.82958803  0.97169844  1
  O  O54  1  0.26438303  0.83427996  0.47266069  1
  O  O55  1  0.76325472  0.83210375  0.47171487  1
  O  O56  1  0.15322955  0.46777736  0.47414033  1
  O  O57  1  0.64972775  0.46585633  0.47313739  1
  O  O58  1  0.08155720  0.69056869  0.47292803  1
  O  O59  1  0.58084421  0.69139422  0.47411750  1
  O  O60  1  0.06050871  0.64067920  0.35370055  1
  O  O61  1  0.55795689  0.62630451  0.35625377  1
  O  O62  1  0.25856422  0.88089584  0.35259206  1
  O  O63  1  0.75791226  0.88047367  0.35229947  1
  O  O64  1  0.19042959  0.48944051  0.35631171  1
  O  O65  1  0.68696993  0.48522928  0.35608534  1
  O  O66  1  0.05763399  0.49027965  0.85640765  1
  O  O67  1  0.55758226  0.49075243  0.85727070  1
  O  O68  1  0.18861127  0.89289146  0.85502628  1
  O  O69  1  0.68972011  0.88851646  0.85604478  1
  O  O70  1  0.25840755  0.63509436  0.85253381  1
  O  O71  1  0.75392042  0.62385499  0.85668268  1
  O  O72  1  0.00850552  0.83642276  0.41126463  1
  O  O73  1  0.50853319  0.83598884  0.41069476  1
  O  O74  1  0.40439928  0.97306247  0.41167161  1
  O  O75  1  0.90229844  0.96733173  0.41197022  1
  O  O76  1  0.08099685  0.18236471  0.40931003  1
  O  O77  1  0.57888834  0.18604707  0.40997679  1
  O  O78  1  0.00901123  0.18164185  0.91007272  1
  O  O79  1  0.51210473  0.18558638  0.91193817  1
  O  O80  1  0.07994971  0.97282636  0.90981757  1
  O  O81  1  0.58031677  0.97341160  0.91190675  1
  O  O82  1  0.40591860  0.83847179  0.91138780  1
  O  O83  1  0.90572301  0.83592500  0.91162847  1
  O  O84  1  0.48928933  0.16819959  0.58225510  1
  O  O85  1  0.99322662  0.17493673  0.58749453  1
  O  O86  1  0.09706153  0.02789618  0.58554219  1
  O  O87  1  0.59685670  0.02188046  0.58382921  1
  O  O88  1  0.41500208  0.80753866  0.58341321  1
  O  O89  1  0.91495929  0.80829553  0.58323089  1
  O  O90  1  0.48600341  0.80735521  0.08643636  1
  O  O91  1  0.98593862  0.80796612  0.08564725  1
  O  O92  1  0.41415791  0.02377076  0.08368413  1
  O  O93  1  0.91464834  0.02503164  0.08327169  1
  O  O94  1  0.09356559  0.17306520  0.08608650  1
  O  O95  1  0.59328047  0.17242035  0.08452186  1
  O  O96  1  0.34523526  0.17592273  0.74565178  1
  O  O97  1  0.85170981  0.18096967  0.74671399  1
  O  O98  1  0.23099777  0.30008967  0.74747691  1
  O  O99  1  0.73886152  0.29781259  0.74609718  1
  O  O100  1  0.40747444  0.51760599  0.74561782  1
  O  O101  1  0.91071593  0.52611922  0.74628727  1
  O  O102  1  0.34636137  0.51529055  0.24636856  1
  O  O103  1  0.84590779  0.51494131  0.24547672  1
  O  O104  1  0.40840945  0.29625409  0.24663357  1
  O  O105  1  0.90865352  0.29624207  0.24617684  1
  O  O106  1  0.23109612  0.16299574  0.24653071  1
  O  O107  1  0.73006327  0.16205084  0.24720011  1
  O  O108  1  0.33078826  0.50765310  0.92322328  1
  O  O109  1  0.82843156  0.50422409  0.92389494  1
  O  O110  1  0.42386600  0.34432026  0.92496333  1
  O  O111  1  0.92505591  0.34453500  0.92481265  1
  O  O112  1  0.25005702  0.14873244  0.92587508  1
  O  O113  1  0.74799813  0.15207935  0.92471093  1
  O  O114  1  0.33062824  0.15448639  0.42330935  1
  O  O115  1  0.82574586  0.14911893  0.42425294  1
  O  O116  1  0.24890573  0.35128082  0.42622776  1
  O  O117  1  0.75039366  0.35235064  0.42613438  1
  O  O118  1  0.42483256  0.50538575  0.42437090  1
  O  O119  1  0.92442479  0.50757912  0.42420831  1
  O  O120  1  0.18591378  0.51238420  0.07808447  1
  O  O121  1  0.68599339  0.51173260  0.07814006  1
  O  O122  1  0.07184329  0.62719798  0.07878961  1
  O  O123  1  0.57122229  0.62607069  0.07856369  1
  O  O124  1  0.24540432  0.85161461  0.07756448  1
  O  O125  1  0.74533662  0.85073802  0.07900948  1
  O  O126  1  0.18386028  0.85672606  0.57815322  1
  O  O127  1  0.68527964  0.85747478  0.57694823  1
  O  O128  1  0.24354241  0.63197049  0.57879891  1
  O  O129  1  0.74413155  0.63186539  0.57722492  1
  O  O130  1  0.07293191  0.51388888  0.57899130  1
  O  O131  1  0.57270825  0.51262962  0.57882937  1
  O  O132  1  0.15740962  0.85642631  0.25401786  1
  O  O133  1  0.65558727  0.85469815  0.25519917  1
  O  O134  1  0.25860030  0.68386782  0.25182946  1
  O  O135  1  0.75873498  0.68387689  0.25191073  1
  O  O136  1  0.07902496  0.48528172  0.25368170  1
  O  O137  1  0.57870796  0.48637906  0.25342877  1
  O  O138  1  0.15598221  0.45782941  0.75455962  1
  O  O139  1  0.66020847  0.47982619  0.75469322  1
  O  O140  1  0.08040021  0.67433031  0.75384124  1
  O  O141  1  0.57833002  0.67652152  0.75442191  1
  O  O142  1  0.25775375  0.83272142  0.75272100  1
  O  O143  1  0.76040985  0.83979920  0.75306795  1
loop_
_geom_bond_atom_site_label_1
_geom_bond_atom_site_label_2
_geom_bond_distance
_geom_bond_site_symmetry_2
Na0 O134 2.377814 1_555
Na0 O62 2.420631 1_555
Na0 O104 2.503205 1_565
Na0 O132 2.509227 1_555
Na0 O106 2.766188 1_565
Na1 O135 2.386597 1_555
Na1 O63 2.413889 1_555
Na1 O105 2.491902 1_565
Na1 O133 2.562803 1_555
Na1 O107 2.788007 1_565
Na1 O33 2.860205 1_565
Na1 O5 2.906860 1_565
Na2 O134 2.367899 1_555
Na2 O136 2.423134 1_555
Na2 O64 2.463082 1_555
Na2 O106 2.631033 1_555
Na2 O102 2.666089 1_555
Na2 O34 2.843598 1_555
Na3 O135 2.355319 1_555
Na3 O137 2.440872 1_555
Na3 O65 2.447871 1_555
Na3 O107 2.625935 1_555
Na3 O103 2.647059 1_555
Na3 O35 2.883254 1_555
Na4 O60 2.302289 1_555
Na4 O136 2.347063 1_555
Na4 O132 2.479015 1_555
Na4 O103 2.573050 1_455
Na4 O105 2.707289 1_455
Na4 O3 2.945331 1_455
Na4 O31 2.954885 1_455
Na5 O137 2.326604 1_555
Na5 O61 2.398802 1_555
Na5 O133 2.463630 1_555
Na5 O102 2.548821 1_555
Na5 O104 2.684959 1_555
Na5 O30 2.913919 1_555
Na5 O2 2.975085 1_555
Na6 O142 2.382947 1_555
Na6 O70 2.397063 1_555
Na6 O100 2.511866 1_555
Na6 O138 2.557852 1_555
Na6 O98 2.783966 1_555
Na6 O8 2.862674 1_555
Na6 O28 2.922811 1_555
Na6 O12 2.982258 1_555
Na7 O139 2.351831 1_555
Na7 O143 2.396284 1_555
Na7 O71 2.487099 1_555
Na7 O101 2.545065 1_555
Na7 O99 2.721989 1_555
Na7 O29 2.881051 1_555
Na8 O140 2.319790 1_555
Na8 O66 2.432845 1_555
Na8 O97 2.455974 1_455
Na8 O138 2.493848 1_555
Na8 O101 2.641664 1_455
Na8 O25 2.809378 1_455
Na9 O141 2.361386 1_555
Na9 O139 2.368874 1_555
Na9 O67 2.429506 1_555
Na9 O96 2.674259 1_555
Na9 O100 2.792074 1_555
Na9 O24 2.950394 1_555
Na9 O10 2.974689 1_555
Na9 O15 3.009819 1_555
Na10 O142 2.354594 1_555
Na10 O140 2.407082 1_555
Na10 O68 2.410823 1_555
Na10 O98 2.639092 1_565
Na10 O96 2.645419 1_565
Na10 O26 2.838129 1_565
Na10 O16 2.921669 1_555
Na11 O143 2.375516 1_555
Na11 O141 2.425827 1_555
Na11 O69 2.464638 1_555
Na11 O99 2.561629 1_565
Na11 O97 2.741678 1_565
Na11 O27 2.849611 1_565
Na12 O85 2.361744 1_455
Na12 O86 2.367025 1_555
Na12 O128 2.498279 1_555
Na12 O14 2.618162 1_555
Na12 O130 2.644403 1_555
Na12 O56 2.769820 1_555
Na13 O15 2.360413 1_555
Na13 O87 2.388522 1_555
Na13 O84 2.420753 1_555
Na13 O129 2.552558 1_555
Na13 O131 2.678108 1_555
Na13 O57 2.964970 1_555
Na13 O29 2.971144 1_555
Na14 O89 2.390472 1_455
Na14 O16 2.421035 1_555
Na14 O86 2.471308 1_565
Na14 O130 2.535556 1_555
Na14 O126 2.673498 1_555
Na14 O58 2.944779 1_555
Na14 O25 2.990575 1_455
Na15 O87 2.364600 1_565
Na15 O17 2.364861 1_555
Na15 O88 2.386626 1_555
Na15 O131 2.569003 1_555
Na15 O127 2.656822 1_555
Na15 O59 2.920848 1_555
Na16 O12 2.355921 1_555
Na16 O88 2.376842 1_555
Na16 O84 2.395790 1_565
Na16 O126 2.557093 1_555
Na16 O128 2.631591 1_555
Na16 O54 2.938754 1_555
Na17 O13 2.398404 1_555
Na17 O89 2.413886 1_555
Na17 O85 2.443418 1_565
Na17 O127 2.531854 1_555
Na17 O129 2.677665 1_555
Na18 O90 2.357886 1_555
Na18 O92 2.408704 1_565
Na18 O18 2.430223 1_555
Na18 O120 2.501493 1_555
Na18 O124 2.575982 1_555
Na19 O91 2.355207 1_555
Na19 O19 2.411291 1_555
Na19 O93 2.419532 1_565
Na19 O121 2.504010 1_555
Na19 O125 2.569784 1_555
Na19 O49 2.880826 1_554
Na20 O94 2.326527 1_555
Na20 O93 2.381014 1_455
Na20 O20 2.398024 1_555
Na20 O122 2.500481 1_555
Na20 O120 2.667281 1_555
Na20 O50 2.881239 1_554
Na21 O95 2.331413 1_555
Na21 O92 2.366727 1_555
Na21 O21 2.437830 1_555
Na21 O123 2.508702 1_555
Na21 O121 2.690174 1_555
Na21 O51 2.888704 1_554
Na22 O108 2.458559 1_555
Na22 O81 2.469814 1_555
Na22 O110 2.553180 1_555
Na22 O82 2.649729 1_555
Na22 O8 2.721109 1_555
Na22 O38 2.768858 1_556
Na22 O67 2.806075 1_555
Na22 O53 2.930413 1_555
Na23 O80 2.488814 1_655
Na23 O111 2.512788 1_555
Na23 O109 2.551919 1_555
Na23 O83 2.718289 1_555
Na23 O66 2.743855 1_655
Na23 O9 2.772154 1_555
Na23 O39 2.781204 1_556
Na23 O52 2.840003 1_655
Na24 O82 2.451486 1_545
Na24 O112 2.519001 1_555
Na24 O110 2.522134 1_555
Na24 O79 2.622133 1_555
Na24 O10 2.727868 1_555
Na24 O40 2.808366 1_556
Na24 O68 2.829732 1_545
Na24 O48 2.911775 1_545
Na25 O83 2.518830 1_545
Na25 O113 2.521027 1_555
Na25 O111 2.526495 1_555
Na25 O78 2.628784 1_655
Na25 O69 2.736957 1_545
Na25 O11 2.738509 1_555
Na25 O41 2.822323 1_556
Na25 O49 2.936732 1_545
Na26 O79 2.439441 1_555
Na26 O113 2.538103 1_555
Na26 O109 2.603550 1_555
Na26 O81 2.631386 1_545
Na26 O7 2.690561 1_555
Na26 O71 2.812596 1_555
Na26 O37 2.821055 1_556
Na26 O51 2.925609 1_555
Na27 O77 2.483097 1_555
Na27 O114 2.501475 1_555
Na27 O118 2.514515 1_555
Na27 O74 2.724410 1_545
Na27 O61 2.764740 1_555
Na27 O4 2.768761 1_555
Na27 O46 2.772961 1_555
Na27 O57 2.867829 1_555
Na28 O116 2.468024 1_555
Na28 O74 2.494902 1_555
Na28 O118 2.543906 1_555
Na28 O73 2.637407 1_555
Na28 O64 2.710042 1_555
Na28 O2 2.718616 1_555
Na28 O44 2.811614 1_555
Na28 O54 2.928003 1_555
Na29 O117 2.453778 1_555
Na29 O119 2.465346 1_555
Na29 O75 2.467025 1_555
Na29 O72 2.593864 1_655
Na29 O3 2.715557 1_555
Na29 O45 2.757872 1_555
Na29 O65 2.806879 1_555
Na29 O55 2.957421 1_555
Na30 O86 2.407660 1_555
Na30 O89 2.458183 1_445
Na30 O85 2.472725 1_455
Na30 O76 2.631210 1_555
Na30 O72 2.644862 1_545
Na30 O75 2.692888 1_445
Na31 O87 2.317854 1_555
Na31 O84 2.395416 1_555
Na31 O88 2.414750 1_545
Na31 O73 2.651305 1_545
Na31 O77 2.678679 1_555
Na31 O74 2.757670 1_545
Na32 O94 2.265814 1_555
Na32 O91 2.372473 1_445
Na32 O93 2.473834 1_455
Na32 O80 2.673653 1_544
Na32 O78 2.743390 1_554
Na32 O83 2.828147 1_444
Na33 O95 2.331317 1_565
Na33 O90 2.365711 1_555
Na33 O92 2.450164 1_565
Na33 O81 2.648153 1_554
Na33 O79 2.719152 1_564
Na33 O82 2.734913 1_554
Na34 O108 2.504915 1_555
Na34 O112 2.552607 1_555
Na34 O110 2.570115 1_555
Na34 O100 2.573723 1_555
Na34 O96 2.592566 1_555
Na34 O98 2.612712 1_555
Na35 O99 2.491957 1_555
Na35 O97 2.496863 1_555
Na35 O101 2.524213 1_555
Na35 O109 2.604518 1_555
Na35 O113 2.615325 1_555
Na35 O111 2.630592 1_555
Na36 O114 2.535709 1_555
Na36 O102 2.540939 1_555
Na36 O104 2.550288 1_555
Na36 O106 2.569163 1_555
Na36 O116 2.597001 1_555
Na36 O118 2.630200 1_555
Na37 O115 2.472210 1_555
Na37 O119 2.528710 1_555
Na37 O105 2.535627 1_555
Na37 O117 2.612136 1_555
Na37 O103 2.634285 1_555
Na37 O107 2.681075 1_555
Na38 O134 2.408436 1_555
Na38 O136 2.456513 1_555
Na38 O122 2.601164 1_555
Na38 O132 2.619651 1_555
Na38 O120 2.627244 1_555
Na38 O124 2.636305 1_555
Na39 O135 2.393687 1_555
Na39 O137 2.448173 1_555
Na39 O125 2.611919 1_555
Na39 O123 2.626905 1_555
Na39 O121 2.630492 1_555
Na39 O133 2.641946 1_555
Na40 O142 2.365256 1_555
Na40 O140 2.410179 1_555
Na40 O126 2.580473 1_555
Na40 O130 2.646121 1_555
Na40 O138 2.667162 1_555
Na40 O128 2.672586 1_555
Na41 O143 2.372335 1_555
Na41 O139 2.391624 1_555
Na41 O141 2.407393 1_555
Na41 O131 2.702184 1_555
Na41 O129 2.750102 1_555
Na41 O127 2.757104 1_555
Mg0 O13 1.978966 1_555
Mg0 O16 1.988298 1_655
Mg0 O89 2.095872 1_555
Mg0 O85 2.146032 1_565
Mg0 O86 2.150521 1_665
Mg0 O14 2.213020 1_665
Mg1 O15 1.990105 1_565
Mg1 O17 1.999295 1_555
Mg1 O12 2.014997 1_555
Mg1 O88 2.195114 1_555
Mg1 O84 2.200502 1_565
Mg1 O87 2.215087 1_565
Mg2 O20 2.017090 1_655
Mg2 O19 2.017728 1_545
Mg2 O94 2.107530 1_655
Mg2 O91 2.129684 1_545
Mg2 O93 2.146551 1_555
Mg2 O22 2.152316 1_645
Mg3 O18 2.018264 1_545
Mg3 O21 2.021188 1_555
Mg3 O90 2.115775 1_545
Mg3 O95 2.119871 1_555
Mg3 O92 2.133702 1_555
Mg3 O23 2.157248 1_545
Mg4 O64 2.005267 1_555
Mg4 O60 2.018919 1_555
Mg4 O62 2.036347 1_555
Mg4 O136 2.132067 1_555
Mg4 O134 2.171197 1_555
Mg4 O132 2.362957 1_555
Mg5 O65 1.992849 1_555
Mg5 O63 2.020380 1_555
Mg5 O61 2.055493 1_555
Mg5 O137 2.140660 1_555
Mg5 O135 2.154996 1_555
Mg5 O133 2.353328 1_555
Mg6 O68 2.000668 1_555
Mg6 O70 2.021325 1_555
Mg6 O66 2.050135 1_555
Mg6 O140 2.136937 1_555
Mg6 O142 2.143174 1_555
Mg6 O138 2.370935 1_555
Mg7 O71 2.049340 1_555
Mg7 O67 2.060864 1_555
Mg7 O69 2.067824 1_555
Mg7 O141 2.130458 1_555
Mg7 O139 2.132509 1_555
Mg7 O143 2.155254 1_555
Nb0 O5 1.940524 1_565
Nb0 O75 1.944479 1_555
Nb0 O3 1.999371 1_555
Nb0 O76 2.002133 1_665
Nb0 O72 2.038606 1_655
Nb0 O0 2.285228 1_665
Nb1 O4 1.962089 1_565
Nb1 O2 1.966203 1_555
Nb1 O74 1.966545 1_555
Nb1 O73 2.022633 1_555
Nb1 O77 2.034674 1_565
Nb1 O1 2.218823 1_565
Nb2 O11 1.949598 1_565
Nb2 O9 1.960543 1_555
Nb2 O83 1.965385 1_555
Nb2 O78 2.017793 1_665
Nb2 O80 2.033309 1_655
Nb2 O6 2.220867 1_665
Nb3 O7 1.961454 1_565
Nb3 O10 1.962921 1_565
Nb3 O8 1.967577 1_555
Nb3 O82 2.079595 1_555
Nb3 O79 2.091015 1_565
Nb3 O81 2.112510 1_555
Nb4 O24 1.896984 1_555
Nb4 O28 1.977097 1_555
Nb4 O26 1.978056 1_555
Nb4 O100 2.013380 1_555
Nb4 O96 2.024982 1_555
Nb4 O98 2.311112 1_555
Nb5 O27 1.976841 1_555
Nb5 O29 1.982574 1_555
Nb5 O25 1.999266 1_555
Nb5 O99 2.034237 1_555
Nb5 O97 2.053154 1_555
Nb5 O101 2.063857 1_555
Nb6 O30 1.901006 1_555
Nb6 O32 1.953585 1_555
Nb6 O34 1.955721 1_555
Nb6 O104 2.057104 1_555
Nb6 O102 2.060950 1_555
Nb6 O106 2.275766 1_555
Nb7 O31 1.897273 1_555
Nb7 O35 1.963208 1_555
Nb7 O33 1.967842 1_555
Nb7 O103 2.031837 1_555
Nb7 O105 2.043898 1_555
Nb7 O107 2.305220 1_555
Nb8 O36 1.898939 1_556
Nb8 O40 1.959336 1_556
Nb8 O38 1.979851 1_556
Nb8 O112 2.001033 1_555
Nb8 O108 2.029788 1_555
Nb8 O110 2.082754 1_555
Nb9 O41 1.926045 1_556
Nb9 O37 1.935305 1_556
Nb9 O39 1.951687 1_556
Nb9 O113 2.043414 1_555
Nb9 O109 2.057977 1_555
Nb9 O111 2.059852 1_555
Nb10 O42 1.922581 1_555
Nb10 O44 1.960860 1_555
Nb10 O116 1.977278 1_555
Nb10 O46 1.982427 1_555
Nb10 O114 2.036376 1_555
Nb10 O118 2.067063 1_555
Nb11 O43 1.938620 1_555
Nb11 O47 1.945181 1_555
Nb11 O115 1.988230 1_555
Nb11 O45 1.994552 1_555
Nb11 O117 2.028767 1_555
Nb11 O119 2.035184 1_555
Nb12 O52 1.965967 1_554
Nb12 O48 1.978411 1_554
Nb12 O50 1.983586 1_554
Nb12 O124 2.028483 1_555
Nb12 O122 2.069514 1_555
Nb12 O120 2.087071 1_555
Nb13 O53 1.952826 1_554
Nb13 O51 1.990196 1_554
Nb13 O49 2.018773 1_554
Nb13 O125 2.027595 1_555
Nb13 O123 2.036019 1_555
Nb13 O121 2.077075 1_555
Nb14 O58 1.924090 1_555
Nb14 O56 1.963797 1_555
Nb14 O54 1.986180 1_555
Nb14 O130 2.063017 1_555
Nb14 O126 2.101625 1_555
Nb14 O128 2.108700 1_555
Nb15 O55 1.958238 1_555
Nb15 O59 1.959034 1_555
Nb15 O57 1.985621 1_555
Nb15 O129 2.062271 1_555
Nb15 O127 2.063022 1_555
Nb15 O131 2.081886 1_555
O0 S0 1.498297 1_555
O1 S1 1.510117 1_555
O2 Si0 1.719851 1_555
O3 Si1 1.700876 1_555
O4 Si3 1.717395 1_555
O5 Si2 1.709619 1_655
O6 S2 1.499554 1_555
O7 Si4 1.712837 1_555
O8 Si6 1.705491 1_555
O9 Si5 1.716196 1_655
O10 Si7 1.707548 1_545
O11 Si8 1.715789 1_555
O12 Si7 1.593384 1_555
O13 Si8 1.593621 1_565
O14 S2 1.467832 1_555
O15 Si4 1.592159 1_555
O16 Si5 1.598590 1_555
O17 Si6 1.590850 1_555
O18 Si0 1.590306 1_555
O19 Si1 1.593852 1_555
O20 Si2 1.592967 1_555
O21 Si3 1.592100 1_555
O22 S0 1.451197 1_565
O23 S1 1.448360 1_565
O24 Si9 1.703083 1_555
O25 Si10 1.666629 1_555
O26 Si11 1.672859 1_555
O27 Si12 1.674644 1_555
O28 Si13 1.679845 1_555
O29 Si14 1.674729 1_555
O30 Si15 1.707383 1_555
O31 Si16 1.705442 1_555
O32 Si17 1.675002 1_555
O33 Si18 1.663003 1_555
O34 Si19 1.679698 1_555
O35 Si20 1.677322 1_555
O36 Si19 1.648691 1_555
O37 Si20 1.656307 1_555
O38 Si15 1.642409 1_555
O39 Si16 1.657334 1_555
O40 Si17 1.640662 1_555
O41 Si18 1.654736 1_555
O42 Si11 1.647373 1_555
O43 Si12 1.634110 1_555
O44 Si13 1.647105 1_555
O45 Si14 1.630997 1_555
O46 Si9 1.630507 1_555
O47 Si10 1.639029 1_555
O48 Si21 1.678360 1_555
O49 Si22 1.654019 1_555
O50 Si23 1.659905 1_555
O51 Si24 1.677911 1_555
O52 Si25 1.673513 1_555
O53 Si26 1.677648 1_555
O54 Si27 1.670106 1_555
O55 Si28 1.673348 1_555
O56 Si29 1.681521 1_555
O57 Si30 1.686752 1_555
O58 Si31 1.689259 1_555
O59 Si32 1.670754 1_555
O60 Si31 1.580470 1_555
O61 Si32 1.591725 1_555
O62 Si27 1.578208 1_555
O63 Si28 1.579058 1_555
O64 Si29 1.590287 1_555
O65 Si30 1.592427 1_555
O66 Si23 1.594314 1_555
O67 Si24 1.592118 1_555
O68 Si25 1.591529 1_555
O69 Si26 1.591208 1_555
O70 Si21 1.587218 1_555
O71 Si22 1.582720 1_555
O72 Si31 1.664691 1_555
O73 Si32 1.653939 1_555
O74 Si27 1.700719 1_555
O75 Si28 1.686566 1_555
O76 Si29 1.638227 1_555
O77 Si30 1.657189 1_555
O78 Si23 1.657451 1_555
O79 Si24 1.664824 1_555
O80 Si25 1.652276 1_555
O81 Si26 1.651092 1_555
O82 Si21 1.678030 1_555
O83 Si22 1.681372 1_555
O84 Si9 1.592699 1_555
O85 Si10 1.603571 1_555
O86 Si11 1.599076 1_555
O87 Si12 1.597387 1_555
O88 Si13 1.598480 1_555
O89 Si14 1.606516 1_555
O90 Si15 1.581152 1_555
O91 Si16 1.581105 1_555
O92 Si17 1.600510 1_555
O93 Si18 1.597564 1_555
O94 Si19 1.580859 1_555
O95 Si20 1.583850 1_555
O96 Si7 1.699969 1_545
O97 Si8 1.684203 1_555
O98 S2 1.517316 1_555
O99 Si4 1.685381 1_555
O100 Si6 1.708192 1_555
O101 Si5 1.680079 1_655
O102 Si0 1.701774 1_555
O103 Si1 1.711760 1_555
O104 Si3 1.701350 1_555
O105 Si2 1.703851 1_655
O106 S0 1.529901 1_555
O107 S1 1.522076 1_555
O108 Si21 1.655075 1_555
O109 Si22 1.651150 1_555
O110 Si24 1.652641 1_555
O111 Si23 1.678548 1_655
O112 Si25 1.640543 1_545
O113 Si26 1.662518 1_545
O114 Si27 1.643752 1_545
O115 Si28 1.628584 1_545
O116 Si29 1.662065 1_555
O117 Si30 1.635227 1_555
O118 Si32 1.667355 1_555
O119 Si31 1.657184 1_655
O120 Si19 1.658032 1_555
O121 Si20 1.662225 1_555
O122 Si16 1.635901 1_455
O123 Si15 1.646914 1_555
O124 Si17 1.646141 1_565
O125 Si18 1.643505 1_565
O126 Si11 1.647076 1_565
O127 Si12 1.657736 1_565
O128 Si13 1.652080 1_555
O129 Si14 1.657200 1_555
O130 Si10 1.660154 1_455
O131 Si9 1.641711 1_555
O132 S0 1.483098 1_565
O133 S1 1.482336 1_565
O134 Si0 1.617686 1_555
O135 Si1 1.622299 1_555
O136 Si2 1.617109 1_555
O137 Si3 1.618339 1_555
O138 S2 1.474002 1_555
O139 Si4 1.606557 1_555
O140 Si5 1.617093 1_555
O141 Si6 1.604444 1_555
O142 Si7 1.614006 1_555
O143 Si8 1.606501 1_565
