# generated using pymatgen
data_Sr4MgFe4O11
_symmetry_space_group_name_H-M   'P 1'
_cell_length_a   5.58301158
_cell_length_b   7.13096667
_cell_length_c   7.13105054
_cell_angle_alpha   112.67759251
_cell_angle_beta   89.95822759
_cell_angle_gamma   90.03654582
_symmetry_Int_Tables_number   1
_chemical_formula_structural   Sr4MgFe4O11
_chemical_formula_sum   'Sr4 Mg1 Fe4 O11'
_cell_volume   261.95435100
_cell_formula_units_Z   1
loop_
 _symmetry_equiv_pos_site_id
 _symmetry_equiv_pos_as_xyz
  1  'x, y, z'
loop_
 _atom_site_type_symbol
 _atom_site_label
 _atom_site_symmetry_multiplicity
 _atom_site_fract_x
 _atom_site_fract_y
 _atom_site_fract_z
 _atom_site_occupancy
  Sr  Sr0  1  0.99977600  0.68993700  0.31032400  1
  Sr  Sr1  1  0.99975500  0.25511600  0.74492600  1
  Sr  Sr2  1  0.50051400  0.02818100  0.97166500  1
  Sr  Sr3  1  0.49973800  0.49719400  0.50277300  1
  Mg  Mg0  1  0.00174900  0.89549400  0.10448200  1
  Fe  Fe0  1  0.49967600  0.99640100  0.48153800  1
  Fe  Fe1  1  0.49966500  0.51836600  0.00364500  1
  Fe  Fe2  1  0.99976600  0.27037200  0.25343200  1
  Fe  Fe3  1  0.99977100  0.74653400  0.72965500  1
  O  O0  1  0.23845800  0.90337600  0.64435600  1
  O  O1  1  0.23784100  0.07855100  0.30116800  1
  O  O2  1  0.76379800  0.69950000  0.92277900  1
  O  O3  1  0.76009900  0.35706700  0.09873400  1
  O  O4  1  0.76374400  0.07730100  0.30056200  1
  O  O5  1  0.76003700  0.90115000  0.64283500  1
  O  O6  1  0.23854800  0.35567900  0.09672100  1
  O  O7  1  0.23788100  0.69887800  0.92144900  1
  O  O8  1  0.00058800  0.48533700  0.51460800  1
  O  O9  1  0.49741500  0.71257500  0.28728900  1
  O  O10  1  0.50117300  0.28669400  0.71335200  1
loop_
_geom_bond_atom_site_label_1
_geom_bond_atom_site_label_2
_geom_bond_distance
_geom_bond_site_symmetry_2
Mg0 O7 1.999029 1_554
Mg0 O1 1.999336 1_565
Mg0 O2 2.000222 1_454
Mg0 O4 2.000816 1_465
Mg0 Sr0 2.441813 1_455
Fe0 O9 1.963035 1_555
Fe0 O10 2.092668 1_565
Fe0 O5 2.122128 1_555
Fe0 O0 2.122542 1_555
Fe0 O1 2.172402 1_565
Fe0 O4 2.177635 1_565
Fe1 O9 1.961972 1_555
Fe1 O10 2.092263 1_554
Fe1 O6 2.121748 1_555
Fe1 O3 2.121771 1_555
Fe1 O7 2.173030 1_554
Fe1 O2 2.178581 1_554
Fe2 O8 1.901878 1_655
Fe2 O6 1.979165 1_655
Fe2 O3 1.979560 1_555
Fe2 O4 2.024523 1_555
Fe2 O1 2.028713 1_655
Fe3 O8 1.902221 1_655
Fe3 O0 1.979442 1_655
Fe3 O5 1.979852 1_555
Fe3 O2 2.024281 1_555
Fe3 O7 2.028526 1_655
O0 Sr2 2.604227 1_565
O0 Sr0 2.640585 1_455
O0 Sr1 2.682811 1_465
O0 Sr3 3.047142 1_555
O1 Sr2 2.673129 1_554
O1 Sr3 3.131305 1_555
O1 Sr1 3.207757 1_455
O2 Sr2 2.673809 1_565
O2 Sr3 3.145970 1_555
O2 Sr1 3.207747 1_555
O3 Sr2 2.603973 1_554
O3 Sr0 2.634158 1_555
O3 Sr1 2.695621 1_554
O3 Sr3 3.031274 1_555
O4 Sr2 2.674729 1_554
O4 Sr3 3.144926 1_555
O4 Sr1 3.207945 1_555
O5 Sr2 2.603330 1_565
O5 Sr0 2.631822 1_555
O5 Sr1 2.696761 1_565
O5 Sr3 3.030780 1_555
O6 Sr2 2.604782 1_554
O6 Sr0 2.642008 1_455
O6 Sr1 2.683564 1_454
O6 Sr3 3.046355 1_555
O7 Sr2 2.672164 1_565
O7 Sr3 3.131272 1_555
O7 Sr1 3.208006 1_455
O8 Sr0 2.426878 1_455
O8 Sr1 2.733460 1_455
O8 Sr3 2.790191 1_555
O8 Sr3 2.799900 1_455
O9 Sr3 2.557378 1_555
O9 Sr0 2.791297 1_455
O9 Sr0 2.817980 1_555
O10 Sr3 2.499271 1_555
O10 Sr1 2.809017 1_555
O10 Sr1 2.824100 1_455
O10 Sr2 3.067542 1_555
