# generated using pymatgen
data_Nd2Tl
_symmetry_space_group_name_H-M   'P 1'
_cell_length_a   5.56792251
_cell_length_b   5.56792225
_cell_length_c   6.91424172
_cell_angle_alpha   90.00000000
_cell_angle_beta   90.00000000
_cell_angle_gamma   119.99997215
_symmetry_Int_Tables_number   1
_chemical_formula_structural   Nd2Tl
_chemical_formula_sum   'Nd4 Tl2'
_cell_volume   185.63576698
_cell_formula_units_Z   2
loop_
 _symmetry_equiv_pos_site_id
 _symmetry_equiv_pos_as_xyz
  1  'x, y, z'
loop_
 _atom_site_type_symbol
 _atom_site_label
 _atom_site_symmetry_multiplicity
 _atom_site_fract_x
 _atom_site_fract_y
 _atom_site_fract_z
 _atom_site_occupancy
  Nd  Nd0  1  -0.00000000  -0.00000000  -0.00000000  1
  Nd  Nd1  1  -0.00000000  -0.00000000  0.50000000  1
  Nd  Nd2  1  0.33333300  0.66666700  0.74998571  1
  Nd  Nd3  1  0.66666700  0.33333300  0.25001429  1
  Tl  Tl0  1  0.33333300  0.66666700  0.25001605  1
  Tl  Tl1  1  0.66666700  0.33333300  0.74998395  1
loop_
_geom_bond_atom_site_label_1
_geom_bond_atom_site_label_2
_geom_bond_distance
_geom_bond_site_symmetry_2
Nd0 Nd1 3.457121 1_554
Nd0 Nd1 3.457121 1_555
Nd0 Nd3 3.649953 1_455
Nd0 Nd2 3.649953 1_544
Nd0 Nd3 3.649959 1_445
Nd0 Nd2 3.649959 1_554
Nd0 Nd3 3.649959 1_555
Nd0 Nd2 3.649959 1_444
Nd0 Tl1 3.649959 1_454
Nd0 Tl0 3.649959 1_545
Nd0 Tl0 3.649964 1_555
Nd0 Tl1 3.649964 1_444
Nd0 Tl1 3.649965 1_554
Nd0 Tl0 3.649965 1_445
Nd1 Tl1 3.649854 1_455
Nd1 Tl0 3.649854 1_545
Nd1 Tl1 3.649859 1_445
Nd1 Tl0 3.649859 1_555
Nd1 Tl1 3.649859 1_555
Nd1 Tl0 3.649859 1_445
Nd1 Nd3 3.649860 1_455
Nd1 Nd2 3.649860 1_545
Nd1 Nd3 3.649865 1_445
Nd1 Nd2 3.649865 1_555
Nd1 Nd2 3.649865 1_445
Nd1 Nd3 3.649865 1_555
Nd2 Tl1 3.214639 1_565
Nd2 Tl1 3.214639 1_455
Nd2 Tl1 3.214647 1_555
Nd2 Tl0 3.456911 1_555
Nd2 Tl0 3.457331 1_556
Nd3 Tl0 3.214639 1_545
Nd3 Tl0 3.214639 1_655
Nd3 Tl0 3.214647 1_555
Nd3 Tl1 3.456911 1_555
Nd3 Tl1 3.457331 1_554
