# generated using pymatgen
data_Ba5(Ga3H)2
_symmetry_space_group_name_H-M   'P 1'
_cell_length_a   7.80470899
_cell_length_b   7.80470502
_cell_length_c   14.51964355
_cell_angle_alpha   89.99995747
_cell_angle_beta   90.00015307
_cell_angle_gamma   119.99916466
_symmetry_Int_Tables_number   1
_chemical_formula_structural   Ba5(Ga3H)2
_chemical_formula_sum   'Ba10 Ga12 H4'
_cell_volume   765.95534331
_cell_formula_units_Z   2
loop_
 _symmetry_equiv_pos_site_id
 _symmetry_equiv_pos_as_xyz
  1  'x, y, z'
loop_
 _atom_site_type_symbol
 _atom_site_label
 _atom_site_symmetry_multiplicity
 _atom_site_fract_x
 _atom_site_fract_y
 _atom_site_fract_z
 _atom_site_occupancy
  Ba  Ba0  1  0.68577204  0.01905927  0.76333340  1
  Ba  Ba1  1  0.98093728  0.66671274  0.76333274  1
  Ba  Ba2  1  0.33328444  0.31422038  0.76333307  1
  Ba  Ba3  1  0.98120663  0.31444585  0.26332926  1
  Ba  Ba4  1  0.33324411  0.01880126  0.26332845  1
  Ba  Ba5  1  0.68555900  0.66675987  0.26332918  1
  Ba  Ba6  1  0.66666673  0.33333201  0.53070754  1
  Ba  Ba7  1  0.66666753  0.33333340  0.03076811  1
  Ba  Ba8  1  0.00000005  0.00000057  0.49586124  1
  Ba  Ba9  1  -0.00000051  -0.00000002  0.99589713  1
  Ga  Ga0  1  0.14395514  0.46026010  0.58959422  1
  Ga  Ga1  1  0.53974627  0.68369194  0.58959733  1
  Ga  Ga2  1  0.31630455  0.85604511  0.58959547  1
  Ga  Ga3  1  0.53969361  0.85600662  0.08949446  1
  Ga  Ga4  1  0.31631595  0.46030721  0.08949483  1
  Ga  Ga5  1  0.14399344  0.68368675  0.08949483  1
  Ga  Ga6  1  0.12687321  0.47730275  0.93715301  1
  Ga  Ga7  1  0.52269825  0.64956920  0.93715196  1
  Ga  Ga8  1  0.35042911  0.87312840  0.93715252  1
  Ga  Ga9  1  0.52265608  0.87308176  0.43723358  1
  Ga  Ga10  1  0.35041847  0.47734144  0.43723225  1
  Ga  Ga11  1  0.12691234  0.64957601  0.43723179  1
  H  H0  1  0.00000031  0.00000124  0.81083935  1
  H  H1  1  0.00000030  0.00000105  0.31079763  1
  H  H2  1  0.66666718  0.33333358  0.71616305  1
  H  H3  1  0.66666750  0.33333352  0.21623062  1
loop_
_geom_bond_atom_site_label_1
_geom_bond_atom_site_label_2
_geom_bond_distance
_geom_bond_site_symmetry_2
Ba0 H2 2.621709 1_555
Ba0 H0 2.622448 1_655
Ba0 Ga1 3.395635 1_545
Ba0 Ga8 3.396459 1_545
Ba0 Ga2 3.553684 1_545
Ba0 Ga7 3.554609 1_545
Ba1 H2 2.621724 1_555
Ba1 H0 2.622454 1_665
Ba1 Ga2 3.395653 1_655
Ba1 Ga6 3.396458 1_655
Ba1 Ga0 3.553691 1_655
Ba1 Ga8 3.554629 1_655
Ba2 H2 2.621713 1_555
Ba2 H0 2.622444 1_555
Ba2 Ga0 3.395648 1_555
Ba2 Ga7 3.396479 1_555
Ba2 Ga1 3.553692 1_555
Ba2 Ga6 3.554621 1_555
Ba3 H3 2.622541 1_555
Ba3 H1 2.622852 1_655
Ba3 Ga4 3.395553 1_655
Ba3 Ga11 3.396440 1_655
Ba3 Ga5 3.553650 1_655
Ba3 Ga10 3.554169 1_655
Ba4 H3 2.622535 1_555
Ba4 H1 2.622880 1_555
Ba4 Ga5 3.395564 1_545
Ba4 Ga9 3.396449 1_545
Ba4 Ga3 3.553642 1_545
Ba4 Ga11 3.554248 1_545
Ba5 H3 2.622528 1_555
Ba5 H1 2.622883 1_665
Ba5 Ga3 3.395542 1_555
Ba5 Ga10 3.396498 1_555
Ba5 Ga4 3.553658 1_555
Ba5 Ga9 3.554232 1_555
Ba6 H2 2.692748 1_555
Ba6 Ga1 3.449384 1_555
Ba6 Ga0 3.449437 1_655
Ba6 Ga2 3.449463 1_545
Ba6 Ga9 3.459958 1_545
Ba6 Ga11 3.459973 1_655
Ba6 Ga10 3.459992 1_555
Ba7 H3 2.692850 1_555
Ba7 Ga4 3.449023 1_555
Ba7 Ga3 3.449051 1_545
Ba7 Ga5 3.449072 1_655
Ba7 Ga7 3.460497 1_554
Ba7 Ga6 3.460526 1_654
Ba7 Ga8 3.460540 1_544
Ba8 H1 2.687058 1_555
Ba8 Ga11 3.448877 1_545
Ba8 Ga9 3.448932 1_445
Ba8 Ga10 3.448932 1_555
Ba8 Ga2 3.461566 1_545
Ba8 Ga0 3.461583 1_555
Ba8 Ga1 3.461599 1_445
Ba9 H0 2.686973 1_555
Ba9 Ga8 3.449112 1_545
Ba9 Ga6 3.449138 1_555
Ba9 Ga7 3.449160 1_445
Ba9 Ga5 3.461052 1_546
Ba9 Ga3 3.461073 1_446
Ba9 Ga4 3.461100 1_556
Ga0 Ga2 2.682577 1_555
Ga0 Ga1 2.682622 1_555
Ga0 Ga11 2.700264 1_555
Ga0 Ga10 2.700658 1_555
Ga1 Ga2 2.682615 1_555
Ga1 Ga10 2.700309 1_555
Ga1 Ga9 2.700729 1_555
Ga2 Ga9 2.700245 1_555
Ga3 Ga4 2.681997 1_555
Ga3 Ga5 2.681999 1_555
Ga3 Ga8 2.699988 1_554
Ga3 Ga7 2.700475 1_554
Ga4 Ga5 2.681980 1_555
Ga4 Ga7 2.700002 1_554
Ga4 Ga6 2.700464 1_554
Ga5 Ga6 2.699985 1_554
Ga5 Ga8 2.700479 1_554
Ga6 Ga7 2.682908 1_555
Ga6 Ga8 2.682915 1_555
Ga7 Ga8 2.682898 1_555
Ga10 Ga11 2.682303 1_555
Ga10 Ga9 2.682328 1_555
Ga11 Ga9 2.682359 1_555
Ga11 Ga2 2.700717 1_555
