# generated using pymatgen
data_Li3Cr3(PO4)4
_symmetry_space_group_name_H-M   'P 1'
_cell_length_a   10.09079266
_cell_length_b   10.09079266
_cell_length_c   10.44066435
_cell_angle_alpha   89.79475899
_cell_angle_beta   89.79475899
_cell_angle_gamma   36.68798687
_symmetry_Int_Tables_number   1
_chemical_formula_structural   Li3Cr3(PO4)4
_chemical_formula_sum   'Li6 Cr6 P8 O32'
_cell_volume   635.15874222
_cell_formula_units_Z   2
loop_
 _symmetry_equiv_pos_site_id
 _symmetry_equiv_pos_as_xyz
  1  'x, y, z'
loop_
 _atom_site_type_symbol
 _atom_site_label
 _atom_site_symmetry_multiplicity
 _atom_site_fract_x
 _atom_site_fract_y
 _atom_site_fract_z
 _atom_site_occupancy
  Li  Li0  1  0.18057800  0.95184500  0.04813500  1
  Li  Li1  1  0.46632500  0.53367500  0.75000000  1
  Li  Li2  1  0.53367500  0.46632500  0.25000000  1
  Li  Li3  1  0.81942200  0.04815500  0.95186500  1
  Li  Li4  1  0.04815500  0.81942200  0.45186500  1
  Li  Li5  1  0.95184500  0.18057800  0.54813500  1
  Cr  Cr0  1  0.36561700  0.32153300  0.75419700  1
  Cr  Cr1  1  0.32153300  0.36561700  0.25419700  1
  Cr  Cr2  1  0.00000000  0.50000000  0.00000000  1
  Cr  Cr3  1  0.50000000  0.00000000  0.50000000  1
  Cr  Cr4  1  0.67846700  0.63438300  0.74580300  1
  Cr  Cr5  1  0.63438300  0.67846700  0.24580300  1
  P  P0  1  0.41919900  0.74626600  0.50242700  1
  P  P1  1  0.17945700  0.22025500  0.25338600  1
  P  P2  1  0.22025500  0.17945700  0.75338600  1
  P  P3  1  0.77974500  0.82054300  0.24661400  1
  P  P4  1  0.82054300  0.77974500  0.74661400  1
  P  P5  1  0.58080100  0.25373400  0.49757300  1
  P  P6  1  0.74626600  0.41919900  0.00242700  1
  P  P7  1  0.25373400  0.58080100  0.99757300  1
  O  O0  1  0.72271800  0.76776100  0.63490800  1
  O  O1  1  0.42682100  0.40033100  0.89159500  1
  O  O2  1  0.36949200  0.47523800  0.13131200  1
  O  O3  1  0.47523800  0.36949200  0.63131200  1
  O  O4  1  0.78625600  0.17098200  0.46977900  1
  O  O5  1  0.17098200  0.78625600  0.96977900  1
  O  O6  1  0.82901800  0.21374400  0.03022100  1
  O  O7  1  0.21374400  0.82901800  0.53022100  1
  O  O8  1  0.52476200  0.63050800  0.36868800  1
  O  O9  1  0.63050800  0.52476200  0.86868800  1
  O  O10  1  0.57317900  0.59966900  0.10840500  1
  O  O11  1  0.59966900  0.57317900  0.60840500  1
  O  O12  1  0.95022000  0.34985800  0.00505400  1
  O  O13  1  0.34985800  0.95022000  0.50505400  1
  O  O14  1  0.31905700  0.98744700  0.21749700  1
  O  O15  1  0.94190000  0.36942700  0.28202700  1
  O  O16  1  0.04978000  0.65014200  0.99494600  1
  O  O17  1  0.36942700  0.94190000  0.78202700  1
  O  O18  1  0.76776100  0.72271800  0.13490800  1
  O  O19  1  0.68999800  0.79465100  0.35593300  1
  O  O20  1  0.98744700  0.31905700  0.71749700  1
  O  O21  1  0.79465100  0.68999800  0.85593300  1
  O  O22  1  0.20534900  0.31000200  0.14406700  1
  O  O23  1  0.27728200  0.23223900  0.36509200  1
  O  O24  1  0.31000200  0.20534900  0.64406700  1
  O  O25  1  0.23223900  0.27728200  0.86509200  1
  O  O26  1  0.63057300  0.05810000  0.21797300  1
  O  O27  1  0.01255300  0.68094300  0.28250300  1
  O  O28  1  0.05810000  0.63057300  0.71797300  1
  O  O29  1  0.68094300  0.01255300  0.78250300  1
  O  O30  1  0.65014200  0.04978000  0.49494600  1
  O  O31  1  0.40033100  0.42682100  0.39159500  1
loop_
_geom_bond_atom_site_label_1
_geom_bond_atom_site_label_2
_geom_bond_distance
_geom_bond_site_symmetry_2
Li0 O5 1.934033 1_554
Li0 O6 2.137576 1_465
Li0 O14 2.456781 1_555
Li0 O10 2.478336 1_555
Li0 O12 2.599573 1_465
Li1 O9 2.015780 1_555
Li1 O3 2.015780 1_555
Li1 O1 2.235322 1_555
Li1 O11 2.235322 1_555
Li2 O8 2.015780 1_555
Li2 O2 2.015780 1_555
Li2 O31 2.235322 1_555
Li2 O10 2.235322 1_555
Li3 O6 1.934033 1_556
Li3 O5 2.137576 1_645
Li3 O29 2.456781 1_555
Li3 O1 2.478336 1_555
Li3 O16 2.599573 1_645
Li4 O7 1.934033 1_555
Li4 O4 2.137576 1_465
Li4 O27 2.456781 1_555
Li4 O31 2.478336 1_555
Li4 O30 2.599573 1_465
Li5 O4 1.934033 1_555
Li5 O7 2.137576 1_645
Li5 O20 2.456781 1_555
Li5 O11 2.478336 1_555
Li5 O13 2.599573 1_645
Cr0 O1 1.968155 1_555
Cr0 O3 1.986913 1_555
Cr0 O28 1.994288 1_555
Cr0 O29 2.005524 1_555
Cr0 O24 2.020159 1_555
Cr0 O25 2.073723 1_555
Cr1 O31 1.968155 1_555
Cr1 O2 1.986913 1_555
Cr1 O26 1.994288 1_555
Cr1 O27 2.005524 1_555
Cr1 O22 2.020159 1_555
Cr1 O23 2.073723 1_555
Cr2 O12 1.941723 1_455
Cr2 O16 1.941723 1_554
Cr2 O22 1.965235 1_555
Cr2 O21 1.965235 1_454
Cr2 O25 2.019625 1_554
Cr2 O18 2.019625 1_455
Cr3 O13 1.941723 1_545
Cr3 O30 1.941723 1_555
Cr3 O24 1.965235 1_555
Cr3 O19 1.965235 1_545
Cr3 O0 2.019625 1_545
Cr3 O23 2.019625 1_555
Cr4 O11 1.968155 1_555
Cr4 O9 1.986913 1_555
Cr4 O17 1.994288 1_555
Cr4 O20 2.005524 1_555
Cr4 O21 2.020159 1_555
Cr4 O0 2.073723 1_555
Cr5 O10 1.968155 1_555
Cr5 O8 1.986913 1_555
Cr5 O15 1.994288 1_555
Cr5 O14 2.005524 1_555
Cr5 O19 2.020159 1_555
Cr5 O18 2.073723 1_555
O0 P4 1.596866 1_555
O1 P7 1.578170 1_555
O2 P7 1.566624 1_554
O3 P5 1.566624 1_555
O4 P5 1.516772 1_555
O5 P7 1.516772 1_555
O6 P6 1.516772 1_555
O7 P0 1.516772 1_555
O8 P0 1.566624 1_555
O9 P6 1.566624 1_556
O10 P6 1.578170 1_555
O11 P0 1.578170 1_555
O12 P6 1.554567 1_555
O13 P0 1.554567 1_555
O14 P1 1.529275 1_565
O15 P1 1.520711 1_655
O16 P7 1.554567 1_555
O17 P2 1.520711 1_565
O18 P3 1.596866 1_555
O19 P3 1.600329 1_555
O20 P2 1.529275 1_655
O21 P4 1.600329 1_555
O22 P1 1.600329 1_555
O23 P1 1.596866 1_555
O24 P2 1.600329 1_555
O25 P2 1.596866 1_555
O26 P3 1.520711 1_545
O27 P3 1.529275 1_455
O28 P4 1.520711 1_455
O29 P4 1.529275 1_545
O30 P5 1.554567 1_555
O31 P5 1.578170 1_555
