# generated using pymatgen
data_Mg(TiS2)2
_symmetry_space_group_name_H-M   'P 1'
_cell_length_a   3.45608900
_cell_length_b   5.96113878
_cell_length_c   6.13285844
_cell_angle_alpha   91.52079195
_cell_angle_beta   90.00000000
_cell_angle_gamma   90.00000000
_symmetry_Int_Tables_number   1
_chemical_formula_structural   Mg(TiS2)2
_chemical_formula_sum   'Mg1 Ti2 S4'
_cell_volume   126.30603090
_cell_formula_units_Z   1
loop_
 _symmetry_equiv_pos_site_id
 _symmetry_equiv_pos_as_xyz
  1  'x, y, z'
loop_
 _atom_site_type_symbol
 _atom_site_label
 _atom_site_symmetry_multiplicity
 _atom_site_fract_x
 _atom_site_fract_y
 _atom_site_fract_z
 _atom_site_occupancy
  Mg  Mg0  1  0.00000000  0.50000000  0.00000000  1
  Ti  Ti0  1  0.50000000  0.50000000  0.50000000  1
  Ti  Ti1  1  0.00000000  0.00000000  0.00000000  1
  S  S0  1  0.50000000  0.76665400  0.18140300  1
  S  S1  1  0.50000000  0.23334600  0.81859700  1
  S  S2  1  0.00000000  0.26143000  0.32727000  1
  S  S3  1  0.00000000  0.73857000  0.67273000  1
loop_
_geom_bond_atom_site_label_1
_geom_bond_atom_site_label_2
_geom_bond_distance
_geom_bond_site_symmetry_2
Mg0 S3 2.490476 1_554
Mg0 S2 2.490476 1_555
Mg0 S0 2.580053 1_455
Mg0 S0 2.580053 1_555
Mg0 S1 2.580053 1_554
Mg0 S1 2.580053 1_454
S0 Ti1 2.498175 1_665
S0 Ti1 2.498175 1_565
S0 Ti0 2.551339 1_555
S1 Ti1 2.498175 1_656
S1 Ti1 2.498175 1_556
S1 Ti0 2.551339 1_555
S2 Ti0 2.459849 1_555
S2 Ti0 2.459849 1_455
S2 Ti1 2.508206 1_555
S3 Ti0 2.459849 1_555
S3 Ti0 2.459849 1_455
S3 Ti1 2.508206 1_566
