# generated using pymatgen
data_Na7Al2Ga2SiP5O24
_symmetry_space_group_name_H-M   'P 1'
_cell_length_a   8.71452439
_cell_length_b   8.71399533
_cell_length_c   21.73225072
_cell_angle_alpha   90.22001140
_cell_angle_beta   89.60095680
_cell_angle_gamma   120.00630962
_symmetry_Int_Tables_number   1
_chemical_formula_structural   Na7Al2Ga2SiP5O24
_chemical_formula_sum   'Na21 Al6 Ga6 Si3 P15 O72'
_cell_volume   1429.08534451
_cell_formula_units_Z   3
loop_
 _symmetry_equiv_pos_site_id
 _symmetry_equiv_pos_as_xyz
  1  'x, y, z'
loop_
 _atom_site_type_symbol
 _atom_site_label
 _atom_site_symmetry_multiplicity
 _atom_site_fract_x
 _atom_site_fract_y
 _atom_site_fract_z
 _atom_site_occupancy
  Na  Na0  1  0.36466850  0.36567437  0.25019485  1
  Na  Na1  1  0.99840131  0.63347051  0.24891998  1
  Na  Na2  1  0.63393503  0.63695175  0.74946836  1
  Na  Na3  1  0.99752059  0.36327191  0.75057244  1
  Na  Na4  1  0.37000371  0.00054135  0.74901133  1
  Na  Na5  1  0.30081613  0.33035902  0.58288742  1
  Na  Na6  1  0.03547060  0.70212923  0.58321245  1
  Na  Na7  1  0.66400468  0.96647683  0.58488423  1
  Na  Na8  1  0.29787422  0.96454408  0.08329049  1
  Na  Na9  1  0.66958346  0.70006566  0.08300863  1
  Na  Na10  1  0.03328749  0.33616436  0.08372249  1
  Na  Na11  1  0.96732074  0.66546129  0.91785382  1
  Na  Na12  1  0.69923849  0.03129405  0.91549984  1
  Na  Na13  1  0.96870851  0.30102432  0.41639068  1
  Na  Na14  1  0.33495232  0.03316760  0.41774480  1
  Na  Na15  1  0.99667736  0.99432297  0.49971752  1
  Na  Na16  1  0.00546529  0.00332446  0.99936209  1
  Na  Na17  1  0.66100585  0.33071041  0.83382184  1
  Na  Na18  1  0.66667471  0.33332852  0.33333545  1
  Na  Na19  1  0.33665359  0.67209229  0.16713009  1
  Na  Na20  1  0.33632145  0.67075980  0.66665070  1
  Al  Al0  1  0.00217767  0.00673846  0.85073088  1
  Al  Al1  1  0.00027460  0.99879828  0.64875949  1
  Al  Al2  1  0.66372639  0.32436183  0.68474441  1
  Al  Al3  1  0.67036708  0.33100442  0.18433573  1
  Al  Al4  1  0.66446753  0.33713761  0.98235832  1
  Al  Al5  1  0.66199030  0.33555683  0.48254312  1
  Ga  Ga0  1  0.99346047  0.99424399  0.35039273  1
  Ga  Ga1  1  0.99796802  0.99479977  0.14932982  1
  Ga  Ga2  1  0.32832341  0.66515156  0.01708266  1
  Ga  Ga3  1  0.33595685  0.67227018  0.51735371  1
  Ga  Ga4  1  0.33985435  0.67242200  0.31628583  1
  Ga  Ga5  1  0.33922314  0.67027198  0.81620011  1
  Si  Si0  1  0.71354032  0.00241469  0.74978172  1
  Si  Si1  1  0.37541983  0.04503551  0.58335604  1
  Si  Si2  1  0.95385384  0.62046915  0.08324791  1
  P  P0  1  0.29702539  0.00257643  0.24999278  1
  P  P1  1  0.70679232  0.70860450  0.24980096  1
  P  P2  1  0.99414021  0.28761807  0.24990234  1
  P  P3  1  0.28722935  0.28586557  0.74979585  1
  P  P4  1  0.99745947  0.71164145  0.75000510  1
  P  P5  1  0.95265121  0.33199164  0.58307669  1
  P  P6  1  0.66870831  0.61921355  0.58390728  1
  P  P7  1  0.66661909  0.04877874  0.08296872  1
  P  P8  1  0.38202991  0.33339140  0.08373549  1
  P  P9  1  0.62370849  0.66213302  0.91694923  1
  P  P10  1  0.04325448  0.37203951  0.91632211  1
  P  P11  1  0.33321009  0.96512693  0.91669949  1
  P  P12  1  0.62661590  0.95820167  0.41687124  1
  P  P13  1  0.33913556  0.37908581  0.41677918  1
  P  P14  1  0.03621207  0.66394748  0.41670012  1
  O  O0  1  0.21483450  0.04031540  0.30750390  1
  O  O1  1  0.82955949  0.78858637  0.30536642  1
  O  O2  1  0.96672155  0.17719207  0.30812336  1
  O  O3  1  0.20399414  0.16521263  0.80573730  1
  O  O4  1  0.96568517  0.79526528  0.80773147  1
  O  O5  1  0.83652392  0.03721298  0.81012639  1
  O  O6  1  0.80155822  0.96355071  0.68961155  1
  O  O7  1  0.17108037  0.20516210  0.69204819  1
  O  O8  1  0.03533951  0.82992943  0.69270741  1
  O  O9  1  0.78601158  0.82175021  0.19139926  1
  O  O10  1  0.03688297  0.20930308  0.19243694  1
  O  O11  1  0.17657046  0.96328337  0.19293803  1
  O  O12  1  0.87230380  0.37085011  0.64060222  1
  O  O13  1  0.50143249  0.13178877  0.64309888  1
  O  O14  1  0.63474197  0.50359704  0.64188425  1
  O  O15  1  0.86710376  0.49666906  0.14360885  1
  O  O16  1  0.62939993  0.13121356  0.13933694  1
  O  O17  1  0.49556406  0.36603294  0.14171226  1
  O  O18  1  0.46466448  0.29615634  0.02738012  1
  O  O19  1  0.83019219  0.53366672  0.02305148  1
  O  O20  1  0.69940713  0.16258387  0.02486117  1
  O  O21  1  0.46372060  0.16932647  0.52306301  1
  O  O22  1  0.70448906  0.53574338  0.52747954  1
  O  O23  1  0.83724770  0.29965462  0.52579836  1
  O  O24  1  0.54450295  0.70514255  0.97414840  1
  O  O25  1  0.15604373  0.45388646  0.97424249  1
  O  O26  1  0.29402268  0.84387651  0.97372225  1
  O  O27  1  0.54741850  0.84493861  0.47524843  1
  O  O28  1  0.29639662  0.45743373  0.47424248  1
  O  O29  1  0.15672556  0.70318761  0.47373681  1
  O  O30  1  0.11844072  0.62634176  0.35916197  1
  O  O31  1  0.50385323  0.87821320  0.36128289  1
  O  O32  1  0.36659432  0.48949821  0.35853943  1
  O  O33  1  0.12234751  0.49400793  0.85928526  1
  O  O34  1  0.37246474  0.88263683  0.85952004  1
  O  O35  1  0.51076376  0.63089386  0.85909707  1
  O  O36  1  0.02613603  0.83546268  0.40994305  1
  O  O37  1  0.81440850  0.98285351  0.41028054  1
  O  O38  1  0.16947177  0.19113613  0.41103440  1
  O  O39  1  0.02071218  0.18547348  0.90940077  1
  O  O40  1  0.16258743  0.97529673  0.90801817  1
  O  O41  1  0.81135453  0.83113182  0.90990031  1
  O  O42  1  0.97294948  0.16551555  0.59002819  1
  O  O43  1  0.17697895  0.02219081  0.59173269  1
  O  O44  1  0.83361471  0.80750568  0.58992478  1
  O  O45  1  0.97758363  0.82007976  0.08899803  1
  O  O46  1  0.83430477  0.02984839  0.08893990  1
  O  O47  1  0.19261857  0.16949967  0.08948777  1
  O  O48  1  0.69253353  0.17936517  0.74325018  1
  O  O49  1  0.47660696  0.31220480  0.74281376  1
  O  O50  1  0.83024924  0.52567778  0.74236555  1
  O  O51  1  0.68695328  0.52074929  0.24285737  1
  O  O52  1  0.83083940  0.31111055  0.24321539  1
  O  O53  1  0.47886576  0.17201643  0.24151809  1
  O  O54  1  0.64620426  0.49816099  0.92378782  1
  O  O55  1  0.85538550  0.35310758  0.92339891  1
  O  O56  1  0.50396944  0.14595907  0.92528373  1
  O  O57  1  0.64647289  0.14605311  0.42391692  1
  O  O58  1  0.50252327  0.35569839  0.42343522  1
  O  O59  1  0.85446315  0.49446636  0.42524693  1
  O  O60  1  0.36296942  0.50097304  0.07759088  1
  O  O61  1  0.15342769  0.64389947  0.07752983  1
  O  O62  1  0.50280787  0.85944557  0.07724970  1
  O  O63  1  0.35396107  0.84623124  0.57738215  1
  O  O64  1  0.50082323  0.63797789  0.57779784  1
  O  O65  1  0.14140227  0.49677644  0.57726864  1
  O  O66  1  0.30718971  0.83116466  0.25673429  1
  O  O67  1  0.51898826  0.68393043  0.25637100  1
  O  O68  1  0.16387732  0.47555753  0.25564301  1
  O  O69  1  0.30515894  0.47209369  0.75612100  1
  O  O70  1  0.16224624  0.68794617  0.75591113  1
  O  O71  1  0.51411166  0.82527560  0.75576467  1
loop_
_geom_bond_atom_site_label_1
_geom_bond_atom_site_label_2
_geom_bond_distance
_geom_bond_site_symmetry_2
Na0 O53 2.355495 1_555
Na0 O68 2.380063 1_555
Na0 O67 2.405624 1_555
Na0 O51 2.436991 1_555
Na0 O32 2.582917 1_555
Na0 O17 2.611199 1_555
Na0 O0 2.756102 1_555
Na0 O10 2.781294 1_555
Na1 O66 2.367544 1_655
Na1 O51 2.384567 1_555
Na1 O52 2.436304 1_555
Na1 O68 2.446129 1_655
Na1 O15 2.572829 1_555
Na1 O30 2.634216 1_655
Na1 O1 2.729126 1_555
Na1 O11 2.772737 1_655
Na2 O71 2.347839 1_555
Na2 O50 2.354814 1_555
Na2 O49 2.455143 1_555
Na2 O69 2.484487 1_555
Na2 O35 2.596114 1_555
Na2 O14 2.608438 1_555
Na2 O6 2.787373 1_555
Na2 O4 2.813006 1_555
Na3 O48 2.324075 1_555
Na3 O69 2.358389 1_655
Na3 O70 2.452803 1_655
Na3 O50 2.495667 1_555
Na3 O33 2.615064 1_655
Na3 O12 2.648834 1_555
Na3 O5 2.780683 1_555
Na3 O7 2.801342 1_655
Na4 O49 2.394684 1_555
Na4 O70 2.405622 1_545
Na4 O71 2.419470 1_545
Na4 O48 2.441275 1_555
Na4 O13 2.567306 1_555
Na4 O34 2.620201 1_545
Na4 O3 2.776624 1_555
Na4 O8 2.812856 1_545
Na5 O43 2.348477 1_555
Na5 O64 2.358442 1_555
Na5 O65 2.463025 1_555
Na5 O42 2.478225 1_455
Na5 O7 2.616320 1_555
Na5 O28 2.620391 1_555
Na5 O21 2.761791 1_555
Na5 O14 2.834468 1_555
Na6 O44 2.360042 1_455
Na6 O65 2.391606 1_555
Na6 O63 2.409703 1_555
Na6 O43 2.427514 1_565
Na6 O29 2.594692 1_555
Na6 O8 2.623636 1_555
Na6 O22 2.782272 1_455
Na6 O12 2.794318 1_455
Na7 O63 2.365983 1_555
Na7 O42 2.366738 1_565
Na7 O44 2.483349 1_555
Na7 O64 2.483603 1_555
Na7 O6 2.585842 1_555
Na7 O27 2.601721 1_555
Na7 O13 2.772204 1_565
Na7 O23 2.823987 1_565
Na8 O62 2.382669 1_555
Na8 O47 2.384149 1_565
Na8 O45 2.423386 1_455
Na8 O61 2.426697 1_555
Na8 O26 2.592933 1_554
Na8 O11 2.597931 1_555
Na8 O18 2.782200 1_565
Na8 O16 2.788975 1_565
Na9 O45 2.347590 1_555
Na9 O60 2.351506 1_555
Na9 O62 2.465676 1_555
Na9 O46 2.491844 1_565
Na9 O9 2.576931 1_555
Na9 O24 2.621441 1_554
Na9 O19 2.783741 1_555
Na9 O17 2.826026 1_555
Na10 O61 2.344775 1_555
Na10 O46 2.348342 1_455
Na10 O47 2.464462 1_555
Na10 O60 2.490742 1_555
Na10 O25 2.596771 1_554
Na10 O10 2.619294 1_555
Na10 O15 2.780826 1_455
Na10 O20 2.832874 1_455
Na11 O40 2.373813 1_655
Na11 O55 2.391615 1_555
Na11 O54 2.426705 1_555
Na11 O41 2.434972 1_555
Na11 O19 2.565748 1_556
Na11 O4 2.654137 1_555
Na11 O26 2.757435 1_655
Na11 O33 2.767250 1_655
Na12 O56 2.373446 1_555
Na12 O41 2.390165 1_545
Na12 O39 2.429523 1_655
Na12 O55 2.434750 1_555
Na12 O5 2.564979 1_555
Na12 O20 2.633421 1_556
Na12 O34 2.759336 1_545
Na12 O24 2.773267 1_545
Na13 O59 2.354371 1_555
Na13 O38 2.379783 1_655
Na13 O37 2.404900 1_545
Na13 O57 2.436884 1_555
Na13 O2 2.581314 1_555
Na13 O23 2.629548 1_555
Na13 O30 2.755064 1_655
Na13 O28 2.781551 1_655
Na14 O36 2.367726 1_545
Na14 O57 2.385079 1_555
Na14 O58 2.437561 1_555
Na14 O38 2.446561 1_555
Na14 O21 2.566874 1_555
Na14 O0 2.634515 1_555
Na14 O31 2.728605 1_545
Na14 O29 2.773957 1_545
Na15 O36 2.473125 1_655
Na15 O44 2.486881 1_555
Na15 O43 2.486959 1_665
Na15 O37 2.488681 1_555
Na15 O38 2.514992 1_665
Na15 O42 2.529928 1_565
Na16 O45 2.456154 1_446
Na16 O40 2.483553 1_545
Na16 O39 2.483656 1_555
Na16 O47 2.500733 1_556
Na16 O46 2.523668 1_456
Na16 O41 2.525386 1_445
Na17 O48 2.454390 1_555
Na17 O54 2.476144 1_555
Na17 O56 2.489693 1_555
Na17 O49 2.510510 1_555
Na17 O55 2.531701 1_555
Na17 O50 2.547729 1_555
Na18 O52 2.480929 1_555
Na18 O58 2.480994 1_555
Na18 O51 2.509179 1_555
Na18 O57 2.510336 1_555
Na18 O53 2.521725 1_555
Na18 O59 2.522933 1_555
Na19 O61 2.459436 1_555
Na19 O66 2.471361 1_555
Na19 O67 2.484788 1_555
Na19 O62 2.489589 1_555
Na19 O68 2.511189 1_555
Na19 O60 2.525090 1_555
Na20 O71 2.428843 1_555
Na20 O63 2.430804 1_555
Na20 O64 2.496424 1_555
Na20 O70 2.504120 1_555
Na20 O69 2.529753 1_555
Na20 O65 2.530741 1_555
Al0 O5 1.826507 1_455
Al0 O3 1.874435 1_555
Al0 O4 1.942929 1_445
Al0 O39 1.952840 1_555
Al0 O40 1.997271 1_545
Al0 O41 2.049543 1_445
Al1 O6 1.824850 1_455
Al1 O43 1.900038 1_565
Al1 O8 1.906711 1_555
Al1 O7 1.914072 1_565
Al1 O44 2.027534 1_455
Al1 O42 2.039814 1_465
Al2 O13 1.807688 1_555
Al2 O48 1.900027 1_555
Al2 O12 1.905379 1_555
Al2 O14 1.944174 1_555
Al2 O49 2.015549 1_555
Al2 O50 2.052719 1_555
Al3 O15 1.822075 1_555
Al3 O16 1.866793 1_555
Al3 O17 1.938716 1_555
Al3 O52 1.972849 1_555
Al3 O53 1.980045 1_555
Al3 O51 2.029683 1_555
Al4 O19 1.825669 1_556
Al4 O18 1.863765 1_556
Al4 O20 1.933250 1_556
Al4 O54 1.963231 1_555
Al4 O56 1.986919 1_555
Al4 O55 2.041897 1_555
Al5 O21 1.828764 1_555
Al5 O22 1.865380 1_555
Al5 O23 1.953023 1_555
Al5 O58 1.970438 1_555
Al5 O59 1.985548 1_555
Al5 O57 2.032576 1_555
Ga0 O1 1.911817 1_555
Ga0 O2 1.955867 1_565
Ga0 O0 1.988670 1_665
Ga0 O37 1.989032 1_555
Ga0 O36 2.020716 1_655
Ga0 O38 2.100436 1_665
Ga1 O9 1.929449 1_555
Ga1 O45 1.945789 1_555
Ga1 O10 1.960468 1_665
Ga1 O11 1.961156 1_655
Ga1 O47 2.070716 1_665
Ga1 O46 2.077187 1_565
Ga2 O25 1.936960 1_554
Ga2 O61 1.942841 1_555
Ga2 O24 1.965326 1_554
Ga2 O26 1.970698 1_554
Ga2 O60 2.078244 1_555
Ga2 O62 2.079447 1_555
Ga3 O27 1.926376 1_555
Ga3 O63 1.942728 1_555
Ga3 O28 1.961338 1_555
Ga3 O29 1.963194 1_555
Ga3 O65 2.073613 1_555
Ga3 O64 2.082719 1_555
Ga4 O31 1.912386 1_555
Ga4 O32 1.955524 1_555
Ga4 O30 1.988820 1_555
Ga4 O67 1.989603 1_555
Ga4 O66 2.020431 1_555
Ga4 O68 2.100246 1_555
Ga5 O35 1.938161 1_555
Ga5 O71 1.949098 1_555
Ga5 O34 1.961884 1_555
Ga5 O33 1.972514 1_555
Ga5 O69 2.061666 1_555
Ga5 O70 2.094338 1_555
O0 P0 1.550241 1_555
O1 P1 1.534372 1_555
O2 P2 1.535940 1_555
O3 P3 1.531110 1_555
O4 P4 1.539954 1_555
O5 Si0 1.628464 1_555
O6 Si0 1.629533 1_565
O7 P3 1.546942 1_555
O8 P4 1.544599 1_455
O9 P1 1.541486 1_555
O10 P2 1.550908 1_455
O11 P0 1.553038 1_565
O12 P5 1.545806 1_555
O13 Si1 1.626379 1_555
O14 P6 1.548045 1_555
O15 Si2 1.624014 1_555
O16 P7 1.530554 1_555
O17 P8 1.542874 1_555
O18 P8 1.530417 1_555
O19 Si2 1.625305 1_555
O20 P7 1.543039 1_555
O21 Si1 1.626450 1_555
O22 P6 1.531261 1_555
O23 P5 1.540002 1_555
O24 P9 1.550909 1_555
O25 P10 1.538956 1_555
O26 P11 1.553043 1_555
O27 P12 1.541454 1_555
O28 P13 1.551016 1_555
O29 P14 1.553070 1_555
O30 P14 1.550387 1_555
O31 P12 1.534752 1_555
O32 P13 1.536154 1_555
O33 P10 1.551341 1_555
O34 P11 1.552751 1_555
O35 P9 1.539542 1_555
O36 P14 1.547959 1_555
O37 P12 1.546034 1_555
O38 P13 1.569404 1_555
O39 P10 1.543806 1_555
O40 P11 1.546006 1_555
O41 P9 1.567112 1_555
O42 P5 1.554759 1_555
O43 Si1 1.647690 1_555
O44 P6 1.554684 1_555
O45 Si2 1.650102 1_555
O46 P7 1.556714 1_555
O47 P8 1.555802 1_555
O48 Si0 1.647917 1_555
O49 P3 1.554746 1_555
O50 P4 1.554477 1_555
O51 P1 1.564522 1_555
O52 P2 1.543599 1_555
O53 P0 1.543675 1_555
O54 P9 1.544130 1_555
O55 P10 1.567737 1_655
O56 P11 1.545489 1_545
O57 P12 1.564634 1_545
O58 P13 1.543737 1_555
O59 P14 1.543580 1_655
O60 P8 1.556383 1_555
O61 Si2 1.650436 1_455
O62 P7 1.555807 1_565
O63 Si1 1.651530 1_565
O64 P6 1.557880 1_555
O65 P5 1.555497 1_455
O66 P0 1.547445 1_565
O67 P1 1.546019 1_555
O68 P2 1.569614 1_455
O69 P3 1.556194 1_555
O70 P4 1.555846 1_455
O71 Si0 1.653844 1_565
