# generated using pymatgen
data_Na2Ta2Ga6Si3(S3O16)3
_symmetry_space_group_name_H-M   'P 1'
_cell_length_a   17.28620793
_cell_length_b   8.59925278
_cell_length_c   22.34143346
_cell_angle_alpha   90.06678852
_cell_angle_beta   90.20637620
_cell_angle_gamma   120.11287869
_symmetry_Int_Tables_number   1
_chemical_formula_structural   Na2Ta2Ga6Si3(S3O16)3
_chemical_formula_sum   'Na6 Ta6 Ga18 Si9 S27 O144'
_cell_volume   2872.77507437
_cell_formula_units_Z   3
loop_
 _symmetry_equiv_pos_site_id
 _symmetry_equiv_pos_as_xyz
  1  'x, y, z'
loop_
 _atom_site_type_symbol
 _atom_site_label
 _atom_site_symmetry_multiplicity
 _atom_site_fract_x
 _atom_site_fract_y
 _atom_site_fract_z
 _atom_site_occupancy
  Na  Na0  1  0.99857308  0.99365580  0.49937210  1
  Na  Na1  1  0.50031986  0.00527433  0.99791945  1
  Na  Na2  1  0.33741746  0.33613160  0.83378449  1
  Na  Na3  1  0.83406467  0.34082744  0.83158096  1
  Na  Na4  1  0.33493865  0.32844968  0.33429655  1
  Na  Na5  1  0.83639798  0.33663339  0.33701837  1
  Ta  Ta0  1  0.49559334  0.00746284  0.35698992  1
  Ta  Ta1  1  0.99401715  0.98270700  0.85405587  1
  Ta  Ta2  1  0.50338316  0.99528540  0.63895149  1
  Ta  Ta3  1  0.99803828  0.00287911  0.14271062  1
  Ta  Ta4  1  0.66997828  0.66390919  0.02044409  1
  Ta  Ta5  1  0.16896077  0.67553164  0.52206420  1
  Ga  Ga0  1  0.00078645  0.99178296  0.35608524  1
  Ga  Ga1  1  0.50210907  0.01387838  0.85192453  1
  Ga  Ga2  1  0.99759758  0.98938161  0.65008550  1
  Ga  Ga3  1  0.50065977  0.00668954  0.15226748  1
  Ga  Ga4  1  0.33295325  0.33774166  0.68280534  1
  Ga  Ga5  1  0.83372851  0.33678539  0.68417121  1
  Ga  Ga6  1  0.33848740  0.33119813  0.18789710  1
  Ga  Ga7  1  0.82989445  0.32409058  0.18363605  1
  Ga  Ga8  1  0.34031311  0.33611850  0.97955511  1
  Ga  Ga9  1  0.83325713  0.33213192  0.98022139  1
  Ga  Ga10  1  0.33498012  0.33429836  0.48168046  1
  Ga  Ga11  1  0.83540253  0.33815793  0.48293944  1
  Ga  Ga12  1  0.16811367  0.66830292  0.01866217  1
  Ga  Ga13  1  0.67035639  0.67958547  0.52431056  1
  Ga  Ga14  1  0.16359223  0.67697358  0.32051646  1
  Ga  Ga15  1  0.66174527  0.66003952  0.31257229  1
  Ga  Ga16  1  0.16346248  0.66582532  0.80836354  1
  Ga  Ga17  1  0.66371240  0.64832383  0.81702425  1
  Si  Si0  1  0.50163873  0.29975134  0.24689178  1
  Si  Si1  1  0.99889767  0.69792347  0.74505796  1
  Si  Si2  1  0.70055901  0.05331735  0.58162522  1
  Si  Si3  1  0.32999394  0.60505146  0.58240305  1
  Si  Si4  1  0.83029141  0.05543845  0.08206687  1
  Si  Si5  1  0.80902950  0.65268461  0.91554940  1
  Si  Si6  1  0.51842659  0.37099005  0.91419464  1
  Si  Si7  1  0.30797690  0.96481398  0.41646755  1
  Si  Si8  1  0.01620332  0.65976470  0.41534402  1
  S  S0  1  0.14534519  0.00007815  0.25052879  1
  S  S1  1  0.64645991  0.00068024  0.24979209  1
  S  S2  1  0.35200540  0.70734462  0.24890641  1
  S  S3  1  0.85429741  0.70671537  0.25046887  1
  S  S4  1  0.00074055  0.29262883  0.25255142  1
  S  S5  1  0.14658020  0.29119458  0.74949596  1
  S  S6  1  0.64498624  0.29128959  0.75067046  1
  S  S7  1  0.50095772  0.71051824  0.75213747  1
  S  S8  1  0.35464409  0.00173767  0.74996270  1
  S  S9  1  0.85148284  0.99637773  0.74895055  1
  S  S10  1  0.47878845  0.33885937  0.58341746  1
  S  S11  1  0.97751859  0.32663773  0.58448875  1
  S  S12  1  0.18747220  0.04891540  0.58448602  1
  S  S13  1  0.83349188  0.62628106  0.58273154  1
  S  S14  1  0.47636612  0.62623979  0.08448728  1
  S  S15  1  0.97994405  0.61830580  0.08337117  1
  S  S16  1  0.33212409  0.03998864  0.08275960  1
  S  S17  1  0.19367639  0.34015181  0.08273048  1
  S  S18  1  0.68730688  0.32679508  0.08437929  1
  S  S19  1  0.30955304  0.66544846  0.91615126  1
  S  S20  1  0.02420786  0.38277230  0.91678479  1
  S  S21  1  0.16874878  0.95614592  0.91735655  1
  S  S22  1  0.66590433  0.95583024  0.91481083  1
  S  S23  1  0.80996884  0.95282099  0.41479823  1
  S  S24  1  0.16649467  0.37660219  0.41499716  1
  S  S25  1  0.66984857  0.38634189  0.41743013  1
  S  S26  1  0.52330270  0.66438268  0.41663166  1
  O  O0  1  0.10537330  0.03591327  0.30310692  1
  O  O1  1  0.60372006  0.03034291  0.30325469  1
  O  O2  1  0.41239519  0.79012805  0.30302582  1
  O  O3  1  0.91251777  0.78807726  0.30299084  1
  O  O4  1  0.48434154  0.16471601  0.30637577  1
  O  O5  1  0.98358325  0.17302359  0.30412211  1
  O  O6  1  0.10340575  0.17725869  0.80405442  1
  O  O7  1  0.60517446  0.17596015  0.80442827  1
  O  O8  1  0.48345975  0.79345903  0.80533314  1
  O  O9  1  0.98348899  0.79995594  0.80627713  1
  O  O10  1  0.41087731  0.03673160  0.80449259  1
  O  O11  1  0.91286804  0.03040149  0.80401548  1
  O  O12  1  0.39631743  0.97338721  0.69680008  1
  O  O13  1  0.89365383  0.96880485  0.69628261  1
  O  O14  1  0.09076717  0.21465809  0.69574997  1
  O  O15  1  0.58660657  0.20339169  0.69754594  1
  O  O16  1  0.01871550  0.83545088  0.69132679  1
  O  O17  1  0.51280298  0.82305974  0.69772230  1
  O  O18  1  0.39385210  0.81805836  0.19514665  1
  O  O19  1  0.89880234  0.82237650  0.19554427  1
  O  O20  1  0.01274561  0.20075749  0.19689973  1
  O  O21  1  0.51812144  0.20446757  0.19043197  1
  O  O22  1  0.08750932  0.97323472  0.19598332  1
  O  O23  1  0.59116795  0.96623791  0.19513355  1
  O  O24  1  0.43965076  0.36700958  0.63812417  1
  O  O25  1  0.94162491  0.36601253  0.63803422  1
  O  O26  1  0.24318509  0.12021412  0.63865719  1
  O  O27  1  0.75385208  0.13850122  0.64335280  1
  O  O28  1  0.31433831  0.49713614  0.64364298  1
  O  O29  1  0.81851567  0.51927976  0.63721737  1
  O  O30  1  0.43696394  0.51275126  0.13770530  1
  O  O31  1  0.94058044  0.51427961  0.13805969  1
  O  O32  1  0.31528446  0.11904210  0.13651479  1
  O  O33  1  0.81634910  0.13225079  0.14358704  1
  O  O34  1  0.24703252  0.36794714  0.13745000  1
  O  O35  1  0.74322868  0.36671764  0.13850956  1
  O  O36  1  0.22958456  0.29982428  0.02898555  1
  O  O37  1  0.72700417  0.30007676  0.03002291  1
  O  O38  1  0.41979133  0.54839934  0.03008324  1
  O  O39  1  0.92381573  0.55083825  0.02982311  1
  O  O40  1  0.34876612  0.15421706  0.02909859  1
  O  O41  1  0.85275865  0.17585715  0.02332136  1
  O  O42  1  0.22697763  0.15355489  0.52982598  1
  O  O43  1  0.73604200  0.17566483  0.52254514  1
  O  O44  1  0.35153369  0.52939988  0.52308706  1
  O  O45  1  0.85319360  0.55265704  0.52900188  1
  O  O46  1  0.42213092  0.29519848  0.52987659  1
  O  O47  1  0.92360752  0.29319657  0.52980382  1
  O  O48  1  0.27123702  0.70048001  0.97144072  1
  O  O49  1  0.76710996  0.69812504  0.97489378  1
  O  O50  1  0.07901085  0.45971387  0.97228825  1
  O  O51  1  0.58108373  0.46666837  0.97476207  1
  O  O52  1  0.14981784  0.84371986  0.97179177  1
  O  O53  1  0.65091524  0.84445730  0.97030289  1
  O  O54  1  0.26650819  0.83465264  0.47480912  1
  O  O55  1  0.77237885  0.84008012  0.46877979  1
  O  O56  1  0.15065167  0.45625618  0.46966758  1
  O  O57  1  0.65024765  0.46007858  0.47099737  1
  O  O58  1  0.08187704  0.69494825  0.47414781  1
  O  O59  1  0.57778077  0.69649206  0.47051762  1
  O  O60  1  0.05847306  0.62053535  0.35647096  1
  O  O61  1  0.56266264  0.63512075  0.36210428  1
  O  O62  1  0.25391034  0.87693320  0.35587592  1
  O  O63  1  0.75394850  0.86961314  0.36003814  1
  O  O64  1  0.18293948  0.48674660  0.36054646  1
  O  O65  1  0.68324810  0.49289118  0.36263429  1
  O  O66  1  0.06520117  0.49460175  0.86355827  1
  O  O67  1  0.56066769  0.49888086  0.85703468  1
  O  O68  1  0.18504857  0.87747097  0.86398717  1
  O  O69  1  0.68275460  0.87839723  0.86118168  1
  O  O70  1  0.25340391  0.63479842  0.86235327  1
  O  O71  1  0.75264546  0.63167468  0.85674342  1
  O  O72  1  0.01136402  0.84456118  0.41037173  1
  O  O73  1  0.51523023  0.82817861  0.40699594  1
  O  O74  1  0.40581521  0.97320289  0.40880639  1
  O  O75  1  0.90098321  0.97474268  0.40792400  1
  O  O76  1  0.08359825  0.19831294  0.40930310  1
  O  O77  1  0.58814408  0.20102486  0.40852686  1
  O  O78  1  0.01618843  0.20373376  0.90882349  1
  O  O79  1  0.51069378  0.17399265  0.91045490  1
  O  O80  1  0.08859204  0.97713993  0.90906375  1
  O  O81  1  0.58391444  0.96894137  0.91004771  1
  O  O82  1  0.39998246  0.82372406  0.90985514  1
  O  O83  1  0.90710773  0.84010289  0.90919117  1
  O  O84  1  0.48693399  0.17458369  0.59332883  1
  O  O85  1  0.98878606  0.16578105  0.59194553  1
  O  O86  1  0.09771711  0.02905944  0.58958047  1
  O  O87  1  0.59816492  0.02939806  0.59411357  1
  O  O88  1  0.41588652  0.81003983  0.59408214  1
  O  O89  1  0.91414994  0.81114000  0.58903331  1
  O  O90  1  0.48712556  0.80898243  0.09169309  1
  O  O91  1  0.99063932  0.80367750  0.09362832  1
  O  O92  1  0.41218505  0.01937943  0.08901931  1
  O  O93  1  0.91820792  0.02453472  0.09410697  1
  O  O94  1  0.10172998  0.17574458  0.09253113  1
  O  O95  1  0.59719939  0.16519384  0.08961408  1
  O  O96  1  0.34504722  0.16477880  0.74233748  1
  O  O97  1  0.84703913  0.16154407  0.74628568  1
  O  O98  1  0.23514131  0.30246930  0.74537109  1
  O  O99  1  0.73309819  0.30716180  0.74458184  1
  O  O100  1  0.42012643  0.52963231  0.74494303  1
  O  O101  1  0.90764141  0.50492195  0.74116598  1
  O  O102  1  0.34442946  0.52808349  0.24284488  1
  O  O103  1  0.84650667  0.52746698  0.24076910  1
  O  O104  1  0.40987420  0.30884041  0.24359822  1
  O  O105  1  0.92055315  0.31020569  0.24398725  1
  O  O106  1  0.23331853  0.16436838  0.24163817  1
  O  O107  1  0.73548706  0.16918266  0.24485908  1
  O  O108  1  0.31604185  0.50044407  0.92425919  1
  O  O109  1  0.82387588  0.48498505  0.92671112  1
  O  O110  1  0.42083491  0.35401868  0.92380252  1
  O  O111  1  0.93461022  0.36136719  0.92237769  1
  O  O112  1  0.24670367  0.13808864  0.92539045  1
  O  O113  1  0.74577075  0.13518960  0.92297658  1
  O  O114  1  0.32365237  0.16341651  0.42635967  1
  O  O115  1  0.81876427  0.13111431  0.42071227  1
  O  O116  1  0.24537240  0.35582552  0.42229975  1
  O  O117  1  0.74670596  0.36031769  0.42200501  1
  O  O118  1  0.43277971  0.50719870  0.42114087  1
  O  O119  1  0.91841166  0.48302521  0.42589146  1
  O  O120  1  0.17911526  0.49406574  0.07479437  1
  O  O121  1  0.67786710  0.48978607  0.07765266  1
  O  O122  1  0.07024807  0.64365241  0.07519556  1
  O  O123  1  0.56494187  0.64412183  0.07594077  1
  O  O124  1  0.25069838  0.85965682  0.07426852  1
  O  O125  1  0.74587816  0.85323157  0.07441124  1
  O  O126  1  0.17784829  0.86625473  0.57783730  1
  O  O127  1  0.67741039  0.84900088  0.57409827  1
  O  O128  1  0.24506169  0.63581970  0.57365742  1
  O  O129  1  0.75223370  0.63943805  0.57419242  1
  O  O130  1  0.06752737  0.48703740  0.57536368  1
  O  O131  1  0.56854528  0.49226435  0.57506236  1
  O  O132  1  0.15262599  0.83794953  0.25470795  1
  O  O133  1  0.65743978  0.84422787  0.25850014  1
  O  O134  1  0.26427570  0.69026228  0.25799668  1
  O  O135  1  0.76782394  0.69462594  0.25654039  1
  O  O136  1  0.08332729  0.46698625  0.25617943  1
  O  O137  1  0.58913622  0.48786617  0.26044359  1
  O  O138  1  0.15736460  0.47029283  0.75913315  1
  O  O139  1  0.65154997  0.46817387  0.75543493  1
  O  O140  1  0.08715489  0.69036547  0.76070150  1
  O  O141  1  0.58268432  0.69944997  0.75741893  1
  O  O142  1  0.26664078  0.83986632  0.75847404  1
  O  O143  1  0.76413644  0.83602798  0.75889178  1
loop_
_geom_bond_atom_site_label_1
_geom_bond_atom_site_label_2
_geom_bond_distance
_geom_bond_site_symmetry_2
Na0 O72 2.434762 1_655
Na0 O89 2.517105 1_555
Na0 O86 2.557694 1_665
Na0 O76 2.596302 1_665
Na0 O85 2.596856 1_565
Na0 O75 2.597222 1_555
Na1 O79 2.388230 1_555
Na1 O81 2.551831 1_545
Na1 O95 2.559351 1_556
Na1 O82 2.562782 1_545
Na1 O92 2.585624 1_556
Na1 O90 2.629792 1_546
Na2 O110 2.429697 1_555
Na2 O100 2.528540 1_555
Na2 O96 2.559809 1_555
Na2 O98 2.563441 1_555
Na2 O108 2.596419 1_555
Na2 O112 2.626681 1_555
Na3 O101 2.431775 1_555
Na3 O109 2.510073 1_555
Na3 O99 2.524905 1_555
Na3 O97 2.530161 1_555
Na3 O111 2.613940 1_555
Na3 O113 2.636020 1_555
Na4 O114 2.452443 1_555
Na4 O104 2.459608 1_555
Na4 O118 2.519625 1_555
Na4 O116 2.589348 1_555
Na4 O106 2.615717 1_555
Na4 O102 2.622304 1_555
Na5 O119 2.391684 1_555
Na5 O115 2.486739 1_555
Na5 O117 2.527377 1_555
Na5 O107 2.608157 1_555
Na5 O105 2.615382 1_555
Na5 O103 2.659078 1_555
Ga0 O72 1.827953 1_555
Ga0 O76 2.012166 1_565
Ga0 O75 2.024919 1_455
Ga0 O3 2.025816 1_455
Ga0 O0 2.035075 1_565
Ga0 O5 2.081348 1_465
Ga1 O79 1.848544 1_555
Ga1 O7 1.941183 1_555
Ga1 O10 1.986982 1_555
Ga1 O8 2.039606 1_545
Ga1 O81 2.090816 1_545
Ga1 O82 2.142502 1_545
Ga2 O16 1.794339 1_655
Ga2 O13 2.004942 1_555
Ga2 O89 2.013209 1_555
Ga2 O14 2.059228 1_665
Ga2 O85 2.060685 1_565
Ga2 O86 2.089110 1_665
Ga3 O21 1.786142 1_555
Ga3 O18 1.992238 1_545
Ga3 O23 2.005502 1_545
Ga3 O95 2.083502 1_555
Ga3 O90 2.090431 1_545
Ga3 O92 2.121303 1_555
Ga4 O28 1.786377 1_555
Ga4 O26 1.987949 1_555
Ga4 O24 2.002421 1_555
Ga4 O96 2.083152 1_555
Ga4 O100 2.098904 1_555
Ga4 O98 2.099544 1_555
Ga5 O27 1.808434 1_555
Ga5 O101 1.864055 1_555
Ga5 O29 2.012035 1_555
Ga5 O25 2.036764 1_555
Ga5 O99 2.117893 1_555
Ga5 O97 2.144784 1_555
Ga6 O104 1.826453 1_555
Ga6 O30 1.985889 1_555
Ga6 O32 2.016088 1_555
Ga6 O102 2.050319 1_555
Ga6 O106 2.051209 1_555
Ga6 O34 2.087747 1_555
Ga7 O33 1.784464 1_555
Ga7 O35 1.983984 1_555
Ga7 O107 2.036574 1_555
Ga7 O31 2.061675 1_555
Ga7 O103 2.063631 1_555
Ga7 O105 2.112134 1_555
Ga8 O110 1.819499 1_555
Ga8 O40 1.981289 1_556
Ga8 O38 1.990401 1_556
Ga8 O112 2.049103 1_555
Ga8 O108 2.072252 1_555
Ga8 O36 2.096970 1_556
Ga9 O41 1.817144 1_556
Ga9 O109 1.843737 1_555
Ga9 O37 2.048139 1_556
Ga9 O113 2.049873 1_555
Ga9 O39 2.060135 1_556
Ga9 O111 2.092348 1_555
Ga10 O44 1.806983 1_555
Ga10 O114 1.852163 1_555
Ga10 O46 2.009842 1_555
Ga10 O42 2.040827 1_555
Ga10 O118 2.096917 1_555
Ga10 O116 2.113549 1_555
Ga11 O43 1.814153 1_555
Ga11 O119 1.859716 1_555
Ga11 O45 1.994999 1_555
Ga11 O47 2.037523 1_555
Ga11 O117 2.125827 1_555
Ga11 O115 2.159381 1_555
Ga12 O50 1.968546 1_554
Ga12 O48 1.971441 1_554
Ga12 O124 1.978481 1_555
Ga12 O52 1.987959 1_554
Ga12 O120 2.035283 1_555
Ga12 O122 2.039196 1_555
Ga13 O127 1.786488 1_555
Ga13 O129 1.960661 1_555
Ga13 O55 2.032645 1_555
Ga13 O131 2.037593 1_555
Ga13 O59 2.060677 1_555
Ga13 O57 2.106169 1_555
Ga14 O60 1.819124 1_555
Ga14 O62 1.820025 1_555
Ga14 O64 2.034146 1_555
Ga14 O132 2.092807 1_555
Ga14 O136 2.171971 1_555
Ga14 O134 2.193512 1_555
Ga15 O137 1.801277 1_555
Ga15 O61 1.962145 1_555
Ga15 O65 1.997981 1_555
Ga15 O63 2.003479 1_555
Ga15 O133 2.023784 1_555
Ga15 O135 2.118528 1_555
Ga16 O140 1.785517 1_555
Ga16 O138 1.965978 1_555
Ga16 O142 2.000775 1_555
Ga16 O66 2.020770 1_555
Ga16 O68 2.075067 1_555
Ga16 O70 2.084906 1_555
Ga17 O67 1.827740 1_555
Ga17 O71 1.839185 1_555
Ga17 O139 2.000895 1_555
Ga17 O69 2.082201 1_555
Ga17 O143 2.124906 1_555
Ga17 O141 2.129396 1_555
O0 S0 1.473395 1_555
O1 S1 1.494093 1_555
O1 Ta0 2.149701 1_555
O2 S2 1.517130 1_555
O2 Ta0 2.073649 1_565
O3 S3 1.470482 1_555
O4 Si0 1.691744 1_555
O4 Ta0 1.846895 1_555
O5 S4 1.473916 1_655
O6 S5 1.509407 1_555
O6 Ta1 2.113691 1_445
O7 S6 1.491150 1_555
O8 S7 1.493226 1_555
O9 Si1 1.716327 1_555
O9 Ta1 1.830288 1_555
O10 S8 1.488876 1_555
O11 S9 1.550250 1_545
O11 Ta1 1.988183 1_545
O12 S8 1.473358 1_565
O12 Ta2 2.190713 1_555
O13 S9 1.466683 1_555
O14 S5 1.469180 1_555
O15 S6 1.490740 1_555
O15 Ta2 2.093691 1_545
O16 Si1 1.598988 1_455
O17 S7 1.504051 1_555
O17 Ta2 2.046684 1_555
O18 S2 1.479909 1_555
O19 S3 1.526012 1_555
O19 Ta3 2.022958 1_565
O20 S4 1.541808 1_555
O20 Ta3 1.996171 1_455
O21 Si0 1.605644 1_555
O22 S0 1.515538 1_565
O22 Ta3 2.063154 1_465
O23 S1 1.482957 1_565
O24 S10 1.476395 1_555
O25 S11 1.464896 1_555
O26 S12 1.471573 1_555
O27 Si2 1.611985 1_555
O28 Si3 1.599993 1_555
O29 S13 1.470144 1_555
O30 S14 1.473612 1_555
O31 S15 1.467596 1_555
O32 S16 1.479312 1_555
O33 Si4 1.594835 1_555
O34 S17 1.473887 1_555
O35 S18 1.473926 1_555
O36 S17 1.472315 1_555
O37 S18 1.470374 1_555
O38 S14 1.488123 1_555
O39 S15 1.460958 1_555
O40 S16 1.485460 1_555
O41 Si4 1.596549 1_555
O42 S12 1.469458 1_555
O43 Si2 1.608384 1_555
O44 Si3 1.600816 1_555
O45 S13 1.474889 1_555
O46 S10 1.467163 1_555
O47 S11 1.471696 1_555
O48 S19 1.503498 1_555
O49 Si5 1.650895 1_555
O49 Ta4 1.859750 1_556
O50 S20 1.494514 1_555
O51 Si6 1.665465 1_555
O51 Ta4 1.910284 1_556
O52 S21 1.486256 1_555
O53 S22 1.509136 1_555
O53 Ta4 2.070931 1_556
O54 Si7 1.634214 1_555
O54 Ta5 1.879171 1_555
O55 S23 1.480841 1_555
O56 S24 1.491550 1_555
O56 Ta5 2.102233 1_555
O57 S25 1.471681 1_555
O58 Si8 1.658307 1_555
O58 Ta5 1.918587 1_555
O59 S26 1.463753 1_555
O60 Si8 1.622022 1_555
O61 S26 1.478968 1_555
O62 Si7 1.599031 1_555
O63 S23 1.496880 1_555
O64 S24 1.480817 1_555
O65 S25 1.477691 1_555
O66 S20 1.471725 1_555
O67 Si6 1.605520 1_555
O68 S21 1.466497 1_555
O69 S22 1.469373 1_555
O70 S19 1.479976 1_555
O71 Si5 1.588156 1_555
O72 Si8 1.636565 1_555
O73 S26 1.499153 1_555
O73 Ta0 2.065585 1_565
O74 Si7 1.665693 1_555
O74 Ta0 1.841301 1_565
O75 S23 1.496192 1_555
O76 S24 1.487924 1_555
O77 S25 1.520754 1_555
O77 Ta0 1.991491 1_555
O78 S20 1.485343 1_555
O78 Ta1 2.125288 1_445
O79 Si6 1.633084 1_555
O80 S21 1.495343 1_555
O80 Ta1 2.061437 1_455
O81 S22 1.480554 1_555
O82 S19 1.477494 1_555
O83 Si5 1.659080 1_555
O83 Ta1 1.856449 1_555
O84 S10 1.504834 1_555
O84 Ta2 1.984565 1_545
O85 S11 1.499901 1_555
O86 S12 1.478119 1_555
O87 Si2 1.700427 1_555
O87 Ta2 1.817746 1_545
O88 Si3 1.658259 1_555
O88 Ta2 1.843329 1_555
O89 S13 1.504959 1_555
O90 S14 1.495289 1_555
O91 S15 1.526710 1_555
O91 Ta3 1.981896 1_565
O92 S16 1.486961 1_555
O93 Si4 1.689695 1_555
O93 Ta3 1.834567 1_555
O94 S17 1.523621 1_555
O94 Ta3 2.006033 1_455
O95 S18 1.483490 1_555
O96 S8 1.501989 1_555
O97 S9 1.461627 1_545
O98 S5 1.487820 1_555
O99 S6 1.466277 1_555
O100 S7 1.488180 1_555
O101 Si1 1.619305 1_555
O102 S2 1.486126 1_555
O103 S3 1.493900 1_555
O104 Si0 1.628288 1_555
O105 S4 1.479598 1_655
O106 S0 1.481570 1_555
O107 S1 1.498047 1_555
O108 S19 1.489585 1_555
O109 Si5 1.606054 1_555
O110 Si6 1.633693 1_555
O111 S20 1.470944 1_655
O112 S21 1.475825 1_545
O113 S22 1.476170 1_545
O114 Si7 1.604151 1_545
O115 S23 1.468580 1_545
O116 S24 1.469886 1_555
O117 S25 1.457066 1_555
O118 S26 1.471360 1_555
O119 Si8 1.627504 1_655
O120 S17 1.476845 1_555
O121 S18 1.497832 1_555
O121 Ta4 2.025407 1_555
O122 S15 1.475934 1_455
O123 S14 1.473233 1_555
O123 Ta4 2.137674 1_555
O124 S16 1.493029 1_565
O125 Si4 1.622831 1_565
O125 Ta4 1.914768 1_555
O126 S12 1.501352 1_565
O126 Ta5 2.001780 1_555
O127 Si2 1.602721 1_565
O128 Si3 1.628341 1_555
O128 Ta5 1.901722 1_555
O129 S13 1.476418 1_555
O130 S11 1.488107 1_455
O130 Ta5 2.070622 1_555
O131 S10 1.459894 1_555
O132 S0 1.464444 1_565
O133 S1 1.463035 1_565
O134 S2 1.463351 1_555
O135 S3 1.452306 1_555
O136 S4 1.464165 1_555
O137 Si0 1.592680 1_555
O138 S5 1.471021 1_555
O139 S6 1.471132 1_555
O140 Si1 1.596757 1_455
O141 S7 1.467165 1_555
O142 S8 1.471693 1_565
O143 S9 1.464406 1_555
