# generated using pymatgen
data_Na4Mg3SnP2(SO6)4
_symmetry_space_group_name_H-M   'P 1'
_cell_length_a   8.82202592
_cell_length_b   8.78837732
_cell_length_c   22.51625076
_cell_angle_alpha   90.42353606
_cell_angle_beta   90.06002458
_cell_angle_gamma   120.00955383
_symmetry_Int_Tables_number   1
_chemical_formula_structural   Na4Mg3SnP2(SO6)4
_chemical_formula_sum   'Na12 Mg9 Sn3 P6 S12 O72'
_cell_volume   1511.62313244
_cell_formula_units_Z   3
loop_
 _symmetry_equiv_pos_site_id
 _symmetry_equiv_pos_as_xyz
  1  'x, y, z'
loop_
 _atom_site_type_symbol
 _atom_site_label
 _atom_site_symmetry_multiplicity
 _atom_site_fract_x
 _atom_site_fract_y
 _atom_site_fract_z
 _atom_site_occupancy
  Na  Na0  1  0.63376651  0.99754960  0.25439453  1
  Na  Na1  1  0.36369863  0.36354276  0.25076767  1
  Na  Na2  1  0.30727771  0.33864649  0.59105113  1
  Na  Na3  1  0.66719395  0.95867854  0.58314543  1
  Na  Na4  1  0.97492131  0.67573549  0.91261910  1
  Na  Na5  1  0.32574182  0.29855403  0.90967237  1
  Na  Na6  1  0.98612391  0.98098466  0.49689830  1
  Na  Na7  1  0.99052336  0.00101486  0.99665402  1
  Na  Na8  1  0.65910708  0.32369125  0.82552004  1
  Na  Na9  1  0.67707954  0.33686859  0.33611531  1
  Na  Na10  1  0.32283982  0.66623310  0.16196260  1
  Na  Na11  1  0.32977739  0.66076992  0.66962438  1
  Mg  Mg0  1  0.99227954  0.99610192  0.35478737  1
  Mg  Mg1  1  0.99945376  0.00595358  0.84952879  1
  Mg  Mg2  1  0.99903520  0.99267820  0.65466552  1
  Mg  Mg3  1  0.99992140  0.99751859  0.14729888  1
  Mg  Mg4  1  0.66004680  0.34187857  0.68872445  1
  Mg  Mg5  1  0.67447974  0.34002385  0.18189434  1
  Mg  Mg6  1  0.33592828  0.66846170  0.01586001  1
  Mg  Mg7  1  0.34043499  0.67242546  0.51442053  1
  Mg  Mg8  1  0.33174679  0.67489239  0.32196496  1
  Sn  Sn0  1  0.66668262  0.32768759  0.98205383  1
  Sn  Sn1  1  0.66978639  0.33677567  0.48169055  1
  Sn  Sn2  1  0.33481194  0.66136788  0.81600208  1
  P  P0  1  0.29403327  0.29228743  0.75019105  1
  P  P1  1  0.66859305  0.62794141  0.58405394  1
  P  P2  1  0.62992312  0.67261575  0.91982757  1
  P  P3  1  0.04172487  0.37262536  0.91903813  1
  P  P4  1  0.33155878  0.95496242  0.91812660  1
  P  P5  1  0.63133549  0.96375762  0.41727544  1
  S  S0  1  0.28901496  0.99780849  0.24966073  1
  S  S1  1  0.70926289  0.70674571  0.24971619  1
  S  S2  1  0.00129791  0.29298425  0.24990638  1
  S  S3  1  0.00117838  0.70593463  0.75117949  1
  S  S4  1  0.70619086  0.00175718  0.74919980  1
  S  S5  1  0.96169890  0.33621634  0.58496058  1
  S  S6  1  0.37207387  0.03837241  0.58423836  1
  S  S7  1  0.96317919  0.62904065  0.08458625  1
  S  S8  1  0.66627585  0.03635160  0.08616321  1
  S  S9  1  0.37035504  0.33340241  0.08548558  1
  S  S10  1  0.33086340  0.37097137  0.41611945  1
  S  S11  1  0.04250056  0.66848905  0.41704901  1
  O  O0  1  0.21057881  0.02960256  0.30241687  1
  O  O1  1  0.81425373  0.78677773  0.30291350  1
  O  O2  1  0.97064698  0.18223675  0.30229189  1
  O  O3  1  0.20855534  0.19153843  0.80692896  1
  O  O4  1  0.97898107  0.78427525  0.80621656  1
  O  O5  1  0.80890696  0.01948066  0.80212130  1
  O  O6  1  0.77916101  0.97114774  0.69406007  1
  O  O7  1  0.18701834  0.21419633  0.69264046  1
  O  O8  1  0.02652067  0.81214806  0.69853287  1
  O  O9  1  0.78759605  0.81680203  0.19687422  1
  O  O10  1  0.03164779  0.21274362  0.19637873  1
  O  O11  1  0.18513560  0.97489858  0.19589202  1
  O  O12  1  0.87479311  0.35969099  0.63619584  1
  O  O13  1  0.49025456  0.12230059  0.63488728  1
  O  O14  1  0.63356353  0.50286328  0.63476018  1
  O  O15  1  0.87357512  0.51596533  0.13499859  1
  O  O16  1  0.64311114  0.12243112  0.13919232  1
  O  O17  1  0.48053033  0.35633594  0.13801794  1
  O  O18  1  0.44998837  0.30270313  0.02958471  1
  O  O19  1  0.85509131  0.55202260  0.02761690  1
  O  O20  1  0.69848833  0.14879788  0.03148951  1
  O  O21  1  0.44744727  0.15143442  0.52891862  1
  O  O22  1  0.70199688  0.54990002  0.52470702  1
  O  O23  1  0.84825644  0.29503630  0.52925931  1
  O  O24  1  0.54493161  0.69546921  0.97427009  1
  O  O25  1  0.15570526  0.45748703  0.97312247  1
  O  O26  1  0.30224559  0.84351755  0.97209202  1
  O  O27  1  0.54558835  0.86114485  0.47355792  1
  O  O28  1  0.30990781  0.45242694  0.47025950  1
  O  O29  1  0.14219473  0.68567341  0.47088325  1
  O  O30  1  0.11717588  0.63627809  0.36325518  1
  O  O31  1  0.52328149  0.88807824  0.35968990  1
  O  O32  1  0.35770433  0.47681532  0.36202569  1
  O  O33  1  0.11330065  0.49388563  0.86294074  1
  O  O34  1  0.37003372  0.88013230  0.86068934  1
  O  O35  1  0.51006593  0.62210105  0.86311879  1
  O  O36  1  0.02263158  0.82435748  0.41102440  1
  O  O37  1  0.81479156  0.98745858  0.41181758  1
  O  O38  1  0.17882659  0.19367685  0.40979657  1
  O  O39  1  0.02115083  0.19182876  0.91016208  1
  O  O40  1  0.17215026  0.98008013  0.91040748  1
  O  O41  1  0.81489978  0.82395017  0.91031485  1
  O  O42  1  0.98042781  0.17664227  0.58900005  1
  O  O43  1  0.19982853  0.02618231  0.59007803  1
  O  O44  1  0.82814249  0.81450952  0.58942664  1
  O  O45  1  0.97725890  0.80283590  0.08988246  1
  O  O46  1  0.82475099  0.02119760  0.09066173  1
  O  O47  1  0.19696242  0.17418593  0.08983213  1
  O  O48  1  0.68716112  0.15854311  0.74330861  1
  O  O49  1  0.47796704  0.31541928  0.74614892  1
  O  O50  1  0.84879505  0.52749879  0.74484125  1
  O  O51  1  0.68206914  0.52506230  0.24272614  1
  O  O52  1  0.84096181  0.30893503  0.24278340  1
  O  O53  1  0.47058536  0.15925215  0.24395483  1
  O  O54  1  0.64412122  0.49693913  0.92417619  1
  O  O55  1  0.85741765  0.36237512  0.92371644  1
  O  O56  1  0.49656094  0.14695515  0.92284239  1
  O  O57  1  0.64617974  0.15418539  0.42176013  1
  O  O58  1  0.49615319  0.35726366  0.42025546  1
  O  O59  1  0.86011856  0.50494718  0.42026745  1
  O  O60  1  0.35770103  0.49302085  0.07929030  1
  O  O61  1  0.13531538  0.64264197  0.07833981  1
  O  O62  1  0.50691414  0.86466520  0.07889818  1
  O  O63  1  0.35549319  0.86412904  0.57549217  1
  O  O64  1  0.49989789  0.64255075  0.57648818  1
  O  O65  1  0.13624433  0.49152222  0.57621810  1
  O  O66  1  0.31511211  0.84293356  0.25499998  1
  O  O67  1  0.52799570  0.68533704  0.25525099  1
  O  O68  1  0.16109698  0.46995486  0.25711497  1
  O  O69  1  0.31021223  0.48327665  0.75331589  1
  O  O70  1  0.16704509  0.69311188  0.75480686  1
  O  O71  1  0.52450645  0.83863652  0.75370485  1
loop_
_geom_bond_atom_site_label_1
_geom_bond_atom_site_label_2
_geom_bond_distance
_geom_bond_site_symmetry_2
Na0 O67 2.416507 1_555
Na0 O52 2.430295 1_565
Na0 O66 2.434884 1_555
Na0 O53 2.489543 1_565
Na0 O31 2.568492 1_555
Na0 O2 2.787894 1_565
Na0 O16 2.809231 1_565
Na0 O9 2.858660 1_555
Na1 O68 2.400044 1_555
Na1 O53 2.413667 1_555
Na1 O51 2.439920 1_555
Na1 O67 2.450333 1_555
Na1 O32 2.699156 1_555
Na1 O17 2.753134 1_555
Na1 O0 2.806847 1_555
Na1 O10 2.814676 1_555
Na2 O64 2.367006 1_555
Na2 O43 2.415599 1_555
Na2 O65 2.495324 1_555
Na2 O42 2.497169 1_455
Na2 O7 2.536812 1_555
Na2 O14 2.674844 1_555
Na2 O21 2.863215 1_555
Na2 O28 2.900816 1_555
Na3 O44 2.333063 1_555
Na3 O64 2.410643 1_555
Na3 O63 2.448065 1_555
Na3 O42 2.454277 1_565
Na3 O27 2.649066 1_555
Na3 O6 2.665921 1_555
Na3 O13 2.843587 1_565
Na3 O23 2.845297 1_565
Na4 O40 2.351782 1_655
Na4 O41 2.352134 1_555
Na4 O55 2.424099 1_555
Na4 O54 2.544422 1_555
Na4 O4 2.578909 1_555
Na4 O33 2.687687 1_655
Na4 O19 2.811026 1_556
Na4 O26 2.830119 1_655
Na5 O39 2.362107 1_555
Na5 O40 2.424280 1_545
Na5 O54 2.475218 1_555
Na5 O56 2.479350 1_555
Na5 O3 2.509055 1_555
Na5 O35 2.692720 1_555
Na5 O25 2.883235 1_555
Na5 O18 2.906031 1_556
Na6 O37 2.457505 1_555
Na6 O36 2.478415 1_655
Na6 O44 2.536721 1_555
Na6 O38 2.667009 1_665
Na6 O42 2.700698 1_565
Na6 O43 2.710040 1_665
Na7 O41 2.477611 1_545
Na7 O39 2.504786 1_655
Na7 O40 2.582355 1_645
Na7 O46 2.628888 1_556
Na7 O47 2.684579 1_656
Na7 O45 2.702640 1_546
Na8 O49 2.372492 1_555
Na8 O48 2.432050 1_555
Na8 O50 2.522853 1_555
Na8 O56 2.664531 1_555
Na8 O54 2.724357 1_555
Na8 O55 2.729607 1_555
Na9 O59 2.438430 1_555
Na9 O57 2.445348 1_555
Na9 O58 2.540960 1_555
Na9 O52 2.630690 1_555
Na9 O51 2.671671 1_555
Na9 O53 2.676009 1_555
Na10 O61 2.443289 1_555
Na10 O60 2.510881 1_555
Na10 O62 2.529449 1_555
Na10 O66 2.619674 1_555
Na10 O68 2.683417 1_555
Na10 O67 2.720088 1_555
Na11 O69 2.406006 1_555
Na11 O70 2.495273 1_555
Na11 O71 2.498416 1_555
Na11 O64 2.630171 1_555
Na11 O65 2.637553 1_555
Na11 O63 2.718323 1_555
Mg0 O37 1.998280 1_555
Mg0 O1 2.071087 1_555
Mg0 O38 2.088786 1_665
Mg0 O36 2.094051 1_655
Mg0 O2 2.109468 1_565
Mg0 O0 2.151455 1_665
Mg1 O3 2.000092 1_655
Mg1 O5 2.043860 1_555
Mg1 O39 2.054914 1_655
Mg1 O4 2.097313 1_545
Mg1 O41 2.124760 1_545
Mg1 O40 2.144435 1_645
Mg2 O8 1.989744 1_655
Mg2 O7 2.003573 1_665
Mg2 O6 2.055268 1_555
Mg2 O44 2.117187 1_555
Mg2 O43 2.197603 1_665
Mg2 O42 2.264332 1_565
Mg3 O11 2.056909 1_655
Mg3 O45 2.064760 1_555
Mg3 O10 2.077535 1_665
Mg3 O9 2.081313 1_555
Mg3 O46 2.092652 1_565
Mg3 O47 2.107440 1_665
Mg4 O14 1.971825 1_555
Mg4 O49 1.985267 1_555
Mg4 O50 2.068420 1_555
Mg4 O13 2.123034 1_555
Mg4 O48 2.139614 1_555
Mg4 O12 2.173314 1_555
Mg5 O15 1.975406 1_555
Mg5 O16 2.025042 1_555
Mg5 O17 2.041588 1_555
Mg5 O51 2.093568 1_555
Mg5 O52 2.124640 1_555
Mg5 O53 2.211721 1_555
Mg6 O24 1.975381 1_554
Mg6 O26 1.976215 1_554
Mg6 O25 1.978205 1_554
Mg6 O62 2.149616 1_555
Mg6 O61 2.184277 1_555
Mg6 O60 2.186820 1_555
Mg7 O27 1.973918 1_555
Mg7 O29 2.057886 1_555
Mg7 O28 2.061447 1_555
Mg7 O64 2.090893 1_555
Mg7 O63 2.118603 1_555
Mg7 O65 2.209506 1_555
Mg8 O31 1.973236 1_555
Mg8 O30 1.982056 1_555
Mg8 O32 2.077958 1_555
Mg8 O66 2.173754 1_555
Mg8 O68 2.210587 1_555
Mg8 O67 2.260717 1_555
O0 S0 1.469063 1_545
O1 S1 1.456334 1_555
O2 S2 1.471760 1_655
O3 P0 1.528251 1_555
O4 S3 1.473365 1_655
O5 S4 1.455712 1_555
O6 S4 1.482617 1_565
O7 P0 1.541960 1_555
O8 S3 1.461043 1_555
O9 S1 1.476090 1_555
O10 S2 1.482754 1_555
O11 S0 1.468197 1_555
O12 S5 1.455256 1_555
O13 S6 1.465419 1_555
O14 P1 1.512225 1_555
O15 S7 1.460697 1_555
O16 S8 1.477000 1_555
O17 S9 1.477345 1_555
O18 S9 1.528735 1_555
O18 Sn0 2.106180 1_554
O19 S7 1.533561 1_555
O19 Sn0 2.095419 1_554
O20 S8 1.520072 1_555
O20 Sn0 2.062976 1_554
O21 S6 1.529735 1_555
O21 Sn1 2.113167 1_555
O22 P1 1.591323 1_555
O22 Sn1 1.991803 1_555
O23 S5 1.527711 1_555
O23 Sn1 2.083432 1_555
O24 P2 1.501381 1_555
O25 P3 1.511345 1_555
O26 P4 1.505823 1_555
O27 P5 1.525773 1_555
O28 S10 1.467182 1_555
O29 S11 1.458708 1_555
O30 S11 1.471182 1_555
O31 P5 1.543606 1_555
O32 S10 1.483867 1_555
O33 P3 1.574257 1_555
O33 Sn2 2.062145 1_555
O34 P4 1.559447 1_555
O34 Sn2 2.044131 1_555
O35 P2 1.569961 1_555
O35 Sn2 2.042220 1_555
O36 S11 1.472562 1_555
O37 P5 1.530185 1_555
O38 S10 1.467274 1_555
O39 P3 1.517982 1_555
O40 P4 1.538574 1_555
O41 P2 1.520424 1_555
O42 S5 1.495301 1_555
O43 S6 1.474990 1_555
O44 P1 1.540260 1_555
O45 S7 1.473105 1_555
O46 S8 1.472668 1_555
O47 S9 1.472654 1_555
O48 S4 1.475946 1_555
O49 P0 1.534039 1_555
O50 S3 1.474542 1_655
O51 S1 1.498274 1_555
O52 S2 1.498116 1_655
O53 S0 1.524850 1_545
O54 P2 1.613875 1_555
O54 Sn0 2.067527 1_555
O55 P3 1.586491 1_655
O55 Sn0 2.036453 1_555
O56 P4 1.586627 1_545
O56 Sn0 2.032920 1_555
O57 P5 1.614425 1_545
O57 Sn1 2.018010 1_555
O58 S10 1.524829 1_555
O58 Sn1 2.137157 1_555
O59 S11 1.532444 1_655
O59 Sn1 2.114055 1_555
O60 S9 1.469434 1_555
O61 S7 1.469458 1_455
O62 S8 1.467613 1_565
O63 S6 1.475307 1_565
O64 P1 1.565652 1_555
O65 S5 1.474813 1_455
O66 S0 1.495282 1_555
O67 S1 1.519208 1_555
O68 S2 1.495073 1_555
O69 P0 1.612832 1_555
O69 Sn2 2.028765 1_555
O70 S3 1.524924 1_555
O70 Sn2 2.140411 1_555
O71 S4 1.529222 1_565
O71 Sn2 2.150474 1_555
