# generated using pymatgen
data_CsMgH3
_symmetry_space_group_name_H-M   'P 1'
_cell_length_a   8.24752906
_cell_length_b   8.24752844
_cell_length_c   8.24752880
_cell_angle_alpha   44.39332444
_cell_angle_beta   44.39332696
_cell_angle_gamma   44.39332498
_symmetry_Int_Tables_number   1
_chemical_formula_structural   CsMgH3
_chemical_formula_sum   'Cs3 Mg3 H9'
_cell_volume   249.58509628
_cell_formula_units_Z   3
loop_
 _symmetry_equiv_pos_site_id
 _symmetry_equiv_pos_as_xyz
  1  'x, y, z'
loop_
 _atom_site_type_symbol
 _atom_site_label
 _atom_site_symmetry_multiplicity
 _atom_site_fract_x
 _atom_site_fract_y
 _atom_site_fract_z
 _atom_site_occupancy
  Cs  Cs0  1  -0.00000000  0.00000000  0.00000000  1
  Cs  Cs1  1  0.78666397  0.78666397  0.78666397  1
  Cs  Cs2  1  0.21333603  0.21333603  0.21333603  1
  Mg  Mg0  1  0.50000000  0.50000000  0.50000000  1
  Mg  Mg1  1  0.62083007  0.62083007  0.62083007  1
  Mg  Mg2  1  0.37916993  0.37916993  0.37916993  1
  H  H0  1  0.50000000  0.00000000  0.50000000  1
  H  H1  1  -0.00000000  0.50000000  0.50000000  1
  H  H2  1  0.50000000  0.50000000  0.00000000  1
  H  H3  1  0.30455852  0.71338890  0.30455852  1
  H  H4  1  0.71338890  0.30455852  0.30455852  1
  H  H5  1  0.30455852  0.30455852  0.71338890  1
  H  H6  1  0.69544148  0.69544148  0.28661110  1
  H  H7  1  0.28661110  0.69544148  0.69544148  1
  H  H8  1  0.69544148  0.28661110  0.69544148  1
loop_
_geom_bond_atom_site_label_1
_geom_bond_atom_site_label_2
_geom_bond_distance
_geom_bond_site_symmetry_2
Cs0 H1 3.115808 1_554
Cs0 H1 3.115808 1_545
Cs0 H2 3.115808 1_455
Cs0 H2 3.115808 1_545
Cs0 H0 3.115808 1_554
Cs0 H0 3.115808 1_455
Cs0 H4 3.201939 1_455
Cs0 H7 3.201939 1_544
Cs0 H5 3.201939 1_554
Cs0 H6 3.201939 1_445
Cs0 H3 3.201939 1_545
Cs0 H8 3.201939 1_454
Cs1 H4 3.145353 1_565
Cs1 H4 3.145353 1_556
Cs1 H5 3.145353 1_565
Cs1 H5 3.145353 1_655
Cs1 H3 3.145353 1_655
Cs1 H3 3.145353 1_556
Cs1 H8 3.174276 1_565
Cs1 H6 3.174276 1_556
Cs1 H7 3.174276 1_655
Cs1 H1 3.220838 1_655
Cs1 H2 3.220838 1_556
Cs1 H0 3.220838 1_565
Cs2 H7 3.145353 1_545
Cs2 H7 3.145353 1_554
Cs2 H6 3.145353 1_545
Cs2 H6 3.145353 1_455
Cs2 H8 3.145353 1_455
Cs2 H8 3.145353 1_554
Cs2 H3 3.174276 1_545
Cs2 H5 3.174276 1_554
Cs2 H4 3.174276 1_455
Cs2 H1 3.220838 1_555
Cs2 H2 3.220838 1_555
Cs2 H0 3.220838 1_555
H0 Mg2 2.068222 1_555
H0 Mg1 2.068222 1_545
H1 Mg2 2.068222 1_555
H1 Mg1 2.068222 1_455
H2 Mg1 2.068222 1_554
H2 Mg2 2.068222 1_555
H3 Mg0 1.974516 1_555
H3 Mg2 2.012086 1_555
H4 Mg0 1.974516 1_555
H4 Mg2 2.012087 1_555
H5 Mg0 1.974516 1_555
H5 Mg2 2.012087 1_555
H6 Mg0 1.974516 1_555
H6 Mg1 2.012087 1_555
H7 Mg0 1.974516 1_555
H7 Mg1 2.012087 1_555
H8 Mg0 1.974516 1_555
H8 Mg1 2.012086 1_555
