# generated using pymatgen
data_MgTeWO6
_symmetry_space_group_name_H-M   'P 1'
_cell_length_a   5.71119707
_cell_length_b   5.71869680
_cell_length_c   8.05027484
_cell_angle_alpha   94.88176860
_cell_angle_beta   135.64535030
_cell_angle_gamma   55.41907983
_symmetry_Int_Tables_number   1
_chemical_formula_structural   MgTeWO6
_chemical_formula_sum   'Mg1 Te1 W1 O6'
_cell_volume   125.66470289
_cell_formula_units_Z   1
loop_
 _symmetry_equiv_pos_site_id
 _symmetry_equiv_pos_as_xyz
  1  'x, y, z'
loop_
 _atom_site_type_symbol
 _atom_site_label
 _atom_site_symmetry_multiplicity
 _atom_site_fract_x
 _atom_site_fract_y
 _atom_site_fract_z
 _atom_site_occupancy
  Mg  Mg0  1  0.04949700  0.41215500  0.23679900  1
  Te  Te0  1  0.01950600  0.99908500  0.49150600  1
  W  W0  1  0.99564900  0.96440800  0.98364000  1
  O  O0  1  0.06913400  0.03984400  0.28457200  1
  O  O1  1  0.76170400  0.02562600  0.65986300  1
  O  O2  1  0.71639500  0.40664300  0.88057600  1
  O  O3  1  0.60490500  0.74963600  0.20982000  1
  O  O4  1  0.41348800  0.05391600  0.77547500  1
  O  O5  1  0.35569400  0.48544700  0.22405800  1
loop_
_geom_bond_atom_site_label_1
_geom_bond_atom_site_label_2
_geom_bond_distance
_geom_bond_site_symmetry_2
Mg0 O3 1.984742 1_455
Mg0 O2 2.023565 1_454
Mg0 O1 2.072381 1_555
Mg0 O5 2.083305 1_555
Mg0 O0 2.121397 1_555
O0 Te0 1.930314 1_545
O0 W0 2.191992 1_444
O1 W0 1.829115 1_545
O1 Te0 2.567640 1_645
O2 W0 1.874613 1_545
O2 Te0 2.408711 1_555
O3 W0 1.844026 1_454
O4 Te0 1.926190 1_545
O4 W0 2.090714 1_545
O5 Te0 2.030090 1_645
O5 W0 2.072215 1_454
