# generated using pymatgen
data_MgSc2Nb2O8
_symmetry_space_group_name_H-M   'P 1'
_cell_length_a   5.11602362
_cell_length_b   5.17640379
_cell_length_c   5.92581500
_cell_angle_alpha   90.00000000
_cell_angle_beta   90.00000000
_cell_angle_gamma   92.45337236
_symmetry_Int_Tables_number   1
_chemical_formula_structural   MgSc2Nb2O8
_chemical_formula_sum   'Mg1 Sc2 Nb2 O8'
_cell_volume   156.78716767
_cell_formula_units_Z   1
loop_
 _symmetry_equiv_pos_site_id
 _symmetry_equiv_pos_as_xyz
  1  'x, y, z'
loop_
 _atom_site_type_symbol
 _atom_site_label
 _atom_site_symmetry_multiplicity
 _atom_site_fract_x
 _atom_site_fract_y
 _atom_site_fract_z
 _atom_site_occupancy
  Mg  Mg0  1  0.50000000  0.75000000  0.10499400  1
  Sc  Sc0  1  0.50000000  0.75000000  0.63421000  1
  Sc  Sc1  1  0.50000000  0.25000000  0.36309500  1
  Nb  Nb0  1  0.00000000  0.25000000  0.85003300  1
  Nb  Nb1  1  0.00000000  0.75000000  0.13966200  1
  O  O0  1  0.75601400  0.59286200  0.88427800  1
  O  O1  1  0.24398600  0.90713800  0.88427800  1
  O  O2  1  0.76175200  0.07425700  0.12733600  1
  O  O3  1  0.28309300  0.90138300  0.35855800  1
  O  O4  1  0.73666200  0.09614100  0.63591500  1
  O  O5  1  0.23824800  0.42574300  0.12733600  1
  O  O6  1  0.26333800  0.40385900  0.63591500  1
  O  O7  1  0.71690700  0.59861700  0.35855800  1
loop_
_geom_bond_atom_site_label_1
_geom_bond_atom_site_label_2
_geom_bond_distance
_geom_bond_site_symmetry_2
Mg0 O3 2.043935 1_555
Mg0 O7 2.043935 1_555
Mg0 O0 2.044263 1_554
Mg0 O1 2.044263 1_554
Mg0 O2 2.106104 1_565
Mg0 O5 2.106104 1_555
Nb0 O6 1.991840 1_555
Nb0 O4 1.991840 1_455
Nb0 O5 2.217789 1_556
Nb0 O2 2.217789 1_456
Nb0 O1 2.222348 1_545
Nb0 O0 2.222348 1_455
Nb1 O3 2.072936 1_555
Nb1 O7 2.072936 1_455
Nb1 O1 2.103108 1_554
Nb1 O0 2.103108 1_454
Nb1 O2 2.117422 1_465
Nb1 O5 2.117422 1_555
O0 Sc0 2.159688 1_555
O1 Sc0 2.159688 1_555
O2 Sc1 2.162623 1_555
O3 Sc1 2.077795 1_565
O3 Sc0 2.141995 1_555
O4 Sc0 2.119141 1_545
O4 Sc1 2.190088 1_555
O5 Sc1 2.162623 1_555
O6 Sc0 2.119141 1_555
O6 Sc1 2.190088 1_555
O7 Sc1 2.077795 1_555
O7 Sc0 2.141995 1_555
