# generated using pymatgen
data_MgCu2(IrS2)4
_symmetry_space_group_name_H-M   'P 1'
_cell_length_a   7.21631050
_cell_length_b   7.06077300
_cell_length_c   7.06293368
_cell_angle_alpha   119.98988550
_cell_angle_beta   119.26738226
_cell_angle_gamma   90.00000000
_symmetry_Int_Tables_number   1
_chemical_formula_structural   MgCu2(IrS2)4
_chemical_formula_sum   'Mg1 Cu2 Ir4 S8'
_cell_volume   257.29063555
_cell_formula_units_Z   1
loop_
 _symmetry_equiv_pos_site_id
 _symmetry_equiv_pos_as_xyz
  1  'x, y, z'
loop_
 _atom_site_type_symbol
 _atom_site_label
 _atom_site_symmetry_multiplicity
 _atom_site_fract_x
 _atom_site_fract_y
 _atom_site_fract_z
 _atom_site_occupancy
  Mg  Mg0  1  0.37500000  0.12500000  0.25000000  1
  Cu  Cu0  1  0.79477900  0.26502300  0.53004500  1
  Cu  Cu1  1  0.95522100  0.98497700  0.96995500  1
  Ir  Ir0  1  0.87500000  0.62500000  0.25000000  1
  Ir  Ir1  1  0.37500000  0.62500000  0.25000000  1
  Ir  Ir2  1  0.37500000  0.62500000  0.75000000  1
  Ir  Ir3  1  0.37500000  0.12500000  0.75000000  1
  S  S0  1  0.13718000  0.86167800  0.72335700  1
  S  S1  1  0.57948500  0.85973200  0.71946500  1
  S  S2  1  0.17051500  0.39026800  0.78053500  1
  S  S3  1  0.61282000  0.38832200  0.77664300  1
  S  S4  1  0.13744600  0.41397300  0.27586300  1
  S  S5  1  0.13744600  0.86189000  0.27586300  1
  S  S6  1  0.61255400  0.38811000  0.22413700  1
  S  S7  1  0.61255400  0.83602700  0.22413700  1
loop_
_geom_bond_atom_site_label_1
_geom_bond_atom_site_label_2
_geom_bond_distance
_geom_bond_site_symmetry_2
Mg0 S7 2.658716 1_545
Mg0 S4 2.658716 1_555
Mg0 S6 2.658716 1_555
Mg0 S5 2.658716 1_545
Mg0 S3 2.661301 1_555
Mg0 S0 2.661301 1_544
Cu0 S2 2.238178 1_655
Cu0 S3 2.497184 1_555
Cu0 S6 2.500381 1_555
Cu0 S7 2.500386 1_545
Cu0 Mg0 2.500534 1_555
Cu1 S1 2.238178 1_555
Cu1 S0 2.497184 1_655
Cu1 S5 2.500381 1_656
Cu1 S4 2.500386 1_666
Cu1 Mg0 2.500534 1_666
Ir0 S5 2.402949 1_655
Ir0 S6 2.402949 1_555
Ir0 S4 2.402949 1_655
Ir0 S7 2.402949 1_555
Ir0 S0 2.404089 1_655
Ir0 S3 2.404089 1_554
Ir1 S1 2.375064 1_555
Ir1 S2 2.375064 1_554
Ir1 S6 2.402183 1_555
Ir1 S5 2.402183 1_555
Ir1 S7 2.402183 1_555
Ir1 S4 2.402183 1_555
Ir2 S1 2.374749 1_555
Ir2 S2 2.374749 1_555
Ir2 S7 2.402487 1_556
Ir2 S4 2.402487 1_555
Ir2 S0 2.402493 1_555
Ir2 S3 2.402493 1_555
Ir3 S2 2.374754 1_555
Ir3 S1 2.374754 1_545
Ir3 S6 2.402487 1_556
Ir3 S5 2.402487 1_545
Ir3 S0 2.402498 1_545
Ir3 S3 2.402498 1_555
