# generated using pymatgen
data_NaCaIn3(SO4)6
_symmetry_space_group_name_H-M   'P 1'
_cell_length_a   8.95252303
_cell_length_b   8.95252274
_cell_length_c   23.55143171
_cell_angle_alpha   90.00000000
_cell_angle_beta   90.00000000
_cell_angle_gamma   120.00000112
_symmetry_Int_Tables_number   1
_chemical_formula_structural   NaCaIn3(SO4)6
_chemical_formula_sum   'Na3 Ca3 In9 S18 O72'
_cell_volume   1634.70284963
_cell_formula_units_Z   3
loop_
 _symmetry_equiv_pos_site_id
 _symmetry_equiv_pos_as_xyz
  1  'x, y, z'
loop_
 _atom_site_type_symbol
 _atom_site_label
 _atom_site_symmetry_multiplicity
 _atom_site_fract_x
 _atom_site_fract_y
 _atom_site_fract_z
 _atom_site_occupancy
  Na  Na0  1  0.00000000  -0.00000000  0.99828134  1
  Na  Na1  1  0.66666700  0.33333300  0.83516949  1
  Na  Na2  1  0.66666700  0.33333300  0.33319890  1
  Ca  Ca0  1  0.00000000  -0.00000000  0.35542659  1
  Ca  Ca1  1  0.00000000  -0.00000000  0.85116039  1
  Ca  Ca2  1  0.66666700  0.33333300  0.98199453  1
  In  In0  1  0.00000000  -0.00000000  0.64882305  1
  In  In1  1  0.00000000  -0.00000000  0.15339157  1
  In  In2  1  0.66666700  0.33333300  0.68178693  1
  In  In3  1  0.66666700  0.33333300  0.18025307  1
  In  In4  1  0.66666700  0.33333300  0.48368595  1
  In  In5  1  0.33333300  0.66666700  0.02058670  1
  In  In6  1  0.33333300  0.66666700  0.52027534  1
  In  In7  1  0.33333300  0.66666700  0.31390512  1
  In  In8  1  0.33333300  0.66666700  0.81250334  1
  S  S0  1  0.30045881  0.00177343  0.24971532  1
  S  S1  1  0.70131462  0.69954119  0.24971532  1
  S  S2  1  0.99822657  0.29868538  0.24971532  1
  S  S3  1  0.29957083  0.29805097  0.74867559  1
  S  S4  1  0.99848014  0.70042917  0.74867559  1
  S  S5  1  0.70194903  0.00151986  0.74867559  1
  S  S6  1  0.96022449  0.33245029  0.58333997  1
  S  S7  1  0.37222680  0.03977551  0.58333997  1
  S  S8  1  0.66754971  0.62777320  0.58333997  1
  S  S9  1  0.96594899  0.63484307  0.08415971  1
  S  S10  1  0.66889507  0.03405101  0.08415971  1
  S  S11  1  0.36515693  0.33110493  0.08415971  1
  S  S12  1  0.62034871  0.66664543  0.91663753  1
  S  S13  1  0.04629572  0.37965129  0.91663753  1
  S  S14  1  0.33335457  0.95370428  0.91663753  1
  S  S15  1  0.61795439  0.95946799  0.41791617  1
  S  S16  1  0.34151260  0.38204561  0.41791617  1
  S  S17  1  0.04053201  0.65848740  0.41791617  1
  O  O0  1  0.22390286  0.03195438  0.29991344  1
  O  O1  1  0.80805152  0.77609714  0.29991344  1
  O  O2  1  0.96804562  0.19194848  0.29991344  1
  O  O3  1  0.22501431  0.19264367  0.79943173  1
  O  O4  1  0.96762936  0.77498569  0.79943173  1
  O  O5  1  0.80735633  0.03237064  0.79943173  1
  O  O6  1  0.78189766  0.97597065  0.69684931  1
  O  O7  1  0.19407299  0.21810234  0.69684931  1
  O  O8  1  0.02402935  0.80592701  0.69684931  1
  O  O9  1  0.77871195  0.80377018  0.19740313  1
  O  O10  1  0.02505823  0.22128805  0.19740313  1
  O  O11  1  0.19622982  0.97494177  0.19740313  1
  O  O12  1  0.88321674  0.36462735  0.63431064  1
  O  O13  1  0.48141161  0.11678326  0.63431064  1
  O  O14  1  0.63537265  0.51858839  0.63431064  1
  O  O15  1  0.88731625  0.52934089  0.13606822  1
  O  O16  1  0.64202564  0.11268375  0.13606822  1
  O  O17  1  0.47065911  0.35797436  0.13606822  1
  O  O18  1  0.44099261  0.30069758  0.03366838  1
  O  O19  1  0.85970597  0.55900739  0.03366838  1
  O  O20  1  0.69930242  0.14029403  0.03366838  1
  O  O21  1  0.44980322  0.14852868  0.53221748  1
  O  O22  1  0.69872646  0.55019678  0.53221748  1
  O  O23  1  0.85147132  0.30127354  0.53221748  1
  O  O24  1  0.53729710  0.68573333  0.96876746  1
  O  O25  1  0.14843523  0.46270290  0.96876746  1
  O  O26  1  0.31426667  0.85156477  0.96876746  1
  O  O27  1  0.53580531  0.85623516  0.46940256  1
  O  O28  1  0.32042884  0.46419469  0.46940256  1
  O  O29  1  0.14376484  0.67957116  0.46940256  1
  O  O30  1  0.11767929  0.62826233  0.36605913  1
  O  O31  1  0.51058204  0.88232071  0.36605913  1
  O  O32  1  0.37173767  0.48941796  0.36605913  1
  O  O33  1  0.12954115  0.48184779  0.86453784  1
  O  O34  1  0.35230564  0.87045885  0.86453784  1
  O  O35  1  0.51815221  0.64769436  0.86453784  1
  O  O36  1  0.02188922  0.80924205  0.41183496  1
  O  O37  1  0.78735283  0.97811078  0.41183496  1
  O  O38  1  0.19075795  0.21264717  0.41183496  1
  O  O39  1  0.03125370  0.20797943  0.91380442  1
  O  O40  1  0.17672573  0.96874630  0.91380442  1
  O  O41  1  0.79202057  0.82327427  0.91380442  1
  O  O42  1  0.97745353  0.17780792  0.59171805  1
  O  O43  1  0.20035439  0.02254647  0.59171805  1
  O  O44  1  0.82219208  0.79964561  0.59171805  1
  O  O45  1  0.98525584  0.81064441  0.09168763  1
  O  O46  1  0.82538858  0.01474416  0.09168763  1
  O  O47  1  0.18935559  0.17461143  0.09168763  1
  O  O48  1  0.68225680  0.15817820  0.74151121  1
  O  O49  1  0.47592240  0.31774320  0.74151121  1
  O  O50  1  0.84182180  0.52407760  0.74151121  1
  O  O51  1  0.68133968  0.52316740  0.24204119  1
  O  O52  1  0.84182872  0.31866032  0.24204119  1
  O  O53  1  0.47683260  0.15817128  0.24204119  1
  O  O54  1  0.63545530  0.51027374  0.91947338  1
  O  O55  1  0.87481944  0.36454470  0.91947338  1
  O  O56  1  0.48972626  0.12518056  0.91947338  1
  O  O57  1  0.63272795  0.13491428  0.42322220  1
  O  O58  1  0.50218733  0.36727205  0.42322220  1
  O  O59  1  0.86508572  0.49781267  0.42322220  1
  O  O60  1  0.34770794  0.48629449  0.07778613  1
  O  O61  1  0.13858556  0.65229206  0.07778613  1
  O  O62  1  0.51370551  0.86141444  0.07778613  1
  O  O63  1  0.35492781  0.86772925  0.57534513  1
  O  O64  1  0.51280044  0.64507219  0.57534513  1
  O  O65  1  0.13227075  0.48719956  0.57534513  1
  O  O66  1  0.31816267  0.84632275  0.25622851  1
  O  O67  1  0.52815907  0.68183733  0.25622851  1
  O  O68  1  0.15367726  0.47184093  0.25622851  1
  O  O69  1  0.31775348  0.47089068  0.75501482  1
  O  O70  1  0.15313620  0.68224652  0.75501482  1
  O  O71  1  0.52910932  0.84686380  0.75501482  1
loop_
_geom_bond_atom_site_label_1
_geom_bond_atom_site_label_2
_geom_bond_distance
_geom_bond_site_symmetry_2
Na0 O39 2.642434 1_555
Na0 O41 2.642434 1_445
Na0 O40 2.642434 1_545
Na0 O46 2.739844 1_456
Na0 O45 2.739844 1_446
Na0 O47 2.739844 1_556
Na1 O56 2.640471 1_555
Na1 O54 2.640471 1_555
Na1 O55 2.640471 1_555
Na1 O50 2.750035 1_555
Na1 O48 2.750035 1_555
Na1 O49 2.750035 1_555
Na2 O57 2.683870 1_555
Na2 O59 2.683870 1_555
Na2 O58 2.683870 1_555
Na2 O51 2.700270 1_555
Na2 O53 2.700270 1_555
Na2 O52 2.700270 1_555
Ca0 O38 2.248206 1_555
Ca0 O36 2.248206 1_545
Ca0 O37 2.248206 1_445
Ca0 O1 2.288174 1_445
Ca0 O2 2.288174 1_455
Ca0 O0 2.288174 1_555
Ca1 O4 2.245530 1_445
Ca1 O3 2.245530 1_555
Ca1 O5 2.245530 1_455
Ca1 O39 2.280530 1_555
Ca1 O41 2.280530 1_445
Ca1 O40 2.280530 1_545
Ca2 O19 2.248996 1_556
Ca2 O20 2.248996 1_556
Ca2 O18 2.248996 1_556
Ca2 O56 2.279937 1_555
Ca2 O54 2.279937 1_555
Ca2 O55 2.279937 1_555
In0 O44 2.169041 1_445
In0 O42 2.169041 1_455
In0 O43 2.169041 1_555
In0 O7 2.172121 1_555
In0 O8 2.172121 1_545
In0 O6 2.172121 1_445
In1 O10 2.145928 1_555
In1 O9 2.145928 1_445
In1 O11 2.145928 1_545
In1 O46 2.186146 1_455
In1 O45 2.186146 1_445
In1 O47 2.186146 1_555
In2 O13 2.131666 1_555
In2 O14 2.131666 1_555
In2 O12 2.131666 1_555
In2 O50 2.162337 1_555
In2 O48 2.162337 1_555
In2 O49 2.162337 1_555
In3 O16 2.144261 1_555
In3 O15 2.144261 1_555
In3 O17 2.144261 1_555
In3 O51 2.190869 1_555
In3 O53 2.190869 1_555
In3 O52 2.190869 1_555
In4 O22 2.144972 1_555
In4 O21 2.144972 1_555
In4 O23 2.144972 1_555
In4 O57 2.176190 1_555
In4 O59 2.176190 1_555
In4 O58 2.176190 1_555
In5 O25 2.130991 1_554
In5 O26 2.130991 1_554
In5 O24 2.130991 1_554
In5 O62 2.155614 1_555
In5 O61 2.155614 1_555
In5 O60 2.155614 1_555
In6 O28 2.127230 1_555
In6 O27 2.127230 1_555
In6 O29 2.127230 1_555
In6 O63 2.147457 1_555
In6 O65 2.147457 1_555
In6 O64 2.147457 1_555
In7 O68 2.160765 1_555
In7 O67 2.160765 1_555
In7 O66 2.160765 1_555
In7 O31 2.165764 1_555
In7 O32 2.165764 1_555
In7 O30 2.165764 1_555
In8 O34 2.132933 1_555
In8 O33 2.132933 1_555
In8 O35 2.132933 1_555
In8 O69 2.163347 1_555
In8 O71 2.163347 1_555
In8 O70 2.163347 1_555
O0 S0 1.457946 1_555
O1 S1 1.457946 1_555
O2 S2 1.457946 1_555
O3 S3 1.461191 1_555
O4 S4 1.461191 1_555
O5 S5 1.461191 1_555
O6 S5 1.489342 1_565
O7 S3 1.489342 1_555
O8 S4 1.489342 1_455
O9 S1 1.490687 1_555
O10 S2 1.490687 1_455
O11 S0 1.490687 1_565
O12 S6 1.482534 1_555
O13 S7 1.482534 1_555
O14 S8 1.482534 1_555
O15 S9 1.489066 1_555
O16 S10 1.489066 1_555
O17 S11 1.489066 1_555
O18 S11 1.460793 1_555
O19 S9 1.460793 1_555
O20 S10 1.460793 1_555
O21 S7 1.484492 1_555
O22 S8 1.484492 1_555
O23 S6 1.484492 1_555
O24 S12 1.488763 1_555
O25 S13 1.488763 1_555
O26 S14 1.488763 1_555
O27 S15 1.478399 1_555
O28 S16 1.478399 1_555
O29 S17 1.478399 1_555
O30 S17 1.492888 1_555
O31 S15 1.492888 1_555
O32 S16 1.492888 1_555
O33 S13 1.488696 1_555
O34 S14 1.488696 1_555
O35 S12 1.488696 1_555
O36 S17 1.447458 1_555
O37 S15 1.447467 1_555
O38 S16 1.447463 1_555
O39 S13 1.475694 1_555
O40 S14 1.475685 1_555
O41 S12 1.475690 1_555
O42 S6 1.480857 1_555
O43 S7 1.480866 1_555
O44 S8 1.480862 1_555
O45 S9 1.505432 1_555
O46 S10 1.505424 1_555
O47 S11 1.505429 1_555
O48 S5 1.507903 1_555
O49 S3 1.507912 1_555
O50 S4 1.507909 1_555
O51 S1 1.508473 1_555
O52 S2 1.508464 1_555
O53 S0 1.508469 1_555
O54 S12 1.473723 1_555
O55 S13 1.473705 1_655
O56 S14 1.473713 1_545
O57 S15 1.514076 1_545
O58 S16 1.514094 1_555
O59 S17 1.514084 1_655
O60 S11 1.481292 1_555
O61 S9 1.481275 1_455
O62 S10 1.481282 1_565
O63 S7 1.480967 1_565
O64 S8 1.480985 1_555
O65 S6 1.480975 1_455
O66 S0 1.485256 1_565
O67 S1 1.485265 1_555
O68 S2 1.485261 1_455
O69 S3 1.480272 1_555
O70 S4 1.480263 1_455
O71 S5 1.480268 1_565
