# generated using pymatgen
data_Na4Mg3ZrSiS5O24
_symmetry_space_group_name_H-M   'P 1'
_cell_length_a   8.87736090
_cell_length_b   8.88751858
_cell_length_c   22.74960000
_cell_angle_alpha   90.01669577
_cell_angle_beta   90.20007369
_cell_angle_gamma   120.10232937
_symmetry_Int_Tables_number   1
_chemical_formula_structural   Na4Mg3ZrSiS5O24
_chemical_formula_sum   'Na12 Mg9 Zr3 Si3 S15 O72'
_cell_volume   1552.80240066
_cell_formula_units_Z   3
loop_
 _symmetry_equiv_pos_site_id
 _symmetry_equiv_pos_as_xyz
  1  'x, y, z'
loop_
 _atom_site_type_symbol
 _atom_site_label
 _atom_site_symmetry_multiplicity
 _atom_site_fract_x
 _atom_site_fract_y
 _atom_site_fract_z
 _atom_site_occupancy
  Na  Na0  1  0.36205486  0.36263006  0.24991850  1
  Na  Na1  1  0.31897131  0.34556177  0.58885971  1
  Na  Na2  1  0.02072313  0.69702509  0.58302380  1
  Na  Na3  1  0.99230924  0.67742240  0.91784963  1
  Na  Na4  1  0.69934133  0.02992975  0.90988978  1
  Na  Na5  1  0.30636314  0.28577601  0.91814434  1
  Na  Na6  1  0.96679249  0.98120315  0.49861853  1
  Na  Na7  1  0.01760843  0.01463256  0.00218555  1
  Na  Na8  1  0.66625337  0.32213952  0.82441682  1
  Na  Na9  1  0.68149285  0.32758941  0.32763394  1
  Na  Na10  1  0.33040160  0.67917624  0.16612755  1
  Na  Na11  1  0.36893975  0.68007102  0.66116831  1
  Mg  Mg0  1  0.99407850  0.99594411  0.34873320  1
  Mg  Mg1  1  0.00622482  0.00785106  0.84877763  1
  Mg  Mg2  1  0.98314136  0.99214887  0.64893308  1
  Mg  Mg3  1  0.99731198  0.99568444  0.15193372  1
  Mg  Mg4  1  0.66074908  0.33709984  0.68358723  1
  Mg  Mg5  1  0.67474666  0.33298463  0.18463544  1
  Mg  Mg6  1  0.31605762  0.65998861  0.01894544  1
  Mg  Mg7  1  0.35275318  0.67600863  0.51488003  1
  Mg  Mg8  1  0.33525638  0.67777667  0.31534869  1
  Zr  Zr0  1  0.66708670  0.32488007  0.98563567  1
  Zr  Zr1  1  0.67022159  0.34438785  0.47981496  1
  Zr  Zr2  1  0.32359577  0.67097514  0.81395552  1
  Si  Si0  1  0.66444230  0.63583820  0.58690923  1
  Si  Si1  1  0.04127407  0.36827672  0.91943121  1
  Si  Si2  1  0.32818852  0.95893541  0.91924684  1
  S  S0  1  0.29230092  0.00031165  0.24981582  1
  S  S1  1  0.70425121  0.70413035  0.24996937  1
  S  S2  1  0.00075329  0.29269341  0.25041789  1
  S  S3  1  0.29730049  0.29138301  0.74866121  1
  S  S4  1  0.99239088  0.70469258  0.74875497  1
  S  S5  1  0.70840613  0.00494712  0.74984271  1
  S  S6  1  0.96022898  0.33298955  0.58484274  1
  S  S7  1  0.37469265  0.03846631  0.58510468  1
  S  S8  1  0.96370922  0.63379935  0.08677046  1
  S  S9  1  0.66742060  0.03008846  0.08705336  1
  S  S10  1  0.36786440  0.33563673  0.08732362  1
  S  S11  1  0.62440642  0.66779967  0.91809066  1
  S  S12  1  0.62975176  0.95811973  0.41478848  1
  S  S13  1  0.32377723  0.36831277  0.41484570  1
  S  S14  1  0.04848012  0.67359249  0.41669771  1
  O  O0  1  0.21074588  0.02922176  0.30207405  1
  O  O1  1  0.80854845  0.78542403  0.30296067  1
  O  O2  1  0.97667863  0.18803069  0.30335512  1
  O  O3  1  0.21059215  0.19547556  0.80273591  1
  O  O4  1  0.98011603  0.78774040  0.80324822  1
  O  O5  1  0.80084443  0.01765620  0.80561828  1
  O  O6  1  0.79730134  0.98735093  0.69878111  1
  O  O7  1  0.19350834  0.20872003  0.69523256  1
  O  O8  1  0.01270829  0.80830420  0.69602340  1
  O  O9  1  0.78543135  0.80794506  0.19711624  1
  O  O10  1  0.02923532  0.21111193  0.19805845  1
  O  O11  1  0.18783908  0.97709297  0.19661579  1
  O  O12  1  0.87442930  0.35402771  0.63642635  1
  O  O13  1  0.48416917  0.11315069  0.63708031  1
  O  O14  1  0.62647806  0.50149545  0.63956352  1
  O  O15  1  0.86585318  0.52015134  0.13554708  1
  O  O16  1  0.64722644  0.12552546  0.13571514  1
  O  O17  1  0.47550538  0.34922845  0.13879232  1
  O  O18  1  0.45555936  0.31640358  0.03212343  1
  O  O19  1  0.86378211  0.55250134  0.02971537  1
  O  O20  1  0.68890564  0.13491389  0.03005552  1
  O  O21  1  0.46174487  0.14758283  0.53175550  1
  O  O22  1  0.69432830  0.53269864  0.52778268  1
  O  O23  1  0.84976761  0.30071144  0.53085307  1
  O  O24  1  0.54959390  0.70026707  0.96997986  1
  O  O25  1  0.17313506  0.44862263  0.97321157  1
  O  O26  1  0.30060989  0.83874782  0.97434717  1
  O  O27  1  0.54869969  0.85967705  0.46858978  1
  O  O28  1  0.30870935  0.45154792  0.46889394  1
  O  O29  1  0.14097228  0.68724533  0.47246132  1
  O  O30  1  0.13418964  0.65087138  0.36566785  1
  O  O31  1  0.52325579  0.87767623  0.36236706  1
  O  O32  1  0.35214098  0.47440953  0.36191988  1
  O  O33  1  0.12768048  0.49817072  0.86109026  1
  O  O34  1  0.38325754  0.88184124  0.86094687  1
  O  O35  1  0.51206620  0.63043220  0.86473537  1
  O  O36  1  0.02141637  0.82344901  0.41111466  1
  O  O37  1  0.80554460  0.97944335  0.40969183  1
  O  O38  1  0.17153003  0.19269558  0.40950367  1
  O  O39  1  0.99628096  0.17101208  0.90819264  1
  O  O40  1  0.15881678  0.97801693  0.90814244  1
  O  O41  1  0.79949385  0.81679541  0.90768125  1
  O  O42  1  0.99469786  0.18708510  0.58983183  1
  O  O43  1  0.20590223  0.03604350  0.59013089  1
  O  O44  1  0.84747275  0.81919317  0.58724862  1
  O  O45  1  0.97794890  0.80615823  0.09040896  1
  O  O46  1  0.82792666  0.02087007  0.09076602  1
  O  O47  1  0.19497627  0.17728330  0.08933885  1
  O  O48  1  0.68609994  0.15851499  0.74503726  1
  O  O49  1  0.47023754  0.30562700  0.74627218  1
  O  O50  1  0.84218964  0.52701773  0.74518723  1
  O  O51  1  0.67946492  0.52404484  0.24446829  1
  O  O52  1  0.84647948  0.31481981  0.24345508  1
  O  O53  1  0.46810094  0.16262005  0.24414535  1
  O  O54  1  0.64152292  0.50903342  0.92460020  1
  O  O55  1  0.85234777  0.36573151  0.92521256  1
  O  O56  1  0.49980366  0.15991446  0.92408234  1
  O  O57  1  0.64872348  0.13662852  0.42055920  1
  O  O58  1  0.48530486  0.34855409  0.42068008  1
  O  O59  1  0.86901642  0.50769524  0.41949567  1
  O  O60  1  0.35851231  0.49534398  0.08207074  1
  O  O61  1  0.13514988  0.64681166  0.08311009  1
  O  O62  1  0.51193280  0.85842707  0.08030228  1
  O  O63  1  0.33684662  0.85822794  0.57594647  1
  O  O64  1  0.48772505  0.64395445  0.57681642  1
  O  O65  1  0.12930955  0.49700120  0.57660626  1
  O  O66  1  0.31458485  0.84671740  0.25620155  1
  O  O67  1  0.52389409  0.67879408  0.25537875  1
  O  O68  1  0.16243930  0.46807768  0.25647911  1
  O  O69  1  0.32016919  0.47155878  0.75257002  1
  O  O70  1  0.15738234  0.69164606  0.75121157  1
  O  O71  1  0.53166433  0.84158520  0.75170184  1
loop_
_geom_bond_atom_site_label_1
_geom_bond_atom_site_label_2
_geom_bond_distance
_geom_bond_site_symmetry_2
Na0 O68 2.389220 1_555
Na0 O53 2.396389 1_555
Na0 O67 2.433972 1_555
Na0 O51 2.441500 1_555
Na0 O17 2.749113 1_555
Na0 O32 2.752218 1_555
Na0 O10 2.813980 1_555
Na0 O0 2.830748 1_555
Na1 O64 2.317413 1_555
Na1 O43 2.409578 1_555
Na1 O42 2.490888 1_455
Na1 O14 2.624007 1_555
Na1 O65 2.644638 1_555
Na1 O7 2.690261 1_555
Na1 O28 2.903412 1_555
Na1 O21 2.938924 1_555
Na2 O44 2.286844 1_455
Na2 O65 2.414661 1_555
Na2 O63 2.433993 1_555
Na2 O43 2.614639 1_565
Na2 O29 2.754140 1_555
Na2 O8 2.768037 1_555
Na2 O22 2.799396 1_455
Na2 O12 2.915008 1_455
Na3 O40 2.326434 1_655
Na3 O55 2.407240 1_555
Na3 O41 2.577193 1_555
Na3 O26 2.690062 1_655
Na3 O54 2.699874 1_555
Na3 O33 2.753096 1_655
Na3 O19 2.786079 1_556
Na3 O4 2.806446 1_555
Na4 O39 2.282029 1_555
Na4 O41 2.463888 1_545
Na4 O5 2.562077 1_555
Na4 O56 2.575468 1_555
Na4 O55 2.608292 1_555
Na4 O34 2.668027 1_545
Na4 O24 2.885877 1_545
Na4 O20 2.905063 1_556
Na5 O40 2.377528 1_545
Na5 O39 2.418298 1_455
Na5 O56 2.478655 1_555
Na5 O25 2.605614 1_555
Na5 O54 2.624139 1_555
Na5 O3 2.749344 1_555
Na5 O18 2.857589 1_556
Na5 O35 2.932667 1_555
Na6 O44 2.397373 1_555
Na6 O37 2.469682 1_555
Na6 O36 2.617395 1_655
Na6 O42 2.693487 1_565
Na6 O38 2.747292 1_665
Na6 O43 2.829878 1_665
Na7 O47 2.488646 1_555
Na7 O40 2.584965 1_544
Na7 O39 2.608189 1_454
Na7 O45 2.633988 1_445
Na7 O46 2.648902 1_455
Na7 O41 2.831366 1_444
Na8 O48 2.380039 1_555
Na8 O49 2.435572 1_555
Na8 O50 2.484466 1_555
Na8 O56 2.700241 1_555
Na8 O55 2.732845 1_555
Na8 O54 2.892873 1_555
Na9 O52 2.451862 1_555
Na9 O53 2.555957 1_555
Na9 O51 2.581021 1_555
Na9 O57 2.635375 1_555
Na9 O59 2.646063 1_555
Na9 O58 2.810642 1_555
Na10 O61 2.476026 1_555
Na10 O62 2.528974 1_555
Na10 O66 2.577958 1_555
Na10 O60 2.607459 1_555
Na10 O67 2.656060 1_555
Na10 O68 2.680608 1_555
Na11 O64 2.291453 1_555
Na11 O71 2.507338 1_555
Na11 O63 2.607196 1_555
Na11 O69 2.673774 1_555
Na11 O65 2.714983 1_555
Na11 O70 2.820358 1_555
Mg0 O1 2.047784 1_555
Mg0 O2 2.066020 1_565
Mg0 O0 2.087492 1_665
Mg0 O37 2.125092 1_555
Mg0 O38 2.161214 1_665
Mg0 O36 2.189797 1_655
Mg1 O39 2.016351 1_455
Mg1 O40 2.019139 1_545
Mg1 O3 2.036874 1_555
Mg1 O5 2.107783 1_455
Mg1 O4 2.120318 1_445
Mg1 O41 2.222525 1_445
Mg2 O44 1.978004 1_555
Mg2 O6 1.987987 1_555
Mg2 O8 2.077378 1_655
Mg2 O42 2.154964 1_565
Mg2 O7 2.163611 1_665
Mg2 O43 2.257709 1_665
Mg3 O11 2.046889 1_655
Mg3 O9 2.060311 1_555
Mg3 O10 2.073552 1_665
Mg3 O45 2.128939 1_555
Mg3 O46 2.137938 1_565
Mg3 O47 2.211274 1_665
Mg4 O14 1.917013 1_555
Mg4 O13 2.096590 1_555
Mg4 O12 2.121335 1_555
Mg4 O49 2.124787 1_555
Mg4 O50 2.159394 1_555
Mg4 O48 2.209405 1_555
Mg5 O15 2.018878 1_555
Mg5 O16 2.059835 1_555
Mg5 O52 2.091316 1_555
Mg5 O17 2.116667 1_555
Mg5 O51 2.159823 1_555
Mg5 O53 2.173252 1_555
Mg6 O26 1.946989 1_554
Mg6 O25 1.954474 1_554
Mg6 O61 2.133423 1_555
Mg6 O60 2.212734 1_555
Mg6 O24 2.222395 1_554
Mg6 O62 2.233341 1_555
Mg7 O64 1.957812 1_555
Mg7 O27 1.991217 1_555
Mg7 O28 2.107245 1_555
Mg7 O29 2.156744 1_555
Mg7 O63 2.191364 1_555
Mg7 O65 2.300618 1_555
Mg8 O31 2.024365 1_555
Mg8 O30 2.034680 1_555
Mg8 O66 2.091524 1_555
Mg8 O67 2.160197 1_555
Mg8 O32 2.164144 1_555
Mg8 O68 2.176417 1_555
O0 S0 1.481887 1_555
O1 S1 1.467396 1_555
O2 S2 1.471159 1_655
O3 S3 1.476981 1_555
O4 S4 1.474650 1_555
O5 S5 1.481844 1_555
O6 S5 1.458321 1_565
O7 S3 1.476059 1_555
O8 S4 1.468040 1_455
O9 S1 1.468368 1_555
O10 S2 1.481211 1_555
O11 S0 1.472206 1_565
O12 S6 1.463283 1_555
O13 S7 1.458650 1_555
O14 Si0 1.604384 1_555
O15 S8 1.460618 1_555
O16 S9 1.459614 1_555
O17 S10 1.474791 1_555
O18 S10 1.533772 1_555
O18 Zr0 2.126572 1_554
O19 S8 1.530430 1_555
O19 Zr0 2.142505 1_554
O20 S9 1.552383 1_555
O20 Zr0 2.058350 1_554
O21 S7 1.505376 1_555
O21 Zr1 2.156421 1_555
O22 Si0 1.722114 1_555
O22 Zr1 1.917197 1_555
O23 S6 1.503885 1_555
O23 Zr1 2.155757 1_555
O24 S11 1.454419 1_555
O25 Si1 1.589996 1_555
O26 Si2 1.585186 1_555
O27 S12 1.468526 1_555
O28 S13 1.475419 1_555
O29 S14 1.480185 1_555
O30 S14 1.458619 1_555
O31 S12 1.463139 1_555
O32 S13 1.472027 1_555
O33 Si1 1.674035 1_555
O33 Zr2 1.966724 1_555
O34 Si2 1.675567 1_555
O34 Zr2 1.983618 1_555
O35 S11 1.495758 1_555
O35 Zr2 2.203447 1_555
O36 S14 1.472598 1_555
O37 S12 1.479652 1_555
O38 S13 1.469789 1_555
O39 Si1 1.610960 1_655
O40 Si2 1.614453 1_555
O41 S11 1.470934 1_555
O42 S6 1.478472 1_555
O43 S7 1.492520 1_555
O44 Si0 1.624676 1_555
O45 S8 1.474784 1_555
O46 S9 1.469817 1_555
O47 S10 1.473840 1_555
O48 S5 1.478168 1_555
O49 S3 1.477000 1_555
O50 S4 1.471447 1_555
O51 S1 1.507366 1_555
O52 S2 1.485957 1_655
O53 S0 1.508775 1_555
O54 S11 1.500360 1_555
O54 Zr0 2.242743 1_555
O55 Si1 1.671582 1_655
O55 Zr0 2.035504 1_555
O56 Si2 1.671133 1_545
O56 Zr0 2.028803 1_555
O57 S12 1.514689 1_545
O57 Zr1 2.215029 1_555
O58 S13 1.534896 1_555
O58 Zr1 2.133431 1_555
O59 S14 1.536437 1_655
O59 Zr1 2.133726 1_555
O60 S10 1.467688 1_555
O61 S8 1.470017 1_455
O62 S9 1.463714 1_565
O63 S7 1.477074 1_565
O64 Si0 1.621730 1_555
O65 S6 1.490058 1_455
O66 S0 1.481368 1_565
O67 S1 1.506354 1_555
O68 S2 1.504370 1_555
O69 S3 1.512293 1_555
O69 Zr2 2.244196 1_555
O70 S4 1.526981 1_455
O70 Zr2 2.122684 1_555
O71 S5 1.512272 1_565
O71 Zr2 2.219640 1_555
