# generated using pymatgen
data_MgV28O70
_symmetry_space_group_name_H-M   'P 1'
_cell_length_a   15.42955168
_cell_length_b   4.78787506
_cell_length_c   21.01202978
_cell_angle_alpha   89.99317940
_cell_angle_beta   108.91307755
_cell_angle_gamma   90.00120868
_symmetry_Int_Tables_number   1
_chemical_formula_structural   MgV28O70
_chemical_formula_sum   'Mg1 V28 O70'
_cell_volume   1468.45448864
_cell_formula_units_Z   1
loop_
 _symmetry_equiv_pos_site_id
 _symmetry_equiv_pos_as_xyz
  1  'x, y, z'
loop_
 _atom_site_type_symbol
 _atom_site_label
 _atom_site_symmetry_multiplicity
 _atom_site_fract_x
 _atom_site_fract_y
 _atom_site_fract_z
 _atom_site_occupancy
  Mg  Mg0  1  0.42969612  0.66174552  0.15240844  1
  V  V0  1  0.06680075  0.89921500  0.65357805  1
  V  V1  1  0.14273687  0.88446876  0.81798061  1
  V  V2  1  0.09355106  0.11440871  0.51871568  1
  V  V3  1  0.30003371  0.88912217  0.97257720  1
  V  V4  1  0.06667071  0.10270405  0.15406814  1
  V  V5  1  0.14226817  0.11781594  0.31839396  1
  V  V6  1  0.27803291  0.90021323  0.60906388  1
  V  V7  1  0.40454284  0.80342244  0.76900829  1
  V  V8  1  0.09535353  0.89383861  0.02097481  1
  V  V9  1  0.30004956  0.11082954  0.47249348  1
  V  V10  1  0.51216488  0.90323942  0.93384365  1
  V  V11  1  0.27857156  0.11043761  0.10718572  1
  V  V12  1  0.48837934  0.89336122  0.56730711  1
  V  V13  1  0.59582205  0.80093346  0.73144070  1
  V  V14  1  0.40441359  0.18563182  0.26487845  1
  V  V15  1  0.51204705  0.11349728  0.43288648  1
  V  V16  1  0.72234827  0.89934123  0.89078712  1
  V  V17  1  0.48586673  0.11110560  0.06713281  1
  V  V18  1  0.70018876  0.89304885  0.52791711  1
  V  V19  1  0.90644751  0.11560555  0.98082869  1
  V  V20  1  0.59131480  0.18272637  0.22880881  1
  V  V21  1  0.72204561  0.10784518  0.39168780  1
  V  V22  1  0.85793982  0.88376312  0.68245242  1
  V  V23  1  0.93423246  0.89910735  0.84715125  1
  V  V24  1  0.70021052  0.11313650  0.02698165  1
  V  V25  1  0.90567204  0.88605803  0.48082426  1
  V  V26  1  0.85755510  0.11626342  0.18186913  1
  V  V27  1  0.93251656  0.10088059  0.34590235  1
  O  O0  1  0.00437091  0.01710391  0.94350218  1
  O  O1  1  0.03919069  0.99606461  0.83010579  1
  O  O2  1  0.06558739  0.56330540  0.65077415  1
  O  O3  1  0.14149886  0.54745542  0.81965659  1
  O  O4  1  0.00229614  0.98327103  0.44258167  1
  O  O5  1  0.14494923  0.98864227  0.73587228  1
  O  O6  1  0.23961814  0.00086597  0.88847710  1
  O  O7  1  0.29621646  0.55356310  0.96939208  1
  O  O8  1  0.09428924  0.44874464  0.51200122  1
  O  O9  1  0.16031749  0.01033962  0.61142230  1
  O  O10  1  0.03826879  0.00646934  0.33012184  1
  O  O11  1  0.20518272  0.00279206  0.51005616  1
  O  O12  1  0.41796795  0.00756707  0.97151264  1
  O  O13  1  0.33931420  0.55882803  0.78005292  1
  O  O14  1  0.06464121  0.43870255  0.15209121  1
  O  O15  1  0.14134614  0.45477690  0.32033362  1
  O  O16  1  0.27922259  0.56450616  0.61155151  1
  O  O17  1  0.34255573  0.00211147  0.69438679  1
  O  O18  1  0.14436160  0.01187273  0.23705100  1
  O  O19  1  0.23995081  0.00004840  0.38885704  1
  O  O20  1  0.44962421  0.99683698  0.84688367  1
  O  O21  1  0.29691239  0.44657782  0.47091200  1
  O  O22  1  0.51019567  0.56695698  0.93438115  1
  O  O23  1  0.09982903  0.55913026  0.01559669  1
  O  O24  1  0.15988471  0.99713939  0.11313778  1
  O  O25  1  0.36915419  0.99581455  0.56864447  1
  O  O26  1  0.49997371  0.64505329  0.75016149  1
  O  O27  1  0.20649012  0.01351517  0.01027547  1
  O  O28  1  0.41949867  0.01298893  0.47042153  1
  O  O29  1  0.32672485  0.40030730  0.27015787  1
  O  O30  1  0.63079473  0.99850405  0.93007466  1
  O  O31  1  0.30534280  0.44734054  0.11980168  1
  O  O32  1  0.48876177  0.55726529  0.56893096  1
  O  O33  1  0.55047697  0.99409494  0.65303220  1
  O  O34  1  0.35883110  0.95260954  0.19584009  1
  O  O35  1  0.65804136  0.00153221  0.80490030  1
  O  O36  1  0.45530494  0.01562293  0.34493023  1
  O  O37  1  0.51117760  0.44951451  0.43109392  1
  O  O38  1  0.72058482  0.56369432  0.88796529  1
  O  O39  1  0.37124278  0.94627194  0.07259801  1
  O  O40  1  0.66082774  0.55574785  0.72036479  1
  O  O41  1  0.58060216  0.99251955  0.52844907  1
  O  O42  1  0.79459035  0.00143256  0.98880760  1
  O  O43  1  0.49037594  0.38569195  0.23615170  1
  O  O44  1  0.63138210  0.01159300  0.43177726  1
  O  O45  1  0.83990519  0.00989851  0.88786549  1
  O  O46  1  0.90558861  0.44999578  0.98742520  1
  O  O47  1  0.48148856  0.44788345  0.08573747  1
  O  O48  1  0.70330494  0.55711838  0.52895930  1
  O  O49  1  0.53871279  0.95111346  0.16064302  1
  O  O50  1  0.76027016  0.00060399  0.61181467  1
  O  O51  1  0.85610910  0.98734982  0.76424447  1
  O  O52  1  0.65061837  0.00838783  0.30662305  1
  O  O53  1  0.72146318  0.44347929  0.38858793  1
  O  O54  1  0.85895578  0.54685014  0.68051570  1
  O  O55  1  0.93562793  0.56329916  0.84979451  1
  O  O56  1  0.65883302  0.39511300  0.20834561  1
  O  O57  1  0.58221225  0.02159516  0.02879002  1
  O  O58  1  0.79440428  0.00303224  0.48980693  1
  O  O59  1  0.96144049  0.99512331  0.67013728  1
  O  O60  1  0.83754937  0.99167752  0.38778824  1
  O  O61  1  0.90401313  0.55184557  0.48755931  1
  O  O62  1  0.70550040  0.44883120  0.02839565  1
  O  O63  1  0.76135022  0.00157516  0.11086149  1
  O  O64  1  0.85463806  0.01009579  0.26388140  1
  O  O65  1  0.99611733  0.01572930  0.55696147  1
  O  O66  1  0.85951769  0.45318668  0.18059840  1
  O  O67  1  0.93322813  0.43689376  0.34869000  1
  O  O68  1  0.96123090  0.00295122  0.17047815  1
  O  O69  1  0.99600921  0.98670621  0.05750720  1
loop_
_geom_bond_atom_site_label_1
_geom_bond_atom_site_label_2
_geom_bond_distance
_geom_bond_site_symmetry_2
Mg0 O31 2.086279 1_555
Mg0 O47 2.091815 1_555
Mg0 O39 2.121441 1_555
Mg0 O49 2.142453 1_555
Mg0 O34 2.148254 1_555
Mg0 O43 2.156677 1_555
O0 V8 1.867436 1_546
O0 V19 1.971990 1_455
O0 V23 2.041808 1_445
O1 V1 1.779576 1_555
O1 V23 1.828213 1_455
O2 V0 1.609265 1_555
O3 V1 1.614206 1_555
O4 V2 1.864375 1_565
O4 V25 1.965075 1_455
O4 V27 2.045698 1_465
O5 V1 1.806776 1_555
O5 V0 1.809917 1_555
O6 V3 1.791598 1_545
O6 V1 1.817694 1_545
O7 V3 1.608299 1_555
O8 V2 1.607311 1_555
O9 V6 1.907301 1_545
O9 V2 1.950116 1_555
O9 V0 1.994521 1_545
O10 V5 1.782178 1_555
O10 V27 1.824160 1_455
O11 V2 1.867801 1_555
O11 V9 1.944709 1_555
O11 V6 2.077601 1_545
O12 V3 1.913021 1_545
O12 V10 1.932429 1_545
O12 V17 2.003938 1_556
O13 V7 1.609205 1_555
O14 V4 1.609293 1_555
O15 V5 1.614026 1_555
O16 V6 1.608079 1_555
O17 V6 1.812857 1_545
O17 V7 1.818163 1_545
O18 V5 1.793219 1_555
O18 V4 1.819678 1_555
O19 V9 1.781389 1_555
O19 V5 1.826170 1_555
O20 V7 1.811468 1_555
O20 V10 1.824137 1_555
O21 V9 1.608266 1_555
O22 V10 1.610472 1_555
O23 V8 1.609592 1_555
O24 V8 1.932977 1_555
O24 V11 1.952414 1_565
O24 V4 1.966132 1_565
O25 V12 1.912867 1_555
O25 V6 1.918723 1_555
O25 V9 2.031044 1_565
O26 V13 1.809943 1_555
O26 V7 1.810531 1_555
O27 V8 1.889234 1_545
O27 V3 1.951073 1_544
O27 V11 2.032437 1_555
O28 V15 1.903341 1_555
O28 V9 1.915781 1_555
O28 V12 2.049166 1_545
O29 V14 1.609947 1_555
O30 V16 1.912721 1_555
O30 V10 1.912753 1_555
O30 V24 2.044747 1_566
O31 V11 1.664906 1_555
O32 V12 1.609513 1_555
O33 V12 1.810124 1_555
O33 V13 1.819772 1_555
O34 V14 1.784012 1_565
O34 V11 2.019626 1_565
O35 V13 1.807285 1_545
O35 V16 1.822004 1_545
O36 V14 1.803308 1_555
O36 V15 1.831115 1_555
O37 V15 1.609199 1_555
O38 V16 1.608040 1_555
O39 V11 1.965800 1_565
O39 V17 1.973713 1_565
O39 V3 2.049916 1_554
O40 V13 1.609258 1_555
O41 V18 1.909187 1_555
O41 V12 1.915699 1_555
O41 V15 2.027106 1_565
O42 V19 1.869010 1_555
O42 V24 1.951259 1_556
O42 V16 2.057993 1_545
O43 V20 1.884051 1_555
O43 V14 1.886766 1_555
O44 V21 1.908571 1_555
O44 V15 1.912274 1_555
O44 V18 2.034572 1_545
O45 V16 1.909491 1_545
O45 V19 1.956004 1_555
O45 V23 1.984644 1_545
O46 V19 1.607449 1_555
O47 V17 1.665729 1_555
O48 V18 1.609047 1_555
O49 V20 1.785131 1_565
O49 V17 2.018246 1_565
O50 V18 1.781298 1_545
O50 V22 1.826690 1_545
O51 V22 1.797802 1_555
O51 V23 1.817906 1_555
O52 V20 1.799220 1_555
O52 V21 1.832835 1_555
O53 V21 1.608193 1_555
O54 V22 1.613820 1_555
O55 V23 1.608664 1_555
O56 V20 1.610731 1_555
O57 V24 1.884981 1_555
O57 V17 1.954267 1_555
O57 V10 2.017864 1_544
O58 V25 1.872661 1_545
O58 V18 1.945839 1_545
O58 V21 2.063119 1_555
O59 V22 1.780273 1_555
O59 V0 1.827965 1_655
O60 V21 1.893916 1_565
O60 V25 1.962097 1_555
O60 V27 2.007722 1_565
O61 V25 1.607330 1_555
O62 V24 1.609123 1_555
O63 V24 1.789844 1_555
O63 V26 1.815348 1_555
O64 V27 1.805740 1_555
O64 V26 1.811092 1_555
O65 V25 1.856128 1_545
O65 V2 1.977926 1_655
O65 V0 2.046079 1_645
O66 V26 1.613810 1_555
O67 V27 1.609770 1_555
O68 V26 1.777313 1_555
O68 V4 1.832307 1_655
O69 V19 1.855490 1_564
O69 V8 1.974695 1_655
O69 V4 2.044496 1_665
