# generated using pymatgen
data_YMn12
_symmetry_space_group_name_H-M   'P 1'
_cell_length_a   4.91658860
_cell_length_b   6.47827956
_cell_length_c   6.47826073
_cell_angle_alpha   81.71738480
_cell_angle_beta   67.69091142
_cell_angle_gamma   67.69173514
_symmetry_Int_Tables_number   1
_chemical_formula_structural   YMn12
_chemical_formula_sum   'Y1 Mn12'
_cell_volume   176.60719410
_cell_formula_units_Z   1
loop_
 _symmetry_equiv_pos_site_id
 _symmetry_equiv_pos_as_xyz
  1  'x, y, z'
loop_
 _atom_site_type_symbol
 _atom_site_label
 _atom_site_symmetry_multiplicity
 _atom_site_fract_x
 _atom_site_fract_y
 _atom_site_fract_z
 _atom_site_occupancy
  Y  Y0  1  0.00000000  -0.00000000  -0.00000000  1
  Mn  Mn0  1  0.00000000  -0.00000000  0.50000000  1
  Mn  Mn1  1  0.37270213  0.62776706  0.62774420  1
  Mn  Mn2  1  -0.00000300  0.37221805  0.62778410  1
  Mn  Mn3  1  0.00000300  0.62778195  0.37221590  1
  Mn  Mn4  1  0.62729787  0.37223294  0.37225580  1
  Mn  Mn5  1  0.26871622  0.23123024  0.23122083  1
  Mn  Mn6  1  0.50000847  0.76879076  0.23120832  1
  Mn  Mn7  1  0.49999153  0.23120924  0.76879168  1
  Mn  Mn8  1  0.73128378  0.76876976  0.76877917  1
  Mn  Mn9  1  0.50000000  -0.00000000  0.50000000  1
  Mn  Mn10  1  0.00000000  0.50000000  -0.00000000  1
  Mn  Mn11  1  0.50000000  0.50000000  -0.00000000  1
loop_
_geom_bond_atom_site_label_1
_geom_bond_atom_site_label_2
_geom_bond_distance
_geom_bond_site_symmetry_2
Mn0 Mn7 2.454616 1_455
Mn0 Mn6 2.454616 1_545
Mn0 Mn5 2.454738 1_555
Mn0 Mn8 2.454738 1_445
Mn0 Mn9 2.458294 1_455
Mn0 Mn9 2.458294 1_555
Mn0 Mn3 2.659866 1_545
Mn0 Mn2 2.659866 1_555
Mn0 Mn4 2.660700 1_455
Mn0 Mn1 2.660700 1_545
Mn0 Y0 3.239130 1_556
Mn0 Y0 3.239130 1_555
Mn1 Mn4 2.165653 1_555
Mn1 Mn6 2.522441 1_555
Mn1 Mn7 2.522630 1_555
Mn1 Mn9 2.658790 1_565
Mn1 Mn11 2.658948 1_556
Mn1 Mn10 2.660821 1_556
Mn1 Mn8 2.731906 1_555
Mn1 Mn8 2.735016 1_455
Mn1 Y0 3.155048 1_566
Mn2 Mn3 2.166207 1_555
Mn2 Mn8 2.522420 1_455
Mn2 Mn5 2.522453 1_555
Mn2 Mn9 2.659499 1_555
Mn2 Mn7 2.733427 1_555
Mn2 Mn7 2.733461 1_455
Mn2 Y0 3.154953 1_556
Mn3 Mn5 2.522420 1_555
Mn3 Mn8 2.522453 1_455
Mn3 Mn9 2.659499 1_465
Mn3 Mn6 2.733427 1_455
Mn3 Mn6 2.733461 1_555
Mn3 Y0 3.154953 1_565
Mn4 Mn7 2.522441 1_555
Mn4 Mn6 2.522630 1_555
Mn4 Mn9 2.658790 1_555
Mn4 Mn5 2.731906 1_555
Mn4 Mn5 2.735016 1_655
Mn4 Y0 3.155048 1_655
Mn5 Mn9 2.455076 1_555
Mn5 Mn7 2.771504 1_554
Mn5 Mn6 2.771591 1_545
Mn5 Y0 3.143815 1_655
Mn5 Y0 3.143970 1_555
Mn6 Mn9 2.454995 1_565
Mn6 Mn8 2.771504 1_554
Mn6 Y0 3.143812 1_665
Mn6 Y0 3.143902 1_565
Mn7 Mn9 2.454995 1_555
Mn7 Mn8 2.771591 1_545
Mn7 Y0 3.143812 1_556
Mn7 Y0 3.143902 1_656
Mn8 Mn9 2.455076 1_565
Mn8 Y0 3.143815 1_566
Mn8 Y0 3.143970 1_666
Mn9 Y0 3.238799 1_655
Mn9 Y0 3.238799 1_556
Mn10 Mn7 2.454574 1_554
Mn10 Mn6 2.454574 1_455
Mn10 Mn5 2.454691 1_555
Mn10 Mn8 2.454691 1_454
Mn10 Mn11 2.458294 1_455
Mn10 Mn11 2.458294 1_555
Mn10 Mn3 2.659854 1_555
Mn10 Mn2 2.659854 1_554
Mn10 Mn4 2.660821 1_455
Mn10 Y0 3.239140 1_555
Mn10 Y0 3.239140 1_565
Mn11 Mn5 2.454990 1_555
Mn11 Mn8 2.454990 1_554
Mn11 Mn7 2.455029 1_554
Mn11 Mn6 2.455029 1_555
Mn11 Mn4 2.658948 1_555
Mn11 Mn3 2.659452 1_555
Mn11 Mn2 2.659452 1_654
Mn11 Y0 3.238839 1_565
Mn11 Y0 3.238839 1_655
