# generated using pymatgen
data_Ba2Mg(BiO3)2
_symmetry_space_group_name_H-M   'P 1'
_cell_length_a   6.07750125
_cell_length_b   6.11465611
_cell_length_c   7.48376921
_cell_angle_alpha   65.64577514
_cell_angle_beta   66.04333058
_cell_angle_gamma   60.20079879
_symmetry_Int_Tables_number   1
_chemical_formula_structural   Ba2Mg(BiO3)2
_chemical_formula_sum   'Ba2 Mg1 Bi2 O6'
_cell_volume   212.62777550
_cell_formula_units_Z   1
loop_
 _symmetry_equiv_pos_site_id
 _symmetry_equiv_pos_as_xyz
  1  'x, y, z'
loop_
 _atom_site_type_symbol
 _atom_site_label
 _atom_site_symmetry_multiplicity
 _atom_site_fract_x
 _atom_site_fract_y
 _atom_site_fract_z
 _atom_site_occupancy
  Ba  Ba0  1  0.79477138  0.67609478  0.73436246  1
  Ba  Ba1  1  0.34527639  0.26421826  0.04522896  1
  Mg  Mg0  1  0.18310332  0.03384922  0.59994415  1
  Bi  Bi0  1  0.93254973  0.95726486  0.17763568  1
  Bi  Bi1  1  0.51335145  0.45609741  0.51719969  1
  O  O0  1  0.78993403  0.21958109  0.70726786  1
  O  O1  1  0.58464566  0.91939083  0.38385309  1
  O  O2  1  0.11211042  0.91939083  0.38385309  1
  O  O3  1  0.28321701  0.21958109  0.70726786  1
  O  O4  1  0.76615769  0.36478984  0.10289478  1
  O  O5  1  0.28863293  0.66765877  0.75507538  1
loop_
_geom_bond_atom_site_label_1
_geom_bond_atom_site_label_2
_geom_bond_distance
_geom_bond_site_symmetry_2
Ba0 O4 2.621045 1_556
Ba0 O2 2.887635 1_655
Ba0 O1 2.887635 1_555
Ba0 O3 2.896077 1_655
Ba0 O0 2.896077 1_555
Ba0 O5 3.041826 1_555
Ba0 O5 3.041826 1_655
Ba0 O3 3.230762 1_565
Ba0 O0 3.230762 1_565
Ba1 O5 2.502852 1_554
Ba1 O0 2.839026 1_554
Ba1 O3 2.839027 1_554
Ba1 O2 2.919322 1_545
Ba1 O1 2.919322 1_545
Ba1 O4 3.128273 1_455
Ba1 O4 3.128274 1_555
Mg0 O5 1.950952 1_545
Mg0 O0 2.034961 1_455
Mg0 O3 2.034961 1_555
Mg0 O1 2.256429 1_545
Mg0 O2 2.256430 1_545
Bi0 O4 2.085697 1_565
Bi0 O1 2.109022 1_555
Bi0 O2 2.109023 1_655
Bi1 O3 2.183856 1_555
Bi1 O0 2.183857 1_555
Bi1 O5 2.208332 1_555
Bi1 O1 2.783178 1_555
Bi1 O2 2.783178 1_555
