# generated using pymatgen
data_Ba3MgV2O8
_symmetry_space_group_name_H-M   'P 1'
_cell_length_a   8.31238525
_cell_length_b   8.31238512
_cell_length_c   8.31238544
_cell_angle_alpha   41.66798258
_cell_angle_beta   41.66797997
_cell_angle_gamma   41.66798220
_symmetry_Int_Tables_number   1
_chemical_formula_structural   Ba3MgV2O8
_chemical_formula_sum   'Ba3 Mg1 V2 O8'
_cell_volume   229.47247510
_cell_formula_units_Z   1
loop_
 _symmetry_equiv_pos_site_id
 _symmetry_equiv_pos_as_xyz
  1  'x, y, z'
loop_
 _atom_site_type_symbol
 _atom_site_label
 _atom_site_symmetry_multiplicity
 _atom_site_fract_x
 _atom_site_fract_y
 _atom_site_fract_z
 _atom_site_occupancy
  Ba  Ba0  1  0.20397400  0.20397400  0.20397400  1
  Ba  Ba1  1  0.79602600  0.79602600  0.79602600  1
  Ba  Ba2  1  0.00000000  0.00000000  0.00000000  1
  Mg  Mg0  1  0.50000000  0.50000000  0.50000000  1
  V  V0  1  0.60669200  0.60669200  0.60669200  1
  V  V1  1  0.39330800  0.39330800  0.39330800  1
  O  O0  1  0.68387200  0.68387200  0.68387200  1
  O  O1  1  0.31612800  0.31612800  0.31612800  1
  O  O2  1  0.25564000  0.71737300  0.71737300  1
  O  O3  1  0.71737300  0.71737300  0.25564000  1
  O  O4  1  0.71737300  0.25564000  0.71737300  1
  O  O5  1  0.74436000  0.28262700  0.28262700  1
  O  O6  1  0.28262700  0.74436000  0.28262700  1
  O  O7  1  0.28262700  0.28262700  0.74436000  1
loop_
_geom_bond_atom_site_label_1
_geom_bond_atom_site_label_2
_geom_bond_distance
_geom_bond_site_symmetry_2
Ba0 O1 2.550063 1_555
Ba0 O6 2.937019 1_545
Ba0 O5 2.937019 1_455
Ba0 O7 2.937019 1_554
Ba0 O4 3.018441 1_554
Ba0 O4 3.018441 1_455
Ba0 O3 3.018441 1_455
Ba0 O2 3.018441 1_554
Ba0 O3 3.018441 1_545
Ba0 O2 3.018441 1_545
Ba1 O0 2.550063 1_555
Ba1 O4 2.937019 1_565
Ba1 O2 2.937019 1_655
Ba1 O3 2.937019 1_556
Ba1 O6 3.018441 1_556
Ba1 O6 3.018441 1_655
Ba1 O7 3.018441 1_655
Ba1 O5 3.018441 1_556
Ba1 O7 3.018441 1_565
Ba1 O5 3.018441 1_565
Ba2 O3 2.980417 1_445
Ba2 O7 2.980417 1_554
Ba2 O2 2.980417 1_544
Ba2 O5 2.980417 1_455
Ba2 O4 2.980417 1_454
Ba2 O6 2.980417 1_545
Ba2 O1 3.436093 1_455
Ba2 O0 3.436093 1_544
Ba2 O1 3.436093 1_554
Ba2 O0 3.436093 1_445
Ba2 O0 3.436093 1_454
Ba2 O1 3.436093 1_545
Mg0 O7 2.136967 1_555
Mg0 O3 2.136967 1_555
Mg0 O5 2.136967 1_555
Mg0 O2 2.136967 1_555
Mg0 O6 2.136968 1_555
Mg0 O4 2.136968 1_555
O0 V0 1.754854 1_555
O1 V1 1.754854 1_555
O2 V0 1.857602 1_555
O3 V0 1.857602 1_555
O4 V0 1.857602 1_555
O5 V1 1.857602 1_555
O6 V1 1.857602 1_555
O7 V1 1.857602 1_555
