# generated using pymatgen
data_Na3MgZr(PO4)3
_symmetry_space_group_name_H-M   'P 1'
_cell_length_a   15.67943712
_cell_length_b   9.03896194
_cell_length_c   9.00277786
_cell_angle_alpha   90.00000000
_cell_angle_beta   124.72706166
_cell_angle_gamma   90.00000000
_symmetry_Int_Tables_number   1
_chemical_formula_structural   Na3MgZr(PO4)3
_chemical_formula_sum   'Na12 Mg4 Zr4 P12 O48'
_cell_volume   1048.65194498
_cell_formula_units_Z   4
loop_
 _symmetry_equiv_pos_site_id
 _symmetry_equiv_pos_as_xyz
  1  'x, y, z'
loop_
 _atom_site_type_symbol
 _atom_site_label
 _atom_site_symmetry_multiplicity
 _atom_site_fract_x
 _atom_site_fract_y
 _atom_site_fract_z
 _atom_site_occupancy
  Na  Na0  1  0.25358688  0.71865207  0.98631405  1
  Na  Na1  1  0.75358688  0.78134793  0.48631405  1
  Na  Na2  1  0.75358688  0.21865207  0.98631405  1
  Na  Na3  1  0.25358688  0.28134793  0.48631405  1
  Na  Na4  1  0.50153743  0.11565435  0.74419232  1
  Na  Na5  1  0.50153743  0.88434565  0.24419232  1
  Na  Na6  1  0.00153743  0.61565435  0.74419232  1
  Na  Na7  1  0.00153743  0.38434565  0.24419232  1
  Na  Na8  1  0.18601304  0.94475912  0.28357208  1
  Na  Na9  1  0.18601304  0.05524088  0.78357208  1
  Na  Na10  1  0.68601304  0.44475912  0.28357208  1
  Na  Na11  1  0.68601304  0.55524088  0.78357208  1
  Mg  Mg0  1  0.10149872  0.75033074  0.55703681  1
  Mg  Mg1  1  0.10149872  0.24966926  0.05703681  1
  Mg  Mg2  1  0.60149872  0.25033074  0.55703681  1
  Mg  Mg3  1  0.60149872  0.74966926  0.05703681  1
  Zr  Zr0  1  0.89424033  0.75849339  0.94248055  1
  Zr  Zr1  1  0.89424033  0.24150661  0.44248055  1
  Zr  Zr2  1  0.39424033  0.25849339  0.94248055  1
  Zr  Zr3  1  0.39424033  0.74150661  0.44248055  1
  P  P0  1  0.00551214  0.95057580  0.76455064  1
  P  P1  1  0.00551214  0.04942420  0.26455064  1
  P  P2  1  0.50551214  0.45057580  0.76455064  1
  P  P3  1  0.50551214  0.54942420  0.26455064  1
  P  P4  1  0.35203477  0.89616196  0.76254410  1
  P  P5  1  0.64285223  0.89409033  0.74426919  1
  P  P6  1  0.64285223  0.10590967  0.24426919  1
  P  P7  1  0.35203477  0.10383804  0.26254410  1
  P  P8  1  0.85203477  0.39616196  0.76254410  1
  P  P9  1  0.14285223  0.39409033  0.74426919  1
  P  P10  1  0.14285223  0.60590967  0.24426919  1
  P  P11  1  0.85203477  0.60383804  0.26254410  1
  O  O0  1  0.14943207  0.56260531  0.73882094  1
  O  O1  1  0.84540165  0.57121871  0.75688773  1
  O  O2  1  0.84540165  0.42878129  0.25688773  1
  O  O3  1  0.14943207  0.43739469  0.23882094  1
  O  O4  1  0.64943207  0.06260531  0.73882094  1
  O  O5  1  0.34540165  0.07121871  0.75688773  1
  O  O6  1  0.34540165  0.92878129  0.25688773  1
  O  O7  1  0.64943207  0.93739469  0.23882094  1
  O  O8  1  0.44613145  0.55702506  0.59715610  1
  O  O9  1  0.56772266  0.54065211  0.93653012  1
  O  O10  1  0.56772266  0.45934789  0.43653012  1
  O  O11  1  0.44613145  0.44297494  0.09715610  1
  O  O12  1  0.94613145  0.05702506  0.59715610  1
  O  O13  1  0.06772266  0.04065211  0.93653012  1
  O  O14  1  0.06772266  0.95934789  0.43653012  1
  O  O15  1  0.94613145  0.94297494  0.09715610  1
  O  O16  1  0.25660618  0.83680404  0.74933643  1
  O  O17  1  0.73498246  0.81764380  0.74970617  1
  O  O18  1  0.73498246  0.18235620  0.24970617  1
  O  O19  1  0.25660618  0.16319596  0.24933643  1
  O  O20  1  0.75660618  0.33680404  0.74933643  1
  O  O21  1  0.23498246  0.31764380  0.74970617  1
  O  O22  1  0.23498246  0.68235620  0.24970617  1
  O  O23  1  0.75660618  0.66319596  0.24933643  1
  O  O24  1  0.34973878  0.85632357  0.58919289  1
  O  O25  1  0.64021046  0.84243582  0.90137560  1
  O  O26  1  0.64021046  0.15756418  0.40137560  1
  O  O27  1  0.34973878  0.14367643  0.08919289  1
  O  O28  1  0.84973878  0.35632357  0.58919289  1
  O  O29  1  0.14021046  0.34243582  0.90137560  1
  O  O30  1  0.14021046  0.65756418  0.40137560  1
  O  O31  1  0.84973878  0.64367643  0.08919289  1
  O  O32  1  0.45373020  0.84480645  0.93207288  1
  O  O33  1  0.54170636  0.83632923  0.56365595  1
  O  O34  1  0.54170636  0.16367077  0.06365595  1
  O  O35  1  0.45373020  0.15519355  0.43207288  1
  O  O36  1  0.95373020  0.34480645  0.93207288  1
  O  O37  1  0.04170636  0.33632923  0.56365595  1
  O  O38  1  0.04170636  0.66367077  0.06365595  1
  O  O39  1  0.95373020  0.65519355  0.43207288  1
  O  O40  1  0.07807890  0.84782446  0.74839071  1
  O  O41  1  0.91898329  0.85239446  0.75191475  1
  O  O42  1  0.91898329  0.14760554  0.25191475  1
  O  O43  1  0.07807890  0.15217554  0.24839071  1
  O  O44  1  0.57807890  0.34782446  0.74839071  1
  O  O45  1  0.41898329  0.35239446  0.75191475  1
  O  O46  1  0.41898329  0.64760554  0.25191475  1
  O  O47  1  0.57807890  0.65217554  0.24839071  1
loop_
_geom_bond_atom_site_label_1
_geom_bond_atom_site_label_2
_geom_bond_distance
_geom_bond_site_symmetry_2
Na0 O0 2.339937 1_555
Na0 O46 2.406297 1_556
Na0 O16 2.410293 1_555
Na0 O22 2.569766 1_556
Na0 O40 2.609280 1_555
Na0 O6 2.760127 1_556
Na1 O7 2.339937 1_555
Na1 O41 2.406297 1_555
Na1 O23 2.410293 1_555
Na1 O17 2.569766 1_555
Na1 O47 2.609280 1_555
Na1 O1 2.760127 1_555
Na2 O4 2.339937 1_555
Na2 O42 2.406297 1_556
Na2 O20 2.410293 1_555
Na2 O18 2.569766 1_556
Na2 O44 2.609280 1_555
Na2 O2 2.760127 1_556
Na3 O3 2.339937 1_555
Na3 O45 2.406297 1_555
Na3 O19 2.410293 1_555
Na3 O21 2.569766 1_555
Na3 O43 2.609280 1_555
Na3 O5 2.760127 1_555
Na4 O4 2.395276 1_555
Na4 O44 2.407089 1_555
Na4 O35 2.487087 1_555
Na4 O45 2.522290 1_555
Na4 O5 2.546856 1_555
Na4 O34 2.606331 1_556
Na5 O7 2.395276 1_555
Na5 O47 2.407089 1_555
Na5 O32 2.487087 1_554
Na5 O46 2.522290 1_555
Na5 O6 2.546856 1_555
Na5 O33 2.606331 1_555
Na6 O0 2.395276 1_555
Na6 O40 2.407089 1_555
Na6 O39 2.487087 1_455
Na6 O41 2.522290 1_455
Na6 O1 2.546856 1_455
Na6 O38 2.606331 1_556
Na7 O3 2.395276 1_555
Na7 O43 2.407089 1_555
Na7 O36 2.487087 1_454
Na7 O42 2.522290 1_455
Na7 O2 2.546856 1_455
Na7 O37 2.606331 1_555
Na8 O19 2.367963 1_565
Na8 O43 2.422527 1_565
Na8 O22 2.564153 1_555
Na8 O24 2.598476 1_555
Na8 O6 2.647303 1_555
Na8 O13 2.711198 1_564
Na8 O14 2.874643 1_555
Na9 O16 2.367963 1_545
Na9 O40 2.422527 1_545
Na9 O21 2.564153 1_555
Na9 O27 2.598476 1_556
Na9 O5 2.647303 1_555
Na9 O14 2.711198 1_545
Na9 O13 2.874643 1_555
Na10 O23 2.367963 1_555
Na10 O47 2.422527 1_555
Na10 O18 2.564153 1_555
Na10 O28 2.598476 1_555
Na10 O2 2.647303 1_555
Na10 O9 2.711198 1_554
Na10 O10 2.874643 1_555
Na11 O20 2.367963 1_555
Na11 O44 2.422527 1_555
Na11 O17 2.564153 1_555
Na11 O31 2.598476 1_556
Na11 O1 2.647303 1_555
Na11 O10 2.711198 1_555
Na11 O9 2.874643 1_555
Mg0 O30 2.001133 1_555
Mg0 O14 2.091006 1_555
Mg0 O39 2.098461 1_455
Mg0 O40 2.144743 1_555
Mg0 O0 2.172809 1_555
Mg0 O16 2.173871 1_555
Mg1 O29 2.001133 1_554
Mg1 O13 2.091006 1_554
Mg1 O36 2.098461 1_454
Mg1 O43 2.144743 1_555
Mg1 O3 2.172809 1_555
Mg1 O19 2.173871 1_555
Mg2 O26 2.001133 1_555
Mg2 O10 2.091006 1_555
Mg2 O35 2.098461 1_555
Mg2 O44 2.144743 1_555
Mg2 O4 2.172809 1_555
Mg2 O20 2.173871 1_555
Mg3 O25 2.001133 1_554
Mg3 O9 2.091006 1_554
Mg3 O32 2.098461 1_554
Mg3 O47 2.144743 1_555
Mg3 O7 2.172809 1_555
Mg3 O23 2.173871 1_555
O0 P9 1.529364 1_555
O1 P8 1.584660 1_555
O1 Zr0 2.187658 1_555
O2 P11 1.584660 1_555
O2 Zr1 2.187658 1_555
O3 P10 1.529364 1_555
O4 P5 1.529364 1_545
O5 P4 1.584660 1_545
O5 Zr2 2.187658 1_555
O6 P7 1.584660 1_565
O6 Zr3 2.187658 1_555
O7 P6 1.529364 1_565
O8 P2 1.570081 1_555
O8 Zr3 2.022586 1_555
O9 P2 1.513574 1_555
O10 P3 1.513574 1_555
O11 P3 1.570081 1_555
O11 Zr2 2.022586 1_554
O12 P0 1.570081 1_645
O12 Zr1 2.022586 1_555
O13 P0 1.513574 1_545
O14 P1 1.513574 1_565
O15 P1 1.570081 1_665
O15 Zr0 2.022586 1_554
O16 P4 1.529090 1_555
O17 P5 1.576718 1_555
O17 Zr0 2.143757 1_555
O18 P6 1.576718 1_555
O18 Zr1 2.143757 1_555
O19 P7 1.529090 1_555
O20 P8 1.529090 1_555
O21 P9 1.576718 1_555
O21 Zr2 2.143757 1_555
O22 P10 1.576718 1_555
O22 Zr3 2.143757 1_555
O23 P11 1.529090 1_555
O24 P4 1.581948 1_555
O24 Zr3 2.087712 1_555
O25 P5 1.512275 1_555
O26 P6 1.512275 1_555
O27 P7 1.581948 1_555
O27 Zr2 2.087712 1_554
O28 P8 1.581948 1_555
O28 Zr1 2.087712 1_555
O29 P9 1.512275 1_555
O30 P10 1.512275 1_555
O31 P11 1.581948 1_555
O31 Zr0 2.087712 1_554
O32 P4 1.521405 1_555
O33 P5 1.579118 1_555
O33 Zr3 2.096915 1_555
O34 P6 1.579118 1_555
O34 Zr2 2.096915 1_554
O35 P7 1.521405 1_555
O36 P8 1.521405 1_555
O37 P9 1.579118 1_555
O37 Zr1 2.096915 1_455
O38 P10 1.579118 1_555
O38 Zr0 2.096915 1_454
O39 P11 1.521405 1_555
O40 P0 1.538496 1_555
O41 P0 1.570152 1_655
O41 Zr0 2.138364 1_555
O42 P1 1.570152 1_655
O42 Zr1 2.138364 1_555
O43 P1 1.538496 1_555
O44 P2 1.538496 1_555
O45 P2 1.570152 1_555
O45 Zr2 2.138364 1_555
O46 P3 1.570152 1_555
O46 Zr3 2.138364 1_555
O47 P3 1.538496 1_555
