# generated using pymatgen
data_CoNiSn
_symmetry_space_group_name_H-M   'P 1'
_cell_length_a   4.25877086
_cell_length_b   4.25877086
_cell_length_c   5.29347500
_cell_angle_alpha   90.00000000
_cell_angle_beta   90.00000000
_cell_angle_gamma   120.00001333
_symmetry_Int_Tables_number   1
_chemical_formula_structural   CoNiSn
_chemical_formula_sum   'Co2 Ni2 Sn2'
_cell_volume   83.14573695
_cell_formula_units_Z   2
loop_
 _symmetry_equiv_pos_site_id
 _symmetry_equiv_pos_as_xyz
  1  'x, y, z'
loop_
 _atom_site_type_symbol
 _atom_site_label
 _atom_site_symmetry_multiplicity
 _atom_site_fract_x
 _atom_site_fract_y
 _atom_site_fract_z
 _atom_site_occupancy
  Co  Co0  1  0.00000000  0.00000000  0.00000000  1
  Co  Co1  1  0.00000000  0.00000000  0.50000000  1
  Ni  Ni0  1  0.33333300  0.66666700  0.75000000  1
  Ni  Ni1  1  0.66666700  0.33333300  0.25000000  1
  Sn  Sn0  1  0.33333300  0.66666700  0.25000000  1
  Sn  Sn1  1  0.66666700  0.33333300  0.75000000  1
loop_
_geom_bond_atom_site_label_1
_geom_bond_atom_site_label_2
_geom_bond_distance
_geom_bond_site_symmetry_2
Co0 Co1 2.646737 1_555
Co0 Co1 2.646737 1_554
Co0 Sn0 2.792311 1_545
Co0 Ni0 2.792311 1_544
Co0 Ni1 2.792311 1_455
Co0 Sn1 2.792311 1_454
Co0 Sn1 2.792314 1_554
Co0 Ni1 2.792314 1_555
Co0 Sn0 2.792314 1_445
Co0 Ni1 2.792314 1_445
Co0 Sn0 2.792314 1_555
Co0 Ni0 2.792314 1_554
Co0 Sn1 2.792314 1_444
Co0 Ni0 2.792314 1_444
Co1 Sn0 2.792311 1_545
Co1 Ni1 2.792311 1_455
Co1 Ni0 2.792311 1_545
Co1 Sn1 2.792311 1_455
Co1 Sn1 2.792314 1_555
Co1 Ni0 2.792314 1_445
Co1 Ni1 2.792314 1_555
Co1 Sn0 2.792314 1_445
Co1 Ni1 2.792314 1_445
Co1 Sn0 2.792314 1_555
Co1 Sn1 2.792314 1_445
Co1 Ni0 2.792314 1_555
Ni0 Sn1 2.458800 1_455
Ni0 Sn1 2.458800 1_565
Ni0 Sn1 2.458808 1_555
Ni0 Sn0 2.646737 1_555
Ni0 Sn0 2.646737 1_556
Ni1 Sn0 2.458800 1_545
Ni1 Sn0 2.458800 1_655
Ni1 Sn0 2.458808 1_555
Ni1 Sn1 2.646737 1_555
Ni1 Sn1 2.646737 1_554
