# generated using pymatgen
data_Be4TeO7
_symmetry_space_group_name_H-M   'P 1'
_cell_length_a   5.35880829
_cell_length_b   5.35880833
_cell_length_c   5.35881017
_cell_angle_alpha   60.00000092
_cell_angle_beta   60.00000071
_cell_angle_gamma   60.00000418
_symmetry_Int_Tables_number   1
_chemical_formula_structural   Be4TeO7
_chemical_formula_sum   'Be4 Te1 O7'
_cell_volume   108.81526870
_cell_formula_units_Z   1
loop_
 _symmetry_equiv_pos_site_id
 _symmetry_equiv_pos_as_xyz
  1  'x, y, z'
loop_
 _atom_site_type_symbol
 _atom_site_label
 _atom_site_symmetry_multiplicity
 _atom_site_fract_x
 _atom_site_fract_y
 _atom_site_fract_z
 _atom_site_occupancy
  Be  Be0  1  0.62710617  0.62710617  0.62710617  1
  Be  Be1  1  0.62710617  0.11868148  0.62710617  1
  Be  Be2  1  0.62710617  0.62710617  0.11868148  1
  Be  Be3  1  0.11868148  0.62710617  0.62710617  1
  Te  Te0  1  0.00000000  -0.00000000  0.00000000  1
  O  O0  1  0.75000000  0.75000000  0.75000000  1
  O  O1  1  0.74702421  0.25297579  0.25297579  1
  O  O2  1  0.25297579  0.25297579  0.74702421  1
  O  O3  1  0.74702421  0.74702421  0.25297579  1
  O  O4  1  0.25297579  0.74702421  0.74702421  1
  O  O5  1  0.25297579  0.74702421  0.25297579  1
  O  O6  1  0.74702421  0.25297579  0.74702421  1
loop_
_geom_bond_atom_site_label_1
_geom_bond_atom_site_label_2
_geom_bond_distance
_geom_bond_site_symmetry_2
Be0 O0 1.613147 1_555
Be0 O4 1.637592 1_555
Be0 O6 1.637592 1_555
Be0 O3 1.637593 1_555
Be1 O0 1.613147 1_545
Be1 O2 1.637592 1_555
Be1 O6 1.637593 1_555
Be1 O1 1.637593 1_555
Be2 O0 1.613147 1_554
Be2 O5 1.637592 1_555
Be2 O1 1.637593 1_555
Be2 O3 1.637593 1_555
Be3 O0 1.613147 1_455
Be3 O2 1.637593 1_555
Be3 O4 1.637593 1_555
Be3 O5 1.637593 1_555
O1 Te0 1.917177 1_655
O2 Te0 1.917177 1_556
O3 Te0 1.917177 1_665
O4 Te0 1.917177 1_566
O5 Te0 1.917177 1_565
O6 Te0 1.917177 1_656
