# generated using pymatgen
data_K2SeBr6
_symmetry_space_group_name_H-M   'P 1'
_cell_length_a   7.41020917
_cell_length_b   7.41020856
_cell_length_c   7.41020880
_cell_angle_alpha   59.99999436
_cell_angle_beta   59.99999702
_cell_angle_gamma   59.99999796
_symmetry_Int_Tables_number   1
_chemical_formula_structural   K2SeBr6
_chemical_formula_sum   'K2 Se1 Br6'
_cell_volume   287.72414698
_cell_formula_units_Z   1
loop_
 _symmetry_equiv_pos_site_id
 _symmetry_equiv_pos_as_xyz
  1  'x, y, z'
loop_
 _atom_site_type_symbol
 _atom_site_label
 _atom_site_symmetry_multiplicity
 _atom_site_fract_x
 _atom_site_fract_y
 _atom_site_fract_z
 _atom_site_occupancy
  K  K0  1  0.25000000  0.25000000  0.25000000  1
  K  K1  1  0.75000000  0.75000000  0.75000000  1
  Se  Se0  1  0.00000000  -0.00000000  -0.00000000  1
  Br  Br0  1  0.75389353  0.24610647  0.24610647  1
  Br  Br1  1  0.75389353  0.75389353  0.24610647  1
  Br  Br2  1  0.24610647  0.24610647  0.75389353  1
  Br  Br3  1  0.75389353  0.24610647  0.75389353  1
  Br  Br4  1  0.24610647  0.75389353  0.24610647  1
  Br  Br5  1  0.24610647  0.75389353  0.75389353  1
loop_
_geom_bond_atom_site_label_1
_geom_bond_atom_site_label_2
_geom_bond_distance
_geom_bond_site_symmetry_2
Br0 Se0 2.579102 1_655
Br0 K1 3.705329 1_554
Br0 K1 3.705329 1_545
Br0 K0 3.705329 1_555
Br0 K0 3.705329 1_655
Br1 Se0 2.579102 1_665
Br1 K0 3.705329 1_655
Br1 K0 3.705329 1_565
Br1 K1 3.705329 1_555
Br1 K1 3.705329 1_554
Br2 Se0 2.579102 1_556
Br2 K1 3.705329 1_455
Br2 K1 3.705329 1_545
Br2 K0 3.705329 1_555
Br2 K0 3.705329 1_556
Br3 Se0 2.579102 1_656
Br3 K1 3.705329 1_555
Br3 K1 3.705329 1_545
Br3 K0 3.705329 1_655
Br3 K0 3.705329 1_556
Br4 Se0 2.579102 1_565
Br4 K0 3.705329 1_555
Br4 K0 3.705329 1_565
Br4 K1 3.705329 1_455
Br4 K1 3.705329 1_554
Br5 Se0 2.579102 1_566
Br5 K0 3.705329 1_556
Br5 K0 3.705329 1_565
Br5 K1 3.705329 1_555
Br5 K1 3.705329 1_455
