# generated using pymatgen
data_Na3Hf3Ga(PO4)6
_symmetry_space_group_name_H-M   'P 1'
_cell_length_a   8.82358601
_cell_length_b   8.81342218
_cell_length_c   22.86445410
_cell_angle_alpha   90.00095822
_cell_angle_beta   89.99837634
_cell_angle_gamma   120.18614882
_symmetry_Int_Tables_number   1
_chemical_formula_structural   Na3Hf3Ga(PO4)6
_chemical_formula_sum   'Na9 Hf9 Ga3 P18 O72'
_cell_volume   1536.96321820
_cell_formula_units_Z   3
loop_
 _symmetry_equiv_pos_site_id
 _symmetry_equiv_pos_as_xyz
  1  'x, y, z'
loop_
 _atom_site_type_symbol
 _atom_site_label
 _atom_site_symmetry_multiplicity
 _atom_site_fract_x
 _atom_site_fract_y
 _atom_site_fract_z
 _atom_site_occupancy
  Na  Na0  1  0.36674584  0.36208147  0.24756632  1
  Na  Na1  1  0.63775821  0.63317559  0.74792457  1
  Na  Na2  1  0.97092655  0.29955655  0.41407306  1
  Na  Na3  1  0.00064466  0.99210655  0.49753716  1
  Na  Na4  1  0.99986216  0.99986563  0.00114413  1
  Na  Na5  1  0.66718159  0.32539689  0.83191079  1
  Na  Na6  1  0.66745632  0.33350569  0.32845304  1
  Na  Na7  1  0.33267275  0.67448342  0.16505064  1
  Na  Na8  1  0.32572194  0.66725320  0.66532385  1
  Hf  Hf0  1  0.00086637  0.00175750  0.85275664  1
  Hf  Hf1  1  0.00171766  0.00226478  0.64549788  1
  Hf  Hf2  1  0.99787176  0.99784669  0.14626184  1
  Hf  Hf3  1  0.66652718  0.33372281  0.98094564  1
  Hf  Hf4  1  0.66118922  0.33394957  0.48089511  1
  Hf  Hf5  1  0.33358881  0.66670277  0.02219172  1
  Hf  Hf6  1  0.33422144  0.66842491  0.52052278  1
  Hf  Hf7  1  0.33468149  0.67350617  0.31249116  1
  Hf  Hf8  1  0.32814733  0.66732111  0.81405544  1
  Ga  Ga0  1  0.99888833  0.99225208  0.34843547  1
  Ga  Ga1  1  0.66750259  0.32721422  0.68363135  1
  Ga  Ga2  1  0.67349791  0.33270448  0.18415462  1
  P  P0  1  0.29200168  0.00550357  0.25021510  1
  P  P1  1  0.71426286  0.70646204  0.25083054  1
  P  P2  1  0.99055243  0.28542440  0.25153314  1
  P  P3  1  0.29799832  0.29100781  0.74881186  1
  P  P4  1  0.99551298  0.70310680  0.74824888  1
  P  P5  1  0.70962448  0.00858003  0.74881563  1
  P  P6  1  0.95266939  0.33447493  0.58457605  1
  P  P7  1  0.38064291  0.04624528  0.58573870  1
  P  P8  1  0.66523396  0.61944437  0.58629067  1
  P  P9  1  0.95268666  0.61875859  0.08550728  1
  P  P10  1  0.66659858  0.04826367  0.08562125  1
  P  P11  1  0.38106935  0.33361986  0.08626971  1
  P  P12  1  0.62363818  0.66623855  0.91623934  1
  P  P13  1  0.04169008  0.37540835  0.91737933  1
  P  P14  1  0.33307851  0.95776757  0.91722287  1
  P  P15  1  0.63146145  0.95755440  0.41600678  1
  P  P16  1  0.32883302  0.36993234  0.41459112  1
  P  P17  1  0.04301000  0.67548337  0.41591500  1
  O  O0  1  0.20973736  0.03982004  0.30485882  1
  O  O1  1  0.82412506  0.79087228  0.30591477  1
  O  O2  1  0.96769147  0.17965120  0.30831755  1
  O  O3  1  0.20908909  0.17859189  0.80356749  1
  O  O4  1  0.96490079  0.78983209  0.80280680  1
  O  O5  1  0.82192055  0.03084932  0.80370450  1
  O  O6  1  0.79323847  0.96877603  0.69576390  1
  O  O7  1  0.17962425  0.20640560  0.69524626  1
  O  O8  1  0.02626419  0.82147681  0.69478827  1
  O  O9  1  0.79488717  0.82191138  0.19641042  1
  O  O10  1  0.03071286  0.20327079  0.19817510  1
  O  O11  1  0.17664893  0.97326098  0.19589185  1
  O  O12  1  0.86952260  0.36437121  0.63849197  1
  O  O13  1  0.49240932  0.12852296  0.63990663  1
  O  O14  1  0.63680348  0.51130337  0.64200746  1
  O  O15  1  0.87087212  0.50694016  0.13998084  1
  O  O16  1  0.63534467  0.12924793  0.14003885  1
  O  O17  1  0.48921176  0.36269127  0.14217911  1
  O  O18  1  0.46478555  0.30662674  0.03086112  1
  O  O19  1  0.84339648  0.53737364  0.02957085  1
  O  O20  1  0.69446669  0.15739332  0.02964168  1
  O  O21  1  0.46240220  0.15635274  0.52981613  1
  O  O22  1  0.69309298  0.53527353  0.53099743  1
  O  O23  1  0.84629557  0.30646446  0.52745276  1
  O  O24  1  0.53566726  0.69312871  0.96995423  1
  O  O25  1  0.15567910  0.46184520  0.97136228  1
  O  O26  1  0.30567429  0.84384720  0.97124001  1
  O  O27  1  0.54201064  0.84485922  0.47068266  1
  O  O28  1  0.29928189  0.45922537  0.46872227  1
  O  O29  1  0.15568333  0.69787107  0.47074500  1
  O  O30  1  0.12650354  0.63559375  0.36276981  1
  O  O31  1  0.51317066  0.87309297  0.36238583  1
  O  O32  1  0.35920052  0.48436892  0.35973665  1
  O  O33  1  0.12773920  0.48803702  0.86223987  1
  O  O34  1  0.36031733  0.87225636  0.86212600  1
  O  O35  1  0.51500182  0.64019106  0.85983382  1
  O  O36  1  0.02374654  0.83712856  0.40849887  1
  O  O37  1  0.81652897  0.98297928  0.40924907  1
  O  O38  1  0.16045404  0.18942813  0.40869940  1
  O  O39  1  0.02360204  0.19283360  0.91020091  1
  O  O40  1  0.16886956  0.97568149  0.90978181  1
  O  O41  1  0.80713675  0.83090345  0.90977246  1
  O  O42  1  0.97304470  0.17024428  0.59023116  1
  O  O43  1  0.19610326  0.02570613  0.59030613  1
  O  O44  1  0.82977520  0.80456434  0.59046185  1
  O  O45  1  0.97388321  0.80383823  0.09026843  1
  O  O46  1  0.83012626  0.02706010  0.09066427  1
  O  O47  1  0.19536681  0.16985045  0.09057435  1
  O  O48  1  0.69013719  0.16992754  0.74211481  1
  O  O49  1  0.48317791  0.31675443  0.74253962  1
  O  O50  1  0.82736559  0.52287695  0.74206676  1
  O  O51  1  0.68435977  0.51869243  0.24361366  1
  O  O52  1  0.83096091  0.30849090  0.24329926  1
  O  O53  1  0.47446372  0.17200227  0.24315931  1
  O  O54  1  0.64214582  0.50236553  0.92240049  1
  O  O55  1  0.85933343  0.35660302  0.92266907  1
  O  O56  1  0.49717128  0.14070051  0.92263840  1
  O  O57  1  0.65329528  0.14381909  0.42306652  1
  O  O58  1  0.49380590  0.35391228  0.42236015  1
  O  O59  1  0.86249681  0.50307365  0.42327394  1
  O  O60  1  0.36020229  0.49719772  0.07817772  1
  O  O61  1  0.13749348  0.64056790  0.07795452  1
  O  O62  1  0.50331298  0.86269908  0.07802482  1
  O  O63  1  0.35907322  0.86151846  0.57778651  1
  O  O64  1  0.50190061  0.63988675  0.57762088  1
  O  O65  1  0.13846554  0.49770422  0.57725478  1
  O  O66  1  0.30989766  0.84009877  0.25679092  1
  O  O67  1  0.52587224  0.68331349  0.25723454  1
  O  O68  1  0.16374850  0.46901992  0.25751715  1
  O  O69  1  0.31982381  0.47745192  0.75596292  1
  O  O70  1  0.16039668  0.68659871  0.75544548  1
  O  O71  1  0.52888689  0.83590882  0.75616068  1
loop_
_geom_bond_atom_site_label_1
_geom_bond_atom_site_label_2
_geom_bond_distance
_geom_bond_site_symmetry_2
Na0 O53 2.306767 1_555
Na0 O68 2.417840 1_555
Na0 O51 2.424320 1_555
Na0 O67 2.457279 1_555
Na0 O17 2.639694 1_555
Na0 O0 2.783032 1_555
Na0 O32 2.795681 1_555
Na0 O10 2.802228 1_555
Na1 O50 2.323230 1_555
Na1 O49 2.414033 1_555
Na1 O71 2.424234 1_555
Na1 O69 2.432159 1_555
Na1 O14 2.647529 1_555
Na1 O35 2.791307 1_555
Na1 O4 2.793838 1_555
Na1 O6 2.823544 1_555
Na2 O38 2.320792 1_655
Na2 O37 2.414639 1_545
Na2 O59 2.429529 1_555
Na2 O57 2.431580 1_555
Na2 O2 2.633268 1_555
Na2 O28 2.799266 1_655
Na2 O30 2.818386 1_655
Na2 O23 2.828524 1_555
Na3 O36 2.516267 1_555
Na3 O37 2.566985 1_455
Na3 O38 2.583127 1_565
Na3 O44 2.648258 1_455
Na3 O43 2.654771 1_565
Na3 O42 2.720371 1_465
Na4 O45 2.606103 1_555
Na4 O47 2.608167 1_665
Na4 O46 2.617400 1_565
Na4 O39 2.627146 1_664
Na4 O41 2.632009 1_554
Na4 O40 2.636744 1_654
Na5 O48 2.532365 1_555
Na5 O49 2.587119 1_555
Na5 O56 2.597630 1_555
Na5 O50 2.602493 1_555
Na5 O55 2.605322 1_555
Na5 O54 2.666189 1_555
Na6 O51 2.490829 1_555
Na6 O52 2.498089 1_555
Na6 O53 2.508331 1_555
Na6 O58 2.695766 1_555
Na6 O57 2.698209 1_555
Na6 O59 2.703555 1_555
Na7 O62 2.542888 1_555
Na7 O61 2.550186 1_555
Na7 O60 2.612917 1_555
Na7 O66 2.620242 1_555
Na7 O67 2.687272 1_555
Na7 O68 2.693750 1_555
Na8 O63 2.552922 1_555
Na8 O65 2.556356 1_555
Na8 O70 2.579339 1_555
Na8 O64 2.621590 1_555
Na8 O69 2.647343 1_555
Na8 O71 2.656538 1_555
Hf0 O3 2.046919 1_555
Hf0 O5 2.055214 1_455
Hf0 O39 2.064347 1_555
Hf0 O40 2.071965 1_545
Hf0 O4 2.073056 1_445
Hf0 O41 2.073739 1_445
Hf1 O7 2.038363 1_555
Hf1 O8 2.050110 1_545
Hf1 O43 2.054392 1_555
Hf1 O42 2.056539 1_455
Hf1 O6 2.060534 1_445
Hf1 O44 2.064683 1_445
Hf2 O9 2.033243 1_555
Hf2 O11 2.041286 1_655
Hf2 O10 2.059878 1_665
Hf2 O45 2.059984 1_555
Hf2 O46 2.063093 1_565
Hf2 O47 2.073493 1_665
Hf3 O19 2.018991 1_556
Hf3 O18 2.025013 1_556
Hf3 O20 2.025073 1_556
Hf3 O56 2.085183 1_555
Hf3 O55 2.089315 1_555
Hf3 O54 2.090196 1_555
Hf4 O21 2.004184 1_555
Hf4 O22 2.009363 1_555
Hf4 O23 2.063377 1_555
Hf4 O58 2.065167 1_555
Hf4 O57 2.107995 1_555
Hf4 O59 2.109510 1_555
Hf5 O25 2.055384 1_554
Hf5 O26 2.059644 1_554
Hf5 O24 2.059698 1_554
Hf5 O62 2.062743 1_555
Hf5 O61 2.066775 1_555
Hf5 O60 2.068437 1_555
Hf6 O27 2.052085 1_555
Hf6 O29 2.062930 1_555
Hf6 O63 2.069590 1_555
Hf6 O65 2.077592 1_555
Hf6 O28 2.079813 1_555
Hf6 O64 2.081104 1_555
Hf7 O31 2.022415 1_555
Hf7 O66 2.036784 1_555
Hf7 O30 2.046949 1_555
Hf7 O67 2.074333 1_555
Hf7 O32 2.086906 1_555
Hf7 O68 2.090285 1_555
Hf8 O33 2.006878 1_555
Hf8 O34 2.008799 1_555
Hf8 O35 2.065816 1_555
Hf8 O70 2.066057 1_555
Hf8 O69 2.108614 1_555
Hf8 O71 2.109653 1_555
Ga0 O1 1.928968 1_555
Ga0 O0 1.960943 1_665
Ga0 O2 2.025414 1_565
Ga0 O36 2.026055 1_655
Ga0 O37 2.096857 1_555
Ga0 O38 2.111770 1_665
Ga1 O13 1.931906 1_555
Ga1 O12 1.939788 1_555
Ga1 O48 2.007014 1_555
Ga1 O14 2.013332 1_555
Ga1 O50 2.074245 1_555
Ga1 O49 2.077727 1_555
Ga2 O15 1.929194 1_555
Ga2 O16 1.933665 1_555
Ga2 O17 2.016757 1_555
Ga2 O52 2.025579 1_555
Ga2 O51 2.094353 1_555
Ga2 O53 2.099741 1_555
O0 P0 1.549212 1_555
O1 P1 1.534351 1_555
O2 P2 1.551243 1_555
O3 P3 1.543638 1_555
O4 P4 1.555908 1_555
O5 P5 1.549143 1_555
O6 P5 1.548856 1_565
O7 P3 1.537461 1_555
O8 P4 1.539961 1_455
O9 P1 1.536789 1_555
O10 P2 1.547965 1_455
O11 P0 1.539046 1_565
O12 P6 1.523712 1_555
O13 P7 1.520926 1_555
O14 P8 1.534213 1_555
O15 P9 1.525844 1_555
O16 P10 1.526919 1_555
O17 P11 1.537693 1_555
O18 P11 1.543989 1_555
O19 P9 1.544218 1_555
O20 P10 1.544661 1_555
O21 P7 1.546949 1_555
O22 P8 1.546739 1_555
O23 P6 1.553974 1_555
O24 P12 1.533621 1_555
O25 P13 1.531323 1_555
O26 P14 1.532262 1_555
O27 P15 1.544003 1_555
O28 P16 1.557394 1_555
O29 P17 1.549769 1_555
O30 P17 1.550255 1_555
O31 P15 1.537972 1_555
O32 P16 1.546074 1_555
O33 P13 1.547044 1_555
O34 P14 1.547529 1_555
O35 P12 1.553573 1_555
O36 P17 1.526691 1_555
O37 P15 1.540343 1_555
O38 P16 1.542553 1_555
O39 P13 1.543818 1_555
O40 P14 1.543787 1_555
O41 P12 1.544856 1_555
O42 P6 1.551065 1_555
O43 P7 1.548747 1_555
O44 P8 1.548165 1_555
O45 P9 1.549450 1_555
O46 P10 1.549629 1_555
O47 P11 1.549044 1_555
O48 P5 1.523512 1_555
O49 P3 1.539149 1_555
O50 P4 1.540917 1_555
O51 P1 1.548033 1_555
O52 P2 1.532192 1_555
O53 P0 1.547761 1_555
O54 P12 1.539368 1_555
O55 P13 1.537178 1_655
O56 P14 1.537403 1_545
O57 P15 1.562072 1_545
O58 P16 1.541788 1_555
O59 P17 1.562151 1_655
O60 P11 1.553552 1_555
O61 P9 1.552612 1_455
O62 P10 1.552785 1_565
O63 P7 1.551871 1_565
O64 P8 1.552387 1_555
O65 P6 1.553546 1_455
O66 P0 1.550537 1_565
O67 P1 1.576447 1_555
O68 P2 1.576613 1_455
O69 P3 1.563882 1_555
O70 P4 1.541997 1_455
O71 P5 1.564227 1_565
