# generated using pymatgen
data_Na2MgMn4O8
_symmetry_space_group_name_H-M   'P 1'
_cell_length_a   6.20343090
_cell_length_b   6.16261634
_cell_length_c   5.86810207
_cell_angle_alpha   61.56869960
_cell_angle_beta   90.00000099
_cell_angle_gamma   112.61776041
_symmetry_Int_Tables_number   1
_chemical_formula_structural   Na2MgMn4O8
_chemical_formula_sum   'Na2 Mg1 Mn4 O8'
_cell_volume   177.41123328
_cell_formula_units_Z   1
loop_
 _symmetry_equiv_pos_site_id
 _symmetry_equiv_pos_as_xyz
  1  'x, y, z'
loop_
 _atom_site_type_symbol
 _atom_site_label
 _atom_site_symmetry_multiplicity
 _atom_site_fract_x
 _atom_site_fract_y
 _atom_site_fract_z
 _atom_site_occupancy
  Na  Na0  1  0.90391756  0.95291298  0.02354351  1
  Na  Na1  1  0.84608244  0.54708702  0.72645649  1
  Mg  Mg0  1  0.37500000  0.25000000  0.87500000  1
  Mn  Mn0  1  0.37500000  0.25000000  0.37500000  1
  Mn  Mn1  1  0.87500000  0.25000000  0.37500000  1
  Mn  Mn2  1  0.37500000  0.75000000  0.37500000  1
  Mn  Mn3  1  0.37500000  0.75000000  0.87500000  1
  O  O0  1  0.15807788  0.27552265  0.12859161  1
  O  O1  1  0.59192212  0.22447735  0.15411426  1
  O  O2  1  0.53541843  0.65007731  0.17496184  1
  O  O3  1  0.19237864  0.80338210  0.09830945  1
  O  O4  1  0.59192212  0.22447735  0.62140839  1
  O  O5  1  0.15807788  0.27552265  0.59588574  1
  O  O6  1  0.55762136  0.69661790  0.65169055  1
  O  O7  1  0.21458157  0.84992269  0.57503816  1
loop_
_geom_bond_atom_site_label_1
_geom_bond_atom_site_label_2
_geom_bond_distance
_geom_bond_site_symmetry_2
Na0 O2 2.153518 1_555
Na0 O3 2.264319 1_655
Na0 O0 2.361025 1_665
Na0 O5 2.361025 1_664
Na1 O7 2.153518 1_655
Na1 O6 2.264319 1_555
Na1 O4 2.361025 1_555
Na1 O1 2.361025 1_556
Mg0 O5 2.106100 1_555
Mg0 O1 2.106100 1_556
Mg0 O0 2.106100 1_556
Mg0 O4 2.106100 1_555
Mg0 O6 2.177916 1_555
Mg0 O3 2.177916 1_546
Mn0 O2 1.950389 1_555
Mn0 O7 1.950389 1_545
Mn0 O0 1.967880 1_555
Mn0 O4 1.967880 1_555
Mn0 O5 1.967880 1_555
Mn0 O1 1.967880 1_555
Mn1 O1 2.184086 1_555
Mn1 O5 2.184086 1_655
Mn1 O0 2.184086 1_655
Mn1 O4 2.184086 1_555
Mn1 O3 2.775917 1_655
Mn1 O6 2.775917 1_545
Mn2 O6 1.950876 1_555
Mn2 O3 1.950876 1_555
Mn2 O2 1.976625 1_555
Mn2 O7 1.976625 1_555
Mn2 O1 2.324952 1_565
Mn2 O5 2.324952 1_555
Mn3 O3 1.950881 1_556
Mn3 O6 1.950881 1_555
Mn3 O2 1.976629 1_556
Mn3 O7 1.976629 1_555
Mn3 O4 2.324952 1_565
Mn3 O0 2.324952 1_556
