# generated using pymatgen
data_Dy2MgNb2O8
_symmetry_space_group_name_H-M   'P 1'
_cell_length_a   6.90122885
_cell_length_b   5.66327237
_cell_length_c   6.28305722
_cell_angle_alpha   108.42348126
_cell_angle_beta   105.42199774
_cell_angle_gamma   117.25571495
_symmetry_Int_Tables_number   1
_chemical_formula_structural   Dy2MgNb2O8
_chemical_formula_sum   'Dy2 Mg1 Nb2 O8'
_cell_volume   180.90204270
_cell_formula_units_Z   1
loop_
 _symmetry_equiv_pos_site_id
 _symmetry_equiv_pos_as_xyz
  1  'x, y, z'
loop_
 _atom_site_type_symbol
 _atom_site_label
 _atom_site_symmetry_multiplicity
 _atom_site_fract_x
 _atom_site_fract_y
 _atom_site_fract_z
 _atom_site_occupancy
  Dy  Dy0  1  0.52964400  0.35621900  0.22737400  1
  Dy  Dy1  1  0.46852800  0.67096700  0.78805700  1
  Mg  Mg0  1  0.96272300  0.21473200  0.29559000  1
  Nb  Nb0  1  0.93564400  0.24901900  0.77810700  1
  Nb  Nb1  1  0.07340200  0.74731900  0.21109000  1
  O  O0  1  0.76485500  0.22905600  0.01138600  1
  O  O1  1  0.24268400  0.28528400  0.87643700  1
  O  O2  1  0.78766700  0.26921700  0.48969800  1
  O  O3  1  0.71540400  0.78449900  0.61161600  1
  O  O4  1  0.26703300  0.22120700  0.38760900  1
  O  O5  1  0.77095600  0.74703500  0.12984400  1
  O  O6  1  0.21927400  0.68681300  0.46517400  1
  O  O7  1  0.25177000  0.79384100  0.99885200  1
loop_
_geom_bond_atom_site_label_1
_geom_bond_atom_site_label_2
_geom_bond_distance
_geom_bond_site_symmetry_2
Dy0 O4 2.251784 1_555
Dy0 O3 2.271469 1_555
Dy0 O1 2.309575 1_554
Dy0 O2 2.426128 1_555
Dy0 O7 2.435912 1_544
Dy0 O5 2.464059 1_555
Dy0 O0 2.572888 1_555
Dy1 O3 2.235364 1_555
Dy1 O5 2.315435 1_556
Dy1 O6 2.341594 1_555
Dy1 O4 2.365634 1_555
Dy1 O1 2.370079 1_555
Dy1 O0 2.427142 1_566
Dy1 O7 2.429131 1_555
Mg0 O2 1.982252 1_555
Mg0 O0 1.988978 1_555
Mg0 O4 2.004090 1_655
Mg0 O5 2.040692 1_545
Mg0 O6 2.068407 1_655
Nb0 O2 1.895638 1_555
Nb0 O1 1.933592 1_655
Nb0 O3 2.019333 1_545
Nb0 O0 2.109928 1_556
Nb0 O7 2.392426 1_655
Nb1 O6 1.867190 1_555
Nb1 O5 2.011696 1_455
Nb1 O7 2.039842 1_554
Nb1 O4 2.064924 1_565
Nb1 O0 2.291290 1_455
