# generated using pymatgen
data_BaNdMgCo2O5
_symmetry_space_group_name_H-M   'P 1'
_cell_length_a   3.83039641
_cell_length_b   4.18589396
_cell_length_c   9.68652653
_cell_angle_alpha   90.00000000
_cell_angle_beta   90.00000000
_cell_angle_gamma   90.00000000
_symmetry_Int_Tables_number   1
_chemical_formula_structural   BaNdMgCo2O5
_chemical_formula_sum   'Ba1 Nd1 Mg1 Co2 O5'
_cell_volume   155.31021334
_cell_formula_units_Z   1
loop_
 _symmetry_equiv_pos_site_id
 _symmetry_equiv_pos_as_xyz
  1  'x, y, z'
loop_
 _atom_site_type_symbol
 _atom_site_label
 _atom_site_symmetry_multiplicity
 _atom_site_fract_x
 _atom_site_fract_y
 _atom_site_fract_z
 _atom_site_occupancy
  Ba  Ba0  1  0.50000000  0.50000000  0.35413969  1
  Nd  Nd0  1  0.50000000  0.50000000  0.98792519  1
  Mg  Mg0  1  0.50000000  0.00000000  0.63446578  1
  Co  Co0  1  0.00000000  0.00000000  0.85643856  1
  Co  Co1  1  0.00000000  0.00000000  0.14552393  1
  O  O0  1  0.50000000  0.00000000  0.83460213  1
  O  O1  1  0.50000000  0.00000000  0.16907816  1
  O  O2  1  0.00000000  0.50000000  0.85191903  1
  O  O3  1  0.00000000  0.50000000  0.17367350  1
  O  O4  1  0.00000000  0.00000000  0.54223402  1
loop_
_geom_bond_atom_site_label_1
_geom_bond_atom_site_label_2
_geom_bond_distance
_geom_bond_site_symmetry_2
Ba0 O3 2.593030 1_655
Ba0 O3 2.593030 1_555
Ba0 O1 2.755695 1_555
Ba0 O1 2.755695 1_565
Nd0 O2 2.324564 1_655
Nd0 O2 2.324564 1_555
Nd0 O0 2.566350 1_565
Nd0 O0 2.566350 1_555
Nd0 O3 2.627795 1_656
Nd0 O3 2.627795 1_556
Nd0 O1 2.731218 1_556
Nd0 O1 2.731218 1_566
Mg0 O0 1.938626 1_555
Mg0 O4 2.113329 1_655
Mg0 O4 2.113329 1_555
Co0 O0 1.926843 1_555
Co0 O0 1.926843 1_455
Co0 O2 2.093405 1_555
Co0 O2 2.093405 1_545
Co1 O1 1.928741 1_455
Co1 O1 1.928741 1_555
Co1 O3 2.110634 1_545
Co1 O3 2.110634 1_555
