# generated using pymatgen
data_NaCo2(MoO5)2
_symmetry_space_group_name_H-M   'P 1'
_cell_length_a   5.79550518
_cell_length_b   5.82902374
_cell_length_c   8.09776612
_cell_angle_alpha   66.74396496
_cell_angle_beta   66.16655539
_cell_angle_gamma   61.48117176
_symmetry_Int_Tables_number   1
_chemical_formula_structural   NaCo2(MoO5)2
_chemical_formula_sum   'Na1 Co2 Mo2 O10'
_cell_volume   212.81746820
_cell_formula_units_Z   1
loop_
 _symmetry_equiv_pos_site_id
 _symmetry_equiv_pos_as_xyz
  1  'x, y, z'
loop_
 _atom_site_type_symbol
 _atom_site_label
 _atom_site_symmetry_multiplicity
 _atom_site_fract_x
 _atom_site_fract_y
 _atom_site_fract_z
 _atom_site_occupancy
  Na  Na0  1  0.00000000  0.00000000  0.00000000  1
  Co  Co0  1  0.00000000  0.50000000  0.50000000  1
  Co  Co1  1  0.50000000  0.00000000  0.50000000  1
  Mo  Mo0  1  0.42894400  0.43104700  0.76292000  1
  Mo  Mo1  1  0.57105600  0.56895300  0.23708000  1
  O  O0  1  0.82454800  0.79697000  0.57748600  1
  O  O1  1  0.17545200  0.20303000  0.42251400  1
  O  O2  1  0.79223400  0.30509800  0.73789900  1
  O  O3  1  0.29853300  0.78718100  0.74559200  1
  O  O4  1  0.20776600  0.69490200  0.26210100  1
  O  O5  1  0.70146700  0.21281900  0.25440800  1
  O  O6  1  0.28309300  0.27870400  0.98699500  1
  O  O7  1  0.71690700  0.72129600  0.01300500  1
  O  O8  1  0.34535700  0.33990000  0.60120500  1
  O  O9  1  0.65464300  0.66010000  0.39879500  1
loop_
_geom_bond_atom_site_label_1
_geom_bond_atom_site_label_2
_geom_bond_distance
_geom_bond_site_symmetry_2
Na0 O5 2.421693 1_455
Na0 O3 2.421693 1_544
Na0 O4 2.481372 1_545
Na0 O2 2.481372 1_454
Na0 O6 2.759082 1_554
Na0 O7 2.759082 1_445
Co0 O0 1.756555 1_455
Co0 O1 1.756555 1_555
Co0 O4 2.038406 1_555
Co0 O2 2.038406 1_455
Co0 O8 2.118178 1_555
Co0 O9 2.118178 1_455
Co1 O0 1.890490 1_545
Co1 O1 1.890490 1_555
Co1 O8 2.096044 1_555
Co1 O9 2.096044 1_545
Co1 O3 2.101336 1_545
Co1 O5 2.101336 1_555
Mo0 O6 1.732142 1_555
Mo0 O3 1.804942 1_555
Mo0 O2 1.819245 1_555
Mo0 O8 1.881404 1_555
Mo1 O7 1.732142 1_555
Mo1 O5 1.804942 1_555
Mo1 O4 1.819245 1_555
Mo1 O9 1.881404 1_555
