# generated using pymatgen
data_Na2Ca2Ti2SiS5O24
_symmetry_space_group_name_H-M   'P 1'
_cell_length_a   8.95847980
_cell_length_b   8.92135748
_cell_length_c   23.18751021
_cell_angle_alpha   90.03469999
_cell_angle_beta   90.17878810
_cell_angle_gamma   119.97893664
_symmetry_Int_Tables_number   1
_chemical_formula_structural   Na2Ca2Ti2SiS5O24
_chemical_formula_sum   'Na6 Ca6 Ti6 Si3 S15 O72'
_cell_volume   1605.23521695
_cell_formula_units_Z   3
loop_
 _symmetry_equiv_pos_site_id
 _symmetry_equiv_pos_as_xyz
  1  'x, y, z'
loop_
 _atom_site_type_symbol
 _atom_site_label
 _atom_site_symmetry_multiplicity
 _atom_site_fract_x
 _atom_site_fract_y
 _atom_site_fract_z
 _atom_site_occupancy
  Na  Na0  1  0.01404601  0.00680250  0.50062620  1
  Na  Na1  1  0.99905381  0.00439431  0.99950032  1
  Na  Na2  1  0.66411121  0.30678704  0.82587689  1
  Na  Na3  1  0.64697039  0.32340181  0.33418425  1
  Na  Na4  1  0.31748162  0.66092549  0.16706653  1
  Na  Na5  1  0.32827803  0.66740425  0.66306447  1
  Ca  Ca0  1  0.01021244  0.00527030  0.34523093  1
  Ca  Ca1  1  0.00036307  0.00188787  0.85484073  1
  Ca  Ca2  1  0.66258266  0.32948379  0.68494686  1
  Ca  Ca3  1  0.65973544  0.32994804  0.48344684  1
  Ca  Ca4  1  0.33164222  0.66778728  0.02626261  1
  Ca  Ca5  1  0.33451391  0.66819556  0.52069122  1
  Ti  Ti0  1  0.98550102  0.99897128  0.65473420  1
  Ti  Ti1  1  0.01294973  0.98166779  0.14926627  1
  Ti  Ti2  1  0.67161212  0.33315202  0.18571736  1
  Ti  Ti3  1  0.68532801  0.35359353  0.98237719  1
  Ti  Ti4  1  0.32770645  0.67798662  0.31457739  1
  Ti  Ti5  1  0.34461337  0.68197848  0.80975722  1
  Si  Si0  1  0.30762870  0.00221402  0.24928808  1
  Si  Si1  1  0.70329258  0.00067457  0.75485495  1
  Si  Si2  1  0.95023974  0.62444245  0.08764941  1
  S  S0  1  0.69937302  0.69852281  0.24551574  1
  S  S1  1  0.00203191  0.29961703  0.24534533  1
  S  S2  1  0.28708131  0.30560339  0.75193404  1
  S  S3  1  0.01488267  0.71321229  0.75118718  1
  S  S4  1  0.97000873  0.32016207  0.58742501  1
  S  S5  1  0.34366612  0.02820222  0.58721341  1
  S  S6  1  0.68160411  0.65218045  0.58762995  1
  S  S7  1  0.68735302  0.06404915  0.08415358  1
  S  S8  1  0.37755050  0.31553749  0.08586530  1
  S  S9  1  0.61636721  0.64907960  0.91884411  1
  S  S10  1  0.03175418  0.37940973  0.91992218  1
  S  S11  1  0.35297783  0.96561725  0.91663043  1
  S  S12  1  0.62173556  0.95904849  0.41166170  1
  S  S13  1  0.33700665  0.38326425  0.41100047  1
  S  S14  1  0.03767691  0.66107679  0.41275773  1
  O  O0  1  0.24603347  0.05734675  0.30444296  1
  O  O1  1  0.79908486  0.76136181  0.29859410  1
  O  O2  1  0.95942183  0.20198645  0.29888924  1
  O  O3  1  0.22043428  0.20411038  0.80416778  1
  O  O4  1  0.99594631  0.78731142  0.80436635  1
  O  O5  1  0.80420132  0.01194699  0.81112582  1
  O  O6  1  0.80906592  0.97409080  0.69720799  1
  O  O7  1  0.17665491  0.21463277  0.70013948  1
  O  O8  1  0.03686331  0.82556971  0.69974587  1
  O  O9  1  0.79375547  0.81587727  0.19541968  1
  O  O10  1  0.02517342  0.20635808  0.19603061  1
  O  O11  1  0.16423964  0.96252405  0.19373512  1
  O  O12  1  0.88533875  0.34291786  0.63722463  1
  O  O13  1  0.45357372  0.11490667  0.63674661  1
  O  O14  1  0.66006888  0.54707102  0.63801471  1
  O  O15  1  0.82708243  0.50120168  0.13874505  1
  O  O16  1  0.67009694  0.15066041  0.13644144  1
  O  O17  1  0.47781403  0.32337067  0.13769440  1
  O  O18  1  0.45815749  0.29519927  0.03234547  1
  O  O19  1  0.83087127  0.52905317  0.02691694  1
  O  O20  1  0.69590217  0.16656300  0.03113237  1
  O  O21  1  0.41655456  0.12264504  0.53226226  1
  O  O22  1  0.70347032  0.57761812  0.53336937  1
  O  O23  1  0.87326221  0.29293604  0.53286534  1
  O  O24  1  0.53757007  0.67080848  0.97053331  1
  O  O25  1  0.13086324  0.46391117  0.97169720  1
  O  O26  1  0.33383879  0.86419883  0.96806658  1
  O  O27  1  0.53938752  0.86992890  0.46458065  1
  O  O28  1  0.33710089  0.46898577  0.46449159  1
  O  O29  1  0.13075692  0.66956064  0.46500570  1
  O  O30  1  0.14602288  0.66376210  0.35982793  1
  O  O31  1  0.51091612  0.85170083  0.35907595  1
  O  O32  1  0.33591366  0.48832545  0.35897117  1
  O  O33  1  0.10785316  0.47916257  0.86687100  1
  O  O34  1  0.36150407  0.86716249  0.86316551  1
  O  O35  1  0.51183359  0.62854955  0.86584539  1
  O  O36  1  0.01630185  0.81319172  0.40939981  1
  O  O37  1  0.79108442  0.97411456  0.40637954  1
  O  O38  1  0.18058310  0.21117660  0.40995199  1
  O  O39  1  0.99989897  0.20113508  0.91816171  1
  O  O40  1  0.20508869  0.99303713  0.91217162  1
  O  O41  1  0.79582135  0.78974995  0.91504987  1
  O  O42  1  0.98301937  0.15739990  0.59551816  1
  O  O43  1  0.17286612  0.01853073  0.59486312  1
  O  O44  1  0.84844889  0.82471216  0.59463037  1
  O  O45  1  0.95784882  0.81577787  0.09394715  1
  O  O46  1  0.84838222  0.05641223  0.08737767  1
  O  O47  1  0.19994167  0.15744819  0.09038563  1
  O  O48  1  0.65183888  0.14498467  0.74714254  1
  O  O49  1  0.46592476  0.35052275  0.74294009  1
  O  O50  1  0.87150826  0.53752716  0.74336559  1
  O  O51  1  0.67074041  0.51880605  0.23553949  1
  O  O52  1  0.85380400  0.33109329  0.23369264  1
  O  O53  1  0.49866686  0.15614447  0.22965971  1
  O  O54  1  0.61925754  0.47768621  0.92500094  1
  O  O55  1  0.85243847  0.36619748  0.92598322  1
  O  O56  1  0.51720379  0.13480975  0.91836941  1
  O  O57  1  0.62931799  0.12809401  0.40745072  1
  O  O58  1  0.49628570  0.37183875  0.40681458  1
  O  O59  1  0.87241986  0.49741308  0.40733656  1
  O  O60  1  0.36310830  0.47211954  0.08476855  1
  O  O61  1  0.13569598  0.64493121  0.08932265  1
  O  O62  1  0.53494859  0.89055065  0.08224303  1
  O  O63  1  0.31501822  0.84959301  0.58432754  1
  O  O64  1  0.53764194  0.68777512  0.58432454  1
  O  O65  1  0.14837011  0.46647603  0.58409167  1
  O  O66  1  0.31754277  0.82066107  0.25826398  1
  O  O67  1  0.52745919  0.68479408  0.24900825  1
  O  O68  1  0.16073958  0.47408788  0.25107265  1
  O  O69  1  0.28238635  0.47352428  0.75839614  1
  O  O70  1  0.18194516  0.70583180  0.75465451  1
  O  O71  1  0.51089118  0.80698328  0.76159280  1
loop_
_geom_bond_atom_site_label_1
_geom_bond_atom_site_label_2
_geom_bond_distance
_geom_bond_site_symmetry_2
Na0 O43 2.577123 1_555
Na0 O42 2.664044 1_455
Na0 O44 2.684587 1_445
Na0 O38 2.697501 1_555
Na0 O36 2.736631 1_545
Na0 O37 2.870583 1_445
Na1 O39 2.574632 1_555
Na1 O46 2.613686 1_556
Na1 O47 2.657334 1_656
Na1 O45 2.674432 1_546
Na1 O41 2.702822 1_545
Na1 O40 2.779825 1_645
Na2 O48 2.294719 1_555
Na2 O56 2.586372 1_555
Na2 O50 2.748583 1_555
Na2 O55 2.756046 1_555
Na2 O49 2.770320 1_555
Na2 O54 2.895275 1_555
Na3 O58 2.332699 1_555
Na3 O57 2.382655 1_555
Na3 O59 2.491650 1_555
Na3 O53 2.803595 1_555
Na3 O51 2.820122 1_555
Na3 O52 2.961026 1_555
Na4 O61 2.381442 1_555
Na4 O68 2.495258 1_555
Na4 O66 2.549130 1_555
Na4 O67 2.602076 1_555
Na4 O60 2.708298 1_555
Na4 O62 2.810847 1_555
Na5 O63 2.486838 1_555
Na5 O65 2.500888 1_555
Na5 O64 2.562313 1_555
Na5 O70 2.609973 1_555
Na5 O69 2.710492 1_555
Na5 O71 2.717318 1_555
Ca0 O0 2.146050 1_555
Ca0 O38 2.266393 1_555
Ca0 O2 2.288858 1_455
Ca0 O36 2.291136 1_545
Ca0 O1 2.313667 1_445
Ca0 O37 2.326756 1_445
Ca1 O5 2.066460 1_455
Ca1 O4 2.226486 1_445
Ca1 O3 2.232639 1_555
Ca1 O40 2.294937 1_545
Ca1 O39 2.306460 1_455
Ca1 O41 2.332806 1_445
Ca2 O48 2.154942 1_555
Ca2 O13 2.195881 1_555
Ca2 O12 2.235175 1_555
Ca2 O14 2.235849 1_555
Ca2 O49 2.300484 1_555
Ca2 O50 2.300508 1_555
Ca3 O21 2.332176 1_555
Ca3 O22 2.346177 1_555
Ca3 O23 2.387298 1_555
Ca3 O57 2.434163 1_555
Ca3 O58 2.443888 1_555
Ca3 O59 2.481191 1_555
Ca4 O25 2.204052 1_554
Ca4 O26 2.204609 1_554
Ca4 O61 2.218030 1_555
Ca4 O24 2.244791 1_554
Ca4 O62 2.305757 1_555
Ca4 O60 2.336510 1_555
Ca5 O28 2.212633 1_555
Ca5 O29 2.237589 1_555
Ca5 O27 2.239874 1_555
Ca5 O63 2.260069 1_555
Ca5 O64 2.276896 1_555
Ca5 O65 2.280353 1_555
O0 Si0 1.567444 1_555
O1 S0 1.455615 1_555
O2 S1 1.455265 1_655
O3 S2 1.452184 1_555
O4 S3 1.448686 1_655
O5 Si1 1.559292 1_555
O6 Si1 1.724232 1_565
O6 Ti0 1.782372 1_555
O7 S2 1.506224 1_555
O7 Ti0 2.106263 1_445
O8 S3 1.507303 1_555
O8 Ti0 2.098689 1_455
O9 S0 1.511058 1_555
O9 Ti1 2.073974 1_655
O10 S1 1.488441 1_555
O10 Ti1 2.232320 1_545
O11 Si0 1.723166 1_565
O11 Ti1 1.775419 1_555
O12 S4 1.452250 1_555
O13 S5 1.455229 1_555
O14 S6 1.450309 1_555
O15 Si2 1.620889 1_555
O15 Ti2 1.816176 1_555
O16 S7 1.486718 1_555
O16 Ti2 1.982895 1_555
O17 S8 1.478644 1_555
O17 Ti2 2.024389 1_555
O18 S8 1.493551 1_555
O18 Ti3 2.170578 1_554
O19 Si2 1.711889 1_555
O19 Ti3 1.779573 1_554
O20 S7 1.511866 1_555
O20 Ti3 2.056871 1_554
O21 S5 1.488787 1_555
O22 S6 1.481415 1_555
O23 S4 1.480897 1_555
O24 S9 1.454007 1_555
O25 S10 1.456451 1_555
O26 S11 1.455359 1_555
O27 S12 1.450069 1_555
O28 S13 1.456521 1_555
O29 S14 1.448892 1_555
O30 S14 1.559869 1_555
O30 Ti4 1.889587 1_555
O31 S12 1.558976 1_555
O31 Ti4 1.898874 1_555
O32 S13 1.531191 1_555
O32 Ti4 2.013449 1_555
O33 S10 1.473158 1_555
O33 Ti5 2.389888 1_555
O34 S11 1.542905 1_555
O34 Ti5 2.008103 1_555
O35 S9 1.497284 1_555
O35 Ti5 2.205659 1_555
O36 S14 1.464277 1_555
O37 S12 1.460164 1_555
O38 S13 1.473439 1_555
O39 S10 1.469322 1_655
O40 S11 1.465895 1_555
O41 S9 1.466953 1_555
O42 S4 1.525323 1_555
O42 Ti0 1.979161 1_545
O43 S5 1.499971 1_555
O43 Ti0 2.120668 1_445
O44 S6 1.525979 1_555
O44 Ti0 1.986395 1_555
O45 Si2 1.680201 1_555
O45 Ti1 1.828381 1_655
O46 S7 1.479464 1_555
O46 Ti1 2.376530 1_645
O47 S8 1.513390 1_555
O47 Ti1 2.126265 1_545
O48 Si1 1.579490 1_555
O49 S2 1.459987 1_555
O50 S3 1.457929 1_655
O51 S0 1.509343 1_555
O51 Ti2 2.022032 1_555
O52 S1 1.511845 1_655
O52 Ti2 1.980009 1_555
O53 Si0 1.636713 1_555
O53 Ti2 1.870574 1_555
O54 S9 1.548835 1_555
O54 Ti3 1.999417 1_555
O55 S10 1.557676 1_655
O55 Ti3 1.951384 1_555
O56 S11 1.491559 1_545
O56 Ti3 2.307730 1_555
O57 S12 1.478649 1_545
O58 S13 1.483932 1_555
O59 S14 1.475744 1_655
O60 S8 1.466092 1_555
O61 Si2 1.578380 1_455
O62 S7 1.466101 1_565
O63 S5 1.483396 1_565
O64 S6 1.476038 1_555
O65 S4 1.476302 1_455
O66 Si0 1.678894 1_565
O66 Ti4 1.857568 1_555
O67 S0 1.485163 1_555
O67 Ti4 2.329374 1_555
O68 S1 1.499598 1_555
O68 Ti4 2.231243 1_555
O69 S2 1.526829 1_555
O69 Ti5 2.035849 1_555
O70 S3 1.532457 1_555
O70 Ti5 2.024850 1_555
O71 Si1 1.733994 1_565
O71 Ti5 1.749743 1_555
