# generated using pymatgen
data_MgFe6(OF)6
_symmetry_space_group_name_H-M   'P 1'
_cell_length_a   5.13968838
_cell_length_b   7.69253107
_cell_length_c   5.73480436
_cell_angle_alpha   96.75464922
_cell_angle_beta   96.05634866
_cell_angle_gamma   85.78685127
_symmetry_Int_Tables_number   1
_chemical_formula_structural   MgFe6(OF)6
_chemical_formula_sum   'Mg1 Fe6 O6 F6'
_cell_volume   223.47924458
_cell_formula_units_Z   1
loop_
 _symmetry_equiv_pos_site_id
 _symmetry_equiv_pos_as_xyz
  1  'x, y, z'
loop_
 _atom_site_type_symbol
 _atom_site_label
 _atom_site_symmetry_multiplicity
 _atom_site_fract_x
 _atom_site_fract_y
 _atom_site_fract_z
 _atom_site_occupancy
  Mg  Mg0  1  0.49144600  0.49793500  0.49386500  1
  Fe  Fe0  1  0.54106000  0.69874300  0.09264800  1
  Fe  Fe1  1  0.48273000  0.02261500  0.50488500  1
  Fe  Fe2  1  0.47910700  0.31603400  0.88973000  1
  Fe  Fe3  1  0.01739000  0.67789500  0.69145100  1
  Fe  Fe4  1  0.98784000  0.33213700  0.33998800  1
  Fe  Fe5  1  0.99331600  0.99087600  0.00944200  1
  O  O0  1  0.83835900  0.77295000  0.97926900  1
  O  O1  1  0.68455000  0.09900600  0.81356900  1
  O  O2  1  0.64285600  0.44493200  0.18002100  1
  O  O3  1  0.36243800  0.56694600  0.82101800  1
  O  O4  1  0.33606000  0.26174600  0.53410000  1
  O  O5  1  0.32921800  0.91357400  0.19758900  1
  F  F0  1  0.82815300  0.43257300  0.66312300  1
  F  F1  1  0.81727900  0.08441100  0.31385300  1
  F  F2  1  0.65682300  0.74851500  0.48304500  1
  F  F3  1  0.16774700  0.23615900  0.02427800  1
  F  F4  1  0.15285700  0.58397300  0.35679700  1
  F  F5  1  0.19077300  0.92730900  0.69466500  1
loop_
_geom_bond_atom_site_label_1
_geom_bond_atom_site_label_2
_geom_bond_distance
_geom_bond_site_symmetry_2
Mg0 O2 2.021767 1_555
Mg0 O3 2.053760 1_555
Mg0 O4 2.083954 1_555
Fe0 O0 1.873128 1_554
Fe0 O3 1.939273 1_554
Fe0 O5 1.979562 1_555
Fe0 O2 2.088440 1_555
Fe1 O4 1.931472 1_555
Fe1 O5 1.971768 1_545
Fe1 O1 2.003106 1_555
Fe2 O1 1.938994 1_555
Fe2 O2 1.975246 1_556
Fe2 O3 2.049222 1_555
Fe2 O4 2.098269 1_555
Fe3 O0 2.010846 1_455
Fe3 O3 2.018500 1_555
Fe4 O4 2.077156 1_655
Fe4 O2 2.087181 1_555
Fe5 O0 1.890352 1_554
Fe5 O5 2.026178 1_655
Fe5 O1 2.030220 1_564
F0 Mg0 1.955085 1_555
F0 Fe4 2.143722 1_555
F0 Fe3 2.167473 1_655
F0 Fe2 2.590985 1_555
F1 Fe5 2.079925 1_545
F1 Fe4 2.138447 1_555
F1 Fe1 2.241176 1_555
F2 Fe3 2.166873 1_655
F2 Mg0 2.173006 1_555
F2 Fe1 2.224073 1_565
F2 Fe0 2.250287 1_555
F3 Fe2 2.012565 1_554
F3 Fe5 2.136791 1_445
F3 Fe4 2.148640 1_455
F4 Mg0 1.936200 1_555
F4 Fe3 2.138196 1_555
F4 Fe4 2.159127 1_455
F5 Fe5 2.152621 1_456
F5 Fe1 2.160480 1_565
F5 Fe3 2.171409 1_555
