# generated using pymatgen
data_CsSbSI2
_symmetry_space_group_name_H-M   'P 1'
_cell_length_a   11.39949500
_cell_length_b   6.18136500
_cell_length_c   11.73282200
_cell_angle_alpha   90.00000000
_cell_angle_beta   90.00000000
_cell_angle_gamma   90.00000000
_symmetry_Int_Tables_number   1
_chemical_formula_structural   CsSbSI2
_chemical_formula_sum   'Cs4 Sb4 S4 I8'
_cell_volume   826.74672494
_cell_formula_units_Z   4
loop_
 _symmetry_equiv_pos_site_id
 _symmetry_equiv_pos_as_xyz
  1  'x, y, z'
loop_
 _atom_site_type_symbol
 _atom_site_label
 _atom_site_symmetry_multiplicity
 _atom_site_fract_x
 _atom_site_fract_y
 _atom_site_fract_z
 _atom_site_occupancy
  Cs  Cs0  1  0.25000000  0.00000000  0.98714500  1
  Cs  Cs1  1  0.75000000  0.00000000  0.01285500  1
  Cs  Cs2  1  0.25000000  0.00000000  0.50361700  1
  Cs  Cs3  1  0.75000000  0.00000000  0.49638300  1
  Sb  Sb0  1  0.03220700  0.50000000  0.21116300  1
  Sb  Sb1  1  0.53220700  0.50000000  0.78883700  1
  Sb  Sb2  1  0.96779300  0.50000000  0.78883700  1
  Sb  Sb3  1  0.46779300  0.50000000  0.21116300  1
  S  S0  1  0.25000000  0.50000000  0.24713600  1
  S  S1  1  0.75000000  0.50000000  0.75286500  1
  S  S2  1  0.00000000  0.50000000  0.00000000  1
  S  S3  1  0.50000000  0.50000000  0.00000000  1
  I  I0  1  0.01405800  0.00000000  0.23837600  1
  I  I1  1  0.51405800  0.00000000  0.76162400  1
  I  I2  1  0.98594200  0.00000000  0.76162400  1
  I  I3  1  0.48594200  0.00000000  0.23837600  1
  I  I4  1  0.25000000  0.50000000  0.75380500  1
  I  I5  1  0.75000000  0.50000000  0.24619500  1
  I  I6  1  0.00000000  0.50000000  0.50000000  1
  I  I7  1  0.50000000  0.50000000  0.50000000  1
loop_
_geom_bond_atom_site_label_1
_geom_bond_atom_site_label_2
_geom_bond_distance
_geom_bond_site_symmetry_2
Cs0 I3 3.990324 1_556
Cs0 I0 3.990324 1_556
Cs0 I2 4.007764 1_455
Cs0 I1 4.007764 1_555
Cs0 I4 4.128864 1_545
Cs0 I4 4.128864 1_555
Cs0 S2 4.206762 1_556
Cs0 S3 4.206762 1_556
Cs0 S2 4.206762 1_546
Cs0 S3 4.206762 1_546
Cs1 I1 3.990324 1_554
Cs1 I2 3.990324 1_554
Cs1 I0 4.007764 1_655
Cs1 I3 4.007764 1_555
Cs1 I5 4.128864 1_545
Cs1 I5 4.128864 1_555
Cs1 S2 4.206762 1_645
Cs1 S2 4.206762 1_655
Cs1 S3 4.206762 1_555
Cs1 S3 4.206762 1_545
Cs2 I3 4.113242 1_555
Cs2 I0 4.113242 1_555
Cs2 I6 4.204272 1_545
Cs2 I7 4.204272 1_545
Cs2 I6 4.204272 1_555
Cs2 I7 4.204272 1_555
Cs2 I4 4.262506 1_545
Cs2 I4 4.262506 1_555
Cs2 I2 4.269017 1_455
Cs2 I1 4.269017 1_555
Cs3 I1 4.113242 1_555
Cs3 I2 4.113242 1_555
Cs3 I6 4.204272 1_645
Cs3 I7 4.204272 1_545
Cs3 I7 4.204272 1_555
Cs3 I6 4.204272 1_655
Cs3 I5 4.262506 1_545
Cs3 I5 4.262506 1_555
Cs3 I0 4.269017 1_655
Cs3 I3 4.269017 1_555
S0 Sb3 2.518350 1_555
S0 Sb0 2.518350 1_555
S1 Sb2 2.518348 1_555
S1 Sb1 2.518348 1_555
S2 Sb0 2.504593 1_555
S2 Sb2 2.504593 1_454
S3 Sb1 2.504593 1_554
S3 Sb3 2.504593 1_555
I0 Sb0 3.114011 1_545
I0 Sb0 3.114011 1_555
I1 Sb1 3.114011 1_555
I1 Sb1 3.114011 1_545
I2 Sb2 3.114011 1_545
I2 Sb2 3.114011 1_555
I3 Sb3 3.114011 1_545
I3 Sb3 3.114011 1_555
I4 Sb1 3.243168 1_555
I4 Sb2 3.243168 1_455
I5 Sb0 3.243168 1_655
I5 Sb3 3.243168 1_555
I6 Sb0 3.408703 1_555
I6 Sb2 3.408703 1_455
I7 Sb1 3.408703 1_555
I7 Sb3 3.408703 1_555
