# generated using pymatgen
data_NaGaH4
_symmetry_space_group_name_H-M   'P 1'
_cell_length_a   4.69369922
_cell_length_b   4.69369880
_cell_length_c   7.04888462
_cell_angle_alpha   90.00000000
_cell_angle_beta   90.00000000
_cell_angle_gamma   95.83069797
_symmetry_Int_Tables_number   1
_chemical_formula_structural   NaGaH4
_chemical_formula_sum   'Na2 Ga2 H8'
_cell_volume   154.48922197
_cell_formula_units_Z   2
loop_
 _symmetry_equiv_pos_site_id
 _symmetry_equiv_pos_as_xyz
  1  'x, y, z'
loop_
 _atom_site_type_symbol
 _atom_site_label
 _atom_site_symmetry_multiplicity
 _atom_site_fract_x
 _atom_site_fract_y
 _atom_site_fract_z
 _atom_site_occupancy
  Na  Na0  1  0.34180859  0.34180859  0.25000000  1
  Na  Na1  1  0.65819141  0.65819141  0.75000000  1
  Ga  Ga0  1  0.84192907  0.84192907  0.25000000  1
  Ga  Ga1  1  0.15807093  0.15807093  0.75000000  1
  H  H0  1  0.19256320  0.82547432  0.75000000  1
  H  H1  1  0.80743680  0.17452568  0.25000000  1
  H  H2  1  0.82547432  0.19256320  0.75000000  1
  H  H3  1  0.17452568  0.80743680  0.25000000  1
  H  H4  1  0.69006363  0.69006363  0.42905870  1
  H  H5  1  0.30993637  0.30993637  0.92905870  1
  H  H6  1  0.69006363  0.69006363  0.07094130  1
  H  H7  1  0.30993637  0.30993637  0.57094130  1
loop_
_geom_bond_atom_site_label_1
_geom_bond_atom_site_label_2
_geom_bond_distance
_geom_bond_site_symmetry_2
Ga0 H4 1.583042 1_555
Ga0 H6 1.583042 1_555
Ga0 H1 1.585755 1_565
Ga0 H3 1.585756 1_655
Ga1 H5 1.583042 1_555
Ga1 H7 1.583042 1_555
Ga1 H0 1.585755 1_545
Ga1 H2 1.585756 1_455
H0 Na1 2.396174 1_555
H0 Na1 2.550948 1_455
H1 Na0 2.396174 1_555
H1 Na0 2.550948 1_655
H2 Na1 2.396174 1_555
H2 Na1 2.550948 1_545
H3 Na0 2.396174 1_555
H3 Na0 2.550948 1_565
H4 Na1 2.271148 1_555
H4 Na0 2.528644 1_555
H5 Na0 2.271148 1_556
H5 Na1 2.528644 1_555
H6 Na1 2.271148 1_554
H6 Na0 2.528644 1_555
H7 Na0 2.271148 1_555
H7 Na1 2.528644 1_555
