# generated using pymatgen
data_MgH2Cl2O
_symmetry_space_group_name_H-M   'P 1'
_cell_length_a   3.69524700
_cell_length_b   8.97485300
_cell_length_c   11.58091900
_cell_angle_alpha   90.00000000
_cell_angle_beta   90.00000000
_cell_angle_gamma   90.00000000
_symmetry_Int_Tables_number   1
_chemical_formula_structural   MgH2Cl2O
_chemical_formula_sum   'Mg4 H8 Cl8 O4'
_cell_volume   384.07305605
_cell_formula_units_Z   4
loop_
 _symmetry_equiv_pos_site_id
 _symmetry_equiv_pos_as_xyz
  1  'x, y, z'
loop_
 _atom_site_type_symbol
 _atom_site_label
 _atom_site_symmetry_multiplicity
 _atom_site_fract_x
 _atom_site_fract_y
 _atom_site_fract_z
 _atom_site_occupancy
  Mg  Mg0  1  0.25000000  0.18244100  0.98245600  1
  Mg  Mg1  1  0.25000000  0.68244100  0.51754400  1
  Mg  Mg2  1  0.75000000  0.81755900  0.01754400  1
  Mg  Mg3  1  0.75000000  0.31755900  0.48245600  1
  H  H0  1  0.25000000  0.44035200  0.85850900  1
  H  H1  1  0.75000000  0.55964800  0.14149100  1
  H  H2  1  0.25000000  0.94035200  0.64149100  1
  H  H3  1  0.75000000  0.05964800  0.35850900  1
  H  H4  1  0.25000000  0.30481500  0.76867800  1
  H  H5  1  0.75000000  0.19518500  0.26867800  1
  H  H6  1  0.25000000  0.80481500  0.73132200  1
  H  H7  1  0.75000000  0.69518500  0.23132200  1
  Cl  Cl0  1  0.75000000  0.80947900  0.40772900  1
  Cl  Cl1  1  0.25000000  0.69052100  0.90772900  1
  Cl  Cl2  1  0.75000000  0.30947900  0.09227100  1
  Cl  Cl3  1  0.25000000  0.19052100  0.59227100  1
  Cl  Cl4  1  0.25000000  0.46545100  0.37838700  1
  Cl  Cl5  1  0.75000000  0.53454900  0.62161300  1
  Cl  Cl6  1  0.25000000  0.96545100  0.12161300  1
  Cl  Cl7  1  0.75000000  0.03454900  0.87838700  1
  O  O0  1  0.25000000  0.33141000  0.85115500  1
  O  O1  1  0.75000000  0.66859000  0.14884500  1
  O  O2  1  0.25000000  0.83141000  0.64884500  1
  O  O3  1  0.75000000  0.16859000  0.35115500  1
loop_
_geom_bond_atom_site_label_1
_geom_bond_atom_site_label_2
_geom_bond_distance
_geom_bond_site_symmetry_2
Mg0 O0 2.024768 1_555
Mg1 O2 2.024768 1_555
Mg2 O1 2.024768 1_555
Mg3 O3 2.024768 1_555
H0 O0 0.981441 1_555
H1 O1 0.981441 1_555
H2 O2 0.981441 1_555
H3 O3 0.981441 1_555
H4 O0 0.984531 1_555
H5 O3 0.984531 1_555
H6 O2 0.984531 1_555
H7 O1 0.984531 1_555
Cl0 Mg1 2.516152 1_655
Cl0 Mg1 2.516152 1_555
Cl1 Mg2 2.516152 1_556
Cl1 Mg2 2.516152 1_456
Cl2 Mg0 2.516152 1_554
Cl2 Mg0 2.516152 1_654
Cl3 Mg3 2.516152 1_555
Cl3 Mg3 2.516152 1_455
Cl4 Mg1 2.527789 1_555
Cl4 Mg3 2.574491 1_455
Cl4 Mg3 2.574491 1_555
Cl5 Mg3 2.527789 1_555
Cl5 Mg1 2.574491 1_655
Cl5 Mg1 2.574491 1_555
Cl6 Mg0 2.527789 1_564
Cl6 Mg2 2.574491 1_555
Cl6 Mg2 2.574491 1_455
Cl7 Mg2 2.527789 1_546
Cl7 Mg0 2.574491 1_655
Cl7 Mg0 2.574491 1_555
