# generated using pymatgen
data_BiS
_symmetry_space_group_name_H-M   'P 1'
_cell_length_a   12.22808424
_cell_length_b   12.22808424
_cell_length_c   15.24353000
_cell_angle_alpha   90.00000000
_cell_angle_beta   90.00000000
_cell_angle_gamma   153.26767871
_symmetry_Int_Tables_number   1
_chemical_formula_structural   BiS
_chemical_formula_sum   'Bi10 S10'
_cell_volume   1025.28344496
_cell_formula_units_Z   10
loop_
 _symmetry_equiv_pos_site_id
 _symmetry_equiv_pos_as_xyz
  1  'x, y, z'
loop_
 _atom_site_type_symbol
 _atom_site_label
 _atom_site_symmetry_multiplicity
 _atom_site_fract_x
 _atom_site_fract_y
 _atom_site_fract_z
 _atom_site_occupancy
  Bi  Bi0  1  0.79062000  0.15889000  0.10005000  1
  Bi  Bi1  1  0.15889000  0.79062000  0.89995000  1
  Bi  Bi2  1  0.79062000  0.15889000  0.89995000  1
  Bi  Bi3  1  0.15889000  0.79062000  0.10005000  1
  Bi  Bi4  1  0.66767600  0.29587900  0.30149300  1
  Bi  Bi5  1  0.29587900  0.66767600  0.69850700  1
  Bi  Bi6  1  0.66767600  0.29587900  0.69850700  1
  Bi  Bi7  1  0.29587900  0.66767600  0.30149300  1
  Bi  Bi8  1  0.79922100  0.17016900  0.50000000  1
  Bi  Bi9  1  0.17016900  0.79922100  0.50000000  1
  S  S0  1  0.67321100  0.27591600  0.12278300  1
  S  S1  1  0.27591600  0.67321100  0.87721700  1
  S  S2  1  0.67321100  0.27591600  0.87721700  1
  S  S3  1  0.27591600  0.67321100  0.12278300  1
  S  S4  1  0.78941100  0.18521800  0.31544800  1
  S  S5  1  0.18521800  0.78941100  0.68455200  1
  S  S6  1  0.78941100  0.18521800  0.68455200  1
  S  S7  1  0.18521800  0.78941100  0.31544800  1
  S  S8  1  0.67578700  0.28318100  0.50000000  1
  S  S9  1  0.28318100  0.67578700  0.50000000  1
loop_
_geom_bond_atom_site_label_1
_geom_bond_atom_site_label_2
_geom_bond_distance
_geom_bond_site_symmetry_2
Bi0 S0 2.810485 1_555
Bi0 S3 2.867758 1_655
Bi0 S3 2.869892 1_545
Bi1 S1 2.810485 1_555
Bi1 S2 2.867758 1_565
Bi1 S2 2.869892 1_455
Bi2 S2 2.810485 1_555
Bi2 S1 2.867758 1_655
Bi2 S1 2.869892 1_545
Bi3 S3 2.810485 1_555
Bi3 S0 2.867758 1_565
Bi3 S0 2.869892 1_455
Bi4 S0 2.741312 1_555
Bi4 S4 2.773130 1_555
Bi4 S7 2.818099 1_545
Bi4 S7 2.880216 1_655
Bi4 S8 3.036085 1_555
Bi5 S1 2.741312 1_555
Bi5 S5 2.773130 1_555
Bi5 S6 2.818099 1_455
Bi5 S6 2.880216 1_565
Bi5 S9 3.036085 1_555
Bi6 S2 2.741312 1_555
Bi6 S6 2.773130 1_555
Bi6 S5 2.818099 1_545
Bi6 S5 2.880216 1_655
Bi6 S8 3.036085 1_555
Bi7 S3 2.741312 1_555
Bi7 S7 2.773130 1_555
Bi7 S4 2.818099 1_455
Bi7 S4 2.880216 1_565
Bi7 S9 3.036085 1_555
Bi8 S9 2.809188 1_655
Bi8 S8 2.813119 1_555
Bi8 S6 2.828765 1_555
Bi8 S4 2.828765 1_555
Bi8 S9 2.867866 1_545
Bi9 S8 2.809188 1_565
Bi9 S9 2.813119 1_555
Bi9 S5 2.828765 1_555
Bi9 S7 2.828765 1_555
Bi9 S8 2.867866 1_455
