# generated using pymatgen
data_MgZn2(NiO2)4
_symmetry_space_group_name_H-M   'P 1'
_cell_length_a   2.99069280
_cell_length_b   5.55082268
_cell_length_c   9.54086391
_cell_angle_alpha   90.00000000
_cell_angle_beta   90.00000000
_cell_angle_gamma   104.33525682
_symmetry_Int_Tables_number   1
_chemical_formula_structural   MgZn2(NiO2)4
_chemical_formula_sum   'Mg1 Zn2 Ni4 O8'
_cell_volume   153.45444799
_cell_formula_units_Z   1
loop_
 _symmetry_equiv_pos_site_id
 _symmetry_equiv_pos_as_xyz
  1  'x, y, z'
loop_
 _atom_site_type_symbol
 _atom_site_label
 _atom_site_symmetry_multiplicity
 _atom_site_fract_x
 _atom_site_fract_y
 _atom_site_fract_z
 _atom_site_occupancy
  Mg  Mg0  1  0.24038244  0.50496053  0.75000000  1
  Zn  Zn0  1  0.49680917  0.95201287  0.75000000  1
  Zn  Zn1  1  0.58699532  0.19059093  0.25000000  1
  Ni  Ni0  1  0.85405680  0.71574831  0.07171087  1
  Ni  Ni1  1  0.11907855  0.23398398  0.96443996  1
  Ni  Ni2  1  0.85405680  0.71574831  0.42828913  1
  Ni  Ni3  1  0.11907855  0.23398398  0.53556004  1
  O  O0  1  0.21495735  0.44267004  0.36525188  1
  O  O1  1  0.74435912  0.50183534  0.59999726  1
  O  O2  1  0.74435912  0.50183534  0.90000274  1
  O  O3  1  0.21495735  0.44267004  0.13474812  1
  O  O4  1  0.96117707  0.92772799  0.25000000  1
  O  O5  1  0.08732978  0.15214504  0.75000000  1
  O  O6  1  0.48536779  0.95662715  0.97908255  1
  O  O7  1  0.48536779  0.95662715  0.52091745  1
loop_
_geom_bond_atom_site_label_1
_geom_bond_atom_site_label_2
_geom_bond_distance
_geom_bond_site_symmetry_2
Mg0 O5 1.897633 1_555
Mg0 O1 2.058251 1_455
Mg0 O2 2.058251 1_455
Mg0 O2 2.081640 1_555
Mg0 O1 2.081640 1_555
Mg0 Zn0 2.409074 1_555
Ni0 O2 2.002118 1_554
Ni0 O4 2.047928 1_555
Ni0 O6 2.124773 1_554
Ni0 O3 2.152799 1_655
Ni0 O3 2.208612 1_555
Ni0 O6 2.209854 1_654
Ni1 O3 1.974801 1_556
Ni1 O5 2.092821 1_555
Ni1 O6 2.103553 1_545
Ni1 O6 2.129975 1_445
Ni1 O2 2.160906 1_455
Ni1 O2 2.169956 1_555
Ni2 O1 2.002118 1_555
Ni2 O4 2.047928 1_555
Ni2 O7 2.124773 1_555
Ni2 O0 2.152799 1_655
Ni2 O0 2.208612 1_555
Ni2 O7 2.209854 1_655
Ni3 O0 1.974801 1_555
Ni3 O5 2.092821 1_555
Ni3 O7 2.103553 1_545
Ni3 O7 2.129975 1_445
Ni3 O1 2.160906 1_455
Ni3 O1 2.169956 1_555
O0 Zn1 2.275073 1_555
O0 Zn1 2.322235 1_455
O3 Zn1 2.275073 1_555
O3 Zn1 2.322235 1_455
O4 Zn1 2.046913 1_565
O4 Zn1 2.068736 1_665
O5 Zn0 1.838902 1_445
O5 Zn0 1.845936 1_545
O6 Zn0 2.186163 1_555
O7 Zn0 2.186163 1_555
