# generated using pymatgen
data_Nb2Si2SO12
_symmetry_space_group_name_H-M   'P 1'
_cell_length_a   8.92265970
_cell_length_b   8.93506608
_cell_length_c   22.97883444
_cell_angle_alpha   90.55761612
_cell_angle_beta   90.00000000
_cell_angle_gamma   119.95407928
_symmetry_Int_Tables_number   1
_chemical_formula_structural   Nb2Si2SO12
_chemical_formula_sum   'Nb12 Si12 S6 O72'
_cell_volume   1587.17239558
_cell_formula_units_Z   6
loop_
 _symmetry_equiv_pos_site_id
 _symmetry_equiv_pos_as_xyz
  1  'x, y, z'
loop_
 _atom_site_type_symbol
 _atom_site_label
 _atom_site_symmetry_multiplicity
 _atom_site_fract_x
 _atom_site_fract_y
 _atom_site_fract_z
 _atom_site_occupancy
  Nb  Nb0  1  0.00291034  0.00858038  0.35784935  1
  Nb  Nb1  1  0.00567004  0.00858038  0.85784935  1
  Nb  Nb2  1  0.98791182  0.00882281  0.64225363  1
  Nb  Nb3  1  0.02091098  0.00882281  0.14225363  1
  Nb  Nb4  1  0.66957734  0.34191338  0.69118235  1
  Nb  Nb5  1  0.67233704  0.34191338  0.19118235  1
  Nb  Nb6  1  0.65457882  0.34215581  0.97558663  1
  Nb  Nb7  1  0.68757798  0.34215581  0.47558663  1
  Nb  Nb8  1  0.33624334  0.67524738  0.02451635  1
  Nb  Nb9  1  0.33900304  0.67524738  0.52451635  1
  Nb  Nb10  1  0.32124482  0.67548981  0.30892063  1
  Nb  Nb11  1  0.35424398  0.67548981  0.80892063  1
  Si  Si0  1  0.28903128  0.00729541  0.25054016  1
  Si  Si1  1  0.00101423  0.28382529  0.24999065  1
  Si  Si2  1  0.28281106  0.28382529  0.74999065  1
  Si  Si3  1  0.71826412  0.00729541  0.75054016  1
  Si  Si4  1  0.95569828  0.34062841  0.58387316  1
  Si  Si5  1  0.66768123  0.61715829  0.58332365  1
  Si  Si6  1  0.94947806  0.61715829  0.08332365  1
  Si  Si7  1  0.38493112  0.34062841  0.08387316  1
  Si  Si8  1  0.62236428  0.67396241  0.91720716  1
  Si  Si9  1  0.33434723  0.95049229  0.91665765  1
  Si  Si10  1  0.61614406  0.95049229  0.41665765  1
  Si  Si11  1  0.05159712  0.67396241  0.41720716  1
  S  S0  1  0.71312394  0.71642009  0.25025966  1
  S  S1  1  0.00329615  0.71642009  0.75025966  1
  S  S2  1  0.37979094  0.04975309  0.58359266  1
  S  S3  1  0.66996315  0.04975309  0.08359266  1
  S  S4  1  0.04645694  0.38308709  0.91692666  1
  S  S5  1  0.33662915  0.38308709  0.41692666  1
  O  O0  1  0.19130320  0.02919252  0.30671554  1
  O  O1  1  0.82280951  0.79276726  0.30284451  1
  O  O2  1  0.97069478  0.16292708  0.30692697  1
  O  O3  1  0.19223230  0.16292708  0.80692697  1
  O  O4  1  0.96995774  0.79276726  0.80284451  1
  O  O5  1  0.83788932  0.02919252  0.80671554  1
  O  O6  1  0.80421179  0.96883332  0.69290431  1
  O  O7  1  0.16278154  0.18553868  0.69296101  1
  O  O8  1  0.03056760  0.81933500  0.69800521  1
  O  O9  1  0.78876740  0.81933500  0.19800521  1
  O  O10  1  0.02275714  0.18553868  0.19296101  1
  O  O11  1  0.16462153  0.96883332  0.19290431  1
  O  O12  1  0.85797020  0.36252552  0.64004854  1
  O  O13  1  0.48947651  0.12610026  0.63617751  1
  O  O14  1  0.63736178  0.49626008  0.64025997  1
  O  O15  1  0.85889930  0.49626008  0.14025997  1
  O  O16  1  0.63662474  0.12610026  0.13617751  1
  O  O17  1  0.50455632  0.36252552  0.14004854  1
  O  O18  1  0.47087879  0.30216632  0.02623731  1
  O  O19  1  0.82944854  0.51887168  0.02629401  1
  O  O20  1  0.69723460  0.15266800  0.03133821  1
  O  O21  1  0.45543440  0.15266800  0.53133821  1
  O  O22  1  0.68942414  0.51887168  0.52629401  1
  O  O23  1  0.83128853  0.30216632  0.52623731  1
  O  O24  1  0.52463620  0.69585952  0.97338254  1
  O  O25  1  0.15614251  0.45943426  0.96951151  1
  O  O26  1  0.30402778  0.82959408  0.97359397  1
  O  O27  1  0.52556530  0.82959408  0.47359397  1
  O  O28  1  0.30329074  0.45943426  0.46951151  1
  O  O29  1  0.17122232  0.69585952  0.47338254  1
  O  O30  1  0.13754479  0.63550032  0.35957131  1
  O  O31  1  0.49611454  0.85220568  0.35962801  1
  O  O32  1  0.36390060  0.48600200  0.36467221  1
  O  O33  1  0.12210040  0.48600200  0.86467221  1
  O  O34  1  0.35609014  0.85220568  0.85962801  1
  O  O35  1  0.49795453  0.63550032  0.85957131  1
  O  O36  1  0.02562071  0.83772338  0.40428913  1
  O  O37  1  0.80845353  0.97558617  0.40471468  1
  O  O38  1  0.17783007  0.20748421  0.40962661  1
  O  O39  1  0.02965414  0.20748421  0.90962661  1
  O  O40  1  0.16713264  0.97558617  0.90471468  1
  O  O41  1  0.81210267  0.83772338  0.90428913  1
  O  O42  1  0.97525141  0.16805505  0.59232208  1
  O  O43  1  0.20443448  0.02280231  0.59250829  1
  O  O44  1  0.84042566  0.80481105  0.59528822  1
  O  O45  1  0.96438539  0.80481105  0.09528822  1
  O  O46  1  0.81836784  0.02280231  0.09250829  1
  O  O47  1  0.19280364  0.16805505  0.09232208  1
  O  O48  1  0.69228771  0.17105638  0.73762213  1
  O  O49  1  0.47512053  0.30891917  0.73804768  1
  O  O50  1  0.84449707  0.54081721  0.74295961  1
  O  O51  1  0.69632114  0.54081721  0.24295961  1
  O  O52  1  0.83379964  0.30891917  0.23804768  1
  O  O53  1  0.47876967  0.17105638  0.23762213  1
  O  O54  1  0.64191841  0.50138805  0.92565508  1
  O  O55  1  0.87110148  0.35613531  0.92584129  1
  O  O56  1  0.50709266  0.13814405  0.92862122  1
  O  O57  1  0.63105239  0.13814405  0.42862122  1
  O  O58  1  0.48503484  0.35613531  0.42584129  1
  O  O59  1  0.85947064  0.50138805  0.42565508  1
  O  O60  1  0.35895371  0.50439038  0.07095613  1
  O  O61  1  0.14178653  0.64225317  0.07138168  1
  O  O62  1  0.51116307  0.87415121  0.07629361  1
  O  O63  1  0.36298714  0.87415121  0.57629361  1
  O  O64  1  0.50046564  0.64225317  0.57138168  1
  O  O65  1  0.14543567  0.50439038  0.57095613  1
  O  O66  1  0.30858441  0.83472205  0.25898908  1
  O  O67  1  0.53776748  0.68946931  0.25917529  1
  O  O68  1  0.17375866  0.47147805  0.26195522  1
  O  O69  1  0.29771839  0.47147805  0.76195522  1
  O  O70  1  0.15170084  0.68946931  0.75917529  1
  O  O71  1  0.52613664  0.83472205  0.75898908  1
loop_
_geom_bond_atom_site_label_1
_geom_bond_atom_site_label_2
_geom_bond_distance
_geom_bond_site_symmetry_2
Nb0 O37 1.937138 1_445
Nb0 O2 1.944489 1_455
Nb0 O36 1.962403 1_545
Nb0 O0 1.983743 1_555
Nb0 O38 2.049128 1_555
Nb0 O1 2.180922 1_445
Nb1 O40 1.937138 1_545
Nb1 O3 1.944489 1_555
Nb1 O41 1.962403 1_445
Nb1 O5 1.983743 1_455
Nb1 O39 2.049128 1_555
Nb1 O4 2.180922 1_445
Nb2 O42 1.883005 1_555
Nb2 O6 1.895307 1_545
Nb2 O44 1.945635 1_545
Nb2 O7 1.946615 1_655
Nb2 O43 2.194656 1_655
Nb2 O8 2.310487 1_645
Nb3 O47 1.883005 1_555
Nb3 O11 1.895307 1_545
Nb3 O45 1.945635 1_445
Nb3 O10 1.946615 1_555
Nb3 O46 2.194656 1_455
Nb3 O9 2.310487 1_445
Nb4 O49 1.937138 1_555
Nb4 O14 1.944489 1_555
Nb4 O48 1.962403 1_555
Nb4 O12 1.983743 1_555
Nb4 O50 2.049128 1_555
Nb4 O13 2.180922 1_555
Nb5 O52 1.937138 1_555
Nb5 O15 1.944489 1_555
Nb5 O53 1.962403 1_555
Nb5 O17 1.983743 1_555
Nb5 O51 2.049128 1_555
Nb5 O16 2.180922 1_555
Nb6 O54 1.883005 1_555
Nb6 O18 1.895307 1_556
Nb6 O56 1.945635 1_555
Nb6 O19 1.946615 1_556
Nb6 O55 2.194656 1_555
Nb6 O20 2.310487 1_556
Nb7 O59 1.883005 1_555
Nb7 O23 1.895307 1_555
Nb7 O57 1.945635 1_555
Nb7 O22 1.946615 1_555
Nb7 O58 2.194656 1_555
Nb7 O21 2.310487 1_555
Nb8 O61 1.937138 1_555
Nb8 O26 1.944489 1_554
Nb8 O60 1.962403 1_555
Nb8 O24 1.983743 1_554
Nb8 O62 2.049128 1_555
Nb8 O25 2.180922 1_554
Nb9 O64 1.937138 1_555
Nb9 O27 1.944489 1_555
Nb9 O65 1.962403 1_555
Nb9 O29 1.983743 1_555
Nb9 O63 2.049128 1_555
Nb9 O28 2.180922 1_555
Nb10 O66 1.883005 1_555
Nb10 O30 1.895307 1_555
Nb10 O68 1.945635 1_555
Nb10 O31 1.946615 1_555
Nb10 O67 2.194656 1_555
Nb10 O32 2.310487 1_555
Nb11 O71 1.883005 1_555
Nb11 O35 1.895307 1_555
Nb11 O69 1.945635 1_555
Nb11 O34 1.946615 1_555
Nb11 O70 2.194656 1_555
Nb11 O33 2.310487 1_555
O0 Si0 1.621847 1_555
O1 S0 1.483414 1_555
O2 Si1 1.639359 1_655
O3 Si2 1.639359 1_555
O4 S1 1.483414 1_655
O5 Si3 1.621847 1_555
O6 Si3 1.647599 1_565
O7 Si2 1.635222 1_555
O8 S1 1.464453 1_555
O9 S0 1.464453 1_555
O10 Si1 1.635222 1_555
O11 Si0 1.647599 1_565
O12 Si4 1.621847 1_555
O13 S2 1.483414 1_555
O14 Si5 1.639359 1_555
O15 Si6 1.639359 1_555
O16 S3 1.483414 1_555
O17 Si7 1.621847 1_555
O18 Si7 1.647599 1_555
O19 Si6 1.635222 1_555
O20 S3 1.464453 1_555
O21 S2 1.464453 1_555
O22 Si5 1.635222 1_555
O23 Si4 1.647599 1_555
O24 Si8 1.621847 1_555
O25 S4 1.483414 1_555
O26 Si9 1.639359 1_555
O27 Si10 1.639359 1_555
O28 S5 1.483414 1_555
O29 Si11 1.621847 1_555
O30 Si11 1.647599 1_555
O31 Si10 1.635222 1_555
O32 S5 1.464453 1_555
O33 S4 1.464453 1_555
O34 Si9 1.635222 1_555
O35 Si8 1.647599 1_555
O36 Si11 1.621715 1_555
O37 Si10 1.639189 1_555
O38 S5 1.507450 1_555
O39 S4 1.507454 1_555
O40 Si9 1.639180 1_555
O41 Si8 1.621720 1_555
O42 Si4 1.649311 1_555
O43 S2 1.474036 1_555
O44 Si5 1.634892 1_555
O45 Si6 1.634896 1_555
O46 S3 1.474028 1_555
O47 Si7 1.649316 1_555
O48 Si3 1.621715 1_555
O49 Si2 1.639189 1_555
O50 S1 1.507450 1_655
O51 S0 1.507454 1_555
O52 Si1 1.639180 1_655
O53 Si0 1.621720 1_555
O54 Si8 1.649322 1_555
O55 S4 1.474021 1_655
O56 Si9 1.634887 1_545
O57 Si10 1.634880 1_545
O58 S5 1.474039 1_555
O59 Si11 1.649312 1_655
O60 Si7 1.621725 1_555
O61 Si6 1.639173 1_455
O62 S3 1.507447 1_565
O63 S2 1.507439 1_565
O64 Si5 1.639190 1_555
O65 Si4 1.621714 1_455
O66 Si0 1.649311 1_565
O67 S0 1.474036 1_555
O68 Si1 1.634892 1_555
O69 Si2 1.634896 1_555
O70 S1 1.474028 1_555
O71 Si3 1.649316 1_565
