# generated using pymatgen
data_NaYTa(PO4)3
_symmetry_space_group_name_H-M   'P 1'
_cell_length_a   8.98550444
_cell_length_b   8.98550414
_cell_length_c   23.22285087
_cell_angle_alpha   90.00000000
_cell_angle_beta   90.00000000
_cell_angle_gamma   120.00000112
_symmetry_Int_Tables_number   1
_chemical_formula_structural   NaYTa(PO4)3
_chemical_formula_sum   'Na6 Y6 Ta6 P18 O72'
_cell_volume   1623.79452085
_cell_formula_units_Z   6
loop_
 _symmetry_equiv_pos_site_id
 _symmetry_equiv_pos_as_xyz
  1  'x, y, z'
loop_
 _atom_site_type_symbol
 _atom_site_label
 _atom_site_symmetry_multiplicity
 _atom_site_fract_x
 _atom_site_fract_y
 _atom_site_fract_z
 _atom_site_occupancy
  Na  Na0  1  0.00000000  -0.00000000  0.49690097  1
  Na  Na1  1  0.00000000  -0.00000000  0.99690097  1
  Na  Na2  1  0.66666700  0.33333300  0.83023397  1
  Na  Na3  1  0.66666700  0.33333300  0.33023397  1
  Na  Na4  1  0.33333300  0.66666700  0.16356797  1
  Na  Na5  1  0.33333300  0.66666700  0.66356797  1
  Y  Y0  1  0.00000000  -0.00000000  0.35428873  1
  Y  Y1  1  0.00000000  -0.00000000  0.85428873  1
  Y  Y2  1  0.66666700  0.33333300  0.68762173  1
  Y  Y3  1  0.66666700  0.33333300  0.18762173  1
  Y  Y4  1  0.33333300  0.66666700  0.02095573  1
  Y  Y5  1  0.33333300  0.66666700  0.52095573  1
  Ta  Ta0  1  0.00000000  -0.00000000  0.64755692  1
  Ta  Ta1  1  0.00000000  -0.00000000  0.14755692  1
  Ta  Ta2  1  0.66666700  0.33333300  0.98088992  1
  Ta  Ta3  1  0.66666700  0.33333300  0.48088992  1
  Ta  Ta4  1  0.33333300  0.66666700  0.31422392  1
  Ta  Ta5  1  0.33333300  0.66666700  0.81422392  1
  P  P0  1  0.28486134  0.98627976  0.25044723  1
  P  P1  1  0.70141842  0.71513866  0.25044723  1
  P  P2  1  0.01372024  0.29858158  0.25044723  1
  P  P3  1  0.28486134  0.29858158  0.75044723  1
  P  P4  1  0.01372024  0.71513866  0.75044723  1
  P  P5  1  0.70141842  0.98627976  0.75044723  1
  P  P6  1  0.95152834  0.31961276  0.58378023  1
  P  P7  1  0.36808542  0.04847166  0.58378023  1
  P  P8  1  0.68038724  0.63191458  0.58378023  1
  P  P9  1  0.95152834  0.63191458  0.08378023  1
  P  P10  1  0.68038724  0.04847166  0.08378023  1
  P  P11  1  0.36808542  0.31961276  0.08378023  1
  P  P12  1  0.61819434  0.65294676  0.91711423  1
  P  P13  1  0.03475142  0.38180566  0.91711423  1
  P  P14  1  0.34705324  0.96524858  0.91711423  1
  P  P15  1  0.61819434  0.96524858  0.41711423  1
  P  P16  1  0.34705324  0.38180566  0.41711423  1
  P  P17  1  0.03475142  0.65294676  0.41711423  1
  O  O0  1  0.20560876  0.01117767  0.30363755  1
  O  O1  1  0.80556891  0.79439124  0.30363755  1
  O  O2  1  0.98882233  0.19443109  0.30363755  1
  O  O3  1  0.20560876  0.19443109  0.80363755  1
  O  O4  1  0.98882233  0.79439124  0.80363755  1
  O  O5  1  0.80556891  0.01117767  0.80363755  1
  O  O6  1  0.80029705  0.96705916  0.69582425  1
  O  O7  1  0.16676211  0.19970295  0.69582425  1
  O  O8  1  0.03294084  0.83323789  0.69582425  1
  O  O9  1  0.80029705  0.83323789  0.19582425  1
  O  O10  1  0.03294084  0.19970295  0.19582425  1
  O  O11  1  0.16676211  0.96705916  0.19582425  1
  O  O12  1  0.87227576  0.34451067  0.63697055  1
  O  O13  1  0.47223591  0.12772424  0.63697055  1
  O  O14  1  0.65548933  0.52776409  0.63697055  1
  O  O15  1  0.87227576  0.52776409  0.13697055  1
  O  O16  1  0.65548933  0.12772424  0.13697055  1
  O  O17  1  0.47223591  0.34451067  0.13697055  1
  O  O18  1  0.46696405  0.30039216  0.02915725  1
  O  O19  1  0.83342911  0.53303595  0.02915725  1
  O  O20  1  0.69960784  0.16657089  0.02915725  1
  O  O21  1  0.46696405  0.16657089  0.52915725  1
  O  O22  1  0.69960784  0.53303595  0.52915725  1
  O  O23  1  0.83342911  0.30039216  0.52915725  1
  O  O24  1  0.53894176  0.67784467  0.97030455  1
  O  O25  1  0.13890191  0.46105824  0.97030455  1
  O  O26  1  0.32215533  0.86109809  0.97030455  1
  O  O27  1  0.53894176  0.86109809  0.47030455  1
  O  O28  1  0.32215533  0.46105824  0.47030455  1
  O  O29  1  0.13890191  0.67784467  0.47030455  1
  O  O30  1  0.13363005  0.63372616  0.36249125  1
  O  O31  1  0.50009511  0.86636995  0.36249125  1
  O  O32  1  0.36627384  0.49990489  0.36249125  1
  O  O33  1  0.13363005  0.49990489  0.86249125  1
  O  O34  1  0.36627384  0.86636995  0.86249125  1
  O  O35  1  0.50009511  0.63372616  0.86249125  1
  O  O36  1  0.00008472  0.80018972  0.41004509  1
  O  O37  1  0.80010500  0.99991528  0.41004509  1
  O  O38  1  0.19981028  0.19989500  0.41004509  1
  O  O39  1  0.00008472  0.19989500  0.91004509  1
  O  O40  1  0.19981028  0.99991528  0.91004509  1
  O  O41  1  0.80010500  0.80018972  0.91004509  1
  O  O42  1  0.95733489  0.14704936  0.59046367  1
  O  O43  1  0.18971447  0.04266511  0.59046367  1
  O  O44  1  0.85295064  0.81028553  0.59046367  1
  O  O45  1  0.95733489  0.81028553  0.09046367  1
  O  O46  1  0.85295064  0.04266511  0.09046367  1
  O  O47  1  0.18971447  0.14704936  0.09046367  1
  O  O48  1  0.66675172  0.13352272  0.74337809  1
  O  O49  1  0.46677200  0.33324828  0.74337809  1
  O  O50  1  0.86647728  0.53322800  0.74337809  1
  O  O51  1  0.66675172  0.53322800  0.24337809  1
  O  O52  1  0.86647728  0.33324828  0.24337809  1
  O  O53  1  0.46677200  0.13352272  0.24337809  1
  O  O54  1  0.62400189  0.48038236  0.92379667  1
  O  O55  1  0.85638147  0.37599811  0.92379667  1
  O  O56  1  0.51961764  0.14361853  0.92379667  1
  O  O57  1  0.62400189  0.14361853  0.42379667  1
  O  O58  1  0.51961764  0.37599811  0.42379667  1
  O  O59  1  0.85638147  0.48038236  0.42379667  1
  O  O60  1  0.33341772  0.46685672  0.07671209  1
  O  O61  1  0.13343800  0.66658228  0.07671209  1
  O  O62  1  0.53314328  0.86656200  0.07671209  1
  O  O63  1  0.33341772  0.86656200  0.57671209  1
  O  O64  1  0.53314328  0.66658228  0.57671209  1
  O  O65  1  0.13343800  0.46685672  0.57671209  1
  O  O66  1  0.29066789  0.81371636  0.25713067  1
  O  O67  1  0.52304747  0.70933211  0.25713067  1
  O  O68  1  0.18628364  0.47695253  0.25713067  1
  O  O69  1  0.29066789  0.47695253  0.75713067  1
  O  O70  1  0.18628364  0.70933211  0.75713067  1
  O  O71  1  0.52304747  0.81371636  0.75713067  1
loop_
_geom_bond_atom_site_label_1
_geom_bond_atom_site_label_2
_geom_bond_distance
_geom_bond_site_symmetry_2
Na0 O44 2.668410 1_445
Na0 O42 2.668410 1_455
Na0 O43 2.668410 1_555
Na0 O38 2.700605 1_555
Na0 O36 2.700605 1_545
Na0 O37 2.700605 1_445
Na1 O45 2.668410 1_446
Na1 O47 2.668410 1_556
Na1 O46 2.668410 1_456
Na1 O39 2.700605 1_555
Na1 O41 2.700605 1_445
Na1 O40 2.700605 1_545
Na2 O56 2.668410 1_555
Na2 O54 2.668410 1_555
Na2 O55 2.668410 1_555
Na2 O50 2.700605 1_555
Na2 O48 2.700605 1_555
Na2 O49 2.700605 1_555
Na3 O57 2.668410 1_555
Na3 O59 2.668410 1_555
Na3 O58 2.668410 1_555
Na3 O51 2.700605 1_555
Na3 O53 2.700605 1_555
Na3 O52 2.700605 1_555
Na4 O68 2.668410 1_555
Na4 O66 2.668410 1_555
Na4 O67 2.668410 1_555
Na4 O62 2.700605 1_555
Na4 O60 2.700605 1_555
Na4 O61 2.700605 1_555
Na5 O69 2.668410 1_555
Na5 O71 2.668410 1_555
Na5 O70 2.668410 1_555
Na5 O63 2.700605 1_555
Na5 O65 2.700605 1_555
Na5 O64 2.700605 1_555
O0 P0 1.497426 1_545
O0 Y0 2.149739 1_555
O1 P1 1.497426 1_555
O1 Y0 2.149739 1_665
O2 P2 1.497426 1_655
O2 Y0 2.149739 1_655
O3 P3 1.497426 1_555
O3 Y1 2.149739 1_555
O4 P4 1.497426 1_655
O4 Y1 2.149739 1_665
O5 P5 1.497426 1_545
O5 Y1 2.149739 1_655
O6 P5 1.606784 1_555
O6 Ta0 2.008206 1_665
O7 P3 1.606784 1_555
O7 Ta0 2.008205 1_555
O8 P4 1.606784 1_555
O8 Ta0 2.008205 1_565
O9 P1 1.606784 1_555
O9 Ta1 2.008205 1_665
O10 P2 1.606784 1_555
O10 Ta1 2.008205 1_555
O11 P0 1.606784 1_555
O11 Ta1 2.008206 1_565
O12 P6 1.497426 1_555
O12 Y2 2.149739 1_555
O13 P7 1.497426 1_555
O13 Y2 2.149739 1_555
O14 P8 1.497426 1_555
O14 Y2 2.149739 1_555
O15 P9 1.497426 1_555
O15 Y3 2.149739 1_555
O16 P10 1.497426 1_555
O16 Y3 2.149739 1_555
O17 P11 1.497426 1_555
O17 Y3 2.149739 1_555
O18 P11 1.606784 1_555
O18 Ta2 2.008206 1_554
O19 P9 1.606784 1_555
O19 Ta2 2.008205 1_554
O20 P10 1.606784 1_555
O20 Ta2 2.008205 1_554
O21 P7 1.606784 1_555
O21 Ta3 2.008205 1_555
O22 P8 1.606784 1_555
O22 Ta3 2.008205 1_555
O23 P6 1.606784 1_555
O23 Ta3 2.008206 1_555
O24 P12 1.497426 1_555
O24 Y4 2.149739 1_556
O25 P13 1.497426 1_555
O25 Y4 2.149739 1_556
O26 P14 1.497426 1_555
O26 Y4 2.149739 1_556
O27 P15 1.497426 1_555
O27 Y5 2.149739 1_555
O28 P16 1.497426 1_555
O28 Y5 2.149739 1_555
O29 P17 1.497426 1_555
O29 Y5 2.149739 1_555
O30 P17 1.606784 1_555
O30 Ta4 2.008206 1_555
O31 P15 1.606784 1_555
O31 Ta4 2.008205 1_555
O32 P16 1.606784 1_555
O32 Ta4 2.008205 1_555
O33 P13 1.606784 1_555
O33 Ta5 2.008205 1_555
O34 P14 1.606784 1_555
O34 Ta5 2.008205 1_555
O35 P12 1.606784 1_555
O35 Ta5 2.008206 1_555
O36 P17 1.512143 1_555
O36 Y0 2.213905 1_565
O37 P15 1.512152 1_555
O37 Y0 2.213906 1_665
O38 P16 1.512149 1_555
O38 Y0 2.213905 1_555
O39 P13 1.512152 1_555
O39 Y1 2.213905 1_555
O40 P14 1.512143 1_555
O40 Y1 2.213906 1_565
O41 P12 1.512149 1_555
O41 Y1 2.213905 1_665
O42 P6 1.584922 1_555
O42 Ta0 2.038949 1_655
O43 P7 1.584931 1_555
O43 Ta0 2.038949 1_555
O44 P8 1.584927 1_555
O44 Ta0 2.038949 1_665
O45 P9 1.584931 1_555
O45 Ta1 2.038949 1_665
O46 P10 1.584922 1_555
O46 Ta1 2.038949 1_655
O47 P11 1.584927 1_555
O47 Ta1 2.038949 1_555
O48 P5 1.512143 1_545
O48 Y2 2.213905 1_555
O49 P3 1.512152 1_555
O49 Y2 2.213906 1_555
O50 P4 1.512149 1_655
O50 Y2 2.213905 1_555
O51 P1 1.512152 1_555
O51 Y3 2.213905 1_555
O52 P2 1.512143 1_655
O52 Y3 2.213906 1_555
O53 P0 1.512149 1_545
O53 Y3 2.213905 1_555
O54 P12 1.584933 1_555
O54 Ta2 2.038949 1_555
O55 P13 1.584915 1_655
O55 Ta2 2.038949 1_555
O56 P14 1.584924 1_545
O56 Ta2 2.038949 1_555
O57 P15 1.584915 1_545
O57 Ta3 2.038949 1_555
O58 P16 1.584933 1_555
O58 Ta3 2.038949 1_555
O59 P17 1.584924 1_655
O59 Ta3 2.038949 1_555
O60 P11 1.512155 1_555
O60 Y4 2.213905 1_555
O61 P9 1.512137 1_455
O61 Y4 2.213906 1_555
O62 P10 1.512143 1_565
O62 Y4 2.213905 1_555
O63 P7 1.512137 1_565
O63 Y5 2.213905 1_555
O64 P8 1.512155 1_555
O64 Y5 2.213906 1_555
O65 P6 1.512143 1_455
O65 Y5 2.213905 1_555
O66 P0 1.584922 1_555
O66 Ta4 2.038949 1_555
O67 P1 1.584931 1_555
O67 Ta4 2.038949 1_555
O68 P2 1.584927 1_555
O68 Ta4 2.038949 1_555
O69 P3 1.584931 1_555
O69 Ta5 2.038949 1_555
O70 P4 1.584922 1_555
O70 Ta5 2.038949 1_555
O71 P5 1.584927 1_555
O71 Ta5 2.038949 1_555
