# generated using pymatgen
data_Te4Pd9
_symmetry_space_group_name_H-M   'P 1'
_cell_length_a   7.51975838
_cell_length_b   8.96442338
_cell_length_c   14.09228620
_cell_angle_alpha   90.00000000
_cell_angle_beta   90.00000000
_cell_angle_gamma   91.59600103
_symmetry_Int_Tables_number   1
_chemical_formula_structural   Te4Pd9
_chemical_formula_sum   'Te16 Pd36'
_cell_volume   949.59668181
_cell_formula_units_Z   4
loop_
 _symmetry_equiv_pos_site_id
 _symmetry_equiv_pos_as_xyz
  1  'x, y, z'
loop_
 _atom_site_type_symbol
 _atom_site_label
 _atom_site_symmetry_multiplicity
 _atom_site_fract_x
 _atom_site_fract_y
 _atom_site_fract_z
 _atom_site_occupancy
  Te  Te0  1  0.75347603  0.85289918  0.99582865  1
  Te  Te1  1  0.24652397  0.64710082  0.49582865  1
  Te  Te2  1  0.24652397  0.14710082  0.00417135  1
  Te  Te3  1  0.75347603  0.35289918  0.50417135  1
  Te  Te4  1  0.70510323  0.88689612  0.49488807  1
  Te  Te5  1  0.29489677  0.61310388  0.99488807  1
  Te  Te6  1  0.29489677  0.11310388  0.50511193  1
  Te  Te7  1  0.70510323  0.38689612  0.00511193  1
  Te  Te8  1  0.95256490  0.64246402  0.73737802  1
  Te  Te9  1  0.04743510  0.85753598  0.23737802  1
  Te  Te10  1  0.04743510  0.35753598  0.26262198  1
  Te  Te11  1  0.95256490  0.14246402  0.76262198  1
  Te  Te12  1  0.53848213  0.56640697  0.24810838  1
  Te  Te13  1  0.46151787  0.93359303  0.74810838  1
  Te  Te14  1  0.46151787  0.43359203  0.75189162  1
  Te  Te15  1  0.53848213  0.06640697  0.25189162  1
  Pd  Pd0  1  0.79345380  0.89525863  0.67780206  1
  Pd  Pd1  1  0.20654620  0.60474137  0.17780206  1
  Pd  Pd2  1  0.20654620  0.10474137  0.32219794  1
  Pd  Pd3  1  0.79345380  0.39525863  0.82219794  1
  Pd  Pd4  1  0.72415078  0.82428907  0.30649994  1
  Pd  Pd5  1  0.27584922  0.67571093  0.80649994  1
  Pd  Pd6  1  0.27584922  0.17571093  0.69350006  1
  Pd  Pd7  1  0.72415078  0.32428907  0.19350006  1
  Pd  Pd8  1  0.95880186  0.61255117  0.93816071  1
  Pd  Pd9  1  0.04119814  0.88744883  0.43816071  1
  Pd  Pd10  1  0.04119814  0.38744883  0.06183929  1
  Pd  Pd11  1  0.95880186  0.11255117  0.56183929  1
  Pd  Pd12  1  0.88999270  0.64161763  0.54753290  1
  Pd  Pd13  1  0.11000730  0.85838237  0.04753290  1
  Pd  Pd14  1  0.11000730  0.35838137  0.45246710  1
  Pd  Pd15  1  0.88999270  0.14161863  0.95246710  1
  Pd  Pd16  1  0.98865649  0.60873403  0.34926090  1
  Pd  Pd17  1  0.01134351  0.89126597  0.84926090  1
  Pd  Pd18  1  0.01134351  0.39126597  0.65073910  1
  Pd  Pd19  1  0.98865649  0.10873403  0.15073910  1
  Pd  Pd20  1  0.83143675  0.63780894  0.14147218  1
  Pd  Pd21  1  0.16856325  0.86219106  0.64147218  1
  Pd  Pd22  1  0.16856325  0.36219106  0.85852782  1
  Pd  Pd23  1  0.83143675  0.13780894  0.35852782  1
  Pd  Pd24  1  0.65468294  0.70158174  0.82868260  1
  Pd  Pd25  1  0.34531706  0.79841826  0.32868260  1
  Pd  Pd26  1  0.34531706  0.29841826  0.17131740  1
  Pd  Pd27  1  0.65468294  0.20158174  0.67131740  1
  Pd  Pd28  1  0.49852255  0.69332101  0.63149761  1
  Pd  Pd29  1  0.50147745  0.80667899  0.13149761  1
  Pd  Pd30  1  0.50147745  0.30667899  0.36850239  1
  Pd  Pd31  1  0.49852255  0.19332101  0.86850239  1
  Pd  Pd32  1  0.58421432  0.60575731  0.43527044  1
  Pd  Pd33  1  0.41578568  0.89424269  0.93527044  1
  Pd  Pd34  1  0.41578568  0.39424269  0.56472956  1
  Pd  Pd35  1  0.58421432  0.10575731  0.06472956  1
loop_
_geom_bond_atom_site_label_1
_geom_bond_atom_site_label_2
_geom_bond_distance
_geom_bond_site_symmetry_2
Pd0 Te4 2.662453 1_555
Pd0 Te13 2.716232 1_555
Pd0 Te8 2.724505 1_555
Pd0 Te11 2.761071 1_565
Pd0 Pd11 2.806411 1_565
Pd0 Pd21 2.890172 1_655
Pd0 Pd28 2.897908 1_555
Pd0 Pd24 2.919480 1_555
Pd0 Pd17 2.920173 1_655
Pd0 Pd27 2.966055 1_565
Pd0 Pd12 3.026383 1_555
Pd1 Te5 2.662453 1_554
Pd1 Te12 2.716232 1_555
Pd1 Te9 2.724505 1_555
Pd1 Te10 2.761071 1_555
Pd1 Pd10 2.806411 1_555
Pd1 Pd20 2.890172 1_455
Pd1 Pd29 2.897908 1_555
Pd1 Pd25 2.919480 1_555
Pd1 Pd16 2.920173 1_455
Pd1 Pd26 2.966055 1_555
Pd1 Pd13 3.026383 1_555
Pd2 Te6 2.662453 1_555
Pd2 Te15 2.716232 1_555
Pd2 Te10 2.724505 1_555
Pd2 Te9 2.761071 1_545
Pd2 Pd9 2.806411 1_545
Pd2 Pd23 2.890172 1_455
Pd2 Pd30 2.897908 1_555
Pd2 Pd26 2.919480 1_555
Pd2 Pd25 2.966055 1_545
Pd3 Te7 2.662453 1_556
Pd3 Te14 2.716231 1_555
Pd3 Te11 2.724505 1_555
Pd3 Te8 2.761071 1_555
Pd3 Pd8 2.806411 1_555
Pd3 Pd31 2.897908 1_555
Pd4 Te9 2.628149 1_655
Pd4 Te4 2.718096 1_555
Pd4 Te15 2.724186 1_565
Pd4 Te12 2.791220 1_555
Pd4 Pd9 3.061359 1_655
Pd5 Te8 2.628149 1_455
Pd5 Te5 2.718096 1_555
Pd5 Te14 2.724193 1_555
Pd5 Te13 2.791220 1_555
Pd5 Pd8 3.061359 1_455
Pd6 Te11 2.628149 1_455
Pd6 Te6 2.718096 1_555
Pd6 Te13 2.724186 1_545
Pd6 Te14 2.791212 1_555
Pd7 Te10 2.628149 1_655
Pd7 Te7 2.718096 1_555
Pd7 Te12 2.724186 1_555
Pd7 Te15 2.791220 1_555
Pd8 Te5 2.650643 1_655
Pd8 Te0 2.805691 1_555
Pd8 Te8 2.842675 1_555
Pd8 Te7 2.899436 1_556
Pd9 Te4 2.650643 1_455
Pd9 Te1 2.805691 1_555
Pd9 Te9 2.842675 1_555
Pd9 Te6 2.899436 1_565
Pd10 Te7 2.650643 1_455
Pd10 Pd8 2.750140 1_454
Pd10 Te2 2.805691 1_555
Pd10 Pd19 2.813044 1_455
Pd10 Te10 2.842675 1_555
Pd10 Pd26 2.889426 1_555
Pd10 Pd15 2.895735 1_454
Pd10 Te5 2.899436 1_554
Pd10 Pd20 2.996938 1_455
Pd10 Pd22 3.031431 1_554
Pd10 Pd7 3.061359 1_455
Pd11 Te6 2.650643 1_655
Pd11 Pd9 2.750140 1_645
Pd11 Te3 2.805691 1_555
Pd11 Pd18 2.813044 1_655
Pd11 Te11 2.842675 1_555
Pd11 Pd27 2.889426 1_555
Pd11 Pd14 2.895735 1_655
Pd11 Te4 2.899436 1_545
Pd11 Pd21 2.996938 1_645
Pd11 Pd23 3.031431 1_555
Pd11 Pd6 3.061359 1_655
Pd12 Te8 2.716388 1_555
Pd12 Te4 2.736479 1_555
Pd12 Te1 2.777390 1_655
Pd12 Pd32 2.802168 1_555
Pd12 Te3 2.824535 1_555
Pd12 Pd18 2.845838 1_655
Pd12 Pd9 2.895742 1_655
Pd12 Pd16 2.908017 1_555
Pd12 Pd21 3.133633 1_655
Pd12 Pd28 3.218174 1_555
Pd13 Te9 2.716388 1_555
Pd13 Te5 2.736479 1_554
Pd13 Te0 2.777390 1_454
Pd13 Pd33 2.802168 1_554
Pd13 Te2 2.824535 1_565
Pd13 Pd19 2.845838 1_465
Pd13 Pd8 2.895742 1_454
Pd13 Pd17 2.908017 1_554
Pd13 Pd20 3.133633 1_455
Pd13 Pd29 3.218174 1_555
Pd14 Te10 2.716388 1_555
Pd14 Te6 2.736472 1_555
Pd14 Te3 2.777390 1_455
Pd14 Pd34 2.802169 1_555
Pd14 Te1 2.824543 1_555
Pd14 Pd16 2.845845 1_455
Pd14 Pd18 2.908018 1_555
Pd14 Pd2 3.026376 1_555
Pd14 Pd23 3.133628 1_455
Pd14 Pd30 3.218173 1_555
Pd15 Te11 2.716388 1_555
Pd15 Te7 2.736472 1_556
Pd15 Te2 2.777390 1_656
Pd15 Pd35 2.802169 1_556
Pd15 Te0 2.824543 1_545
Pd15 Pd17 2.845845 1_645
Pd15 Pd19 2.908018 1_556
Pd15 Pd3 3.026376 1_555
Pd15 Pd22 3.133628 1_655
Pd15 Pd31 3.218173 1_555
Pd16 Te10 2.610041 1_655
Pd16 Te9 2.756977 1_655
Pd16 Pd9 2.813044 1_655
Pd16 Te1 2.847357 1_655
Pd16 Pd4 2.875292 1_555
Pd16 Pd25 3.148743 1_655
Pd16 Pd20 3.171322 1_555
Pd16 Pd32 3.273356 1_555
Pd17 Te11 2.610041 1_465
Pd17 Te8 2.756977 1_455
Pd17 Pd8 2.813044 1_455
Pd17 Te0 2.847357 1_455
Pd17 Pd5 2.875292 1_555
Pd17 Pd24 3.148743 1_455
Pd17 Pd21 3.171322 1_555
Pd17 Pd33 3.273356 1_555
Pd18 Te8 2.610041 1_455
Pd18 Te11 2.756977 1_455
Pd18 Te3 2.847357 1_455
Pd18 Pd6 2.875292 1_555
Pd18 Pd3 2.920173 1_455
Pd18 Pd27 3.148743 1_455
Pd18 Pd22 3.171322 1_555
Pd18 Pd34 3.273356 1_555
Pd19 Te9 2.610041 1_645
Pd19 Te10 2.756977 1_655
Pd19 Te2 2.847357 1_655
Pd19 Pd7 2.875292 1_555
Pd19 Pd2 2.920173 1_655
Pd19 Pd26 3.148743 1_655
Pd19 Pd23 3.171322 1_555
Pd19 Pd35 3.273356 1_555
Pd20 Te12 2.728073 1_555
Pd20 Te9 2.857700 1_655
Pd20 Te0 2.887387 1_554
Pd20 Pd29 2.945687 1_555
Pd20 Pd4 2.988149 1_555
Pd20 Pd7 2.993524 1_555
Pd20 Pd8 3.031431 1_554
Pd20 Te7 3.087947 1_555
Pd21 Te13 2.728073 1_555
Pd21 Te8 2.857700 1_455
Pd21 Te1 2.887387 1_555
Pd21 Pd28 2.945687 1_555
Pd21 Pd5 2.988149 1_555
Pd21 Pd6 2.993524 1_565
Pd21 Pd9 3.031431 1_555
Pd21 Te6 3.087947 1_565
Pd22 Te14 2.728072 1_555
Pd22 Te11 2.857700 1_455
Pd22 Te2 2.887387 1_556
Pd22 Pd3 2.890172 1_455
Pd22 Pd31 2.945687 1_555
Pd22 Pd6 2.988149 1_555
Pd22 Pd5 2.993524 1_555
Pd22 Pd8 2.996938 1_455
Pd22 Te5 3.087947 1_555
Pd23 Te15 2.728073 1_555
Pd23 Te10 2.857700 1_655
Pd23 Te3 2.887387 1_555
Pd23 Pd30 2.945687 1_555
Pd23 Pd7 2.988149 1_555
Pd23 Pd4 2.993524 1_545
Pd23 Pd9 2.996938 1_645
Pd23 Te4 3.087947 1_545
Pd24 Te8 2.649557 1_555
Pd24 Te0 2.807851 1_555
Pd24 Te13 2.809496 1_555
Pd24 Pd5 2.868800 1_555
Pd24 Pd8 2.889426 1_555
Pd24 Pd33 2.939238 1_555
Pd24 Pd3 2.966055 1_555
Pd24 Te14 2.976239 1_555
Pd24 Pd28 3.016828 1_555
Pd25 Te9 2.649557 1_555
Pd25 Te1 2.807851 1_555
Pd25 Te12 2.809496 1_555
Pd25 Pd4 2.868800 1_555
Pd25 Pd9 2.889426 1_555
Pd25 Pd32 2.939238 1_555
Pd25 Te15 2.976232 1_565
Pd25 Pd29 3.016828 1_555
Pd26 Te10 2.649557 1_555
Pd26 Te2 2.807851 1_555
Pd26 Te15 2.809496 1_555
Pd26 Pd7 2.868800 1_555
Pd26 Pd35 2.939238 1_555
Pd26 Te12 2.976232 1_555
Pd26 Pd30 3.016828 1_555
Pd27 Te11 2.649557 1_555
Pd27 Te3 2.807851 1_555
Pd27 Te14 2.809490 1_555
Pd27 Pd6 2.868800 1_555
Pd27 Pd3 2.919480 1_555
Pd27 Pd34 2.939238 1_555
Pd27 Te13 2.976232 1_545
Pd27 Pd31 3.016828 1_555
Pd28 Te1 2.715539 1_555
Pd28 Te13 2.729575 1_555
Pd28 Te14 2.888072 1_555
Pd28 Pd34 2.892680 1_555
Pd28 Pd32 2.950659 1_555
Pd28 Pd5 2.982622 1_555
Pd28 Te4 2.996732 1_555
Pd29 Te0 2.715539 1_554
Pd29 Te12 2.729575 1_555
Pd29 Te15 2.888065 1_565
Pd29 Pd35 2.892680 1_565
Pd29 Pd33 2.950659 1_554
Pd29 Pd4 2.982622 1_555
Pd29 Te5 2.996732 1_554
Pd30 Te3 2.715539 1_555
Pd30 Te15 2.729575 1_555
Pd30 Te12 2.888065 1_555
Pd30 Pd32 2.892680 1_555
Pd30 Pd34 2.950659 1_555
Pd30 Pd7 2.982622 1_555
Pd30 Te6 2.996732 1_555
Pd31 Te2 2.715539 1_556
Pd31 Te14 2.729568 1_555
Pd31 Te13 2.888065 1_545
Pd31 Pd33 2.892680 1_545
Pd31 Pd35 2.950659 1_556
Pd31 Pd6 2.982622 1_555
Pd31 Te7 2.996732 1_556
Pd32 Te12 2.681896 1_555
Pd32 Te1 2.714108 1_555
Pd32 Te4 2.785006 1_555
Pd32 Te3 2.803852 1_555
Pd32 Pd4 2.850129 1_555
Pd32 Pd34 2.897227 1_555
Pd33 Te13 2.681896 1_555
Pd33 Te0 2.714108 1_555
Pd33 Te5 2.785006 1_555
Pd33 Te2 2.803852 1_566
Pd33 Pd5 2.850129 1_555
Pd33 Pd35 2.897227 1_566
Pd34 Te14 2.681895 1_555
Pd34 Te3 2.714108 1_555
Pd34 Te6 2.785006 1_555
Pd34 Te1 2.803852 1_555
Pd34 Pd6 2.850129 1_555
Pd35 Te15 2.681896 1_555
Pd35 Te2 2.714108 1_555
Pd35 Te7 2.785006 1_555
Pd35 Te0 2.803852 1_544
Pd35 Pd7 2.850129 1_555
