# generated using pymatgen
data_LaZrP(SO6)2
_symmetry_space_group_name_H-M   'P 1'
_cell_length_a   9.35174933
_cell_length_b   9.35890654
_cell_length_c   23.31832845
_cell_angle_alpha   89.97973442
_cell_angle_beta   90.00000000
_cell_angle_gamma   119.97470550
_symmetry_Int_Tables_number   1
_chemical_formula_structural   LaZrP(SO6)2
_chemical_formula_sum   'La6 Zr6 P6 S12 O72'
_cell_volume   1767.89560763
_cell_formula_units_Z   6
loop_
 _symmetry_equiv_pos_site_id
 _symmetry_equiv_pos_as_xyz
  1  'x, y, z'
loop_
 _atom_site_type_symbol
 _atom_site_label
 _atom_site_symmetry_multiplicity
 _atom_site_fract_x
 _atom_site_fract_y
 _atom_site_fract_z
 _atom_site_occupancy
  La  La0  1  0.00320475  0.00209255  0.36574800  1
  La  La1  1  0.99888780  0.00209255  0.86574800  1
  La  La2  1  0.67845905  0.33817524  0.69896515  1
  La  La3  1  0.65971719  0.33817524  0.19896515  1
  La  La4  1  0.32811091  0.65261488  0.03223296  1
  La  La5  1  0.32450297  0.65261488  0.53223296  1
  Zr  Zr0  1  0.99983877  0.00037331  0.64547539  1
  Zr  Zr1  1  0.00053455  0.00037331  0.14547539  1
  Zr  Zr2  1  0.66343238  0.33094586  0.97949223  1
  Zr  Zr3  1  0.66751448  0.33094586  0.47949223  1
  Zr  Zr4  1  0.34588966  0.66255616  0.31191570  1
  Zr  Zr5  1  0.31666550  0.66255616  0.81191570  1
  P  P0  1  0.70993777  0.73929634  0.25006612  1
  P  P1  1  0.02935858  0.73929634  0.75006612  1
  P  P2  1  0.92860641  0.29648819  0.58290145  1
  P  P3  1  0.36788277  0.29648819  0.08290145  1
  P  P4  1  0.03107954  0.39911595  0.91648966  1
  P  P5  1  0.36803541  0.39911595  0.41648966  1
  S  S0  1  0.26689470  0.96156616  0.24961120  1
  S  S1  1  0.03296976  0.30134060  0.24855819  1
  S  S2  1  0.26837083  0.30134060  0.74855819  1
  S  S3  1  0.69467146  0.96156616  0.74961120  1
  S  S4  1  0.36730318  0.06542172  0.58310478  1
  S  S5  1  0.70003049  0.63428410  0.58264711  1
  S  S6  1  0.93425460  0.63428410  0.08264711  1
  S  S7  1  0.69811954  0.06542172  0.08310478  1
  S  S8  1  0.59991968  0.63371565  0.91591976  1
  S  S9  1  0.36667026  0.96577501  0.91669969  1
  S  S10  1  0.59910375  0.96577501  0.41669969  1
  S  S11  1  0.03379498  0.63371565  0.41591976  1
  O  O0  1  0.20152172  -0.00052712  0.30052688  1
  O  O1  1  0.81280524  0.81365991  0.30375709  1
  O  O2  1  0.99945342  0.20194910  0.30024472  1
  O  O3  1  0.20249568  0.20194910  0.80024472  1
  O  O4  1  0.00085466  0.81365991  0.80375709  1
  O  O5  1  0.79795116  -0.00052712  0.80052688  1
  O  O6  1  0.78358855  0.94417052  0.69841050  1
  O  O7  1  0.15821082  0.21542830  0.69785590  1
  O  O8  1  0.05203243  0.85191640  0.69671742  1
  O  O9  1  0.79988397  0.85191640  0.19671742  1
  O  O10  1  0.05721748  0.21542830  0.19785590  1
  O  O11  1  0.16058198  0.94417052  0.19841050  1
  O  O12  1  0.85547729  0.32999301  0.63618166  1
  O  O13  1  0.46589646  0.13424181  0.63489504  1
  O  O14  1  0.66148501  0.53249976  0.63421174  1
  O  O15  1  0.87101575  0.53249976  0.13421174  1
  O  O16  1  0.66834635  0.13424181  0.13489504  1
  O  O17  1  0.47451672  0.32999301  0.13618166  1
  O  O18  1  0.46025244  0.27511813  0.03004003  1
  O  O19  1  0.82638736  0.54715944  0.03179138  1
  O  O20  1  0.72140798  0.17435714  0.03197190  1
  O  O21  1  0.45295016  0.17435714  0.53197190  1
  O  O22  1  0.72077308  0.54715944  0.53179138  1
  O  O23  1  0.81486669  0.27511813  0.53004003  1
  O  O24  1  0.53546358  0.66873521  0.96807783  1
  O  O25  1  0.14182354  0.47393744  0.96872286  1
  O  O26  1  0.33782173  0.86691057  0.96848313  1
  O  O27  1  0.52908784  0.86691057  0.46848313  1
  O  O28  1  0.33211290  0.47393744  0.46872286  1
  O  O29  1  0.13327063  0.66873521  0.46807783  1
  O  O30  1  0.12042931  0.61342361  0.36499096  1
  O  O31  1  0.49334987  0.87994283  0.36505285  1
  O  O32  1  0.39316546  0.51554746  0.36326792  1
  O  O33  1  0.12238099  0.51554746  0.86326792  1
  O  O34  1  0.38659196  0.87994283  0.86505285  1
  O  O35  1  0.49299330  0.61342361  0.86499096  1
  O  O36  1  0.99528000  0.76592103  0.40703419  1
  O  O37  1  0.76864839  0.00136759  0.40781171  1
  O  O38  1  0.22910049  0.22466668  0.40336950  1
  O  O39  1  0.99556619  0.22466668  0.90336950  1
  O  O40  1  0.23271920  0.00136759  0.90781171  1
  O  O41  1  0.77064104  0.76592103  0.90703419  1
  O  O42  1  0.93544487  0.13477800  0.59288422  1
  O  O43  1  0.20512886  0.06088549  0.59046651  1
  O  O44  1  0.85935079  0.79273910  0.59096721  1
  O  O45  1  0.93338831  0.79273910  0.09096721  1
  O  O46  1  0.85575664  0.06088549  0.09046651  1
  O  O47  1  0.19933313  0.13477800  0.09288422  1
  O  O48  1  0.65625698  0.09369198  0.73977163  1
  O  O49  1  0.43666860  0.33556137  0.73741505  1
  O  O50  1  0.88947514  0.56383758  0.73946090  1
  O  O51  1  0.67436344  0.56383758  0.23946090  1
  O  O52  1  0.89889377  0.33556137  0.23741505  1
  O  O53  1  0.43743600  0.09369198  0.23977163  1
  O  O54  1  0.60327953  0.47638999  0.92479696  1
  O  O55  1  0.86425965  0.39531495  0.92734373  1
  O  O56  1  0.52530062  0.12726726  0.92318677  1
  O  O57  1  0.60196764  0.12726726  0.42318677  1
  O  O58  1  0.53105630  0.39531495  0.42734373  1
  O  O59  1  0.87311145  0.47638999  0.42479696  1
  O  O60  1  0.33195440  0.43599841  0.07187467  1
  O  O61  1  0.10502716  0.67500521  0.07233586  1
  O  O62  1  0.56292646  0.89783443  0.07255311  1
  O  O63  1  0.33490697  0.89783443  0.57255311  1
  O  O64  1  0.56997706  0.67500521  0.57233586  1
  O  O65  1  0.10404302  0.43599841  0.57187467  1
  O  O66  1  0.26683520  0.80296357  0.25846405  1
  O  O67  1  0.53818379  0.73108025  0.25838240  1
  O  O68  1  0.19032000  0.46247189  0.25685433  1
  O  O69  1  0.27215089  0.46247189  0.75685433  1
  O  O70  1  0.19289546  0.73108025  0.75838240  1
  O  O71  1  0.53612737  0.80296357  0.75846405  1
loop_
_geom_bond_atom_site_label_1
_geom_bond_atom_site_label_2
_geom_bond_distance
_geom_bond_site_symmetry_2
La0 O38 2.274998 1_555
La0 O1 2.287818 1_445
La0 O36 2.377520 1_445
La0 O37 2.399738 1_455
La0 O0 2.408032 1_555
La0 O2 2.428240 1_455
La1 O39 2.274998 1_555
La1 O4 2.287818 1_645
La1 O41 2.377520 1_545
La1 O40 2.399738 1_655
La1 O5 2.408032 1_555
La1 O3 2.428240 1_655
La2 O12 2.239727 1_555
La2 O50 2.254586 1_555
La2 O48 2.389073 1_555
La2 O49 2.421165 1_555
La2 O14 2.428825 1_555
La2 O13 2.457076 1_555
La3 O17 2.239727 1_555
La3 O51 2.254586 1_555
La3 O53 2.389073 1_555
La3 O52 2.421165 1_555
La3 O15 2.428825 1_555
La3 O16 2.457076 1_555
La4 O60 2.244364 1_555
La4 O25 2.261699 1_554
La4 O61 2.389076 1_555
La4 O24 2.393410 1_554
La4 O62 2.436967 1_555
La4 O26 2.460949 1_554
La5 O65 2.244364 1_555
La5 O28 2.261699 1_555
La5 O64 2.389076 1_555
La5 O29 2.393410 1_555
La5 O63 2.436967 1_555
La5 O27 2.460949 1_555
O0 S0 1.458161 1_545
O1 P0 1.519497 1_555
O2 S1 1.457392 1_655
O3 S2 1.457392 1_555
O4 P1 1.519497 1_555
O5 S3 1.458161 1_545
O6 S3 1.509566 1_555
O6 Zr0 2.196976 1_565
O7 S2 1.509497 1_555
O7 Zr0 2.181608 1_455
O8 P1 1.574539 1_555
O8 Zr0 2.067092 1_465
O9 P0 1.574539 1_555
O9 Zr1 2.067092 1_665
O10 S1 1.509497 1_555
O10 Zr1 2.181608 1_555
O11 S0 1.509566 1_555
O11 Zr1 2.196976 1_565
O12 P2 1.524517 1_555
O13 S4 1.459643 1_555
O14 S5 1.462603 1_555
O15 S6 1.462603 1_555
O16 S7 1.459643 1_555
O17 P3 1.524517 1_555
O18 P3 1.574290 1_555
O18 Zr2 2.068862 1_554
O19 S6 1.505826 1_555
O19 Zr2 2.196506 1_554
O20 S7 1.511878 1_555
O20 Zr2 2.175282 1_554
O21 S4 1.511878 1_555
O21 Zr3 2.175282 1_555
O22 S5 1.505826 1_555
O22 Zr3 2.196506 1_555
O23 P2 1.574290 1_555
O23 Zr3 2.068862 1_555
O24 S8 1.465497 1_555
O25 P4 1.523931 1_555
O26 S9 1.461759 1_555
O27 S10 1.461759 1_555
O28 P5 1.523931 1_555
O29 S11 1.465497 1_555
O30 S11 1.502232 1_555
O30 Zr4 2.284630 1_555
O31 S10 1.510166 1_555
O31 Zr4 2.185061 1_555
O32 P5 1.589325 1_555
O32 Zr4 2.031976 1_555
O33 P4 1.589325 1_555
O33 Zr5 2.031976 1_555
O34 S9 1.510166 1_555
O34 Zr5 2.185061 1_555
O35 S8 1.502232 1_555
O35 Zr5 2.284630 1_555
O36 S11 1.465844 1_655
O37 S10 1.462890 1_545
O38 P5 1.525776 1_555
O39 P4 1.525779 1_655
O40 S9 1.462881 1_545
O41 S8 1.465850 1_555
O42 P2 1.563717 1_555
O42 Zr0 2.050519 1_555
O43 S4 1.505671 1_555
O43 Zr0 2.136555 1_455
O44 S5 1.499696 1_555
O44 Zr0 2.137392 1_565
O45 S6 1.499700 1_555
O45 Zr1 2.137392 1_665
O46 S7 1.505662 1_555
O46 Zr1 2.136555 1_655
O47 P3 1.563722 1_555
O47 Zr1 2.050519 1_555
O48 S3 1.467803 1_545
O49 S2 1.464051 1_555
O50 P1 1.524051 1_655
O51 P0 1.524053 1_555
O52 S1 1.464042 1_655
O53 S0 1.467809 1_545
O54 S8 1.502598 1_555
O54 Zr2 2.135384 1_555
O55 P4 1.563216 1_655
O55 Zr2 2.058582 1_555
O56 S9 1.505869 1_545
O56 Zr2 2.137150 1_555
O57 S10 1.505860 1_545
O57 Zr3 2.137150 1_555
O58 P5 1.563235 1_555
O58 Zr3 2.058582 1_555
O59 S11 1.502588 1_655
O59 Zr3 2.135383 1_555
O60 P3 1.523772 1_555
O61 S6 1.464684 1_455
O62 S7 1.462118 1_565
O63 S4 1.462112 1_565
O64 S5 1.464702 1_555
O65 P2 1.523760 1_455
O66 S0 1.498285 1_555
O66 Zr4 2.190072 1_555
O67 P0 1.581131 1_555
O67 Zr4 2.012570 1_555
O68 S1 1.503230 1_555
O68 Zr4 2.133326 1_555
O69 S2 1.503235 1_555
O69 Zr5 2.133326 1_555
O70 P1 1.581121 1_555
O70 Zr5 2.012570 1_555
O71 S3 1.498290 1_555
O71 Zr5 2.190072 1_555
