# generated using pymatgen
data_Na8Zr3ZnSi5SO24
_symmetry_space_group_name_H-M   'P 1'
_cell_length_a   9.29730729
_cell_length_b   9.29640040
_cell_length_c   22.76266848
_cell_angle_alpha   89.84700452
_cell_angle_beta   90.40859058
_cell_angle_gamma   119.97486380
_symmetry_Int_Tables_number   1
_chemical_formula_structural   Na8Zr3ZnSi5SO24
_chemical_formula_sum   'Na24 Zr9 Zn3 Si15 S3 O72'
_cell_volume   1704.21539315
_cell_formula_units_Z   3
loop_
 _symmetry_equiv_pos_site_id
 _symmetry_equiv_pos_as_xyz
  1  'x, y, z'
loop_
 _atom_site_type_symbol
 _atom_site_label
 _atom_site_symmetry_multiplicity
 _atom_site_fract_x
 _atom_site_fract_y
 _atom_site_fract_z
 _atom_site_occupancy
  Na  Na0  1  0.64751368  0.02577095  0.24627251  1
  Na  Na1  1  0.36748297  0.36185089  0.24073425  1
  Na  Na2  1  0.98136980  0.60811057  0.24215295  1
  Na  Na3  1  0.63276195  0.61696480  0.74619428  1
  Na  Na4  1  0.98495281  0.36508614  0.75122582  1
  Na  Na5  1  0.38343384  0.01417624  0.74642419  1
  Na  Na6  1  0.31933767  0.33503734  0.58955901  1
  Na  Na7  1  0.03213322  0.70710787  0.58320046  1
  Na  Na8  1  0.65841781  0.96458294  0.59217477  1
  Na  Na9  1  0.30846649  0.96923964  0.07908344  1
  Na  Na10  1  0.66396582  0.69167401  0.07894742  1
  Na  Na11  1  0.03019709  0.34346021  0.08085469  1
  Na  Na12  1  0.96586535  0.66592485  0.91469124  1
  Na  Na13  1  0.70004526  0.03430214  0.91421151  1
  Na  Na14  1  0.33392782  0.29995774  0.91436582  1
  Na  Na15  1  0.96443554  0.28707089  0.41043069  1
  Na  Na16  1  0.31760607  0.02895160  0.41742410  1
  Na  Na17  1  0.71432561  0.68200677  0.41724452  1
  Na  Na18  1  0.00124752  0.99275964  0.49419967  1
  Na  Na19  1  0.00052086  0.99889710  0.99423366  1
  Na  Na20  1  0.66689219  0.33282679  0.82536639  1
  Na  Na21  1  0.68058958  0.33141665  0.33177242  1
  Na  Na22  1  0.32652695  0.65924033  0.15970874  1
  Na  Na23  1  0.34325109  0.67497216  0.67195231  1
  Zr  Zr0  1  0.99815956  0.99797152  0.85030722  1
  Zr  Zr1  1  0.00133721  0.99251511  0.65103628  1
  Zr  Zr2  1  0.00417796  0.01328056  0.14475879  1
  Zr  Zr3  1  0.66828854  0.33459012  0.98216608  1
  Zr  Zr4  1  0.65777297  0.33603120  0.48003690  1
  Zr  Zr5  1  0.33357307  0.66561265  0.01707279  1
  Zr  Zr6  1  0.34097001  0.67515620  0.51626053  1
  Zr  Zr7  1  0.32505804  0.65833633  0.31877278  1
  Zr  Zr8  1  0.33444769  0.66743308  0.81406744  1
  Zn  Zn0  1  0.99582442  0.01348672  0.35761460  1
  Zn  Zn1  1  0.64434271  0.32794657  0.68814278  1
  Zn  Zn2  1  0.68084343  0.33170606  0.16811770  1
  Si  Si0  1  0.99721707  0.29626360  0.25324883  1
  Si  Si1  1  0.29368166  0.29613970  0.74993033  1
  Si  Si2  1  0.99789714  0.69807337  0.75034375  1
  Si  Si3  1  0.70402463  0.00239890  0.74870934  1
  Si  Si4  1  0.37240500  0.03864644  0.58516329  1
  Si  Si5  1  0.66637827  0.62826770  0.58542806  1
  Si  Si6  1  0.96459324  0.63033293  0.08639339  1
  Si  Si7  1  0.66166489  0.03615404  0.08632910  1
  Si  Si8  1  0.38031703  0.33697166  0.08738754  1
  Si  Si9  1  0.62936689  0.66666319  0.91718809  1
  Si  Si10  1  0.03747357  0.37045035  0.91649317  1
  Si  Si11  1  0.33365211  0.96246527  0.91692188  1
  Si  Si12  1  0.63043282  0.96447465  0.41462924  1
  Si  Si13  1  0.33097824  0.36950171  0.41761621  1
  Si  Si14  1  0.03445072  0.66750798  0.41650717  1
  S  S0  1  0.29225477  0.99772456  0.25228189  1
  S  S1  1  0.70606636  0.70826445  0.25191222  1
  S  S2  1  0.96126048  0.33430737  0.58323198  1
  O  O0  1  0.20854367  0.00997907  0.30510613  1
  O  O1  1  0.80599214  0.78762695  0.30493218  1
  O  O2  1  0.97358322  0.18269047  0.31054628  1
  O  O3  1  0.19701610  0.17874126  0.80709677  1
  O  O4  1  0.97403966  0.79304438  0.80744387  1
  O  O5  1  0.81944629  0.02235696  0.80702607  1
  O  O6  1  0.79469683  0.97314231  0.69056167  1
  O  O7  1  0.17724064  0.20739608  0.69060100  1
  O  O8  1  0.02992610  0.81999955  0.69201617  1
  O  O9  1  0.78974977  0.80998056  0.19824500  1
  O  O10  1  0.02699604  0.20393108  0.19498359  1
  O  O11  1  0.18819910  0.97493751  0.19835863  1
  O  O12  1  0.88804451  0.35950193  0.63591960  1
  O  O13  1  0.49127702  0.11580806  0.64180759  1
  O  O14  1  0.63318077  0.51286550  0.64226736  1
  O  O15  1  0.89253675  0.52101413  0.14561593  1
  O  O16  1  0.62395465  0.10715141  0.14559173  1
  O  O17  1  0.48990733  0.36626192  0.14655698  1
  O  O18  1  0.46353509  0.30345809  0.02929069  1
  O  O19  1  0.84280555  0.54360091  0.02897196  1
  O  O20  1  0.69999004  0.15883485  0.02938218  1
  O  O21  1  0.46327662  0.15410505  0.52574917  1
  O  O22  1  0.69715209  0.54151187  0.52608680  1
  O  O23  1  0.85861028  0.31313515  0.52937276  1
  O  O24  1  0.54165554  0.69448387  0.97544189  1
  O  O25  1  0.15327067  0.45768797  0.97531445  1
  O  O26  1  0.30553687  0.84583186  0.97523498  1
  O  O27  1  0.53384533  0.84595111  0.47180287  1
  O  O28  1  0.30625693  0.46371616  0.47401666  1
  O  O29  1  0.15259078  0.69354997  0.47411141  1
  O  O30  1  0.12556978  0.63460476  0.35907359  1
  O  O31  1  0.50931615  0.87553127  0.35646030  1
  O  O32  1  0.36429341  0.49089765  0.35939016  1
  O  O33  1  0.12683313  0.49012057  0.85956785  1
  O  O34  1  0.36370125  0.87340916  0.85994234  1
  O  O35  1  0.51027231  0.63659863  0.85983769  1
  O  O36  1  0.01655710  0.83137792  0.40954797  1
  O  O37  1  0.80946158  0.97515057  0.41438813  1
  O  O38  1  0.17190634  0.18502431  0.41418004  1
  O  O39  1  0.01955900  0.18586117  0.91292580  1
  O  O40  1  0.16669617  0.97998652  0.91323709  1
  O  O41  1  0.81367741  0.83337271  0.91374606  1
  O  O42  1  0.97735900  0.18163553  0.58530093  1
  O  O43  1  0.18732146  0.02630037  0.58650391  1
  O  O44  1  0.83250022  0.81820575  0.58641572  1
  O  O45  1  0.98309607  0.81684647  0.09257139  1
  O  O46  1  0.83065047  0.01620407  0.09112995  1
  O  O47  1  0.19160565  0.16619776  0.09072858  1
  O  O48  1  0.69050641  0.16906256  0.74587103  1
  O  O49  1  0.47469295  0.31109063  0.74981654  1
  O  O50  1  0.83497337  0.51651976  0.74527594  1
  O  O51  1  0.67933962  0.53825438  0.24767065  1
  O  O52  1  0.83361012  0.31919692  0.24801091  1
  O  O53  1  0.45812929  0.14695968  0.24821002  1
  O  O54  1  0.64586311  0.49937169  0.92269981  1
  O  O55  1  0.85377111  0.35430473  0.92222767  1
  O  O56  1  0.50053198  0.14654331  0.92289026  1
  O  O57  1  0.64745926  0.14867582  0.42127531  1
  O  O58  1  0.50427367  0.36071717  0.42063785  1
  O  O59  1  0.85431138  0.49472930  0.42127584  1
  O  O60  1  0.35123370  0.49713559  0.08019931  1
  O  O61  1  0.15127373  0.65346347  0.07848166  1
  O  O62  1  0.50185092  0.84827284  0.07856711  1
  O  O63  1  0.34089685  0.84638126  0.57788785  1
  O  O64  1  0.49841155  0.64844990  0.57793446  1
  O  O65  1  0.13158077  0.48300718  0.57680550  1
  O  O66  1  0.30917444  0.84331968  0.25304180  1
  O  O67  1  0.53814861  0.69979983  0.25312393  1
  O  O68  1  0.17406678  0.48454467  0.25324965  1
  O  O69  1  0.30573635  0.47885777  0.75329490  1
  O  O70  1  0.17100865  0.69108983  0.75365179  1
  O  O71  1  0.52174502  0.83056865  0.75300609  1
loop_
_geom_bond_atom_site_label_1
_geom_bond_atom_site_label_2
_geom_bond_distance
_geom_bond_site_symmetry_2
Na0 O52 2.391572 1_555
Na0 O16 2.453911 1_555
Na0 O53 2.520929 1_555
Na0 O67 2.676207 1_545
Na0 O66 2.733099 1_545
Na0 O31 2.850717 1_545
Na1 O17 2.424969 1_555
Na1 O51 2.522812 1_555
Na1 O53 2.531510 1_555
Na1 O68 2.583494 1_555
Na1 O67 2.735814 1_555
Na1 O10 2.928855 1_555
Na1 O32 2.964638 1_555
Na2 O52 2.330795 1_555
Na2 O15 2.341336 1_555
Na2 O51 2.550518 1_555
Na2 O68 2.577108 1_655
Na2 O66 2.732071 1_655
Na2 O30 2.926415 1_655
Na3 O49 2.465154 1_555
Na3 O50 2.482279 1_555
Na3 O14 2.559100 1_555
Na3 O69 2.650307 1_555
Na3 O71 2.661683 1_555
Na3 O35 2.876483 1_555
Na4 O48 2.416907 1_555
Na4 O50 2.429485 1_555
Na4 O69 2.619537 1_655
Na4 O70 2.634625 1_655
Na4 O33 2.758595 1_655
Na4 O12 2.761098 1_555
Na5 O49 2.450464 1_555
Na5 O48 2.473236 1_555
Na5 O13 2.577646 1_555
Na5 O71 2.603586 1_545
Na5 O70 2.650178 1_545
Na5 O34 2.858653 1_545
Na6 O43 2.495752 1_555
Na6 O64 2.546765 1_555
Na6 O7 2.627856 1_555
Na6 O65 2.722836 1_555
Na6 O42 2.760034 1_455
Na6 O14 2.797698 1_555
Na6 O28 2.913243 1_555
Na6 O21 3.003299 1_555
Na7 O63 2.494372 1_555
Na7 O44 2.536692 1_455
Na7 O43 2.571781 1_565
Na7 O65 2.672945 1_555
Na7 O8 2.696884 1_555
Na7 O29 2.760179 1_555
Na8 O6 2.546960 1_555
Na8 O64 2.566083 1_555
Na8 O44 2.587116 1_555
Na8 O63 2.602853 1_555
Na8 O42 2.629655 1_565
Na8 O13 2.807862 1_565
Na8 O27 2.959686 1_555
Na9 O61 2.542960 1_555
Na9 O62 2.553065 1_555
Na9 O47 2.568628 1_565
Na9 O26 2.624335 1_554
Na9 O45 2.642140 1_455
Na9 O18 2.923226 1_565
Na9 O11 2.954266 1_555
Na9 O16 2.954412 1_565
Na10 O60 2.544013 1_555
Na10 O62 2.565835 1_555
Na10 O45 2.606236 1_555
Na10 O24 2.614570 1_554
Na10 O46 2.628124 1_565
Na10 O19 2.876812 1_555
Na10 O9 2.938841 1_555
Na11 O61 2.516722 1_555
Na11 O60 2.586448 1_555
Na11 O25 2.649489 1_554
Na11 O46 2.667342 1_455
Na11 O47 2.735393 1_555
Na11 O10 2.894289 1_555
Na11 O20 2.904812 1_455
Na11 O15 2.947294 1_455
Na12 O55 2.547728 1_555
Na12 O40 2.562184 1_655
Na12 O41 2.574103 1_555
Na12 O54 2.585601 1_555
Na12 O4 2.694336 1_555
Na12 O19 2.845293 1_556
Na13 O56 2.551264 1_555
Na13 O41 2.564673 1_545
Na13 O39 2.574745 1_655
Na13 O55 2.583891 1_555
Na13 O5 2.713058 1_555
Na13 O20 2.868771 1_556
Na13 O34 2.970346 1_545
Na14 O54 2.550551 1_555
Na14 O39 2.563164 1_555
Na14 O40 2.577725 1_545
Na14 O56 2.583159 1_555
Na14 O3 2.718316 1_555
Na14 O18 2.865804 1_556
Na15 O2 2.493043 1_555
Na15 O37 2.513599 1_545
Na15 O38 2.540416 1_655
Na15 O57 2.573162 1_555
Na15 O59 2.610966 1_555
Na16 O38 2.430540 1_555
Na16 O36 2.469293 1_545
Na16 O58 2.679655 1_555
Na16 O57 2.690237 1_555
Na16 O0 2.717075 1_555
Na16 O21 2.767865 1_555
Na17 O37 2.409245 1_555
Na17 O36 2.441611 1_655
Na17 O58 2.629326 1_555
Na17 O59 2.644811 1_555
Na17 O1 2.721721 1_555
Na17 O22 2.765785 1_555
Na18 O37 2.484032 1_455
Na18 O36 2.493339 1_555
Na18 O38 2.493982 1_565
Na18 O43 2.630077 1_565
Na18 O44 2.643037 1_455
Na18 O42 2.801491 1_465
Na19 O41 2.457795 1_455
Na19 O40 2.476057 1_555
Na19 O39 2.481487 1_565
Na19 O47 2.757042 1_566
Na19 O45 2.758995 1_456
Na19 O46 2.773163 1_466
Na20 O49 2.405954 1_555
Na20 O48 2.448410 1_555
Na20 O50 2.457488 1_555
Na20 O55 2.742439 1_555
Na20 O54 2.769671 1_555
Na20 O56 2.769697 1_555
Na21 O52 2.423534 1_555
Na21 O59 2.565878 1_555
Na21 O57 2.568888 1_555
Na21 O53 2.693255 1_555
Na21 O58 2.711009 1_555
Na21 O51 2.713794 1_555
Na22 O61 2.438544 1_555
Na22 O60 2.442484 1_555
Na22 O62 2.513941 1_555
Na22 O68 2.627678 1_555
Na22 O67 2.781739 1_555
Na22 O66 2.787151 1_555
Na23 O71 2.412940 1_555
Na23 O69 2.495928 1_555
Na23 O70 2.515772 1_555
Na23 O64 2.669100 1_555
Na23 O63 2.672116 1_555
Na23 O65 2.863357 1_555
O0 S0 1.472142 1_545
O0 Zn0 2.332246 1_455
O1 S1 1.472360 1_555
O1 Zn0 2.289539 1_565
O2 Si0 1.621420 1_555
O2 Zn0 1.994443 1_555
O3 Si1 1.649574 1_555
O3 Zr0 2.030324 1_445
O4 Si2 1.650445 1_555
O4 Zr0 2.052197 1_555
O5 Si3 1.652315 1_555
O5 Zr0 2.033371 1_545
O6 Si3 1.668378 1_565
O6 Zr1 2.052061 1_655
O7 Si1 1.664060 1_555
O7 Zr1 2.049465 1_545
O8 Si2 1.672284 1_455
O8 Zr1 1.981744 1_555
O9 S1 1.504677 1_555
O9 Zr2 2.299140 1_665
O10 Si0 1.679649 1_455
O10 Zr2 2.030997 1_555
O11 S0 1.505683 1_555
O11 Zr2 2.262769 1_565
O12 S2 1.459120 1_555
O12 Zn1 2.450564 1_555
O13 Si4 1.609635 1_555
O13 Zn1 2.052367 1_555
O14 Si5 1.608596 1_555
O14 Zn1 2.055137 1_555
O15 Si6 1.619919 1_555
O15 Zn2 1.944658 1_555
O16 Si7 1.618955 1_555
O16 Zn2 1.949124 1_555
O17 Si8 1.622179 1_555
O17 Zn2 2.012943 1_555
O18 Si8 1.643835 1_555
O18 Zr3 2.082126 1_554
O19 Si6 1.647081 1_555
O19 Zr3 2.092684 1_554
O20 Si7 1.643351 1_555
O20 Zr3 2.092582 1_554
O21 Si4 1.672520 1_555
O21 Zr4 2.043149 1_555
O22 Si5 1.672964 1_555
O22 Zr4 2.046501 1_555
O23 S2 1.499830 1_555
O23 Zr4 2.271351 1_555
O24 Si9 1.648699 1_555
O24 Zr5 2.053943 1_556
O25 Si10 1.649940 1_555
O25 Zr5 2.049188 1_556
O26 Si11 1.649216 1_555
O26 Zr5 2.050888 1_556
O27 Si12 1.653625 1_555
O27 Zr6 1.983180 1_555
O28 Si13 1.636925 1_555
O28 Zr6 2.065012 1_555
O29 Si14 1.643111 1_555
O29 Zr6 2.071624 1_555
O30 Si14 1.672499 1_555
O30 Zr7 1.986064 1_555
O31 Si12 1.661050 1_555
O31 Zr7 2.068693 1_555
O32 Si13 1.665762 1_555
O32 Zr7 1.991405 1_555
O33 Si10 1.640429 1_555
O33 Zr8 2.087042 1_555
O34 Si11 1.639427 1_555
O34 Zr8 2.077793 1_555
O35 Si9 1.637202 1_555
O35 Zr8 2.069347 1_555
O36 Si14 1.620216 1_555
O36 Zn0 2.147757 1_465
O37 Si12 1.617235 1_555
O37 Zn0 2.052241 1_565
O38 Si13 1.612195 1_555
O38 Zn0 2.062324 1_455
O39 Si10 1.641340 1_555
O39 Zr0 2.187282 1_445
O40 Si11 1.641259 1_555
O40 Zr0 2.182580 1_455
O41 Si9 1.640723 1_555
O41 Zr0 2.183926 1_555
O42 S2 1.500280 1_555
O42 Zr1 2.398446 1_645
O43 Si4 1.666902 1_555
O43 Zr1 2.176568 1_545
O44 Si5 1.666856 1_555
O44 Zr1 2.166016 1_655
O45 Si6 1.660934 1_555
O45 Zr2 2.105930 1_665
O46 Si7 1.674315 1_555
O46 Zr2 2.027151 1_655
O47 Si8 1.680014 1_555
O47 Zr2 2.028778 1_555
O48 Si3 1.616928 1_555
O48 Zn1 2.169716 1_555
O49 Si1 1.617982 1_555
O49 Zn1 2.065585 1_555
O50 Si2 1.612555 1_555
O50 Zn1 2.186405 1_555
O51 S1 1.475477 1_555
O52 Si0 1.641570 1_555
O52 Zn2 2.337765 1_555
O53 S0 1.474820 1_545
O54 Si9 1.641634 1_555
O54 Zr3 2.127539 1_555
O55 Si10 1.644243 1_655
O55 Zr3 2.141338 1_555
O56 Si11 1.642956 1_545
O56 Zr3 2.137124 1_555
O57 Si12 1.646347 1_545
O57 Zr4 2.162323 1_555
O58 Si13 1.654439 1_555
O58 Zr4 2.053187 1_555
O59 Si14 1.646301 1_655
O59 Zr4 2.152934 1_555
O60 Si8 1.648400 1_555
O60 Zr5 2.187782 1_555
O61 Si6 1.649967 1_455
O61 Zr5 2.163565 1_555
O62 Si7 1.641431 1_565
O62 Zr5 2.148810 1_555
O63 Si4 1.669023 1_565
O63 Zr6 2.124765 1_555
O64 Si5 1.670873 1_555
O64 Zr6 2.122993 1_555
O65 S2 1.501586 1_455
O65 Zr6 2.330306 1_555
O66 S0 1.520165 1_555
O66 Zr7 2.335514 1_555
O67 S1 1.523841 1_555
O67 Zr7 2.362781 1_555
O68 Si0 1.700410 1_455
O68 Zr7 2.126539 1_555
O69 Si1 1.647446 1_555
O69 Zr8 2.144350 1_555
O70 Si2 1.644061 1_455
O70 Zr8 2.133335 1_555
O71 Si3 1.652197 1_565
O71 Zr8 2.156056 1_555
