# generated using pymatgen
data_NaLa2In2PS5O24
_symmetry_space_group_name_H-M   'P 1'
_cell_length_a   9.15053702
_cell_length_b   9.14350428
_cell_length_c   24.49095614
_cell_angle_alpha   89.93360246
_cell_angle_beta   90.16914645
_cell_angle_gamma   119.80210761
_symmetry_Int_Tables_number   1
_chemical_formula_structural   NaLa2In2PS5O24
_chemical_formula_sum   'Na3 La6 In6 P3 S15 O72'
_cell_volume   1778.10041039
_cell_formula_units_Z   3
loop_
 _symmetry_equiv_pos_site_id
 _symmetry_equiv_pos_as_xyz
  1  'x, y, z'
loop_
 _atom_site_type_symbol
 _atom_site_label
 _atom_site_symmetry_multiplicity
 _atom_site_fract_x
 _atom_site_fract_y
 _atom_site_fract_z
 _atom_site_occupancy
  Na  Na0  1  0.99874266  0.98664597  0.99536150  1
  Na  Na1  1  0.65333471  0.33162404  0.83811383  1
  Na  Na2  1  0.67830785  0.33148449  0.33373354  1
  La  La0  1  0.99974725  0.99109919  0.84896494  1
  La  La1  1  0.00125300  0.00781671  0.15662825  1
  La  La2  1  0.67550520  0.33467567  0.19018661  1
  La  La3  1  0.65882360  0.33442065  0.97916930  1
  La  La4  1  0.33961913  0.67294758  0.01698252  1
  La  La5  1  0.34124264  0.67427485  0.80945632  1
  In  In0  1  0.99914098  0.00475260  0.35506994  1
  In  In1  1  0.00064524  0.00075336  0.64485481  1
  In  In2  1  0.66494353  0.33264197  0.67667403  1
  In  In3  1  0.66661780  0.33312732  0.48516820  1
  In  In4  1  0.33295070  0.66733243  0.51772938  1
  In  In5  1  0.32765881  0.65963819  0.31951820  1
  P  P0  1  0.00679444  0.30083587  0.26101284  1
  P  P1  1  0.63721692  0.66802355  0.91469268  1
  P  P2  1  0.33294772  0.96960451  0.91454938  1
  S  S0  1  0.29330118  0.99113484  0.26039472  1
  S  S1  1  0.69843407  0.70752001  0.26040400  1
  S  S2  1  0.30350667  0.28617753  0.74141228  1
  S  S3  1  0.98168957  0.69322980  0.74053901  1
  S  S4  1  0.71584696  0.01975073  0.74106372  1
  S  S5  1  0.96009874  0.33474791  0.58131943  1
  S  S6  1  0.37415043  0.03975580  0.58133495  1
  S  S7  1  0.66551753  0.62601836  0.58138850  1
  S  S8  1  0.96590808  0.63935478  0.08378412  1
  S  S9  1  0.67416290  0.03599675  0.08368371  1
  S  S10  1  0.36135221  0.32716139  0.08517360  1
  S  S11  1  0.03237006  0.36471944  0.91460948  1
  S  S12  1  0.62085403  0.95862361  0.41788173  1
  S  S13  1  0.33921092  0.37637213  0.41884873  1
  S  S14  1  0.03765282  0.66453415  0.41804402  1
  O  O0  1  0.20368262  0.01304439  0.30740955  1
  O  O1  1  0.81355988  0.79297657  0.30723548  1
  O  O2  1  0.97897534  0.18322556  0.31014268  1
  O  O3  1  0.23219810  0.18784202  0.79212402  1
  O  O4  1  0.95366439  0.76331658  0.79149943  1
  O  O5  1  0.81255098  0.04517496  0.79212527  1
  O  O6  1  0.80385535  0.99968796  0.69314162  1
  O  O7  1  0.19644247  0.19826979  0.69309520  1
  O  O8  1  0.00270099  0.80312116  0.69291368  1
  O  O9  1  0.77099755  0.79709671  0.20836627  1
  O  O10  1  0.02391706  0.22310799  0.20702752  1
  O  O11  1  0.20088867  0.96970738  0.20848101  1
  O  O12  1  0.88559243  0.37046543  0.62994115  1
  O  O13  1  0.48416387  0.11338074  0.63024901  1
  O  O14  1  0.62953841  0.51599973  0.63022855  1
  O  O15  1  0.87460460  0.54280363  0.13347217  1
  O  O16  1  0.67044829  0.12764599  0.13342896  1
  O  O17  1  0.45862208  0.33210116  0.13456844  1
  O  O18  1  0.44500038  0.31332708  0.03525290  1
  O  O19  1  0.86712059  0.55442026  0.03411667  1
  O  O20  1  0.68602377  0.13309188  0.03399292  1
  O  O21  1  0.44999354  0.15157879  0.53256520  1
  O  O22  1  0.70140428  0.54978605  0.53263300  1
  O  O23  1  0.84826695  0.29839335  0.53223421  1
  O  O24  1  0.54658171  0.66619267  0.96785883  1
  O  O25  1  0.12136101  0.44874064  0.96565699  1
  O  O26  1  0.32680135  0.87546552  0.96749976  1
  O  O27  1  0.54353936  0.85522165  0.46784600  1
  O  O28  1  0.31070918  0.45403912  0.46830947  1
  O  O29  1  0.14269267  0.69275037  0.46790323  1
  O  O30  1  0.11304693  0.63072799  0.36943818  1
  O  O31  1  0.51208592  0.88230565  0.36901494  1
  O  O32  1  0.37338067  0.48495293  0.36997541  1
  O  O33  1  0.12424997  0.46035421  0.86554235  1
  O  O34  1  0.32931361  0.87058051  0.86282180  1
  O  O35  1  0.53683232  0.66407106  0.86318668  1
  O  O36  1  0.01862621  0.81510402  0.40923029  1
  O  O37  1  0.78925606  0.97532406  0.41025946  1
  O  O38  1  0.18997464  0.20713037  0.41065069  1
  O  O39  1  0.01503521  0.19477243  0.91427080  1
  O  O40  1  0.17727207  0.99437633  0.91541830  1
  O  O41  1  0.81186077  0.83026937  0.91536516  1
  O  O42  1  0.97946446  0.18473722  0.59074492  1
  O  O43  1  0.20554393  0.02115857  0.59076007  1
  O  O44  1  0.81506267  0.79452246  0.59098132  1
  O  O45  1  0.98438211  0.80997868  0.08599116  1
  O  O46  1  0.82535544  0.01570332  0.08512867  1
  O  O47  1  0.19161370  0.17400171  0.08633095  1
  O  O48  1  0.69860196  0.17342689  0.73449923  1
  O  O49  1  0.47436547  0.30268136  0.73501937  1
  O  O50  1  0.82756127  0.52393998  0.73374781  1
  O  O51  1  0.67506747  0.53417156  0.25729148  1
  O  O52  1  0.84816436  0.32215600  0.25773496  1
  O  O53  1  0.46272372  0.14533037  0.25704163  1
  O  O54  1  0.66067487  0.51180464  0.91171425  1
  O  O55  1  0.86297224  0.34846986  0.91347673  1
  O  O56  1  0.49541577  0.14359704  0.91228294  1
  O  O57  1  0.64009078  0.13233939  0.42480535  1
  O  O58  1  0.49392391  0.35824595  0.42637251  1
  O  O59  1  0.86528312  0.51019924  0.42540782  1
  O  O60  1  0.34610033  0.47900457  0.08334895  1
  O  O61  1  0.13123034  0.65052586  0.08235776  1
  O  O62  1  0.52093681  0.87010733  0.08342266  1
  O  O63  1  0.35739978  0.87129675  0.57147508  1
  O  O64  1  0.51423882  0.64343399  0.57133096  1
  O  O65  1  0.12797978  0.48580540  0.57127765  1
  O  O66  1  0.31164082  0.84098466  0.26756106  1
  O  O67  1  0.53486159  0.69941192  0.26784146  1
  O  O68  1  0.16699803  0.47298507  0.26773217  1
  O  O69  1  0.31987484  0.45367877  0.74606845  1
  O  O70  1  0.13155872  0.67509382  0.74566812  1
  O  O71  1  0.54786632  0.86913340  0.74500898  1
loop_
_geom_bond_atom_site_label_1
_geom_bond_atom_site_label_2
_geom_bond_distance
_geom_bond_site_symmetry_2
Na0 O41 2.522580 1_555
Na0 O40 2.531971 1_655
Na0 O39 2.701626 1_665
Na0 O45 2.708453 1_556
Na0 O46 2.803950 1_566
Na0 O47 2.827272 1_666
Na1 O54 2.421580 1_555
Na1 O56 2.425333 1_555
Na1 O55 2.606967 1_555
Na1 O49 2.945055 1_555
Na1 O48 3.051831 1_555
Na1 O50 3.064974 1_555
Na2 O52 2.456957 1_555
Na2 O53 2.639029 1_555
Na2 O51 2.643227 1_555
Na2 O57 2.788366 1_555
Na2 O59 2.800917 1_555
Na2 O58 2.913478 1_555
La0 O40 2.285743 1_655
La0 O41 2.293635 1_555
La0 O4 2.372049 1_555
La0 O39 2.406739 1_665
La0 O3 2.430342 1_665
La0 O5 2.437763 1_565
La1 O10 2.244983 1_555
La1 O47 2.384925 1_555
La1 O11 2.385212 1_545
La1 O9 2.394160 1_445
La1 O46 2.400133 1_455
La1 O45 2.452948 1_445
La2 O52 2.325931 1_555
La2 O15 2.330773 1_555
La2 O16 2.331606 1_555
La2 O17 2.394219 1_555
La2 O51 2.458159 1_555
La2 O53 2.476047 1_555
La3 O54 2.307977 1_555
La3 O56 2.315685 1_555
La3 O18 2.322118 1_556
La3 O19 2.381235 1_556
La3 O20 2.387721 1_556
La3 O55 2.423509 1_555
La4 O26 2.262993 1_554
La4 O24 2.273252 1_554
La4 O62 2.380780 1_555
La4 O25 2.385965 1_554
La4 O61 2.422887 1_555
La4 O60 2.426380 1_555
La5 O35 2.257281 1_555
La5 O34 2.267789 1_555
La5 O33 2.409272 1_555
La5 O71 2.429631 1_555
La5 O70 2.473596 1_555
La5 O69 2.475901 1_555
In0 O2 2.049802 1_555
In0 O1 2.175011 1_545
In0 O0 2.177841 1_655
In0 O37 2.255813 1_545
In0 O36 2.258046 1_645
In0 O38 2.259701 1_655
In1 O6 2.153222 1_445
In1 O7 2.154894 1_555
In1 O8 2.163299 1_545
In1 O42 2.222865 1_455
In1 O43 2.229739 1_555
In1 O44 2.233815 1_445
In2 O50 2.152613 1_555
In2 O48 2.158264 1_555
In2 O49 2.167254 1_555
In2 O14 2.177825 1_555
In2 O13 2.178561 1_555
In2 O12 2.196540 1_555
In3 O23 2.169101 1_555
In3 O22 2.180233 1_555
In3 O21 2.184168 1_555
In3 O58 2.229343 1_555
In3 O59 2.269966 1_555
In3 O57 2.275120 1_555
In4 O63 2.202250 1_555
In4 O64 2.206754 1_555
In4 O27 2.208077 1_555
In4 O65 2.215330 1_555
In4 O28 2.217947 1_555
In4 O29 2.227794 1_555
In5 O68 2.045131 1_555
In5 O66 2.150748 1_555
In5 O67 2.157919 1_555
In5 O32 2.215827 1_555
In5 O30 2.217788 1_555
In5 O31 2.245206 1_555
O0 S0 1.485882 1_545
O1 S1 1.487461 1_555
O2 P0 1.547806 1_655
O3 S2 1.481802 1_555
O4 S3 1.483649 1_555
O5 S4 1.480070 1_555
O6 S4 1.487481 1_565
O7 S2 1.489549 1_555
O8 S3 1.487823 1_455
O9 S1 1.482548 1_555
O10 P0 1.546553 1_555
O11 S0 1.483075 1_555
O12 S5 1.488783 1_555
O13 S6 1.490906 1_555
O14 S7 1.490442 1_555
O15 S8 1.492852 1_555
O16 S9 1.489494 1_555
O17 S10 1.487116 1_555
O18 S10 1.482824 1_555
O19 S8 1.482488 1_555
O20 S9 1.477659 1_555
O21 S6 1.500138 1_555
O22 S7 1.500418 1_555
O23 S5 1.502788 1_555
O24 P1 1.541455 1_555
O25 S11 1.480096 1_555
O26 P2 1.541265 1_555
O27 S12 1.493094 1_555
O28 S13 1.492528 1_555
O29 S14 1.492918 1_555
O30 S14 1.485342 1_555
O31 S12 1.488084 1_555
O32 S13 1.485606 1_555
O33 S11 1.479302 1_555
O34 P2 1.548649 1_555
O35 P1 1.548082 1_555
O36 S14 1.486492 1_555
O37 S12 1.483403 1_555
O38 S13 1.482682 1_555
O39 S11 1.481513 1_555
O40 P2 1.549811 1_555
O41 P1 1.548629 1_555
O42 S5 1.485486 1_555
O43 S6 1.484515 1_555
O44 S7 1.484855 1_555
O45 S8 1.484386 1_555
O46 S9 1.484791 1_555
O47 S10 1.487435 1_555
O48 S4 1.498297 1_555
O49 S2 1.502842 1_555
O50 S3 1.497318 1_555
O51 S1 1.492348 1_555
O52 P0 1.559485 1_655
O53 S0 1.491909 1_545
O54 P1 1.548159 1_555
O55 S11 1.482033 1_655
O56 P2 1.547106 1_545
O57 S12 1.518284 1_545
O58 S13 1.515674 1_555
O59 S14 1.516683 1_655
O60 S10 1.463385 1_555
O61 S8 1.465226 1_455
O62 S9 1.467183 1_565
O63 S6 1.490071 1_565
O64 S7 1.489723 1_555
O65 S5 1.490118 1_455
O66 S0 1.473805 1_555
O67 S1 1.473191 1_555
O68 P0 1.535979 1_555
O69 S2 1.467434 1_555
O70 S3 1.465931 1_455
O71 S4 1.471404 1_565
