# generated using pymatgen
data_KH6C2S2NO4
_symmetry_space_group_name_H-M   'P 1'
_cell_length_a   8.64865700
_cell_length_b   7.78279200
_cell_length_c   12.15943245
_cell_angle_alpha   72.56728927
_cell_angle_beta   90.00000000
_cell_angle_gamma   90.00000000
_symmetry_Int_Tables_number   1
_chemical_formula_structural   KH6C2S2NO4
_chemical_formula_sum   'K4 H24 C8 S8 N4 O16'
_cell_volume   780.86757671
_cell_formula_units_Z   4
loop_
 _symmetry_equiv_pos_site_id
 _symmetry_equiv_pos_as_xyz
  1  'x, y, z'
loop_
 _atom_site_type_symbol
 _atom_site_label
 _atom_site_symmetry_multiplicity
 _atom_site_fract_x
 _atom_site_fract_y
 _atom_site_fract_z
 _atom_site_occupancy
  K  K0  1  0.02447500  0.57088500  0.21144900  1
  K  K1  1  0.52447500  0.42911500  0.28855100  1
  K  K2  1  0.97552500  0.42911500  0.78855100  1
  K  K3  1  0.47552500  0.57088500  0.71144900  1
  H  H0  1  0.21669200  0.99810800  0.82820700  1
  H  H1  1  0.71669200  0.00189200  0.67179300  1
  H  H2  1  0.78330800  0.00189200  0.17179300  1
  H  H3  1  0.28330800  0.99810800  0.32820700  1
  H  H4  1  0.15806700  0.93741800  0.97790400  1
  H  H5  1  0.65806700  0.06258200  0.52209600  1
  H  H6  1  0.84193300  0.06258200  0.02209600  1
  H  H7  1  0.34193300  0.93741800  0.47790400  1
  H  H8  1  0.21702800  0.76566000  0.91307000  1
  H  H9  1  0.71702800  0.23434000  0.58693000  1
  H  H10  1  0.78297200  0.23434000  0.08693000  1
  H  H11  1  0.28297200  0.76566000  0.41307000  1
  H  H12  1  0.02304600  0.73706300  0.47327600  1
  H  H13  1  0.52304600  0.26293700  0.02672400  1
  H  H14  1  0.97695400  0.26293700  0.52672400  1
  H  H15  1  0.47695400  0.73706300  0.97327600  1
  H  H16  1  0.59930000  0.85611200  0.04516800  1
  H  H17  1  0.09930000  0.14388800  0.45483200  1
  H  H18  1  0.40070000  0.14388800  0.95483200  1
  H  H19  1  0.90070000  0.85611200  0.54516800  1
  H  H20  1  0.60068500  0.91570700  0.88965300  1
  H  H21  1  0.10068500  0.08429300  0.61034700  1
  H  H22  1  0.39931500  0.08429300  0.11034700  1
  H  H23  1  0.89931500  0.91570700  0.38965300  1
  C  C0  1  0.91189100  0.80608800  0.47037900  1
  C  C1  1  0.83957500  0.10373900  0.10069400  1
  C  C2  1  0.66042500  0.10373900  0.60069400  1
  C  C3  1  0.16042500  0.89626100  0.89930600  1
  C  C4  1  0.58810900  0.80608800  0.97037900  1
  C  C5  1  0.08810900  0.19391200  0.52962100  1
  C  C6  1  0.41189100  0.19391200  0.02962100  1
  C  C7  1  0.33957500  0.89626100  0.39930600  1
  S  S0  1  0.73509700  0.64212500  0.98025300  1
  S  S1  1  0.23509700  0.35787500  0.51974700  1
  S  S2  1  0.26490300  0.35787500  0.01974700  1
  S  S3  1  0.76490300  0.64212500  0.48025300  1
  S  S4  1  0.53228200  0.87703100  0.35572600  1
  S  S5  1  0.03228200  0.12296900  0.14427400  1
  S  S6  1  0.46771800  0.12296900  0.64427400  1
  S  S7  1  0.96771800  0.87703100  0.85572600  1
  N  N0  1  0.10024600  0.26287500  0.02782300  1
  N  N1  1  0.39975400  0.26287500  0.52782300  1
  N  N2  1  0.89975400  0.73712500  0.97217700  1
  N  N3  1  0.60024600  0.73712500  0.47217700  1
  O  O0  1  0.22681900  0.48236200  0.40233000  1
  O  O1  1  0.39538900  0.94453800  0.66946200  1
  O  O2  1  0.10461100  0.94453800  0.16946200  1
  O  O3  1  0.60461100  0.05546200  0.33053800  1
  O  O4  1  0.70581100  0.56032800  0.88789900  1
  O  O5  1  0.20581100  0.43967200  0.61210100  1
  O  O6  1  0.29418900  0.43967200  0.11210100  1
  O  O7  1  0.79418900  0.56032800  0.38789900  1
  O  O8  1  0.72681900  0.51763800  0.09767000  1
  O  O9  1  0.89538900  0.05546200  0.83053800  1
  O  O10  1  0.27318100  0.48236200  0.90233000  1
  O  O11  1  0.77318100  0.51763800  0.59767000  1
  O  O12  1  0.02987000  0.19594300  0.24235100  1
  O  O13  1  0.97013000  0.80405700  0.75764900  1
  O  O14  1  0.47013000  0.19594300  0.74235100  1
  O  O15  1  0.52987000  0.80405700  0.25764900  1
loop_
_geom_bond_atom_site_label_1
_geom_bond_atom_site_label_2
_geom_bond_distance
_geom_bond_site_symmetry_2
K0 O0 2.822432 1_555
K0 O12 2.828722 1_555
K0 O2 2.882404 1_555
K0 O7 2.910526 1_455
K0 O6 2.946631 1_555
K0 N2 3.007779 1_454
K0 O8 3.009393 1_455
K1 O8 2.822432 1_555
K1 O15 2.828722 1_555
K1 O3 2.882404 1_555
K1 O6 2.910526 1_555
K1 O7 2.946631 1_555
K1 N1 3.007779 1_555
K1 O0 3.009393 1_555
K2 O11 2.822432 1_555
K2 O13 2.828722 1_555
K2 O9 2.882404 1_555
K2 O5 2.910526 1_655
K2 O4 2.946631 1_555
K2 N0 3.007779 1_656
K2 O10 3.009393 1_655
K3 O10 2.822432 1_555
K3 O14 2.828722 1_555
K3 O1 2.882404 1_555
K3 O4 2.910526 1_555
K3 O5 2.946631 1_555
K3 N3 3.007779 1_555
K3 O11 3.009393 1_555
C0 H19 1.095478 1_555
C0 H23 1.096094 1_555
C0 H12 1.096664 1_655
C0 S3 1.779633 1_555
C1 H10 1.094935 1_555
C1 H6 1.095362 1_555
C1 H2 1.096322 1_555
C1 S5 1.768747 1_655
C2 H9 1.094935 1_555
C2 H5 1.095362 1_555
C2 H1 1.096322 1_555
C2 S6 1.768747 1_555
C3 H8 1.094935 1_555
C3 H4 1.095362 1_555
C3 H0 1.096322 1_555
C3 S7 1.768747 1_455
C4 H16 1.095478 1_556
C4 H20 1.096094 1_555
C4 H15 1.096664 1_555
C4 S0 1.779633 1_555
C5 H17 1.095478 1_555
C5 H21 1.096094 1_555
C5 H14 1.096664 1_455
C5 S1 1.779633 1_555
C6 H18 1.095478 1_554
C6 H22 1.096094 1_555
C6 H13 1.096664 1_555
C6 S2 1.779633 1_555
C7 H11 1.094935 1_555
C7 H7 1.095362 1_555
C7 H3 1.096322 1_555
C7 S4 1.768747 1_555
N0 S2 1.593974 1_555
N0 S5 1.616265 1_555
N1 S1 1.593974 1_555
N1 S6 1.616265 1_555
N2 S0 1.593974 1_555
N2 S7 1.616265 1_555
N3 S3 1.593974 1_555
N3 S4 1.616265 1_555
O0 S1 1.467445 1_555
O1 S6 1.469265 1_565
O2 S5 1.469265 1_565
O3 S4 1.469265 1_545
O4 S0 1.469297 1_555
O5 S1 1.469297 1_555
O6 S2 1.469297 1_555
O7 S3 1.469297 1_555
O8 S0 1.467445 1_554
O9 S7 1.469265 1_545
O10 S2 1.467445 1_556
O11 S3 1.467445 1_555
O12 S5 1.466634 1_555
O13 S7 1.466634 1_555
O14 S6 1.466634 1_555
O15 S4 1.466634 1_555
