# generated using pymatgen
data_Na6LaTa3(SiO4)6
_symmetry_space_group_name_H-M   'P 1'
_cell_length_a   9.21952968
_cell_length_b   9.21985894
_cell_length_c   22.60998249
_cell_angle_alpha   89.96521176
_cell_angle_beta   90.04887261
_cell_angle_gamma   119.90799583
_symmetry_Int_Tables_number   1
_chemical_formula_structural   Na6LaTa3(SiO4)6
_chemical_formula_sum   'Na18 La3 Ta9 Si18 O72'
_cell_volume   1665.96402624
_cell_formula_units_Z   3
loop_
 _symmetry_equiv_pos_site_id
 _symmetry_equiv_pos_as_xyz
  1  'x, y, z'
loop_
 _atom_site_type_symbol
 _atom_site_label
 _atom_site_symmetry_multiplicity
 _atom_site_fract_x
 _atom_site_fract_y
 _atom_site_fract_z
 _atom_site_occupancy
  Na  Na0  1  0.00817925  0.00065976  0.50256829  1
  Na  Na1  1  0.98908618  0.98991247  0.99779765  1
  Na  Na2  1  0.66654539  0.33228760  0.83456538  1
  Na  Na3  1  0.66658926  0.33270599  0.32487899  1
  Na  Na4  1  0.34741977  0.66649859  0.16224180  1
  Na  Na5  1  0.31986596  0.65297655  0.66529425  1
  Na  Na6  1  0.64386865  0.01500291  0.24496844  1
  Na  Na7  1  0.36939649  0.35580807  0.24490814  1
  Na  Na8  1  0.98726722  0.62918505  0.24477728  1
  Na  Na9  1  0.63053030  0.62262526  0.74838360  1
  Na  Na10  1  0.98928545  0.36778471  0.74852340  1
  Na  Na11  1  0.38044460  0.00944950  0.74894289  1
  Na  Na12  1  0.66358023  0.97174544  0.58515132  1
  Na  Na13  1  0.31094106  0.97267639  0.08047862  1
  Na  Na14  1  0.02690927  0.33985925  0.08061943  1
  Na  Na15  1  0.96520222  0.28957453  0.41485977  1
  Na  Na16  1  0.32497658  0.03365259  0.41490754  1
  Na  Na17  1  0.70965244  0.67640601  0.41531442  1
  La  La0  1  0.99988322  0.00009615  0.35067003  1
  La  La1  1  0.66753104  0.33703363  0.67971395  1
  La  La2  1  0.66482869  0.33606465  0.16645827  1
  Ta  Ta0  1  0.00023806  0.00068892  0.85860061  1
  Ta  Ta1  1  0.00331780  0.99958692  0.64568132  1
  Ta  Ta2  1  0.99737448  0.99721713  0.14649184  1
  Ta  Ta3  1  0.66754056  0.33449877  0.97920804  1
  Ta  Ta4  1  0.66595827  0.33406119  0.48376377  1
  Ta  Ta5  1  0.33625673  0.66649123  0.01300598  1
  Ta  Ta6  1  0.33023147  0.66308384  0.52093173  1
  Ta  Ta7  1  0.33291823  0.66663038  0.31182335  1
  Ta  Ta8  1  0.33391834  0.66702571  0.81443114  1
  Si  Si0  1  0.30079214  0.99592562  0.25027267  1
  Si  Si1  1  0.69576436  0.70096156  0.25114433  1
  Si  Si2  1  0.00494465  0.30501290  0.24991274  1
  Si  Si3  1  0.27769622  0.28892475  0.75320911  1
  Si  Si4  1  0.01047500  0.72133646  0.75373726  1
  Si  Si5  1  0.71058416  0.98957399  0.75246524  1
  Si  Si6  1  0.97153995  0.33194541  0.58464969  1
  Si  Si7  1  0.36114617  0.02987125  0.58344019  1
  Si  Si8  1  0.66914650  0.63923118  0.58409712  1
  Si  Si9  1  0.97318605  0.63873414  0.08088949  1
  Si  Si10  1  0.66468963  0.02519170  0.08151041  1
  Si  Si11  1  0.36134443  0.33593433  0.08212457  1
  Si  Si12  1  0.62584863  0.66222025  0.91469482  1
  Si  Si13  1  0.03647816  0.37492815  0.91531036  1
  Si  Si14  1  0.33754980  0.96303419  0.91556881  1
  Si  Si15  1  0.61361208  0.96159092  0.41901763  1
  Si  Si16  1  0.34878064  0.38660119  0.41813196  1
  Si  Si17  1  0.03835182  0.65218894  0.41829412  1
  O  O0  1  0.23813890  0.03010429  0.31256497  1
  O  O1  1  0.78971014  0.76018930  0.31404074  1
  O  O2  1  0.96998282  0.20814593  0.31227904  1
  O  O3  1  0.17470274  0.17250562  0.80932030  1
  O  O4  1  0.99840222  0.82538776  0.80966700  1
  O  O5  1  0.82905533  0.00185247  0.80797918  1
  O  O6  1  0.80216276  0.96940705  0.69165727  1
  O  O7  1  0.16007988  0.19140216  0.69413419  1
  O  O8  1  0.02870330  0.83796269  0.69448669  1
  O  O9  1  0.81314621  0.83685657  0.19721571  1
  O  O10  1  0.02530813  0.19318467  0.19441778  1
  O  O11  1  0.16910261  0.97625562  0.19463045  1
  O  O12  1  0.91859989  0.37389885  0.64710318  1
  O  O13  1  0.47050464  0.08046659  0.64340050  1
  O  O14  1  0.62418338  0.54472368  0.64663752  1
  O  O15  1  0.93457386  0.54060456  0.14312416  1
  O  O16  1  0.60773826  0.06608325  0.14387615  1
  O  O17  1  0.44346336  0.37766028  0.14690296  1
  O  O18  1  0.47709238  0.30398029  0.03311082  1
  O  O19  1  0.83271715  0.52220814  0.03047881  1
  O  O20  1  0.69719051  0.17205767  0.03185300  1
  O  O21  1  0.47296383  0.16438723  0.52851786  1
  O  O22  1  0.68952459  0.52554531  0.52950358  1
  O  O23  1  0.83161298  0.30593773  0.53061824  1
  O  O24  1  0.52032631  0.68305509  0.96852492  1
  O  O25  1  0.15584470  0.47334522  0.97149755  1
  O  O26  1  0.31380619  0.84127167  0.97130659  1
  O  O27  1  0.50879605  0.84698157  0.47430413  1
  O  O28  1  0.34261318  0.49852252  0.47168831  1
  O  O29  1  0.15943249  0.66245968  0.47146104  1
  O  O30  1  0.13359400  0.63440418  0.35736994  1
  O  O31  1  0.49877299  0.86334970  0.35870807  1
  O  O32  1  0.36475495  0.49883728  0.35720722  1
  O  O33  1  0.13612424  0.49730875  0.85736330  1
  O  O34  1  0.36201138  0.86451876  0.85748400  1
  O  O35  1  0.50506151  0.63749792  0.85594132  1
  O  O36  1  0.01777145  0.81539377  0.42221753  1
  O  O37  1  0.79837098  0.98363999  0.42234123  1
  O  O38  1  0.18559989  0.20316540  0.42230048  1
  O  O39  1  0.01581243  0.18804382  0.91009189  1
  O  O40  1  0.17140181  0.98380312  0.91014410  1
  O  O41  1  0.81146928  0.82881780  0.91028788  1
  O  O42  1  0.96710714  0.15154872  0.58700270  1
  O  O43  1  0.18220632  0.02503452  0.58890332  1
  O  O44  1  0.84095061  0.82271231  0.58710938  1
  O  O45  1  0.98661976  0.82367326  0.08854062  1
  O  O46  1  0.84403099  0.02635161  0.08868995  1
  O  O47  1  0.17757933  0.15771394  0.08679788  1
  O  O48  1  0.68977858  0.15364727  0.75363746  1
  O  O49  1  0.46144714  0.30764360  0.75320391  1
  O  O50  1  0.84645752  0.53734140  0.75402722  1
  O  O51  1  0.66431732  0.51466083  0.24241363  1
  O  O52  1  0.84995885  0.33712735  0.24193080  1
  O  O53  1  0.48792609  0.15012408  0.24269103  1
  O  O54  1  0.64036832  0.49364483  0.92611802  1
  O  O55  1  0.85144259  0.35813228  0.92511807  1
  O  O56  1  0.50577034  0.14693861  0.92625311  1
  O  O57  1  0.62452692  0.14631430  0.42354249  1
  O  O58  1  0.52251195  0.37629390  0.42337925  1
  O  O59  1  0.85526261  0.47842314  0.42443694  1
  O  O60  1  0.32325733  0.48822716  0.06739381  1
  O  O61  1  0.16204399  0.67160819  0.06630675  1
  O  O62  1  0.50549291  0.84162757  0.06549360  1
  O  O63  1  0.33483598  0.84417190  0.56955648  1
  O  O64  1  0.51581535  0.67734851  0.57102724  1
  O  O65  1  0.15836452  0.48661779  0.57045265  1
  O  O66  1  0.29353522  0.81187880  0.25365119  1
  O  O67  1  0.51932604  0.70854012  0.25346458  1
  O  O68  1  0.18873541  0.48189631  0.25347030  1
  O  O69  1  0.29043918  0.47555786  0.75627319  1
  O  O70  1  0.18453294  0.70886989  0.75639948  1
  O  O71  1  0.52346747  0.81600990  0.75652352  1
loop_
_geom_bond_atom_site_label_1
_geom_bond_atom_site_label_2
_geom_bond_distance
_geom_bond_site_symmetry_2
Na0 O43 2.463902 1_555
Na0 O44 2.490234 1_445
Na0 O42 2.500610 1_455
Na0 O36 2.526005 1_545
Na0 O38 2.531935 1_555
Na0 O37 2.597747 1_445
Na1 O41 2.524882 1_555
Na1 O45 2.553558 1_556
Na1 O46 2.564810 1_566
Na1 O47 2.603763 1_666
Na1 O40 2.618477 1_655
Na1 O39 2.622531 1_665
Na2 O48 2.542213 1_555
Na2 O50 2.552503 1_555
Na2 O49 2.564635 1_555
Na2 O55 2.596933 1_555
Na2 O56 2.624872 1_555
Na2 O54 2.630402 1_555
Na3 O53 2.496720 1_555
Na3 O52 2.512700 1_555
Na3 O51 2.514450 1_555
Na3 O57 2.722549 1_555
Na3 O58 2.724765 1_555
Na3 O59 2.750326 1_555
Na4 O67 2.509782 1_555
Na4 O68 2.609520 1_555
Na4 O66 2.642745 1_555
Na4 O60 2.643565 1_555
Na4 O62 2.677804 1_555
Na4 O61 2.775240 1_555
Na5 O69 2.556376 1_555
Na5 O70 2.590818 1_555
Na5 O65 2.624692 1_555
Na5 O71 2.687216 1_555
Na5 O64 2.730950 1_555
Na5 O63 2.750522 1_555
Na6 O53 2.325427 1_555
Na6 O16 2.389768 1_555
Na6 O67 2.470507 1_545
Na6 O52 2.609235 1_555
Na6 O66 2.818992 1_545
Na7 O17 2.298244 1_555
Na7 O51 2.360151 1_555
Na7 O68 2.468787 1_555
Na7 O53 2.619107 1_555
Na7 O67 2.835840 1_555
Na7 O32 2.871982 1_555
Na7 O10 2.977862 1_555
Na7 O0 3.032468 1_555
Na8 O52 2.336294 1_555
Na8 O15 2.406295 1_555
Na8 O66 2.471229 1_655
Na8 O51 2.616797 1_555
Na8 O68 2.801293 1_655
Na8 O30 2.869238 1_655
Na9 O14 2.402365 1_555
Na9 O71 2.437812 1_555
Na9 O50 2.481543 1_555
Na9 O49 2.522118 1_555
Na9 O35 2.726595 1_555
Na9 O69 2.731775 1_555
Na10 O12 2.391684 1_555
Na10 O69 2.444415 1_655
Na10 O48 2.469793 1_555
Na10 O50 2.499334 1_555
Na10 O70 2.741637 1_655
Na10 O33 2.774961 1_655
Na11 O70 2.445253 1_545
Na11 O49 2.465442 1_555
Na11 O48 2.476053 1_555
Na11 O13 2.504387 1_555
Na11 O71 2.700616 1_545
Na11 O34 2.758145 1_545
Na12 O64 2.374483 1_555
Na12 O42 2.440202 1_565
Na12 O44 2.608571 1_555
Na12 O63 2.671632 1_555
Na12 O6 2.730199 1_555
Na12 O13 2.773611 1_565
Na12 O27 2.828671 1_555
Na12 O23 2.941537 1_565
Na13 O61 2.427480 1_555
Na13 O47 2.556371 1_565
Na13 O45 2.601051 1_455
Na13 O62 2.637168 1_555
Na13 O26 2.756276 1_554
Na13 O16 2.815794 1_565
Na13 O18 2.855993 1_565
Na13 O11 2.901970 1_555
Na14 O60 2.387334 1_555
Na14 O46 2.524075 1_455
Na14 O47 2.663655 1_555
Na14 O61 2.685479 1_555
Na14 O25 2.749078 1_554
Na14 O15 2.779205 1_455
Na14 O20 2.855950 1_455
Na14 O10 2.902609 1_555
Na15 O59 2.422113 1_555
Na15 O2 2.445454 1_555
Na15 O37 2.454389 1_545
Na15 O38 2.530899 1_655
Na15 O57 2.740784 1_555
Na15 O23 2.929367 1_555
Na16 O57 2.425443 1_555
Na16 O0 2.442801 1_555
Na16 O38 2.474899 1_555
Na16 O36 2.532860 1_545
Na16 O58 2.756117 1_555
Na16 O21 2.875858 1_555
Na17 O1 2.411810 1_555
Na17 O58 2.430124 1_555
Na17 O36 2.470932 1_655
Na17 O37 2.531407 1_555
Na17 O59 2.760338 1_555
Na17 O22 2.893771 1_555
La0 O2 2.243609 1_555
La0 O0 2.245171 1_655
La0 O1 2.249112 1_545
La0 O36 2.412540 1_645
La0 O37 2.413365 1_545
La0 O38 2.421200 1_655
La1 O14 2.268620 1_555
La1 O12 2.288061 1_555
La1 O13 2.298748 1_555
La1 O50 2.432299 1_555
La1 O49 2.436345 1_555
La1 O48 2.456887 1_555
La2 O17 2.299249 1_555
La2 O15 2.311634 1_555
La2 O16 2.329883 1_555
La2 O51 2.381574 1_555
La2 O53 2.404753 1_555
La2 O52 2.409065 1_555
O0 Si0 1.612475 1_545
O1 Si1 1.611801 1_555
O2 Si2 1.613097 1_655
O3 Si3 1.627058 1_555
O3 Ta0 1.948881 1_555
O4 Si4 1.624824 1_655
O4 Ta0 1.952309 1_665
O5 Si5 1.629663 1_545
O5 Ta0 1.953123 1_655
O6 Si5 1.672285 1_555
O6 Ta1 2.021318 1_655
O7 Si3 1.671843 1_555
O7 Ta1 1.966567 1_545
O8 Si4 1.672593 1_555
O8 Ta1 1.959175 1_555
O9 Si1 1.695878 1_555
O9 Ta2 1.970579 1_555
O10 Si2 1.693419 1_555
O10 Ta2 2.010698 1_445
O11 Si0 1.693459 1_555
O11 Ta2 2.007640 1_455
O12 Si6 1.603714 1_555
O13 Si7 1.612913 1_555
O14 Si8 1.603088 1_555
O15 Si9 1.613509 1_555
O16 Si10 1.614155 1_555
O17 Si11 1.604588 1_555
O18 Si11 1.664219 1_555
O18 Ta3 2.039128 1_554
O19 Si9 1.655901 1_555
O19 Ta3 2.007308 1_554
O20 Si10 1.666739 1_555
O20 Ta3 2.034735 1_554
O21 Si7 1.693600 1_555
O21 Ta4 1.965332 1_555
O22 Si8 1.689953 1_555
O22 Ta4 1.962876 1_555
O23 Si6 1.703928 1_555
O23 Ta4 1.978345 1_555
O24 Si12 1.628914 1_555
O24 Ta5 1.912850 1_556
O25 Si13 1.628363 1_555
O25 Ta5 1.965755 1_556
O26 Si14 1.627910 1_555
O26 Ta5 1.964426 1_556
O27 Si15 1.610948 1_555
O27 Ta6 1.978310 1_555
O28 Si16 1.610743 1_555
O28 Ta6 1.931231 1_555
O29 Si17 1.610154 1_555
O29 Ta6 1.928406 1_555
O30 Si17 1.685627 1_555
O30 Ta7 1.996046 1_555
O31 Si15 1.686270 1_555
O31 Ta7 1.996347 1_555
O32 Si16 1.684241 1_555
O32 Ta7 1.995688 1_555
O33 Si13 1.673397 1_555
O33 Ta8 1.967690 1_555
O34 Si14 1.675363 1_555
O34 Ta8 1.965092 1_555
O35 Si12 1.673759 1_555
O35 Ta8 1.967270 1_555
O36 Si17 1.610272 1_555
O37 Si15 1.613380 1_555
O38 Si16 1.610997 1_555
O39 Si13 1.640715 1_555
O39 Ta0 2.028471 1_555
O40 Si14 1.640212 1_555
O40 Ta0 2.028365 1_565
O41 Si12 1.636065 1_555
O41 Ta0 2.038800 1_665
O42 Si6 1.644066 1_555
O42 Ta1 2.073176 1_645
O43 Si7 1.632749 1_555
O43 Ta1 2.010103 1_545
O44 Si8 1.644135 1_555
O44 Ta1 2.053996 1_655
O45 Si9 1.656020 1_555
O45 Ta2 2.032469 1_555
O46 Si10 1.655974 1_555
O46 Ta2 2.038128 1_545
O47 Si11 1.674966 1_555
O47 Ta2 2.078785 1_445
O48 Si5 1.617181 1_545
O49 Si3 1.614989 1_555
O50 Si4 1.614428 1_655
O51 Si1 1.605336 1_555
O52 Si2 1.607291 1_655
O53 Si0 1.606677 1_545
O54 Si12 1.645365 1_555
O54 Ta3 2.005124 1_555
O55 Si13 1.649410 1_655
O55 Ta3 2.013114 1_555
O56 Si14 1.648074 1_545
O56 Ta3 2.018882 1_555
O57 Si15 1.658466 1_545
O57 Ta4 2.082988 1_555
O58 Si16 1.655316 1_555
O58 Ta4 2.067478 1_555
O59 Si17 1.654889 1_655
O59 Ta4 2.074178 1_555
O60 Si11 1.642161 1_555
O60 Ta5 2.007295 1_555
O61 Si9 1.645259 1_455
O61 Ta5 2.028114 1_555
O62 Si10 1.634751 1_565
O62 Ta5 1.984172 1_555
O63 Si7 1.635577 1_565
O63 Ta6 1.982309 1_555
O64 Si8 1.644323 1_555
O64 Ta6 2.000048 1_555
O65 Si6 1.629230 1_455
O65 Ta6 1.959966 1_555
O66 Si0 1.666244 1_555
O66 Ta7 2.033983 1_555
O67 Si1 1.663494 1_555
O67 Ta7 2.045715 1_555
O68 Si2 1.667793 1_555
O68 Ta7 2.037317 1_555
O69 Si3 1.666749 1_555
O69 Ta8 2.074208 1_555
O70 Si4 1.666062 1_555
O70 Ta8 2.072065 1_555
O71 Si5 1.671049 1_555
O71 Ta8 2.064688 1_555
