# generated using pymatgen
data_MgMn6O7F5
_symmetry_space_group_name_H-M   'P 1'
_cell_length_a   5.15968030
_cell_length_b   7.67856863
_cell_length_c   5.77331441
_cell_angle_alpha   96.52784966
_cell_angle_beta   98.48755403
_cell_angle_gamma   83.73078536
_symmetry_Int_Tables_number   1
_chemical_formula_structural   MgMn6O7F5
_chemical_formula_sum   'Mg1 Mn6 O7 F5'
_cell_volume   223.76457551
_cell_formula_units_Z   1
loop_
 _symmetry_equiv_pos_site_id
 _symmetry_equiv_pos_as_xyz
  1  'x, y, z'
loop_
 _atom_site_type_symbol
 _atom_site_label
 _atom_site_symmetry_multiplicity
 _atom_site_fract_x
 _atom_site_fract_y
 _atom_site_fract_z
 _atom_site_occupancy
  Mg  Mg0  1  0.49510500  0.17327600  0.16205400  1
  Mn  Mn0  1  0.43108900  0.98518900  0.55513100  1
  Mn  Mn1  1  0.50522000  0.67394100  0.18909000  1
  Mn  Mn2  1  0.60203300  0.35910500  0.77018800  1
  Mn  Mn3  1  0.98951000  0.67889400  0.66044900  1
  Mn  Mn4  1  0.00658700  0.35152700  0.33880100  1
  Mn  Mn5  1  0.98786800  0.98372200  0.00011600  1
  O  O0  1  0.89081300  0.44364600  0.62488600  1
  O  O1  1  0.64082000  0.08908100  0.84697400  1
  O  O2  1  0.64882200  0.76186500  0.50058300  1
  O  O3  1  0.66478200  0.42168000  0.15419600  1
  O  O4  1  0.35179400  0.23519900  0.48354800  1
  O  O5  1  0.33554800  0.92395900  0.20150000  1
  O  O6  1  0.12469000  0.90478000  0.71712600  1
  F  F0  1  0.82567400  0.74164300  0.99249600  1
  F  F1  1  0.85092900  0.08645700  0.29989000  1
  F  F2  1  0.33290000  0.59079300  0.86336700  1
  F  F3  1  0.18199700  0.59247200  0.35722500  1
  F  F4  1  0.13381500  0.25276700  0.03237900  1
loop_
_geom_bond_atom_site_label_1
_geom_bond_atom_site_label_2
_geom_bond_distance
_geom_bond_site_symmetry_2
Mg0 O1 2.079027 1_554
Mg0 O4 2.084608 1_555
Mg0 O3 2.191517 1_555
Mg0 O5 2.212064 1_545
Mn0 O2 1.965388 1_555
Mn0 O4 1.995607 1_565
Mn0 O1 1.997755 1_565
Mn0 O5 2.041460 1_555
Mn0 O6 2.129823 1_555
Mn1 O2 1.917996 1_555
Mn1 O5 2.019230 1_555
Mn1 O3 2.020475 1_555
Mn2 O0 2.012282 1_555
Mn2 O4 2.142527 1_555
Mn2 O1 2.151216 1_555
Mn2 O3 2.197877 1_556
Mn3 O0 1.910540 1_555
Mn3 O6 1.915667 1_655
Mn3 O2 1.938540 1_555
Mn4 O0 1.875758 1_455
Mn4 O3 1.976000 1_455
Mn4 O4 2.012859 1_555
Mn5 O6 1.885977 1_654
Mn5 O1 2.005380 1_564
Mn5 O5 2.026408 1_655
F0 Mn5 2.113712 1_556
F0 Mn3 2.191137 1_555
F0 Mn1 2.273365 1_556
F1 Mg0 1.967329 1_555
F1 Mn5 2.011374 1_545
F1 Mn4 2.244546 1_655
F2 Mn1 2.022839 1_556
F2 Mn3 2.067606 1_455
F2 Mn2 2.201371 1_555
F3 Mn4 2.132113 1_555
F3 Mn3 2.143952 1_455
F3 Mn1 2.226811 1_555
F4 Mg0 1.962523 1_555
F4 Mn4 2.016103 1_555
F4 Mn5 2.253995 1_445
