# generated using pymatgen
data_Li2CuPCO7
_symmetry_space_group_name_H-M   'P 1'
_cell_length_a   6.28543200
_cell_length_b   5.01673800
_cell_length_c   8.45313163
_cell_angle_alpha   87.16090114
_cell_angle_beta   90.00000000
_cell_angle_gamma   90.00000000
_symmetry_Int_Tables_number   1
_chemical_formula_structural   Li2CuPCO7
_chemical_formula_sum   'Li4 Cu2 P2 C2 O14'
_cell_volume   266.22006853
_cell_formula_units_Z   2
loop_
 _symmetry_equiv_pos_site_id
 _symmetry_equiv_pos_as_xyz
  1  'x, y, z'
loop_
 _atom_site_type_symbol
 _atom_site_label
 _atom_site_symmetry_multiplicity
 _atom_site_fract_x
 _atom_site_fract_y
 _atom_site_fract_z
 _atom_site_occupancy
  Li  Li0  1  0.99608400  0.77684100  0.75568500  1
  Li  Li1  1  0.00391600  0.22315900  0.24431500  1
  Li  Li2  1  0.49608400  0.22315900  0.24431500  1
  Li  Li3  1  0.50391600  0.77684100  0.75568500  1
  Cu  Cu0  1  0.75000000  0.78927200  0.34918000  1
  Cu  Cu1  1  0.25000000  0.21072800  0.65082000  1
  P  P0  1  0.25000000  0.71493600  0.42089600  1
  P  P1  1  0.75000000  0.28506400  0.57910400  1
  C  C0  1  0.75000000  0.73290900  0.05523100  1
  C  C1  1  0.25000000  0.26709100  0.94476900  1
  O  O0  1  0.75000000  0.53124100  0.15941400  1
  O  O1  1  0.75000000  0.96592000  0.11626000  1
  O  O2  1  0.25000000  0.46875900  0.84058600  1
  O  O3  1  0.94252600  0.17465100  0.67553400  1
  O  O4  1  0.55747400  0.17465100  0.67553400  1
  O  O5  1  0.75000000  0.18592100  0.40805000  1
  O  O6  1  0.25000000  0.81407900  0.59195000  1
  O  O7  1  0.44252600  0.82534900  0.32446600  1
  O  O8  1  0.05747400  0.82534900  0.32446600  1
  O  O9  1  0.25000000  0.40312300  0.43328400  1
  O  O10  1  0.75000000  0.70377000  0.90756100  1
  O  O11  1  0.25000000  0.29623000  0.09243900  1
  O  O12  1  0.75000000  0.59687700  0.56671600  1
  O  O13  1  0.25000000  0.03408000  0.88374000  1
loop_
_geom_bond_atom_site_label_1
_geom_bond_atom_site_label_2
_geom_bond_distance
_geom_bond_site_symmetry_2
Li0 O10 2.031844 1_555
Li0 O3 2.102682 1_565
Li0 O6 2.114727 1_655
Li0 O2 2.311078 1_655
Li0 O13 2.350028 1_665
Li0 O12 2.429405 1_555
Li1 O11 2.031844 1_555
Li1 O8 2.102682 1_545
Li1 O5 2.114727 1_455
Li1 O0 2.311078 1_455
Li1 O1 2.350028 1_445
Li1 O9 2.429405 1_555
Li2 O11 2.031844 1_555
Li2 O7 2.102682 1_545
Li2 O5 2.114727 1_555
Li2 O0 2.311078 1_555
Li2 O1 2.350028 1_545
Li2 O9 2.429405 1_555
Li3 O10 2.031844 1_555
Li3 O4 2.102682 1_565
Li3 O6 2.114727 1_555
Li3 O2 2.311078 1_555
Li3 O13 2.350028 1_565
Li3 O12 2.429405 1_555
Cu0 O7 1.951314 1_555
Cu0 O8 1.951314 1_655
Cu0 O12 2.034008 1_555
Cu0 O5 2.074940 1_565
Cu0 O0 2.110582 1_555
Cu0 O1 2.118744 1_555
Cu1 O4 1.951314 1_555
Cu1 O3 1.951314 1_455
Cu1 O9 2.034008 1_555
Cu1 O6 2.074940 1_545
Cu1 O2 2.110582 1_555
Cu1 O13 2.118744 1_555
C0 O10 1.263975 1_554
C0 O1 1.300897 1_555
C0 O0 1.308009 1_555
C1 O11 1.263975 1_556
C1 O13 1.300897 1_555
C1 O2 1.308009 1_555
O3 P1 1.546254 1_555
O4 P1 1.546254 1_555
O5 P1 1.552215 1_555
O6 P0 1.552215 1_555
O7 P0 1.546254 1_555
O8 P0 1.546254 1_555
O9 P0 1.562601 1_555
O12 P1 1.562601 1_555
