# generated using pymatgen
data_MgFe2(OF)2
_symmetry_space_group_name_H-M   'P 1'
_cell_length_a   4.06955600
_cell_length_b   6.35441107
_cell_length_c   3.17655800
_cell_angle_alpha   89.99996393
_cell_angle_beta   90.00001804
_cell_angle_gamma   89.99173265
_symmetry_Int_Tables_number   1
_chemical_formula_structural   MgFe2(OF)2
_chemical_formula_sum   'Mg1 Fe2 O2 F2'
_cell_volume   82.14461909
_cell_formula_units_Z   1
loop_
 _symmetry_equiv_pos_site_id
 _symmetry_equiv_pos_as_xyz
  1  'x, y, z'
loop_
 _atom_site_type_symbol
 _atom_site_label
 _atom_site_symmetry_multiplicity
 _atom_site_fract_x
 _atom_site_fract_y
 _atom_site_fract_z
 _atom_site_occupancy
  Mg  Mg0  1  0.24990600  0.60827500  0.75000000  1
  Fe  Fe0  1  0.25013300  0.11664400  0.74999900  1
  Fe  Fe1  1  0.74985500  0.89072300  0.25000200  1
  O  O0  1  0.25001800  0.83158700  0.24999900  1
  O  O1  1  0.75016200  0.09231000  0.75000000  1
  F  F0  1  0.25003400  0.38919700  0.24999900  1
  F  F1  1  0.74989300  0.62682000  0.75000200  1
loop_
_geom_bond_atom_site_label_1
_geom_bond_atom_site_label_2
_geom_bond_distance
_geom_bond_site_symmetry_2
Mg0 O0 2.129843 1_556
Mg0 O0 2.129846 1_555
Fe0 O1 2.040549 1_455
Fe0 O1 2.040740 1_555
Fe0 O0 2.409084 1_546
Fe0 O0 2.409086 1_545
Fe1 O1 2.040463 1_565
Fe1 O1 2.040472 1_564
Fe1 O0 2.068586 1_555
Fe1 O0 2.069784 1_655
F0 Mg0 2.112011 1_554
F0 Mg0 2.112018 1_555
F0 Fe0 2.349926 1_555
F0 Fe0 2.349927 1_554
F1 Mg0 2.038152 1_555
F1 Mg0 2.038223 1_655
F1 Fe1 2.309715 1_555
F1 Fe1 2.309716 1_556
