# generated using pymatgen
data_MgTe4Mo2(WS2)2
_symmetry_space_group_name_H-M   'P 1'
_cell_length_a   6.70325400
_cell_length_b   6.70349097
_cell_length_c   76.57808000
_cell_angle_alpha   89.99945112
_cell_angle_beta   90.00017226
_cell_angle_gamma   119.99843535
_symmetry_Int_Tables_number   1
_chemical_formula_structural   MgTe4Mo2(WS2)2
_chemical_formula_sum   'Mg8 Te32 Mo16 W16 S32'
_cell_volume   2980.08503504
_cell_formula_units_Z   8
loop_
 _symmetry_equiv_pos_site_id
 _symmetry_equiv_pos_as_xyz
  1  'x, y, z'
loop_
 _atom_site_type_symbol
 _atom_site_label
 _atom_site_symmetry_multiplicity
 _atom_site_fract_x
 _atom_site_fract_y
 _atom_site_fract_z
 _atom_site_occupancy
  Mg  Mg0_0  1  0.19289600  0.34701250  0.43789450  1
  Mg  Mg0_1  1  0.19289600  0.34701250  0.93789450  1
  Mg  Mg0_2  1  0.19289600  0.84701250  0.43789450  1
  Mg  Mg0_3  1  0.19289600  0.84701250  0.93789450  1
  Mg  Mg0_4  1  0.69289600  0.34701250  0.43789450  1
  Mg  Mg0_5  1  0.69289600  0.34701250  0.93789450  1
  Mg  Mg0_6  1  0.69289600  0.84701250  0.43789450  1
  Mg  Mg0_7  1  0.69289600  0.84701250  0.93789450  1
  Te  Te0_0  1  0.16667750  0.33335400  0.35359600  1
  Te  Te0_1  1  0.16667750  0.33335400  0.85359600  1
  Te  Te0_2  1  0.16667750  0.83335400  0.35359600  1
  Te  Te0_3  1  0.16667750  0.83335400  0.85359600  1
  Te  Te0_4  1  0.66667750  0.33335400  0.35359600  1
  Te  Te0_5  1  0.66667750  0.33335400  0.85359600  1
  Te  Te0_6  1  0.66667750  0.83335400  0.35359600  1
  Te  Te0_7  1  0.66667750  0.83335400  0.85359600  1
  Te  Te1_0  1  0.33332050  0.16664100  0.02226250  1
  Te  Te1_1  1  0.33332050  0.16664100  0.52226250  1
  Te  Te1_2  1  0.33332050  0.66664100  0.02226250  1
  Te  Te1_3  1  0.33332050  0.66664100  0.52226250  1
  Te  Te1_4  1  0.83332050  0.16664100  0.02226250  1
  Te  Te1_5  1  0.83332050  0.16664100  0.52226250  1
  Te  Te1_6  1  0.83332050  0.66664100  0.02226250  1
  Te  Te1_7  1  0.83332050  0.66664100  0.52226250  1
  Te  Te2_0  1  0.33332050  0.16663800  0.07164800  1
  Te  Te2_1  1  0.33332050  0.16663800  0.57164800  1
  Te  Te2_2  1  0.33332050  0.66663800  0.07164800  1
  Te  Te2_3  1  0.33332050  0.66663800  0.57164800  1
  Te  Te2_4  1  0.83332050  0.16663800  0.07164800  1
  Te  Te2_5  1  0.83332050  0.16663800  0.57164800  1
  Te  Te2_6  1  0.83332050  0.66663800  0.07164800  1
  Te  Te2_7  1  0.83332050  0.66663800  0.57164800  1
  Te  Te3_0  1  0.16668350  0.33336600  0.30394000  1
  Te  Te3_1  1  0.16668350  0.33336600  0.80394000  1
  Te  Te3_2  1  0.16668350  0.83336600  0.30394000  1
  Te  Te3_3  1  0.16668350  0.83336600  0.80394000  1
  Te  Te3_4  1  0.66668350  0.33336600  0.30394000  1
  Te  Te3_5  1  0.66668350  0.33336600  0.80394000  1
  Te  Te3_6  1  0.66668350  0.83336600  0.30394000  1
  Te  Te3_7  1  0.66668350  0.83336600  0.80394000  1
  Mo  Mo0_0  1  0.16665750  0.33331350  0.04692950  1
  Mo  Mo0_1  1  0.16665750  0.33331350  0.54692950  1
  Mo  Mo0_2  1  0.16665750  0.83331350  0.04692950  1
  Mo  Mo0_3  1  0.16665750  0.83331350  0.54692950  1
  Mo  Mo0_4  1  0.66665750  0.33331350  0.04692950  1
  Mo  Mo0_5  1  0.66665750  0.33331350  0.54692950  1
  Mo  Mo0_6  1  0.66665750  0.83331350  0.04692950  1
  Mo  Mo0_7  1  0.66665750  0.83331350  0.54692950  1
  Mo  Mo1_0  1  0.16666000  0.33331850  0.23482100  1
  Mo  Mo1_1  1  0.16666000  0.33331850  0.73482100  1
  Mo  Mo1_2  1  0.16666000  0.83331850  0.23482100  1
  Mo  Mo1_3  1  0.16666000  0.83331850  0.73482100  1
  Mo  Mo1_4  1  0.66666000  0.33331850  0.23482100  1
  Mo  Mo1_5  1  0.66666000  0.33331850  0.73482100  1
  Mo  Mo1_6  1  0.66666000  0.83331850  0.23482100  1
  Mo  Mo1_7  1  0.66666000  0.83331850  0.73482100  1
  W  W0_0  1  0.33334150  0.16668150  0.14090950  1
  W  W0_1  1  0.33334150  0.16668150  0.64090950  1
  W  W0_2  1  0.33334150  0.66668150  0.14090950  1
  W  W0_3  1  0.33334150  0.66668150  0.64090950  1
  W  W0_4  1  0.83334150  0.16668150  0.14090950  1
  W  W0_5  1  0.83334150  0.16668150  0.64090950  1
  W  W0_6  1  0.83334150  0.66668150  0.14090950  1
  W  W0_7  1  0.83334150  0.66668150  0.64090950  1
  W  W1_0  1  0.33334600  0.16669050  0.32879450  1
  W  W1_1  1  0.33334600  0.16669050  0.82879450  1
  W  W1_2  1  0.33334600  0.66669050  0.32879450  1
  W  W1_3  1  0.33334600  0.66669050  0.82879450  1
  W  W1_4  1  0.83334600  0.16669050  0.32879450  1
  W  W1_5  1  0.83334600  0.16669050  0.82879450  1
  W  W1_6  1  0.83334600  0.66669050  0.32879450  1
  W  W1_7  1  0.83334600  0.66669050  0.82879450  1
  S  S0_0  1  0.16667750  0.33335400  0.16073800  1
  S  S0_1  1  0.16667750  0.33335400  0.66073800  1
  S  S0_2  1  0.16667750  0.83335400  0.16073800  1
  S  S0_3  1  0.16667750  0.83335400  0.66073800  1
  S  S0_4  1  0.66667750  0.33335400  0.16073800  1
  S  S0_5  1  0.66667750  0.33335400  0.66073800  1
  S  S0_6  1  0.66667750  0.83335400  0.16073800  1
  S  S0_7  1  0.66667750  0.83335400  0.66073800  1
  S  S1_0  1  0.33332350  0.16664500  0.21507050  1
  S  S1_1  1  0.33332350  0.16664500  0.71507050  1
  S  S1_2  1  0.33332350  0.66664500  0.21507050  1
  S  S1_3  1  0.33332350  0.66664500  0.71507050  1
  S  S1_4  1  0.83332350  0.16664500  0.21507050  1
  S  S1_5  1  0.83332350  0.16664500  0.71507050  1
  S  S1_6  1  0.83332350  0.66664500  0.21507050  1
  S  S1_7  1  0.83332350  0.66664500  0.71507050  1
  S  S2_0  1  0.33332250  0.16664300  0.25458800  1
  S  S2_1  1  0.33332250  0.16664300  0.75458800  1
  S  S2_2  1  0.33332250  0.66664300  0.25458800  1
  S  S2_3  1  0.33332250  0.66664300  0.75458800  1
  S  S2_4  1  0.83332250  0.16664300  0.25458800  1
  S  S2_5  1  0.83332250  0.16664300  0.75458800  1
  S  S2_6  1  0.83332250  0.66664300  0.25458800  1
  S  S2_7  1  0.83332250  0.66664300  0.75458800  1
  S  S3_0  1  0.16667900  0.33335800  0.12108500  1
  S  S3_1  1  0.16667900  0.33335800  0.62108500  1
  S  S3_2  1  0.16667900  0.83335800  0.12108500  1
  S  S3_3  1  0.16667900  0.83335800  0.62108500  1
  S  S3_4  1  0.66667900  0.33335800  0.12108500  1
  S  S3_5  1  0.66667900  0.33335800  0.62108500  1
  S  S3_6  1  0.66667900  0.83335800  0.12108500  1
  S  S3_7  1  0.66667900  0.83335800  0.62108500  1
loop_
_geom_bond_atom_site_label_1
_geom_bond_atom_site_label_2
_geom_bond_distance
_geom_bond_site_symmetry_2
Mg0_0 Mg0_4 3.351627 1_455
Mg0_0 Mg0_4 3.351627 1_555
Mg0_0 Mg0_2 3.351745 1_555
Mg0_0 Mg0_2 3.351745 1_545
Mg0_0 Mg0_6 3.351766 1_445
Mg0_0 Mg0_6 3.351766 1_555
Mg0_1 Mg0_5 3.351627 1_555
Mg0_1 Mg0_5 3.351627 1_455
Mg0_1 Mg0_3 3.351745 1_545
Mg0_1 Mg0_3 3.351745 1_555
Mg0_1 Mg0_7 3.351766 1_445
Mg0_1 Mg0_7 3.351766 1_555
Mg0_2 Mg0_6 3.351627 1_455
Mg0_2 Mg0_6 3.351627 1_555
Mg0_2 Mg0_4 3.351766 1_455
Mg0_2 Mg0_4 3.351766 1_565
Mg0_3 Mg0_7 3.351627 1_455
Mg0_3 Mg0_7 3.351627 1_555
Mg0_3 Mg0_5 3.351766 1_565
Mg0_3 Mg0_5 3.351766 1_455
Mg0_4 Mg0_6 3.351745 1_555
Mg0_4 Mg0_6 3.351745 1_545
Mg0_5 Mg0_7 3.351745 1_555
Mg0_5 Mg0_7 3.351745 1_545
Te0_0 W1_4 2.711405 1_455
Te0_0 W1_0 2.711406 1_555
Te0_0 W1_2 2.711459 1_555
Te0_1 W1_5 2.711405 1_455
Te0_1 W1_1 2.711406 1_555
Te0_1 W1_3 2.711459 1_555
Te0_2 W1_6 2.711405 1_455
Te0_2 W1_2 2.711406 1_555
Te0_2 W1_0 2.711459 1_565
Te0_3 W1_7 2.711405 1_455
Te0_3 W1_3 2.711406 1_555
Te0_3 W1_1 2.711459 1_565
Te0_4 W1_0 2.711405 1_555
Te0_4 W1_4 2.711406 1_555
Te0_4 W1_6 2.711459 1_555
Te0_5 W1_1 2.711405 1_555
Te0_5 W1_5 2.711406 1_555
Te0_5 W1_7 2.711459 1_555
Te0_6 W1_2 2.711405 1_555
Te0_6 W1_6 2.711406 1_555
Te0_6 W1_4 2.711459 1_565
Te0_7 W1_3 2.711405 1_555
Te0_7 W1_7 2.711406 1_555
Te0_7 W1_5 2.711459 1_565
Te3_0 W1_0 2.714255 1_555
Te3_0 W1_4 2.714268 1_455
Te3_0 W1_2 2.714279 1_555
Te3_1 W1_1 2.714255 1_555
Te3_1 W1_5 2.714268 1_455
Te3_1 W1_3 2.714279 1_555
Te3_2 W1_2 2.714255 1_555
Te3_2 W1_6 2.714268 1_455
Te3_2 W1_0 2.714279 1_565
Te3_3 W1_3 2.714255 1_555
Te3_3 W1_7 2.714268 1_455
Te3_3 W1_1 2.714279 1_565
Te3_4 W1_4 2.714255 1_555
Te3_4 W1_0 2.714268 1_555
Te3_4 W1_6 2.714279 1_555
Te3_5 W1_5 2.714255 1_555
Te3_5 W1_1 2.714268 1_555
Te3_5 W1_7 2.714279 1_555
Te3_6 W1_6 2.714255 1_555
Te3_6 W1_2 2.714268 1_555
Te3_6 W1_4 2.714279 1_565
Te3_7 W1_7 2.714255 1_555
Te3_7 W1_3 2.714268 1_555
Te3_7 W1_5 2.714279 1_565
Mo0_0 Te1_0 2.704215 1_555
Mo0_0 Te1_2 2.704217 1_555
Mo0_0 Te1_4 2.704223 1_455
Mo0_0 Te2_0 2.706964 1_555
Mo0_0 Te2_4 2.706974 1_455
Mo0_0 Te2_2 2.706986 1_555
Mo0_1 Te1_1 2.704215 1_555
Mo0_1 Te1_3 2.704217 1_555
Mo0_1 Te1_5 2.704223 1_455
Mo0_1 Te2_1 2.706964 1_555
Mo0_1 Te2_5 2.706974 1_455
Mo0_1 Te2_3 2.706986 1_555
Mo0_2 Te1_2 2.704215 1_555
Mo0_2 Te1_0 2.704217 1_565
Mo0_2 Te1_6 2.704223 1_455
Mo0_2 Te2_2 2.706964 1_555
Mo0_2 Te2_6 2.706974 1_455
Mo0_2 Te2_0 2.706986 1_565
Mo0_3 Te1_3 2.704215 1_555
Mo0_3 Te1_1 2.704217 1_565
Mo0_3 Te1_7 2.704223 1_455
Mo0_3 Te2_3 2.706964 1_555
Mo0_3 Te2_7 2.706974 1_455
Mo0_3 Te2_1 2.706986 1_565
Mo0_4 Te1_4 2.704215 1_555
Mo0_4 Te1_6 2.704217 1_555
Mo0_4 Te1_0 2.704223 1_555
Mo0_4 Te2_4 2.706964 1_555
Mo0_4 Te2_0 2.706974 1_555
Mo0_4 Te2_6 2.706986 1_555
Mo0_5 Te1_5 2.704215 1_555
Mo0_5 Te1_7 2.704217 1_555
Mo0_5 Te1_1 2.704223 1_555
Mo0_5 Te2_5 2.706964 1_555
Mo0_5 Te2_1 2.706974 1_555
Mo0_5 Te2_7 2.706986 1_555
Mo0_6 Te1_6 2.704215 1_555
Mo0_6 Te1_4 2.704217 1_565
Mo0_6 Te1_2 2.704223 1_555
Mo0_6 Te2_6 2.706964 1_555
Mo0_6 Te2_2 2.706974 1_555
Mo0_6 Te2_4 2.706986 1_565
Mo0_7 Te1_7 2.704215 1_555
Mo0_7 Te1_5 2.704217 1_565
Mo0_7 Te1_3 2.704223 1_555
Mo0_7 Te2_7 2.706964 1_555
Mo0_7 Te2_3 2.706974 1_555
Mo0_7 Te2_5 2.706986 1_565
Mo1_0 S1_2 2.456046 1_555
Mo1_0 S1_0 2.456051 1_555
Mo1_0 S1_4 2.456052 1_455
Mo1_0 S2_0 2.456817 1_555
Mo1_0 S2_4 2.456830 1_455
Mo1_0 S2_2 2.456838 1_555
Mo1_1 S1_3 2.456046 1_555
Mo1_1 S1_1 2.456051 1_555
Mo1_1 S1_5 2.456052 1_455
Mo1_1 S2_1 2.456817 1_555
Mo1_1 S2_5 2.456830 1_455
Mo1_1 S2_3 2.456838 1_555
Mo1_2 S1_0 2.456046 1_565
Mo1_2 S1_2 2.456051 1_555
Mo1_2 S1_6 2.456052 1_455
Mo1_2 S2_2 2.456817 1_555
Mo1_2 S2_6 2.456830 1_455
Mo1_2 S2_0 2.456838 1_565
Mo1_3 S1_1 2.456046 1_565
Mo1_3 S1_3 2.456051 1_555
Mo1_3 S1_7 2.456052 1_455
Mo1_3 S2_3 2.456817 1_555
Mo1_3 S2_7 2.456830 1_455
Mo1_3 S2_1 2.456838 1_565
Mo1_4 S1_6 2.456046 1_555
Mo1_4 S1_4 2.456051 1_555
Mo1_4 S1_0 2.456052 1_555
Mo1_4 S2_4 2.456817 1_555
Mo1_4 S2_0 2.456830 1_555
Mo1_4 S2_6 2.456838 1_555
Mo1_5 S1_7 2.456046 1_555
Mo1_5 S1_5 2.456051 1_555
Mo1_5 S1_1 2.456052 1_555
Mo1_5 S2_5 2.456817 1_555
Mo1_5 S2_1 2.456830 1_555
Mo1_5 S2_7 2.456838 1_555
Mo1_6 S1_4 2.456046 1_565
Mo1_6 S1_6 2.456051 1_555
Mo1_6 S1_2 2.456052 1_555
Mo1_6 S2_6 2.456817 1_555
Mo1_6 S2_2 2.456830 1_555
Mo1_6 S2_4 2.456838 1_565
Mo1_7 S1_5 2.456046 1_565
Mo1_7 S1_7 2.456051 1_555
Mo1_7 S1_3 2.456052 1_555
Mo1_7 S2_7 2.456817 1_555
Mo1_7 S2_3 2.456830 1_555
Mo1_7 S2_5 2.456838 1_565
S0_0 W0_0 2.459732 1_555
S0_0 W0_4 2.459732 1_455
S0_0 W0_2 2.459734 1_555
S0_1 W0_1 2.459732 1_555
S0_1 W0_5 2.459732 1_455
S0_1 W0_3 2.459734 1_555
S0_2 W0_2 2.459732 1_555
S0_2 W0_6 2.459732 1_455
S0_2 W0_0 2.459734 1_565
S0_3 W0_3 2.459732 1_555
S0_3 W0_7 2.459732 1_455
S0_3 W0_1 2.459734 1_565
S0_4 W0_4 2.459732 1_555
S0_4 W0_0 2.459732 1_555
S0_4 W0_6 2.459734 1_555
S0_5 W0_5 2.459732 1_555
S0_5 W0_1 2.459732 1_555
S0_5 W0_7 2.459734 1_555
S0_6 W0_6 2.459732 1_555
S0_6 W0_2 2.459732 1_555
S0_6 W0_4 2.459734 1_565
S0_7 W0_7 2.459732 1_555
S0_7 W0_3 2.459732 1_555
S0_7 W0_5 2.459734 1_565
S3_0 W0_0 2.459537 1_555
S3_0 W0_4 2.459545 1_455
S3_0 W0_2 2.459549 1_555
S3_1 W0_1 2.459537 1_555
S3_1 W0_5 2.459545 1_455
S3_1 W0_3 2.459549 1_555
S3_2 W0_2 2.459537 1_555
S3_2 W0_6 2.459545 1_455
S3_2 W0_0 2.459549 1_565
S3_3 W0_3 2.459537 1_555
S3_3 W0_7 2.459545 1_455
S3_3 W0_1 2.459549 1_565
S3_4 W0_4 2.459537 1_555
S3_4 W0_0 2.459545 1_555
S3_4 W0_6 2.459549 1_555
S3_5 W0_5 2.459537 1_555
S3_5 W0_1 2.459545 1_555
S3_5 W0_7 2.459549 1_555
S3_6 W0_6 2.459537 1_555
S3_6 W0_2 2.459545 1_555
S3_6 W0_4 2.459549 1_565
S3_7 W0_7 2.459537 1_555
S3_7 W0_3 2.459545 1_555
S3_7 W0_5 2.459549 1_565
