# generated using pymatgen
data_Bi2MoO6
_symmetry_space_group_name_H-M   'P 1'
_cell_length_a   5.52704156
_cell_length_b   5.52812834
_cell_length_c   16.29803553
_cell_angle_alpha   90.00000000
_cell_angle_beta   90.00000000
_cell_angle_gamma   90.00000000
_symmetry_Int_Tables_number   1
_chemical_formula_structural   Bi2MoO6
_chemical_formula_sum   'Bi8 Mo4 O24'
_cell_volume   497.97335707
_cell_formula_units_Z   4
loop_
 _symmetry_equiv_pos_site_id
 _symmetry_equiv_pos_as_xyz
  1  'x, y, z'
loop_
 _atom_site_type_symbol
 _atom_site_label
 _atom_site_symmetry_multiplicity
 _atom_site_fract_x
 _atom_site_fract_y
 _atom_site_fract_z
 _atom_site_occupancy
  Bi  Bi0  1  0.47589597  0.05557619  0.42268155  1
  Bi  Bi1  1  0.02301326  0.03965455  0.92277776  1
  Bi  Bi2  1  0.52410403  0.55557619  0.57731845  1
  Bi  Bi3  1  0.47698674  0.53965455  0.92277776  1
  Bi  Bi4  1  0.97698674  0.53965455  0.07722224  1
  Bi  Bi5  1  0.52301326  0.03965455  0.07722224  1
  Bi  Bi6  1  0.02410403  0.55557619  0.42268155  1
  Bi  Bi7  1  0.97589597  0.05557619  0.57731845  1
  Mo  Mo0  1  0.49292269  0.02669862  0.75042209  1
  Mo  Mo1  1  0.99292269  0.02669862  0.24957791  1
  Mo  Mo2  1  0.50707731  0.52669862  0.24957791  1
  Mo  Mo3  1  0.00707731  0.52669862  0.75042209  1
  O  O0  1  0.91383077  0.44697505  0.64478985  1
  O  O1  1  0.77595515  0.68494721  0.27294856  1
  O  O2  1  0.69723376  0.26098024  0.77358783  1
  O  O3  1  0.42271885  0.92888858  0.85660976  1
  O  O4  1  0.26134536  0.77530369  0.50119080  1
  O  O5  1  0.76182012  0.25847787  0.99886233  1
  O  O6  1  0.76134536  0.77530369  0.49880920  1
  O  O7  1  0.23865464  0.27530369  0.50119080  1
  O  O8  1  0.19723376  0.26098024  0.22641217  1
  O  O9  1  0.72404485  0.18494721  0.27294856  1
  O  O10  1  0.22404485  0.18494721  0.72705144  1
  O  O11  1  0.07728115  0.42888858  0.85660976  1
  O  O12  1  0.08616923  0.94697505  0.35521015  1
  O  O13  1  0.57728115  0.42888858  0.14339024  1
  O  O14  1  0.26182012  0.25847787  0.00113767  1
  O  O15  1  0.92271885  0.92888858  0.14339024  1
  O  O16  1  0.80276624  0.76098024  0.77358783  1
  O  O17  1  0.27595515  0.68494721  0.72705144  1
  O  O18  1  0.30276624  0.76098024  0.22641217  1
  O  O19  1  0.73817988  0.75847787  0.99886233  1
  O  O20  1  0.73865464  0.27530369  0.49880920  1
  O  O21  1  0.58616923  0.94697505  0.64478985  1
  O  O22  1  0.23817988  0.75847787  0.00113767  1
  O  O23  1  0.41383077  0.44697505  0.35521015  1
loop_
_geom_bond_atom_site_label_1
_geom_bond_atom_site_label_2
_geom_bond_distance
_geom_bond_site_symmetry_2
Bi0 O7 2.198192 1_555
Bi0 O20 2.263620 1_555
Bi0 O4 2.333242 1_545
Bi0 O23 2.451228 1_555
Bi0 O12 2.491894 1_545
Bi0 O6 2.535568 1_545
Bi1 O14 2.199199 1_556
Bi1 O5 2.255008 1_455
Bi1 O22 2.336963 1_546
Bi1 O11 2.425468 1_555
Bi1 O3 2.533462 1_545
Bi1 O19 2.536168 1_445
Bi2 O6 2.198192 1_555
Bi2 O4 2.263620 1_555
Bi2 O20 2.333242 1_555
Bi2 O21 2.451228 1_555
Bi2 O0 2.491894 1_555
Bi2 O7 2.535568 1_555
Bi3 O22 2.199199 1_556
Bi3 O19 2.255008 1_555
Bi3 O14 2.336963 1_556
Bi3 O3 2.425468 1_555
Bi3 O11 2.533462 1_555
Bi3 O5 2.536168 1_555
Bi4 O19 2.199199 1_554
Bi4 O22 2.255008 1_655
Bi4 O5 2.336963 1_554
Bi4 O15 2.425468 1_555
Bi4 O13 2.533462 1_555
Bi4 O14 2.536168 1_655
Bi5 O5 2.199199 1_554
Bi5 O14 2.255008 1_555
Bi5 O19 2.336963 1_544
Bi5 O13 2.425468 1_555
Bi5 O15 2.533462 1_545
Bi5 O22 2.536168 1_545
Bi6 O4 2.198192 1_555
Bi6 O6 2.263620 1_455
Bi6 O7 2.333242 1_555
Bi6 O12 2.451228 1_555
Bi6 O23 2.491894 1_555
Bi6 O20 2.535568 1_455
Bi7 O20 2.198192 1_555
Bi7 O7 2.263620 1_655
Bi7 O6 2.333242 1_545
Bi7 O0 2.451228 1_555
Bi7 O21 2.491894 1_545
Bi7 O4 2.535568 1_645
Mo0 O2 1.759292 1_555
Mo0 O10 1.766035 1_555
Mo0 O21 1.850338 1_545
Mo0 O3 1.854204 1_545
Mo0 O17 2.269886 1_545
Mo0 O16 2.287577 1_545
Mo1 O8 1.759292 1_655
Mo1 O9 1.766035 1_555
Mo1 O12 1.850338 1_645
Mo1 O15 1.854204 1_545
Mo1 O1 2.269886 1_545
Mo1 O18 2.287577 1_645
Mo2 O18 1.759292 1_555
Mo2 O1 1.766035 1_555
Mo2 O23 1.850338 1_555
Mo2 O13 1.854204 1_555
Mo2 O9 2.269886 1_555
Mo2 O8 2.287577 1_555
Mo3 O16 1.759292 1_455
Mo3 O17 1.766035 1_555
Mo3 O0 1.850338 1_455
Mo3 O11 1.854204 1_555
Mo3 O10 2.269886 1_555
Mo3 O2 2.287577 1_455
