# generated using pymatgen
data_K4MnBr6
_symmetry_space_group_name_H-M   'P 1'
_cell_length_a   8.96847153
_cell_length_b   8.96840364
_cell_length_c   8.96839210
_cell_angle_alpha   89.70684606
_cell_angle_beta   89.70709842
_cell_angle_gamma   89.70594539
_symmetry_Int_Tables_number   1
_chemical_formula_structural   K4MnBr6
_chemical_formula_sum   'K8 Mn2 Br12'
_cell_volume   721.32526901
_cell_formula_units_Z   2
loop_
 _symmetry_equiv_pos_site_id
 _symmetry_equiv_pos_as_xyz
  1  'x, y, z'
loop_
 _atom_site_type_symbol
 _atom_site_label
 _atom_site_symmetry_multiplicity
 _atom_site_fract_x
 _atom_site_fract_y
 _atom_site_fract_z
 _atom_site_occupancy
  K  K0  1  0.25000182  0.25000041  0.25000278  1
  K  K1  1  0.74999977  0.74999706  0.74999866  1
  K  K2  1  0.87167821  0.62831670  0.25000443  1
  K  K3  1  0.62831899  0.25000269  0.87167755  1
  K  K4  1  0.25000517  0.87167636  0.62831709  1
  K  K5  1  0.12832340  0.37168173  0.74999711  1
  K  K6  1  0.37168419  0.74999404  0.12832222  1
  K  K7  1  0.74999688  0.12832214  0.37168034  1
  Mn  Mn0  1  0.00000089  -0.00000186  0.00000052  1
  Mn  Mn1  1  0.50000099  0.49999851  0.50000102  1
  Br  Br0  1  0.94253674  0.28964523  0.06889991  1
  Br  Br1  1  0.28964807  0.06889787  0.94253669  1
  Br  Br2  1  0.06890033  0.94253448  0.28964741  1
  Br  Br3  1  0.21035934  0.55749761  0.43110805  1
  Br  Br4  1  0.55749984  0.43110569  0.21036020  1
  Br  Br5  1  0.43109457  0.21036628  0.55747344  1
  Br  Br6  1  0.05746529  0.71035121  0.93110167  1
  Br  Br7  1  0.71035425  0.93109870  0.05746480  1
  Br  Br8  1  0.93110192  0.05746254  0.71035416  1
  Br  Br9  1  0.78963255  0.44252507  0.56890746  1
  Br  Br10  1  0.44250341  0.56889116  0.78964164  1
  Br  Br11  1  0.56889437  0.78963838  0.44250083  1
loop_
_geom_bond_atom_site_label_1
_geom_bond_atom_site_label_2
_geom_bond_distance
_geom_bond_site_symmetry_2
Br0 Mn0 2.719329 1_655
Br0 K0 3.224597 1_655
Br0 K3 3.356195 1_554
Br0 K5 3.382276 1_654
Br0 K2 3.505352 1_555
Br0 K7 3.519410 1_555
Br1 Mn0 2.719367 1_556
Br1 K0 3.224594 1_556
Br1 K4 3.356189 1_545
Br1 K6 3.382252 1_546
Br1 K3 3.505402 1_555
Br1 K5 3.519400 1_555
Br2 Mn0 2.719327 1_565
Br2 K0 3.224620 1_565
Br2 K2 3.356209 1_455
Br2 K7 3.382262 1_465
Br2 K4 3.505338 1_555
Br2 K6 3.519422 1_555
Br3 Mn1 2.719342 1_555
Br3 K0 3.224842 1_555
Br3 K4 3.355828 1_555
Br3 K5 3.382291 1_555
Br3 K2 3.505374 1_455
Br3 K6 3.519260 1_555
Br4 Mn1 2.719323 1_555
Br4 K0 3.224894 1_555
Br4 K2 3.355870 1_555
Br4 K6 3.382264 1_555
Br4 K3 3.505374 1_554
Br4 K7 3.519194 1_555
Br5 Mn1 2.719247 1_555
Br5 K0 3.224572 1_555
Br5 K3 3.356081 1_555
Br5 K7 3.382314 1_555
Br5 K4 3.505446 1_545
Br5 K5 3.519230 1_555
Br6 Mn0 2.719327 1_566
Br6 K1 3.224602 1_455
Br6 K6 3.356195 1_556
Br6 K2 3.382274 1_456
Br6 K5 3.505336 1_555
Br6 K4 3.519446 1_555
Br7 Mn0 2.719362 1_665
Br7 K1 3.224590 1_554
Br7 K7 3.356167 1_565
Br7 K3 3.382259 1_564
Br7 K6 3.505392 1_555
Br7 K2 3.519385 1_555
Br8 Mn0 2.719323 1_656
Br8 K1 3.224619 1_545
Br8 K5 3.356217 1_655
Br8 K4 3.382262 1_645
Br8 K7 3.505374 1_555
Br8 K3 3.519408 1_555
Br9 Mn1 2.719241 1_555
Br9 K1 3.224575 1_555
Br9 K7 3.356087 1_555
Br9 K2 3.382309 1_555
Br9 K5 3.505429 1_655
Br9 K3 3.519224 1_555
Br10 Mn1 2.719319 1_555
Br10 K1 3.224885 1_555
Br10 K5 3.355875 1_555
Br10 K3 3.382261 1_555
Br10 K6 3.505358 1_556
Br10 K4 3.519227 1_555
Br11 Mn1 2.719332 1_555
Br11 K1 3.224845 1_555
Br11 K6 3.355828 1_555
Br11 K4 3.382305 1_555
Br11 K7 3.505417 1_565
Br11 K2 3.519220 1_555
