# generated using pymatgen
data_MgFe4(PS)4
_symmetry_space_group_name_H-M   'P 1'
_cell_length_a   5.55551326
_cell_length_b   5.82545969
_cell_length_c   5.87100456
_cell_angle_alpha   108.40162418
_cell_angle_beta   90.38549867
_cell_angle_gamma   90.60021026
_symmetry_Int_Tables_number   1
_chemical_formula_structural   MgFe4(PS)4
_chemical_formula_sum   'Mg1 Fe4 P4 S4'
_cell_volume   180.27024868
_cell_formula_units_Z   1
loop_
 _symmetry_equiv_pos_site_id
 _symmetry_equiv_pos_as_xyz
  1  'x, y, z'
loop_
 _atom_site_type_symbol
 _atom_site_label
 _atom_site_symmetry_multiplicity
 _atom_site_fract_x
 _atom_site_fract_y
 _atom_site_fract_z
 _atom_site_occupancy
  Mg  Mg0  1  0.50000000  0.00000000  0.00000000  1
  Fe  Fe0  1  0.49197800  0.74443300  0.24553600  1
  Fe  Fe1  1  0.99131200  0.26524900  0.27585700  1
  Fe  Fe2  1  0.50802200  0.25556700  0.75446400  1
  Fe  Fe3  1  0.00868800  0.73475100  0.72414300  1
  P  P0  1  0.10546300  0.85484300  0.14236900  1
  P  P1  1  0.65362900  0.13748400  0.40197400  1
  P  P2  1  0.89453700  0.14515700  0.85763100  1
  P  P3  1  0.34637100  0.86251600  0.59802600  1
  S  S0  1  0.86211700  0.65163200  0.33449700  1
  S  S1  1  0.35157900  0.38019200  0.17848600  1
  S  S2  1  0.13788300  0.34836800  0.66550300  1
  S  S3  1  0.64842100  0.61980800  0.82151400  1
loop_
_geom_bond_atom_site_label_1
_geom_bond_atom_site_label_2
_geom_bond_distance
_geom_bond_site_symmetry_2
Mg0 S1 2.295187 1_555
Mg0 S3 2.295187 1_544
Mg0 P1 2.388449 1_555
Mg0 P3 2.388449 1_544
Mg0 P2 2.578756 1_554
Mg0 P0 2.578756 1_545
Fe0 P3 2.132057 1_555
Fe0 S1 2.167838 1_555
Fe0 S0 2.231719 1_555
Fe0 P1 2.347529 1_565
Fe0 P0 2.376721 1_555
Fe0 Mg0 2.377184 1_565
Fe0 S3 2.526066 1_554
Fe1 P1 2.226874 1_555
Fe1 S1 2.238309 1_655
Fe1 S0 2.290846 1_555
Fe1 S2 2.323364 1_655
Fe1 P0 2.363853 1_645
Fe1 P2 2.386909 1_554
Fe2 P1 2.132057 1_555
Fe2 S3 2.167838 1_555
Fe2 S2 2.231719 1_555
Fe2 P3 2.347529 1_545
Fe2 P2 2.376721 1_555
Fe2 Mg0 2.377184 1_556
Fe2 S1 2.526066 1_556
Fe3 P3 2.226874 1_555
Fe3 S3 2.238309 1_455
Fe3 S2 2.290846 1_555
Fe3 S0 2.323364 1_455
Fe3 P2 2.363853 1_465
Fe3 P0 2.386909 1_556
P0 S0 2.308989 1_455
P2 S2 2.308989 1_655
