# generated using pymatgen
data_Nb3In2Cl9
_symmetry_space_group_name_H-M   'P 1'
_cell_length_a   9.46006534
_cell_length_b   9.46006534
_cell_length_c   9.65494365
_cell_angle_alpha   74.40437680
_cell_angle_beta   74.40437680
_cell_angle_gamma   107.09427249
_symmetry_Int_Tables_number   1
_chemical_formula_structural   Nb3In2Cl9
_chemical_formula_sum   'Nb6 In4 Cl18'
_cell_volume   736.49572707
_cell_formula_units_Z   2
loop_
 _symmetry_equiv_pos_site_id
 _symmetry_equiv_pos_as_xyz
  1  'x, y, z'
loop_
 _atom_site_type_symbol
 _atom_site_label
 _atom_site_symmetry_multiplicity
 _atom_site_fract_x
 _atom_site_fract_y
 _atom_site_fract_z
 _atom_site_occupancy
  Nb  Nb0  1  0.60398422  0.60398422  0.13205680  1
  Nb  Nb1  1  0.39601578  0.39601578  0.86794320  1
  Nb  Nb2  1  0.46944630  0.27781718  0.14265887  1
  Nb  Nb3  1  0.53055370  0.72218282  0.85734113  1
  Nb  Nb4  1  0.72218282  0.53055370  0.85734113  1
  Nb  Nb5  1  0.27781718  0.46944630  0.14265887  1
  In  In0  1  0.74329947  0.04288574  0.34054110  1
  In  In1  1  0.25670053  0.95711426  0.65945890  1
  In  In2  1  0.95711426  0.25670053  0.65945890  1
  In  In3  1  0.04288574  0.74329947  0.34054110  1
  Cl  Cl0  1  0.72748857  0.27251143  0.00000000  1
  Cl  Cl1  1  0.27251143  0.72748857  0.00000000  1
  Cl  Cl2  1  0.43156818  0.99375330  0.32723251  1
  Cl  Cl3  1  0.56843182  0.00624670  0.67276749  1
  Cl  Cl4  1  0.00624670  0.56843182  0.67276749  1
  Cl  Cl5  1  0.99375330  0.43156818  0.32723251  1
  Cl  Cl6  1  0.34374693  0.11528402  0.01291957  1
  Cl  Cl7  1  0.65625307  0.88471598  0.98708043  1
  Cl  Cl8  1  0.88471598  0.65625307  0.98708043  1
  Cl  Cl9  1  0.11528402  0.34374693  0.01291957  1
  Cl  Cl10  1  0.73606990  0.73606990  0.29627333  1
  Cl  Cl11  1  0.26393010  0.26393010  0.70372667  1
  Cl  Cl12  1  0.80300274  0.80300274  0.66270553  1
  Cl  Cl13  1  0.19699726  0.19699726  0.33729447  1
  Cl  Cl14  1  0.58629796  0.35847581  0.32358333  1
  Cl  Cl15  1  0.41370204  0.64152419  0.67641667  1
  Cl  Cl16  1  0.64152419  0.41370204  0.67641667  1
  Cl  Cl17  1  0.35847581  0.58629796  0.32358333  1
loop_
_geom_bond_atom_site_label_1
_geom_bond_atom_site_label_2
_geom_bond_distance
_geom_bond_site_symmetry_2
Cl0 Nb4 2.481922 1_554
Cl0 Nb2 2.481922 1_555
Cl1 Nb5 2.481922 1_555
Cl1 Nb3 2.481922 1_554
Cl2 Nb2 2.653510 1_565
Cl2 In0 2.891226 1_565
Cl2 In1 3.059014 1_555
Cl3 Nb3 2.653510 1_545
Cl3 In1 2.891226 1_545
Cl3 In0 3.059014 1_555
Cl4 Nb4 2.653510 1_455
Cl4 In2 2.891226 1_455
Cl4 In3 3.059014 1_555
Cl5 Nb5 2.653510 1_655
Cl5 In3 2.891226 1_655
Cl5 In2 3.059014 1_555
Cl6 Nb2 2.471609 1_555
Cl6 Nb1 2.472607 1_554
Cl7 Nb3 2.471609 1_555
Cl7 Nb0 2.472607 1_556
Cl8 Nb4 2.471609 1_555
Cl8 Nb0 2.472607 1_556
Cl9 Nb5 2.471609 1_555
Cl9 Nb1 2.472607 1_554
Cl10 Nb0 2.617080 1_555
Cl10 In0 3.029503 1_565
Cl10 In3 3.029503 1_655
Cl11 Nb1 2.617080 1_555
Cl11 In1 3.029503 1_545
Cl11 In2 3.029503 1_455
Cl12 Nb3 2.494708 1_555
Cl12 Nb4 2.494708 1_555
Cl13 Nb2 2.494708 1_555
Cl13 Nb5 2.494708 1_555
Cl14 Nb2 2.472778 1_555
Cl14 Nb0 2.477400 1_555
Cl15 Nb3 2.472778 1_555
Cl15 Nb1 2.477400 1_555
Cl16 Nb4 2.472778 1_555
Cl16 Nb1 2.477400 1_555
Cl17 Nb5 2.472778 1_555
Cl17 Nb0 2.477400 1_555
