# generated using pymatgen
data_Na14Sc8Si7S5O48
_symmetry_space_group_name_H-M   'P 1'
_cell_length_a   18.35223239
_cell_length_b   9.16540772
_cell_length_c   22.70909968
_cell_angle_alpha   89.93052655
_cell_angle_beta   89.96964789
_cell_angle_gamma   120.01136830
_symmetry_Int_Tables_number   1
_chemical_formula_structural   Na14Sc8Si7S5O48
_chemical_formula_sum   'Na42 Sc24 Si21 S15 O144'
_cell_volume   3307.65939846
_cell_formula_units_Z   3
loop_
 _symmetry_equiv_pos_site_id
 _symmetry_equiv_pos_as_xyz
  1  'x, y, z'
loop_
 _atom_site_type_symbol
 _atom_site_label
 _atom_site_symmetry_multiplicity
 _atom_site_fract_x
 _atom_site_fract_y
 _atom_site_fract_z
 _atom_site_occupancy
  Na  Na0  1  0.81209251  0.99235787  0.24426967  1
  Na  Na1  1  0.18626769  0.36502184  0.25529982  1
  Na  Na2  1  0.68849027  0.36700864  0.25397392  1
  Na  Na3  1  0.99918643  0.64637321  0.24347398  1
  Na  Na4  1  0.50054770  0.64720862  0.24476092  1
  Na  Na5  1  0.31126240  0.63266635  0.75223283  1
  Na  Na6  1  0.99947191  0.35252866  0.74765616  1
  Na  Na7  1  0.50148912  0.35457794  0.74862387  1
  Na  Na8  1  0.18461006  0.00562148  0.75719109  1
  Na  Na9  1  0.68789414  0.00831275  0.75829552  1
  Na  Na10  1  0.14331507  0.33217861  0.58380490  1
  Na  Na11  1  0.64539702  0.33437304  0.58457844  1
  Na  Na12  1  0.33778291  0.97571871  0.58047149  1
  Na  Na13  1  0.83796679  0.97645552  0.58239152  1
  Na  Na14  1  0.14270059  0.95462315  0.08614159  1
  Na  Na15  1  0.65131519  0.95810398  0.08479104  1
  Na  Na16  1  0.33769936  0.69898791  0.08239067  1
  Na  Na17  1  0.83744443  0.71005627  0.08004551  1
  Na  Na18  1  0.48735543  0.68118648  0.92316178  1
  Na  Na19  1  0.98077809  0.67627757  0.92368353  1
  Na  Na20  1  0.34410639  0.01985991  0.91392769  1
  Na  Na21  1  0.84177306  0.01865817  0.91917391  1
  Na  Na22  1  0.16917854  0.29661364  0.91121805  1
  Na  Na23  1  0.67404674  0.30371765  0.91185483  1
  Na  Na24  1  0.48433203  0.28771488  0.41989131  1
  Na  Na25  1  0.98462818  0.28813513  0.42001583  1
  Na  Na26  1  0.17033618  0.04040760  0.40795031  1
  Na  Na27  1  0.67030135  0.04227990  0.40876133  1
  Na  Na28  1  0.34258120  0.66729453  0.41047071  1
  Na  Na29  1  0.84384927  0.66859201  0.41115787  1
  Na  Na30  1  0.99826577  0.00928759  0.49733455  1
  Na  Na31  1  0.49884532  0.00956781  0.49715405  1
  Na  Na32  1  0.99245159  0.98836300  0.00250494  1
  Na  Na33  1  0.50068356  0.98981692  0.99897852  1
  Na  Na34  1  0.32474814  0.32281330  0.83486702  1
  Na  Na35  1  0.82320981  0.33186523  0.83466363  1
  Na  Na36  1  0.32322821  0.31569016  0.32924903  1
  Na  Na37  1  0.82470529  0.32789386  0.32962935  1
  Na  Na38  1  0.16504729  0.67597230  0.16985250  1
  Na  Na39  1  0.66603999  0.67588142  0.16353481  1
  Na  Na40  1  0.15979621  0.65538853  0.66881058  1
  Na  Na41  1  0.66761132  0.65694636  0.67147977  1
  Sc  Sc0  1  0.00174302  -0.00099635  0.34872348  1
  Sc  Sc1  1  0.49935736  -0.00118326  0.34860702  1
  Sc  Sc2  1  0.99861978  0.99961301  0.85015743  1
  Sc  Sc3  1  0.50269726  0.00596554  0.85064913  1
  Sc  Sc4  1  0.99685300  0.01274098  0.65151848  1
  Sc  Sc5  1  0.49877447  0.01555739  0.65102052  1
  Sc  Sc6  1  0.99329166  0.98181218  0.14748820  1
  Sc  Sc7  1  0.49829614  0.98130279  0.15074961  1
  Sc  Sc8  1  0.33667087  0.32859230  0.68615247  1
  Sc  Sc9  1  0.83630132  0.33350744  0.68824101  1
  Sc  Sc10  1  0.33569426  0.33826857  0.18752646  1
  Sc  Sc11  1  0.83530580  0.33264457  0.18198072  1
  Sc  Sc12  1  0.33457435  0.34441615  0.98142274  1
  Sc  Sc13  1  0.83488531  0.33279363  0.98460699  1
  Sc  Sc14  1  0.33401894  0.32416169  0.48060076  1
  Sc  Sc15  1  0.83420660  0.32393606  0.48104910  1
  Sc  Sc16  1  0.16368471  0.67366414  0.01597183  1
  Sc  Sc17  1  0.67067794  0.68735228  0.01894569  1
  Sc  Sc18  1  0.16386207  0.65340933  0.51512049  1
  Sc  Sc19  1  0.66475816  0.65434724  0.51569580  1
  Sc  Sc20  1  0.18093499  0.68810363  0.31284814  1
  Sc  Sc21  1  0.67686129  0.67790232  0.31504023  1
  Sc  Sc22  1  0.17573382  0.67485143  0.81644369  1
  Sc  Sc23  1  0.68130271  0.67461624  0.81474649  1
  Si  Si0  1  0.14746582  0.99896687  0.24888221  1
  Si  Si1  1  0.64818336  0.99951338  0.25117507  1
  Si  Si2  1  0.35215263  0.70390128  0.24978587  1
  Si  Si3  1  0.85254296  0.70148157  0.25130450  1
  Si  Si4  1  0.14827918  0.29755895  0.74971881  1
  Si  Si5  1  0.64878972  0.29950970  0.74945805  1
  Si  Si6  1  0.35218782  0.99945320  0.75022746  1
  Si  Si7  1  0.85170317  0.99940668  0.74953079  1
  Si  Si8  1  0.48316760  0.33946068  0.58346441  1
  Si  Si9  1  0.98274814  0.33920056  0.58386586  1
  Si  Si10  1  0.48155178  0.62555840  0.08376830  1
  Si  Si11  1  0.98348930  0.62548401  0.08340010  1
  Si  Si12  1  0.83671332  0.04174829  0.08332061  1
  Si  Si13  1  0.31485920  0.66772046  0.91820913  1
  Si  Si14  1  0.81528282  0.66465283  0.91887613  1
  Si  Si15  1  0.16655542  0.96438826  0.91591421  1
  Si  Si16  1  0.66614530  0.96329685  0.91479471  1
  Si  Si17  1  0.31449791  0.96076786  0.42012206  1
  Si  Si18  1  0.81484107  0.96146170  0.41864828  1
  Si  Si19  1  0.16661904  0.36969963  0.41591591  1
  Si  Si20  1  0.66639259  0.36827649  0.41664699  1
  S  S0  1  0.00021778  0.29294522  0.25053492  1
  S  S1  1  0.49941483  0.29159750  0.25009680  1
  S  S2  1  0.99954543  0.70804653  0.74964086  1
  S  S3  1  0.49923006  0.70828857  0.74920370  1
  S  S4  1  0.18541664  0.03735096  0.58369592  1
  S  S5  1  0.68562147  0.03773273  0.58366275  1
  S  S6  1  0.33495044  0.62742220  0.58321908  1
  S  S7  1  0.83493872  0.62646484  0.58254690  1
  S  S8  1  0.33483709  0.04334167  0.08253346  1
  S  S9  1  0.18706497  0.33495965  0.08345920  1
  S  S10  1  0.68420063  0.33205455  0.08354592  1
  S  S11  1  0.02135795  0.37613019  0.91538690  1
  S  S12  1  0.52098865  0.37604156  0.91647569  1
  S  S13  1  0.02062870  0.66601287  0.41655580  1
  S  S14  1  0.52055170  0.66641943  0.41677470  1
  O  O0  1  0.10618526  0.03473869  0.30846888  1
  O  O1  1  0.60434544  0.03176769  0.30924703  1
  O  O2  1  0.41056441  0.78971394  0.30846382  1
  O  O3  1  0.91054025  0.78945362  0.30998819  1
  O  O4  1  0.48750570  0.19290526  0.30500694  1
  O  O5  1  0.98662006  0.19040058  0.30504461  1
  O  O6  1  0.10689495  0.17621859  0.80737105  1
  O  O7  1  0.60543927  0.17670601  0.80704938  1
  O  O8  1  0.48487099  0.78219295  0.80315663  1
  O  O9  1  0.98848622  0.78370845  0.80399889  1
  O  O10  1  0.41142782  0.03206652  0.80765915  1
  O  O11  1  0.91261160  0.03392693  0.80658926  1
  O  O12  1  0.39377723  0.96374059  0.69180017  1
  O  O13  1  0.89485438  0.97307496  0.69016483  1
  O  O14  1  0.09089976  0.20689858  0.69089028  1
  O  O15  1  0.58951984  0.20686133  0.69076611  1
  O  O16  1  0.01310133  0.81620028  0.69783444  1
  O  O17  1  0.51211090  0.81572578  0.69739352  1
  O  O18  1  0.39586969  0.81851466  0.19117611  1
  O  O19  1  0.89471365  0.82341101  0.19421093  1
  O  O20  1  0.01431931  0.21280722  0.19930453  1
  O  O21  1  0.51259010  0.20984389  0.19874787  1
  O  O22  1  0.08937265  0.97589569  0.19119085  1
  O  O23  1  0.58951954  0.97383124  0.19301034  1
  O  O24  1  0.43544236  0.35572089  0.64192988  1
  O  O25  1  0.93548695  0.35686604  0.64188155  1
  O  O26  1  0.23851398  0.12058615  0.63647300  1
  O  O27  1  0.73879522  0.12069409  0.63593264  1
  O  O28  1  0.32186468  0.52210158  0.63624393  1
  O  O29  1  0.82078399  0.51730971  0.63390930  1
  O  O30  1  0.43318255  0.51363529  0.14200549  1
  O  O31  1  0.93745564  0.51682145  0.14275587  1
  O  O32  1  0.32082646  0.12438587  0.13391733  1
  O  O33  1  0.81768992  0.12521325  0.14137754  1
  O  O34  1  0.24078508  0.36026094  0.13577649  1
  O  O35  1  0.73703095  0.35789172  0.13667009  1
  O  O36  1  0.22633691  0.30632381  0.03006971  1
  O  O37  1  0.72347462  0.30325590  0.03066752  1
  O  O38  1  0.42071629  0.53806367  0.02577413  1
  O  O39  1  0.92429583  0.54111905  0.02514521  1
  O  O40  1  0.34310247  0.13933471  0.02792042  1
  O  O41  1  0.84405004  0.14964895  0.02398103  1
  O  O42  1  0.22507375  0.14574624  0.53072558  1
  O  O43  1  0.72442809  0.14566542  0.53028929  1
  O  O44  1  0.34280118  0.54457484  0.52981215  1
  O  O45  1  0.84321514  0.54731623  0.52806323  1
  O  O46  1  0.42261795  0.30814407  0.52603642  1
  O  O47  1  0.92309543  0.30811878  0.52570863  1
  O  O48  1  0.26906684  0.69319332  0.97595391  1
  O  O49  1  0.77134125  0.69395808  0.97691187  1
  O  O50  1  0.07521144  0.45701139  0.96722096  1
  O  O51  1  0.57428593  0.45610905  0.96810014  1
  O  O52  1  0.15033134  0.84379137  0.97376092  1
  O  O53  1  0.64731483  0.84309846  0.97308559  1
  O  O54  1  0.27123311  0.84752418  0.47963684  1
  O  O55  1  0.76912367  0.84532319  0.47705583  1
  O  O56  1  0.14995036  0.45443363  0.47503571  1
  O  O57  1  0.64943030  0.45427722  0.47505886  1
  O  O58  1  0.07430217  0.69258495  0.46872666  1
  O  O59  1  0.57446929  0.69263491  0.46857580  1
  O  O60  1  0.05640929  0.63529528  0.36324917  1
  O  O61  1  0.55643375  0.63602392  0.36317982  1
  O  O62  1  0.25091219  0.87581553  0.36476187  1
  O  O63  1  0.75431631  0.87946696  0.36095473  1
  O  O64  1  0.18082767  0.48890202  0.35885718  1
  O  O65  1  0.68030680  0.48668328  0.35918904  1
  O  O66  1  0.05954066  0.47812065  0.86156611  1
  O  O67  1  0.55579025  0.47616543  0.86213393  1
  O  O68  1  0.18149100  0.87605171  0.85776821  1
  O  O69  1  0.67817823  0.87102103  0.85686510  1
  O  O70  1  0.25554054  0.63028922  0.85936137  1
  O  O71  1  0.75249757  0.62559732  0.86259290  1
  O  O72  1  0.01225426  0.81939470  0.41268216  1
  O  O73  1  0.51197516  0.81925217  0.41263370  1
  O  O74  1  0.40754270  0.97707350  0.41321603  1
  O  O75  1  0.90808389  0.97857303  0.41292774  1
  O  O76  1  0.08320172  0.17957161  0.41298260  1
  O  O77  1  0.58265879  0.17891499  0.41303378  1
  O  O78  1  0.01306774  0.20625152  0.91117475  1
  O  O79  1  0.51110268  0.20397848  0.91181266  1
  O  O80  1  0.08326935  0.98648624  0.91162724  1
  O  O81  1  0.58173830  0.98516358  0.91120679  1
  O  O82  1  0.40781854  0.83754161  0.91176422  1
  O  O83  1  0.90809808  0.83750682  0.91104240  1
  O  O84  1  0.48963232  0.16299541  0.58592149  1
  O  O85  1  0.99051433  0.16390338  0.58582320  1
  O  O86  1  0.10100642  0.01967926  0.58922732  1
  O  O87  1  0.60079321  0.01968428  0.58910716  1
  O  O88  1  0.41033474  0.79770536  0.58768357  1
  O  O89  1  0.91030132  0.79695961  0.58770091  1
  O  O90  1  0.48895399  0.81601716  0.08605803  1
  O  O91  1  0.99349788  0.81633583  0.08628310  1
  O  O92  1  0.41022690  0.02420866  0.08776877  1
  O  O93  1  0.91898267  0.01793887  0.08759333  1
  O  O94  1  0.10349834  0.18380862  0.08918838  1
  O  O95  1  0.60005615  0.17854125  0.08972641  1
  O  O96  1  0.34304532  0.17001380  0.74447391  1
  O  O97  1  0.84531791  0.17398490  0.74453267  1
  O  O98  1  0.24415430  0.32497251  0.74214818  1
  O  O99  1  0.74033421  0.31154144  0.74115079  1
  O  O100  1  0.42094272  0.53904730  0.74349377  1
  O  O101  1  0.92458155  0.53729465  0.74433258  1
  O  O102  1  0.34577725  0.51663525  0.24567555  1
  O  O103  1  0.84342525  0.51419459  0.24623453  1
  O  O104  1  0.42424613  0.31194091  0.24494406  1
  O  O105  1  0.92282255  0.30707109  0.24566145  1
  O  O106  1  0.24039575  0.17007999  0.24234512  1
  O  O107  1  0.74240873  0.16642881  0.24653754  1
  O  O108  1  0.32489459  0.49773258  0.92170491  1
  O  O109  1  0.82742966  0.49857013  0.92216631  1
  O  O110  1  0.43420937  0.35232559  0.92334865  1
  O  O111  1  0.93670419  0.35808165  0.92098922  1
  O  O112  1  0.25345992  0.14895015  0.92293550  1
  O  O113  1  0.75129427  0.15002114  0.92047398  1
  O  O114  1  0.32626259  0.15262185  0.42334848  1
  O  O115  1  0.82523961  0.15189943  0.42280363  1
  O  O116  1  0.25315311  0.35758726  0.42425210  1
  O  O117  1  0.75309377  0.35741659  0.42419376  1
  O  O118  1  0.43469794  0.51668263  0.42424768  1
  O  O119  1  0.93452126  0.51677420  0.42428971  1
  O  O120  1  0.18231370  0.49106372  0.07722247  1
  O  O121  1  0.67748006  0.48497079  0.07727338  1
  O  O122  1  0.07993416  0.65341708  0.07960584  1
  O  O123  1  0.57587692  0.65142346  0.07966218  1
  O  O124  1  0.25807748  0.86974862  0.07902969  1
  O  O125  1  0.75090189  0.85110061  0.08049545  1
  O  O126  1  0.18100579  0.87197171  0.57818053  1
  O  O127  1  0.68061794  0.87191073  0.57750135  1
  O  O128  1  0.25781595  0.64565980  0.57991770  1
  O  O129  1  0.75805260  0.64636129  0.57907830  1
  O  O130  1  0.07933433  0.50226811  0.58002888  1
  O  O131  1  0.57916470  0.50187171  0.57991673  1
  O  O132  1  0.14668457  0.81903448  0.25547865  1
  O  O133  1  0.65118113  0.82296993  0.25588001  1
  O  O134  1  0.25541868  0.66931474  0.25210018  1
  O  O135  1  0.75754232  0.68029375  0.25466251  1
  O  O136  1  0.07431814  0.46419775  0.25697229  1
  O  O137  1  0.57511042  0.46275942  0.25572504  1
  O  O138  1  0.15214096  0.48090563  0.75420469  1
  O  O139  1  0.64676022  0.47575461  0.75454584  1
  O  O140  1  0.07546296  0.68805930  0.75463943  1
  O  O141  1  0.57249513  0.68377206  0.75483725  1
  O  O142  1  0.25703287  0.83330257  0.75312340  1
  O  O143  1  0.75504143  0.84101265  0.75152614  1
loop_
_geom_bond_atom_site_label_1
_geom_bond_atom_site_label_2
_geom_bond_distance
_geom_bond_site_symmetry_2
Na0 O107 2.494929 1_565
Na0 O135 2.524359 1_555
Na0 O105 2.566595 1_565
Na0 O133 2.571463 1_555
Na0 O33 2.611636 1_565
Na0 O63 2.847678 1_555
Na0 O19 2.887960 1_555
Na1 O134 2.419289 1_555
Na1 O106 2.458080 1_555
Na1 O102 2.545094 1_555
Na1 O136 2.630010 1_555
Na1 O64 2.636137 1_555
Na1 O0 2.884508 1_555
Na1 O34 2.900218 1_555
Na1 O20 3.020915 1_555
Na2 O103 2.469302 1_555
Na2 O107 2.491528 1_555
Na2 O135 2.492215 1_555
Na2 O137 2.632123 1_555
Na2 O65 2.665593 1_555
Na2 O35 2.822981 1_555
Na2 O1 2.939950 1_555
Na3 O132 2.371224 1_655
Na3 O103 2.485630 1_555
Na3 O31 2.566788 1_555
Na3 O136 2.661831 1_655
Na3 O105 2.697668 1_555
Na3 O22 2.873928 1_655
Na3 O60 2.936070 1_655
Na3 O3 2.963836 1_555
Na4 O133 2.418250 1_555
Na4 O102 2.469797 1_555
Na4 O30 2.639754 1_555
Na4 O104 2.664378 1_555
Na4 O137 2.665695 1_555
Na4 O23 2.847584 1_555
Na4 O61 2.898549 1_555
Na4 O2 2.947120 1_555
Na5 O98 2.459648 1_555
Na5 O142 2.490651 1_555
Na5 O138 2.530005 1_555
Na5 O100 2.560288 1_555
Na5 O70 2.634323 1_555
Na5 O28 2.864599 1_555
Na5 O12 2.962323 1_555
Na5 O8 3.001096 1_555
Na6 O138 2.441268 1_655
Na6 O97 2.460873 1_555
Na6 O101 2.662813 1_555
Na6 O140 2.671804 1_655
Na6 O25 2.683237 1_555
Na6 O66 2.823587 1_655
Na6 O11 2.861996 1_555
Na6 O14 2.915644 1_655
Na7 O139 2.323388 1_555
Na7 O96 2.530976 1_555
Na7 O141 2.624809 1_555
Na7 O24 2.712125 1_555
Na7 O100 2.749014 1_555
Na7 O67 2.788968 1_555
Na7 O15 2.891273 1_555
Na7 O10 2.892658 1_555
Na8 O142 2.523813 1_545
Na8 O96 2.534469 1_555
Na8 O68 2.560388 1_545
Na8 O140 2.579846 1_545
Na8 O98 2.583725 1_555
Na8 O6 2.830368 1_555
Na8 O26 2.924306 1_555
Na9 O143 2.405003 1_545
Na9 O99 2.474507 1_555
Na9 O97 2.521826 1_555
Na9 O69 2.528646 1_545
Na9 O141 2.652979 1_545
Na9 O7 2.869914 1_555
Na9 O27 2.946662 1_555
Na10 O130 2.376398 1_555
Na10 O85 2.432645 1_455
Na10 O86 2.568260 1_555
Na10 O128 2.576469 1_555
Na10 O14 2.653927 1_555
Na10 O56 2.688496 1_555
Na11 O131 2.389963 1_555
Na11 O84 2.479517 1_555
Na11 O129 2.559626 1_555
Na11 O87 2.576227 1_555
Na11 O15 2.650300 1_555
Na11 O57 2.703820 1_555
Na12 O84 2.437934 1_565
Na12 O126 2.539423 1_555
Na12 O88 2.575738 1_555
Na12 O54 2.586434 1_555
Na12 O128 2.619981 1_555
Na12 O12 2.752209 1_555
Na12 O46 2.911829 1_565
Na12 O26 3.020048 1_565
Na13 O85 2.446329 1_565
Na13 O127 2.549894 1_555
Na13 O89 2.582190 1_555
Na13 O129 2.621438 1_555
Na13 O13 2.667535 1_555
Na13 O55 2.693319 1_555
Na13 O47 2.928463 1_565
Na13 O27 2.991148 1_565
Na14 O91 2.373277 1_455
Na14 O122 2.406303 1_555
Na14 O94 2.539075 1_565
Na14 O124 2.600458 1_555
Na14 O22 2.622278 1_555
Na14 O52 2.777182 1_554
Na15 O123 2.437068 1_555
Na15 O125 2.470766 1_555
Na15 O90 2.587162 1_555
Na15 O95 2.623210 1_565
Na15 O53 2.735092 1_554
Na15 O23 2.740071 1_555
Na15 O33 2.941232 1_565
Na15 O37 3.011638 1_565
Na16 O90 2.425870 1_555
Na16 O120 2.518356 1_555
Na16 O92 2.589168 1_565
Na16 O124 2.622622 1_555
Na16 O18 2.698560 1_555
Na16 O48 2.714447 1_554
Na16 O38 2.898294 1_555
Na16 O34 2.955749 1_555
Na17 O93 2.451304 1_565
Na17 O125 2.499536 1_555
Na17 O91 2.526080 1_555
Na17 O49 2.608366 1_554
Na17 O121 2.611582 1_555
Na17 O19 2.796905 1_555
Na18 O81 2.450787 1_555
Na18 O82 2.518599 1_555
Na18 O108 2.589027 1_555
Na18 O38 2.651635 1_556
Na18 O110 2.663738 1_555
Na18 O53 2.784792 1_555
Na18 O8 2.884809 1_555
Na19 O109 2.447268 1_555
Na19 O83 2.452823 1_555
Na19 O80 2.518826 1_655
Na19 O39 2.573709 1_556
Na19 O111 2.608464 1_555
Na19 O9 2.868877 1_555
Na19 O52 2.926078 1_655
Na20 O82 2.473169 1_545
Na20 O112 2.485628 1_555
Na20 O110 2.650828 1_555
Na20 O79 2.658719 1_555
Na20 O10 2.687141 1_555
Na20 O40 2.815612 1_556
Na20 O68 2.888482 1_545
Na20 O48 2.950912 1_545
Na21 O113 2.491513 1_555
Na21 O83 2.508895 1_545
Na21 O41 2.657961 1_556
Na21 O111 2.700670 1_555
Na21 O78 2.731923 1_655
Na21 O11 2.839016 1_555
Na21 O49 2.896078 1_545
Na21 O69 2.965182 1_545
Na22 O80 2.466218 1_545
Na22 O108 2.520609 1_555
Na22 O112 2.527563 1_555
Na22 O78 2.553515 1_555
Na22 O6 2.614012 1_555
Na22 O36 2.881520 1_556
Na22 O70 2.896946 1_555
Na23 O113 2.455577 1_555
Na23 O109 2.478077 1_555
Na23 O81 2.539074 1_545
Na23 O79 2.653957 1_555
Na23 O7 2.673710 1_555
Na23 O71 2.787316 1_555
Na23 O37 2.847662 1_556
Na24 O77 2.464767 1_555
Na24 O74 2.470384 1_545
Na24 O114 2.522112 1_555
Na24 O118 2.675112 1_555
Na24 O46 2.708963 1_555
Na24 O4 2.760604 1_555
Na24 O57 2.908960 1_555
Na25 O75 2.462443 1_545
Na25 O76 2.467587 1_655
Na25 O115 2.542723 1_555
Na25 O119 2.678534 1_555
Na25 O47 2.697181 1_555
Na25 O5 2.767461 1_555
Na25 O56 2.910711 1_655
Na26 O76 2.497524 1_555
Na26 O114 2.535075 1_555
Na26 O0 2.536604 1_555
Na26 O116 2.545874 1_555
Na26 O72 2.579134 1_545
Na26 O62 2.767298 1_545
Na26 O42 2.958741 1_555
Na27 O77 2.485935 1_555
Na27 O115 2.517998 1_555
Na27 O117 2.527240 1_555
Na27 O1 2.543278 1_555
Na27 O73 2.585865 1_545
Na27 O63 2.843686 1_545
Na27 O43 2.927239 1_555
Na28 O74 2.470014 1_555
Na28 O116 2.487187 1_555
Na28 O2 2.602291 1_555
Na28 O118 2.682419 1_555
Na28 O73 2.697342 1_555
Na28 O64 2.830614 1_555
Na28 O44 2.933793 1_555
Na29 O75 2.472470 1_555
Na29 O117 2.498290 1_555
Na29 O3 2.576444 1_555
Na29 O119 2.666440 1_555
Na29 O72 2.681504 1_655
Na29 O65 2.860683 1_555
Na29 O45 2.874644 1_555
Na29 O55 2.994962 1_555
Na30 O75 2.455836 1_545
Na30 O76 2.467977 1_655
Na30 O85 2.504956 1_555
Na30 O72 2.691682 1_645
Na30 O89 2.729226 1_545
Na30 O86 2.782805 1_655
Na31 O77 2.454738 1_555
Na31 O74 2.456694 1_545
Na31 O84 2.512764 1_555
Na31 O73 2.685671 1_545
Na31 O88 2.732611 1_545
Na31 O87 2.775007 1_555
Na32 O93 2.447301 1_565
Na32 O91 2.475683 1_555
Na32 O83 2.547846 1_554
Na32 O80 2.657518 1_654
Na32 O94 2.756454 1_665
Na32 O78 2.768786 1_664
Na33 O90 2.478548 1_556
Na33 O81 2.499605 1_555
Na33 O82 2.530992 1_555
Na33 O95 2.724301 1_566
Na33 O79 2.724413 1_565
Na33 O92 2.728065 1_566
Na34 O112 2.480881 1_555
Na34 O108 2.542138 1_555
Na34 O98 2.579521 1_555
Na34 O96 2.600868 1_555
Na34 O110 2.758286 1_555
Na34 O100 2.799325 1_555
Na35 O113 2.471030 1_555
Na35 O109 2.485615 1_555
Na35 O99 2.564879 1_555
Na35 O97 2.653585 1_555
Na35 O101 2.774295 1_555
Na35 O111 2.782804 1_555
Na36 O106 2.442708 1_555
Na36 O102 2.528534 1_555
Na36 O114 2.622772 1_555
Na36 O116 2.636086 1_555
Na36 O104 2.676479 1_555
Na36 O118 2.911548 1_555
Na37 O107 2.409484 1_555
Na37 O103 2.454559 1_555
Na37 O117 2.601195 1_555
Na37 O115 2.662082 1_555
Na37 O105 2.693674 1_555
Na37 O119 2.864110 1_555
Na38 O132 2.462000 1_555
Na38 O134 2.519367 1_555
Na38 O122 2.522727 1_555
Na38 O136 2.684820 1_555
Na38 O124 2.697637 1_555
Na38 O120 2.818277 1_555
Na39 O125 2.459312 1_555
Na39 O123 2.459544 1_555
Na39 O133 2.581383 1_555
Na39 O135 2.653314 1_555
Na39 O121 2.705277 1_555
Na39 O137 2.776492 1_555
Na40 O138 2.470876 1_555
Na40 O130 2.480301 1_555
Na40 O142 2.570941 1_555
Na40 O140 2.597277 1_555
Na40 O128 2.734233 1_555
Na40 O126 2.746673 1_555
Na41 O139 2.412180 1_555
Na41 O143 2.455128 1_555
Na41 O131 2.584827 1_555
Na41 O141 2.667932 1_555
Na41 O129 2.706533 1_555
Na41 O127 2.830596 1_555
O0 Si0 1.661608 1_545
O0 Sc0 1.996566 1_555
O1 Si1 1.646671 1_545
O1 Sc1 2.004492 1_555
O2 Si2 1.644387 1_555
O2 Sc1 2.010269 1_565
O3 Si3 1.644565 1_555
O3 Sc0 2.013436 1_665
O4 S1 1.490002 1_555
O4 Sc1 2.138957 1_555
O5 S0 1.496716 1_655
O5 Sc0 2.149731 1_655
O6 Si4 1.636528 1_555
O6 Sc2 2.071060 1_445
O7 Si5 1.646154 1_555
O7 Sc3 2.006759 1_555
O8 S3 1.486495 1_555
O8 Sc3 2.193447 1_565
O9 S2 1.479358 1_555
O9 Sc2 2.164788 1_555
O10 Si6 1.627783 1_545
O10 Sc3 2.053764 1_555
O11 Si7 1.636244 1_545
O11 Sc2 2.016627 1_545
O12 Si6 1.643192 1_555
O12 Sc5 1.969216 1_565
O13 Si7 1.641259 1_555
O13 Sc4 1.929540 1_565
O14 Si4 1.647109 1_555
O14 Sc4 1.969299 1_455
O15 Si5 1.661628 1_555
O15 Sc5 1.935685 1_555
O16 S2 1.476069 1_455
O16 Sc4 2.230073 1_465
O17 S3 1.474403 1_555
O17 Sc5 2.228779 1_565
O18 Si2 1.634343 1_555
O18 Sc7 1.947221 1_555
O19 Si3 1.630676 1_555
O19 Sc6 1.968070 1_555
O20 S0 1.466920 1_555
O20 Sc6 2.281480 1_445
O21 S1 1.470628 1_555
O21 Sc7 2.258479 1_545
O22 Si0 1.635362 1_555
O22 Sc6 2.048047 1_455
O23 Si1 1.645584 1_555
O23 Sc7 1.960800 1_555
O24 Si8 1.637668 1_555
O24 Sc8 1.975538 1_555
O25 Si9 1.629129 1_555
O25 Sc9 2.018707 1_555
O26 S4 1.492584 1_555
O26 Sc8 2.173546 1_555
O27 S5 1.483437 1_555
O27 Sc9 2.221268 1_555
O28 S6 1.484733 1_555
O28 Sc8 2.231940 1_555
O29 S7 1.471642 1_555
O29 Sc9 2.217344 1_555
O30 Si10 1.635201 1_555
O30 Sc10 1.992581 1_555
O31 Si11 1.635956 1_555
O31 Sc11 1.996582 1_555
O32 S8 1.473882 1_555
O32 Sc10 2.206917 1_555
O33 Si12 1.647560 1_555
O33 Sc11 1.989715 1_555
O34 S9 1.486769 1_555
O34 Sc10 2.192800 1_555
O35 S10 1.491233 1_555
O35 Sc11 2.187242 1_555
O36 S9 1.499128 1_555
O36 Sc12 2.142682 1_554
O37 S10 1.490405 1_555
O37 Sc13 2.188892 1_554
O38 Si10 1.653042 1_555
O38 Sc12 1.965441 1_554
O39 Si11 1.640684 1_555
O39 Sc13 2.014309 1_554
O40 S8 1.482857 1_555
O40 Sc12 2.227603 1_554
O41 Si12 1.635670 1_555
O41 Sc13 1.981015 1_554
O42 S4 1.495514 1_555
O42 Sc14 2.165583 1_555
O43 S5 1.498774 1_555
O43 Sc15 2.163153 1_555
O44 S6 1.476404 1_555
O44 Sc14 2.244093 1_555
O45 S7 1.480665 1_555
O45 Sc15 2.241834 1_555
O46 Si8 1.643580 1_555
O46 Sc14 1.992539 1_555
O47 Si9 1.647533 1_555
O47 Sc15 1.987137 1_555
O48 Si13 1.635911 1_555
O48 Sc16 2.061480 1_556
O49 Si14 1.635799 1_555
O49 Sc17 2.052756 1_556
O50 S11 1.477279 1_555
O50 Sc16 2.141728 1_556
O51 S12 1.467962 1_555
O51 Sc17 2.283013 1_556
O52 Si15 1.644049 1_555
O52 Sc16 1.946578 1_556
O53 Si16 1.643320 1_555
O53 Sc17 1.978702 1_556
O54 Si17 1.644815 1_555
O54 Sc18 2.045817 1_555
O55 Si18 1.642651 1_555
O55 Sc19 2.035457 1_555
O56 Si19 1.654971 1_555
O56 Sc18 1.938600 1_555
O57 Si20 1.650855 1_555
O57 Sc19 1.944648 1_555
O58 S13 1.481617 1_555
O58 Sc18 2.128779 1_555
O59 S14 1.478092 1_555
O59 Sc19 2.143936 1_555
O60 S13 1.469966 1_555
O60 Sc20 2.378315 1_555
O61 S14 1.475146 1_555
O61 Sc21 2.318372 1_555
O62 Si17 1.625889 1_555
O62 Sc20 1.948169 1_555
O63 Si18 1.638292 1_555
O63 Sc21 1.974844 1_555
O64 Si19 1.628444 1_555
O64 Sc20 2.101630 1_555
O65 Si20 1.632333 1_555
O65 Sc21 2.046323 1_555
O66 S11 1.483152 1_555
O66 Sc22 2.235011 1_555
O67 S12 1.477513 1_555
O67 Sc23 2.360869 1_555
O68 Si15 1.642689 1_555
O68 Sc22 2.025308 1_555
O69 Si16 1.638258 1_555
O69 Sc23 2.065424 1_555
O70 Si13 1.648566 1_555
O70 Sc22 1.964892 1_555
O71 Si14 1.636927 1_555
O71 Sc23 1.917588 1_555
O72 S13 1.491140 1_555
O72 Sc0 2.273524 1_565
O73 S14 1.488636 1_555
O73 Sc1 2.291745 1_565
O74 Si17 1.645338 1_555
O74 Sc1 2.166201 1_565
O75 Si18 1.643464 1_555
O75 Sc0 2.188620 1_665
O76 Si19 1.648171 1_555
O76 Sc0 2.153252 1_555
O77 Si20 1.647091 1_555
O77 Sc1 2.164787 1_555
O78 S11 1.489958 1_555
O78 Sc2 2.254259 1_445
O79 S12 1.498451 1_555
O79 Sc3 2.230037 1_555
O80 Si15 1.642120 1_555
O80 Sc2 2.136663 1_455
O81 Si16 1.660434 1_555
O81 Sc3 2.076023 1_565
O82 Si13 1.642384 1_555
O82 Sc3 2.155094 1_565
O83 Si14 1.656051 1_555
O83 Sc2 2.098216 1_555
O84 Si8 1.680725 1_555
O84 Sc5 2.064450 1_555
O85 Si9 1.683028 1_555
O85 Sc4 2.077294 1_555
O86 S4 1.480042 1_555
O86 Sc4 2.352451 1_455
O87 S5 1.486059 1_555
O87 Sc5 2.325919 1_555
O88 S6 1.483471 1_555
O88 Sc5 2.336127 1_565
O89 S7 1.485626 1_555
O89 Sc4 2.324138 1_565
O90 Si10 1.682676 1_555
O90 Sc7 2.056310 1_555
O91 Si11 1.666352 1_555
O91 Sc6 2.059848 1_555
O92 S8 1.483910 1_555
O92 Sc7 2.334405 1_545
O93 Si12 1.632883 1_555
O93 Sc6 2.066888 1_545
O94 S9 1.470432 1_555
O94 Sc6 2.348728 1_445
O95 S10 1.486552 1_555
O95 Sc7 2.300008 1_545
O96 Si6 1.658586 1_545
O96 Sc8 2.011432 1_555
O97 Si7 1.665537 1_545
O97 Sc9 2.009212 1_555
O98 Si4 1.657087 1_555
O98 Sc8 2.107647 1_555
O99 Si5 1.638470 1_555
O99 Sc9 2.056343 1_555
O100 S3 1.502816 1_555
O100 Sc8 2.198231 1_555
O101 S2 1.484356 1_555
O101 Sc9 2.171836 1_555
O102 Si2 1.663682 1_555
O102 Sc10 2.038003 1_555
O103 Si3 1.643474 1_555
O103 Sc11 2.162920 1_555
O104 S1 1.486250 1_555
O104 Sc10 2.189334 1_555
O105 S0 1.493508 1_655
O105 Sc11 2.259229 1_555
O106 Si0 1.647369 1_545
O106 Sc10 2.069031 1_555
O107 Si1 1.641597 1_545
O107 Sc11 2.184137 1_555
O108 Si13 1.659628 1_555
O108 Sc12 2.022529 1_555
O109 Si14 1.646697 1_555
O109 Sc13 2.130943 1_555
O110 S12 1.503769 1_555
O110 Sc12 2.225451 1_555
O111 S11 1.483183 1_655
O111 Sc13 2.279396 1_555
O112 Si15 1.653077 1_545
O112 Sc12 2.128311 1_555
O113 Si16 1.647104 1_545
O113 Sc13 2.172163 1_555
O114 Si17 1.662699 1_545
O114 Sc14 1.990939 1_555
O115 Si18 1.661052 1_545
O115 Sc15 2.002147 1_555
O116 Si19 1.657357 1_555
O116 Sc14 2.095146 1_555
O117 Si20 1.652195 1_555
O117 Sc15 2.105980 1_555
O118 S14 1.493608 1_555
O118 Sc14 2.212649 1_555
O119 S13 1.495289 1_655
O119 Sc15 2.216193 1_555
O120 S9 1.482920 1_555
O120 Sc16 2.328049 1_555
O121 S10 1.473863 1_555
O121 Sc17 2.331653 1_555
O122 Si11 1.658999 1_455
O122 Sc16 2.048594 1_555
O123 Si10 1.628122 1_555
O123 Sc17 2.111813 1_555
O124 S8 1.510154 1_565
O124 Sc16 2.275062 1_555
O125 Si12 1.668868 1_565
O125 Sc17 2.042214 1_555
O126 S4 1.482404 1_565
O126 Sc18 2.353622 1_555
O127 S5 1.482836 1_565
O127 Sc19 2.336142 1_555
O128 S6 1.508059 1_555
O128 Sc18 2.295288 1_555
O129 S7 1.512599 1_555
O129 Sc19 2.266347 1_555
O130 Si9 1.653098 1_455
O130 Sc18 2.083527 1_555
O131 Si8 1.643861 1_555
O131 Sc19 2.084247 1_555
O132 Si0 1.648666 1_555
O132 Sc20 2.069817 1_555
O133 Si1 1.649638 1_555
O133 Sc21 2.101920 1_555
O134 Si2 1.640667 1_555
O134 Sc20 2.008818 1_555
O135 Si3 1.656611 1_555
O135 Sc21 2.009521 1_555
O136 S0 1.483201 1_555
O136 Sc20 2.375332 1_555
O137 S1 1.492588 1_555
O137 Sc21 2.348477 1_555
O138 Si4 1.649420 1_555
O138 Sc22 2.140513 1_555
O139 Si5 1.638520 1_555
O139 Sc23 2.108083 1_555
O140 S2 1.497679 1_455
O140 Sc22 2.365587 1_555
O141 S3 1.475498 1_555
O141 Sc23 2.452682 1_555
O142 Si6 1.646914 1_555
O142 Sc22 2.056211 1_555
O143 Si7 1.637096 1_555
O143 Sc23 2.036289 1_555
