# generated using pymatgen
data_K2Ge2Se5
_symmetry_space_group_name_H-M   'P 1'
_cell_length_a   11.75550518
_cell_length_b   9.88012652
_cell_length_c   10.26227897
_cell_angle_alpha   89.90747136
_cell_angle_beta   90.00000000
_cell_angle_gamma   90.00000000
_symmetry_Int_Tables_number   1
_chemical_formula_structural   K2Ge2Se5
_chemical_formula_sum   'K8 Ge8 Se20'
_cell_volume   1191.91985160
_cell_formula_units_Z   4
loop_
 _symmetry_equiv_pos_site_id
 _symmetry_equiv_pos_as_xyz
  1  'x, y, z'
loop_
 _atom_site_type_symbol
 _atom_site_label
 _atom_site_symmetry_multiplicity
 _atom_site_fract_x
 _atom_site_fract_y
 _atom_site_fract_z
 _atom_site_occupancy
  K  K0  1  0.49278048  0.63967520  0.66679038  1
  K  K1  1  0.99278048  0.36032480  0.33320962  1
  K  K2  1  0.50721952  0.36032480  0.33320962  1
  K  K3  1  0.00721952  0.63967520  0.66679038  1
  K  K4  1  0.75000000  0.04018812  0.58158007  1
  K  K5  1  0.25000000  0.95981188  0.41841993  1
  K  K6  1  0.75000000  0.40897528  0.89326199  1
  K  K7  1  0.25000000  0.59102472  0.10673801  1
  Ge  Ge0  1  0.08727005  0.23388021  0.73711192  1
  Ge  Ge1  1  0.58727005  0.76611979  0.26288808  1
  Ge  Ge2  1  0.91272995  0.76611979  0.26288808  1
  Ge  Ge3  1  0.41272995  0.23388021  0.73711192  1
  Ge  Ge4  1  0.75000000  0.09046253  0.17951804  1
  Ge  Ge5  1  0.25000000  0.90953747  0.82048196  1
  Ge  Ge6  1  0.75000000  0.79826416  0.94437204  1
  Ge  Ge7  1  0.25000000  0.20173584  0.05562796  1
  Se  Se0  1  0.57516995  0.31642900  0.64365272  1
  Se  Se1  1  0.07516995  0.68357100  0.35634728  1
  Se  Se2  1  0.42483005  0.68357100  0.35634728  1
  Se  Se3  1  0.92483005  0.31642900  0.64365272  1
  Se  Se4  1  0.08321469  0.29789276  0.96060142  1
  Se  Se5  1  0.58321469  0.70210724  0.03939858  1
  Se  Se6  1  0.91678531  0.70210724  0.03939858  1
  Se  Se7  1  0.41678531  0.29789276  0.96060142  1
  Se  Se8  1  0.08428611  0.99383921  0.71097603  1
  Se  Se9  1  0.58428611  0.00616079  0.28902397  1
  Se  Se10  1  0.91571389  0.00616079  0.28902397  1
  Se  Se11  1  0.41571389  0.99383921  0.71097603  1
  Se  Se12  1  0.75000000  0.31905394  0.20053221  1
  Se  Se13  1  0.25000000  0.68094606  0.79946779  1
  Se  Se14  1  0.75000000  0.73365202  0.73082821  1
  Se  Se15  1  0.25000000  0.26634798  0.26917179  1
  Se  Se16  1  0.75000000  0.03727702  0.95471797  1
  Se  Se17  1  0.25000000  0.96272298  0.04528203  1
  Se  Se18  1  0.75000000  0.67347974  0.37220276  1
  Se  Se19  1  0.25000000  0.32652026  0.62779724  1
loop_
_geom_bond_atom_site_label_1
_geom_bond_atom_site_label_2
_geom_bond_distance
_geom_bond_site_symmetry_2
K0 Se13 3.188620 1_555
K0 Se14 3.230945 1_555
K0 Se2 3.312305 1_555
K0 Se0 3.346145 1_555
K0 Se11 3.643596 1_555
K1 Se12 3.188620 1_555
K1 Se15 3.230945 1_655
K1 Se3 3.312305 1_555
K1 Se1 3.346145 1_655
K1 Se10 3.643596 1_555
K2 Se12 3.188620 1_555
K2 Se15 3.230945 1_555
K2 Se0 3.312305 1_555
K2 Se2 3.346145 1_555
K2 Se9 3.643596 1_555
K3 Se13 3.188620 1_555
K3 Se14 3.230945 1_455
K3 Se1 3.312305 1_555
K3 Se3 3.346145 1_455
K3 Se8 3.643596 1_555
K4 Se14 3.391667 1_545
K4 Se0 3.476256 1_555
K4 Se3 3.476256 1_555
K4 Se10 3.595128 1_555
K4 Se9 3.595128 1_555
K4 Se16 3.829307 1_555
K5 Se15 3.391667 1_565
K5 Se1 3.476256 1_555
K5 Se2 3.476256 1_555
K5 Se8 3.595128 1_555
K5 Se11 3.595128 1_555
K5 Se17 3.829307 1_555
K6 Se12 3.274679 1_556
K6 Se0 3.410152 1_555
K6 Se3 3.410152 1_555
K6 Se14 3.612714 1_555
K6 Se16 3.725183 1_555
K6 Se5 3.807244 1_556
K6 Se6 3.807244 1_556
K7 Se13 3.274679 1_554
K7 Se2 3.410152 1_555
K7 Se1 3.410152 1_555
K7 Se15 3.612714 1_555
K7 Se17 3.725183 1_555
K7 Se4 3.807244 1_554
K7 Se7 3.807244 1_554
Ge0 Se3 2.286697 1_455
Ge0 Se4 2.380577 1_555
Ge0 Se8 2.387442 1_545
Ge0 Se19 2.398414 1_555
Ge1 Se2 2.286697 1_555
Ge1 Se5 2.380577 1_555
Ge1 Se9 2.387442 1_565
Ge1 Se18 2.398414 1_555
Ge2 Se1 2.286697 1_655
Ge2 Se6 2.380577 1_555
Ge2 Se10 2.387442 1_565
Ge2 Se18 2.398414 1_555
Ge3 Se0 2.286697 1_555
Ge3 Se7 2.380577 1_555
Ge3 Se11 2.387442 1_545
Ge3 Se19 2.398414 1_555
Ge4 Se12 2.269131 1_555
Ge4 Se16 2.366878 1_554
Ge4 Se10 2.397603 1_555
Ge4 Se9 2.397603 1_555
Ge5 Se13 2.269131 1_555
Ge5 Se17 2.366878 1_556
Ge5 Se8 2.397603 1_555
Ge5 Se11 2.397603 1_555
Ge6 Se14 2.283524 1_555
Ge6 Se16 2.364034 1_565
Ge6 Se5 2.386360 1_556
Ge6 Se6 2.386360 1_556
Ge7 Se15 2.283524 1_555
Ge7 Se17 2.364034 1_545
Ge7 Se4 2.386360 1_554
Ge7 Se7 2.386360 1_554
