# generated using pymatgen
data_Na6Mg4Si3Ge4(S3O16)3
_symmetry_space_group_name_H-M   'P 1'
_cell_length_a   17.29405727
_cell_length_b   8.61041608
_cell_length_c   22.17485793
_cell_angle_alpha   90.00608513
_cell_angle_beta   89.80975304
_cell_angle_gamma   119.97629063
_symmetry_Int_Tables_number   1
_chemical_formula_structural   Na6Mg4Si3Ge4(S3O16)3
_chemical_formula_sum   'Na18 Mg12 Si9 Ge12 S27 O144'
_cell_volume   2860.31013805
_cell_formula_units_Z   3
loop_
 _symmetry_equiv_pos_site_id
 _symmetry_equiv_pos_as_xyz
  1  'x, y, z'
loop_
 _atom_site_type_symbol
 _atom_site_label
 _atom_site_symmetry_multiplicity
 _atom_site_fract_x
 _atom_site_fract_y
 _atom_site_fract_z
 _atom_site_occupancy
  Na  Na0  1  0.99947902  0.63434947  0.25056547  1
  Na  Na1  1  0.49975642  0.62673426  0.24484014  1
  Na  Na2  1  0.00223735  0.37036306  0.74405084  1
  Na  Na3  1  0.49997304  0.36759570  0.75023268  1
  Na  Na4  1  0.67237502  0.31852037  0.91339580  1
  Na  Na5  1  0.17052157  0.02860306  0.41638150  1
  Na  Na6  1  0.99413705  0.00174564  0.50186443  1
  Na  Na7  1  0.50229558  0.00493381  0.50114501  1
  Na  Na8  1  0.00221895  0.99943177  0.99728774  1
  Na  Na9  1  0.49338529  0.98409161  0.99913811  1
  Na  Na10  1  0.31594781  0.31500100  0.83329870  1
  Na  Na11  1  0.83646646  0.35013913  0.83581716  1
  Na  Na12  1  0.33252294  0.31903240  0.33805983  1
  Na  Na13  1  0.82404526  0.32829769  0.33868741  1
  Na  Na14  1  0.17436115  0.66112627  0.16271563  1
  Na  Na15  1  0.66678153  0.66386498  0.16300648  1
  Na  Na16  1  0.16503292  0.65703425  0.66857983  1
  Na  Na17  1  0.67638679  0.69132057  0.66472355  1
  Mg  Mg0  1  0.99621057  0.99980411  0.35379220  1
  Mg  Mg1  1  0.49614913  0.99237061  0.85283419  1
  Mg  Mg2  1  0.32311941  0.32785079  0.68684580  1
  Mg  Mg3  1  0.83336087  0.32226829  0.67981287  1
  Mg  Mg4  1  0.33157783  0.34292573  0.17846211  1
  Mg  Mg5  1  0.82983498  0.32779395  0.18312836  1
  Mg  Mg6  1  0.83827964  0.34169089  0.98159518  1
  Mg  Mg7  1  0.33695476  0.33462080  0.48309057  1
  Mg  Mg8  1  0.16987439  0.66926063  0.31585728  1
  Mg  Mg9  1  0.67306029  0.66230796  0.31722128  1
  Mg  Mg10  1  0.17089035  0.67596757  0.81293076  1
  Mg  Mg11  1  0.67223506  0.67327832  0.81422249  1
  Si  Si0  1  0.14463985  0.28715674  0.75373694  1
  Si  Si1  1  0.98004135  0.33999215  0.58163653  1
  Si  Si2  1  0.68449571  0.03002236  0.58488926  1
  Si  Si3  1  0.48129693  0.61771229  0.08215159  1
  Si  Si4  1  0.18540222  0.34231047  0.08445765  1
  Si  Si5  1  0.81404753  0.67185119  0.91432930  1
  Si  Si6  1  0.17389865  0.95992647  0.91834413  1
  Si  Si7  1  0.31004117  0.95522016  0.41593340  1
  Si  Si8  1  0.67435196  0.38419668  0.41834272  1
  Ge  Ge0  1  0.50120137  0.01835914  0.36363785  1
  Ge  Ge1  1  0.01101439  0.99027166  0.85993478  1
  Ge  Ge2  1  0.00148503  0.02796732  0.64746726  1
  Ge  Ge3  1  0.50499001  0.99815768  0.64633460  1
  Ge  Ge4  1  0.00563358  0.01155462  0.14482263  1
  Ge  Ge5  1  0.49689832  0.98566705  0.14275382  1
  Ge  Ge6  1  0.32187171  0.33527691  0.98505681  1
  Ge  Ge7  1  0.82206963  0.31325555  0.48824323  1
  Ge  Ge8  1  0.16425138  0.65813338  0.01342739  1
  Ge  Ge9  1  0.66871411  0.67622046  0.01452611  1
  Ge  Ge10  1  0.16958991  0.66481998  0.51853216  1
  Ge  Ge11  1  0.66686277  0.66432818  0.51807081  1
  S  S0  1  0.14649108  0.00372169  0.24982362  1
  S  S1  1  0.64302340  0.00292657  0.25117529  1
  S  S2  1  0.35760332  0.71699940  0.25144222  1
  S  S3  1  0.85580465  0.71558527  0.24712705  1
  S  S4  1  0.99909400  0.28858723  0.24943477  1
  S  S5  1  0.49916754  0.28054036  0.24944072  1
  S  S6  1  0.64643761  0.28927131  0.74996160  1
  S  S7  1  0.99723533  0.71631996  0.74866628  1
  S  S8  1  0.50080657  0.71086036  0.74942240  1
  S  S9  1  0.35812570  0.99783639  0.74678886  1
  S  S10  1  0.85547693  0.99774907  0.75052772  1
  S  S11  1  0.48089600  0.33246739  0.58610984  1
  S  S12  1  0.18368531  0.03490120  0.58285105  1
  S  S13  1  0.33395527  0.62991534  0.58405699  1
  S  S14  1  0.83441675  0.62730598  0.58394100  1
  S  S15  1  0.98131646  0.63042767  0.08641530  1
  S  S16  1  0.33362660  0.04116633  0.08445364  1
  S  S17  1  0.83338053  0.03741774  0.08461232  1
  S  S18  1  0.68467295  0.33238420  0.08410591  1
  S  S19  1  0.31261797  0.66597358  0.91719462  1
  S  S20  1  0.02079205  0.37339366  0.91501488  1
  S  S21  1  0.51837114  0.37689936  0.91624969  1
  S  S22  1  0.66593946  0.95797412  0.91639754  1
  S  S23  1  0.81194686  0.95947371  0.41727965  1
  S  S24  1  0.16621663  0.37565619  0.41666110  1
  S  S25  1  0.01823825  0.66035821  0.41612795  1
  S  S26  1  0.52174091  0.66861477  0.41385576  1
  O  O0  1  0.10420099  0.02404797  0.30476940  1
  O  O1  1  0.60055873  0.02911544  0.30554309  1
  O  O2  1  0.41831520  0.80531631  0.30380255  1
  O  O3  1  0.91183988  0.79447965  0.30055550  1
  O  O4  1  0.48696079  0.17086805  0.30517998  1
  O  O5  1  0.98654795  0.18035786  0.30275357  1
  O  O6  1  0.09069386  0.15585211  0.81208992  1
  O  O7  1  0.60441741  0.18456549  0.80515382  1
  O  O8  1  0.48788217  0.79382280  0.80276215  1
  O  O9  1  0.98140040  0.79213978  0.80533653  1
  O  O10  1  0.41418386  0.03018240  0.80027657  1
  O  O11  1  0.91195965  0.02395571  0.80302133  1
  O  O12  1  0.40216212  0.96812125  0.69072526  1
  O  O13  1  0.89354576  0.96460440  0.69250969  1
  O  O14  1  0.07951404  0.20119042  0.69200217  1
  O  O15  1  0.58399403  0.20109527  0.69566266  1
  O  O16  1  0.00930418  0.82682361  0.69340127  1
  O  O17  1  0.51581780  0.82265860  0.69297588  1
  O  O18  1  0.39805851  0.82740912  0.19407136  1
  O  O19  1  0.90039405  0.82874266  0.19122885  1
  O  O20  1  0.01319052  0.20685005  0.19302207  1
  O  O21  1  0.51420594  0.19729747  0.19411179  1
  O  O22  1  0.08409105  0.96703514  0.19547036  1
  O  O23  1  0.58504456  0.96629767  0.19530476  1
  O  O24  1  0.44213704  0.35960662  0.64119647  1
  O  O25  1  0.94891304  0.38018659  0.64416319  1
  O  O26  1  0.23897203  0.11701746  0.63567169  1
  O  O27  1  0.74144532  0.10352019  0.64364789  1
  O  O28  1  0.32222240  0.52437472  0.63795697  1
  O  O29  1  0.81704745  0.51830022  0.63756295  1
  O  O30  1  0.45066988  0.51918264  0.14596733  1
  O  O31  1  0.94229190  0.52725501  0.14243408  1
  O  O32  1  0.32022445  0.11791642  0.13911152  1
  O  O33  1  0.82081416  0.11764961  0.13936597  1
  O  O34  1  0.24144675  0.38333654  0.14417847  1
  O  O35  1  0.73783914  0.35659443  0.13804847  1
  O  O36  1  0.22461325  0.29375952  0.02479158  1
  O  O37  1  0.72059005  0.29699008  0.02932275  1
  O  O38  1  0.41367362  0.52290934  0.02446993  1
  O  O39  1  0.92680771  0.54906837  0.03345026  1
  O  O40  1  0.35217095  0.15173249  0.02976156  1
  O  O41  1  0.84822709  0.14481122  0.03058962  1
  O  O42  1  0.22059595  0.14146989  0.52741980  1
  O  O43  1  0.72273916  0.15466113  0.52424210  1
  O  O44  1  0.34875652  0.55456431  0.52913990  1
  O  O45  1  0.85039986  0.54935664  0.52838090  1
  O  O46  1  0.42800378  0.30618784  0.53214366  1
  O  O47  1  0.91346753  0.30398431  0.52280370  1
  O  O48  1  0.27204164  0.69271538  0.97383394  1
  O  O49  1  0.76630655  0.70781782  0.97783978  1
  O  O50  1  0.07778430  0.45394798  0.97154631  1
  O  O51  1  0.58050285  0.46082211  0.96970261  1
  O  O52  1  0.15260907  0.82953297  0.98005601  1
  O  O53  1  0.64707111  0.84464000  0.97271782  1
  O  O54  1  0.26400167  0.82486959  0.47721822  1
  O  O55  1  0.77029575  0.84788412  0.47254293  1
  O  O56  1  0.14870261  0.45338778  0.47195954  1
  O  O57  1  0.65026457  0.47167710  0.47786810  1
  O  O58  1  0.07993329  0.69954661  0.46862695  1
  O  O59  1  0.57851183  0.70277021  0.46833702  1
  O  O60  1  0.05515820  0.63300202  0.35933094  1
  O  O61  1  0.56093472  0.64350073  0.35826697  1
  O  O62  1  0.24732981  0.87608991  0.35870840  1
  O  O63  1  0.75883722  0.88379709  0.36283280  1
  O  O64  1  0.17635862  0.47814811  0.36200230  1
  O  O65  1  0.69127829  0.49100793  0.35740465  1
  O  O66  1  0.06121230  0.48218602  0.86148802  1
  O  O67  1  0.55621552  0.47918047  0.86025995  1
  O  O68  1  0.19067720  0.88103871  0.85920376  1
  O  O69  1  0.67590412  0.87312471  0.86284208  1
  O  O70  1  0.25945367  0.63615924  0.86388852  1
  O  O71  1  0.74542504  0.61702489  0.86019765  1
  O  O72  1  0.01195586  0.82692479  0.41159243  1
  O  O73  1  0.51495541  0.83649789  0.40906722  1
  O  O74  1  0.40892621  0.96448295  0.41105536  1
  O  O75  1  0.90097418  0.97703249  0.41284304  1
  O  O76  1  0.08743742  0.19063481  0.41281908  1
  O  O77  1  0.58374119  0.17871188  0.41296078  1
  O  O78  1  0.01322137  0.19483845  0.91257805  1
  O  O79  1  0.51226263  0.19809911  0.91241923  1
  O  O80  1  0.08332499  0.97926562  0.91620248  1
  O  O81  1  0.58731611  0.98481647  0.91289476  1
  O  O82  1  0.40219257  0.82592825  0.91369287  1
  O  O83  1  0.91228227  0.85822771  0.90692615  1
  O  O84  1  0.48979101  0.16606404  0.59153443  1
  O  O85  1  0.98766278  0.15260572  0.58603934  1
  O  O86  1  0.09083931  0.00755402  0.58975160  1
  O  O87  1  0.58280603  0.00925236  0.59089038  1
  O  O88  1  0.41423642  0.81690844  0.59013041  1
  O  O89  1  0.91572768  0.80911984  0.58924022  1
  O  O90  1  0.49159982  0.82502696  0.08845718  1
  O  O91  1  0.98887620  0.81425077  0.09189145  1
  O  O92  1  0.41833778  0.02418636  0.08986062  1
  O  O93  1  0.91395244  0.01280264  0.09108627  1
  O  O94  1  0.08345589  0.15853943  0.09047788  1
  O  O95  1  0.59102009  0.16900075  0.09146112  1
  O  O96  1  0.35318517  0.16243421  0.73863909  1
  O  O97  1  0.85024285  0.16398037  0.74585564  1
  O  O98  1  0.23923157  0.29882822  0.74908286  1
  O  O99  1  0.73413820  0.30899744  0.74224373  1
  O  O100  1  0.42297703  0.53070290  0.74198418  1
  O  O101  1  0.91751003  0.53536796  0.74472907  1
  O  O102  1  0.35179270  0.54041417  0.24728502  1
  O  O103  1  0.84740305  0.53584413  0.24031587  1
  O  O104  1  0.41840849  0.29580668  0.24605136  1
  O  O105  1  0.91967551  0.31112996  0.24294149  1
  O  O106  1  0.23456095  0.16028078  0.24218925  1
  O  O107  1  0.73123329  0.16233927  0.24399372  1
  O  O108  1  0.32267346  0.50250532  0.92382275  1
  O  O109  1  0.82413634  0.49820788  0.92625468  1
  O  O110  1  0.43060431  0.35926817  0.92577443  1
  O  O111  1  0.93257082  0.35373481  0.92446912  1
  O  O112  1  0.26381916  0.16195734  0.92983053  1
  O  O113  1  0.74622756  0.13434467  0.92467072  1
  O  O114  1  0.32336255  0.15186797  0.42584215  1
  O  O115  1  0.82157025  0.14128771  0.42382606  1
  O  O116  1  0.24654669  0.35902150  0.42406464  1
  O  O117  1  0.76320509  0.36290745  0.43010657  1
  O  O118  1  0.43237630  0.51465023  0.42243245  1
  O  O119  1  0.92989460  0.50228407  0.42479932  1
  O  O120  1  0.17175103  0.51771624  0.07002458  1
  O  O121  1  0.67458859  0.49336518  0.07807870  1
  O  O122  1  0.07213979  0.65408853  0.08079226  1
  O  O123  1  0.58370507  0.65069306  0.06827649  1
  O  O124  1  0.25637224  0.85806997  0.07726084  1
  O  O125  1  0.75163867  0.85529457  0.07960458  1
  O  O126  1  0.17517329  0.85259978  0.57665111  1
  O  O127  1  0.67113742  0.82679322  0.57002293  1
  O  O128  1  0.25180456  0.64803679  0.57925615  1
  O  O129  1  0.75404586  0.65092658  0.57574341  1
  O  O130  1  0.08268997  0.51295440  0.56806589  1
  O  O131  1  0.57298541  0.49266404  0.58006119  1
  O  O132  1  0.14976801  0.83466923  0.25120745  1
  O  O133  1  0.65007244  0.83879403  0.25577451  1
  O  O134  1  0.26947567  0.69906910  0.25551743  1
  O  O135  1  0.76802270  0.70179172  0.25022565  1
  O  O136  1  0.07904555  0.47004207  0.25284744  1
  O  O137  1  0.57849706  0.46213416  0.25353184  1
  O  O138  1  0.14880724  0.47851792  0.75602462  1
  O  O139  1  0.64937522  0.46445078  0.75150534  1
  O  O140  1  0.07774411  0.69995616  0.75323177  1
  O  O141  1  0.58151093  0.69238148  0.75328003  1
  O  O142  1  0.27047168  0.83921550  0.74992814  1
  O  O143  1  0.76575917  0.83958601  0.75376789  1
loop_
_geom_bond_atom_site_label_1
_geom_bond_atom_site_label_2
_geom_bond_distance
_geom_bond_site_symmetry_2
Na0 O132 2.291514 1_655
Na0 O103 2.337271 1_555
Na0 O105 2.417014 1_555
Na0 O136 2.417307 1_655
Na0 O31 2.584922 1_555
Na0 O60 2.602115 1_655
Na0 O3 2.739305 1_555
Na0 O22 2.764008 1_655
Na1 O102 2.280755 1_555
Na1 O133 2.326251 1_555
Na1 O30 2.368882 1_555
Na1 O137 2.414654 1_555
Na1 O104 2.468419 1_555
Na1 O61 2.707686 1_555
Na1 O23 2.758828 1_555
Na1 O2 2.865165 1_555
Na2 O138 2.237959 1_555
Na2 O97 2.323909 1_455
Na2 O25 2.419783 1_455
Na2 O140 2.469605 1_555
Na2 O101 2.499200 1_455
Na2 O14 2.678559 1_555
Na2 O66 2.790107 1_555
Na2 O11 2.894461 1_455
Na3 O96 2.270244 1_555
Na3 O139 2.284604 1_555
Na3 O100 2.376839 1_555
Na3 O141 2.423552 1_555
Na3 O24 2.607393 1_555
Na3 O67 2.627434 1_555
Na3 O10 2.748766 1_555
Na3 O15 2.775003 1_555
Na4 O109 2.304462 1_555
Na4 O79 2.423685 1_555
Na4 O81 2.489267 1_545
Na4 O113 2.496962 1_555
Na4 O71 2.517892 1_555
Na4 O7 2.671395 1_555
Na4 O37 2.739847 1_556
Na4 O51 2.741641 1_555
Na5 O114 2.314613 1_555
Na5 O72 2.406250 1_545
Na5 O76 2.453830 1_555
Na5 O116 2.472932 1_555
Na5 O62 2.618394 1_545
Na5 O42 2.632445 1_555
Na5 O58 2.716113 1_545
Na5 O0 2.723317 1_555
Na6 O85 2.308107 1_555
Na6 O89 2.465675 1_545
Na6 O75 2.493268 1_545
Na6 O76 2.550447 1_655
Na6 O86 2.556469 1_655
Na6 O72 2.612797 1_645
Na7 O87 2.422218 1_555
Na7 O77 2.433721 1_555
Na7 O74 2.485730 1_545
Na7 O84 2.507089 1_555
Na7 O88 2.520105 1_545
Na7 O73 2.575658 1_545
Na8 O80 2.336054 1_555
Na8 O83 2.458235 1_455
Na8 O78 2.464545 1_565
Na8 O94 2.493255 1_566
Na8 O91 2.574165 1_456
Na8 O93 2.612311 1_466
Na9 O90 2.399506 1_556
Na9 O82 2.409347 1_555
Na9 O81 2.503099 1_555
Na9 O92 2.506213 1_566
Na9 O79 2.568148 1_565
Na9 O95 2.629267 1_566
Na10 O98 2.258064 1_555
Na10 O112 2.435564 1_555
Na10 O108 2.542204 1_555
Na10 O96 2.717040 1_555
Na10 O100 2.741597 1_555
Na10 O110 2.748413 1_555
Na11 O109 2.441516 1_555
Na11 O101 2.517157 1_555
Na11 O111 2.568682 1_555
Na11 O113 2.617783 1_555
Na11 O99 2.638283 1_555
Na11 O97 2.642614 1_555
Na12 O114 2.378366 1_555
Na12 O118 2.536492 1_555
Na12 O116 2.541494 1_555
Na12 O104 2.585628 1_555
Na12 O106 2.639573 1_555
Na12 O102 2.675449 1_555
Na13 O117 2.367378 1_555
Na13 O115 2.467839 1_555
Na13 O119 2.554160 1_555
Na13 O107 2.599478 1_555
Na13 O103 2.718229 1_555
Na13 O105 2.736002 1_555
Na14 O120 2.386610 1_555
Na14 O124 2.461196 1_555
Na14 O122 2.518591 1_555
Na14 O134 2.555899 1_555
Na14 O136 2.586028 1_555
Na14 O132 2.625504 1_555
Na15 O125 2.419981 1_555
Na15 O121 2.432271 1_555
Na15 O123 2.519293 1_555
Na15 O135 2.522661 1_555
Na15 O137 2.589999 1_555
Na15 O133 2.648441 1_555
Na16 O138 2.401549 1_555
Na16 O142 2.490505 1_555
Na16 O128 2.505521 1_555
Na16 O140 2.545117 1_555
Na16 O126 2.593270 1_555
Na16 O130 2.605759 1_555
Na17 O127 2.426190 1_555
Na17 O143 2.442437 1_555
Na17 O129 2.503394 1_555
Na17 O141 2.557748 1_555
Na17 O131 2.571610 1_555
Na17 O139 2.611576 1_555
Mg0 O5 1.996744 1_565
Mg0 O3 2.020257 1_555
Mg0 O75 2.031945 1_555
Mg0 O0 2.076100 1_665
Mg0 O76 2.079661 1_665
Mg0 O72 2.083391 1_655
Mg1 O8 1.983019 1_555
Mg1 O10 1.986419 1_565
Mg1 O82 2.043090 1_555
Mg1 O7 2.062340 1_565
Mg1 O81 2.092910 1_555
Mg1 O79 2.114241 1_565
Mg2 O98 1.922582 1_555
Mg2 O28 2.016342 1_555
Mg2 O26 2.017829 1_555
Mg2 O96 2.088645 1_555
Mg2 O100 2.127776 1_555
Mg2 O24 2.181711 1_555
Mg3 O27 1.932311 1_555
Mg3 O25 1.964897 1_555
Mg3 O29 2.069871 1_555
Mg3 O97 2.118591 1_555
Mg3 O99 2.159272 1_555
Mg3 O101 2.214001 1_555
Mg4 O34 1.917962 1_555
Mg4 O30 1.982738 1_555
Mg4 O32 2.043093 1_555
Mg4 O106 2.152500 1_555
Mg4 O102 2.179866 1_555
Mg4 O104 2.299956 1_555
Mg5 O33 1.989636 1_555
Mg5 O35 1.999217 1_555
Mg5 O31 2.048714 1_555
Mg5 O107 2.077632 1_555
Mg5 O103 2.089918 1_555
Mg5 O105 2.104825 1_555
Mg6 O109 1.927107 1_555
Mg6 O111 2.022838 1_555
Mg6 O39 2.033233 1_556
Mg6 O41 2.092073 1_556
Mg6 O113 2.118456 1_555
Mg6 O37 2.147971 1_556
Mg7 O114 1.942911 1_555
Mg7 O46 2.029572 1_555
Mg7 O44 2.070169 1_555
Mg7 O118 2.089227 1_555
Mg7 O42 2.103458 1_555
Mg7 O116 2.131631 1_555
Mg8 O62 1.868971 1_555
Mg8 O64 1.988219 1_555
Mg8 O60 2.081136 1_555
Mg8 O134 2.089549 1_555
Mg8 O136 2.164171 1_555
Mg8 O132 2.168686 1_555
Mg9 O65 1.880237 1_555
Mg9 O63 2.010758 1_555
Mg9 O61 2.071065 1_555
Mg9 O135 2.108487 1_555
Mg9 O137 2.199531 1_555
Mg9 O133 2.220727 1_555
Mg10 O68 1.919893 1_555
Mg10 O138 1.995633 1_555
Mg10 O70 2.067943 1_555
Mg10 O66 2.089359 1_555
Mg10 O142 2.111614 1_555
Mg10 O140 2.176416 1_555
Mg11 O71 1.870140 1_555
Mg11 O69 2.004586 1_555
Mg11 O143 2.033540 1_555
Mg11 O67 2.120613 1_555
Mg11 O141 2.141741 1_555
Mg11 O139 2.148574 1_555
Ge0 O74 1.765395 1_545
Ge0 O77 1.783472 1_555
Ge0 O4 1.947072 1_555
Ge0 O73 1.974231 1_545
Ge0 O1 2.108785 1_555
Ge0 O2 2.136526 1_545
Ge1 O6 1.756283 1_565
Ge1 O80 1.805125 1_555
Ge1 O83 1.828243 1_455
Ge1 O9 1.941423 1_455
Ge1 O78 2.097476 1_565
Ge1 O11 2.263267 1_465
Ge2 O14 1.737283 1_555
Ge2 O85 1.822956 1_455
Ge2 O13 1.936466 1_445
Ge2 O16 2.071400 1_545
Ge2 O86 2.077272 1_555
Ge2 O89 2.153382 1_445
Ge3 O87 1.786713 1_565
Ge3 O17 1.916411 1_555
Ge3 O12 1.930564 1_555
Ge3 O15 1.934007 1_565
Ge3 O88 2.004278 1_555
Ge3 O84 2.004540 1_565
Ge4 O94 1.775606 1_555
Ge4 O20 1.941154 1_555
Ge4 O22 1.944044 1_545
Ge4 O91 1.964092 1_445
Ge4 O93 1.990861 1_455
Ge4 O19 1.993554 1_445
Ge5 O90 1.801380 1_555
Ge5 O18 1.932221 1_555
Ge5 O92 1.947441 1_565
Ge5 O95 1.963561 1_565
Ge5 O23 1.993858 1_555
Ge5 O21 2.040558 1_565
Ge6 O36 1.767096 1_556
Ge6 O112 1.801492 1_555
Ge6 O38 1.827659 1_556
Ge6 O108 1.974243 1_555
Ge6 O40 2.141552 1_556
Ge6 O110 2.214107 1_555
Ge7 O43 1.760663 1_555
Ge7 O47 1.796183 1_555
Ge7 O117 1.823409 1_555
Ge7 O45 2.042604 1_555
Ge7 O115 2.054237 1_555
Ge7 O119 2.248507 1_555
Ge8 O52 1.750529 1_554
Ge8 O120 1.792161 1_555
Ge8 O50 1.889797 1_554
Ge8 O48 1.941393 1_554
Ge8 O122 2.167725 1_555
Ge8 O124 2.186138 1_555
Ge9 O49 1.765351 1_554
Ge9 O123 1.815436 1_555
Ge9 O53 1.909858 1_554
Ge9 O51 1.984273 1_554
Ge9 O125 2.078528 1_555
Ge9 O121 2.153265 1_555
Ge10 O54 1.773753 1_555
Ge10 O130 1.789001 1_555
Ge10 O56 1.963736 1_555
Ge10 O128 2.018349 1_555
Ge10 O126 2.031968 1_555
Ge10 O58 2.047670 1_555
Ge11 O57 1.776050 1_555
Ge11 O127 1.785055 1_555
Ge11 O55 1.969808 1_555
Ge11 O129 2.027032 1_555
Ge11 O59 2.043794 1_555
Ge11 O131 2.073115 1_555
O0 S0 1.473775 1_555
O1 S1 1.484313 1_555
O2 S2 1.496276 1_555
O3 S3 1.467607 1_555
O4 S5 1.504441 1_555
O5 S4 1.452554 1_555
O6 Si0 1.661699 1_555
O7 S6 1.475947 1_555
O8 S8 1.454949 1_555
O9 S7 1.502188 1_555
O10 S9 1.470370 1_545
O11 S10 1.465369 1_545
O12 S9 1.542518 1_555
O13 S10 1.533666 1_555
O14 Si0 1.693345 1_555
O15 S6 1.543225 1_555
O16 S7 1.500272 1_455
O17 S8 1.519592 1_555
O18 S2 1.530175 1_555
O19 S3 1.524310 1_555
O20 S4 1.512895 1_455
O21 S5 1.506871 1_555
O22 S0 1.544328 1_565
O23 S1 1.527068 1_565
O24 S11 1.465295 1_555
O25 Si1 1.585289 1_555
O26 S12 1.455247 1_555
O27 Si2 1.566438 1_555
O28 S13 1.452555 1_555
O29 S14 1.449539 1_555
O30 Si3 1.596578 1_555
O31 S15 1.477597 1_555
O32 S16 1.452752 1_555
O33 S17 1.465176 1_555
O34 Si4 1.576155 1_555
O35 S18 1.461300 1_555
O36 Si4 1.631676 1_555
O37 S18 1.462376 1_555
O38 Si3 1.651009 1_555
O39 S15 1.451239 1_555
O40 S16 1.473979 1_555
O41 S17 1.454995 1_555
O42 S12 1.473112 1_555
O43 Si2 1.637952 1_555
O44 S13 1.460539 1_555
O45 S14 1.492565 1_555
O46 S11 1.456148 1_555
O47 Si1 1.666397 1_555
O48 S19 1.509453 1_555
O49 Si5 1.734555 1_555
O50 S20 1.532605 1_555
O51 S21 1.521210 1_555
O52 Si6 1.688986 1_555
O53 S22 1.515868 1_555
O54 Si7 1.685419 1_555
O55 S23 1.498859 1_555
O56 S24 1.497764 1_555
O57 Si8 1.671199 1_555
O58 S25 1.501972 1_555
O59 S26 1.493060 1_555
O60 S25 1.481317 1_555
O61 S26 1.471920 1_555
O62 Si7 1.587841 1_555
O63 S23 1.461175 1_555
O64 S24 1.456974 1_555
O65 Si8 1.576745 1_555
O66 S20 1.454432 1_555
O67 S21 1.471153 1_555
O68 Si6 1.568335 1_555
O69 S22 1.448476 1_555
O70 S19 1.442149 1_555
O71 Si5 1.587963 1_555
O72 S25 1.494887 1_555
O73 S26 1.511380 1_555
O74 Si7 1.674832 1_555
O75 S23 1.472897 1_555
O76 S24 1.494407 1_555
O77 Si8 1.682529 1_555
O78 S20 1.477379 1_555
O79 S21 1.492006 1_555
O80 Si6 1.656710 1_555
O81 S22 1.490981 1_555
O82 S19 1.473044 1_555
O83 Si5 1.662012 1_555
O84 S11 1.520351 1_555
O85 Si1 1.686072 1_555
O86 S12 1.509185 1_555
O87 Si2 1.681258 1_555
O88 S13 1.518392 1_555
O89 S14 1.497735 1_555
O90 Si3 1.708812 1_555
O91 S15 1.526550 1_555
O92 S16 1.548284 1_555
O93 S17 1.517758 1_555
O94 Si4 1.685450 1_555
O95 S18 1.533080 1_555
O96 S9 1.473003 1_545
O97 S10 1.482285 1_545
O98 Si0 1.591049 1_555
O99 S6 1.448920 1_555
O100 S8 1.469757 1_555
O101 S7 1.479970 1_555
O102 S2 1.475731 1_555
O103 S3 1.488126 1_555
O104 S5 1.468918 1_555
O105 S4 1.487462 1_555
O106 S0 1.453371 1_555
O107 S1 1.463762 1_555
O108 S19 1.509235 1_555
O109 Si5 1.611487 1_555
O110 S21 1.462575 1_555
O111 S20 1.462937 1_655
O112 Si6 1.675880 1_545
O113 S22 1.470493 1_545
O114 Si7 1.605864 1_545
O115 S23 1.496429 1_545
O116 S24 1.475735 1_555
O117 Si8 1.657418 1_555
O118 S26 1.460438 1_555
O119 S25 1.464193 1_655
O120 Si4 1.672165 1_555
O121 S18 1.487060 1_555
O122 S15 1.484284 1_455
O123 Si3 1.675039 1_555
O124 S16 1.480698 1_565
O125 S17 1.501872 1_565
O126 S12 1.507875 1_565
O127 Si2 1.679454 1_565
O128 S13 1.508857 1_555
O129 S14 1.513444 1_555
O130 Si1 1.677659 1_455
O131 S11 1.503471 1_555
O132 S0 1.485063 1_565
O133 S1 1.481489 1_565
O134 S2 1.455608 1_555
O135 S3 1.463765 1_555
O136 S4 1.483427 1_455
O137 S5 1.480691 1_555
O138 Si0 1.613698 1_555
O139 S6 1.484033 1_555
O140 S7 1.471612 1_455
O141 S8 1.484364 1_555
O142 S9 1.448646 1_555
O143 S10 1.467985 1_555
