# generated using pymatgen
data_Na7CaY3Si3(SO8)3
_symmetry_space_group_name_H-M   'P 1'
_cell_length_a   9.46720537
_cell_length_b   9.45998955
_cell_length_c   23.55562358
_cell_angle_alpha   89.92413602
_cell_angle_beta   89.86675679
_cell_angle_gamma   119.74817827
_symmetry_Int_Tables_number   1
_chemical_formula_structural   Na7CaY3Si3(SO8)3
_chemical_formula_sum   'Na21 Ca3 Y9 Si9 S9 O72'
_cell_volume   1831.60237498
_cell_formula_units_Z   3
loop_
 _symmetry_equiv_pos_site_id
 _symmetry_equiv_pos_as_xyz
  1  'x, y, z'
loop_
 _atom_site_type_symbol
 _atom_site_label
 _atom_site_symmetry_multiplicity
 _atom_site_fract_x
 _atom_site_fract_y
 _atom_site_fract_z
 _atom_site_occupancy
  Na  Na0  1  0.63924461  0.98774736  0.23902208  1
  Na  Na1  1  0.39553983  0.38417223  0.23598646  1
  Na  Na2  1  0.97048944  0.63450945  0.25662023  1
  Na  Na3  1  0.61840575  0.62333239  0.73633767  1
  Na  Na4  1  0.99338319  0.33532405  0.74954000  1
  Na  Na5  1  0.39367288  0.02919862  0.75805489  1
  Na  Na6  1  0.00818110  0.69595103  0.57316407  1
  Na  Na7  1  0.66962656  0.95222667  0.58425133  1
  Na  Na8  1  0.32888713  0.99504806  0.07797554  1
  Na  Na9  1  0.64661738  0.69011646  0.09352908  1
  Na  Na10  1  0.68122687  0.03254447  0.91600957  1
  Na  Na11  1  0.33665246  0.28326957  0.91928689  1
  Na  Na12  1  0.95156094  0.29612039  0.41100798  1
  Na  Na13  1  0.32836651  0.00546903  0.41567102  1
  Na  Na14  1  0.73106200  0.69712669  0.41448409  1
  Na  Na15  1  0.97519609  0.97074443  0.49379945  1
  Na  Na16  1  0.01983341  0.01644003  0.00668281  1
  Na  Na17  1  0.64340561  0.30639640  0.82757047  1
  Na  Na18  1  0.68343277  0.35506851  0.33225209  1
  Na  Na19  1  0.35839457  0.65869294  0.15862330  1
  Na  Na20  1  0.36578189  0.64584161  0.66817113  1
  Ca  Ca0  1  0.98846575  0.98654502  0.34985881  1
  Ca  Ca1  1  0.65415965  0.33503442  0.68221329  1
  Ca  Ca2  1  0.66066031  0.32986707  0.17600062  1
  Y  Y0  1  0.00839056  0.00110170  0.84926327  1
  Y  Y1  1  0.99785569  0.00618083  0.65269780  1
  Y  Y2  1  0.98593462  0.00537947  0.14705158  1
  Y  Y3  1  0.65892235  0.32012809  0.98744501  1
  Y  Y4  1  0.67174401  0.34721002  0.48425133  1
  Y  Y5  1  0.32836689  0.66956260  0.01727789  1
  Y  Y6  1  0.34589552  0.66854283  0.51529753  1
  Y  Y7  1  0.34511474  0.68004062  0.32001862  1
  Y  Y8  1  0.34069951  0.67765642  0.81655182  1
  Si  Si0  1  0.69363650  0.69028333  0.25135752  1
  Si  Si1  1  0.29928245  0.30336775  0.75254740  1
  Si  Si2  1  0.69990532  0.00049229  0.75192149  1
  Si  Si3  1  0.67178693  0.64608460  0.58537227  1
  Si  Si4  1  0.66326701  0.02235163  0.08362359  1
  Si  Si5  1  0.35980027  0.33223276  0.08368794  1
  Si  Si6  1  0.33251751  0.97252992  0.91720127  1
  Si  Si7  1  0.63794655  0.97835951  0.41794955  1
  Si  Si8  1  0.03671627  0.66516024  0.41855933  1
  S  S0  1  0.29726460  -0.00095794  0.25067446  1
  S  S1  1  0.00476004  0.30413851  0.25278003  1
  S  S2  1  0.00260744  0.70205996  0.74880016  1
  S  S3  1  0.96511632  0.33454196  0.58386813  1
  S  S4  1  0.36361207  0.02786229  0.58272513  1
  S  S5  1  0.96691296  0.63504547  0.08486940  1
  S  S6  1  0.63078516  0.66579535  0.91691276  1
  S  S7  1  0.03349565  0.36761766  0.91459902  1
  S  S8  1  0.33291556  0.36730825  0.41559851  1
  O  O0  1  0.22178550  0.02059060  0.30264206  1
  O  O1  1  0.79721192  0.77423729  0.30876182  1
  O  O2  1  0.98958738  0.21225520  0.30541969  1
  O  O3  1  0.21374033  0.19367335  0.80971861  1
  O  O4  1  0.97935745  0.78528199  0.79816491  1
  O  O5  1  0.80724375  0.01240348  0.80827775  1
  O  O6  1  0.78496795  0.97350040  0.69470372  1
  O  O7  1  0.18123837  0.20605389  0.69883607  1
  O  O8  1  0.02800871  0.80112000  0.69669199  1
  O  O9  1  0.78662391  0.80767325  0.19571013  1
  O  O10  1  0.02509148  0.21809243  0.20338027  1
  O  O11  1  0.19791908  0.98432206  0.20014956  1
  O  O12  1  0.88685681  0.35315036  0.63517284  1
  O  O13  1  0.46302823  0.10530052  0.63331615  1
  O  O14  1  0.66189113  0.55081471  0.64356466  1
  O  O15  1  0.89704506  0.54367295  0.13807636  1
  O  O16  1  0.64402694  0.10251994  0.14216273  1
  O  O17  1  0.46756985  0.36832063  0.14143566  1
  O  O18  1  0.45406710  0.31109367  0.02749783  1
  O  O19  1  0.86176622  0.54948236  0.03582882  1
  O  O20  1  0.68339683  0.13393617  0.02733641  1
  O  O21  1  0.44427592  0.12549573  0.53096874  1
  O  O22  1  0.68751992  0.55128415  0.52880099  1
  O  O23  1  0.86191960  0.31374108  0.53294513  1
  O  O24  1  0.54636930  0.68395067  0.96714411  1
  O  O25  1  0.13865097  0.45235539  0.96346704  1
  O  O26  1  0.32256106  0.86674007  0.97312340  1
  O  O27  1  0.54665025  0.85797169  0.47232327  1
  O  O28  1  0.31032364  0.44863109  0.46546871  1
  O  O29  1  0.14083811  0.67266288  0.47520022  1
  O  O30  1  0.12133031  0.63734158  0.36148193  1
  O  O31  1  0.52655409  0.88997845  0.36124704  1
  O  O32  1  0.35897909  0.46801298  0.36390740  1
  O  O33  1  0.11129418  0.45816801  0.86154364  1
  O  O34  1  0.35150093  0.88308749  0.85991826  1
  O  O35  1  0.52883004  0.64150401  0.86553875  1
  O  O36  1  0.03015335  0.83554539  0.41746713  1
  O  O37  1  0.82366552  0.00808363  0.41607966  1
  O  O38  1  0.18832823  0.20470229  0.41029867  1
  O  O39  1  0.01495437  0.20042567  0.91296046  1
  O  O40  1  0.17596282  0.00368550  0.91630790  1
  O  O41  1  0.78976699  0.81807468  0.91188382  1
  O  O42  1  0.97914595  0.18474474  0.58653368  1
  O  O43  1  0.19683367  0.00507633  0.58719230  1
  O  O44  1  0.84290444  0.82834392  0.58308493  1
  O  O45  1  0.98240871  0.80007735  0.08818785  1
  O  O46  1  0.81573227  0.98399060  0.08303918  1
  O  O47  1  0.18976047  0.15464889  0.08806229  1
  O  O48  1  0.68874184  0.16797078  0.74894937  1
  O  O49  1  0.48270163  0.32704027  0.75012825  1
  O  O50  1  0.85918313  0.53787822  0.74453037  1
  O  O51  1  0.67753388  0.50805174  0.24853296  1
  O  O52  1  0.85598035  0.31884941  0.24696899  1
  O  O53  1  0.46530227  0.13943399  0.24630070  1
  O  O54  1  0.65000290  0.52052764  0.92202636  1
  O  O55  1  0.86927149  0.34962850  0.91997423  1
  O  O56  1  0.50426393  0.15509575  0.91783410  1
  O  O57  1  0.64080115  0.15364678  0.42322708  1
  O  O58  1  0.48064190  0.35064761  0.42222229  1
  O  O59  1  0.84986359  0.50458613  0.42064141  1
  O  O60  1  0.34282370  0.49530286  0.07515109  1
  O  O61  1  0.13332862  0.65905895  0.07789643  1
  O  O62  1  0.49378335  0.84261872  0.07914644  1
  O  O63  1  0.34645741  0.86170963  0.57816001  1
  O  O64  1  0.51341914  0.67543645  0.58236072  1
  O  O65  1  0.12711545  0.48299219  0.57760199  1
  O  O66  1  0.30513684  0.84380982  0.25416724  1
  O  O67  1  0.50799607  0.67252711  0.25187325  1
  O  O68  1  0.15210090  0.47000253  0.25441821  1
  O  O69  1  0.30867750  0.48299375  0.75474084  1
  O  O70  1  0.15087496  0.68703102  0.75595749  1
  O  O71  1  0.51549357  0.83714465  0.75381698  1
loop_
_geom_bond_atom_site_label_1
_geom_bond_atom_site_label_2
_geom_bond_distance
_geom_bond_site_symmetry_2
Na0 O16 2.516087 1_565
Na0 O67 2.616604 1_555
Na0 O53 2.672939 1_565
Na0 O52 2.771543 1_565
Na0 O66 2.775907 1_555
Na0 O9 2.871634 1_555
Na1 O51 2.342602 1_555
Na1 O17 2.354408 1_555
Na1 O67 2.416011 1_555
Na1 O53 2.715176 1_555
Na1 O68 2.830666 1_555
Na2 O51 2.422811 1_555
Na2 O52 2.633316 1_555
Na2 O66 2.781138 1_655
Na2 O68 2.834757 1_655
Na2 O1 2.844933 1_555
Na2 O30 2.849551 1_655
Na2 O15 2.905457 1_555
Na3 O14 2.386589 1_555
Na3 O49 2.456525 1_555
Na3 O69 2.584175 1_555
Na3 O71 2.676922 1_555
Na3 O50 2.777973 1_555
Na4 O48 2.508722 1_555
Na4 O69 2.596255 1_655
Na4 O50 2.777731 1_555
Na4 O7 2.870050 1_655
Na4 O33 2.879541 1_655
Na4 O70 2.897454 1_655
Na4 O12 2.912613 1_555
Na4 O5 2.997826 1_555
Na5 O48 2.435183 1_555
Na5 O49 2.514992 1_555
Na5 O71 2.592346 1_545
Na5 O34 2.695628 1_545
Na6 O44 2.452621 1_455
Na6 O43 2.583202 1_565
Na6 O29 2.685750 1_555
Na6 O65 2.754704 1_555
Na6 O63 2.783456 1_555
Na6 O22 2.841908 1_455
Na7 O64 2.281015 1_555
Na7 O44 2.443971 1_555
Na7 O42 2.651875 1_565
Na7 O63 2.741701 1_555
Na7 O6 2.792603 1_555
Na7 O27 2.844668 1_555
Na8 O47 2.458427 1_565
Na8 O62 2.598296 1_555
Na8 O26 2.741088 1_554
Na8 O61 2.773183 1_555
Na8 O45 2.865412 1_455
Na8 O18 2.867915 1_565
Na9 O46 2.435641 1_555
Na9 O62 2.522324 1_555
Na9 O60 2.569731 1_555
Na9 O9 2.710366 1_555
Na9 O45 2.814265 1_555
Na9 O17 2.876630 1_555
Na10 O56 2.465757 1_555
Na10 O55 2.622565 1_555
Na10 O41 2.692712 1_545
Na10 O39 2.743864 1_655
Na10 O20 2.790093 1_556
Na10 O5 2.848204 1_555
Na11 O40 2.307075 1_555
Na11 O56 2.428702 1_555
Na11 O54 2.689966 1_555
Na11 O18 2.743499 1_556
Na11 O39 2.746953 1_555
Na11 O3 2.788322 1_555
Na12 O37 2.372629 1_555
Na12 O57 2.571950 1_555
Na12 O59 2.598455 1_555
Na12 O2 2.688807 1_555
Na12 O38 2.774204 1_655
Na13 O36 2.460089 1_545
Na13 O57 2.575685 1_555
Na13 O38 2.793884 1_555
Na13 O58 2.845282 1_555
Na13 O0 2.877856 1_555
Na13 O31 2.895581 1_545
Na13 O21 2.941958 1_555
Na14 O36 2.461498 1_655
Na14 O59 2.576177 1_555
Na14 O1 2.580846 1_555
Na14 O37 2.620015 1_565
Na14 O58 2.946527 1_555
Na14 O22 2.957232 1_555
Na15 O36 2.408653 1_655
Na15 O37 2.459215 1_565
Na15 O44 2.472362 1_555
Na15 O38 2.894271 1_665
Na15 O43 2.948737 1_665
Na15 O42 2.967892 1_565
Na16 O47 2.430186 1_555
Na16 O46 2.540999 1_445
Na16 O40 2.625708 1_554
Na16 O45 2.695861 1_445
Na16 O39 2.824084 1_554
Na17 O48 2.426788 1_555
Na17 O49 2.446911 1_555
Na17 O56 2.532294 1_555
Na17 O50 2.885365 1_555
Na17 O55 2.938287 1_555
Na17 O54 2.990783 1_555
Na18 O51 2.461652 1_555
Na18 O59 2.574812 1_555
Na18 O52 2.713582 1_555
Na18 O57 2.758249 1_555
Na18 O58 2.842575 1_555
Na18 O53 2.893935 1_555
Na19 O62 2.437657 1_555
Na19 O60 2.461748 1_555
Na19 O67 2.584420 1_555
Na19 O61 2.860457 1_555
Na19 O68 2.932855 1_555
Na19 O66 3.044259 1_555
Na20 O64 2.390552 1_555
Na20 O69 2.446209 1_555
Na20 O71 2.613726 1_555
Na20 O65 2.933749 1_555
Ca0 O1 2.157274 1_555
Ca0 O37 2.283404 1_565
Ca0 O36 2.299748 1_655
Ca0 O0 2.345543 1_665
Ca0 O2 2.372037 1_565
Ca0 O38 2.451811 1_665
Ca1 O14 2.201701 1_555
Ca1 O49 2.250703 1_555
Ca1 O13 2.331910 1_555
Ca1 O48 2.363351 1_555
Ca1 O12 2.392454 1_555
Ca1 O50 2.434945 1_555
Ca2 O17 2.191571 1_555
Ca2 O16 2.225909 1_555
Ca2 O15 2.321895 1_555
Ca2 O51 2.351096 1_555
Ca2 O53 2.465689 1_555
Ca2 O52 2.535732 1_555
O0 S0 1.480477 1_555
O1 Si0 1.629994 1_555
O2 S1 1.478540 1_655
O3 Si1 1.644246 1_555
O3 Y0 2.106736 1_555
O4 S2 1.481083 1_655
O4 Y0 2.268000 1_665
O5 Si2 1.643369 1_555
O5 Y0 2.186362 1_655
O6 Si2 1.652334 1_565
O6 Y1 2.123266 1_565
O7 Si1 1.638852 1_555
O7 Y1 2.127671 1_455
O8 S2 1.488138 1_555
O8 Y1 2.337549 1_465
O9 Si0 1.657421 1_555
O9 Y2 2.203241 1_565
O10 S1 1.486826 1_555
O10 Y2 2.283913 1_455
O11 S0 1.481924 1_565
O11 Y2 2.457533 1_465
O12 S3 1.471821 1_555
O13 S4 1.471717 1_555
O14 Si3 1.616277 1_555
O15 S5 1.476950 1_555
O16 Si4 1.627410 1_555
O17 Si5 1.633986 1_555
O18 Si5 1.661523 1_555
O18 Y3 2.117906 1_554
O19 S5 1.479444 1_555
O19 Y3 2.361394 1_554
O20 Si4 1.644393 1_555
O20 Y3 2.107305 1_554
O21 S4 1.488392 1_555
O21 Y4 2.397540 1_555
O22 Si3 1.654389 1_555
O22 Y4 2.137867 1_555
O23 S3 1.499123 1_555
O23 Y4 2.287309 1_555
O24 S6 1.483434 1_555
O24 Y5 2.319949 1_556
O25 S7 1.474639 1_555
O25 Y5 2.325890 1_556
O26 Si6 1.627260 1_555
O26 Y5 2.158936 1_556
O27 Si7 1.642766 1_555
O27 Y6 2.110584 1_555
O28 S8 1.477186 1_555
O28 Y6 2.265404 1_555
O29 Si8 1.641275 1_555
O29 Y6 2.178503 1_555
O30 Si8 1.650377 1_555
O30 Y7 2.178461 1_555
O31 Si7 1.652173 1_555
O31 Y7 2.113153 1_555
O32 S8 1.487716 1_555
O32 Y7 2.316373 1_555
O33 S7 1.484894 1_555
O33 Y8 2.379000 1_555
O34 Si6 1.649769 1_555
O34 Y8 2.153882 1_555
O35 S6 1.494986 1_555
O35 Y8 2.287729 1_555
O36 Si8 1.643727 1_555
O37 Si7 1.637495 1_545
O38 S8 1.472160 1_555
O39 S7 1.502847 1_555
O39 Y0 2.387946 1_555
O40 Si6 1.648534 1_545
O40 Y0 2.232663 1_555
O41 S6 1.483797 1_555
O41 Y0 2.424928 1_665
O42 S3 1.488720 1_555
O42 Y1 2.367508 1_555
O43 S4 1.487265 1_555
O43 Y1 2.436320 1_455
O44 Si3 1.681534 1_555
O44 Y1 2.289206 1_565
O45 S5 1.496018 1_555
O45 Y2 2.374590 1_565
O46 Si4 1.653808 1_565
O46 Y2 2.144653 1_565
O47 Si5 1.655081 1_555
O47 Y2 2.219601 1_455
O48 Si2 1.640771 1_555
O49 Si1 1.637778 1_555
O50 S2 1.474555 1_655
O51 Si0 1.655016 1_555
O52 S1 1.489102 1_655
O53 S0 1.485746 1_555
O54 S6 1.477804 1_555
O54 Y3 2.475368 1_555
O55 S7 1.482795 1_655
O55 Y3 2.449927 1_555
O56 Si6 1.685282 1_545
O56 Y3 2.240397 1_555
O57 Si7 1.649834 1_545
O57 Y4 2.231967 1_555
O58 S8 1.491589 1_555
O58 Y4 2.340884 1_555
O59 Si8 1.664896 1_655
O59 Y4 2.190005 1_555
O60 Si5 1.640544 1_555
O60 Y5 2.193971 1_555
O61 S5 1.484682 1_455
O61 Y5 2.294237 1_555
O62 Si4 1.664479 1_565
O62 Y5 2.174665 1_555
O63 S4 1.501901 1_565
O63 Y6 2.351484 1_555
O64 Si3 1.656385 1_555
O64 Y6 2.219093 1_555
O65 S3 1.485643 1_455
O65 Y6 2.428194 1_555
O66 S0 1.509013 1_565
O66 Y7 2.351133 1_555
O67 Si0 1.680502 1_555
O67 Y7 2.248813 1_555
O68 S1 1.495869 1_555
O68 Y7 2.468405 1_555
O69 Si1 1.657809 1_555
O69 Y8 2.249026 1_555
O70 S2 1.489307 1_555
O70 Y8 2.333347 1_555
O71 Si2 1.661348 1_565
O71 Y8 2.168770 1_555
