# generated using pymatgen
data_Th(Fe2P)2
_symmetry_space_group_name_H-M   'P 1'
_cell_length_a   3.71712300
_cell_length_b   10.73029900
_cell_length_c   14.25628000
_cell_angle_alpha   90.00000000
_cell_angle_beta   90.00000000
_cell_angle_gamma   90.00000000
_symmetry_Int_Tables_number   1
_chemical_formula_structural   Th(Fe2P)2
_chemical_formula_sum   'Th6 Fe24 P12'
_cell_volume   568.62372032
_cell_formula_units_Z   6
loop_
 _symmetry_equiv_pos_site_id
 _symmetry_equiv_pos_as_xyz
  1  'x, y, z'
loop_
 _atom_site_type_symbol
 _atom_site_label
 _atom_site_symmetry_multiplicity
 _atom_site_fract_x
 _atom_site_fract_y
 _atom_site_fract_z
 _atom_site_occupancy
  Th  Th0  1  0.50000000  0.37678900  0.22589100  1
  Th  Th1  1  0.50000000  0.62321100  0.77410900  1
  Th  Th2  1  0.00000000  0.87678900  0.27410900  1
  Th  Th3  1  0.00000000  0.12321100  0.72589100  1
  Th  Th4  1  0.50000000  0.50000000  0.50000000  1
  Th  Th5  1  0.00000000  0.00000000  0.00000000  1
  Fe  Fe0  1  0.00000000  0.07773900  0.44509800  1
  Fe  Fe1  1  0.50000000  0.57773900  0.05490200  1
  Fe  Fe2  1  0.00000000  0.59331600  0.94676200  1
  Fe  Fe3  1  0.00000000  0.40668400  0.05323800  1
  Fe  Fe4  1  0.50000000  0.09331600  0.55323800  1
  Fe  Fe5  1  0.50000000  0.42226100  0.94509800  1
  Fe  Fe6  1  0.00000000  0.26130200  0.53667300  1
  Fe  Fe7  1  0.00000000  0.73869800  0.46332700  1
  Fe  Fe8  1  0.50000000  0.76130200  0.96332700  1
  Fe  Fe9  1  0.50000000  0.23869800  0.03667300  1
  Fe  Fe10  1  0.00000000  0.43083700  0.67397800  1
  Fe  Fe11  1  0.00000000  0.56916300  0.32602200  1
  Fe  Fe12  1  0.50000000  0.93083700  0.82602200  1
  Fe  Fe13  1  0.50000000  0.06916300  0.17397800  1
  Fe  Fe14  1  0.00000000  0.82268300  0.71088800  1
  Fe  Fe15  1  0.00000000  0.17731700  0.28911200  1
  Fe  Fe16  1  0.50000000  0.32268300  0.78911200  1
  Fe  Fe17  1  0.50000000  0.67731700  0.21088800  1
  Fe  Fe18  1  0.50000000  0.23546100  0.42104700  1
  Fe  Fe19  1  0.50000000  0.76453900  0.57895300  1
  Fe  Fe20  1  0.00000000  0.73546100  0.07895300  1
  Fe  Fe21  1  0.00000000  0.26453900  0.92104700  1
  Fe  Fe22  1  0.50000000  0.90668400  0.44676200  1
  Fe  Fe23  1  0.00000000  0.92226100  0.55490200  1
  P  P0  1  0.50000000  0.84984000  0.11427100  1
  P  P1  1  0.50000000  0.15016000  0.88572900  1
  P  P2  1  0.00000000  0.34984000  0.38572900  1
  P  P3  1  0.00000000  0.65016000  0.61427100  1
  P  P4  1  0.50000000  0.70414600  0.36808300  1
  P  P5  1  0.50000000  0.29585400  0.63191700  1
  P  P6  1  0.50000000  0.07006400  0.33504000  1
  P  P7  1  0.50000000  0.92993600  0.66496000  1
  P  P8  1  0.00000000  0.57006400  0.16496000  1
  P  P9  1  0.00000000  0.42993600  0.83504000  1
  P  P10  1  0.00000000  0.20414600  0.13191700  1
  P  P11  1  0.00000000  0.79585400  0.86808300  1
loop_
_geom_bond_atom_site_label_1
_geom_bond_atom_site_label_2
_geom_bond_distance
_geom_bond_site_symmetry_2
Fe0 P6 2.433691 1_555
Fe0 P6 2.433691 1_455
Fe0 Th2 3.254482 1_545
Fe1 P8 2.433691 1_555
Fe1 P8 2.433691 1_655
Fe1 Th0 3.254482 1_555
Fe2 P9 2.368594 1_555
Fe2 P11 2.445679 1_555
Fe2 Th1 3.100902 1_555
Fe2 Th1 3.100902 1_455
Fe3 P8 2.368594 1_555
Fe3 P10 2.445679 1_555
Fe3 Th0 3.100902 1_455
Fe3 Th0 3.100902 1_555
Fe4 P7 2.368594 1_545
Fe4 P5 2.445679 1_555
Fe4 Th3 3.100902 1_555
Fe4 Th3 3.100902 1_655
Fe5 P9 2.433691 1_555
Fe5 P9 2.433691 1_655
Fe5 Th1 3.254482 1_555
Fe6 P5 2.331394 1_555
Fe6 P5 2.331394 1_455
Fe6 P2 2.352286 1_555
Fe6 Th3 3.077719 1_555
Fe6 Th4 3.207469 1_555
Fe6 Th4 3.207469 1_455
Fe7 P4 2.331394 1_555
Fe7 P4 2.331394 1_455
Fe7 P3 2.352286 1_555
Fe7 Th2 3.077719 1_555
Fe7 Th4 3.207469 1_555
Fe7 Th4 3.207469 1_455
Fe8 P11 2.331394 1_655
Fe8 P11 2.331394 1_555
Fe8 P0 2.352286 1_556
Fe8 Th1 3.077719 1_555
Fe8 Th5 3.207469 1_566
Fe8 Th5 3.207469 1_666
Fe9 P10 2.331394 1_655
Fe9 P10 2.331394 1_555
Fe9 P1 2.352286 1_554
Fe9 Th0 3.077719 1_555
Fe9 Th5 3.207469 1_555
Fe9 Th5 3.207469 1_655
Fe10 P9 2.296165 1_555
Fe10 P5 2.431398 1_455
Fe10 P5 2.431398 1_555
Fe10 P3 2.502606 1_555
Fe10 Th1 3.122986 1_555
Fe10 Th1 3.122986 1_455
Fe10 Th4 3.186974 1_455
Fe10 Th4 3.186974 1_555
Fe10 Th3 3.382868 1_555
Fe11 P8 2.296165 1_555
Fe11 P4 2.431398 1_555
Fe11 P4 2.431398 1_455
Fe11 P2 2.502606 1_555
Fe11 Th0 3.122986 1_455
Fe11 Th0 3.122986 1_555
Fe11 Th4 3.186974 1_455
Fe11 Th4 3.186974 1_555
Fe11 Th2 3.382868 1_555
Fe12 P7 2.296165 1_555
Fe12 P11 2.431398 1_555
Fe12 P11 2.431398 1_655
Fe12 P1 2.502606 1_565
Fe12 Th3 3.122986 1_565
Fe12 Th3 3.122986 1_665
Fe12 Th5 3.186974 1_566
Fe12 Th5 3.186974 1_666
Fe12 Th1 3.382868 1_555
Fe13 P6 2.296165 1_555
Fe13 P10 2.431398 1_655
Fe13 P10 2.431398 1_555
Fe13 P0 2.502606 1_545
Fe13 Th2 3.122986 1_545
Fe13 Th2 3.122986 1_645
Fe13 Th5 3.186974 1_555
Fe13 Th5 3.186974 1_655
Fe13 Th0 3.382868 1_555
Fe14 P11 2.259431 1_555
Fe14 P7 2.281981 1_455
Fe14 P7 2.281981 1_555
Fe14 P3 2.307435 1_555
Fe14 Th1 2.974537 1_455
Fe14 Th1 2.974537 1_555
Fe14 Th3 3.231841 1_565
Fe15 P10 2.259431 1_555
Fe15 P6 2.281981 1_555
Fe15 P6 2.281981 1_455
Fe15 P2 2.307435 1_555
Fe15 Th0 2.974537 1_555
Fe15 Th0 2.974537 1_455
Fe15 Th2 3.231841 1_545
Fe16 P5 2.259431 1_555
Fe16 P9 2.281981 1_555
Fe16 P9 2.281981 1_655
Fe16 P1 2.307435 1_555
Fe16 Th3 2.974537 1_655
Fe16 Th3 2.974537 1_555
Fe16 Th1 3.231841 1_555
Fe17 P4 2.259431 1_555
Fe17 P8 2.281981 1_555
Fe17 P8 2.281981 1_655
Fe17 P0 2.307435 1_555
Fe17 Th2 2.974537 1_655
Fe17 Th2 2.974537 1_555
Fe17 Th0 3.231841 1_555
Fe18 P6 2.157125 1_555
Fe18 P2 2.283437 1_655
Fe18 P2 2.283437 1_555
Fe18 Th4 3.053600 1_555
Fe18 Th0 3.168655 1_555
Fe19 P7 2.157125 1_555
Fe19 P3 2.283437 1_655
Fe19 P3 2.283437 1_555
Fe19 Th4 3.053600 1_555
Fe19 Th1 3.168655 1_555
Fe20 P8 2.157125 1_555
Fe20 P0 2.283437 1_555
Fe20 P0 2.283437 1_455
Fe20 Th5 3.053600 1_565
Fe20 Th2 3.168655 1_555
Fe21 P9 2.157125 1_555
Fe21 P1 2.283437 1_455
Fe21 P1 2.283437 1_555
Fe21 Th5 3.053600 1_556
Fe21 Th3 3.168655 1_555
Fe22 P6 2.368594 1_565
Fe22 P4 2.445679 1_555
Fe22 Th2 3.100902 1_655
Fe22 Th2 3.100902 1_555
Fe23 P7 2.433691 1_555
Fe23 P7 2.433691 1_455
Fe23 Th3 3.254482 1_565
P0 Th5 2.950308 1_665
P0 Th5 2.950308 1_565
P0 Th2 2.954712 1_655
P0 Th2 2.954712 1_555
P1 Th5 2.950308 1_556
P1 Th5 2.950308 1_656
P1 Th3 2.954712 1_655
P1 Th3 2.954712 1_555
P2 Th4 2.950308 1_455
P2 Th4 2.950308 1_555
P2 Th0 2.954712 1_555
P2 Th0 2.954712 1_455
P3 Th4 2.950308 1_455
P3 Th4 2.950308 1_555
P3 Th1 2.954712 1_455
P3 Th1 2.954712 1_555
P4 Th4 2.887097 1_555
P4 Th2 2.946336 1_555
P4 Th2 2.946336 1_655
P5 Th4 2.887097 1_555
P5 Th3 2.946336 1_655
P5 Th3 2.946336 1_555
P6 Th2 2.917166 1_645
P6 Th2 2.917166 1_545
P7 Th3 2.917166 1_565
P7 Th3 2.917166 1_665
P8 Th0 2.917166 1_555
P8 Th0 2.917166 1_455
P9 Th1 2.917166 1_555
P9 Th1 2.917166 1_455
P10 Th5 2.887097 1_555
P10 Th0 2.946336 1_455
P10 Th0 2.946336 1_555
P11 Th5 2.887097 1_566
P11 Th1 2.946336 1_455
P11 Th1 2.946336 1_555
