# generated using pymatgen
data_AlPd2
_symmetry_space_group_name_H-M   'P 1'
_cell_length_a   4.07169292
_cell_length_b   5.41975902
_cell_length_c   7.81286848
_cell_angle_alpha   90.00000000
_cell_angle_beta   90.00000000
_cell_angle_gamma   90.00000000
_symmetry_Int_Tables_number   1
_chemical_formula_structural   AlPd2
_chemical_formula_sum   'Al4 Pd8'
_cell_volume   172.41121295
_cell_formula_units_Z   4
loop_
 _symmetry_equiv_pos_site_id
 _symmetry_equiv_pos_as_xyz
  1  'x, y, z'
loop_
 _atom_site_type_symbol
 _atom_site_label
 _atom_site_symmetry_multiplicity
 _atom_site_fract_x
 _atom_site_fract_y
 _atom_site_fract_z
 _atom_site_occupancy
  Al  Al0  1  0.75000000  0.30539885  0.39486730  1
  Al  Al1  1  0.25000000  0.69460115  0.60513270  1
  Al  Al2  1  0.75000000  0.80539885  0.10513270  1
  Al  Al3  1  0.25000000  0.19460115  0.89486730  1
  Pd  Pd0  1  0.75000000  0.95744660  0.78824116  1
  Pd  Pd1  1  0.25000000  0.04255340  0.21175884  1
  Pd  Pd2  1  0.75000000  0.45744560  0.71175884  1
  Pd  Pd3  1  0.25000000  0.54255340  0.28824116  1
  Pd  Pd4  1  0.75000000  0.83421493  0.43387338  1
  Pd  Pd5  1  0.25000000  0.16578507  0.56612662  1
  Pd  Pd6  1  0.75000000  0.33421493  0.06612662  1
  Pd  Pd7  1  0.25000000  0.66578507  0.93387338  1
loop_
_geom_bond_atom_site_label_1
_geom_bond_atom_site_label_2
_geom_bond_distance
_geom_bond_site_symmetry_2
Al0 Pd3 2.547686 1_555
Al0 Pd3 2.547686 1_655
Al0 Pd5 2.550988 1_555
Al0 Pd5 2.550988 1_655
Al0 Pd4 2.571823 1_545
Al0 Pd6 2.573152 1_555
Al0 Pd2 2.609370 1_555
Al0 Pd1 2.867170 1_555
Al0 Pd1 2.867170 1_655
Al0 Pd4 2.882212 1_555
Al1 Pd2 2.547688 1_555
Al1 Pd2 2.547688 1_455
Al1 Pd4 2.550988 1_555
Al1 Pd4 2.550988 1_455
Al1 Pd5 2.571823 1_565
Al1 Pd7 2.573152 1_555
Al1 Pd3 2.609372 1_555
Al1 Pd0 2.867170 1_555
Al1 Pd0 2.867170 1_455
Al1 Pd5 2.882212 1_555
Al2 Pd1 2.547686 1_665
Al2 Pd1 2.547686 1_565
Al2 Pd7 2.550988 1_554
Al2 Pd7 2.550988 1_654
Al2 Pd6 2.571823 1_555
Al2 Pd4 2.573152 1_555
Al2 Pd0 2.609372 1_554
Al2 Pd3 2.867170 1_555
Al2 Pd3 2.867170 1_655
Al2 Pd6 2.882212 1_565
Al3 Pd0 2.547686 1_545
Al3 Pd0 2.547686 1_445
Al3 Pd6 2.550988 1_556
Al3 Pd6 2.550988 1_456
Al3 Pd7 2.571823 1_555
Al3 Pd5 2.573152 1_555
Al3 Pd1 2.609372 1_556
Al3 Pd2 2.867167 1_455
Al3 Pd2 2.867167 1_555
Al3 Pd7 2.882212 1_545
