# generated using pymatgen
data_LiV2(PO4)3
_symmetry_space_group_name_H-M   'P 1'
_cell_length_a   8.66675616
_cell_length_b   8.66675616
_cell_length_c   6.33284785
_cell_angle_alpha   73.77207832
_cell_angle_beta   73.77207832
_cell_angle_gamma   92.18158573
_symmetry_Int_Tables_number   1
_chemical_formula_structural   LiV2(PO4)3
_chemical_formula_sum   'Li2 V4 P6 O24'
_cell_volume   435.03271901
_cell_formula_units_Z   2
loop_
 _symmetry_equiv_pos_site_id
 _symmetry_equiv_pos_as_xyz
  1  'x, y, z'
loop_
 _atom_site_type_symbol
 _atom_site_label
 _atom_site_symmetry_multiplicity
 _atom_site_fract_x
 _atom_site_fract_y
 _atom_site_fract_z
 _atom_site_occupancy
  Li  Li0  1  0.50000000  0.50000000  0.50000000  1
  Li  Li1  1  0.50000000  0.50000000  0.00000000  1
  V  V0  1  0.62470300  0.94071200  0.63595500  1
  V  V1  1  0.94071200  0.62470300  0.13595500  1
  V  V2  1  0.05928800  0.37529700  0.86404500  1
  V  V3  1  0.37529700  0.05928800  0.36404500  1
  P  P0  1  0.27930500  0.72069500  0.75000000  1
  P  P1  1  0.64431400  0.83649100  0.15031800  1
  P  P2  1  0.83649100  0.64431400  0.65031800  1
  P  P3  1  0.16350900  0.35568600  0.34968200  1
  P  P4  1  0.35568600  0.16350900  0.84968200  1
  P  P5  1  0.72069500  0.27930500  0.25000000  1
  O  O0  1  0.63722300  0.95267600  0.91561600  1
  O  O1  1  0.59561600  0.93982900  0.32435800  1
  O  O2  1  0.26464800  0.85132900  0.53275300  1
  O  O3  1  0.14867100  0.73535200  0.96724700  1
  O  O4  1  0.80440700  0.82516100  0.61244500  1
  O  O5  1  0.45258500  0.74973700  0.76761700  1
  O  O6  1  0.82516100  0.80440700  0.11244500  1
  O  O7  1  0.93982900  0.59561600  0.82435800  1
  O  O8  1  0.53399500  0.68210600  0.23064800  1
  O  O9  1  0.25026300  0.54741500  0.73238300  1
  O  O10  1  0.95267600  0.63722300  0.41561600  1
  O  O11  1  0.68210600  0.53399500  0.73064800  1
  O  O12  1  0.31789400  0.46600500  0.26935200  1
  O  O13  1  0.04732400  0.36277700  0.58438400  1
  O  O14  1  0.74973700  0.45258500  0.26761700  1
  O  O15  1  0.46600500  0.31789400  0.76935200  1
  O  O16  1  0.06017100  0.40438400  0.17564200  1
  O  O17  1  0.17483900  0.19559300  0.88755500  1
  O  O18  1  0.54741500  0.25026300  0.23238300  1
  O  O19  1  0.19559300  0.17483900  0.38755500  1
  O  O20  1  0.85132900  0.26464800  0.03275300  1
  O  O21  1  0.73535200  0.14867100  0.46724700  1
  O  O22  1  0.40438400  0.06017100  0.67564200  1
  O  O23  1  0.36277700  0.04732400  0.08438400  1
loop_
_geom_bond_atom_site_label_1
_geom_bond_atom_site_label_2
_geom_bond_distance
_geom_bond_site_symmetry_2
Li0 O15 1.914780 1_555
Li0 O8 1.914780 1_555
Li0 O9 2.375860 1_555
Li0 O14 2.375860 1_555
Li0 O11 2.490957 1_555
Li0 O12 2.490957 1_555
Li1 O12 1.914780 1_555
Li1 O11 1.914780 1_554
Li1 O18 2.375860 1_555
Li1 O5 2.375860 1_554
Li1 O8 2.490957 1_555
Li1 O15 2.490957 1_554
O0 P1 1.564020 1_556
O0 V0 1.835303 1_555
O1 P1 1.586036 1_555
O1 V0 2.060056 1_555
O1 V3 2.192893 1_565
O2 P0 1.558459 1_555
O2 V3 1.878564 1_565
O3 P0 1.558459 1_555
O3 V1 1.878564 1_456
O4 P2 1.565822 1_555
O4 V0 1.877020 1_555
O5 P0 1.552962 1_555
O5 V0 2.001348 1_555
O6 P1 1.565822 1_555
O6 V1 1.877020 1_555
O7 P2 1.586036 1_555
O7 V1 2.060056 1_556
O7 V2 2.192893 1_655
O8 P1 1.487796 1_555
O9 P0 1.552962 1_555
O9 V2 2.001348 1_555
O10 P2 1.564020 1_555
O10 V1 1.835303 1_555
O11 P2 1.487796 1_555
O12 P3 1.487796 1_555
O13 P3 1.564020 1_555
O13 V2 1.835303 1_555
O14 P5 1.552962 1_555
O14 V1 2.001348 1_555
O15 P4 1.487796 1_555
O16 P3 1.586036 1_555
O16 V2 2.060056 1_554
O16 V1 2.192893 1_455
O17 P4 1.565822 1_555
O17 V2 1.877020 1_555
O18 P5 1.552962 1_555
O18 V3 2.001348 1_555
O19 P3 1.565822 1_555
O19 V3 1.877020 1_555
O20 P5 1.558459 1_555
O20 V2 1.878564 1_654
O21 P5 1.558459 1_555
O21 V0 1.878564 1_545
O22 P4 1.586036 1_555
O22 V3 2.060056 1_555
O22 V0 2.192893 1_545
O23 P4 1.564020 1_554
O23 V3 1.835303 1_555
