# generated using pymatgen
data_PuIr2
_symmetry_space_group_name_H-M   'P 1'
_cell_length_a   5.28067768
_cell_length_b   5.28067768
_cell_length_c   5.28067768
_cell_angle_alpha   60.00000000
_cell_angle_beta   60.00000000
_cell_angle_gamma   60.00000000
_symmetry_Int_Tables_number   1
_chemical_formula_structural   PuIr2
_chemical_formula_sum   'Pu2 Ir4'
_cell_volume   104.12475278
_cell_formula_units_Z   2
loop_
 _symmetry_equiv_pos_site_id
 _symmetry_equiv_pos_as_xyz
  1  'x, y, z'
loop_
 _atom_site_type_symbol
 _atom_site_label
 _atom_site_symmetry_multiplicity
 _atom_site_fract_x
 _atom_site_fract_y
 _atom_site_fract_z
 _atom_site_occupancy
  Pu  Pu0  1  0.25000000  0.25000000  0.25000000  1
  Pu  Pu1  1  0.00000000  0.00000000  0.00000000  1
  Ir  Ir0  1  0.62500000  0.12500000  0.62500000  1
  Ir  Ir1  1  0.62500000  0.62500000  0.12500000  1
  Ir  Ir2  1  0.12500000  0.62500000  0.62500000  1
  Ir  Ir3  1  0.62500000  0.62500000  0.62500000  1
loop_
_geom_bond_atom_site_label_1
_geom_bond_atom_site_label_2
_geom_bond_distance
_geom_bond_site_symmetry_2
Pu0 Pu1 3.233741 1_655
Pu0 Pu1 3.233741 1_555
Pu0 Pu1 3.233741 1_565
Pu0 Pu1 3.233741 1_556
Ir0 Ir1 2.640339 1_555
Ir0 Ir3 2.640339 1_545
Ir0 Ir2 2.640339 1_555
Ir0 Ir1 2.640339 1_546
Ir0 Ir3 2.640339 1_555
Ir0 Ir2 2.640339 1_645
Ir0 Pu1 3.096072 1_656
Ir0 Pu1 3.096072 1_655
Ir0 Pu0 3.096072 1_555
Ir0 Pu0 3.096072 1_556
Ir0 Pu0 3.096072 1_655
Ir0 Pu1 3.096072 1_556
Ir1 Ir2 2.640339 1_555
Ir1 Ir3 2.640339 1_555
Ir1 Ir2 2.640339 1_654
Ir1 Ir3 2.640339 1_554
Ir1 Pu1 3.096072 1_565
Ir1 Pu1 3.096072 1_655
Ir1 Pu1 3.096072 1_665
Ir1 Pu0 3.096072 1_555
Ir1 Pu0 3.096072 1_565
Ir1 Pu0 3.096072 1_655
Ir2 Ir3 2.640339 1_455
Ir2 Ir3 2.640339 1_555
Ir2 Pu1 3.096072 1_565
Ir2 Pu1 3.096072 1_566
Ir2 Pu0 3.096072 1_555
Ir2 Pu0 3.096072 1_556
Ir2 Pu0 3.096072 1_565
Ir2 Pu1 3.096072 1_556
Ir3 Pu1 3.096072 1_656
Ir3 Pu1 3.096072 1_665
Ir3 Pu1 3.096072 1_566
Ir3 Pu0 3.096072 1_556
Ir3 Pu0 3.096072 1_565
Ir3 Pu0 3.096072 1_655
