# generated using pymatgen
data_MgNb2(CoO4)2
_symmetry_space_group_name_H-M   'P 1'
_cell_length_a   3.90406232
_cell_length_b   6.66793060
_cell_length_c   7.30801130
_cell_angle_alpha   105.66669478
_cell_angle_beta   90.00068816
_cell_angle_gamma   107.02194518
_symmetry_Int_Tables_number   1
_chemical_formula_structural   MgNb2(CoO4)2
_chemical_formula_sum   'Mg1 Nb2 Co2 O8'
_cell_volume   174.50314426
_cell_formula_units_Z   1
loop_
 _symmetry_equiv_pos_site_id
 _symmetry_equiv_pos_as_xyz
  1  'x, y, z'
loop_
 _atom_site_type_symbol
 _atom_site_label
 _atom_site_symmetry_multiplicity
 _atom_site_fract_x
 _atom_site_fract_y
 _atom_site_fract_z
 _atom_site_occupancy
  Mg  Mg0  1  0.66308100  0.32616900  0.51508300  1
  Nb  Nb0  1  0.08176900  0.16362500  0.18711000  1
  Nb  Nb1  1  0.88697100  0.77372900  0.77879100  1
  Co  Co0  1  0.80019100  0.60039900  0.22087000  1
  Co  Co1  1  0.20046200  0.40085300  0.85809000  1
  O  O0  1  0.92633400  0.85248300  0.11083600  1
  O  O1  1  0.04511400  0.09051400  0.87670400  1
  O  O2  1  0.72399100  0.44795500  0.79614400  1
  O  O3  1  0.11600600  0.23212200  0.46535100  1
  O  O4  1  0.61329700  0.22669800  0.22036300  1
  O  O5  1  0.83333100  0.66658500  0.51068800  1
  O  O6  1  0.24031000  0.48064200  0.14840100  1
  O  O7  1  0.36914300  0.73822400  0.81156900  1
loop_
_geom_bond_atom_site_label_1
_geom_bond_atom_site_label_2
_geom_bond_distance
_geom_bond_site_symmetry_2
Mg0 O2 1.980147 1_555
Mg0 O3 2.044060 1_655
Mg0 O3 2.044449 1_555
Mg0 O4 2.066302 1_555
Mg0 O5 2.179722 1_555
Nb0 O0 1.903034 1_445
Nb0 O3 1.955456 1_555
Nb0 O4 1.993960 1_555
Nb0 O4 1.994022 1_455
Nb0 O6 2.118589 1_555
Nb0 O1 2.183092 1_554
Nb1 O5 1.884017 1_555
Nb1 O1 1.942974 1_665
Nb1 O7 1.987085 1_655
Nb1 O7 1.987675 1_555
Nb1 O2 2.116393 1_555
Nb1 O0 2.335004 1_556
Co0 O0 1.989941 1_555
Co0 O5 2.039397 1_555
Co0 O6 2.108426 1_655
Co0 O6 2.108449 1_555
Co0 O4 2.381609 1_555
Co1 O1 2.021302 1_555
Co1 O6 2.037239 1_556
Co1 O2 2.045005 1_555
Co1 O2 2.045151 1_455
Co1 O7 2.270578 1_555
