# generated using pymatgen
data_Na12Mg4Ta2Si3(PO6)6
_symmetry_space_group_name_H-M   'P 1'
_cell_length_a   9.09499920
_cell_length_b   9.09499888
_cell_length_c   21.99823417
_cell_angle_alpha   90.00000000
_cell_angle_beta   90.00000000
_cell_angle_gamma   120.00000115
_symmetry_Int_Tables_number   1
_chemical_formula_structural   Na12Mg4Ta2Si3(PO6)6
_chemical_formula_sum   'Na24 Mg8 Ta4 Si6 P12 O72'
_cell_volume   1575.88224603
_cell_formula_units_Z   2
loop_
 _symmetry_equiv_pos_site_id
 _symmetry_equiv_pos_as_xyz
  1  'x, y, z'
loop_
 _atom_site_type_symbol
 _atom_site_label
 _atom_site_symmetry_multiplicity
 _atom_site_fract_x
 _atom_site_fract_y
 _atom_site_fract_z
 _atom_site_occupancy
  Na  Na0  1  0.64930514  0.01324222  0.24403851  1
  Na  Na1  1  0.36393708  0.35069486  0.24403851  1
  Na  Na2  1  0.98675778  0.63606292  0.24403851  1
  Na  Na3  1  0.64930514  0.63606292  0.74403851  1
  Na  Na4  1  0.98675778  0.35069486  0.74403851  1
  Na  Na5  1  0.36393708  0.01324222  0.74403851  1
  Na  Na6  1  0.29191883  0.33676775  0.58089547  1
  Na  Na7  1  0.04484993  0.70808117  0.58089547  1
  Na  Na8  1  0.66323225  0.95515007  0.58089547  1
  Na  Na9  1  0.29191883  0.95515007  0.08089547  1
  Na  Na10  1  0.66323225  0.70808117  0.08089547  1
  Na  Na11  1  0.04484993  0.33676775  0.08089547  1
  Na  Na12  1  0.98060491  0.69212263  0.91432990  1
  Na  Na13  1  0.71151672  0.01939509  0.91432990  1
  Na  Na14  1  0.30787737  0.28848328  0.91432990  1
  Na  Na15  1  0.98060491  0.28848328  0.41432990  1
  Na  Na16  1  0.30787737  0.01939509  0.41432990  1
  Na  Na17  1  0.71151672  0.69212263  0.41432990  1
  Na  Na18  1  -0.00000000  0.00000000  0.49460690  1
  Na  Na19  1  -0.00000000  0.00000000  0.99460690  1
  Na  Na20  1  0.66666700  0.33333300  0.82719293  1
  Na  Na21  1  0.66666700  0.33333300  0.32719293  1
  Na  Na22  1  0.33333300  0.66666700  0.15916614  1
  Na  Na23  1  0.33333300  0.66666700  0.65916614  1
  Mg  Mg0  1  -0.00000000  0.00000000  0.35097807  1
  Mg  Mg1  1  -0.00000000  0.00000000  0.85097807  1
  Mg  Mg2  1  -0.00000000  0.00000000  0.64919585  1
  Mg  Mg3  1  -0.00000000  0.00000000  0.14919585  1
  Mg  Mg4  1  0.66666700  0.33333300  0.68312241  1
  Mg  Mg5  1  0.66666700  0.33333300  0.18312241  1
  Mg  Mg6  1  0.33333300  0.66666700  0.01649418  1
  Mg  Mg7  1  0.33333300  0.66666700  0.51649418  1
  Ta  Ta0  1  0.66666700  0.33333300  0.97872896  1
  Ta  Ta1  1  0.66666700  0.33333300  0.47872896  1
  Ta  Ta2  1  0.33333300  0.66666700  0.31773227  1
  Ta  Ta3  1  0.33333300  0.66666700  0.81773227  1
  Si  Si0  1  0.62867667  0.66801902  0.92112877  1
  Si  Si1  1  0.03934135  0.37132333  0.92112877  1
  Si  Si2  1  0.33198098  0.96065865  0.92112877  1
  Si  Si3  1  0.62867667  0.96065865  0.42112877  1
  Si  Si4  1  0.33198098  0.37132333  0.42112877  1
  Si  Si5  1  0.03934135  0.66801902  0.42112877  1
  P  P0  1  0.29576861  0.99643785  0.24969225  1
  P  P1  1  0.70066923  0.70423139  0.24969225  1
  P  P2  1  0.00356215  0.29933077  0.24969225  1
  P  P3  1  0.29576861  0.29933077  0.74969225  1
  P  P4  1  0.00356215  0.70423139  0.74969225  1
  P  P5  1  0.70066923  0.99643785  0.74969225  1
  P  P6  1  0.95984632  0.33325357  0.58607336  1
  P  P7  1  0.37340825  0.04015368  0.58607336  1
  P  P8  1  0.66674643  0.62659175  0.58607336  1
  P  P9  1  0.95984632  0.62659175  0.08607336  1
  P  P10  1  0.66674643  0.04015368  0.08607336  1
  P  P11  1  0.37340825  0.33325357  0.08607336  1
  O  O0  1  0.21198598  0.01930829  0.30656267  1
  O  O1  1  0.80732231  0.78801402  0.30656267  1
  O  O2  1  0.98069171  0.19267769  0.30656267  1
  O  O3  1  0.21198598  0.19267769  0.80656267  1
  O  O4  1  0.98069171  0.78801402  0.80656267  1
  O  O5  1  0.80732231  0.01930829  0.80656267  1
  O  O6  1  0.77754334  0.96380286  0.69239450  1
  O  O7  1  0.18625952  0.22245666  0.69239450  1
  O  O8  1  0.03619714  0.81374048  0.69239450  1
  O  O9  1  0.77754334  0.81374048  0.19239450  1
  O  O10  1  0.03619714  0.22245666  0.19239450  1
  O  O11  1  0.18625952  0.96380286  0.19239450  1
  O  O12  1  0.87337389  0.35211944  0.64284718  1
  O  O13  1  0.47874655  0.12662611  0.64284718  1
  O  O14  1  0.64788056  0.52125345  0.64284718  1
  O  O15  1  0.87337389  0.52125345  0.14284718  1
  O  O16  1  0.64788056  0.12662611  0.14284718  1
  O  O17  1  0.47874655  0.35211944  0.14284718  1
  O  O18  1  0.47556332  0.31925553  0.02858081  1
  O  O19  1  0.84369321  0.52443668  0.02858081  1
  O  O20  1  0.68074447  0.15630679  0.02858081  1
  O  O21  1  0.47556332  0.15630679  0.52858081  1
  O  O22  1  0.68074447  0.52443668  0.52858081  1
  O  O23  1  0.84369321  0.31925553  0.52858081  1
  O  O24  1  0.54805303  0.70089005  0.98013899  1
  O  O25  1  0.15283602  0.45194697  0.98013899  1
  O  O26  1  0.29910995  0.84716398  0.98013899  1
  O  O27  1  0.54805303  0.84716398  0.48013899  1
  O  O28  1  0.29910995  0.45194697  0.48013899  1
  O  O29  1  0.15283602  0.70089005  0.48013899  1
  O  O30  1  0.13524133  0.63246405  0.36109061  1
  O  O31  1  0.49722171  0.86475867  0.36109061  1
  O  O32  1  0.36753595  0.50277829  0.36109061  1
  O  O33  1  0.13524133  0.50277829  0.86109061  1
  O  O34  1  0.36753595  0.86475867  0.86109061  1
  O  O35  1  0.49722171  0.63246405  0.86109061  1
  O  O36  1  0.00558101  0.82271976  0.40939082  1
  O  O37  1  0.81713875  0.99441899  0.40939082  1
  O  O38  1  0.17728024  0.18286125  0.40939082  1
  O  O39  1  0.00558101  0.18286125  0.90939082  1
  O  O40  1  0.17728024  0.99441899  0.90939082  1
  O  O41  1  0.81713875  0.82271976  0.90939082  1
  O  O42  1  0.96810202  0.16769718  0.58427365  1
  O  O43  1  0.19959516  0.03189798  0.58427365  1
  O  O44  1  0.83230282  0.80040484  0.58427365  1
  O  O45  1  0.96810202  0.80040484  0.08427365  1
  O  O46  1  0.83230282  0.03189798  0.08427365  1
  O  O47  1  0.19959516  0.16769718  0.08427365  1
  O  O48  1  0.67182311  0.15061866  0.74561851  1
  O  O49  1  0.47879655  0.32817689  0.74561851  1
  O  O50  1  0.84938134  0.52120345  0.74561851  1
  O  O51  1  0.67182311  0.52120345  0.24561851  1
  O  O52  1  0.84938134  0.32817689  0.24561851  1
  O  O53  1  0.47879655  0.15061866  0.24561851  1
  O  O54  1  0.63381290  0.48603238  0.92313695  1
  O  O55  1  0.85222047  0.36618710  0.92313695  1
  O  O56  1  0.51396762  0.14777953  0.92313695  1
  O  O57  1  0.63381290  0.14777953  0.42313695  1
  O  O58  1  0.51396762  0.36618710  0.42313695  1
  O  O59  1  0.85222047  0.48603238  0.42313695  1
  O  O60  1  0.35560113  0.49259389  0.08149155  1
  O  O61  1  0.13699176  0.64439887  0.08149155  1
  O  O62  1  0.50740611  0.86300824  0.08149155  1
  O  O63  1  0.35560113  0.86300824  0.58149155  1
  O  O64  1  0.50740611  0.64439887  0.58149155  1
  O  O65  1  0.13699176  0.49259389  0.58149155  1
  O  O66  1  0.31354323  0.82983496  0.25590959  1
  O  O67  1  0.51629073  0.68645677  0.25590959  1
  O  O68  1  0.17016504  0.48370927  0.25590959  1
  O  O69  1  0.31354323  0.48370927  0.75590959  1
  O  O70  1  0.17016504  0.68645677  0.75590959  1
  O  O71  1  0.51629073  0.82983496  0.75590959  1
loop_
_geom_bond_atom_site_label_1
_geom_bond_atom_site_label_2
_geom_bond_distance
_geom_bond_site_symmetry_2
Na0 O53 2.429981 1_555
Na0 O16 2.456047 1_555
Na0 O52 2.510912 1_555
Na0 O67 2.601850 1_545
Na0 O66 2.661240 1_545
Na0 O9 2.838934 1_545
Na0 O31 2.915362 1_545
Na0 O2 2.953028 1_555
Na1 O51 2.429989 1_555
Na1 O17 2.456051 1_555
Na1 O53 2.510919 1_555
Na1 O68 2.601859 1_555
Na1 O67 2.661240 1_555
Na1 O10 2.838934 1_555
Na1 O32 2.915364 1_555
Na1 O0 2.953028 1_555
Na2 O52 2.429989 1_555
Na2 O15 2.456049 1_555
Na2 O51 2.510910 1_555
Na2 O66 2.601851 1_655
Na2 O68 2.661232 1_655
Na2 O11 2.838934 1_655
Na2 O30 2.915360 1_655
Na2 O1 2.953028 1_555
Na3 O49 2.429989 1_555
Na3 O14 2.456051 1_555
Na3 O50 2.510919 1_555
Na3 O71 2.601859 1_555
Na3 O69 2.661240 1_555
Na3 O6 2.838934 1_555
Na3 O35 2.915364 1_555
Na3 O4 2.953028 1_555
Na4 O50 2.429981 1_555
Na4 O12 2.456047 1_555
Na4 O48 2.510912 1_555
Na4 O69 2.601850 1_655
Na4 O70 2.661240 1_655
Na4 O7 2.838934 1_655
Na4 O33 2.915362 1_655
Na4 O5 2.953028 1_555
Na5 O48 2.429989 1_555
Na5 O13 2.456049 1_555
Na5 O49 2.510910 1_555
Na5 O70 2.601851 1_545
Na5 O71 2.661232 1_545
Na5 O8 2.838934 1_545
Na5 O34 2.915360 1_545
Na5 O3 2.953028 1_555
Na6 O28 2.438412 1_555
Na6 O65 2.447686 1_555
Na6 O43 2.463877 1_555
Na6 O64 2.487165 1_555
Na6 O42 2.552457 1_455
Na6 O7 2.649795 1_555
Na7 O29 2.438404 1_555
Na7 O63 2.447670 1_555
Na7 O44 2.463886 1_455
Na7 O65 2.487151 1_555
Na7 O43 2.552457 1_565
Na7 O8 2.649797 1_555
Na8 O27 2.438408 1_555
Na8 O64 2.447670 1_555
Na8 O42 2.463879 1_565
Na8 O63 2.487169 1_555
Na8 O44 2.552449 1_555
Na8 O6 2.649793 1_555
Na9 O26 2.438404 1_554
Na9 O61 2.447670 1_555
Na9 O47 2.463886 1_565
Na9 O62 2.487151 1_555
Na9 O45 2.552457 1_455
Na9 O11 2.649797 1_555
Na10 O24 2.438412 1_554
Na10 O62 2.447686 1_555
Na10 O45 2.463877 1_555
Na10 O60 2.487165 1_555
Na10 O46 2.552457 1_565
Na10 O9 2.649795 1_555
Na11 O25 2.438408 1_554
Na11 O60 2.447670 1_555
Na11 O46 2.463879 1_455
Na11 O61 2.487169 1_555
Na11 O47 2.552449 1_555
Na11 O10 2.649793 1_555
Na12 O41 2.323549 1_555
Na12 O40 2.419214 1_655
Na12 O4 2.525884 1_555
Na12 O55 2.593674 1_555
Na12 O54 2.754467 1_555
Na12 O19 2.879963 1_556
Na12 O26 2.896697 1_655
Na12 O33 2.955877 1_655
Na13 O39 2.323557 1_655
Na13 O41 2.419221 1_545
Na13 O5 2.525887 1_555
Na13 O56 2.593657 1_555
Na13 O55 2.754465 1_555
Na13 O20 2.879957 1_556
Na13 O24 2.896697 1_545
Na13 O34 2.955877 1_545
Na14 O40 2.323557 1_545
Na14 O39 2.419213 1_555
Na14 O3 2.525886 1_555
Na14 O54 2.593672 1_555
Na14 O56 2.754481 1_555
Na14 O18 2.879966 1_556
Na14 O25 2.896697 1_555
Na14 O35 2.955877 1_555
Na15 O37 2.323557 1_545
Na15 O38 2.419221 1_655
Na15 O2 2.525887 1_555
Na15 O59 2.593657 1_555
Na15 O57 2.754465 1_555
Na15 O23 2.879957 1_555
Na15 O28 2.896697 1_655
Na15 O30 2.955877 1_655
Na16 O38 2.323549 1_555
Na16 O36 2.419214 1_545
Na16 O0 2.525884 1_555
Na16 O57 2.593674 1_555
Na16 O58 2.754467 1_555
Na16 O21 2.879963 1_555
Na16 O29 2.896697 1_545
Na16 O31 2.955877 1_545
Na17 O36 2.323557 1_655
Na17 O37 2.419213 1_555
Na17 O1 2.525886 1_555
Na17 O58 2.593672 1_555
Na17 O59 2.754481 1_555
Na17 O22 2.879966 1_555
Na17 O27 2.896697 1_555
Na17 O32 2.955877 1_555
Na18 O38 2.489633 1_555
Na18 O36 2.489633 1_545
Na18 O37 2.489633 1_445
Na18 O44 2.596862 1_445
Na18 O42 2.596862 1_455
Na18 O43 2.596862 1_555
Na19 O39 2.489633 1_555
Na19 O41 2.489633 1_445
Na19 O40 2.489633 1_545
Na19 O45 2.596862 1_446
Na19 O47 2.596862 1_556
Na19 O46 2.596862 1_456
Na20 O50 2.462086 1_555
Na20 O48 2.462086 1_555
Na20 O49 2.462086 1_555
Na20 O56 2.624436 1_555
Na20 O55 2.624436 1_555
Na20 O54 2.624436 1_555
Na21 O51 2.462086 1_555
Na21 O53 2.462086 1_555
Na21 O52 2.462086 1_555
Na21 O57 2.624436 1_555
Na21 O59 2.624436 1_555
Na21 O58 2.624436 1_555
Na22 O62 2.405792 1_555
Na22 O60 2.405792 1_555
Na22 O61 2.405792 1_555
Na22 O68 2.651597 1_555
Na22 O66 2.651597 1_555
Na22 O67 2.651597 1_555
Na23 O63 2.405792 1_555
Na23 O65 2.405792 1_555
Na23 O64 2.405792 1_555
Na23 O69 2.651597 1_555
Na23 O71 2.651597 1_555
Na23 O70 2.651597 1_555
Mg0 O38 2.082139 1_555
Mg0 O36 2.082139 1_545
Mg0 O37 2.082139 1_445
Mg0 O1 2.089053 1_445
Mg0 O2 2.089053 1_455
Mg0 O0 2.089053 1_555
Mg1 O39 2.082139 1_555
Mg1 O41 2.082139 1_445
Mg1 O40 2.082139 1_545
Mg1 O4 2.089053 1_445
Mg1 O3 2.089053 1_555
Mg1 O5 2.089053 1_455
Mg2 O7 2.106864 1_555
Mg2 O8 2.106864 1_545
Mg2 O6 2.106864 1_445
Mg2 O44 2.211917 1_445
Mg2 O42 2.211917 1_455
Mg2 O43 2.211917 1_555
Mg3 O10 2.106864 1_555
Mg3 O9 2.106864 1_445
Mg3 O11 2.106864 1_545
Mg3 O45 2.211917 1_445
Mg3 O47 2.211917 1_555
Mg3 O46 2.211917 1_455
Mg4 O13 2.006822 1_555
Mg4 O14 2.006822 1_555
Mg4 O12 2.006822 1_555
Mg4 O50 2.175258 1_555
Mg4 O48 2.175258 1_555
Mg4 O49 2.175258 1_555
Mg5 O16 2.006822 1_555
Mg5 O15 2.006822 1_555
Mg5 O17 2.006822 1_555
Mg5 O51 2.175258 1_555
Mg5 O53 2.175258 1_555
Mg5 O52 2.175258 1_555
Mg6 O25 1.985539 1_554
Mg6 O26 1.985539 1_554
Mg6 O24 1.985539 1_554
Mg6 O62 2.216432 1_555
Mg6 O60 2.216432 1_555
Mg6 O61 2.216432 1_555
Mg7 O28 1.985539 1_555
Mg7 O27 1.985539 1_555
Mg7 O29 1.985539 1_555
Mg7 O63 2.216432 1_555
Mg7 O65 2.216432 1_555
Mg7 O64 2.216432 1_555
O0 P0 1.532168 1_545
O1 P1 1.532168 1_555
O2 P2 1.532168 1_655
O3 P3 1.532168 1_555
O4 P4 1.532168 1_655
O5 P5 1.532168 1_545
O6 P5 1.540518 1_555
O7 P3 1.540518 1_555
O8 P4 1.540518 1_555
O9 P1 1.540518 1_555
O10 P2 1.540518 1_555
O11 P0 1.540518 1_555
O12 P6 1.530597 1_555
O13 P7 1.530597 1_555
O14 P8 1.530597 1_555
O15 P9 1.530597 1_555
O16 P10 1.530597 1_555
O17 P11 1.530597 1_555
O18 P11 1.611606 1_555
O18 Ta0 2.004359 1_554
O19 P9 1.611606 1_555
O19 Ta0 2.004359 1_554
O20 P10 1.611606 1_555
O20 Ta0 2.004359 1_554
O21 P7 1.611606 1_555
O21 Ta1 2.004359 1_555
O22 P8 1.611606 1_555
O22 Ta1 2.004359 1_555
O23 P6 1.611606 1_555
O23 Ta1 2.004359 1_555
O24 Si0 1.591039 1_555
O25 Si1 1.591039 1_555
O26 Si2 1.591039 1_555
O27 Si3 1.591039 1_555
O28 Si4 1.591039 1_555
O29 Si5 1.591039 1_555
O30 Si5 1.700502 1_555
O30 Ta2 1.921455 1_555
O31 Si3 1.700502 1_555
O31 Ta2 1.921454 1_555
O32 Si4 1.700502 1_555
O32 Ta2 1.921454 1_555
O33 Si1 1.700502 1_555
O33 Ta3 1.921454 1_555
O34 Si2 1.700502 1_555
O34 Ta3 1.921455 1_555
O35 Si0 1.700502 1_555
O35 Ta3 1.921454 1_555
O36 Si5 1.603943 1_555
O37 Si3 1.603952 1_555
O38 Si4 1.603949 1_555
O39 Si1 1.603952 1_555
O40 Si2 1.603943 1_555
O41 Si0 1.603949 1_555
O42 P6 1.545155 1_555
O43 P7 1.545164 1_555
O44 P8 1.545159 1_555
O45 P9 1.545164 1_555
O46 P10 1.545155 1_555
O47 P11 1.545159 1_555
O48 P5 1.552781 1_545
O49 P3 1.552790 1_555
O50 P4 1.552787 1_655
O51 P1 1.552790 1_555
O52 P2 1.552781 1_655
O53 P0 1.552787 1_545
O54 Si0 1.679594 1_555
O54 Ta0 1.982066 1_555
O55 Si1 1.679576 1_655
O55 Ta0 1.982066 1_555
O56 Si2 1.679584 1_545
O56 Ta0 1.982066 1_555
O57 Si3 1.679576 1_545
O57 Ta1 1.982066 1_555
O58 Si4 1.679594 1_555
O58 Ta1 1.982066 1_555
O59 Si5 1.679584 1_655
O59 Ta1 1.982066 1_555
O60 P11 1.539895 1_555
O61 P9 1.539877 1_455
O62 P10 1.539884 1_565
O63 P7 1.539877 1_565
O64 P8 1.539895 1_555
O65 P6 1.539884 1_455
O66 P0 1.608039 1_555
O66 Ta2 2.085993 1_555
O67 P1 1.608048 1_555
O67 Ta2 2.085993 1_555
O68 P2 1.608044 1_555
O68 Ta2 2.085993 1_555
O69 P3 1.608048 1_555
O69 Ta3 2.085993 1_555
O70 P4 1.608039 1_555
O70 Ta3 2.085993 1_555
O71 P5 1.608044 1_555
O71 Ta3 2.085993 1_555
