# generated using pymatgen
data_Cr3Ge
_symmetry_space_group_name_H-M   'P 1'
_cell_length_a   4.54939447
_cell_length_b   4.54939447
_cell_length_c   4.54939447
_cell_angle_alpha   90.00000000
_cell_angle_beta   90.00000000
_cell_angle_gamma   90.00000000
_symmetry_Int_Tables_number   1
_chemical_formula_structural   Cr3Ge
_chemical_formula_sum   'Cr6 Ge2'
_cell_volume   94.15877205
_cell_formula_units_Z   2
loop_
 _symmetry_equiv_pos_site_id
 _symmetry_equiv_pos_as_xyz
  1  'x, y, z'
loop_
 _atom_site_type_symbol
 _atom_site_label
 _atom_site_symmetry_multiplicity
 _atom_site_fract_x
 _atom_site_fract_y
 _atom_site_fract_z
 _atom_site_occupancy
  Cr  Cr0  1  0.25000000  -0.00000000  0.50000000  1
  Cr  Cr1  1  0.75000000  -0.00000000  0.50000000  1
  Cr  Cr2  1  0.00000000  0.50000000  0.25000000  1
  Cr  Cr3  1  0.00000000  0.50000000  0.75000000  1
  Cr  Cr4  1  0.50000000  0.75000000  -0.00000000  1
  Cr  Cr5  1  0.50000000  0.25000000  -0.00000000  1
  Ge  Ge0  1  0.00000000  -0.00000000  -0.00000000  1
  Ge  Ge1  1  0.50000000  0.50000000  0.50000000  1
loop_
_geom_bond_atom_site_label_1
_geom_bond_atom_site_label_2
_geom_bond_distance
_geom_bond_site_symmetry_2
Cr0 Cr1 2.274697 1_455
Cr0 Cr1 2.274697 1_555
Cr0 Ge1 2.543189 1_545
Cr0 Ge0 2.543189 1_555
Cr0 Ge0 2.543189 1_556
Cr0 Ge1 2.543189 1_555
Cr1 Ge1 2.543189 1_545
Cr1 Ge0 2.543189 1_656
Cr1 Ge0 2.543189 1_655
Cr1 Ge1 2.543189 1_555
Cr2 Cr3 2.274697 1_554
Cr2 Cr3 2.274697 1_555
Cr2 Ge0 2.543189 1_555
Cr2 Ge0 2.543189 1_565
Cr2 Ge1 2.543189 1_455
Cr2 Ge1 2.543189 1_555
Cr3 Ge0 2.543189 1_556
Cr3 Ge0 2.543189 1_566
Cr3 Ge1 2.543189 1_455
Cr3 Ge1 2.543189 1_555
Cr4 Cr5 2.274697 1_565
Cr4 Cr5 2.274697 1_555
Cr4 Ge1 2.543189 1_554
Cr4 Ge0 2.543189 1_565
Cr4 Ge0 2.543189 1_665
Cr4 Ge1 2.543189 1_555
Cr5 Ge0 2.543189 1_555
Cr5 Ge0 2.543189 1_655
Cr5 Ge1 2.543189 1_555
Cr5 Ge1 2.543189 1_554
