# generated using pymatgen
data_Na2Mg2Ti2SiS5O24
_symmetry_space_group_name_H-M   'P 1'
_cell_length_a   8.65989696
_cell_length_b   8.64147616
_cell_length_c   22.57643539
_cell_angle_alpha   89.97140847
_cell_angle_beta   89.96388665
_cell_angle_gamma   119.98173527
_symmetry_Int_Tables_number   1
_chemical_formula_structural   Na2Mg2Ti2SiS5O24
_chemical_formula_sum   'Na6 Mg6 Ti6 Si3 S15 O72'
_cell_volume   1463.41090694
_cell_formula_units_Z   3
loop_
 _symmetry_equiv_pos_site_id
 _symmetry_equiv_pos_as_xyz
  1  'x, y, z'
loop_
 _atom_site_type_symbol
 _atom_site_label
 _atom_site_symmetry_multiplicity
 _atom_site_fract_x
 _atom_site_fract_y
 _atom_site_fract_z
 _atom_site_occupancy
  Na  Na0  1  0.00402930  0.00212272  0.49950104  1
  Na  Na1  1  0.99973566  0.99921320  0.99796042  1
  Na  Na2  1  0.66733108  0.32412904  0.82704751  1
  Na  Na3  1  0.65963896  0.32930668  0.33636792  1
  Na  Na4  1  0.32659537  0.66706567  0.16447530  1
  Na  Na5  1  0.33353183  0.66831103  0.66312773  1
  Mg  Mg0  1  0.00780994  0.00494150  0.35291844  1
  Mg  Mg1  1  0.00030181  0.00161370  0.85090726  1
  Mg  Mg2  1  0.66425535  0.32778342  0.68454308  1
  Mg  Mg3  1  0.66315676  0.33183621  0.48306616  1
  Mg  Mg4  1  0.32842010  0.66708086  0.01957733  1
  Mg  Mg5  1  0.33335543  0.66633962  0.51990624  1
  Ti  Ti0  1  0.98281520  0.99534912  0.64728982  1
  Ti  Ti1  1  0.01103357  0.98584486  0.14711883  1
  Ti  Ti2  1  0.67292497  0.33305202  0.18764147  1
  Ti  Ti3  1  0.68062391  0.34964749  0.97934304  1
  Ti  Ti4  1  0.33080907  0.67743517  0.31658804  1
  Ti  Ti5  1  0.34176815  0.67674910  0.80779442  1
  Si  Si0  1  0.29376932  0.00204886  0.25304716  1
  Si  Si1  1  0.71691453  0.01422880  0.75323612  1
  Si  Si2  1  0.96281494  0.62299549  0.08470413  1
  S  S0  1  0.70980896  0.71041664  0.25053487  1
  S  S1  1  0.00179918  0.28791321  0.25002512  1
  S  S2  1  0.28946769  0.28792517  0.75083990  1
  S  S3  1  0.99699411  0.71010663  0.75080415  1
  S  S4  1  0.95909367  0.33563160  0.58330762  1
  S  S5  1  0.37296651  0.04075309  0.58349916  1
  S  S6  1  0.66535240  0.62236000  0.58368501  1
  S  S7  1  0.66872471  0.04660900  0.08317816  1
  S  S8  1  0.38059827  0.33445193  0.08341110  1
  S  S9  1  0.62222694  0.66871901  0.91766334  1
  S  S10  1  0.04648963  0.37557481  0.91749249  1
  S  S11  1  0.33270302  0.95715674  0.91706626  1
  S  S12  1  0.62627216  0.95829963  0.41752256  1
  S  S13  1  0.33287192  0.37780021  0.41695510  1
  S  S14  1  0.04038581  0.66652747  0.41819450  1
  O  O0  1  0.20935127  0.03911106  0.30807926  1
  O  O1  1  0.81678272  0.78657018  0.30324178  1
  O  O2  1  0.96458531  0.18089752  0.30327357  1
  O  O3  1  0.21426370  0.18324218  0.80443157  1
  O  O4  1  0.97648970  0.79005461  0.80462742  1
  O  O5  1  0.82541603  0.02652953  0.80993159  1
  O  O6  1  0.80471960  0.96679563  0.69287247  1
  O  O7  1  0.17662515  0.20846685  0.69705444  1
  O  O8  1  0.03600515  0.82469367  0.69674345  1
  O  O9  1  0.79055752  0.82191071  0.19604101  1
  O  O10  1  0.02633421  0.20656531  0.19567644  1
  O  O11  1  0.16720550  0.96607764  0.19184926  1
  O  O12  1  0.87926763  0.36170783  0.63682792  1
  O  O13  1  0.48084970  0.12184065  0.63655110  1
  O  O14  1  0.64152195  0.51842056  0.63759446  1
  O  O15  1  0.85068578  0.49700350  0.14056927  1
  O  O16  1  0.63822637  0.12775971  0.13710389  1
  O  O17  1  0.48727881  0.35631972  0.13695940  1
  O  O18  1  0.45823551  0.29903500  0.02943358  1
  O  O19  1  0.82715176  0.52525660  0.02632895  1
  O  O20  1  0.69414226  0.15906432  0.02954114  1
  O  O21  1  0.44912970  0.14898723  0.52977195  1
  O  O22  1  0.70023745  0.54959013  0.53017198  1
  O  O23  1  0.85075747  0.29890475  0.52990280  1
  O  O24  1  0.54040973  0.69102406  0.97096924  1
  O  O25  1  0.14981940  0.45792965  0.97084773  1
  O  O26  1  0.30697995  0.84990051  0.96995137  1
  O  O27  1  0.54226015  0.84721033  0.46948542  1
  O  O28  1  0.30878751  0.46203286  0.46966296  1
  O  O29  1  0.15287128  0.69362913  0.46961877  1
  O  O30  1  0.13225632  0.64254651  0.36289036  1
  O  O31  1  0.50937163  0.86794851  0.36239372  1
  O  O32  1  0.35715021  0.49176707  0.36223647  1
  O  O33  1  0.12099907  0.48687970  0.86386474  1
  O  O34  1  0.36225636  0.87266249  0.86291528  1
  O  O35  1  0.51000976  0.63550537  0.86387320  1
  O  O36  1  0.02231738  0.82449008  0.40988451  1
  O  O37  1  0.80008927  0.97253442  0.40775212  1
  O  O38  1  0.17135012  0.20185102  0.41062770  1
  O  O39  1  0.02139643  0.19589735  0.91201457  1
  O  O40  1  0.17614348  0.97856600  0.90922706  1
  O  O41  1  0.80357156  0.81881036  0.91167824  1
  O  O42  1  0.98036239  0.17027436  0.59127928  1
  O  O43  1  0.19090681  0.02197477  0.59157422  1
  O  O44  1  0.83453775  0.80664996  0.59045538  1
  O  O45  1  0.96378800  0.81530610  0.09078298  1
  O  O46  1  0.83292574  0.03641804  0.09026128  1
  O  O47  1  0.19804706  0.17328959  0.08999280  1
  O  O48  1  0.67710031  0.17098513  0.74278433  1
  O  O49  1  0.46938769  0.31954593  0.74224189  1
  O  O50  1  0.84282723  0.53365918  0.74230306  1
  O  O51  1  0.68936813  0.52913765  0.24179775  1
  O  O52  1  0.84132380  0.31132412  0.24206317  1
  O  O53  1  0.49052570  0.17090334  0.23662969  1
  O  O54  1  0.63375497  0.49728267  0.92330322  1
  O  O55  1  0.86012659  0.35662182  0.92460661  1
  O  O56  1  0.49722403  0.13730215  0.92324787  1
  O  O57  1  0.63830193  0.13383850  0.42029568  1
  O  O58  1  0.49557801  0.36293644  0.42028583  1
  O  O59  1  0.86616830  0.50135453  0.42052095  1
  O  O60  1  0.36506439  0.49426920  0.07683583  1
  O  O61  1  0.15352338  0.64455867  0.07940657  1
  O  O62  1  0.51185035  0.86904968  0.07683537  1
  O  O63  1  0.35120174  0.86025358  0.57692911  1
  O  O64  1  0.51194857  0.65037702  0.57761822  1
  O  O65  1  0.13993836  0.49023652  0.57693850  1
  O  O66  1  0.31469704  0.82100819  0.25907731  1
  O  O67  1  0.52843992  0.68771106  0.25567262  1
  O  O68  1  0.16197990  0.46932335  0.25599548  1
  O  O69  1  0.30075122  0.46925711  0.75808347  1
  O  O70  1  0.16266808  0.69153789  0.75744206  1
  O  O71  1  0.51443249  0.82028341  0.75992644  1
loop_
_geom_bond_atom_site_label_1
_geom_bond_atom_site_label_2
_geom_bond_distance
_geom_bond_site_symmetry_2
Na0 O38 2.568589 1_555
Na0 O43 2.587760 1_555
Na0 O36 2.592378 1_545
Na0 O44 2.595960 1_445
Na0 O42 2.597470 1_455
Na0 O37 2.651198 1_445
Na1 O39 2.523200 1_665
Na1 O41 2.543811 1_555
Na1 O45 2.552548 1_556
Na1 O40 2.578310 1_655
Na1 O47 2.637219 1_666
Na1 O46 2.644519 1_566
Na2 O48 2.343439 1_555
Na2 O50 2.547789 1_555
Na2 O49 2.557740 1_555
Na2 O56 2.666274 1_555
Na2 O55 2.693372 1_555
Na2 O54 2.735536 1_555
Na3 O58 2.470260 1_555
Na3 O57 2.482331 1_555
Na3 O59 2.523539 1_555
Na3 O53 2.663168 1_555
Na3 O51 2.675445 1_555
Na3 O52 2.696856 1_555
Na4 O61 2.384397 1_555
Na4 O66 2.545856 1_555
Na4 O62 2.594043 1_555
Na4 O60 2.598994 1_555
Na4 O68 2.603742 1_555
Na4 O67 2.649436 1_555
Na5 O63 2.510870 1_555
Na5 O64 2.524668 1_555
Na5 O65 2.528564 1_555
Na5 O71 2.627863 1_555
Na5 O70 2.656465 1_555
Na5 O69 2.672571 1_555
Mg0 O0 1.908017 1_555
Mg0 O38 2.048078 1_555
Mg0 O2 2.067843 1_455
Mg0 O36 2.072544 1_545
Mg0 O37 2.083299 1_445
Mg0 O1 2.107101 1_445
Mg1 O5 1.877046 1_455
Mg1 O3 2.021612 1_555
Mg1 O4 2.025302 1_445
Mg1 O40 2.097011 1_545
Mg1 O39 2.109840 1_555
Mg1 O41 2.141348 1_445
Mg2 O48 1.930354 1_555
Mg2 O13 2.010671 1_555
Mg2 O12 2.040826 1_555
Mg2 O14 2.049087 1_555
Mg2 O49 2.103989 1_555
Mg2 O50 2.124180 1_555
Mg3 O21 2.027979 1_555
Mg3 O22 2.042908 1_555
Mg3 O23 2.074212 1_555
Mg3 O58 2.139898 1_555
Mg3 O57 2.148680 1_555
Mg3 O59 2.156714 1_555
Mg4 O61 1.964402 1_555
Mg4 O26 2.019219 1_554
Mg4 O25 2.019741 1_554
Mg4 O24 2.057885 1_554
Mg4 O60 2.115199 1_555
Mg4 O62 2.115276 1_555
Mg5 O28 2.018874 1_555
Mg5 O29 2.039064 1_555
Mg5 O27 2.044781 1_555
Mg5 O65 2.055974 1_555
Mg5 O63 2.057369 1_555
Mg5 O64 2.079472 1_555
O0 Si0 1.553672 1_555
O1 S0 1.449162 1_555
O2 S1 1.450791 1_655
O3 S2 1.454458 1_555
O4 S3 1.452089 1_555
O5 Si1 1.560241 1_555
O6 Si1 1.707092 1_565
O6 Ti0 1.765213 1_555
O7 S2 1.494188 1_555
O7 Ti0 2.094292 1_445
O8 S3 1.499394 1_455
O8 Ti0 2.076393 1_455
O9 S0 1.501739 1_555
O9 Ti1 2.040751 1_655
O10 S1 1.481432 1_555
O10 Ti1 2.146394 1_545
O11 Si0 1.693706 1_565
O11 Ti1 1.763661 1_555
O12 S4 1.464083 1_555
O13 S5 1.465040 1_555
O14 S6 1.464227 1_555
O15 Si2 1.630784 1_555
O15 Ti2 1.822919 1_555
O16 S7 1.493073 1_555
O16 Ti2 2.002231 1_555
O17 S8 1.475757 1_555
O17 Ti2 2.063845 1_555
O18 S8 1.495235 1_555
O18 Ti3 2.081827 1_554
O19 Si2 1.685763 1_555
O19 Ti3 1.765509 1_554
O20 S7 1.497955 1_555
O20 Ti3 2.049733 1_554
O21 S5 1.470516 1_555
O22 S6 1.461662 1_555
O23 S4 1.462469 1_555
O24 S9 1.457094 1_555
O25 S10 1.457368 1_555
O26 S11 1.458225 1_555
O27 S12 1.458382 1_555
O28 S13 1.463424 1_555
O29 S14 1.457840 1_555
O30 S14 1.548748 1_555
O30 Ti4 1.902483 1_555
O31 S12 1.547931 1_555
O31 Ti4 1.905333 1_555
O32 S13 1.526998 1_555
O32 Ti4 2.013160 1_555
O33 S10 1.478141 1_555
O33 Ti5 2.193027 1_555
O34 S11 1.510126 1_555
O34 Ti5 2.036773 1_555
O35 S9 1.491498 1_555
O35 Ti5 2.091293 1_555
O36 S14 1.461588 1_555
O37 S12 1.464250 1_555
O38 S13 1.470926 1_555
O39 S10 1.461620 1_555
O40 S11 1.467882 1_555
O41 S9 1.459642 1_555
O42 S4 1.539800 1_555
O42 Ti0 1.978546 1_545
O43 S5 1.513010 1_555
O43 Ti0 2.113054 1_445
O44 S6 1.541000 1_555
O44 Ti0 1.966133 1_555
O45 Si2 1.663393 1_555
O45 Ti1 1.832143 1_655
O46 S7 1.476732 1_555
O46 Ti1 2.212090 1_645
O47 S8 1.503284 1_555
O47 Ti1 2.069627 1_545
O48 Si1 1.573560 1_555
O49 S2 1.453973 1_555
O50 S3 1.452662 1_555
O51 S0 1.499143 1_555
O51 Ti2 2.036547 1_555
O52 S1 1.511877 1_655
O52 Ti2 1.986759 1_555
O53 Si0 1.638154 1_555
O53 Ti2 1.861655 1_555
O54 S9 1.539011 1_555
O54 Ti3 1.977274 1_555
O55 S10 1.546839 1_655
O55 Ti3 1.962392 1_555
O56 S11 1.502167 1_545
O56 Ti3 2.141389 1_555
O57 S12 1.469002 1_545
O58 S13 1.479354 1_555
O59 S14 1.470995 1_655
O60 S8 1.460463 1_555
O61 Si2 1.571206 1_455
O62 S7 1.462026 1_565
O63 S5 1.482190 1_565
O64 S6 1.470998 1_555
O65 S4 1.471945 1_455
O66 Si0 1.667963 1_565
O66 Ti4 1.848298 1_555
O67 S0 1.486808 1_555
O67 Ti4 2.161789 1_555
O68 S1 1.492301 1_555
O68 Ti4 2.149468 1_555
O69 S2 1.529362 1_555
O69 Ti5 1.991650 1_555
O70 S3 1.528713 1_455
O70 Ti5 1.978468 1_555
O71 Si1 1.722972 1_565
O71 Ti5 1.756460 1_555
