# generated using pymatgen
data_NaCaNbP2SO12
_symmetry_space_group_name_H-M   'P 1'
_cell_length_a   9.03476176
_cell_length_b   9.03476145
_cell_length_c   23.11250452
_cell_angle_alpha   90.74830658
_cell_angle_beta   89.25169341
_cell_angle_gamma   120.20466994
_symmetry_Int_Tables_number   1
_chemical_formula_structural   NaCaNbP2SO12
_chemical_formula_sum   'Na6 Ca6 Nb6 P12 S6 O72'
_cell_volume   1630.28061337
_cell_formula_units_Z   6
loop_
 _symmetry_equiv_pos_site_id
 _symmetry_equiv_pos_as_xyz
  1  'x, y, z'
loop_
 _atom_site_type_symbol
 _atom_site_label
 _atom_site_symmetry_multiplicity
 _atom_site_fract_x
 _atom_site_fract_y
 _atom_site_fract_z
 _atom_site_occupancy
  Na  Na0  1  0.98909708  0.98510839  0.49373225  1
  Na  Na1  1  0.01489161  0.01090292  0.99373225  1
  Na  Na2  1  0.65576408  0.31844139  0.82706525  1
  Na  Na3  1  0.68155861  0.34423592  0.32706525  1
  Na  Na4  1  0.32243008  0.65177539  0.16039925  1
  Na  Na5  1  0.34822461  0.67756992  0.66039925  1
  Ca  Ca0  1  0.99580798  0.99691354  0.35419392  1
  Ca  Ca1  1  0.00308646  0.00419202  0.85419392  1
  Ca  Ca2  1  0.66247498  0.33024654  0.68752692  1
  Ca  Ca3  1  0.66975346  0.33752502  0.18752692  1
  Ca  Ca4  1  0.32914098  0.66358054  0.02086092  1
  Ca  Ca5  1  0.33641946  0.67085902  0.52086092  1
  Nb  Nb0  1  0.99918337  0.00630953  0.64680276  1
  Nb  Nb1  1  0.99369047  0.00081663  0.14680276  1
  Nb  Nb2  1  0.66585037  0.33964253  0.98013576  1
  Nb  Nb3  1  0.66035747  0.33414963  0.48013576  1
  Nb  Nb4  1  0.33251637  0.67297653  0.31346976  1
  Nb  Nb5  1  0.32702347  0.66748363  0.81346976  1
  P  P0  1  0.70020281  0.71135663  0.25169451  1
  P  P1  1  0.00962948  0.29787271  0.25245468  1
  P  P2  1  0.28864337  0.29979719  0.75169451  1
  P  P3  1  0.70212729  0.99037052  0.75245468  1
  P  P4  1  0.36686981  0.04468963  0.58502751  1
  P  P5  1  0.67629648  0.63120571  0.58578768  1
  P  P6  1  0.95531037  0.63313019  0.08502751  1
  P  P7  1  0.36879429  0.32370352  0.08578768  1
  P  P8  1  0.03353581  0.37802363  0.91836151  1
  P  P9  1  0.34296248  0.96453971  0.91912168  1
  P  P10  1  0.62197637  0.96646419  0.41836151  1
  P  P11  1  0.03546029  0.65703752  0.41912168  1
  S  S0  1  0.28564387  0.98888749  0.24996636  1
  S  S1  1  0.01111251  0.71435613  0.74996636  1
  S  S2  1  0.95231087  0.32222049  0.58329936  1
  S  S3  1  0.67777951  0.04768913  0.08329936  1
  S  S4  1  0.61897687  0.65555449  0.91663336  1
  S  S5  1  0.34444551  0.38102313  0.41663336  1
  O  O0  1  0.21296293  0.01227618  0.30234819  1
  O  O1  1  0.80566729  0.79207848  0.30392553  1
  O  O2  1  0.99381937  0.19708183  0.30471856  1
  O  O3  1  0.20792152  0.19433271  0.80392553  1
  O  O4  1  0.98772382  0.78703707  0.80234819  1
  O  O5  1  0.80291817  0.00618063  0.80471856  1
  O  O6  1  0.80012360  0.96770034  0.69575172  1
  O  O7  1  0.16710514  0.19997233  0.69592949  1
  O  O8  1  0.03567001  0.82347718  0.69742282  1
  O  O9  1  0.80002767  0.83289486  0.19592949  1
  O  O10  1  0.03229966  0.19987640  0.19575172  1
  O  O11  1  0.17652282  0.96432999  0.19742282  1
  O  O12  1  0.87962993  0.34560918  0.63568119  1
  O  O13  1  0.47233429  0.12541148  0.63725853  1
  O  O14  1  0.66048637  0.53041483  0.63805156  1
  O  O15  1  0.87458852  0.52766571  0.13725853  1
  O  O16  1  0.65439082  0.12037007  0.13568119  1
  O  O17  1  0.46958517  0.33951363  0.13805156  1
  O  O18  1  0.46679060  0.30103334  0.02908472  1
  O  O19  1  0.83377214  0.53330533  0.02926249  1
  O  O20  1  0.70233701  0.15681018  0.03075582  1
  O  O21  1  0.46669467  0.16622786  0.52926249  1
  O  O22  1  0.69896666  0.53320940  0.52908472  1
  O  O23  1  0.84318982  0.29766299  0.53075582  1
  O  O24  1  0.54629593  0.67894318  0.96901519  1
  O  O25  1  0.13900029  0.45874548  0.97059253  1
  O  O26  1  0.32715237  0.86374883  0.97138556  1
  O  O27  1  0.54125452  0.86099971  0.47059253  1
  O  O28  1  0.32105682  0.45370407  0.46901519  1
  O  O29  1  0.13625117  0.67284763  0.47138556  1
  O  O30  1  0.13345660  0.63436734  0.36241872  1
  O  O31  1  0.50043814  0.86663933  0.36259649  1
  O  O32  1  0.36900301  0.49014418  0.36408982  1
  O  O33  1  0.13336067  0.49956186  0.86259649  1
  O  O34  1  0.36563266  0.86654340  0.86241872  1
  O  O35  1  0.50985582  0.63099699  0.86408982  1
  O  O36  1  0.00502917  0.80449948  0.41143997  1
  O  O37  1  0.80382914  0.00696480  0.41077530  1
  O  O38  1  0.20545403  0.20529026  0.40956120  1
  O  O39  1  0.99303520  0.19617086  0.91077530  1
  O  O40  1  0.19550052  0.99497083  0.91143997  1
  O  O41  1  0.79470974  0.79454597  0.90956120  1
  O  O42  1  0.95857122  0.15495089  0.58726828  1
  O  O43  1  0.18908269  0.04333631  0.59094550  1
  O  O44  1  0.85032585  0.81312869  0.59106896  1
  O  O45  1  0.95666369  0.81091731  0.09094550  1
  O  O46  1  0.84504911  0.04142878  0.08726828  1
  O  O47  1  0.18687131  0.14967415  0.09106896  1
  O  O48  1  0.67169617  0.13783248  0.74477297  1
  O  O49  1  0.47049614  0.34029780  0.74410830  1
  O  O50  1  0.87212103  0.53862326  0.74289420  1
  O  O51  1  0.65970220  0.52950386  0.24410830  1
  O  O52  1  0.86216752  0.32830383  0.24477297  1
  O  O53  1  0.46137674  0.12787897  0.24289420  1
  O  O54  1  0.62523822  0.48828389  0.92060128  1
  O  O55  1  0.85574969  0.37666931  0.92427850  1
  O  O56  1  0.51699285  0.14646169  0.92440196  1
  O  O57  1  0.62333069  0.14425031  0.42427850  1
  O  O58  1  0.51171611  0.37476178  0.42060128  1
  O  O59  1  0.85353831  0.48300715  0.42440196  1
  O  O60  1  0.33836217  0.47116648  0.07810697  1
  O  O61  1  0.13716214  0.67363180  0.07744230  1
  O  O62  1  0.53878703  0.87195726  0.07622820  1
  O  O63  1  0.32636820  0.86283786  0.57744230  1
  O  O64  1  0.52883352  0.66163783  0.57810697  1
  O  O65  1  0.12804274  0.46121297  0.57622820  1
  O  O66  1  0.29190422  0.82161789  0.25393528  1
  O  O67  1  0.52241569  0.71000331  0.25761250  1
  O  O68  1  0.18365885  0.47979569  0.25773596  1
  O  O69  1  0.28999669  0.47758431  0.75761250  1
  O  O70  1  0.17838211  0.70809578  0.75393528  1
  O  O71  1  0.52020431  0.81634115  0.75773596  1
loop_
_geom_bond_atom_site_label_1
_geom_bond_atom_site_label_2
_geom_bond_distance
_geom_bond_site_symmetry_2
Na0 O36 2.539488 1_655
Na0 O37 2.635008 1_565
Na0 O44 2.665489 1_555
Na0 O42 2.725419 1_565
Na0 O38 2.766233 1_665
Na0 O43 2.776405 1_665
Na1 O40 2.539488 1_545
Na1 O39 2.635008 1_455
Na1 O47 2.665489 1_556
Na1 O46 2.725419 1_456
Na1 O41 2.766233 1_445
Na1 O45 2.776405 1_446
Na2 O48 2.539488 1_555
Na2 O49 2.635008 1_555
Na2 O56 2.665489 1_555
Na2 O54 2.725419 1_555
Na2 O50 2.766233 1_555
Na2 O55 2.776405 1_555
Na3 O52 2.539488 1_555
Na3 O51 2.635008 1_555
Na3 O59 2.665489 1_555
Na3 O58 2.725419 1_555
Na3 O53 2.766233 1_555
Na3 O57 2.776405 1_555
Na4 O60 2.539488 1_555
Na4 O61 2.635008 1_555
Na4 O68 2.665489 1_555
Na4 O66 2.725419 1_555
Na4 O62 2.766233 1_555
Na4 O67 2.776405 1_555
Na5 O64 2.539488 1_555
Na5 O63 2.635008 1_555
Na5 O71 2.665489 1_555
Na5 O70 2.725419 1_555
Na5 O65 2.766233 1_555
Na5 O69 2.776405 1_555
Ca0 O1 2.126724 1_555
Ca0 O2 2.160031 1_565
Ca0 O37 2.196131 1_565
Ca0 O0 2.230093 1_665
Ca0 O36 2.233451 1_655
Ca0 O38 2.276389 1_665
Ca1 O3 2.126724 1_555
Ca1 O5 2.160031 1_455
Ca1 O39 2.196131 1_455
Ca1 O4 2.230092 1_445
Ca1 O40 2.233451 1_545
Ca1 O41 2.276389 1_445
Ca2 O13 2.126724 1_555
Ca2 O14 2.160031 1_555
Ca2 O49 2.196131 1_555
Ca2 O12 2.230093 1_555
Ca2 O48 2.233451 1_555
Ca2 O50 2.276389 1_555
Ca3 O15 2.126724 1_555
Ca3 O17 2.160031 1_555
Ca3 O51 2.196131 1_555
Ca3 O16 2.230092 1_555
Ca3 O52 2.233451 1_555
Ca3 O53 2.276389 1_555
Ca4 O25 2.126724 1_554
Ca4 O26 2.160031 1_554
Ca4 O61 2.196131 1_555
Ca4 O24 2.230093 1_554
Ca4 O60 2.233451 1_555
Ca4 O62 2.276389 1_555
Ca5 O27 2.126724 1_555
Ca5 O29 2.160031 1_555
Ca5 O63 2.196131 1_555
Ca5 O28 2.230092 1_555
Ca5 O64 2.233451 1_555
Ca5 O65 2.276389 1_555
Nb0 O6 1.990473 1_545
Nb0 O7 1.993623 1_655
Nb0 O43 2.024385 1_655
Nb0 O44 2.034454 1_545
Nb0 O42 2.094927 1_555
Nb0 O8 2.194199 1_645
Nb1 O10 1.990473 1_655
Nb1 O9 1.993623 1_545
Nb1 O45 2.024384 1_545
Nb1 O47 2.034454 1_655
Nb1 O46 2.094927 1_555
Nb1 O11 2.194199 1_645
Nb2 O18 1.990473 1_556
Nb2 O19 1.993623 1_556
Nb2 O55 2.024385 1_555
Nb2 O56 2.034454 1_555
Nb2 O54 2.094927 1_555
Nb2 O20 2.194199 1_556
Nb3 O22 1.990473 1_555
Nb3 O21 1.993623 1_555
Nb3 O57 2.024384 1_555
Nb3 O59 2.034454 1_555
Nb3 O58 2.094927 1_555
Nb3 O23 2.194199 1_555
Nb4 O30 1.990473 1_555
Nb4 O31 1.993623 1_555
Nb4 O67 2.024385 1_555
Nb4 O68 2.034454 1_555
Nb4 O66 2.094927 1_555
Nb4 O32 2.194199 1_555
Nb5 O34 1.990473 1_555
Nb5 O33 1.993623 1_555
Nb5 O69 2.024384 1_555
Nb5 O71 2.034454 1_555
Nb5 O70 2.094927 1_555
Nb5 O35 2.194199 1_555
O0 S0 1.433092 1_545
O1 P0 1.484906 1_555
O2 P1 1.483955 1_655
O3 P2 1.484906 1_555
O4 S1 1.433092 1_655
O5 P3 1.483955 1_545
O6 P3 1.639669 1_555
O7 P2 1.640272 1_555
O8 S1 1.516619 1_555
O9 P0 1.640272 1_555
O10 P1 1.639669 1_555
O11 S0 1.516619 1_555
O12 S2 1.433092 1_555
O13 P4 1.484906 1_555
O14 P5 1.483955 1_555
O15 P6 1.484906 1_555
O16 S3 1.433092 1_555
O17 P7 1.483955 1_555
O18 P7 1.639669 1_555
O19 P6 1.640272 1_555
O20 S3 1.516619 1_555
O21 P4 1.640272 1_555
O22 P5 1.639669 1_555
O23 S2 1.516619 1_555
O24 S4 1.433092 1_555
O25 P8 1.484906 1_555
O26 P9 1.483955 1_555
O27 P10 1.484906 1_555
O28 S5 1.433092 1_555
O29 P11 1.483955 1_555
O30 P11 1.639669 1_555
O31 P10 1.640272 1_555
O32 S5 1.516619 1_555
O33 P8 1.640272 1_555
O34 P9 1.639669 1_555
O35 S4 1.516619 1_555
O36 P11 1.502699 1_555
O37 P10 1.501104 1_545
O38 S5 1.454969 1_555
O39 P8 1.501104 1_655
O40 P9 1.502699 1_555
O41 S4 1.454969 1_555
O42 S2 1.544417 1_555
O43 P4 1.604209 1_555
O44 P5 1.608754 1_555
O45 P6 1.604209 1_555
O46 S3 1.544417 1_555
O47 P7 1.608754 1_555
O48 P3 1.502699 1_545
O49 P2 1.501104 1_555
O50 S1 1.454969 1_655
O51 P0 1.501104 1_555
O52 P1 1.502699 1_655
O53 S0 1.454969 1_545
O54 S4 1.544429 1_555
O55 P8 1.604194 1_655
O56 P9 1.608751 1_545
O57 P10 1.604194 1_545
O58 S5 1.544429 1_555
O59 P11 1.608751 1_655
O60 P7 1.502711 1_555
O61 P6 1.501090 1_455
O62 S3 1.454964 1_565
O63 P4 1.501090 1_565
O64 P5 1.502711 1_555
O65 S2 1.454964 1_455
O66 S0 1.544417 1_555
O67 P0 1.604209 1_555
O68 P1 1.608754 1_555
O69 P2 1.604209 1_555
O70 S1 1.544417 1_555
O71 P3 1.608754 1_555
