# generated using pymatgen
data_MgMn6(O5F)2
_symmetry_space_group_name_H-M   'P 1'
_cell_length_a   5.08276056
_cell_length_b   7.51397419
_cell_length_c   5.70702882
_cell_angle_alpha   98.10400689
_cell_angle_beta   99.13137872
_cell_angle_gamma   84.44047023
_symmetry_Int_Tables_number   1
_chemical_formula_structural   MgMn6(O5F)2
_chemical_formula_sum   'Mg1 Mn6 O10 F2'
_cell_volume   212.43022857
_cell_formula_units_Z   1
loop_
 _symmetry_equiv_pos_site_id
 _symmetry_equiv_pos_as_xyz
  1  'x, y, z'
loop_
 _atom_site_type_symbol
 _atom_site_label
 _atom_site_symmetry_multiplicity
 _atom_site_fract_x
 _atom_site_fract_y
 _atom_site_fract_z
 _atom_site_occupancy
  Mg  Mg0  1  0.50007654  0.16067855  0.16095062  1
  Mn  Mn0  1  0.43527739  0.96911514  0.54543041  1
  Mn  Mn1  1  0.49989491  0.66067462  0.16113369  1
  Mn  Mn2  1  0.56469390  0.35235084  0.77658008  1
  Mn  Mn3  1  -0.00007677  0.66071110  0.66110447  1
  Mn  Mn4  1  0.00349696  0.32412689  0.32200052  1
  Mn  Mn5  1  0.99659125  0.99733915  -0.00002957  1
  O  O0  1  0.86898452  0.42328339  0.60623152  1
  O  O1  1  0.87288713  0.09822481  0.29850661  1
  O  O2  1  0.64721675  0.08949233  0.83520930  1
  O  O3  1  0.65023160  0.74618911  0.48703681  1
  O  O4  1  0.66335832  0.40865877  0.13084636  1
  O  O5  1  0.34940832  0.57510537  0.83528026  1
  O  O6  1  0.35291112  0.23196900  0.48673743  1
  O  O7  1  0.33675766  0.91278670  0.19112991  1
  O  O8  1  0.12726643  0.22323091  0.02345247  1
  O  O9  1  0.13098407  0.89810821  0.71574417  1
  F  F0  1  0.84132462  0.76806297  -0.00129647  1
  F  F1  1  0.15871528  0.55346415  0.32347440  1
loop_
_geom_bond_atom_site_label_1
_geom_bond_atom_site_label_2
_geom_bond_distance
_geom_bond_site_symmetry_2
Mg0 O1 1.971444 1_555
Mg0 O8 1.971499 1_555
Mg0 O2 2.093988 1_554
Mg0 O6 2.094360 1_555
Mg0 O7 2.150267 1_545
Mg0 O4 2.150671 1_555
Mn0 O3 1.927214 1_555
Mn0 O2 1.978676 1_565
Mn0 O7 1.999199 1_555
Mn0 O6 2.042107 1_565
Mn0 O9 2.098763 1_555
Mn1 O3 1.939903 1_555
Mn1 O5 1.939967 1_554
Mn1 O4 1.988594 1_555
Mn1 O7 1.988653 1_555
Mn2 O5 1.927303 1_555
Mn2 O6 1.978577 1_555
Mn2 O4 1.999082 1_556
Mn2 O2 2.042111 1_555
Mn2 O0 2.098656 1_555
Mn3 O0 1.931356 1_455
Mn3 O9 1.931425 1_555
Mn3 O5 1.988894 1_555
Mn3 O3 1.989172 1_455
Mn4 O1 1.861679 1_455
Mn4 O0 1.888482 1_455
Mn4 O8 1.938333 1_555
Mn4 O6 1.983142 1_555
Mn4 O4 1.991588 1_455
Mn5 O8 1.861758 1_665
Mn5 O9 1.888313 1_654
Mn5 O1 1.938113 1_565
Mn5 O2 1.983024 1_564
Mn5 O7 1.991756 1_655
F0 Mn5 1.961868 1_555
F0 Mn3 2.222929 1_654
F0 Mn1 2.348378 1_555
F1 Mn4 1.961953 1_555
F1 Mn3 2.223379 1_555
F1 Mn1 2.346401 1_555
