# generated using pymatgen
data_MgMnCoO4
_symmetry_space_group_name_H-M   'P 1'
_cell_length_a   5.08415096
_cell_length_b   2.98735264
_cell_length_c   4.94212008
_cell_angle_alpha   90.00001665
_cell_angle_beta   74.22789346
_cell_angle_gamma   89.99999951
_symmetry_Int_Tables_number   1
_chemical_formula_structural   MgMnCoO4
_chemical_formula_sum   'Mg1 Mn1 Co1 O4'
_cell_volume   72.23563065
_cell_formula_units_Z   1
loop_
 _symmetry_equiv_pos_site_id
 _symmetry_equiv_pos_as_xyz
  1  'x, y, z'
loop_
 _atom_site_type_symbol
 _atom_site_label
 _atom_site_symmetry_multiplicity
 _atom_site_fract_x
 _atom_site_fract_y
 _atom_site_fract_z
 _atom_site_occupancy
  Mg  Mg0  1  0.00000000  0.50000000  0.50000000  1
  Mn  Mn0  1  0.50000000  0.50000000  0.00000000  1
  Co  Co0  1  0.50000000  0.00000000  0.50000000  1
  O  O0  1  0.72911800  0.00000000  0.74807900  1
  O  O1  1  0.71522800  0.50000000  0.27219900  1
  O  O2  1  0.28477200  0.50000000  0.72780100  1
  O  O3  1  0.27088200  0.00000000  0.25192100  1
loop_
_geom_bond_atom_site_label_1
_geom_bond_atom_site_label_2
_geom_bond_distance
_geom_bond_site_symmetry_2
Mg0 O2 2.061496 1_555
Mg0 O1 2.061496 1_455
Mg0 O3 2.170948 1_555
Mg0 O0 2.170948 1_465
Mg0 O3 2.170949 1_565
Mg0 O0 2.170949 1_455
Mn0 O1 1.951227 1_555
Mn0 O2 1.951227 1_554
Mn0 O3 2.085585 1_565
Mn0 O0 2.085585 1_554
Mn0 O3 2.085585 1_555
Mn0 O0 2.085585 1_564
Co0 O0 1.906955 1_555
Co0 O3 1.906955 1_555
Co0 O2 2.006544 1_555
Co0 O1 2.006544 1_545
Co0 O2 2.006544 1_545
Co0 O1 2.006544 1_555
