# generated using pymatgen
data_NaTaTiSi2SO12
_symmetry_space_group_name_H-M   'P 1'
_cell_length_a   8.84953334
_cell_length_b   8.79041957
_cell_length_c   22.71830058
_cell_angle_alpha   91.10154135
_cell_angle_beta   90.00000000
_cell_angle_gamma   120.22270487
_symmetry_Int_Tables_number   1
_chemical_formula_structural   NaTaTiSi2SO12
_chemical_formula_sum   'Na6 Ta6 Ti6 Si12 S6 O72'
_cell_volume   1526.68677559
_cell_formula_units_Z   6
loop_
 _symmetry_equiv_pos_site_id
 _symmetry_equiv_pos_as_xyz
  1  'x, y, z'
loop_
 _atom_site_type_symbol
 _atom_site_label
 _atom_site_symmetry_multiplicity
 _atom_site_fract_x
 _atom_site_fract_y
 _atom_site_fract_z
 _atom_site_occupancy
  Na  Na0  1  0.00877034  0.00693604  0.49740926  1
  Na  Na1  1  0.99816570  0.00693604  0.99740926  1
  Na  Na2  1  0.67543734  0.34026904  0.83074226  1
  Na  Na3  1  0.66483270  0.34026904  0.33074226  1
  Na  Na4  1  0.34210334  0.67360304  0.16407626  1
  Na  Na5  1  0.33149870  0.67360304  0.66407626  1
  Ta  Ta0  1  0.00017336  0.99482970  0.64520305  1
  Ta  Ta1  1  0.99465634  0.99482970  0.14520305  1
  Ta  Ta2  1  0.66684036  0.32816270  0.97853605  1
  Ta  Ta3  1  0.66132334  0.32816270  0.47853605  1
  Ta  Ta4  1  0.33350636  0.66149670  0.31187005  1
  Ta  Ta5  1  0.32798934  0.66149670  0.81187005  1
  Ti  Ti0  1  0.01775697  0.98773809  0.35450185  1
  Ti  Ti1  1  0.96998112  0.98773809  0.85450185  1
  Ti  Ti2  1  0.68442397  0.32107109  0.68783485  1
  Ti  Ti3  1  0.63664812  0.32107109  0.18783485  1
  Ti  Ti4  1  0.35108997  0.65440509  0.02116885  1
  Ti  Ti5  1  0.30331412  0.65440509  0.52116885  1
  Si  Si0  1  0.28820620  0.99778216  0.24970696  1
  Si  Si1  1  0.71543263  0.70966903  0.25085419  1
  Si  Si2  1  0.99423641  0.70966903  0.75085419  1
  Si  Si3  1  0.70957595  0.99778216  0.74970696  1
  Si  Si4  1  0.95487320  0.33111516  0.58303996  1
  Si  Si5  1  0.38209963  0.04300203  0.58418719  1
  Si  Si6  1  0.66090341  0.04300203  0.08418719  1
  Si  Si7  1  0.37624295  0.33111516  0.08303996  1
  Si  Si8  1  0.62153920  0.66444916  0.91637396  1
  Si  Si9  1  0.04876563  0.37633603  0.91752119  1
  Si  Si10  1  0.32756941  0.37633603  0.41752119  1
  Si  Si11  1  0.04290895  0.66444916  0.41637396  1
  S  S0  1  0.99529025  0.28453947  0.25121301  1
  S  S1  1  0.28924922  0.28453947  0.75121301  1
  S  S2  1  0.66195725  0.61787247  0.58454601  1
  S  S3  1  0.95591622  0.61787247  0.08454601  1
  S  S4  1  0.32862325  0.95120647  0.91788001  1
  S  S5  1  0.62258222  0.95120647  0.41788001  1
  O  O0  1  0.20021302  0.03234947  0.30777761  1
  O  O1  1  0.83704588  0.81291485  0.30811718  1
  O  O2  1  0.97266256  0.18180827  0.30300660  1
  O  O3  1  0.20914571  0.18180827  0.80300660  1
  O  O4  1  0.97586897  0.81291485  0.80811718  1
  O  O5  1  0.83213645  0.03234947  0.80777761  1
  O  O6  1  0.80647401  0.97078617  0.69252721  1
  O  O7  1  0.17778806  0.20727832  0.69651815  1
  O  O8  1  0.03060447  0.83443578  0.69291768  1
  O  O9  1  0.80383131  0.83443578  0.19291768  1
  O  O10  1  0.02949027  0.20727832  0.19651815  1
  O  O11  1  0.16431216  0.97078617  0.19252721  1
  O  O12  1  0.86688002  0.36568247  0.64111061  1
  O  O13  1  0.50371288  0.14624785  0.64145018  1
  O  O14  1  0.63932956  0.51514127  0.63633960  1
  O  O15  1  0.87581271  0.51514127  0.13633960  1
  O  O16  1  0.64253597  0.14624785  0.14145018  1
  O  O17  1  0.49880345  0.36568247  0.14111061  1
  O  O18  1  0.47314101  0.30411917  0.02586021  1
  O  O19  1  0.84445506  0.54061132  0.02985115  1
  O  O20  1  0.69727147  0.16776878  0.02625068  1
  O  O21  1  0.47049831  0.16776878  0.52625068  1
  O  O22  1  0.69615727  0.54061132  0.52985115  1
  O  O23  1  0.83097916  0.30411917  0.52586021  1
  O  O24  1  0.53354602  0.69901647  0.97444461  1
  O  O25  1  0.17037888  0.47958185  0.97478418  1
  O  O26  1  0.30599556  0.84847527  0.96967360  1
  O  O27  1  0.54247871  0.84847527  0.46967360  1
  O  O28  1  0.30920197  0.47958185  0.47478418  1
  O  O29  1  0.16546945  0.69901647  0.47444461  1
  O  O30  1  0.13980701  0.63745317  0.35919421  1
  O  O31  1  0.51112106  0.87394532  0.36318515  1
  O  O32  1  0.36393747  0.50110278  0.35958468  1
  O  O33  1  0.13716431  0.50110278  0.85958468  1
  O  O34  1  0.36282327  0.87394532  0.86318515  1
  O  O35  1  0.49764516  0.63745317  0.85919421  1
  O  O36  1  0.02165592  0.83714553  0.40994758  1
  O  O37  1  0.79790195  0.97819402  0.40940709  1
  O  O38  1  0.15228501  0.18576885  0.40798766  1
  O  O39  1  0.03348384  0.18576885  0.90798766  1
  O  O40  1  0.18029207  0.97819402  0.90940709  1
  O  O41  1  0.81548961  0.83714553  0.90994758  1
  O  O42  1  0.97458880  0.15800884  0.59189913  1
  O  O43  1  0.18695258  0.02243965  0.59201613  1
  O  O44  1  0.82736364  0.79737576  0.58898968  1
  O  O45  1  0.97001212  0.79737576  0.08898968  1
  O  O46  1  0.83548707  0.02243965  0.09201613  1
  O  O47  1  0.18342004  0.15800884  0.09189913  1
  O  O48  1  0.68832292  0.17047853  0.74328058  1
  O  O49  1  0.46456895  0.31152702  0.74274009  1
  O  O50  1  0.81895201  0.51910185  0.74132066  1
  O  O51  1  0.70015084  0.51910185  0.24132066  1
  O  O52  1  0.84695907  0.31152702  0.24274009  1
  O  O53  1  0.48215661  0.17047853  0.24328058  1
  O  O54  1  0.64125580  0.49134184  0.92523213  1
  O  O55  1  0.85361958  0.35577265  0.92534913  1
  O  O56  1  0.49403064  0.13070876  0.92232268  1
  O  O57  1  0.63667912  0.13070876  0.42232268  1
  O  O58  1  0.50215407  0.35577265  0.42534913  1
  O  O59  1  0.85008704  0.49134184  0.42523213  1
  O  O60  1  0.35498892  0.50381253  0.07661458  1
  O  O61  1  0.13123495  0.64486102  0.07607409  1
  O  O62  1  0.48561801  0.85243585  0.07465466  1
  O  O63  1  0.36681684  0.85243585  0.57465466  1
  O  O64  1  0.51362507  0.64486102  0.57607409  1
  O  O65  1  0.14882261  0.50381253  0.57661458  1
  O  O66  1  0.30792180  0.82467584  0.25856613  1
  O  O67  1  0.52028558  0.68910665  0.25868313  1
  O  O68  1  0.16069664  0.46404276  0.25565668  1
  O  O69  1  0.30334512  0.46404276  0.75565668  1
  O  O70  1  0.16882007  0.68910665  0.75868313  1
  O  O71  1  0.51675304  0.82467584  0.75856613  1
loop_
_geom_bond_atom_site_label_1
_geom_bond_atom_site_label_2
_geom_bond_distance
_geom_bond_site_symmetry_2
Na0 O36 2.499211 1_545
Na0 O38 2.514775 1_555
Na0 O42 2.599610 1_455
Na0 O43 2.626192 1_555
Na0 O37 2.655012 1_445
Na0 O44 2.733039 1_445
Na1 O41 2.499211 1_545
Na1 O39 2.514775 1_655
Na1 O47 2.599610 1_656
Na1 O46 2.626192 1_556
Na1 O40 2.655012 1_645
Na1 O45 2.733039 1_546
Na2 O48 2.499211 1_555
Na2 O50 2.514775 1_555
Na2 O54 2.599610 1_555
Na2 O55 2.626192 1_555
Na2 O49 2.655012 1_555
Na2 O56 2.733039 1_555
Na3 O53 2.499211 1_555
Na3 O51 2.514775 1_555
Na3 O59 2.599610 1_555
Na3 O58 2.626192 1_555
Na3 O52 2.655012 1_555
Na3 O57 2.733039 1_555
Na4 O60 2.499211 1_555
Na4 O62 2.514775 1_555
Na4 O66 2.599610 1_555
Na4 O67 2.626192 1_555
Na4 O61 2.655012 1_555
Na4 O68 2.733039 1_555
Na5 O65 2.499211 1_555
Na5 O63 2.514775 1_555
Na5 O71 2.599610 1_555
Na5 O70 2.626192 1_555
Na5 O64 2.655012 1_555
Na5 O69 2.733039 1_555
O0 Si0 1.631552 1_545
O0 Ti0 1.807266 1_545
O1 Si1 1.626535 1_555
O1 Ti0 1.869004 1_655
O2 S0 1.448772 1_555
O2 Ti0 2.280411 1_645
O3 S1 1.448772 1_555
O3 Ti1 2.280411 1_445
O4 Si2 1.626535 1_555
O4 Ti1 1.869004 1_555
O5 Si3 1.631552 1_545
O5 Ti1 1.807266 1_545
O6 Si3 1.634657 1_555
O6 Ta0 1.944963 1_655
O7 S1 1.507094 1_555
O7 Ta0 2.068438 1_545
O8 Si2 1.655001 1_455
O8 Ta0 1.917416 1_555
O9 Si1 1.655001 1_555
O9 Ta1 1.917416 1_555
O10 S0 1.507094 1_455
O10 Ta1 2.068438 1_445
O11 Si0 1.634656 1_555
O11 Ta1 1.944963 1_455
O12 Si4 1.631552 1_555
O12 Ti2 1.807266 1_555
O13 Si5 1.626535 1_555
O13 Ti2 1.869004 1_555
O14 S2 1.448772 1_555
O14 Ti2 2.280411 1_555
O15 S3 1.448772 1_555
O15 Ti3 2.280411 1_555
O16 Si6 1.626535 1_555
O16 Ti3 1.869004 1_555
O17 Si7 1.631552 1_555
O17 Ti3 1.807266 1_555
O18 Si7 1.634657 1_555
O18 Ta2 1.944963 1_554
O19 S3 1.507094 1_555
O19 Ta2 2.068438 1_554
O20 Si6 1.655001 1_555
O20 Ta2 1.917416 1_554
O21 Si5 1.655001 1_555
O21 Ta3 1.917416 1_555
O22 S2 1.507094 1_555
O22 Ta3 2.068438 1_555
O23 Si4 1.634656 1_555
O23 Ta3 1.944963 1_555
O24 Si8 1.631552 1_555
O24 Ti4 1.807266 1_556
O25 Si9 1.626535 1_555
O25 Ti4 1.869004 1_556
O26 S4 1.448772 1_555
O26 Ti4 2.280411 1_556
O27 S5 1.448772 1_555
O27 Ti5 2.280411 1_555
O28 Si10 1.626535 1_555
O28 Ti5 1.869004 1_555
O29 Si11 1.631552 1_555
O29 Ti5 1.807266 1_555
O30 Si11 1.634657 1_555
O30 Ta4 1.944963 1_555
O31 S5 1.507094 1_555
O31 Ta4 2.068438 1_555
O32 Si10 1.655001 1_555
O32 Ta4 1.917416 1_555
O33 Si9 1.655001 1_555
O33 Ta5 1.917416 1_555
O34 S4 1.507094 1_555
O34 Ta5 2.068438 1_555
O35 Si8 1.634656 1_555
O35 Ta5 1.944963 1_555
O36 Si11 1.630091 1_555
O36 Ti0 1.857507 1_555
O37 S5 1.460032 1_555
O37 Ti0 2.277727 1_655
O38 Si10 1.621526 1_555
O38 Ti0 1.938148 1_545
O39 Si9 1.621530 1_555
O39 Ti1 1.938148 1_445
O40 S4 1.460023 1_555
O40 Ti1 2.277727 1_455
O41 Si8 1.630096 1_555
O41 Ti1 1.857507 1_555
O42 Si4 1.632637 1_555
O42 Ta0 1.992235 1_645
O43 Si5 1.653385 1_555
O43 Ta0 1.964295 1_545
O44 S2 1.520282 1_555
O44 Ta0 2.055439 1_655
O45 S3 1.520286 1_555
O45 Ta1 2.055439 1_555
O46 Si6 1.653376 1_555
O46 Ta1 1.964295 1_545
O47 Si7 1.632642 1_555
O47 Ta1 1.992235 1_445
O48 Si3 1.630091 1_545
O48 Ti2 1.857507 1_555
O49 S1 1.460032 1_555
O49 Ti2 2.277727 1_555
O50 Si2 1.621526 1_555
O50 Ti2 1.938148 1_555
O51 Si1 1.621530 1_555
O51 Ti3 1.938148 1_555
O52 S0 1.460023 1_555
O52 Ti3 2.277727 1_555
O53 Si0 1.630096 1_545
O53 Ti3 1.857507 1_555
O54 Si8 1.632648 1_555
O54 Ta2 1.992235 1_555
O55 Si9 1.653370 1_655
O55 Ta2 1.964295 1_555
O56 S4 1.520280 1_545
O56 Ta2 2.055439 1_555
O57 S5 1.520272 1_545
O57 Ta3 2.055439 1_555
O58 Si10 1.653388 1_555
O58 Ta3 1.964295 1_555
O59 Si11 1.632637 1_655
O59 Ta3 1.992235 1_555
O60 Si7 1.630102 1_555
O60 Ti4 1.857507 1_555
O61 S3 1.460017 1_455
O61 Ti4 2.277727 1_555
O62 Si6 1.621523 1_565
O62 Ti4 1.938148 1_555
O63 Si5 1.621515 1_565
O63 Ti5 1.938148 1_555
O64 S2 1.460034 1_555
O64 Ti5 2.277727 1_555
O65 Si4 1.630092 1_455
O65 Ti5 1.857507 1_555
O66 Si0 1.632637 1_555
O66 Ta4 1.992235 1_555
O67 Si1 1.653385 1_555
O67 Ta4 1.964295 1_555
O68 S0 1.520282 1_455
O68 Ta4 2.055439 1_555
O69 S1 1.520286 1_555
O69 Ta5 2.055439 1_555
O70 Si2 1.653376 1_455
O70 Ta5 1.964295 1_555
O71 Si3 1.632642 1_555
O71 Ta5 1.992235 1_555
