# generated using pymatgen
data_MgTe2Mo3W(Se2S)2
_symmetry_space_group_name_H-M   'P 1'
_cell_length_a   3.34181304
_cell_length_b   3.34176876
_cell_length_c   46.05074535
_cell_angle_alpha   89.99649960
_cell_angle_beta   90.01558428
_cell_angle_gamma   120.00050183
_symmetry_Int_Tables_number   1
_chemical_formula_structural   MgTe2Mo3W(Se2S)2
_chemical_formula_sum   'Mg1 Te2 Mo3 W1 Se4 S2'
_cell_volume   445.37273382
_cell_formula_units_Z   1
loop_
 _symmetry_equiv_pos_site_id
 _symmetry_equiv_pos_as_xyz
  1  'x, y, z'
loop_
 _atom_site_type_symbol
 _atom_site_label
 _atom_site_symmetry_multiplicity
 _atom_site_fract_x
 _atom_site_fract_y
 _atom_site_fract_z
 _atom_site_occupancy
  Mg  Mg0  1  0.00090900  0.00088400  0.19797900  1
  Te  Te0  1  0.66650700  0.33327000  0.04568600  1
  Te  Te1  1  0.66695900  0.33342400  0.12830100  1
  Mo  Mo0  1  0.33339500  0.66668000  0.08677900  1
  Mo  Mo1  1  0.33336700  0.66663700  0.46958300  1
  Mo  Mo2  1  0.66633100  0.33307800  0.28965900  1
  W  W0  1  0.66670300  0.33342600  0.65752000  1
  Se  Se0  1  0.33366800  0.66697100  0.69389700  1
  Se  Se1  1  0.66637800  0.33308100  0.43340800  1
  Se  Se2  1  0.66702200  0.33350400  0.50577200  1
  Se  Se3  1  0.33308600  0.66658300  0.62115500  1
  S  S0  1  0.33257700  0.66590500  0.32239400  1
  S  S1  1  0.33309800  0.66655700  0.25626800  1
loop_
_geom_bond_atom_site_label_1
_geom_bond_atom_site_label_2
_geom_bond_distance
_geom_bond_site_symmetry_2
Mo0 Te0 2.702452 1_565
Mo0 Te0 2.702474 1_555
Mo0 Te0 2.702593 1_455
Mo0 Te1 2.716287 1_455
Mo0 Te1 2.716406 1_565
Mo0 Te1 2.716438 1_555
Mo1 Se1 2.548662 1_565
Mo1 Se1 2.549086 1_555
Mo1 Se2 2.549129 1_455
Mo1 Se1 2.549415 1_455
Mo1 Se2 2.549506 1_555
Mo1 Se2 2.549792 1_565
Mo2 S0 2.447179 1_655
Mo2 S0 2.448505 1_555
Mo2 S0 2.449707 1_545
Mo2 S1 2.466730 1_545
Mo2 S1 2.467056 1_555
Mo2 S1 2.467746 1_655
Se0 W0 2.554777 1_565
Se0 W0 2.555205 1_555
Se0 W0 2.555449 1_455
Se3 W0 2.554520 1_455
Se3 W0 2.554780 1_555
Se3 W0 2.555044 1_565
