# generated using pymatgen
data_Na8Mg3Ge(PO4)6
_symmetry_space_group_name_H-M   'P 1'
_cell_length_a   8.93507721
_cell_length_b   8.93507692
_cell_length_c   21.77590856
_cell_angle_alpha   90.00000000
_cell_angle_beta   90.00000000
_cell_angle_gamma   120.00000111
_symmetry_Int_Tables_number   1
_chemical_formula_structural   Na8Mg3Ge(PO4)6
_chemical_formula_sum   'Na24 Mg9 Ge3 P18 O72'
_cell_volume   1505.57888818
_cell_formula_units_Z   3
loop_
 _symmetry_equiv_pos_site_id
 _symmetry_equiv_pos_as_xyz
  1  'x, y, z'
loop_
 _atom_site_type_symbol
 _atom_site_label
 _atom_site_symmetry_multiplicity
 _atom_site_fract_x
 _atom_site_fract_y
 _atom_site_fract_z
 _atom_site_occupancy
  Na  Na0  1  0.63580550  0.99992553  0.25293706  1
  Na  Na1  1  0.36412003  0.36419450  0.25293706  1
  Na  Na2  1  0.00007447  0.63587997  0.25293706  1
  Na  Na3  1  0.64473554  0.63674783  0.74359263  1
  Na  Na4  1  0.99201228  0.35526446  0.74359263  1
  Na  Na5  1  0.36325217  0.00798772  0.74359263  1
  Na  Na6  1  0.29561506  0.33409290  0.58069848  1
  Na  Na7  1  0.03847884  0.70438494  0.58069848  1
  Na  Na8  1  0.66590710  0.96152116  0.58069848  1
  Na  Na9  1  0.29556657  0.96215046  0.09128449  1
  Na  Na10  1  0.66658489  0.70443343  0.09128449  1
  Na  Na11  1  0.03784954  0.33341511  0.09128449  1
  Na  Na12  1  0.96942166  0.67390703  0.91577477  1
  Na  Na13  1  0.70448436  0.03057834  0.91577477  1
  Na  Na14  1  0.32609297  0.29551564  0.91577477  1
  Na  Na15  1  0.97842350  0.30335984  0.40966860  1
  Na  Na16  1  0.32493534  0.02157650  0.40966860  1
  Na  Na17  1  0.69664016  0.67506466  0.40966860  1
  Na  Na18  1  0.00000000  0.00000000  0.49722889  1
  Na  Na19  1  0.00000000  0.00000000  0.00318640  1
  Na  Na20  1  0.66666700  0.33333300  0.83009845  1
  Na  Na21  1  0.66666700  0.33333300  0.32871075  1
  Na  Na22  1  0.33333300  0.66666700  0.17306271  1
  Na  Na23  1  0.33333300  0.66666700  0.66054669  1
  Mg  Mg0  1  0.00000000  0.00000000  0.34830172  1
  Mg  Mg1  1  0.00000000  0.00000000  0.84945742  1
  Mg  Mg2  1  0.00000000  0.00000000  0.64875847  1
  Mg  Mg3  1  0.00000000  0.00000000  0.15272612  1
  Mg  Mg4  1  0.66666700  0.33333300  0.68386091  1
  Mg  Mg5  1  0.66666700  0.33333300  0.18644877  1
  Mg  Mg6  1  0.33333300  0.66666700  0.01935591  1
  Mg  Mg7  1  0.33333300  0.66666700  0.51536584  1
  Mg  Mg8  1  0.33333300  0.66666700  0.31759853  1
  Ge  Ge0  1  0.66666700  0.33333300  0.98557504  1
  Ge  Ge1  1  0.66666700  0.33333300  0.48275276  1
  Ge  Ge2  1  0.33333300  0.66666700  0.81642156  1
  P  P0  1  0.29609869  0.99853063  0.24960731  1
  P  P1  1  0.70243194  0.70390131  0.24960731  1
  P  P2  1  0.00146937  0.29756806  0.24960731  1
  P  P3  1  0.29523967  0.30176498  0.75305390  1
  P  P4  1  0.00652531  0.70476033  0.75305390  1
  P  P5  1  0.69823502  0.99347469  0.75305390  1
  P  P6  1  0.95653274  0.33351371  0.58378625  1
  P  P7  1  0.37698197  0.04346726  0.58378625  1
  P  P8  1  0.66648629  0.62301803  0.58378625  1
  P  P9  1  0.95621272  0.62263081  0.08214350  1
  P  P10  1  0.66641909  0.04378728  0.08214350  1
  P  P11  1  0.37736919  0.33358091  0.08214350  1
  P  P12  1  0.62319757  0.66272118  0.91805835  1
  P  P13  1  0.03952261  0.37680243  0.91805835  1
  P  P14  1  0.33727882  0.96047739  0.91805835  1
  P  P15  1  0.63006317  0.96918338  0.41992730  1
  P  P16  1  0.33911921  0.36993683  0.41992730  1
  P  P17  1  0.03081662  0.66088079  0.41992730  1
  O  O0  1  0.21083427  0.02398859  0.30668048  1
  O  O1  1  0.81315432  0.78916573  0.30668048  1
  O  O2  1  0.97601141  0.18684568  0.30668048  1
  O  O3  1  0.21384861  0.19393422  0.81034196  1
  O  O4  1  0.98008561  0.78615139  0.81034196  1
  O  O5  1  0.80606578  0.01991439  0.81034196  1
  O  O6  1  0.77342157  0.95676440  0.69593369  1
  O  O7  1  0.18334284  0.22657843  0.69593369  1
  O  O8  1  0.04323560  0.81665716  0.69593369  1
  O  O9  1  0.78375468  0.81220857  0.19095307  1
  O  O10  1  0.02845389  0.21624532  0.19095307  1
  O  O11  1  0.18779143  0.97154611  0.19095307  1
  O  O12  1  0.87595158  0.35974924  0.64162556  1
  O  O13  1  0.48379866  0.12404842  0.64162556  1
  O  O14  1  0.64025076  0.51620134  0.64162556  1
  O  O15  1  0.87020383  0.50968017  0.13652011  1
  O  O16  1  0.63947734  0.12979617  0.13652011  1
  O  O17  1  0.49031983  0.36052266  0.13652011  1
  O  O18  1  0.46272651  0.30029847  0.02090201  1
  O  O19  1  0.83757296  0.53727349  0.02090201  1
  O  O20  1  0.69970153  0.16242704  0.02090201  1
  O  O21  1  0.46668883  0.16281520  0.52624590  1
  O  O22  1  0.69612737  0.53331117  0.52624590  1
  O  O23  1  0.83718480  0.30387263  0.52624590  1
  O  O24  1  0.54050806  0.69061799  0.97349613  1
  O  O25  1  0.15010893  0.45949194  0.97349613  1
  O  O26  1  0.30938201  0.84989107  0.97349613  1
  O  O27  1  0.54876842  0.86058578  0.47713136  1
  O  O28  1  0.31181636  0.45123158  0.47713136  1
  O  O29  1  0.13941422  0.68818364  0.47713136  1
  O  O30  1  0.10699647  0.62432008  0.36296719  1
  O  O31  1  0.51732261  0.89300353  0.36296719  1
  O  O32  1  0.37567992  0.48267739  0.36296719  1
  O  O33  1  0.12312917  0.49585004  0.85920295  1
  O  O34  1  0.37271987  0.87687083  0.85920295  1
  O  O35  1  0.50414996  0.62728013  0.85920295  1
  O  O36  1  0.00334713  0.81797290  0.41407850  1
  O  O37  1  0.81462577  0.99665287  0.41407850  1
  O  O38  1  0.18202710  0.18537423  0.41407850  1
  O  O39  1  0.01387771  0.19440865  0.91025082  1
  O  O40  1  0.18053094  0.98612229  0.91025082  1
  O  O41  1  0.80559135  0.81946906  0.91025082  1
  O  O42  1  0.97119677  0.16741875  0.58572639  1
  O  O43  1  0.19622198  0.02880323  0.58572639  1
  O  O44  1  0.83258125  0.80377802  0.58572639  1
  O  O45  1  0.97173817  0.80249325  0.08199218  1
  O  O46  1  0.83075508  0.02826183  0.08199218  1
  O  O47  1  0.19750675  0.16924492  0.08199218  1
  O  O48  1  0.67070056  0.15050855  0.74777659  1
  O  O49  1  0.47980899  0.32929944  0.74777659  1
  O  O50  1  0.84949145  0.52019101  0.74777659  1
  O  O51  1  0.68341142  0.52154187  0.24554822  1
  O  O52  1  0.83813144  0.31658858  0.24554822  1
  O  O53  1  0.47845813  0.16186856  0.24554822  1
  O  O54  1  0.63745967  0.49099905  0.92017922  1
  O  O55  1  0.85354038  0.36254033  0.92017922  1
  O  O56  1  0.50900095  0.14645962  0.92017922  1
  O  O57  1  0.64656813  0.15731541  0.42556393  1
  O  O58  1  0.51074828  0.35343187  0.42556393  1
  O  O59  1  0.84268459  0.48925172  0.42556393  1
  O  O60  1  0.35971531  0.49571711  0.07506419  1
  O  O61  1  0.13600080  0.64028469  0.07506419  1
  O  O62  1  0.50428289  0.86399920  0.07506419  1
  O  O63  1  0.35702441  0.86201923  0.57765465  1
  O  O64  1  0.50499382  0.64297559  0.57765465  1
  O  O65  1  0.13798077  0.49500618  0.57765465  1
  O  O66  1  0.31488176  0.83487606  0.25465796  1
  O  O67  1  0.51999330  0.68511824  0.25465796  1
  O  O68  1  0.16512394  0.48000670  0.25465796  1
  O  O69  1  0.31117247  0.49011868  0.75915535  1
  O  O70  1  0.17894521  0.68882753  0.75915535  1
  O  O71  1  0.50988132  0.82105479  0.75915535  1
loop_
_geom_bond_atom_site_label_1
_geom_bond_atom_site_label_2
_geom_bond_distance
_geom_bond_site_symmetry_2
Na0 O67 2.464448 1_555
Na0 O53 2.475989 1_565
Na0 O66 2.483930 1_555
Na0 O52 2.486881 1_565
Na0 O31 2.600559 1_555
Na0 O16 2.781402 1_565
Na0 O2 2.884847 1_565
Na0 O9 2.932546 1_555
Na1 O68 2.464457 1_555
Na1 O51 2.475997 1_555
Na1 O67 2.483930 1_555
Na1 O53 2.486888 1_555
Na1 O32 2.600560 1_555
Na1 O17 2.781406 1_555
Na1 O0 2.884847 1_555
Na1 O10 2.932546 1_555
Na2 O66 2.464450 1_555
Na2 O52 2.475997 1_455
Na2 O68 2.483922 1_555
Na2 O51 2.486879 1_455
Na2 O30 2.600557 1_555
Na2 O15 2.781404 1_455
Na2 O1 2.884847 1_455
Na2 O11 2.932546 1_555
Na3 O49 2.382884 1_555
Na3 O14 2.459443 1_555
Na3 O71 2.502585 1_555
Na3 O50 2.518997 1_555
Na3 O69 2.609485 1_555
Na3 O6 2.699518 1_555
Na3 O35 2.795835 1_555
Na4 O50 2.382876 1_555
Na4 O12 2.459440 1_555
Na4 O69 2.502577 1_655
Na4 O48 2.518990 1_555
Na4 O70 2.609484 1_655
Na4 O7 2.699518 1_655
Na4 O33 2.795833 1_655
Na5 O48 2.382884 1_555
Na5 O13 2.459442 1_555
Na5 O70 2.502578 1_545
Na5 O49 2.518988 1_555
Na5 O71 2.609477 1_545
Na5 O8 2.699518 1_545
Na5 O34 2.795831 1_545
Na6 O43 2.412260 1_555
Na6 O64 2.440921 1_555
Na6 O28 2.459906 1_555
Na6 O65 2.465857 1_555
Na6 O42 2.513053 1_455
Na6 O7 2.694873 1_555
Na6 O21 2.902384 1_555
Na6 O14 2.979879 1_555
Na7 O44 2.412268 1_455
Na7 O65 2.440907 1_555
Na7 O29 2.459899 1_555
Na7 O63 2.465841 1_555
Na7 O43 2.513053 1_565
Na7 O8 2.694874 1_555
Na7 O22 2.902384 1_455
Na7 O12 2.979879 1_455
Na8 O42 2.412261 1_565
Na8 O63 2.440924 1_555
Na8 O27 2.459904 1_555
Na8 O64 2.465841 1_555
Na8 O44 2.513045 1_555
Na8 O6 2.694871 1_555
Na8 O23 2.902384 1_565
Na8 O13 2.979879 1_565
Na9 O11 2.392852 1_555
Na9 O47 2.419482 1_565
Na9 O62 2.450959 1_555
Na9 O45 2.514023 1_455
Na9 O61 2.515549 1_555
Na9 O26 2.779230 1_554
Na9 O16 2.837903 1_565
Na10 O9 2.392850 1_555
Na10 O45 2.419474 1_555
Na10 O60 2.450972 1_555
Na10 O46 2.514023 1_565
Na10 O62 2.515565 1_555
Na10 O24 2.779237 1_554
Na10 O17 2.837903 1_555
Na11 O10 2.392849 1_555
Na11 O46 2.419475 1_455
Na11 O61 2.450976 1_555
Na11 O47 2.514015 1_555
Na11 O60 2.515549 1_555
Na11 O25 2.779234 1_554
Na11 O15 2.837903 1_455
Na12 O41 2.398488 1_555
Na12 O55 2.437350 1_555
Na12 O40 2.468333 1_655
Na12 O4 2.488069 1_555
Na12 O54 2.574959 1_555
Na12 O19 2.584703 1_556
Na12 O33 2.849545 1_655
Na12 O26 2.915973 1_655
Na13 O39 2.398496 1_655
Na13 O56 2.437333 1_555
Na13 O41 2.468340 1_545
Na13 O5 2.488072 1_555
Na13 O55 2.574958 1_555
Na13 O20 2.584698 1_556
Na13 O34 2.849545 1_545
Na13 O24 2.915972 1_545
Na14 O40 2.398496 1_545
Na14 O54 2.437347 1_555
Na14 O39 2.468332 1_555
Na14 O3 2.488070 1_555
Na14 O56 2.574974 1_555
Na14 O18 2.584707 1_556
Na14 O35 2.849545 1_555
Na14 O25 2.915972 1_555
Na15 O37 2.377074 1_545
Na15 O2 2.468069 1_555
Na15 O38 2.519515 1_655
Na15 O59 2.522705 1_555
Na15 O57 2.597205 1_555
Na15 O30 2.698837 1_655
Na15 O23 2.835977 1_555
Na15 O28 2.973513 1_655
Na16 O38 2.377067 1_555
Na16 O0 2.468065 1_555
Na16 O36 2.519508 1_545
Na16 O57 2.522721 1_555
Na16 O58 2.597206 1_555
Na16 O31 2.698838 1_545
Na16 O21 2.835981 1_555
Na16 O29 2.973513 1_545
Na17 O36 2.377075 1_655
Na17 O1 2.468067 1_555
Na17 O37 2.519506 1_555
Na17 O58 2.522719 1_555
Na17 O59 2.597221 1_555
Na17 O32 2.698838 1_555
Na17 O22 2.835985 1_555
Na17 O27 2.973513 1_555
Na18 O38 2.444042 1_555
Na18 O36 2.444042 1_545
Na18 O37 2.444042 1_445
Na18 O44 2.530355 1_445
Na18 O42 2.530355 1_455
Na18 O43 2.530355 1_555
Na19 O45 2.382713 1_445
Na19 O47 2.382713 1_555
Na19 O46 2.382713 1_455
Na19 O39 2.629247 1_554
Na19 O41 2.629247 1_444
Na19 O40 2.629247 1_544
Na20 O50 2.437662 1_555
Na20 O48 2.437662 1_555
Na20 O49 2.437662 1_555
Na20 O56 2.503635 1_555
Na20 O54 2.503635 1_555
Na20 O55 2.503635 1_555
Na21 O52 2.424515 1_555
Na21 O53 2.424515 1_555
Na21 O51 2.424515 1_555
Na21 O57 2.582916 1_555
Na21 O59 2.582916 1_555
Na21 O58 2.582916 1_555
Na22 O68 2.385563 1_555
Na22 O66 2.385563 1_555
Na22 O67 2.385563 1_555
Na22 O62 2.702355 1_555
Na22 O60 2.702355 1_555
Na22 O61 2.702355 1_555
Na23 O63 2.445454 1_555
Na23 O65 2.445454 1_555
Na23 O64 2.445454 1_555
Na23 O69 2.612689 1_555
Na23 O71 2.612689 1_555
Na23 O70 2.612689 1_555
Mg0 O1 2.003097 1_445
Mg0 O2 2.003097 1_455
Mg0 O0 2.003097 1_555
Mg0 O38 2.178628 1_555
Mg0 O36 2.178628 1_545
Mg0 O37 2.178628 1_445
Mg1 O4 2.016970 1_445
Mg1 O3 2.016970 1_555
Mg1 O5 2.016970 1_455
Mg1 O39 2.137727 1_555
Mg1 O41 2.137727 1_445
Mg1 O40 2.137727 1_545
Mg2 O7 2.126274 1_555
Mg2 O6 2.126274 1_445
Mg2 O8 2.126274 1_545
Mg2 O44 2.138436 1_445
Mg2 O42 2.138436 1_455
Mg2 O43 2.138436 1_555
Mg3 O10 1.999904 1_555
Mg3 O9 1.999904 1_445
Mg3 O11 1.999904 1_545
Mg3 O45 2.259412 1_445
Mg3 O47 2.259412 1_555
Mg3 O46 2.259412 1_455
Mg4 O13 1.989224 1_555
Mg4 O14 1.989224 1_555
Mg4 O12 1.989224 1_555
Mg4 O50 2.160053 1_555
Mg4 O48 2.160053 1_555
Mg4 O49 2.160053 1_555
Mg5 O16 2.026491 1_555
Mg5 O15 2.026491 1_555
Mg5 O17 2.026491 1_555
Mg5 O52 2.062764 1_555
Mg5 O53 2.062764 1_555
Mg5 O51 2.062764 1_555
Mg6 O25 2.018314 1_554
Mg6 O26 2.018314 1_554
Mg6 O24 2.018314 1_554
Mg6 O62 2.054347 1_555
Mg6 O60 2.054347 1_555
Mg6 O61 2.054347 1_555
Mg7 O28 2.016298 1_555
Mg7 O27 2.016298 1_555
Mg7 O29 2.016298 1_555
Mg7 O63 2.135849 1_555
Mg7 O65 2.135849 1_555
Mg7 O64 2.135849 1_555
Mg8 O68 2.100563 1_555
Mg8 O66 2.100563 1_555
Mg8 O67 2.100563 1_555
Mg8 O31 2.108041 1_555
Mg8 O32 2.108041 1_555
Mg8 O30 2.108041 1_555
Ge0 O19 1.860524 1_556
Ge0 O20 1.860525 1_556
Ge0 O18 1.860525 1_556
Ge0 O56 2.109094 1_555
Ge0 O54 2.109094 1_555
Ge0 O55 2.109094 1_555
Ge1 O22 1.920592 1_555
Ge1 O21 1.920592 1_555
Ge1 O23 1.920592 1_555
Ge1 O57 1.942720 1_555
Ge1 O59 1.942720 1_555
Ge1 O58 1.942720 1_555
Ge2 O69 1.941738 1_555
Ge2 O71 1.941738 1_555
Ge2 O70 1.941738 1_555
Ge2 O34 1.964267 1_555
Ge2 O33 1.964267 1_555
Ge2 O35 1.964267 1_555
O0 P0 1.532986 1_545
O1 P1 1.532986 1_555
O2 P2 1.532986 1_655
O3 P3 1.520769 1_555
O4 P4 1.520769 1_655
O5 P5 1.520769 1_545
O6 P5 1.525256 1_555
O7 P3 1.525256 1_555
O8 P4 1.525256 1_555
O9 P1 1.546829 1_555
O10 P2 1.546829 1_555
O11 P0 1.546829 1_555
O12 P6 1.525935 1_555
O13 P7 1.525935 1_555
O14 P8 1.525935 1_555
O15 P9 1.495201 1_555
O16 P10 1.495201 1_555
O17 P11 1.495201 1_555
O18 P11 1.635657 1_555
O19 P9 1.635657 1_555
O20 P10 1.635657 1_555
O21 P7 1.579519 1_555
O22 P8 1.579519 1_555
O23 P6 1.579519 1_555
O24 P12 1.499842 1_555
O25 P13 1.499842 1_555
O26 P14 1.499842 1_555
O27 P15 1.521851 1_555
O28 P16 1.521851 1_555
O29 P17 1.521851 1_555
O30 P17 1.526721 1_555
O31 P15 1.526721 1_555
O32 P16 1.526721 1_555
O33 P13 1.592944 1_555
O34 P14 1.592944 1_555
O35 P12 1.592944 1_555
O36 P17 1.546334 1_555
O37 P15 1.546343 1_555
O38 P16 1.546340 1_555
O39 P13 1.537502 1_555
O40 P14 1.537493 1_555
O41 P12 1.537498 1_555
O42 P6 1.554307 1_555
O43 P7 1.554316 1_555
O44 P8 1.554312 1_555
O45 P9 1.542413 1_555
O46 P10 1.542405 1_555
O47 P11 1.542410 1_555
O48 P5 1.545201 1_545
O49 P3 1.545210 1_555
O50 P4 1.545207 1_655
O51 P1 1.553934 1_555
O52 P2 1.553925 1_655
O53 P0 1.553930 1_545
O54 P12 1.602539 1_555
O55 P13 1.602521 1_655
O56 P14 1.602529 1_545
O57 P15 1.616969 1_545
O58 P16 1.616987 1_555
O59 P17 1.616977 1_655
O60 P11 1.541393 1_555
O61 P9 1.541375 1_455
O62 P10 1.541383 1_565
O63 P7 1.545632 1_565
O64 P8 1.545650 1_555
O65 P6 1.545640 1_455
O66 P0 1.556886 1_555
O67 P1 1.556895 1_555
O68 P2 1.556891 1_555
O69 P3 1.621934 1_555
O70 P4 1.621925 1_555
O71 P5 1.621930 1_555
