# generated using pymatgen
data_PWO5
_symmetry_space_group_name_H-M   'P 1'
_cell_length_a   5.28579319
_cell_length_b   6.63078711
_cell_length_c   11.25463467
_cell_angle_alpha   89.99726462
_cell_angle_beta   89.99998976
_cell_angle_gamma   90.00002498
_symmetry_Int_Tables_number   1
_chemical_formula_structural   PWO5
_chemical_formula_sum   'P4 W4 O20'
_cell_volume   394.46334537
_cell_formula_units_Z   4
loop_
 _symmetry_equiv_pos_site_id
 _symmetry_equiv_pos_as_xyz
  1  'x, y, z'
loop_
 _atom_site_type_symbol
 _atom_site_label
 _atom_site_symmetry_multiplicity
 _atom_site_fract_x
 _atom_site_fract_y
 _atom_site_fract_z
 _atom_site_occupancy
  P  P0  1  0.51379424  0.52875567  0.34433498  1
  P  P1  1  0.01379454  0.47124442  0.65566491  1
  P  P2  1  0.51379920  0.97123988  0.84437082  1
  P  P3  1  0.01379863  0.02876061  0.15562921  1
  W  W0  1  0.50678753  0.33226926  0.06049730  1
  W  W1  1  0.00678770  0.66773086  0.93950273  1
  W  W2  1  0.50677026  0.16772966  0.56051229  1
  W  W3  1  0.00677023  0.83227030  0.43948777  1
  O  O0  1  0.24292083  0.01045847  0.50313468  1
  O  O1  1  0.74292098  0.98954086  0.49686574  1
  O  O2  1  0.24292996  0.48952785  0.00313602  1
  O  O3  1  0.74292994  0.51047194  0.99686396  1
  O  O4  1  0.28938275  0.66062886  0.37736610  1
  O  O5  1  0.78938250  0.33937078  0.62263411  1
  O  O6  1  0.28943059  0.83937053  0.87747705  1
  O  O7  1  0.78943062  0.16062983  0.12252319  1
  O  O8  1  0.50107399  0.48151972  0.21261693  1
  O  O9  1  0.00107405  0.51848118  0.78738288  1
  O  O10  1  0.50108069  0.01848306  0.71265587  1
  O  O11  1  0.00108022  0.98151693  0.28734411  1
  O  O12  1  0.00556757  0.83134751  0.08630869  1
  O  O13  1  0.50556900  0.16865393  0.91369094  1
  O  O14  1  0.00556674  0.66869497  0.58634126  1
  O  O15  1  0.50556498  0.33130500  0.41365841  1
  O  O16  1  0.26242563  0.13633945  0.13049196  1
  O  O17  1  0.76242541  0.86366033  0.86950813  1
  O  O18  1  0.26247075  0.36367081  0.63060304  1
  O  O19  1  0.76247048  0.63632932  0.36939693  1
loop_
_geom_bond_atom_site_label_1
_geom_bond_atom_site_label_2
_geom_bond_distance
_geom_bond_site_symmetry_2
O0 W2 1.857318 1_555
O0 W3 1.862073 1_545
O1 W3 1.857317 1_655
O1 W2 1.862075 1_565
O2 W0 1.857206 1_555
O2 W1 1.862005 1_554
O3 W1 1.857207 1_655
O3 W0 1.862003 1_556
O4 P0 1.519836 1_555
O4 W3 2.003932 1_555
O5 P1 1.519838 1_655
O5 W2 2.003929 1_555
O6 P2 1.519830 1_555
O6 W1 2.003629 1_555
O7 P3 1.519827 1_655
O7 W0 2.003631 1_555
O8 P0 1.516671 1_555
O8 W0 1.977775 1_555
O9 P1 1.516671 1_555
O9 W1 1.977775 1_555
O10 P2 1.516617 1_545
O10 W2 1.977912 1_555
O11 P3 1.516617 1_565
O11 W3 1.977913 1_555
O12 P3 1.524519 1_565
O12 W1 1.976653 1_554
O13 P2 1.524522 1_545
O13 W0 1.976652 1_556
O14 P1 1.524686 1_555
O14 W3 1.976863 1_555
O15 P0 1.524686 1_555
O15 W2 1.976867 1_555
O16 P3 1.521828 1_555
O16 W0 1.994157 1_555
O17 P2 1.521827 1_555
O17 W1 1.994158 1_655
O18 P1 1.521892 1_555
O18 W2 1.994470 1_555
O19 P0 1.521892 1_555
O19 W3 1.994470 1_655
