# generated using pymatgen
data_Cr3AsN
_symmetry_space_group_name_H-M   'P 1'
_cell_length_a   5.47036950
_cell_length_b   5.47036950
_cell_length_c   5.47036950
_cell_angle_alpha   121.57493576
_cell_angle_beta   121.57493576
_cell_angle_gamma   87.29311231
_symmetry_Int_Tables_number   1
_chemical_formula_structural   Cr3AsN
_chemical_formula_sum   'Cr6 As2 N2'
_cell_volume   112.86127741
_cell_formula_units_Z   2
loop_
 _symmetry_equiv_pos_site_id
 _symmetry_equiv_pos_as_xyz
  1  'x, y, z'
loop_
 _atom_site_type_symbol
 _atom_site_label
 _atom_site_symmetry_multiplicity
 _atom_site_fract_x
 _atom_site_fract_y
 _atom_site_fract_z
 _atom_site_occupancy
  Cr  Cr0  1  0.31608000  0.81608000  0.13216100  1
  Cr  Cr1  1  0.75000000  0.75000000  0.00000000  1
  Cr  Cr2  1  0.25000000  0.25000000  0.00000000  1
  Cr  Cr3  1  0.68392000  0.18392000  0.86783900  1
  Cr  Cr4  1  0.18392000  0.31608000  0.50000000  1
  Cr  Cr5  1  0.81608000  0.68392000  0.50000000  1
  As  As0  1  0.25000000  0.75000000  0.50000000  1
  As  As1  1  0.75000000  0.25000000  0.50000000  1
  N  N0  1  0.50000000  0.50000000  0.00000000  1
  N  N1  1  0.00000000  0.00000000  0.00000000  1
loop_
_geom_bond_atom_site_label_1
_geom_bond_atom_site_label_2
_geom_bond_distance
_geom_bond_site_symmetry_2
Cr0 N0 1.952681 1_555
Cr0 N1 1.952681 1_565
Cr1 N0 1.979210 1_555
Cr1 N1 1.979210 1_665
Cr2 N0 1.979210 1_555
Cr2 N1 1.979210 1_555
Cr3 N0 1.952681 1_556
Cr3 N1 1.952681 1_656
Cr4 N0 1.952680 1_556
Cr4 N1 1.952680 1_555
Cr5 N0 1.952680 1_555
Cr5 N1 1.952680 1_666
As0 Cr0 2.417882 1_555
As0 Cr5 2.417887 1_455
As0 Cr4 2.417887 1_555
As0 Cr3 2.417888 1_565
As0 Cr1 2.669817 1_556
As0 Cr2 2.669817 1_555
As0 Cr1 2.669817 1_455
As0 Cr2 2.669817 1_566
As1 Cr3 2.417882 1_555
As1 Cr5 2.417887 1_555
As1 Cr4 2.417887 1_655
As1 Cr0 2.417888 1_545
As1 Cr1 2.669817 1_556
As1 Cr2 2.669817 1_555
As1 Cr2 2.669817 1_656
As1 Cr1 2.669817 1_545
