# generated using pymatgen
data_LiV2(PO4)3
_symmetry_space_group_name_H-M   'P 1'
_cell_length_a   8.43005800
_cell_length_b   8.46912959
_cell_length_c   8.73732786
_cell_angle_alpha   90.57037128
_cell_angle_beta   118.45336988
_cell_angle_gamma   119.70604654
_symmetry_Int_Tables_number   1
_chemical_formula_structural   LiV2(PO4)3
_chemical_formula_sum   'Li2 V4 P6 O24'
_cell_volume   450.96818648
_cell_formula_units_Z   2
loop_
 _symmetry_equiv_pos_site_id
 _symmetry_equiv_pos_as_xyz
  1  'x, y, z'
loop_
 _atom_site_type_symbol
 _atom_site_label
 _atom_site_symmetry_multiplicity
 _atom_site_fract_x
 _atom_site_fract_y
 _atom_site_fract_z
 _atom_site_occupancy
  Li  Li0  1  0.35411400  0.81823700  0.58325600  1
  Li  Li1  1  0.64588600  0.18176300  0.41674400  1
  V  V0  1  0.79451900  0.14340600  0.92903400  1
  V  V1  1  0.78862100  0.64475600  0.42971800  1
  V  V2  1  0.21137900  0.35524400  0.57028200  1
  V  V3  1  0.20548100  0.85659400  0.07096600  1
  P  P0  1  0.00317000  0.53761900  0.25238900  1
  P  P1  1  0.71780100  0.74599500  0.75426800  1
  P  P2  1  0.27945700  0.02622100  0.74712900  1
  P  P3  1  0.72054300  0.97377900  0.25287100  1
  P  P4  1  0.28219900  0.25400500  0.24573200  1
  P  P5  1  0.99683000  0.46238100  0.74761100  1
  O  O0  1  0.66043200  0.89409100  0.75210000  1
  O  O1  1  0.17106300  0.53474800  0.43424000  1
  O  O2  1  0.88934600  0.37269900  0.08333600  1
  O  O3  1  0.14785500  0.73534700  0.24011400  1
  O  O4  1  0.49755900  0.08043100  0.77411400  1
  O  O5  1  0.92034100  0.80238700  0.94427400  1
  O  O6  1  0.82527000  0.53193200  0.26782500  1
  O  O7  1  0.52247500  0.54637900  0.71285100  1
  O  O8  1  0.22970400  0.25063700  0.39334300  1
  O  O9  1  0.11038000  0.83269500  0.58514600  1
  O  O10  1  0.27980800  0.99923800  0.92085900  1
  O  O11  1  0.23923200  0.18216400  0.70018100  1
  O  O12  1  0.76076800  0.81783600  0.29981900  1
  O  O13  1  0.72019200  0.00076200  0.07914100  1
  O  O14  1  0.88962000  0.16730500  0.41485400  1
  O  O15  1  0.77029600  0.74936300  0.60665700  1
  O  O16  1  0.47752500  0.45362100  0.28714900  1
  O  O17  1  0.17473000  0.46806800  0.73217500  1
  O  O18  1  0.07965900  0.19761300  0.05572600  1
  O  O19  1  0.50244100  0.91956900  0.22588600  1
  O  O20  1  0.85214500  0.26465300  0.75988600  1
  O  O21  1  0.11065400  0.62730100  0.91666400  1
  O  O22  1  0.82893700  0.46525200  0.56576000  1
  O  O23  1  0.33956800  0.10590900  0.24790000  1
loop_
_geom_bond_atom_site_label_1
_geom_bond_atom_site_label_2
_geom_bond_distance
_geom_bond_site_symmetry_2
Li0 O0 1.991027 1_555
Li0 O1 2.047469 1_555
Li0 O4 2.125428 1_565
Li0 O9 2.125716 1_555
Li0 O3 2.507161 1_555
Li1 O23 1.991027 1_555
Li1 O22 2.047469 1_555
Li1 O19 2.125428 1_545
Li1 O14 2.125716 1_555
Li1 O20 2.507161 1_555
O0 P1 1.549293 1_555
O0 V0 2.007574 1_565
O1 P0 1.555754 1_555
O1 V2 2.000658 1_555
O2 P0 1.527549 1_655
O2 V0 1.900010 1_554
O3 P0 1.551553 1_555
O3 V3 1.922124 1_555
O4 P2 1.547585 1_555
O4 V0 1.953726 1_555
O5 P1 1.540930 1_555
O5 V3 1.890716 1_656
O6 P0 1.546256 1_655
O6 V1 1.921307 1_555
O7 P1 1.536685 1_555
O7 V2 1.920753 1_555
O8 P4 1.546650 1_555
O8 V2 1.880084 1_555
O9 P2 1.561158 1_565
O9 V1 1.975616 1_455
O10 P2 1.536118 1_565
O10 V3 1.906975 1_556
O11 P2 1.532843 1_555
O11 V2 1.900598 1_555
O12 P3 1.532843 1_555
O12 V1 1.900598 1_555
O13 P3 1.536118 1_545
O13 V0 1.906975 1_554
O14 P3 1.561158 1_545
O14 V2 1.975616 1_655
O15 P1 1.546650 1_555
O15 V1 1.880084 1_555
O16 P4 1.536685 1_555
O16 V1 1.920753 1_555
O17 P5 1.546256 1_455
O17 V2 1.921307 1_555
O18 P4 1.540930 1_555
O18 V0 1.890716 1_454
O19 P3 1.547585 1_555
O19 V3 1.953726 1_555
O20 P5 1.551553 1_555
O20 V0 1.922124 1_555
O21 P5 1.527549 1_455
O21 V3 1.900010 1_556
O22 P5 1.555754 1_555
O22 V1 2.000658 1_555
O23 P4 1.549293 1_555
O23 V3 2.007574 1_545
