# generated using pymatgen
data_Na2Ta3InSi2(PO6)4
_symmetry_space_group_name_H-M   'P 1'
_cell_length_a   8.82370185
_cell_length_b   8.83593282
_cell_length_c   22.91287550
_cell_angle_alpha   90.06067950
_cell_angle_beta   89.97642533
_cell_angle_gamma   119.95791012
_symmetry_Int_Tables_number   1
_chemical_formula_structural   Na2Ta3InSi2(PO6)4
_chemical_formula_sum   'Na6 Ta9 In3 Si6 P12 O72'
_cell_volume   1547.73729855
_cell_formula_units_Z   3
loop_
 _symmetry_equiv_pos_site_id
 _symmetry_equiv_pos_as_xyz
  1  'x, y, z'
loop_
 _atom_site_type_symbol
 _atom_site_label
 _atom_site_symmetry_multiplicity
 _atom_site_fract_x
 _atom_site_fract_y
 _atom_site_fract_z
 _atom_site_occupancy
  Na  Na0  1  0.99644809  -0.00002289  0.49421158  1
  Na  Na1  1  0.00072472  0.00025135  0.00094890  1
  Na  Na2  1  0.66838236  0.33367938  0.83197591  1
  Na  Na3  1  0.66609996  0.33342831  0.32679761  1
  Na  Na4  1  0.33374895  0.66242892  0.16451280  1
  Na  Na5  1  0.32821630  0.66294883  0.66692622  1
  Ta  Ta0  1  0.00084853  0.00032953  0.85715330  1
  Ta  Ta1  1  0.99916506  0.00159465  0.64456150  1
  Ta  Ta2  1  0.00194380  0.00228534  0.14634608  1
  Ta  Ta3  1  0.66178938  0.33171657  0.97818213  1
  Ta  Ta4  1  0.66969781  0.32947626  0.47813128  1
  Ta  Ta5  1  0.33327679  0.66400583  0.01928635  1
  Ta  Ta6  1  0.33535279  0.66716402  0.51992047  1
  Ta  Ta7  1  0.33654478  0.67054454  0.31046274  1
  Ta  Ta8  1  0.33275650  0.66624807  0.81316232  1
  In  In0  1  0.99785178  0.00096645  0.35474970  1
  In  In1  1  0.66985043  0.33516662  0.68674534  1
  In  In2  1  0.66496420  0.33448633  0.18345777  1
  Si  Si0  1  0.95744732  0.33575392  0.58454648  1
  Si  Si1  1  0.37588600  0.33470894  0.08423672  1
  Si  Si2  1  0.61915242  0.66503333  0.91605200  1
  Si  Si3  1  0.04482704  0.38132124  0.91609052  1
  Si  Si4  1  0.33571106  0.95309179  0.91657762  1
  Si  Si5  1  0.62383442  0.95577019  0.41648314  1
  P  P0  1  0.28874255  -0.00029476  0.25157584  1
  P  P1  1  0.71149609  0.70947816  0.25103724  1
  P  P2  1  0.99938055  0.29094093  0.25086355  1
  P  P3  1  0.28590033  0.28729837  0.75033224  1
  P  P4  1  0.00182860  0.71495272  0.75051796  1
  P  P5  1  0.71164592  0.99711975  0.75078806  1
  P  P6  1  0.37736730  0.04390336  0.58325546  1
  P  P7  1  0.66614840  0.62143258  0.58339145  1
  P  P8  1  0.95754354  0.62409015  0.08329734  1
  P  P9  1  0.66598350  0.04201236  0.08318673  1
  P  P10  1  0.33712151  0.38260757  0.41674010  1
  P  P11  1  0.04706435  0.66520208  0.41675989  1
  O  O0  1  0.21049729  0.02525294  0.30654631  1
  O  O1  1  0.81379417  0.78856018  0.30625576  1
  O  O2  1  0.97316843  0.18717672  0.30585199  1
  O  O3  1  0.19021962  0.17559723  0.80434817  1
  O  O4  1  0.98824672  0.81312519  0.80455837  1
  O  O5  1  0.82508201  0.01377712  0.80446669  1
  O  O6  1  0.80447803  0.97536041  0.69519000  1
  O  O7  1  0.17104009  0.19441179  0.69487874  1
  O  O8  1  0.02431108  0.82752149  0.69507622  1
  O  O9  1  0.79916732  0.82678320  0.19596930  1
  O  O10  1  0.02585022  0.19728868  0.19568068  1
  O  O11  1  0.17031497  0.97294246  0.19627966  1
  O  O12  1  0.88931022  0.37900306  0.64258163  1
  O  O13  1  0.48282151  0.11055557  0.63861571  1
  O  O14  1  0.62284666  0.51539293  0.63884945  1
  O  O15  1  0.89354778  0.51827207  0.13850746  1
  O  O16  1  0.63059450  0.11014508  0.13865537  1
  O  O17  1  0.48590470  0.37715370  0.14232978  1
  O  O18  1  0.46974587  0.30304243  0.02654058  1
  O  O19  1  0.84007406  0.53483372  0.02907063  1
  O  O20  1  0.69855048  0.16045408  0.02890273  1
  O  O21  1  0.46401390  0.16303801  0.52904692  1
  O  O22  1  0.69487130  0.53424759  0.52914455  1
  O  O23  1  0.83064506  0.30346843  0.52671188  1
  O  O24  1  0.53174086  0.69957464  0.97294538  1
  O  O25  1  0.16815755  0.46944287  0.97268850  1
  O  O26  1  0.30077194  0.83333938  0.97343528  1
  O  O27  1  0.51896563  0.83777565  0.47312371  1
  O  O28  1  0.31668031  0.47604166  0.47132749  1
  O  O29  1  0.15736638  0.67872091  0.47132963  1
  O  O30  1  0.13082456  0.63348466  0.36179662  1
  O  O31  1  0.49697893  0.85870755  0.35920637  1
  O  O32  1  0.36056050  0.49621788  0.36183862  1
  O  O33  1  0.13704320  0.50180741  0.85808350  1
  O  O34  1  0.36467968  0.86206259  0.85822383  1
  O  O35  1  0.49807458  0.63433953  0.85812970  1
  O  O36  1  0.03244071  0.82758741  0.41515626  1
  O  O37  1  0.81354858  0.97771863  0.41695780  1
  O  O38  1  0.17856643  0.20225697  0.41492398  1
  O  O39  1  0.02581055  0.18923645  0.90640801  1
  O  O40  1  0.16518334  0.97682548  0.90656488  1
  O  O41  1  0.81189876  0.83687649  0.90662463  1
  O  O42  1  0.97630945  0.15826874  0.59152496  1
  O  O43  1  0.19079835  0.02178205  0.59036867  1
  O  O44  1  0.83333944  0.80609072  0.59102266  1
  O  O45  1  0.97206357  0.80760770  0.09071487  1
  O  O46  1  0.83118155  0.02022472  0.09035156  1
  O  O47  1  0.17934864  0.15706163  0.09141851  1
  O  O48  1  0.69245204  0.15827030  0.74855162  1
  O  O49  1  0.46552518  0.30406172  0.74711245  1
  O  O50  1  0.83749204  0.53617726  0.74950308  1
  O  O51  1  0.68249083  0.52531432  0.24563175  1
  O  O52  1  0.84429695  0.31948870  0.24309689  1
  O  O53  1  0.47466540  0.15082042  0.24480845  1
  O  O54  1  0.64244069  0.49547391  0.92522778  1
  O  O55  1  0.85386556  0.35964922  0.92562388  1
  O  O56  1  0.50838676  0.14501409  0.92464680  1
  O  O57  1  0.62919431  0.14569555  0.42470933  1
  O  O58  1  0.50832508  0.37541604  0.42539791  1
  O  O59  1  0.86300726  0.49772325  0.42523119  1
  O  O60  1  0.34442307  0.50049328  0.07329751  1
  O  O61  1  0.14508918  0.65651932  0.07257745  1
  O  O62  1  0.50647298  0.85761232  0.07274444  1
  O  O63  1  0.34838110  0.85791405  0.57176994  1
  O  O64  1  0.51081860  0.65441626  0.57224819  1
  O  O65  1  0.15403889  0.49836165  0.57177673  1
  O  O66  1  0.29512469  0.82329401  0.25644749  1
  O  O67  1  0.52496981  0.69696731  0.25677187  1
  O  O68  1  0.17288451  0.47300739  0.25611001  1
  O  O69  1  0.29625758  0.46779148  0.75484492  1
  O  O70  1  0.17177676  0.70264044  0.75537804  1
  O  O71  1  0.53144809  0.82630110  0.75500396  1
loop_
_geom_bond_atom_site_label_1
_geom_bond_atom_site_label_2
_geom_bond_distance
_geom_bond_site_symmetry_2
Na0 O37 2.336897 1_545
Na0 O36 2.485762 1_645
Na0 O38 2.492640 1_655
Na0 O42 2.683429 1_555
Na0 O44 2.733082 1_545
Na0 O43 2.739423 1_655
Na1 O47 2.552746 1_555
Na1 O46 2.593413 1_455
Na1 O45 2.601704 1_445
Na1 O40 2.668702 1_544
Na1 O41 2.669290 1_444
Na1 O39 2.677308 1_554
Na2 O50 2.517401 1_555
Na2 O48 2.534413 1_555
Na2 O49 2.566576 1_555
Na2 O56 2.633492 1_555
Na2 O55 2.638609 1_555
Na2 O54 2.642247 1_555
Na3 O51 2.473016 1_555
Na3 O53 2.502005 1_555
Na3 O52 2.521104 1_555
Na3 O57 2.712647 1_555
Na3 O59 2.773125 1_555
Na3 O58 2.773315 1_555
Na4 O60 2.559771 1_555
Na4 O68 2.617854 1_555
Na4 O67 2.626023 1_555
Na4 O66 2.655311 1_555
Na4 O62 2.664265 1_555
Na4 O61 2.669658 1_555
Na5 O70 2.572077 1_555
Na5 O69 2.575344 1_555
Na5 O71 2.604542 1_555
Na5 O65 2.644584 1_555
Na5 O64 2.725051 1_555
Na5 O63 2.730309 1_555
In0 O1 2.085069 1_545
In0 O2 2.090898 1_555
In0 O0 2.093601 1_655
In0 O37 2.093703 1_545
In0 O38 2.184301 1_655
In0 O36 2.197173 1_645
In1 O12 2.043025 1_555
In1 O14 2.139167 1_555
In1 O13 2.145742 1_555
In1 O49 2.177860 1_555
In1 O50 2.186968 1_555
In1 O48 2.191946 1_555
In2 O17 2.030604 1_555
In2 O16 2.114404 1_555
In2 O15 2.120524 1_555
In2 O52 2.144856 1_555
In2 O51 2.151999 1_555
In2 O53 2.170388 1_555
O0 P0 1.506115 1_555
O1 P1 1.507629 1_555
O2 P2 1.507313 1_555
O3 P3 1.545390 1_555
O3 Ta0 2.017966 1_555
O4 P4 1.549659 1_655
O4 Ta0 2.003236 1_665
O5 P5 1.545880 1_545
O5 Ta0 2.015607 1_655
O6 P5 1.576924 1_555
O6 Ta1 1.987891 1_565
O7 P3 1.575849 1_555
O7 Ta1 1.987112 1_455
O8 P4 1.564552 1_555
O8 Ta1 2.024713 1_465
O9 P1 1.570345 1_555
O9 Ta2 2.032214 1_665
O10 P2 1.590153 1_455
O10 Ta2 1.980965 1_555
O11 P0 1.583293 1_565
O11 Ta2 1.992521 1_565
O12 Si0 1.582236 1_555
O13 P6 1.507896 1_555
O14 P7 1.511008 1_555
O15 P8 1.505983 1_555
O16 P9 1.503674 1_555
O17 Si1 1.578359 1_555
O18 Si1 1.655773 1_555
O18 Ta3 1.932262 1_554
O19 P8 1.556502 1_555
O19 Ta3 2.057348 1_554
O20 P9 1.557878 1_555
O20 Ta3 2.059139 1_554
O21 P6 1.559994 1_555
O21 Ta4 2.038102 1_555
O22 P7 1.547684 1_555
O22 Ta4 2.069699 1_555
O23 Si0 1.664610 1_555
O23 Ta4 1.906950 1_555
O24 Si2 1.618896 1_555
O24 Ta5 1.934521 1_556
O25 Si3 1.620196 1_555
O25 Ta5 1.927178 1_556
O26 Si4 1.608938 1_555
O26 Ta5 1.963879 1_556
O27 Si5 1.632752 1_555
O27 Ta6 1.899972 1_555
O28 P10 1.557190 1_555
O28 Ta6 1.958815 1_555
O29 P11 1.552249 1_555
O29 Ta6 1.969341 1_555
O30 P11 1.554390 1_555
O30 Ta7 2.047218 1_555
O31 Si5 1.658567 1_555
O31 Ta7 1.913723 1_555
O32 P10 1.558218 1_555
O32 Ta7 2.033056 1_555
O33 Si3 1.642850 1_555
O33 Ta8 1.910111 1_555
O34 Si4 1.644009 1_555
O34 Ta8 1.910155 1_555
O35 Si2 1.639309 1_555
O35 Ta8 1.918732 1_555
O36 P11 1.503911 1_555
O37 Si5 1.586103 1_555
O38 P10 1.507243 1_555
O39 Si3 1.634879 1_555
O39 Ta0 1.933219 1_555
O40 Si4 1.635916 1_555
O40 Ta0 1.931360 1_565
O41 Si2 1.632782 1_555
O41 Ta0 1.935849 1_665
O42 Si0 1.665502 1_555
O42 Ta1 1.927818 1_555
O43 P6 1.566307 1_555
O43 Ta1 2.032332 1_455
O44 P7 1.569952 1_555
O44 Ta1 2.025467 1_565
O45 P8 1.570562 1_555
O45 Ta2 2.048396 1_665
O46 P9 1.571403 1_555
O46 Ta2 2.045011 1_655
O47 Si1 1.667344 1_555
O47 Ta2 1.941287 1_555
O48 P5 1.516527 1_545
O49 P3 1.518200 1_555
O50 P4 1.520125 1_655
O51 P1 1.520682 1_555
O52 P2 1.520815 1_555
O53 P0 1.520120 1_555
O54 Si2 1.624579 1_555
O54 Ta3 1.961021 1_555
O55 Si3 1.612792 1_655
O55 Ta3 1.991172 1_555
O56 Si4 1.628032 1_545
O56 Ta3 1.955826 1_555
O57 Si5 1.665557 1_545
O57 Ta4 1.918209 1_555
O58 P10 1.556148 1_555
O58 Ta4 2.057161 1_555
O59 P11 1.570105 1_655
O59 Ta4 2.014508 1_555
O60 Si1 1.640945 1_555
O60 Ta5 1.942785 1_555
O61 P8 1.551512 1_455
O61 Ta5 2.035053 1_555
O62 P9 1.549873 1_565
O62 Ta5 2.036759 1_555
O63 P6 1.553947 1_565
O63 Ta6 2.016860 1_555
O64 P7 1.558208 1_555
O64 Ta6 2.005823 1_555
O65 Si0 1.634116 1_455
O65 Ta6 1.953192 1_555
O66 P0 1.591665 1_565
O66 Ta7 1.995883 1_555
O67 P1 1.598893 1_555
O67 Ta7 1.985810 1_555
O68 P2 1.576786 1_455
O68 Ta7 2.040196 1_555
O69 P3 1.554543 1_555
O69 Ta8 2.096546 1_555
O70 P4 1.560784 1_555
O70 Ta8 2.081503 1_555
O71 P5 1.555297 1_555
O71 Ta8 2.091719 1_555
