# generated using pymatgen
data_MgTi6AgS12
_symmetry_space_group_name_H-M   'P 1'
_cell_length_a   10.28258652
_cell_length_b   5.96216041
_cell_length_c   8.72568268
_cell_angle_alpha   69.75877687
_cell_angle_beta   53.85837106
_cell_angle_gamma   89.99428046
_symmetry_Int_Tables_number   1
_chemical_formula_structural   MgTi6AgS12
_chemical_formula_sum   'Mg1 Ti6 Ag1 S12'
_cell_volume   390.35953962
_cell_formula_units_Z   1
loop_
 _symmetry_equiv_pos_site_id
 _symmetry_equiv_pos_as_xyz
  1  'x, y, z'
loop_
 _atom_site_type_symbol
 _atom_site_label
 _atom_site_symmetry_multiplicity
 _atom_site_fract_x
 _atom_site_fract_y
 _atom_site_fract_z
 _atom_site_occupancy
  Mg  Mg0  1  0.67365200  0.99947700  0.00122500  1
  Ti  Ti0  1  0.08235600  0.74735800  0.50313600  1
  Ti  Ti1  1  0.24695900  0.23774800  0.50672500  1
  Ti  Ti2  1  0.40816300  0.73819400  0.51558700  1
  Ti  Ti3  1  0.58428500  0.25170300  0.49923000  1
  Ti  Ti4  1  0.75203900  0.76066000  0.49595800  1
  Ti  Ti5  1  0.92227500  0.26081900  0.48679300  1
  Ag  Ag0  1  0.48653800  0.49943500  0.00124200  1
  S  S0  1  0.02772400  0.70070600  0.27787000  1
  S  S1  1  0.19124600  0.19123800  0.27732900  1
  S  S2  1  0.36404400  0.70336200  0.27332400  1
  S  S3  1  0.13503500  0.79956000  0.72835700  1
  S  S4  1  0.30433700  0.29821900  0.72466800  1
  S  S5  1  0.53345400  0.19253700  0.27162000  1
  S  S6  1  0.69702400  0.70021700  0.27264700  1
  S  S7  1  0.46733700  0.80754000  0.72531800  1
  S  S8  1  0.86208200  0.19932100  0.27414500  1
  S  S9  1  0.63617300  0.29552400  0.72910900  1
  S  S10  1  0.80385900  0.80654400  0.73091400  1
  S  S11  1  0.96838000  0.29912400  0.72986700  1
loop_
_geom_bond_atom_site_label_1
_geom_bond_atom_site_label_2
_geom_bond_distance
_geom_bond_site_symmetry_2
Mg0 S11 2.567541 1_564
Mg0 S6 2.568588 1_555
Mg0 S10 2.613626 1_554
Mg0 S5 2.614692 1_565
Mg0 S2 2.659690 1_555
Mg0 S9 2.661027 1_564
Ag0 S1 2.590244 1_555
Ag0 S7 2.590452 1_554
Ag0 S2 2.677848 1_555
Ag0 S9 2.677961 1_554
Ag0 S10 2.738091 1_554
Ag0 S5 2.738991 1_555
S0 Ti5 2.395437 1_455
S0 Ti4 2.427399 1_455
S0 Ti0 2.436662 1_555
S1 Ti5 2.392410 1_455
S1 Ti0 2.435146 1_545
S1 Ti1 2.479581 1_555
S2 Ti0 2.447885 1_555
S2 Ti2 2.480429 1_555
S2 Ti1 2.549528 1_555
S3 Ti1 2.401905 1_565
S3 Ti2 2.405743 1_555
S3 Ti0 2.435413 1_555
S4 Ti2 2.396031 1_555
S4 Ti1 2.427443 1_555
S4 Ti3 2.435311 1_555
S5 Ti3 2.459939 1_555
S5 Ti1 2.492667 1_555
S5 Ti2 2.510963 1_545
S6 Ti4 2.456182 1_555
S6 Ti3 2.458140 1_555
S6 Ti2 2.504439 1_555
S7 Ti2 2.393178 1_555
S7 Ti3 2.436833 1_565
S7 Ti4 2.475792 1_555
S8 Ti4 2.404419 1_545
S8 Ti5 2.405384 1_555
S8 Ti3 2.433316 1_555
S9 Ti3 2.449776 1_555
S9 Ti5 2.476577 1_555
S9 Ti4 2.546908 1_555
S10 Ti0 2.459031 1_655
S10 Ti4 2.497712 1_555
S10 Ti5 2.510963 1_565
S11 Ti0 2.456977 1_655
S11 Ti1 2.458515 1_655
S11 Ti5 2.509334 1_555
