# generated using pymatgen
data_La3MoO7
_symmetry_space_group_name_H-M   'P 1'
_cell_length_a   7.72515900
_cell_length_b   7.80908200
_cell_length_c   11.12450100
_cell_angle_alpha   90.00000000
_cell_angle_beta   90.00000000
_cell_angle_gamma   90.00000000
_symmetry_Int_Tables_number   1
_chemical_formula_structural   La3MoO7
_chemical_formula_sum   'La12 Mo4 O28'
_cell_volume   671.10109817
_cell_formula_units_Z   4
loop_
 _symmetry_equiv_pos_site_id
 _symmetry_equiv_pos_as_xyz
  1  'x, y, z'
loop_
 _atom_site_type_symbol
 _atom_site_label
 _atom_site_symmetry_multiplicity
 _atom_site_fract_x
 _atom_site_fract_y
 _atom_site_fract_z
 _atom_site_occupancy
  La  La0  1  0.52838400  0.99182000  0.75376600  1
  La  La1  1  0.29359300  0.25318300  0.46725500  1
  La  La2  1  0.20640700  0.74681700  0.96725500  1
  La  La3  1  0.70640700  0.75318300  0.03274500  1
  La  La4  1  0.79359300  0.24681700  0.53274500  1
  La  La5  1  0.02838400  0.50818000  0.24623400  1
  La  La6  1  0.47161600  0.49182000  0.74623400  1
  La  La7  1  0.97161600  0.00818000  0.25376600  1
  La  La8  1  0.69723600  0.74683600  0.48129600  1
  La  La9  1  0.19723600  0.75316400  0.51870400  1
  La  La10  1  0.30276400  0.24683600  0.01870400  1
  La  La11  1  0.80276400  0.25316400  0.98129600  1
  Mo  Mo0  1  0.49886800  0.99989400  0.24939700  1
  Mo  Mo1  1  0.99886800  0.50010600  0.75060300  1
  Mo  Mo2  1  0.50113200  0.49989400  0.25060300  1
  Mo  Mo3  1  0.00113200  0.00010600  0.74939700  1
  O  O0  1  0.50903100  0.23986700  0.61897500  1
  O  O1  1  0.00903100  0.26013300  0.38102500  1
  O  O2  1  0.49096900  0.73986700  0.88102500  1
  O  O3  1  0.99096900  0.76013300  0.11897500  1
  O  O4  1  0.53572500  0.25251000  0.88275800  1
  O  O5  1  0.03572500  0.24749000  0.11724200  1
  O  O6  1  0.46427500  0.75251000  0.61724200  1
  O  O7  1  0.96427500  0.74749000  0.38275800  1
  O  O8  1  0.30649300  0.96936700  0.36988100  1
  O  O9  1  0.80649300  0.53063300  0.63011900  1
  O  O10  1  0.69350700  0.46936700  0.13011900  1
  O  O11  1  0.19350700  0.03063300  0.86988100  1
  O  O12  1  0.67634700  0.03465100  0.37411300  1
  O  O13  1  0.17634700  0.46534900  0.62588700  1
  O  O14  1  0.32365300  0.53465100  0.12588700  1
  O  O15  1  0.82365300  0.96534900  0.87411300  1
  O  O16  1  0.57835600  0.74612100  0.25697800  1
  O  O17  1  0.07835600  0.75387900  0.74302200  1
  O  O18  1  0.42164400  0.24612100  0.24302200  1
  O  O19  1  0.92164400  0.25387900  0.75697800  1
  O  O20  1  0.78791000  0.96588100  0.62980300  1
  O  O21  1  0.28791000  0.53411900  0.37019700  1
  O  O22  1  0.36684600  0.95183100  0.10924300  1
  O  O23  1  0.71209000  0.03411900  0.12980300  1
  O  O24  1  0.13315400  0.04816900  0.60924300  1
  O  O25  1  0.63315400  0.45183100  0.39075700  1
  O  O26  1  0.86684600  0.54816900  0.89075700  1
  O  O27  1  0.21209000  0.46588100  0.87019700  1
loop_
_geom_bond_atom_site_label_1
_geom_bond_atom_site_label_2
_geom_bond_distance
_geom_bond_site_symmetry_2
La0 O2 2.441080 1_555
La0 O20 2.441779 1_555
La0 O0 2.454148 1_565
La0 O6 2.458514 1_555
La0 O4 2.491312 1_565
La0 O15 2.652938 1_555
La0 O11 2.907381 1_565
La1 O0 2.372632 1_555
La1 O1 2.399083 1_555
La1 O21 2.445550 1_555
La1 O8 2.468908 1_545
La1 O24 2.567923 1_555
La1 O13 2.584493 1_555
La1 O18 2.684030 1_555
La2 O3 2.372632 1_456
La2 O2 2.399083 1_555
La2 O27 2.445550 1_555
La2 O11 2.468908 1_565
La2 O22 2.567923 1_556
La2 O14 2.584493 1_556
La2 O17 2.684030 1_555
La3 O2 2.372632 1_554
La3 O3 2.399083 1_555
La3 O23 2.445550 1_565
La3 O10 2.468908 1_555
La3 O26 2.567923 1_554
La3 O15 2.584493 1_554
La3 O16 2.684030 1_555
La4 O1 2.372632 1_655
La4 O0 2.399083 1_555
La4 O20 2.445550 1_545
La4 O9 2.468908 1_555
La4 O25 2.567923 1_555
La4 O12 2.584493 1_555
La4 O19 2.684030 1_555
La5 O3 2.441080 1_455
La5 O21 2.441779 1_555
La5 O1 2.454148 1_555
La5 O7 2.458514 1_455
La5 O5 2.491312 1_555
La5 O14 2.652938 1_555
La5 O10 2.907381 1_455
La6 O0 2.441080 1_555
La6 O27 2.441779 1_555
La6 O2 2.454148 1_555
La6 O4 2.458514 1_555
La6 O6 2.491312 1_555
La6 O13 2.652938 1_555
La6 O9 2.907381 1_555
La7 O1 2.441080 1_655
La7 O23 2.441779 1_555
La7 O3 2.454148 1_545
La7 O5 2.458514 1_655
La7 O7 2.491312 1_545
La7 O12 2.652938 1_555
La7 O8 2.907381 1_645
La8 O7 2.336083 1_555
La8 O6 2.351146 1_555
La8 O20 2.479099 1_555
La8 O9 2.510747 1_555
La8 O12 2.549379 1_565
La8 O25 2.562546 1_555
La8 O16 2.659056 1_555
La9 O6 2.336083 1_555
La9 O7 2.351146 1_455
La9 O21 2.479099 1_555
La9 O8 2.510747 1_555
La9 O13 2.549379 1_555
La9 O24 2.562546 1_565
La9 O17 2.659056 1_555
La10 O5 2.336083 1_555
La10 O4 2.351146 1_554
La10 O27 2.479099 1_554
La10 O11 2.510747 1_554
La10 O14 2.549379 1_555
La10 O22 2.562546 1_545
La10 O18 2.659056 1_555
La11 O4 2.336083 1_555
La11 O5 2.351146 1_656
La11 O23 2.479099 1_556
La11 O10 2.510747 1_556
La11 O15 2.549379 1_545
La11 O26 2.562546 1_555
La11 O19 2.659056 1_555
Mo0 O22 1.900520 1_555
Mo0 O12 1.969351 1_565
Mo0 O18 2.014475 1_565
Mo0 O8 2.015409 1_555
Mo0 O16 2.076403 1_555
Mo0 O23 2.134160 1_565
Mo1 O26 1.900520 1_555
Mo1 O13 1.969351 1_655
Mo1 O19 2.014475 1_555
Mo1 O9 2.015409 1_555
Mo1 O17 2.076403 1_655
Mo1 O27 2.134160 1_655
Mo2 O25 1.900520 1_555
Mo2 O14 1.969351 1_555
Mo2 O16 2.014475 1_555
Mo2 O10 2.015409 1_555
Mo2 O18 2.076403 1_555
Mo2 O21 2.134160 1_555
Mo3 O24 1.900520 1_555
Mo3 O15 1.969351 1_445
Mo3 O17 2.014475 1_545
Mo3 O11 2.015409 1_555
Mo3 O19 2.076403 1_455
Mo3 O20 2.134160 1_445
