# generated using pymatgen
data_Sr2InSbO6
_symmetry_space_group_name_H-M   'P 1'
_cell_length_a   5.83501200
_cell_length_b   5.80304200
_cell_length_c   10.06315564
_cell_angle_alpha   54.67494573
_cell_angle_beta   90.00000000
_cell_angle_gamma   90.00000000
_symmetry_Int_Tables_number   1
_chemical_formula_structural   Sr2InSbO6
_chemical_formula_sum   'Sr4 In2 Sb2 O12'
_cell_volume   278.01006146
_cell_formula_units_Z   2
loop_
 _symmetry_equiv_pos_site_id
 _symmetry_equiv_pos_as_xyz
  1  'x, y, z'
loop_
 _atom_site_type_symbol
 _atom_site_label
 _atom_site_symmetry_multiplicity
 _atom_site_fract_x
 _atom_site_fract_y
 _atom_site_fract_z
 _atom_site_occupancy
  Sr  Sr0  1  0.03272500  0.74308600  0.25008600  1
  Sr  Sr1  1  0.53272500  0.25691400  0.24991400  1
  Sr  Sr2  1  0.96727500  0.25691400  0.74991400  1
  Sr  Sr3  1  0.46727500  0.74308600  0.75008600  1
  In  In0  1  0.50000000  0.50000000  0.50000000  1
  In  In1  1  0.00000000  0.50000000  0.00000000  1
  Sb  Sb0  1  0.00000000  0.00000000  0.50000000  1
  Sb  Sb1  1  0.50000000  0.00000000  0.00000000  1
  O  O0  1  0.72360800  0.75789800  0.54088400  1
  O  O1  1  0.70368200  0.31444400  0.96172400  1
  O  O2  1  0.47995400  0.83547700  0.23945000  1
  O  O3  1  0.27639200  0.24210200  0.45911600  1
  O  O4  1  0.29631800  0.68555600  0.03827600  1
  O  O5  1  0.97995400  0.16452300  0.26055000  1
  O  O6  1  0.52004600  0.16452300  0.76055000  1
  O  O7  1  0.02004600  0.83547700  0.73945000  1
  O  O8  1  0.77639200  0.75789800  0.04088400  1
  O  O9  1  0.79631800  0.31444400  0.46172400  1
  O  O10  1  0.22360800  0.24210200  0.95911600  1
  O  O11  1  0.20368200  0.68555600  0.53827600  1
loop_
_geom_bond_atom_site_label_1
_geom_bond_atom_site_label_2
_geom_bond_distance
_geom_bond_site_symmetry_2
In0 O6 2.185280 1_555
In0 O2 2.185280 1_555
In0 O11 2.185630 1_555
In0 O9 2.185630 1_555
In0 O3 2.196246 1_555
In0 O0 2.196246 1_555
In1 O7 2.185280 1_554
In1 O5 2.185280 1_455
In1 O1 2.185630 1_454
In1 O4 2.185630 1_555
In1 O8 2.196246 1_455
In1 O10 2.196246 1_554
O0 Sb0 2.018816 1_665
O0 Sr3 2.543082 1_555
O0 Sr2 2.797542 1_555
O0 Sr1 2.897304 1_565
O1 Sb1 2.019336 1_556
O1 Sr3 2.549446 1_555
O1 Sr2 2.800573 1_555
O1 Sr1 2.897839 1_556
O2 Sb1 2.017687 1_565
O2 Sr1 2.526807 1_565
O2 Sr0 2.653769 1_555
O3 Sb0 2.018816 1_555
O3 Sr1 2.543082 1_555
O3 Sr0 2.797542 1_555
O3 Sr3 2.897304 1_545
O4 Sb1 2.019336 1_565
O4 Sr1 2.549446 1_555
O4 Sr0 2.800573 1_555
O4 Sr3 2.897839 1_554
O5 Sb0 2.017687 1_655
O5 Sr0 2.526807 1_645
O5 Sr1 2.653769 1_555
O6 Sb1 2.017687 1_556
O6 Sr3 2.526807 1_545
O6 Sr2 2.653769 1_555
O7 Sb0 2.017687 1_565
O7 Sr2 2.526807 1_465
O7 Sr3 2.653769 1_555
O8 Sb1 2.018816 1_565
O8 Sr0 2.543082 1_655
O8 Sr1 2.797542 1_555
O8 Sr2 2.897304 1_564
O9 Sb0 2.019336 1_655
O9 Sr0 2.549446 1_655
O9 Sr1 2.800573 1_555
O9 Sr2 2.897839 1_555
O10 Sb1 2.018816 1_556
O10 Sr2 2.543082 1_455
O10 Sr3 2.797542 1_555
O10 Sr0 2.897304 1_546
O11 Sb0 2.019336 1_565
O11 Sr2 2.549446 1_455
O11 Sr3 2.800573 1_555
O11 Sr0 2.897839 1_555
