# generated using pymatgen
data_Na6Y6Ta2Si5S7O48
_symmetry_space_group_name_H-M   'P 1'
_cell_length_a   18.34359394
_cell_length_b   9.20800989
_cell_length_c   23.90314296
_cell_angle_alpha   90.07806259
_cell_angle_beta   90.10330924
_cell_angle_gamma   120.09043125
_symmetry_Int_Tables_number   1
_chemical_formula_structural   Na6Y6Ta2Si5S7O48
_chemical_formula_sum   'Na18 Y18 Ta6 Si15 S21 O144'
_cell_volume   3493.31041883
_cell_formula_units_Z   3
loop_
 _symmetry_equiv_pos_site_id
 _symmetry_equiv_pos_as_xyz
  1  'x, y, z'
loop_
 _atom_site_type_symbol
 _atom_site_label
 _atom_site_symmetry_multiplicity
 _atom_site_fract_x
 _atom_site_fract_y
 _atom_site_fract_z
 _atom_site_occupancy
  Na  Na0  1  0.99279011  0.68161256  0.91008673  1
  Na  Na1  1  0.34810439  0.02764612  0.91415761  1
  Na  Na2  1  0.17311278  0.30613681  0.91270385  1
  Na  Na3  1  0.49303440  0.30664864  0.42181375  1
  Na  Na4  1  0.67157332  0.03675810  0.41658390  1
  Na  Na5  1  0.84575115  0.66871737  0.41798241  1
  Na  Na6  1  0.99684833  0.99731428  0.49418051  1
  Na  Na7  1  0.49924824  0.00133889  0.50182770  1
  Na  Na8  1  0.00035789  0.00345172  0.99654785  1
  Na  Na9  1  0.49689152  0.99716196  0.99057377  1
  Na  Na10  1  0.33943221  0.34743269  0.84049223  1
  Na  Na11  1  0.82611463  0.32319830  0.81829362  1
  Na  Na12  1  0.32828578  0.33431894  0.32315113  1
  Na  Na13  1  0.83658780  0.32731422  0.34655496  1
  Na  Na14  1  0.17215212  0.67154581  0.17069009  1
  Na  Na15  1  0.66490595  0.66566103  0.16798990  1
  Na  Na16  1  0.16865910  0.66652663  0.66703935  1
  Na  Na17  1  0.65788523  0.65201826  0.66082699  1
  Y  Y0  1  0.00344870  0.00372221  0.35508184  1
  Y  Y1  1  0.49719276  0.00362057  0.34785685  1
  Y  Y2  1  0.99703365  0.99156667  0.84681368  1
  Y  Y3  1  0.50303663  0.00304483  0.85280723  1
  Y  Y4  1  0.33723289  0.34282260  0.68139882  1
  Y  Y5  1  0.83299284  0.33310743  0.68871308  1
  Y  Y6  1  0.33391952  0.33305032  0.18956588  1
  Y  Y7  1  0.83190827  0.32382701  0.18348416  1
  Y  Y8  1  0.34567968  0.35042693  0.97735916  1
  Y  Y9  1  0.82771655  0.30564412  0.98570641  1
  Y  Y10  1  0.33528866  0.34995348  0.49113271  1
  Y  Y11  1  0.84360569  0.33727289  0.47907822  1
  Y  Y12  1  0.17049475  0.67740949  0.01644110  1
  Y  Y13  1  0.66669549  0.66637683  0.02007332  1
  Y  Y14  1  0.16665379  0.66690414  0.52150791  1
  Y  Y15  1  0.66641646  0.65709447  0.51796476  1
  Y  Y16  1  0.66808629  0.65457636  0.31406390  1
  Y  Y17  1  0.16967685  0.68299485  0.81217946  1
  Ta  Ta0  1  0.99299282  0.98665690  0.65579902  1
  Ta  Ta1  1  0.50170122  0.02001235  0.64393797  1
  Ta  Ta2  1  0.00260868  0.99938004  0.14934549  1
  Ta  Ta3  1  0.49205235  0.99721369  0.15562730  1
  Ta  Ta4  1  0.16612873  0.67807195  0.31188660  1
  Ta  Ta5  1  0.66203361  0.64912752  0.80773207  1
  Si  Si0  1  0.14345162  0.99371385  0.25049639  1
  Si  Si1  1  0.34797589  0.70299776  0.25324346  1
  Si  Si2  1  0.50466348  0.30599469  0.25074461  1
  Si  Si3  1  0.64299355  0.28719113  0.75008066  1
  Si  Si4  1  0.00371613  0.70197819  0.75091609  1
  Si  Si5  1  0.84823494  0.99275872  0.75312913  1
  Si  Si6  1  0.48464772  0.33997611  0.58271566  1
  Si  Si7  1  0.33501177  0.63996408  0.58807155  1
  Si  Si8  1  0.83564901  0.03009556  0.08683218  1
  Si  Si9  1  0.31298712  0.66696202  0.91551103  1
  Si  Si10  1  0.52469006  0.37843887  0.91526913  1
  Si  Si11  1  0.16415717  0.96461073  0.91914094  1
  Si  Si12  1  0.81179067  0.95715382  0.41591787  1
  Si  Si13  1  0.66509124  0.36348279  0.41757264  1
  Si  Si14  1  0.02339848  0.66868987  0.41590888  1
  S  S0  1  0.64320621  0.99864848  0.24673176  1
  S  S1  1  0.85771518  0.71604364  0.24611946  1
  S  S2  1  0.00445527  0.29403709  0.24907493  1
  S  S3  1  0.14420945  0.28806492  0.74724391  1
  S  S4  1  0.50348300  0.70894164  0.75139496  1
  S  S5  1  0.35737000  0.00018159  0.74641291  1
  S  S6  1  0.98228785  0.31976621  0.58711645  1
  S  S7  1  0.17715965  0.03610727  0.58662313  1
  S  S8  1  0.68062001  0.03715576  0.58466903  1
  S  S9  1  0.84021064  0.64399050  0.58557812  1
  S  S10  1  0.48252368  0.64446538  0.08706476  1
  S  S11  1  0.98137425  0.63913742  0.08577189  1
  S  S12  1  0.33881495  0.03474647  0.08590583  1
  S  S13  1  0.17948129  0.32489752  0.08557110  1
  S  S14  1  0.67859306  0.32053233  0.08624080  1
  S  S15  1  0.80923480  0.66181676  0.91429258  1
  S  S16  1  0.01814590  0.37440637  0.91748952  1
  S  S17  1  0.66899444  0.95200341  0.91355957  1
  S  S18  1  0.30805315  0.95583376  0.41330784  1
  S  S19  1  0.17109716  0.38912818  0.41291737  1
  S  S20  1  0.51726044  0.66243220  0.41617968  1
  O  O0  1  0.10061263  0.02029342  0.30356574  1
  O  O1  1  0.60722696  0.01609857  0.29932432  1
  O  O2  1  0.40593584  0.78720285  0.30617953  1
  O  O3  1  0.90407194  0.78887811  0.29805039  1
  O  O4  1  0.49575513  0.20433094  0.30773502  1
  O  O5  1  0.98906541  0.19531269  0.29911406  1
  O  O6  1  0.10691465  0.19864159  0.80027281  1
  O  O7  1  0.60316214  0.18406535  0.80532255  1
  O  O8  1  0.49204801  0.78289606  0.80179625  1
  O  O9  1  0.99496911  0.78352860  0.80917752  1
  O  O10  1  0.40313984  0.01680279  0.79883795  1
  O  O11  1  0.90560498  0.02495359  0.80675459  1
  O  O12  1  0.40632531  0.98839318  0.69721032  1
  O  O13  1  0.90234856  0.97068232  0.69656424  1
  O  O14  1  0.08631590  0.18632564  0.69845632  1
  O  O15  1  0.58139662  0.18856594  0.69490612  1
  O  O16  1  0.00710073  0.83490596  0.69713418  1
  O  O17  1  0.51724438  0.81242836  0.70104620  1
  O  O18  1  0.40202857  0.83313155  0.19603853  1
  O  O19  1  0.90742664  0.82964690  0.19666374  1
  O  O20  1  0.01502012  0.20482129  0.19867094  1
  O  O21  1  0.50727260  0.17910657  0.19601761  1
  O  O22  1  0.08089104  0.96963194  0.19404801  1
  O  O23  1  0.58636755  0.98574791  0.19759630  1
  O  O24  1  0.43279212  0.34525594  0.63551710  1
  O  O25  1  0.94067075  0.34570645  0.63493494  1
  O  O26  1  0.23063142  0.11606601  0.63559646  1
  O  O27  1  0.73469358  0.12314135  0.63273408  1
  O  O28  1  0.31857815  0.51845840  0.64042058  1
  O  O29  1  0.83077042  0.53611892  0.63288584  1
  O  O30  1  0.44090802  0.53588004  0.13489713  1
  O  O31  1  0.93660458  0.53403345  0.13384077  1
  O  O32  1  0.32924749  0.12291648  0.13316150  1
  O  O33  1  0.82496999  0.12818152  0.13937837  1
  O  O34  1  0.23391874  0.34972642  0.13331682  1
  O  O35  1  0.73349670  0.34806643  0.13506769  1
  O  O36  1  0.21013613  0.29114520  0.03333659  1
  O  O37  1  0.71805145  0.29673826  0.03508791  1
  O  O38  1  0.43218447  0.57511885  0.03550921  1
  O  O39  1  0.93245002  0.56985173  0.03331166  1
  O  O40  1  0.35258074  0.12624580  0.03298018  1
  O  O41  1  0.85519962  0.14679341  0.03060836  1
  O  O42  1  0.21466711  0.13721943  0.53525167  1
  O  O43  1  0.71344312  0.13485947  0.53268060  1
  O  O44  1  0.35512861  0.56677117  0.53114857  1
  O  O45  1  0.85487208  0.57942939  0.53275654  1
  O  O46  1  0.43154308  0.30192924  0.52374381  1
  O  O47  1  0.93225297  0.28899819  0.53545583  1
  O  O48  1  0.26961065  0.69522041  0.97151006  1
  O  O49  1  0.77159141  0.68244284  0.96527811  1
  O  O50  1  0.06936286  0.45148238  0.96837056  1
  O  O51  1  0.57673975  0.46760287  0.97113296  1
  O  O52  1  0.14148649  0.83772962  0.97237198  1
  O  O53  1  0.66284949  0.86144392  0.96558880  1
  O  O54  1  0.26930242  0.85899957  0.46367826  1
  O  O55  1  0.76868078  0.84210125  0.47089044  1
  O  O56  1  0.16363209  0.46784688  0.46448150  1
  O  O57  1  0.64234946  0.44631900  0.46971100  1
  O  O58  1  0.07729487  0.68555913  0.47060853  1
  O  O59  1  0.56858597  0.68765431  0.46674843  1
  O  O60  1  0.07885850  0.65330971  0.35958537  1
  O  O61  1  0.55712437  0.63890877  0.36586613  1
  O  O62  1  0.25632699  0.86057130  0.36153288  1
  O  O63  1  0.75339720  0.87611932  0.35983468  1
  O  O64  1  0.17816331  0.49414738  0.36213128  1
  O  O65  1  0.68145759  0.47811695  0.36175808  1
  O  O66  1  0.05708788  0.47662485  0.86733163  1
  O  O67  1  0.57979552  0.50438973  0.86002166  1
  O  O68  1  0.17888256  0.87800527  0.86409319  1
  O  O69  1  0.67798206  0.86589017  0.86333436  1
  O  O70  1  0.25238084  0.62937868  0.86098825  1
  O  O71  1  0.75788864  0.64735893  0.86339619  1
  O  O72  1  0.00841603  0.82759283  0.41084038  1
  O  O73  1  0.50922508  0.81408628  0.41129292  1
  O  O74  1  0.39351175  0.97752899  0.40894192  1
  O  O75  1  0.90403318  0.97148999  0.41141996  1
  O  O76  1  0.09411697  0.22344435  0.40858505  1
  O  O77  1  0.58356229  0.16957488  0.41421872  1
  O  O78  1  0.00852207  0.20549983  0.91293551  1
  O  O79  1  0.50880219  0.18880263  0.91107990  1
  O  O80  1  0.08269319  0.99585307  0.91535672  1
  O  O81  1  0.59340064  0.96801560  0.91031033  1
  O  O82  1  0.40437525  0.83716316  0.91189828  1
  O  O83  1  0.89573217  0.81155550  0.91062905  1
  O  O84  1  0.49292331  0.16263848  0.59380065  1
  O  O85  1  0.99144339  0.16680225  0.59636375  1
  O  O86  1  0.09163971  0.02126537  0.59473693  1
  O  O87  1  0.59398957  0.02009788  0.59461041  1
  O  O88  1  0.42310592  0.82598141  0.60286103  1
  O  O89  1  0.91951063  0.81778084  0.59489123  1
  O  O90  1  0.49185736  0.81624335  0.09647970  1
  O  O91  1  0.98957562  0.81226681  0.09397069  1
  O  O92  1  0.41729278  0.01708198  0.09473663  1
  O  O93  1  0.92339484  0.01666399  0.10150487  1
  O  O94  1  0.09237012  0.16647474  0.09665885  1
  O  O95  1  0.59431473  0.16450061  0.09402608  1
  O  O96  1  0.34686237  0.14735034  0.74118110  1
  O  O97  1  0.83273751  0.14447701  0.74058982  1
  O  O98  1  0.22606248  0.29845884  0.74142910  1
  O  O99  1  0.73728522  0.32929317  0.74044163  1
  O  O100  1  0.43158776  0.53689766  0.74598648  1
  O  O101  1  0.91964974  0.52464083  0.74266117  1
  O  O102  1  0.33266213  0.52081638  0.24019061  1
  O  O103  1  0.85024505  0.55090380  0.23749110  1
  O  O104  1  0.42044598  0.31491936  0.24236064  1
  O  O105  1  0.93296186  0.32256240  0.23976699  1
  O  O106  1  0.23632812  0.14225249  0.23920788  1
  O  O107  1  0.72590542  0.15340858  0.24031507  1
  O  O108  1  0.31829296  0.49541707  0.92298942  1
  O  O109  1  0.81949714  0.51079328  0.91787239  1
  O  O110  1  0.43061635  0.35826524  0.91393063  1
  O  O111  1  0.93456876  0.36664679  0.92379499  1
  O  O112  1  0.25015435  0.14659104  0.92709728  1
  O  O113  1  0.74589911  0.12426485  0.91682249  1
  O  O114  1  0.31465399  0.12229237  0.41372039  1
  O  O115  1  0.81802124  0.14064602  0.42284800  1
  O  O116  1  0.24704180  0.37156646  0.41503112  1
  O  O117  1  0.75102254  0.35270695  0.42566395  1
  O  O118  1  0.43322206  0.50561232  0.42110250  1
  O  O119  1  0.93010783  0.50123324  0.41476405  1
  O  O120  1  0.16335652  0.46670969  0.08160159  1
  O  O121  1  0.66795783  0.46769868  0.08072129  1
  O  O122  1  0.06615326  0.66048020  0.08322746  1
  O  O123  1  0.56771209  0.66647354  0.08099268  1
  O  O124  1  0.26453233  0.86267304  0.08369397  1
  O  O125  1  0.75710118  0.84280284  0.08093660  1
  O  O126  1  0.16533875  0.86594036  0.58048078  1
  O  O127  1  0.66746822  0.86675497  0.58025998  1
  O  O128  1  0.25763561  0.67591701  0.58079881  1
  O  O129  1  0.76756532  0.66968101  0.58279462  1
  O  O130  1  0.06744890  0.46836027  0.58113177  1
  O  O131  1  0.57879849  0.49820214  0.58347797  1
  O  O132  1  0.14848919  0.81387062  0.25954005  1
  O  O133  1  0.64983857  0.84726942  0.24501504  1
  O  O134  1  0.25562240  0.69596593  0.26037310  1
  O  O135  1  0.77574282  0.70663426  0.24491174  1
  O  O136  1  0.08419433  0.46222606  0.25358386  1
  O  O137  1  0.59106739  0.48245279  0.24447875  1
  O  O138  1  0.14922069  0.45171763  0.74602528  1
  O  O139  1  0.64725223  0.47811732  0.75859454  1
  O  O140  1  0.09035346  0.69878418  0.74518668  1
  O  O141  1  0.58403134  0.69569499  0.75857138  1
  O  O142  1  0.27518906  0.84311555  0.74575594  1
  O  O143  1  0.75634263  0.81474621  0.76222089  1
loop_
_geom_bond_atom_site_label_1
_geom_bond_atom_site_label_2
_geom_bond_distance
_geom_bond_site_symmetry_2
Na0 O80 2.514246 1_655
Na0 O111 2.560698 1_555
Na0 O9 2.582470 1_555
Na0 O83 2.595716 1_555
Na0 O109 2.757323 1_555
Na0 O52 2.787609 1_655
Na0 O66 2.868753 1_655
Na1 O82 2.441339 1_545
Na1 O112 2.549100 1_555
Na1 O79 2.551798 1_555
Na1 O110 2.634124 1_555
Na1 O68 2.942718 1_545
Na1 O10 2.955981 1_555
Na1 O40 2.969064 1_556
Na1 O48 2.986854 1_545
Na2 O108 2.352150 1_555
Na2 O80 2.483370 1_545
Na2 O112 2.520965 1_555
Na2 O78 2.677475 1_555
Na2 O70 2.859761 1_555
Na2 O6 2.907311 1_555
Na2 O36 2.980419 1_556
Na3 O77 2.546730 1_555
Na3 O118 2.564394 1_555
Na3 O57 2.630453 1_555
Na3 O74 2.656954 1_545
Na3 O46 2.677973 1_555
Na3 O114 2.837783 1_555
Na3 O4 2.892476 1_555
Na3 O61 2.990150 1_555
Na4 O115 2.361248 1_555
Na4 O77 2.466771 1_555
Na4 O117 2.525968 1_555
Na4 O73 2.638927 1_545
Na4 O43 2.897710 1_555
Na4 O63 2.917000 1_545
Na4 O1 3.007816 1_555
Na4 O59 3.044562 1_545
Na5 O75 2.439923 1_555
Na5 O117 2.540231 1_555
Na5 O72 2.588075 1_655
Na5 O119 2.678017 1_555
Na5 O45 2.893606 1_555
Na5 O55 2.900196 1_555
Na5 O65 2.940106 1_555
Na6 O75 2.539548 1_555
Na6 O72 2.604102 1_655
Na6 O76 2.829259 1_665
Na6 O89 2.865673 1_555
Na6 O86 2.906619 1_665
Na6 O85 2.925218 1_565
Na7 O77 2.606772 1_555
Na7 O84 2.686520 1_555
Na7 O87 2.766369 1_555
Na7 O73 2.827949 1_545
Na7 O88 2.855120 1_545
Na7 O74 2.880342 1_545
Na8 O80 2.483656 1_545
Na8 O78 2.685137 1_555
Na8 O83 2.756596 1_445
Na8 O91 2.867897 1_446
Na8 O94 2.874634 1_556
Na8 O93 2.913104 1_456
Na9 O82 2.461927 1_555
Na9 O79 2.529085 1_565
Na9 O81 2.715542 1_555
Na9 O92 2.940278 1_566
Na9 O95 2.982508 1_566
Na9 O90 3.008362 1_556
Na10 O110 2.389725 1_555
Na10 O108 2.533966 1_555
Na10 O112 2.715378 1_555
Na10 O100 2.841050 1_555
Na11 O99 2.490438 1_555
Na11 O97 2.523043 1_555
Na11 O101 2.545952 1_555
Na11 O113 2.896346 1_555
Na11 O109 2.977285 1_555
Na12 O102 2.599892 1_555
Na12 O104 2.633028 1_555
Na12 O106 2.643099 1_555
Na12 O116 2.772060 1_555
Na12 O114 2.843389 1_555
Na12 O118 2.933299 1_555
Na13 O119 2.322459 1_555
Na13 O115 2.412441 1_555
Na13 O117 2.543901 1_555
Na14 O134 2.575278 1_555
Na14 O132 2.642450 1_555
Na14 O136 2.673547 1_555
Na14 O124 2.706536 1_555
Na14 O120 2.793018 1_555
Na14 O122 2.819205 1_555
Na15 O137 2.397788 1_555
Na15 O133 2.592205 1_555
Na15 O135 2.621490 1_555
Na15 O125 2.665798 1_555
Na15 O123 2.739184 1_555
Na15 O121 2.787406 1_555
Na16 O140 2.465111 1_555
Na16 O128 2.606136 1_555
Na16 O142 2.606760 1_555
Na16 O138 2.628586 1_555
Na16 O130 2.751763 1_555
Na16 O126 2.788951 1_555
Na17 O131 2.334924 1_555
Na17 O129 2.690649 1_555
Na17 O127 2.704144 1_555
Na17 O139 2.786064 1_555
Na17 O141 2.830376 1_555
Na17 O143 2.939691 1_555
O0 Si0 1.575490 1_545
O0 Y0 2.109991 1_555
O1 S0 1.466476 1_545
O1 Y1 2.282384 1_555
O2 Si1 1.580668 1_555
O2 Y1 2.099860 1_565
O3 S1 1.461440 1_555
O3 Y0 2.337230 1_665
O4 Si2 1.615437 1_555
O4 Y1 2.095159 1_555
O5 S2 1.443455 1_655
O5 Y0 2.333134 1_655
O6 S3 1.481164 1_555
O6 Y2 2.257449 1_445
O7 Si3 1.578083 1_555
O7 Y3 2.093530 1_555
O8 S4 1.449500 1_555
O8 Y3 2.284578 1_565
O9 Si4 1.627211 1_655
O9 Y2 2.098280 1_555
O10 S5 1.471556 1_555
O10 Y3 2.294095 1_555
O11 Si5 1.587355 1_545
O11 Y2 2.082348 1_545
O12 S5 1.517440 1_565
O12 Ta1 2.065287 1_565
O13 Si5 1.749627 1_555
O13 Ta0 1.869979 1_555
O14 S3 1.536342 1_555
O14 Ta0 2.045262 1_445
O15 Si3 1.674279 1_555
O15 Ta1 1.934822 1_555
O16 Si4 1.755865 1_555
O16 Ta0 1.833344 1_455
O17 S4 1.477555 1_555
O17 Ta1 2.480013 1_565
O18 Si1 1.762580 1_555
O18 Ta3 1.857608 1_555
O19 S1 1.540783 1_555
O19 Ta2 2.011488 1_655
O20 S2 1.523739 1_555
O20 Ta2 2.140466 1_545
O21 Si2 1.769407 1_555
O21 Ta3 1.827834 1_545
O22 Si0 1.710307 1_555
O22 Ta2 1.915336 1_555
O23 S0 1.533500 1_555
O23 Ta3 2.046436 1_555
O24 Si6 1.597079 1_555
O24 Y4 2.059991 1_555
O25 S6 1.459989 1_555
O25 Y5 2.312377 1_555
O26 S7 1.464201 1_555
O26 Y4 2.296526 1_555
O27 S8 1.461730 1_555
O27 Y5 2.295277 1_555
O28 Si7 1.604803 1_555
O28 Y4 2.061574 1_555
O29 S9 1.458289 1_555
O29 Y5 2.315130 1_555
O30 S10 1.459658 1_555
O30 Y6 2.321180 1_555
O31 S11 1.463123 1_555
O31 Y7 2.264938 1_555
O32 S12 1.451526 1_555
O32 Y6 2.322755 1_555
O33 Si8 1.614586 1_555
O33 Y7 2.034092 1_555
O34 S13 1.455399 1_555
O34 Y6 2.338884 1_555
O35 S14 1.476369 1_555
O35 Y7 2.246150 1_555
O36 S13 1.465754 1_555
O36 Y8 2.631224 1_554
O37 S14 1.492787 1_555
O37 Y9 2.300035 1_554
O38 S10 1.477017 1_555
O38 Y8 2.328686 1_554
O39 S11 1.484756 1_555
O39 Y9 2.490450 1_554
O40 S12 1.471323 1_555
O40 Y8 2.512712 1_554
O41 Si8 1.645805 1_555
O41 Y9 2.070593 1_554
O42 S7 1.487240 1_555
O42 Y10 2.347973 1_555
O43 S8 1.476061 1_555
O43 Y11 2.524197 1_555
O44 Si7 1.640252 1_555
O44 Y10 2.073204 1_555
O45 S9 1.476278 1_555
O45 Y11 2.487990 1_555
O46 Si6 1.646259 1_555
O46 Y10 2.167856 1_555
O47 S6 1.477070 1_555
O47 Y11 2.318704 1_555
O48 Si9 1.644090 1_555
O48 Y12 2.048054 1_556
O49 S15 1.460156 1_555
O49 Y13 2.272446 1_556
O50 S16 1.480024 1_555
O50 Y12 2.281567 1_556
O51 Si10 1.604725 1_555
O51 Y13 2.097652 1_556
O52 Si11 1.635745 1_555
O52 Y12 2.088521 1_556
O53 S17 1.470995 1_555
O53 Y13 2.249548 1_556
O54 S18 1.456169 1_555
O54 Y14 2.293761 1_555
O55 Si12 1.625366 1_555
O55 Y15 2.120285 1_555
O56 S19 1.470040 1_555
O56 Y14 2.260926 1_555
O57 Si13 1.620915 1_555
O57 Y15 2.103559 1_555
O58 Si14 1.597466 1_555
O58 Y14 2.114788 1_555
O59 S20 1.475570 1_555
O59 Y15 2.301686 1_555
O60 Si14 1.736798 1_555
O60 Ta4 1.885718 1_555
O61 S20 1.479628 1_555
O61 Y16 2.326410 1_555
O62 S18 1.536095 1_555
O62 Ta4 2.041871 1_555
O63 Si12 1.640698 1_555
O63 Y16 2.143373 1_555
O64 S19 1.517785 1_555
O64 Ta4 2.176887 1_555
O65 Si13 1.634558 1_555
O65 Y16 2.098481 1_555
O66 S16 1.471596 1_555
O66 Y17 2.386561 1_555
O67 Si10 1.715877 1_555
O67 Ta5 1.899860 1_555
O68 Si11 1.629324 1_555
O68 Y17 2.117040 1_555
O69 S17 1.492120 1_555
O69 Ta5 2.289474 1_555
O70 Si9 1.631558 1_555
O70 Y17 2.157003 1_555
O71 S15 1.501539 1_555
O71 Ta5 2.209676 1_555
O72 Si14 1.623175 1_555
O72 Y0 2.137415 1_565
O73 S20 1.480597 1_555
O73 Y1 2.405420 1_565
O74 S18 1.481504 1_555
O74 Y1 2.315088 1_565
O75 Si12 1.633637 1_555
O75 Y0 2.166668 1_665
O76 S19 1.473459 1_555
O76 Y0 2.259696 1_555
O77 Si13 1.659119 1_555
O77 Y1 2.217682 1_555
O78 S16 1.478548 1_555
O78 Y2 2.448877 1_445
O79 Si10 1.622715 1_555
O79 Y3 2.165320 1_555
O80 Si11 1.659714 1_555
O80 Y2 2.254604 1_455
O81 S17 1.468078 1_555
O81 Y3 2.295660 1_565
O82 Si9 1.624914 1_555
O82 Y3 2.201520 1_565
O83 S15 1.494467 1_555
O83 Y2 2.335783 1_555
O84 Si6 1.734733 1_555
O84 Ta1 1.844610 1_555
O85 S6 1.516189 1_555
O85 Ta0 2.196422 1_545
O86 S7 1.517708 1_555
O86 Ta0 2.222365 1_445
O87 S8 1.535448 1_555
O87 Ta1 2.064464 1_555
O88 Si7 1.700291 1_555
O88 Ta1 1.908388 1_565
O89 S9 1.545988 1_555
O89 Ta0 2.059020 1_555
O90 S10 1.519598 1_555
O90 Ta3 2.182494 1_555
O91 S11 1.536553 1_555
O91 Ta2 2.087413 1_655
O92 S12 1.541801 1_555
O92 Ta3 2.068239 1_545
O93 Si8 1.710768 1_555
O93 Ta2 1.915936 1_645
O94 S13 1.554612 1_555
O94 Ta2 2.033939 1_545
O95 S14 1.504464 1_555
O95 Ta3 2.275626 1_545
O96 S5 1.466785 1_555
O96 Y4 2.374400 1_555
O97 Si5 1.587888 1_545
O97 Y5 2.133602 1_555
O98 S3 1.462741 1_555
O98 Y4 2.358236 1_555
O99 Si3 1.588825 1_555
O99 Y5 2.135048 1_555
O100 S4 1.472921 1_555
O100 Y4 2.335392 1_555
O101 Si4 1.598884 1_655
O101 Y5 2.115516 1_555
O102 Si1 1.586220 1_555
O102 Y6 2.118611 1_555
O103 S1 1.470943 1_555
O103 Y7 2.331839 1_555
O104 Si2 1.599909 1_555
O104 Y6 2.097308 1_555
O105 S2 1.477463 1_655
O105 Y7 2.293232 1_555
O106 Si0 1.584984 1_545
O106 Y6 2.135177 1_555
O107 S0 1.479624 1_545
O107 Y7 2.245988 1_555
O108 Si9 1.640545 1_555
O108 Y8 2.097302 1_555
O109 S15 1.496450 1_555
O109 Y9 2.552108 1_555
O110 Si10 1.640656 1_555
O110 Y8 2.151151 1_555
O111 S16 1.506405 1_655
O111 Y9 2.292618 1_555
O112 Si11 1.637074 1_545
O112 Y8 2.173731 1_555
O113 S17 1.505879 1_545
O113 Y9 2.285412 1_555
O114 S18 1.475786 1_545
O114 Y10 2.674509 1_555
O115 Si12 1.643405 1_545
O115 Y11 2.108063 1_555
O116 S19 1.481581 1_555
O116 Y10 2.506474 1_555
O117 Si13 1.639428 1_555
O117 Y11 2.183868 1_555
O118 S20 1.498139 1_555
O118 Y10 2.349291 1_555
O119 Si14 1.631146 1_655
O119 Y11 2.184820 1_555
O120 S13 1.479580 1_555
O120 Y12 2.441598 1_555
O121 S14 1.468765 1_555
O121 Y13 2.344888 1_555
O122 S11 1.467900 1_455
O122 Y12 2.438998 1_555
O123 S10 1.478987 1_555
O123 Y13 2.329887 1_555
O124 S12 1.484795 1_565
O124 Y12 2.345582 1_555
O125 Si8 1.605324 1_565
O125 Y13 2.188429 1_555
O126 S7 1.477266 1_565
O126 Y14 2.320337 1_555
O127 S8 1.466670 1_565
O127 Y15 2.428870 1_555
O128 Si7 1.620132 1_555
O128 Y14 2.157095 1_555
O129 S9 1.466957 1_555
O129 Y15 2.372964 1_555
O130 S6 1.480201 1_455
O130 Y14 2.316359 1_555
O131 Si6 1.607008 1_555
O131 Y15 2.198510 1_555
O132 Si0 1.718123 1_555
O132 Ta4 1.908513 1_555
O133 S0 1.459230 1_555
O133 Y16 2.566297 1_555
O134 Si1 1.671608 1_555
O134 Ta4 1.993719 1_555
O135 S1 1.462381 1_555
O135 Y16 2.434465 1_555
O136 S2 1.508993 1_555
O136 Ta4 2.267347 1_555
O137 Si2 1.610524 1_555
O137 Y16 2.239107 1_555
O138 S3 1.463326 1_555
O138 Y17 2.522675 1_555
O139 Si3 1.731910 1_555
O139 Ta5 1.870379 1_555
O140 Si4 1.610263 1_555
O140 Y17 2.215181 1_555
O141 S4 1.551549 1_555
O141 Ta5 2.054883 1_555
O142 S5 1.475848 1_565
O142 Y17 2.365755 1_555
O143 Si5 1.675448 1_555
O143 Ta5 1.966665 1_555
