# generated using pymatgen
data_MgFe3Co5O16
_symmetry_space_group_name_H-M   'P 1'
_cell_length_a   5.73302908
_cell_length_b   5.78081915
_cell_length_c   9.24343777
_cell_angle_alpha   89.90235502
_cell_angle_beta   92.01510349
_cell_angle_gamma   120.09211217
_symmetry_Int_Tables_number   1
_chemical_formula_structural   MgFe3Co5O16
_chemical_formula_sum   'Mg1 Fe3 Co5 O16'
_cell_volume   264.84482755
_cell_formula_units_Z   1
loop_
 _symmetry_equiv_pos_site_id
 _symmetry_equiv_pos_as_xyz
  1  'x, y, z'
loop_
 _atom_site_type_symbol
 _atom_site_label
 _atom_site_symmetry_multiplicity
 _atom_site_fract_x
 _atom_site_fract_y
 _atom_site_fract_z
 _atom_site_occupancy
  Mg  Mg0  1  0.66293500  0.33158900  0.96094300  1
  Fe  Fe0  1  0.65968000  0.82933200  0.18542100  1
  Fe  Fe1  1  0.84097600  0.67404400  0.68738700  1
  Fe  Fe2  1  0.84749300  0.17363500  0.68568500  1
  Co  Co0  1  0.15255100  0.82912500  0.19386700  1
  Co  Co1  1  0.33536400  0.66902400  0.47061700  1
  Co  Co2  1  0.15273300  0.32273300  0.19465800  1
  Co  Co3  1  0.35030800  0.17814700  0.67221900  1
  Co  Co4  1  0.65001600  0.32442200  0.36187700  1
  O  O0  1  0.17991700  0.83628800  0.56823000  1
  O  O1  1  0.03246500  0.51637500  0.32014400  1
  O  O2  1  0.30458600  0.65155400  0.09133300  1
  O  O3  1  0.00234200  0.99930200  0.30036200  1
  O  O4  1  0.04181500  0.01988100  0.78403600  1
  O  O5  1  0.17557400  0.33483700  0.56663700  1
  O  O6  1  0.46827300  0.95682500  0.32665300  1
  O  O7  1  0.46819500  0.51150600  0.32639300  1
  O  O8  1  0.31246300  0.15614600  0.10500400  1
  O  O9  1  0.67395800  0.83659100  0.56857700  1
  O  O10  1  0.51844100  0.47689300  0.79192400  1
  O  O11  1  0.52409200  0.04393100  0.78979000  1
  O  O12  1  0.66649400  0.33569400  0.56120600  1
  O  O13  1  0.83732400  0.66602200  0.09072800  1
  O  O14  1  0.97263300  0.48808900  0.80075200  1
  O  O15  1  0.83603900  0.17154500  0.09252800  1
loop_
_geom_bond_atom_site_label_1
_geom_bond_atom_site_label_2
_geom_bond_distance
_geom_bond_site_symmetry_2
Mg0 O15 2.037700 1_556
Mg0 O13 2.040021 1_556
Mg0 O10 2.105919 1_555
Mg0 O11 2.120085 1_555
Mg0 O14 2.175541 1_555
Mg0 O8 2.231379 1_556
Fe0 O15 1.929411 1_565
Fe0 O13 1.929835 1_555
Fe0 O2 1.933244 1_555
Fe0 O3 1.968406 1_655
Fe0 O7 2.085339 1_555
Fe0 O6 2.089648 1_555
Fe1 O14 1.891432 1_555
Fe1 O10 1.913219 1_555
Fe1 O4 1.935499 1_665
Fe1 O9 1.957202 1_555
Fe1 O12 2.037258 1_555
Fe1 O0 2.046480 1_655
Fe2 O14 1.896190 1_555
Fe2 O11 1.911735 1_555
Fe2 O4 1.943338 1_655
Fe2 O9 1.986308 1_545
Fe2 O5 2.000375 1_655
Fe2 O12 2.040962 1_555
Co0 O13 1.799190 1_455
Co0 O8 1.843556 1_565
Co0 O3 1.894946 1_555
Co0 O2 1.915809 1_555
Co0 O6 1.958228 1_555
Co0 O1 1.976425 1_555
Co1 O0 1.861956 1_555
Co1 O9 1.876208 1_555
Co1 O5 1.906765 1_555
Co1 O6 1.977859 1_555
Co1 O7 1.989271 1_555
Co1 O1 2.006609 1_555
Co2 O15 1.800706 1_455
Co2 O8 1.842045 1_555
Co2 O3 1.905333 1_545
Co2 O2 1.917333 1_555
Co2 O7 1.953210 1_555
Co2 O1 1.977007 1_555
Co3 O10 1.843409 1_555
Co3 O11 1.863280 1_555
Co3 O4 1.880424 1_555
Co3 O5 1.901206 1_555
Co3 O12 1.907993 1_555
Co3 O0 1.946337 1_545
Co4 O12 1.841173 1_555
Co4 O6 1.861593 1_545
Co4 O7 1.862528 1_555
Co4 O1 1.950854 1_655
