# generated using pymatgen
data_MgFe6(OF)6
_symmetry_space_group_name_H-M   'P 1'
_cell_length_a   5.15718324
_cell_length_b   7.79178655
_cell_length_c   5.78894606
_cell_angle_alpha   96.46468550
_cell_angle_beta   95.97753678
_cell_angle_gamma   84.62056447
_symmetry_Int_Tables_number   1
_chemical_formula_structural   MgFe6(OF)6
_chemical_formula_sum   'Mg1 Fe6 O6 F6'
_cell_volume   229.09195473
_cell_formula_units_Z   1
loop_
 _symmetry_equiv_pos_site_id
 _symmetry_equiv_pos_as_xyz
  1  'x, y, z'
loop_
 _atom_site_type_symbol
 _atom_site_label
 _atom_site_symmetry_multiplicity
 _atom_site_fract_x
 _atom_site_fract_y
 _atom_site_fract_z
 _atom_site_occupancy
  Mg  Mg0  1  0.02498300  0.81746300  0.34383800  1
  Fe  Fe0  1  0.53984200  0.67414000  0.10842900  1
  Fe  Fe1  1  0.48510400  0.02778800  0.48947300  1
  Fe  Fe2  1  0.49067900  0.32494400  0.84084100  1
  Fe  Fe3  1  0.96785000  0.62394300  0.75424000  1
  Fe  Fe4  1  0.98800100  0.33411700  0.32664100  1
  Fe  Fe5  1  0.00578200  0.00279600  0.95485500  1
  O  O0  1  0.83468200  0.77236600  0.02070300  1
  O  O1  1  0.67611400  0.09806700  0.78257000  1
  O  O2  1  0.69864600  0.42658400  0.13010200  1
  O  O3  1  0.33393600  0.56401500  0.85654000  1
  O  O4  1  0.28769400  0.24646400  0.52605600  1
  O  O5  1  0.32284400  0.89323300  0.20185100  1
  F  F0  1  0.79001200  0.40854000  0.61422400  1
  F  F1  1  0.82921700  0.08231000  0.31416800  1
  F  F2  1  0.71012600  0.77021400  0.48843800  1
  F  F3  1  0.19281000  0.24307400  0.03474800  1
  F  F4  1  0.13334800  0.57026000  0.38490300  1
  F  F5  1  0.20221900  0.91134700  0.64881400  1
loop_
_geom_bond_atom_site_label_1
_geom_bond_atom_site_label_2
_geom_bond_distance
_geom_bond_site_symmetry_2
Mg0 O5 1.981448 1_555
Mg0 O0 2.029808 1_455
Fe0 O3 1.885939 1_554
Fe0 O0 1.903231 1_555
Fe0 O5 2.004766 1_555
Fe0 O2 2.035689 1_555
Fe1 O4 1.903398 1_555
Fe1 O1 1.921695 1_555
Fe1 O5 2.013199 1_545
Fe2 O1 1.941469 1_555
Fe2 O3 1.956150 1_555
Fe2 O2 2.016951 1_556
Fe2 O4 2.064524 1_555
Fe3 O3 1.948664 1_655
Fe3 O0 1.964319 1_556
Fe4 O2 1.915669 1_555
Fe4 O4 1.948306 1_655
Fe5 O1 2.003299 1_455
Fe5 O0 2.160750 1_446
Fe5 O5 2.230052 1_546
F0 Fe3 2.035321 1_555
F0 Fe4 2.043538 1_555
F0 Fe2 2.308916 1_555
F1 Fe4 2.186860 1_555
F1 Mg0 2.227199 1_645
F1 Fe1 2.230089 1_555
F1 Fe5 2.353316 1_654
F2 Mg0 1.984306 1_655
F2 Fe1 2.221865 1_565
F2 Fe3 2.262317 1_555
F2 Fe0 2.349684 1_555
F3 Fe4 2.106050 1_455
F3 Fe5 2.167960 1_554
F3 Fe2 2.175067 1_554
F4 Mg0 1.988090 1_555
F4 Fe4 2.031587 1_455
F4 Fe3 2.363585 1_455
F5 Mg0 1.996496 1_555
F5 Fe1 2.125862 1_565
F5 Fe5 2.151042 1_565
