# generated using pymatgen
data_Na2Nb6Ga2Si7S5O48
_symmetry_space_group_name_H-M   'P 1'
_cell_length_a   17.68121907
_cell_length_b   8.84453503
_cell_length_c   22.82618041
_cell_angle_alpha   90.00299255
_cell_angle_beta   89.88633019
_cell_angle_gamma   120.00981516
_symmetry_Int_Tables_number   1
_chemical_formula_structural   Na2Nb6Ga2Si7S5O48
_chemical_formula_sum   'Na6 Nb18 Ga6 Si21 S15 O144'
_cell_volume   3091.05701770
_cell_formula_units_Z   3
loop_
 _symmetry_equiv_pos_site_id
 _symmetry_equiv_pos_as_xyz
  1  'x, y, z'
loop_
 _atom_site_type_symbol
 _atom_site_label
 _atom_site_symmetry_multiplicity
 _atom_site_fract_x
 _atom_site_fract_y
 _atom_site_fract_z
 _atom_site_occupancy
  Na  Na0  1  0.99958259  0.00136346  0.49714748  1
  Na  Na1  1  0.50013986  0.00291756  0.99414370  1
  Na  Na2  1  0.33529111  0.32897543  0.83212332  1
  Na  Na3  1  0.82844138  0.33108002  0.83490419  1
  Na  Na4  1  0.32949035  0.32724828  0.33969336  1
  Na  Na5  1  0.83406069  0.34177369  0.33736505  1
  Nb  Nb0  1  0.49969770  0.99236715  0.36027042  1
  Nb  Nb1  1  0.99937274  0.00422129  0.85768433  1
  Nb  Nb2  1  0.49753778  0.00197502  0.64130506  1
  Nb  Nb3  1  0.99657898  0.99323888  0.14167282  1
  Nb  Nb4  1  0.32730990  0.33645330  0.68971451  1
  Nb  Nb5  1  0.83100876  0.31492044  0.68868091  1
  Nb  Nb6  1  0.32677227  0.33768083  0.19173795  1
  Nb  Nb7  1  0.82798583  0.31758501  0.19130722  1
  Nb  Nb8  1  0.32939700  0.33333596  0.97266052  1
  Nb  Nb9  1  0.83463749  0.32200009  0.47519318  1
  Nb  Nb10  1  0.17317358  0.67399437  0.02129520  1
  Nb  Nb11  1  0.67257395  0.66949133  0.02045325  1
  Nb  Nb12  1  0.16733531  0.66845186  0.52412603  1
  Nb  Nb13  1  0.67523606  0.67172015  0.52217419  1
  Nb  Nb14  1  0.17084642  0.68931165  0.31215029  1
  Nb  Nb15  1  0.67741298  0.67736656  0.30838121  1
  Nb  Nb16  1  0.17656094  0.67704736  0.80661983  1
  Nb  Nb17  1  0.66938297  0.64966692  0.80976127  1
  Ga  Ga0  1  0.99823030  0.97016307  0.35604755  1
  Ga  Ga1  1  0.49819560  0.02702366  0.85460029  1
  Ga  Ga2  1  0.99533030  0.02899798  0.64964647  1
  Ga  Ga3  1  0.49824866  0.98672139  0.15623296  1
  Ga  Ga4  1  0.83105329  0.32979303  0.98094406  1
  Ga  Ga5  1  0.32961803  0.32997210  0.48117940  1
  Si  Si0  1  0.13600918  0.99873850  0.25233073  1
  Si  Si1  1  0.63672684  0.99209667  0.24945555  1
  Si  Si2  1  0.35764037  0.72168365  0.24937019  1
  Si  Si3  1  0.86148468  0.71512261  0.25018465  1
  Si  Si4  1  0.13796331  0.28070361  0.74935747  1
  Si  Si5  1  0.63998267  0.27160351  0.75178993  1
  Si  Si6  1  0.36232813  0.00965182  0.74986959  1
  Si  Si7  1  0.85725110  0.99616134  0.74945258  1
  Si  Si8  1  0.97775886  0.32654187  0.58380290  1
  Si  Si9  1  0.68821724  0.04414009  0.58159390  1
  Si  Si10  1  0.33447492  0.61446301  0.57802003  1
  Si  Si11  1  0.83316976  0.05398243  0.07877291  1
  Si  Si12  1  0.18838936  0.33252719  0.08249039  1
  Si  Si13  1  0.31825608  0.68330760  0.91352666  1
  Si  Si14  1  0.81239295  0.65178699  0.91781348  1
  Si  Si15  1  0.52576223  0.37816385  0.91709362  1
  Si  Si16  1  0.16314756  0.94609249  0.91605103  1
  Si  Si17  1  0.31103290  0.97024312  0.42047538  1
  Si  Si18  1  0.81867689  0.95556862  0.41411225  1
  Si  Si19  1  0.66662812  0.38094778  0.41677227  1
  Si  Si20  1  0.02494482  0.67272275  0.41712151  1
  S  S0  1  0.00158753  0.28666761  0.25075060  1
  S  S1  1  0.50009863  0.28548615  0.24885339  1
  S  S2  1  0.99992540  0.71601859  0.74894285  1
  S  S3  1  0.50074389  0.71561343  0.75109101  1
  S  S4  1  0.47572219  0.33561843  0.58170756  1
  S  S5  1  0.18671331  0.04596165  0.58324448  1
  S  S6  1  0.83791577  0.62500071  0.58383993  1
  S  S7  1  0.47744204  0.62564876  0.08318427  1
  S  S8  1  0.97564112  0.61617958  0.08182875  1
  S  S9  1  0.33828038  0.04902099  0.08375658  1
  S  S10  1  0.68541094  0.32572832  0.08350648  1
  S  S11  1  0.02120496  0.38259800  0.91701795  1
  S  S12  1  0.66731661  0.95735916  0.91663034  1
  S  S13  1  0.16695387  0.37736872  0.41666010  1
  S  S14  1  0.52151837  0.65860693  0.41724487  1
  O  O0  1  0.10069558  0.04738406  0.30931912  1
  O  O1  1  0.59690899  0.03420512  0.30735246  1
  O  O2  1  0.42038728  0.80827902  0.30614827  1
  O  O3  1  0.91558543  0.79215062  0.30837852  1
  O  O4  1  0.48231867  0.17539547  0.30131320  1
  O  O5  1  0.98057310  0.17823751  0.30296541  1
  O  O6  1  0.09830472  0.16284785  0.80850307  1
  O  O7  1  0.60119791  0.15578703  0.80981012  1
  O  O8  1  0.48068263  0.78248722  0.80343999  1
  O  O9  1  0.98525182  0.79540122  0.80275729  1
  O  O10  1  0.41365632  0.03799466  0.80949689  1
  O  O11  1  0.91939803  0.03088317  0.80706948  1
  O  O12  1  0.40207230  0.97042726  0.69152334  1
  O  O13  1  0.89431958  0.95348139  0.69201838  1
  O  O14  1  0.08775937  0.19942124  0.69011125  1
  O  O15  1  0.58090342  0.18592548  0.69329352  1
  O  O16  1  0.01564829  0.82027017  0.69626611  1
  O  O17  1  0.51283214  0.81789880  0.69717561  1
  O  O18  1  0.39416373  0.83095385  0.18974304  1
  O  O19  1  0.90233346  0.83329641  0.19134197  1
  O  O20  1  0.01231566  0.20619471  0.19658797  1
  O  O21  1  0.51564238  0.21181708  0.19511320  1
  O  O22  1  0.08123278  0.97591879  0.19258961  1
  O  O23  1  0.58812810  0.97296963  0.18864062  1
  O  O24  1  0.43535386  0.35946597  0.63523130  1
  O  O25  1  0.93098557  0.36232985  0.64078033  1
  O  O26  1  0.24369704  0.13002764  0.63649251  1
  O  O27  1  0.75049439  0.13405527  0.63995323  1
  O  O28  1  0.32105914  0.49442552  0.63776283  1
  O  O29  1  0.81918916  0.51522870  0.63659155  1
  O  O30  1  0.43732728  0.51555872  0.13626134  1
  O  O31  1  0.93551522  0.51100534  0.13515313  1
  O  O32  1  0.32291425  0.12804603  0.13628128  1
  O  O33  1  0.82011777  0.14675237  0.13808749  1
  O  O34  1  0.25256897  0.36573310  0.13980936  1
  O  O35  1  0.74161368  0.35722819  0.13643928  1
  O  O36  1  0.23963226  0.30605284  0.02774297  1
  O  O37  1  0.72557031  0.29999591  0.03069556  1
  O  O38  1  0.42177276  0.53859077  0.03100286  1
  O  O39  1  0.92258232  0.54377174  0.02926403  1
  O  O40  1  0.34910144  0.15355259  0.03039229  1
  O  O41  1  0.84921006  0.17700997  0.02364692  1
  O  O42  1  0.22716741  0.15348579  0.53071176  1
  O  O43  1  0.73526947  0.17049809  0.52617278  1
  O  O44  1  0.35085651  0.52124475  0.52363261  1
  O  O45  1  0.84727619  0.54325352  0.53009669  1
  O  O46  1  0.42254339  0.30155775  0.52922221  1
  O  O47  1  0.91436418  0.30422993  0.52748534  1
  O  O48  1  0.26419281  0.69674985  0.97223747  1
  O  O49  1  0.76582871  0.69179433  0.97440074  1
  O  O50  1  0.07620087  0.46293528  0.97062217  1
  O  O51  1  0.58505229  0.48182302  0.97482209  1
  O  O52  1  0.15148633  0.83091174  0.97517295  1
  O  O53  1  0.65617868  0.84675502  0.97075599  1
  O  O54  1  0.26548499  0.83841047  0.47494767  1
  O  O55  1  0.76466779  0.83186163  0.47209485  1
  O  O56  1  0.15539173  0.46151419  0.47027521  1
  O  O57  1  0.65053734  0.47206936  0.47460695  1
  O  O58  1  0.08607361  0.69112592  0.47348981  1
  O  O59  1  0.57575323  0.68959886  0.47027615  1
  O  O60  1  0.06871312  0.63321174  0.35931045  1
  O  O61  1  0.56185756  0.63650894  0.36367914  1
  O  O62  1  0.25026987  0.87201146  0.36116122  1
  O  O63  1  0.75136097  0.86297413  0.35888333  1
  O  O64  1  0.18164343  0.48752724  0.36369437  1
  O  O65  1  0.67704732  0.50200075  0.35977055  1
  O  O66  1  0.06178783  0.48829538  0.86425272  1
  O  O67  1  0.56761653  0.50474262  0.86015619  1
  O  O68  1  0.17870902  0.85424098  0.85975873  1
  O  O69  1  0.68163395  0.87666366  0.86439876  1
  O  O70  1  0.25051394  0.63651604  0.85909941  1
  O  O71  1  0.74897615  0.62782388  0.86130213  1
  O  O72  1  0.01832916  0.84669357  0.41490048  1
  O  O73  1  0.51441592  0.82147566  0.41146902  1
  O  O74  1  0.40428069  0.98125808  0.40398864  1
  O  O75  1  0.91464221  0.98536880  0.40840737  1
  O  O76  1  0.08791397  0.20558898  0.41175189  1
  O  O77  1  0.58073272  0.19048002  0.40567982  1
  O  O78  1  0.01459853  0.20737708  0.91158891  1
  O  O79  1  0.51712962  0.18951660  0.91522620  1
  O  O80  1  0.08062991  0.97334065  0.90702183  1
  O  O81  1  0.58780205  0.96946848  0.91369265  1
  O  O82  1  0.41487097  0.84393429  0.90878411  1
  O  O83  1  0.90491166  0.82850394  0.90525268  1
  O  O84  1  0.48698600  0.17966004  0.58955503  1
  O  O85  1  0.98627826  0.15281676  0.58612730  1
  O  O86  1  0.09907903  0.02069046  0.59132061  1
  O  O87  1  0.59368779  0.02201607  0.59470866  1
  O  O88  1  0.41790729  0.80510006  0.59423507  1
  O  O89  1  0.91421644  0.79945470  0.58968546  1
  O  O90  1  0.48549057  0.80048260  0.08823642  1
  O  O91  1  0.98715316  0.79463832  0.08964272  1
  O  O92  1  0.41513812  0.02685575  0.08941737  1
  O  O93  1  0.91611070  0.02737420  0.09380367  1
  O  O94  1  0.09424955  0.16498647  0.09413239  1
  O  O95  1  0.59689170  0.17368850  0.09113841  1
  O  O96  1  0.34683492  0.17544091  0.73766165  1
  O  O97  1  0.84908142  0.17557361  0.74486731  1
  O  O98  1  0.23947209  0.31156991  0.74336181  1
  O  O99  1  0.74189581  0.31762679  0.74050563  1
  O  O100  1  0.42205875  0.53123948  0.74162708  1
  O  O101  1  0.92006317  0.53912774  0.74422017  1
  O  O102  1  0.35067692  0.52450678  0.24211860  1
  O  O103  1  0.84665944  0.51890149  0.23680988  1
  O  O104  1  0.42052718  0.30442837  0.24049241  1
  O  O105  1  0.92191888  0.31200926  0.24103810  1
  O  O106  1  0.23959720  0.16475181  0.23984007  1
  O  O107  1  0.73815082  0.16596558  0.24244665  1
  O  O108  1  0.32104239  0.50042847  0.92510009  1
  O  O109  1  0.82177343  0.48141754  0.92785565  1
  O  O110  1  0.42875366  0.35938097  0.92891508  1
  O  O111  1  0.93376123  0.36019648  0.92357039  1
  O  O112  1  0.25181551  0.13927878  0.92486569  1
  O  O113  1  0.74677541  0.13202354  0.92371219  1
  O  O114  1  0.32274129  0.16335828  0.42717952  1
  O  O115  1  0.81890295  0.14032127  0.42178905  1
  O  O116  1  0.24691200  0.36153336  0.42244506  1
  O  O117  1  0.75307246  0.36462722  0.42482450  1
  O  O118  1  0.43348204  0.50744173  0.42269501  1
  O  O119  1  0.92769338  0.49841468  0.42530274  1
  O  O120  1  0.17728849  0.50307521  0.07205223  1
  O  O121  1  0.67937075  0.48880994  0.07691377  1
  O  O122  1  0.06406729  0.63631336  0.07479719  1
  O  O123  1  0.56467593  0.64312685  0.07532732  1
  O  O124  1  0.25673296  0.87183645  0.07645296  1
  O  O125  1  0.74650940  0.85987268  0.07159557  1
  O  O126  1  0.18294757  0.87425270  0.57808018  1
  O  O127  1  0.67623544  0.85010793  0.57132207  1
  O  O128  1  0.24923038  0.63660229  0.57136728  1
  O  O129  1  0.75612750  0.64204361  0.57638128  1
  O  O130  1  0.07216491  0.50092002  0.57238232  1
  O  O131  1  0.56387924  0.49200482  0.57506405  1
  O  O132  1  0.15212142  0.83148151  0.25840171  1
  O  O133  1  0.64935085  0.82484911  0.26149450  1
  O  O134  1  0.25854776  0.67774803  0.26273115  1
  O  O135  1  0.76206182  0.68737319  0.25679579  1
  O  O136  1  0.07816238  0.46102522  0.25655426  1
  O  O137  1  0.57553179  0.46192236  0.25781035  1
  O  O138  1  0.14991862  0.47325841  0.76189518  1
  O  O139  1  0.65100694  0.46974501  0.75865081  1
  O  O140  1  0.07604132  0.69040626  0.75970256  1
  O  O141  1  0.57828288  0.69493277  0.75766476  1
  O  O142  1  0.26259241  0.83715260  0.75699013  1
  O  O143  1  0.75868735  0.83735858  0.76392423  1
loop_
_geom_bond_atom_site_label_1
_geom_bond_atom_site_label_2
_geom_bond_distance
_geom_bond_site_symmetry_2
Na0 O72 2.440625 1_645
Na0 O75 2.485584 1_545
Na0 O85 2.507579 1_555
Na0 O76 2.582223 1_655
Na0 O89 2.687106 1_545
Na0 O86 2.731129 1_655
Na1 O79 2.358226 1_555
Na1 O82 2.436680 1_545
Na1 O81 2.511893 1_545
Na1 O92 2.708946 1_556
Na1 O90 2.723972 1_546
Na1 O95 2.745855 1_556
Na2 O98 2.598409 1_555
Na2 O96 2.609609 1_555
Na2 O112 2.643064 1_555
Na2 O100 2.657717 1_555
Na2 O108 2.692003 1_555
Na2 O110 2.693410 1_555
Na3 O109 2.537550 1_555
Na3 O113 2.596101 1_555
Na3 O97 2.597596 1_555
Na3 O99 2.613364 1_555
Na3 O111 2.676838 1_555
Na3 O101 2.701914 1_555
Na4 O114 2.435081 1_555
Na4 O116 2.494723 1_555
Na4 O118 2.567603 1_555
Na4 O102 2.736456 1_555
Na4 O106 2.741517 1_555
Na4 O104 2.840697 1_555
Na5 O117 2.520915 1_555
Na5 O119 2.531398 1_555
Na5 O115 2.545731 1_555
Na5 O107 2.713747 1_555
Na5 O103 2.724247 1_555
Na5 O105 2.777148 1_555
Nb0 O74 1.918146 1_555
Nb0 O77 1.921442 1_565
Nb0 O2 1.966321 1_555
Nb0 O1 1.976336 1_565
Nb0 O73 2.028016 1_555
Nb0 O4 2.241757 1_565
Nb1 O11 1.931327 1_555
Nb1 O83 1.944312 1_545
Nb1 O80 1.950910 1_645
Nb1 O6 1.956006 1_655
Nb1 O78 2.081399 1_655
Nb1 O9 2.141290 1_545
Nb2 O88 1.929303 1_545
Nb2 O87 1.935016 1_555
Nb2 O12 1.939649 1_545
Nb2 O15 1.958524 1_555
Nb2 O84 2.047992 1_555
Nb2 O17 2.189095 1_545
Nb3 O19 1.923029 1_555
Nb3 O93 1.935266 1_565
Nb3 O94 1.958579 1_665
Nb3 O22 1.962370 1_655
Nb3 O91 2.057041 1_555
Nb3 O20 2.161748 1_665
Nb4 O28 1.877705 1_555
Nb4 O98 1.900164 1_555
Nb4 O96 1.959194 1_555
Nb4 O100 2.073490 1_555
Nb4 O26 2.074068 1_555
Nb4 O24 2.199811 1_555
Nb5 O27 1.884366 1_555
Nb5 O97 1.913546 1_555
Nb5 O25 1.935732 1_555
Nb5 O99 1.978103 1_555
Nb5 O101 2.214306 1_555
Nb5 O29 2.228821 1_555
Nb6 O34 1.876098 1_555
Nb6 O102 1.880066 1_555
Nb6 O106 1.885724 1_555
Nb6 O104 2.137288 1_555
Nb6 O30 2.194056 1_555
Nb6 O32 2.217750 1_555
Nb7 O107 1.883095 1_555
Nb7 O33 1.888980 1_555
Nb7 O103 1.941978 1_555
Nb7 O105 2.034423 1_555
Nb7 O35 2.137053 1_555
Nb7 O31 2.218414 1_555
Nb8 O108 1.898324 1_555
Nb8 O112 1.915305 1_555
Nb8 O110 1.929916 1_555
Nb8 O36 1.940913 1_556
Nb8 O38 2.186150 1_556
Nb8 O40 2.223191 1_556
Nb9 O47 1.914400 1_555
Nb9 O115 1.923375 1_555
Nb9 O119 1.965538 1_555
Nb9 O43 1.968147 1_555
Nb9 O117 2.023455 1_555
Nb9 O45 2.239054 1_555
Nb10 O48 1.885016 1_554
Nb10 O52 1.927608 1_554
Nb10 O120 1.934786 1_555
Nb10 O124 2.061797 1_555
Nb10 O50 2.137380 1_554
Nb10 O122 2.161398 1_555
Nb11 O49 1.878953 1_554
Nb11 O51 1.916131 1_554
Nb11 O125 1.926398 1_555
Nb11 O53 2.070038 1_554
Nb11 O121 2.102871 1_555
Nb11 O123 2.192814 1_555
Nb12 O58 1.932722 1_555
Nb12 O130 1.933690 1_555
Nb12 O128 1.937298 1_555
Nb12 O54 1.978481 1_555
Nb12 O126 2.098723 1_555
Nb12 O56 2.125935 1_555
Nb13 O55 1.888361 1_555
Nb13 O57 1.928225 1_555
Nb13 O127 1.928782 1_555
Nb13 O129 2.007018 1_555
Nb13 O131 2.172767 1_555
Nb13 O59 2.192916 1_555
Nb14 O62 1.889685 1_555
Nb14 O132 1.901095 1_555
Nb14 O60 1.939623 1_555
Nb14 O134 1.959391 1_555
Nb14 O64 2.224355 1_555
Nb14 O136 2.251874 1_555
Nb15 O135 1.869477 1_555
Nb15 O63 1.895272 1_555
Nb15 O133 1.934623 1_555
Nb15 O65 1.942123 1_555
Nb15 O137 2.186981 1_555
Nb15 O61 2.269275 1_555
Nb16 O142 1.855025 1_555
Nb16 O138 1.914482 1_555
Nb16 O70 1.936078 1_555
Nb16 O68 1.967042 1_555
Nb16 O140 2.130101 1_555
Nb16 O66 2.288365 1_555
Nb17 O139 1.866304 1_555
Nb17 O71 1.918460 1_555
Nb17 O143 1.927526 1_555
Nb17 O67 1.971996 1_555
Nb17 O141 2.195829 1_555
Nb17 O69 2.280113 1_555
Ga0 O3 1.871600 1_555
Ga0 O72 1.874500 1_655
Ga0 O0 1.908177 1_665
Ga0 O75 1.955155 1_555
Ga0 O76 2.274172 1_665
Ga0 O5 2.351347 1_565
Ga1 O10 1.858727 1_555
Ga1 O7 1.891319 1_555
Ga1 O79 1.900780 1_555
Ga1 O82 1.982182 1_545
Ga1 O81 2.324652 1_545
Ga1 O8 2.338511 1_545
Ga2 O14 1.826940 1_655
Ga2 O13 1.836112 1_545
Ga2 O85 1.871771 1_555
Ga2 O89 2.268668 1_545
Ga2 O86 2.295228 1_655
Ga2 O16 2.309693 1_645
Ga3 O23 1.812600 1_555
Ga3 O18 1.824374 1_555
Ga3 O21 2.057719 1_565
Ga3 O90 2.191483 1_555
Ga3 O95 2.255935 1_565
Ga3 O92 2.267646 1_565
Ga4 O41 1.820578 1_556
Ga4 O109 1.874798 1_555
Ga4 O37 2.082681 1_556
Ga4 O39 2.088168 1_556
Ga4 O113 2.094510 1_555
Ga4 O111 2.141823 1_555
Ga5 O44 1.818730 1_555
Ga5 O114 1.877991 1_555
Ga5 O42 2.039578 1_555
Ga5 O46 2.094167 1_555
Ga5 O116 2.104742 1_555
Ga5 O118 2.173828 1_555
O0 Si0 1.591403 1_545
O1 Si1 1.624632 1_545
O2 Si2 1.628734 1_555
O3 Si3 1.580102 1_555
O4 S1 1.474198 1_555
O5 S0 1.456101 1_655
O6 Si4 1.632845 1_555
O7 Si5 1.602312 1_555
O8 S3 1.453137 1_555
O9 S2 1.500010 1_555
O10 Si6 1.586275 1_555
O11 Si7 1.643036 1_545
O12 Si6 1.621120 1_565
O13 Si7 1.592111 1_555
O14 Si4 1.581136 1_555
O15 Si5 1.631539 1_555
O16 S2 1.454524 1_455
O17 S3 1.477951 1_555
O18 Si2 1.604956 1_555
O19 Si3 1.630742 1_555
O20 S0 1.484955 1_555
O21 S1 1.477339 1_555
O22 Si0 1.627269 1_555
O23 Si1 1.597909 1_555
O24 S4 1.481115 1_555
O25 Si8 1.653231 1_555
O26 S5 1.516805 1_555
O27 Si9 1.658084 1_555
O28 Si10 1.670346 1_555
O29 S6 1.476185 1_555
O30 S7 1.491607 1_555
O31 S8 1.478765 1_555
O32 S9 1.479310 1_555
O33 Si11 1.657605 1_555
O34 Si12 1.660809 1_555
O35 S10 1.500930 1_555
O36 Si12 1.626379 1_555
O37 S10 1.472203 1_555
O38 S7 1.492275 1_555
O39 S8 1.460581 1_555
O40 S9 1.482361 1_555
O41 Si11 1.593058 1_555
O42 S5 1.473160 1_555
O43 Si9 1.614745 1_555
O44 Si10 1.594430 1_555
O45 S6 1.474403 1_555
O46 S4 1.459878 1_555
O47 Si8 1.652975 1_555
O48 Si13 1.682990 1_555
O49 Si14 1.660906 1_555
O50 S11 1.503685 1_555
O51 Si15 1.649202 1_555
O52 Si16 1.640262 1_555
O53 S12 1.525979 1_555
O54 Si17 1.615868 1_555
O55 Si18 1.676527 1_555
O56 S13 1.498174 1_555
O57 Si19 1.643473 1_555
O58 Si20 1.636990 1_555
O59 S14 1.483797 1_555
O60 Si20 1.651902 1_555
O61 S14 1.475762 1_555
O62 Si17 1.677538 1_555
O63 Si18 1.645424 1_555
O64 S13 1.491363 1_555
O65 Si19 1.635568 1_555
O66 S11 1.471446 1_555
O67 Si15 1.630253 1_555
O68 Si16 1.615183 1_555
O69 S12 1.474574 1_555
O70 Si13 1.630764 1_555
O71 Si14 1.653522 1_555
O72 Si20 1.601216 1_555
O73 S14 1.513018 1_555
O74 Si17 1.645087 1_555
O75 Si18 1.586593 1_555
O76 S13 1.466503 1_555
O77 Si19 1.628128 1_555
O78 S11 1.499892 1_555
O79 Si15 1.598208 1_555
O80 Si16 1.606921 1_555
O81 S12 1.464089 1_555
O82 Si13 1.587413 1_555
O83 Si14 1.625340 1_555
O84 S4 1.499800 1_555
O85 Si8 1.618009 1_555
O86 S5 1.461942 1_555
O87 Si9 1.610075 1_555
O88 Si10 1.634058 1_555
O89 S6 1.461870 1_555
O90 S7 1.484788 1_555
O91 S8 1.497761 1_555
O92 S9 1.472762 1_555
O93 Si11 1.634301 1_555
O94 Si12 1.602513 1_555
O95 S10 1.477128 1_555
O96 Si6 1.644676 1_555
O97 Si7 1.667085 1_545
O98 Si4 1.680318 1_555
O99 Si5 1.656357 1_555
O100 S3 1.540519 1_555
O101 S2 1.497995 1_555
O102 Si2 1.693855 1_555
O103 Si3 1.648948 1_555
O104 S1 1.510220 1_555
O105 S0 1.549424 1_655
O106 Si0 1.702856 1_545
O107 Si1 1.687207 1_545
O108 Si13 1.663811 1_555
O109 Si14 1.612699 1_555
O110 Si15 1.659989 1_555
O111 S11 1.464496 1_655
O112 Si16 1.655141 1_545
O113 S12 1.488725 1_545
O114 Si17 1.621724 1_545
O115 Si18 1.641428 1_545
O116 S13 1.494848 1_555
O117 Si19 1.616342 1_555
O118 S14 1.464060 1_555
O119 Si20 1.647853 1_655
O120 Si12 1.633094 1_555
O121 S10 1.506217 1_555
O122 S8 1.490791 1_455
O123 S7 1.481710 1_555
O124 S9 1.517661 1_565
O125 Si11 1.640636 1_565
O126 S5 1.491174 1_565
O127 Si9 1.637504 1_565
O128 Si10 1.621502 1_555
O129 S6 1.536876 1_555
O130 Si8 1.629735 1_455
O131 S4 1.486013 1_555
O132 Si0 1.646346 1_555
O133 Si1 1.626041 1_555
O134 Si2 1.621926 1_555
O135 Si3 1.655494 1_555
O136 S0 1.463199 1_555
O137 S1 1.474774 1_555
O138 Si4 1.633118 1_555
O139 Si5 1.670947 1_555
O140 S2 1.493034 1_455
O141 S3 1.478929 1_555
O142 Si6 1.664781 1_565
O143 Si7 1.633479 1_555
