# generated using pymatgen
data_MgV6O5F19
_symmetry_space_group_name_H-M   'P 1'
_cell_length_a   5.47349727
_cell_length_b   5.36577183
_cell_length_c   15.48571591
_cell_angle_alpha   90.07479343
_cell_angle_beta   99.93922388
_cell_angle_gamma   90.57260124
_symmetry_Int_Tables_number   1
_chemical_formula_structural   MgV6O5F19
_chemical_formula_sum   'Mg1 V6 O5 F19'
_cell_volume   447.95778389
_cell_formula_units_Z   1
loop_
 _symmetry_equiv_pos_site_id
 _symmetry_equiv_pos_as_xyz
  1  'x, y, z'
loop_
 _atom_site_type_symbol
 _atom_site_label
 _atom_site_symmetry_multiplicity
 _atom_site_fract_x
 _atom_site_fract_y
 _atom_site_fract_z
 _atom_site_occupancy
  Mg  Mg0  1  0.83705400  0.26970200  0.17968500  1
  V  V0  1  0.03346000  0.97275600  0.99163200  1
  V  V1  1  0.15122200  0.48211300  0.34536400  1
  V  V2  1  0.26980700  0.03128400  0.66545300  1
  V  V3  1  0.53294100  0.46402700  0.98306300  1
  V  V4  1  0.67127300  0.00155300  0.34389700  1
  V  V5  1  0.77205500  0.48264200  0.66532500  1
  O  O0  1  0.02384800  0.21072200  0.64425600  1
  O  O1  1  0.52449400  0.29961100  0.64363200  1
  O  O2  1  0.72528200  0.22987500  0.97489300  1
  O  O3  1  0.27064100  0.79000300  0.01654600  1
  O  O4  1  0.88863800  0.28123400  0.32440500  1
  F  F0  1  0.21263600  0.26787300  0.97317500  1
  F  F1  1  0.13662100  0.73715800  0.69229100  1
  F  F2  1  0.03519200  0.08280900  0.11111300  1
  F  F3  1  0.27587900  0.47146400  0.45860000  1
  F  F4  1  0.39499900  0.09866100  0.77587200  1
  F  F5  1  0.08246000  0.53532000  0.21871000  1
  F  F6  1  0.30868700  0.93032300  0.55942200  1
  F  F7  1  0.43131900  0.60335100  0.87755300  1
  F  F8  1  0.38101400  0.21424100  0.32105100  1
  F  F9  1  0.44857300  0.71973500  0.33686400  1
  F  F10  1  0.63941700  0.77417700  0.69108100  1
  F  F11  1  0.56122100  0.43005900  0.11230100  1
  F  F12  1  0.69815400  0.05413700  0.45621300  1
  F  F13  1  0.89389400  0.41496000  0.77579200  1
  F  F14  1  0.65502400  0.97392200  0.22130100  1
  F  F15  1  0.81714700  0.57737500  0.55907900  1
  F  F16  1  0.95100100  0.91796700  0.87864000  1
  F  F17  1  0.78933600  0.73636700  0.01441500  1
  F  F18  1  0.95575700  0.78207500  0.36248900  1
loop_
_geom_bond_atom_site_label_1
_geom_bond_atom_site_label_2
_geom_bond_distance
_geom_bond_site_symmetry_2
Mg0 O4 2.210633 1_555
O0 V2 1.649656 1_555
O0 V5 2.080598 1_455
O1 V5 1.651929 1_555
O1 V2 2.062581 1_555
O2 V3 1.665805 1_555
O2 V0 2.170816 1_645
O3 V0 1.627675 1_554
O3 V3 2.386269 1_554
O4 V1 1.771986 1_655
O4 V4 1.961681 1_555
F0 V0 1.902098 1_545
F0 V3 2.018647 1_555
F1 V2 1.810586 1_565
F1 V5 2.382785 1_455
F2 Mg0 1.930265 1_455
F2 V0 1.939898 1_544
F3 V1 1.769670 1_555
F4 V2 1.764377 1_555
F5 V1 1.954163 1_555
F5 Mg0 1.969789 1_455
F6 V2 1.776351 1_565
F7 V3 1.798794 1_555
F8 V4 1.948054 1_555
F8 V1 1.996966 1_555
F9 V4 1.923865 1_565
F9 V1 2.079627 1_555
F10 V5 1.803952 1_555
F10 V2 2.435890 1_565
F11 Mg0 1.895546 1_555
F11 V3 1.989253 1_554
F12 V4 1.742398 1_555
F13 V5 1.765115 1_555
F14 V4 1.890729 1_565
F14 Mg0 2.029676 1_565
F15 V5 1.779369 1_555
F16 V0 1.753620 1_655
F17 V0 1.910192 1_654
F17 V3 2.015584 1_554
F18 V4 1.943503 1_565
F18 V1 1.984135 1_655
