# generated using pymatgen
data_MgCo6(O2F)4
_symmetry_space_group_name_H-M   'P 1'
_cell_length_a   5.01043436
_cell_length_b   7.62332371
_cell_length_c   5.79858817
_cell_angle_alpha   100.21284085
_cell_angle_beta   101.13227158
_cell_angle_gamma   81.10015299
_symmetry_Int_Tables_number   1
_chemical_formula_structural   MgCo6(O2F)4
_chemical_formula_sum   'Mg1 Co6 O8 F4'
_cell_volume   212.20216562
_cell_formula_units_Z   1
loop_
 _symmetry_equiv_pos_site_id
 _symmetry_equiv_pos_as_xyz
  1  'x, y, z'
loop_
 _atom_site_type_symbol
 _atom_site_label
 _atom_site_symmetry_multiplicity
 _atom_site_fract_x
 _atom_site_fract_y
 _atom_site_fract_z
 _atom_site_occupancy
  Mg  Mg0  1  0.47763462  0.01322450  0.98431794  1
  Co  Co0  1  0.54452128  0.00534099  0.47573794  1
  Co  Co1  1  0.57644188  0.36409714  0.77926807  1
  Co  Co2  1  0.48222055  0.64947469  0.18322960  1
  Co  Co3  1  0.99179658  0.64866626  0.66578551  1
  Co  Co4  1  0.98124620  0.31115043  0.34336866  1
  Co  Co5  1  0.98589611  0.99139590  0.01171066  1
  O  O0  1  0.81593585  0.43111003  0.61887673  1
  O  O1  1  0.79074231  0.09290109  0.26222287  1
  O  O2  1  0.70094184  0.76309507  0.46400902  1
  O  O3  1  0.69916560  0.10168629  0.79172779  1
  O  O4  1  0.70063886  0.43261880  0.12517292  1
  O  O5  1  0.29491912  0.56802782  0.87847096  1
  O  O6  1  0.32137395  0.22699175  0.52544004  1
  O  O7  1  0.31389764  0.89366899  0.20182504  1
  F  F0  1  0.76690093  0.77776734  0.94055895  1
  F  F1  1  0.18812290  0.21347465  0.04933661  1
  F  F2  1  0.18468070  0.90012976  0.73989353  1
  F  F3  1  0.18292110  0.55267950  0.38762117  1
loop_
_geom_bond_atom_site_label_1
_geom_bond_atom_site_label_2
_geom_bond_distance
_geom_bond_site_symmetry_2
Mg0 O3 1.977690 1_555
Mg0 O7 2.032968 1_546
Mg0 O1 2.097240 1_556
Co0 O6 1.885592 1_555
Co0 O2 1.886121 1_545
Co0 O3 1.909911 1_555
Co0 O7 1.923245 1_545
Co0 O1 2.153606 1_555
Co1 O0 1.831665 1_555
Co1 O4 1.982483 1_556
Co1 O6 2.008353 1_555
Co1 O3 2.009623 1_555
Co1 O5 2.013731 1_555
Co2 O4 1.851770 1_555
Co2 O5 1.881467 1_554
Co2 O7 1.914812 1_555
Co2 O2 1.925264 1_555
Co2 F3 2.353050 1_555
Co2 F0 2.581825 1_554
Co3 O5 1.860704 1_655
Co3 O2 1.887808 1_555
Co3 O0 1.949530 1_555
Co3 F3 2.003798 1_655
Co3 F0 2.137994 1_555
Co3 F2 2.216810 1_655
Co4 O6 1.907254 1_655
Co4 O4 1.939257 1_555
Co4 O0 1.957818 1_555
Co4 O1 1.985197 1_555
Co4 F1 2.128196 1_655
Co4 F3 2.187497 1_655
Co5 O1 1.892285 1_565
Co5 O7 1.919369 1_655
Co5 O3 1.922736 1_564
Co5 F2 1.990793 1_654
Co5 F0 2.041138 1_554
Co5 F1 2.062732 1_665
F0 Mg0 2.135989 1_565
F1 Mg0 1.974502 1_554
F2 Mg0 2.015324 1_565
