# generated using pymatgen
data_TaO3
_symmetry_space_group_name_H-M   'P 1'
_cell_length_a   6.85951766
_cell_length_b   6.85951766
_cell_length_c   6.85951766
_cell_angle_alpha   109.47122063
_cell_angle_beta   109.47122063
_cell_angle_gamma   109.47122063
_symmetry_Int_Tables_number   1
_chemical_formula_structural   TaO3
_chemical_formula_sum   'Ta4 O12'
_cell_volume   248.46135291
_cell_formula_units_Z   4
loop_
 _symmetry_equiv_pos_site_id
 _symmetry_equiv_pos_as_xyz
  1  'x, y, z'
loop_
 _atom_site_type_symbol
 _atom_site_label
 _atom_site_symmetry_multiplicity
 _atom_site_fract_x
 _atom_site_fract_y
 _atom_site_fract_z
 _atom_site_occupancy
  Ta  Ta0  1  0.50000000  -0.00000000  -0.00000000  1
  Ta  Ta1  1  -0.00000000  0.50000000  -0.00000000  1
  Ta  Ta2  1  0.50000000  0.50000000  0.50000000  1
  Ta  Ta3  1  -0.00000000  -0.00000000  0.50000000  1
  O  O0  1  0.99949548  0.74975867  0.24973681  1
  O  O1  1  0.25024133  0.75026319  0.00050452  1
  O  O2  1  0.49997814  0.25024133  0.24973681  1
  O  O3  1  0.75026319  0.00050452  0.25024133  1
  O  O4  1  0.74975867  0.75026319  0.50002186  1
  O  O5  1  0.24973681  0.49997814  0.25024133  1
  O  O6  1  0.75026319  0.50002186  0.74975867  1
  O  O7  1  0.25024133  0.24973681  0.49997814  1
  O  O8  1  0.24973681  0.99949548  0.74975867  1
  O  O9  1  0.50002186  0.74975867  0.75026319  1
  O  O10  1  0.74975867  0.24973681  0.99949548  1
  O  O11  1  0.00050452  0.25024133  0.75026319  1
loop_
_geom_bond_atom_site_label_1
_geom_bond_atom_site_label_2
_geom_bond_distance
_geom_bond_site_symmetry_2
O0 Ta1 1.980174 1_655
O0 Ta3 1.980174 1_665
O1 Ta1 1.980174 1_555
O1 Ta0 1.980174 1_565
O2 Ta0 1.980174 1_555
O2 Ta2 1.980174 1_555
O3 Ta0 1.980174 1_555
O3 Ta3 1.980174 1_655
O4 Ta2 1.980174 1_555
O4 Ta3 1.980174 1_665
O5 Ta2 1.980174 1_555
O5 Ta1 1.980174 1_555
O6 Ta2 1.980174 1_555
O6 Ta1 1.980174 1_656
O7 Ta3 1.980174 1_555
O7 Ta2 1.980174 1_555
O8 Ta3 1.980174 1_565
O8 Ta0 1.980174 1_566
O9 Ta2 1.980174 1_555
O9 Ta0 1.980174 1_566
O10 Ta1 1.980174 1_656
O10 Ta0 1.980174 1_556
O11 Ta3 1.980174 1_555
O11 Ta1 1.980174 1_556
