# generated using pymatgen
data_Y2Si4Mo3
_symmetry_space_group_name_H-M   'P 1'
_cell_length_a   6.73732046
_cell_length_b   6.84721162
_cell_length_c   6.91448915
_cell_angle_alpha   90.00000000
_cell_angle_beta   90.00000000
_cell_angle_gamma   108.83554670
_symmetry_Int_Tables_number   1
_chemical_formula_structural   Y2Si4Mo3
_chemical_formula_sum   'Y4 Si8 Mo6'
_cell_volume   301.89668012
_cell_formula_units_Z   2
loop_
 _symmetry_equiv_pos_site_id
 _symmetry_equiv_pos_as_xyz
  1  'x, y, z'
loop_
 _atom_site_type_symbol
 _atom_site_label
 _atom_site_symmetry_multiplicity
 _atom_site_fract_x
 _atom_site_fract_y
 _atom_site_fract_z
 _atom_site_occupancy
  Y  Y0  1  0.06262500  0.19114125  0.82997936  1
  Y  Y1  1  0.56262500  0.19114125  0.67002064  1
  Y  Y2  1  0.93737500  0.80885875  0.17002064  1
  Y  Y3  1  0.43737500  0.80885875  0.32998036  1
  Si  Si0  1  0.86920672  0.09068903  0.45444239  1
  Si  Si1  1  0.37293334  0.50573672  0.63122814  1
  Si  Si2  1  0.12706666  0.49426328  0.13122814  1
  Si  Si3  1  0.63079328  0.90931097  0.95444239  1
  Si  Si4  1  0.87293334  0.50573672  0.86877186  1
  Si  Si5  1  0.62706666  0.49426328  0.36877186  1
  Si  Si6  1  0.36920672  0.09068903  0.04555761  1
  Si  Si7  1  0.13079328  0.90931097  0.54555761  1
  Mo  Mo0  1  0.74851231  0.25028967  0.16205431  1
  Mo  Mo1  1  0.75148769  0.74971033  0.66205431  1
  Mo  Mo2  1  0.25148769  0.74971033  0.83794569  1
  Mo  Mo3  1  0.24851231  0.25028967  0.33794569  1
  Mo  Mo4  1  -0.00000000  0.50000000  0.50000000  1
  Mo  Mo5  1  0.50000000  0.50000000  0.00000000  1
loop_
_geom_bond_atom_site_label_1
_geom_bond_atom_site_label_2
_geom_bond_distance
_geom_bond_site_symmetry_2
Si0 Si7 2.541388 1_645
Si0 Y1 2.806927 1_555
Si0 Y0 2.887046 1_655
Si0 Y2 2.893922 1_545
Si0 Y3 3.050222 1_545
Si1 Si5 2.513543 1_555
Si1 Y0 2.826949 1_555
Si1 Y1 2.850093 1_555
Si1 Y3 2.872854 1_555
Si2 Si4 2.513543 1_454
Si2 Y3 2.826953 1_555
Si2 Y2 2.850093 1_455
Si2 Y0 2.872859 1_554
Si3 Si6 2.541388 1_566
Si3 Y2 2.806927 1_556
Si3 Y3 2.887053 1_556
Si3 Y1 2.893922 1_565
Si3 Y0 3.050224 1_665
Si4 Y1 2.826949 1_555
Si4 Y0 2.850093 1_655
Si4 Y2 2.872859 1_556
Si5 Y2 2.826949 1_555
Si5 Y3 2.850092 1_555
Si5 Y1 2.872859 1_555
Si6 Y0 2.806927 1_554
Si6 Y1 2.887046 1_554
Si6 Y3 2.893927 1_545
Si6 Y2 3.050224 1_445
Si7 Y3 2.806923 1_555
Si7 Y2 2.887046 1_455
Si7 Y0 2.893922 1_565
Si7 Y1 3.050224 1_565
Mo0 Si5 2.527015 1_555
Mo0 Si0 2.552764 1_555
Mo0 Si6 2.563287 1_555
Mo0 Si2 2.567057 1_655
Mo0 Si4 2.632047 1_554
Mo0 Si3 2.635371 1_544
Mo1 Si4 2.527015 1_555
Mo1 Si3 2.552764 1_555
Mo1 Si7 2.563287 1_655
Mo1 Si1 2.567057 1_555
Mo1 Si5 2.632047 1_555
Mo1 Si0 2.635371 1_565
Mo2 Si1 2.527015 1_555
Mo2 Si7 2.552764 1_555
Mo2 Si3 2.563287 1_555
Mo2 Si4 2.567057 1_455
Mo2 Si2 2.632047 1_556
Mo2 Si6 2.635371 1_566
Mo3 Si2 2.527015 1_555
Mo3 Si6 2.552764 1_555
Mo3 Si0 2.563287 1_455
Mo3 Si5 2.567057 1_555
Mo3 Si1 2.632047 1_555
Mo3 Si7 2.635371 1_545
Mo4 Si5 2.659729 1_455
Mo4 Si1 2.659729 1_555
Mo4 Si0 2.671299 1_455
Mo4 Si7 2.671299 1_555
Mo4 Si4 2.694063 1_455
Mo4 Si2 2.694063 1_555
Mo5 Si2 2.659729 1_555
Mo5 Si4 2.659729 1_554
Mo5 Si6 2.671299 1_555
Mo5 Si3 2.671299 1_554
Mo5 Si1 2.694063 1_554
Mo5 Si5 2.694063 1_555
