# generated using pymatgen
data_K2Mn3S4
_symmetry_space_group_name_H-M   'P 1'
_cell_length_a   5.98952706
_cell_length_b   7.27137483
_cell_length_c   11.05411071
_cell_angle_alpha   67.70802892
_cell_angle_beta   90.00000000
_cell_angle_gamma   90.00000000
_symmetry_Int_Tables_number   1
_chemical_formula_structural   K2Mn3S4
_chemical_formula_sum   'K4 Mn6 S8'
_cell_volume   445.44902651
_cell_formula_units_Z   2
loop_
 _symmetry_equiv_pos_site_id
 _symmetry_equiv_pos_as_xyz
  1  'x, y, z'
loop_
 _atom_site_type_symbol
 _atom_site_label
 _atom_site_symmetry_multiplicity
 _atom_site_fract_x
 _atom_site_fract_y
 _atom_site_fract_z
 _atom_site_occupancy
  K  K0  1  0.49529662  0.50000000  0.75000000  1
  K  K1  1  0.00000000  0.50000000  0.50000000  1
  K  K2  1  0.00000000  0.50000000  0.00000000  1
  K  K3  1  0.50470338  0.50000000  0.25000000  1
  Mn  Mn0  1  0.25005938  0.00093695  0.53022552  1
  Mn  Mn1  1  0.25005938  0.99906305  0.96977448  1
  Mn  Mn2  1  0.74994062  0.99906305  0.46977448  1
  Mn  Mn3  1  0.74994062  0.00093695  0.03022552  1
  Mn  Mn4  1  0.24894023  -0.00000000  0.25000000  1
  Mn  Mn5  1  0.75105977  -0.00000000  0.75000000  1
  S  S0  1  0.53388229  0.78851768  0.93734396  1
  S  S1  1  0.03176599  0.78869102  0.16830249  1
  S  S2  1  0.03176599  0.21130898  0.33169751  1
  S  S3  1  0.53388229  0.21148232  0.56265604  1
  S  S4  1  0.96823401  0.78869102  0.66830249  1
  S  S5  1  0.96823401  0.21130898  0.83169751  1
  S  S6  1  0.46611771  0.78851768  0.43734396  1
  S  S7  1  0.46611771  0.21148232  0.06265604  1
loop_
_geom_bond_atom_site_label_1
_geom_bond_atom_site_label_2
_geom_bond_distance
_geom_bond_site_symmetry_2
K0 S7 3.297866 1_556
K0 S6 3.297866 1_555
K0 S4 3.436269 1_555
K0 S5 3.436269 1_555
K0 S3 3.469792 1_555
K0 S0 3.469792 1_555
K0 S5 3.708053 1_455
K0 S4 3.708053 1_455
K1 S4 3.296484 1_455
K1 S2 3.296484 1_555
K1 S6 3.401898 1_555
K1 S3 3.401898 1_455
K1 S1 3.470964 1_555
K1 S5 3.470964 1_455
K1 S3 3.742182 1_555
K1 S6 3.742182 1_455
K2 S1 3.296484 1_555
K2 S5 3.296484 1_454
K2 S7 3.401898 1_555
K2 S0 3.401898 1_454
K2 S2 3.470964 1_555
K2 S4 3.470964 1_454
K2 S7 3.742182 1_455
K2 S0 3.742182 1_554
K3 S3 3.297866 1_555
K3 S0 3.297866 1_554
K3 S1 3.436269 1_555
K3 S2 3.436269 1_555
K3 S6 3.469792 1_555
K3 S7 3.469792 1_555
K3 S2 3.708053 1_655
K3 S1 3.708053 1_655
Mn0 S4 2.402863 1_445
Mn0 S3 2.403870 1_555
Mn0 S6 2.513496 1_545
Mn0 S2 2.513705 1_555
Mn1 S5 2.402863 1_465
Mn1 S0 2.403870 1_555
Mn1 S7 2.513496 1_566
Mn1 S1 2.513705 1_556
Mn2 S2 2.402863 1_665
Mn2 S6 2.403870 1_555
Mn2 S3 2.513496 1_565
Mn2 S4 2.513705 1_555
Mn3 S1 2.402863 1_645
Mn3 S7 2.403870 1_555
Mn3 S0 2.513496 1_544
Mn3 S5 2.513705 1_554
Mn4 S1 2.433341 1_545
Mn4 S2 2.433341 1_555
Mn4 S6 2.435055 1_545
Mn4 S7 2.435055 1_555
Mn5 S4 2.433341 1_545
Mn5 S5 2.433341 1_555
Mn5 S3 2.435055 1_555
Mn5 S0 2.435055 1_545
