# generated using pymatgen
data_MgGe4(BiO6)2
_symmetry_space_group_name_H-M   'P 1'
_cell_length_a   5.63766163
_cell_length_b   6.99287019
_cell_length_c   9.34625317
_cell_angle_alpha   78.41097506
_cell_angle_beta   72.92953878
_cell_angle_gamma   66.60384514
_symmetry_Int_Tables_number   1
_chemical_formula_structural   MgGe4(BiO6)2
_chemical_formula_sum   'Mg1 Ge4 Bi2 O12'
_cell_volume   321.77219546
_cell_formula_units_Z   1
loop_
 _symmetry_equiv_pos_site_id
 _symmetry_equiv_pos_as_xyz
  1  'x, y, z'
loop_
 _atom_site_type_symbol
 _atom_site_label
 _atom_site_symmetry_multiplicity
 _atom_site_fract_x
 _atom_site_fract_y
 _atom_site_fract_z
 _atom_site_occupancy
  Mg  Mg0  1  0.75828982  0.74710349  0.91905081  1
  Ge  Ge0  1  0.76698911  0.38392215  0.23003468  1
  Ge  Ge1  1  0.70061439  0.79016412  0.61442973  1
  Ge  Ge2  1  0.26693666  0.59779499  0.74237729  1
  Ge  Ge3  1  0.28340454  0.22355339  0.38075505  1
  Bi  Bi0  1  0.86849679  0.86011642  0.22652694  1
  Bi  Bi1  1  0.14015604  0.16102579  0.80044536  1
  O  O0  1  0.46211392  0.39237345  0.36007544  1
  O  O1  1  0.95873783  0.59083424  0.70801641  1
  O  O2  1  0.51535699  0.64946413  0.59052742  1
  O  O3  1  0.98062469  0.40184166  0.33285467  1
  O  O4  1  0.23453055  0.11441178  0.56865610  1
  O  O5  1  0.38092399  0.33852411  0.81826903  1
  O  O6  1  0.85222985  0.90487763  0.45239050  1
  O  O7  1  0.70380802  0.62428083  0.11857089  1
  O  O8  1  0.91330263  0.16294175  0.12483955  1
  O  O9  1  0.54068334  0.92402366  0.78176719  1
  O  O10  1  0.09811127  0.79655221  0.86872204  1
  O  O11  1  0.44968956  0.02138021  0.25983991  1
loop_
_geom_bond_atom_site_label_1
_geom_bond_atom_site_label_2
_geom_bond_distance
_geom_bond_site_symmetry_2
Mg0 O7 1.881253 1_556
Mg0 O9 1.939826 1_555
Mg0 O10 1.985650 1_655
Mg0 O1 2.222195 1_555
Ge0 O7 1.753884 1_555
Ge0 O0 1.776693 1_555
Ge0 O8 1.776783 1_555
Ge0 O3 1.799314 1_555
Ge1 O6 1.721662 1_555
Ge1 O2 1.774867 1_555
Ge1 O9 1.795893 1_555
Ge1 O1 1.863375 1_555
Ge2 O5 1.740356 1_555
Ge2 O2 1.770619 1_555
Ge2 O10 1.783554 1_555
Ge2 O1 1.877639 1_455
Ge3 O4 1.756972 1_555
Ge3 O11 1.766946 1_555
Ge3 O0 1.784565 1_555
Ge3 O3 1.789643 1_455
Bi0 O11 2.130333 1_565
Bi0 O6 2.166019 1_555
Bi0 O8 2.219599 1_565
Bi0 O7 2.652247 1_555
Bi1 O4 2.133482 1_555
Bi1 O9 2.188314 1_545
Bi1 O5 2.228156 1_555
Bi1 O10 2.587832 1_545
