# generated using pymatgen
data_NaYF4
_symmetry_space_group_name_H-M   'P 1'
_cell_length_a   5.93349599
_cell_length_b   5.93347402
_cell_length_c   7.04460231
_cell_angle_alpha   89.99917704
_cell_angle_beta   89.99990655
_cell_angle_gamma   120.00141240
_symmetry_Int_Tables_number   1
_chemical_formula_structural   NaYF4
_chemical_formula_sum   'Na3 Y3 F12'
_cell_volume   214.78335865
_cell_formula_units_Z   3
loop_
 _symmetry_equiv_pos_site_id
 _symmetry_equiv_pos_as_xyz
  1  'x, y, z'
loop_
 _atom_site_type_symbol
 _atom_site_label
 _atom_site_symmetry_multiplicity
 _atom_site_fract_x
 _atom_site_fract_y
 _atom_site_fract_z
 _atom_site_occupancy
  Na  Na0  1  0.00001525  0.00002279  0.22536967  1
  Na  Na1  1  -0.00000285  -0.00000572  0.73035821  1
  Na  Na2  1  0.66661233  0.33327521  0.62931477  1
  Y  Y0  1  0.33333578  0.66666617  0.39296842  1
  Y  Y1  1  0.33333196  0.66666519  0.88115194  1
  Y  Y2  1  0.66668058  0.33334203  0.13137195  1
  F  F0  1  0.08679559  0.68574226  0.13514705  1
  F  F1  1  0.09535028  0.69565046  0.63620015  1
  F  F2  1  0.31426510  0.40104221  0.13514142  1
  F  F3  1  0.30433677  0.39968328  0.63619111  1
  F  F4  1  0.59895166  0.91321543  0.13514432  1
  F  F5  1  0.60030498  0.90464540  0.63619613  1
  F  F6  1  0.38095650  0.07425892  0.36506202  1
  F  F7  1  0.37674376  0.07325086  0.90140161  1
  F  F8  1  0.69329589  0.61904569  0.36507194  1
  F  F9  1  0.69652174  0.62331614  0.90142773  1
  F  F10  1  0.92574591  0.30670109  0.36506332  1
  F  F11  1  0.92675978  0.30348059  0.90142224  1
loop_
_geom_bond_atom_site_label_1
_geom_bond_atom_site_label_2
_geom_bond_distance
_geom_bond_site_symmetry_2
F0 Na0 2.259812 1_565
F0 Y2 2.318224 1_455
F0 Y1 2.349430 1_554
F0 Y0 2.370037 1_555
F1 Na1 2.245622 1_565
F1 Y0 2.280878 1_555
F1 Y1 2.289982 1_555
F1 Na2 2.372122 1_455
F2 Na0 2.259544 1_555
F2 Y2 2.318316 1_555
F2 Y1 2.349431 1_554
F2 Y0 2.370116 1_555
F3 Na1 2.245535 1_555
F3 Y0 2.280831 1_555
F3 Y1 2.290081 1_555
F3 Na2 2.371760 1_555
F4 Na0 2.259767 1_665
F4 Y2 2.318292 1_565
F4 Y1 2.349448 1_554
F4 Y0 2.370024 1_555
F5 Na1 2.245591 1_665
F5 Y0 2.280838 1_555
F5 Y1 2.289973 1_555
F5 Na2 2.371640 1_565
F6 Na0 2.296912 1_555
F6 Y0 2.298685 1_545
F6 Y2 2.311089 1_555
F6 Na2 2.468856 1_555
F7 Y1 2.298969 1_545
F7 Y2 2.304516 1_556
F7 Na1 2.380386 1_555
F7 Na2 2.521637 1_555
F8 Na0 2.297038 1_665
F8 Y0 2.298631 1_555
F8 Y2 2.311154 1_555
F8 Na2 2.469156 1_555
F9 Y1 2.298875 1_555
F9 Y2 2.304535 1_556
F9 Na1 2.380172 1_665
F9 Na2 2.522389 1_555
F10 Na0 2.296907 1_655
F10 Y0 2.298627 1_655
F10 Y2 2.311068 1_555
F10 Na2 2.469166 1_555
F11 Y1 2.298917 1_655
F11 Y2 2.304413 1_556
F11 Na1 2.380395 1_655
F11 Na2 2.522154 1_555
