# generated using pymatgen
data_Ca4Cl6O
_symmetry_space_group_name_H-M   'P 1'
_cell_length_a   9.06582934
_cell_length_b   9.06583706
_cell_length_c   6.86361780
_cell_angle_alpha   90.00000896
_cell_angle_beta   89.99998176
_cell_angle_gamma   119.99963957
_symmetry_Int_Tables_number   1
_chemical_formula_structural   Ca4Cl6O
_chemical_formula_sum   'Ca8 Cl12 O2'
_cell_volume   488.54069908
_cell_formula_units_Z   2
loop_
 _symmetry_equiv_pos_site_id
 _symmetry_equiv_pos_as_xyz
  1  'x, y, z'
loop_
 _atom_site_type_symbol
 _atom_site_label
 _atom_site_symmetry_multiplicity
 _atom_site_fract_x
 _atom_site_fract_y
 _atom_site_fract_z
 _atom_site_occupancy
  Ca  Ca0  1  0.80174675  0.19825001  0.49959062  1
  Ca  Ca1  1  0.60349565  0.80174816  0.99959494  1
  Ca  Ca2  1  0.19825069  0.39650421  0.99959491  1
  Ca  Ca3  1  0.80174800  0.60349532  0.49959324  1
  Ca  Ca4  1  0.39650493  0.19825316  0.49959266  1
  Ca  Ca5  1  0.19825022  0.80174735  0.99959048  1
  Ca  Ca6  1  0.66666880  0.33333313  0.92713909  1
  Ca  Ca7  1  0.33332991  0.66666604  0.42713668  1
  Cl  Cl0  1  0.86275211  0.13724877  0.88435199  1
  Cl  Cl1  1  0.72550487  0.86275202  0.38435048  1
  Cl  Cl2  1  0.13724803  0.27449555  0.38435063  1
  Cl  Cl3  1  0.86275203  0.72550414  0.88435232  1
  Cl  Cl4  1  0.27449585  0.13724856  0.88435191  1
  Cl  Cl5  1  0.13724780  0.86275226  0.38435027  1
  Cl  Cl6  1  0.46361379  0.53638614  0.70898071  1
  Cl  Cl7  1  0.92722763  0.46361286  0.20898133  1
  Cl  Cl8  1  0.53638726  0.07277301  0.20898158  1
  Cl  Cl9  1  0.46361393  0.92722755  0.70898094  1
  Cl  Cl10  1  0.07277232  0.53638647  0.70898286  1
  Cl  Cl11  1  0.53638666  0.46361332  0.20898140  1
  O  O0  1  0.66666679  0.33333279  0.60557683  1
  O  O1  1  0.33333297  0.66666718  0.10557713  1
loop_
_geom_bond_atom_site_label_1
_geom_bond_atom_site_label_2
_geom_bond_distance
_geom_bond_site_symmetry_2
Ca0 O0 2.242384 1_555
Ca0 Cl0 2.809216 1_555
Ca0 Cl1 2.872669 1_545
Ca0 Cl2 2.872684 1_655
Ca0 Cl8 2.885030 1_555
Ca0 Cl7 2.885051 1_555
Ca0 Cl9 3.157163 1_545
Ca0 Cl10 3.157197 1_655
Ca1 O1 2.242384 1_556
Ca1 Cl1 2.809187 1_556
Ca1 Cl3 2.872679 1_555
Ca1 Cl0 2.872699 1_565
Ca1 Cl9 2.885056 1_555
Ca1 Cl6 2.885071 1_555
Ca1 Cl8 3.157145 1_566
Ca1 Cl11 3.157162 1_556
Ca2 O1 2.242389 1_556
Ca2 Cl2 2.809186 1_556
Ca2 Cl4 2.872682 1_555
Ca2 Cl0 2.872684 1_455
Ca2 Cl10 2.885044 1_555
Ca2 Cl6 2.885075 1_555
Ca2 Cl7 3.157130 1_456
Ca2 Cl11 3.157169 1_556
Ca3 O0 2.242388 1_555
Ca3 Cl3 2.809208 1_555
Ca3 Cl1 2.872679 1_555
Ca3 Cl5 2.872695 1_655
Ca3 Cl7 2.885051 1_555
Ca3 Cl11 2.885055 1_555
Ca3 Cl10 3.157152 1_655
Ca3 Cl6 3.157157 1_555
Ca4 O0 2.242383 1_555
Ca4 Cl4 2.809210 1_555
Ca4 Cl2 2.872673 1_555
Ca4 Cl5 2.872702 1_545
Ca4 Cl11 2.885046 1_555
Ca4 Cl8 2.885049 1_555
Ca4 Cl6 3.157153 1_555
Ca4 Cl9 3.157160 1_545
Ca5 O1 2.242386 1_556
Ca5 Cl5 2.809207 1_556
Ca5 Cl3 2.872661 1_455
Ca5 Cl4 2.872684 1_565
Ca5 Cl10 2.885032 1_555
Ca5 Cl9 2.885056 1_555
Ca5 Cl7 3.157174 1_456
Ca5 Cl8 3.157196 1_566
Ca6 O0 2.207080 1_555
Ca6 Cl7 2.815508 1_556
Ca6 Cl8 2.815517 1_556
Ca6 Cl11 2.815520 1_556
Ca6 Cl0 3.092971 1_555
Ca6 Cl3 3.093015 1_555
Ca6 Cl4 3.093028 1_555
Ca7 O1 2.207062 1_555
Ca7 Cl10 2.815519 1_555
Ca7 Cl9 2.815534 1_555
Ca7 Cl6 2.815537 1_555
Ca7 Cl5 3.092976 1_555
Ca7 Cl2 3.093011 1_555
Ca7 Cl1 3.093043 1_555
