# generated using pymatgen
data_Na4Sc3NbSi3(SO8)3
_symmetry_space_group_name_H-M   'P 1'
_cell_length_a   9.05267579
_cell_length_b   9.05708024
_cell_length_c   22.85609498
_cell_angle_alpha   89.96943356
_cell_angle_beta   90.10374399
_cell_angle_gamma   119.90291210
_symmetry_Int_Tables_number   1
_chemical_formula_structural   Na4Sc3NbSi3(SO8)3
_chemical_formula_sum   'Na12 Sc9 Nb3 Si9 S9 O72'
_cell_volume   1624.50534205
_cell_formula_units_Z   3
loop_
 _symmetry_equiv_pos_site_id
 _symmetry_equiv_pos_as_xyz
  1  'x, y, z'
loop_
 _atom_site_type_symbol
 _atom_site_label
 _atom_site_symmetry_multiplicity
 _atom_site_fract_x
 _atom_site_fract_y
 _atom_site_fract_z
 _atom_site_occupancy
  Na  Na0  1  0.64325617  0.00161614  0.25244849  1
  Na  Na1  1  0.35786354  0.35560807  0.25235257  1
  Na  Na2  1  0.99855779  0.64077810  0.25287267  1
  Na  Na3  1  0.30556657  0.34132570  0.58747677  1
  Na  Na4  1  0.66402548  0.96540774  0.58720301  1
  Na  Na5  1  0.29092022  0.95798135  0.08372677  1
  Na  Na6  1  0.00110802  0.98666369  0.50167082  1
  Na  Na7  1  0.98554304  0.00068675  0.98966481  1
  Na  Na8  1  0.66643551  0.33315410  0.82591446  1
  Na  Na9  1  0.66730398  0.33320096  0.33030611  1
  Na  Na10  1  0.33354365  0.65178342  0.17275880  1
  Na  Na11  1  0.31421731  0.66792424  0.66212938  1
  Sc  Sc0  1  0.00056593  0.00034714  0.34679487  1
  Sc  Sc1  1  0.00136380  0.99976108  0.85686318  1
  Sc  Sc2  1  0.00154547  0.99382316  0.64247175  1
  Sc  Sc3  1  0.99423111  0.00137149  0.15252370  1
  Sc  Sc4  1  0.66886773  0.33555048  0.68204837  1
  Sc  Sc5  1  0.66903454  0.33617554  0.18934123  1
  Sc  Sc6  1  0.33417077  0.66213597  0.01492367  1
  Sc  Sc7  1  0.32747394  0.66653226  0.52194836  1
  Sc  Sc8  1  0.33315557  0.66768674  0.31292201  1
  Nb  Nb0  1  0.66921650  0.33500303  0.97086147  1
  Nb  Nb1  1  0.66966249  0.33544882  0.48552973  1
  Nb  Nb2  1  0.33384104  0.66705680  0.82010825  1
  Si  Si0  1  0.29017676  0.99901469  0.24691598  1
  Si  Si1  1  0.70883414  0.71017035  0.25070243  1
  Si  Si2  1  0.00137519  0.29091594  0.25044456  1
  Si  Si3  1  0.96145366  0.33568957  0.58649194  1
  Si  Si4  1  0.37539314  0.04087718  0.58521280  1
  Si  Si5  1  0.66753367  0.62605669  0.58455545  1
  Si  Si6  1  0.62734380  0.67262270  0.91878080  1
  Si  Si7  1  0.04551460  0.37318102  0.91826969  1
  Si  Si8  1  0.32815091  0.95484372  0.92158332  1
  S  S0  1  0.29460689  0.29958063  0.75008063  1
  S  S1  1  0.00451311  0.70678581  0.75098255  1
  S  S2  1  0.70049562  0.99520501  0.75022177  1
  S  S3  1  0.95748143  0.62493765  0.08234147  1
  S  S4  1  0.66864093  0.04434114  0.08240526  1
  S  S5  1  0.37687779  0.33372992  0.08233154  1
  S  S6  1  0.63215511  0.96795301  0.41779907  1
  S  S7  1  0.33643372  0.36801904  0.41756601  1
  S  S8  1  0.03235265  0.66365743  0.41659277  1
  O  O0  1  0.20468682  0.04540826  0.30130007  1
  O  O1  1  0.83549478  0.78810262  0.30668643  1
  O  O2  1  0.95123616  0.16362829  0.30631269  1
  O  O3  1  0.20137368  0.19382485  0.80045915  1
  O  O4  1  0.99217669  0.79485173  0.80292352  1
  O  O5  1  0.80608103  0.00630793  0.80055335  1
  O  O6  1  0.77480658  0.97594762  0.69468772  1
  O  O7  1  0.20099465  0.22405721  0.69451105  1
  O  O8  1  0.02263001  0.80539377  0.69705808  1
  O  O9  1  0.78816731  0.83676322  0.19406744  1
  O  O10  1  0.04913689  0.21265096  0.19358006  1
  O  O11  1  0.17522508  0.95710254  0.18667042  1
  O  O12  1  0.87505302  0.36915014  0.64225391  1
  O  O13  1  0.50085101  0.12500718  0.64043364  1
  O  O14  1  0.62057620  0.49750015  0.63904109  1
  O  O15  1  0.87492720  0.53297849  0.13669472  1
  O  O16  1  0.65364624  0.12824142  0.13601440  1
  O  O17  1  0.46985347  0.34452499  0.13694357  1
  O  O18  1  0.47666501  0.32328255  0.03120089  1
  O  O19  1  0.85358252  0.52691881  0.03033867  1
  O  O20  1  0.67737971  0.15008748  0.03026242  1
  O  O21  1  0.47546487  0.16973597  0.52598888  1
  O  O22  1  0.69516656  0.52877067  0.52494817  1
  O  O23  1  0.83444040  0.30694912  0.52676356  1
  O  O24  1  0.54104761  0.69918754  0.97566637  1
  O  O25  1  0.15710052  0.46110913  0.97528560  1
  O  O26  1  0.30506010  0.85290348  0.98157652  1
  O  O27  1  0.54161720  0.86749297  0.47019906  1
  O  O28  1  0.32601635  0.45778851  0.47014727  1
  O  O29  1  0.13690714  0.67283616  0.46754456  1
  O  O30  1  0.10929664  0.64590075  0.36168885  1
  O  O31  1  0.53251884  0.88680437  0.36394286  1
  O  O32  1  0.35265260  0.46722712  0.36391751  1
  O  O33  1  0.13706580  0.50095920  0.85977013  1
  O  O34  1  0.36346949  0.85723522  0.86436518  1
  O  O35  1  0.49814995  0.63399805  0.86023002  1
  O  O36  1  0.01351969  0.81655589  0.41646651  1
  O  O37  1  0.80381288  0.98691243  0.41661812  1
  O  O38  1  0.18483778  0.19561731  0.41611838  1
  O  O39  1  0.00857803  0.18414147  0.90743900  1
  O  O40  1  0.17529382  0.98978677  0.90870780  1
  O  O41  1  0.81560612  0.82490886  0.90740601  1
  O  O42  1  0.96591868  0.15756476  0.58966707  1
  O  O43  1  0.19598844  0.03999640  0.58825920  1
  O  O44  1  0.83507935  0.81332913  0.58871568  1
  O  O45  1  0.97298716  0.79653775  0.08033862  1
  O  O46  1  0.82318341  0.02911674  0.08206437  1
  O  O47  1  0.20944148  0.17244666  0.08074677  1
  O  O48  1  0.67946612  0.14777115  0.74965395  1
  O  O49  1  0.46830842  0.32073338  0.74946081  1
  O  O50  1  0.85240872  0.53350458  0.74887344  1
  O  O51  1  0.68229422  0.51861714  0.24147529  1
  O  O52  1  0.83698855  0.31867007  0.24101124  1
  O  O53  1  0.48304627  0.16388102  0.24037569  1
  O  O54  1  0.63564276  0.49088394  0.92555386  1
  O  O55  1  0.85541860  0.36512930  0.92459382  1
  O  O56  1  0.51038932  0.14537607  0.92594889  1
  O  O57  1  0.64727594  0.14276831  0.42053092  1
  O  O58  1  0.49650536  0.35350332  0.42007256  1
  O  O59  1  0.85816301  0.50432115  0.42033202  1
  O  O60  1  0.35726755  0.48590259  0.07970526  1
  O  O61  1  0.13156899  0.64459326  0.08121901  1
  O  O62  1  0.50921107  0.87463297  0.08057301  1
  O  O63  1  0.35843714  0.85674223  0.57399183  1
  O  O64  1  0.50179051  0.64800225  0.57271532  1
  O  O65  1  0.15308467  0.49166873  0.57567684  1
  O  O66  1  0.31223160  0.83183532  0.25847778  1
  O  O67  1  0.51781760  0.68511993  0.26013759  1
  O  O68  1  0.16766872  0.48112867  0.26026552  1
  O  O69  1  0.31003695  0.47464914  0.75473426  1
  O  O70  1  0.16466396  0.69107038  0.75467737  1
  O  O71  1  0.52414670  0.83674719  0.75522806  1
loop_
_geom_bond_atom_site_label_1
_geom_bond_atom_site_label_2
_geom_bond_distance
_geom_bond_site_symmetry_2
Na0 O67 2.508389 1_545
Na0 O52 2.523807 1_555
Na0 O53 2.542200 1_555
Na0 O66 2.601982 1_545
Na0 O2 2.711539 1_555
Na0 O31 2.747230 1_545
Na0 O9 2.773469 1_545
Na0 O16 2.880340 1_555
Na1 O68 2.498526 1_555
Na1 O53 2.517590 1_555
Na1 O51 2.558551 1_555
Na1 O67 2.593451 1_555
Na1 O0 2.680600 1_555
Na1 O32 2.752663 1_555
Na1 O10 2.769854 1_555
Na1 O17 2.847332 1_555
Na2 O66 2.484691 1_655
Na2 O51 2.515585 1_555
Na2 O52 2.543361 1_555
Na2 O68 2.582431 1_655
Na2 O30 2.671624 1_655
Na2 O1 2.728466 1_555
Na2 O15 2.856457 1_555
Na2 O11 2.913938 1_655
Na3 O65 2.388440 1_555
Na3 O43 2.394445 1_555
Na3 O64 2.462917 1_555
Na3 O7 2.648047 1_555
Na3 O42 2.669188 1_455
Na3 O14 2.736721 1_555
Na3 O28 2.853501 1_555
Na4 O42 2.399629 1_565
Na4 O63 2.448543 1_555
Na4 O64 2.514059 1_555
Na4 O44 2.534285 1_555
Na4 O6 2.635528 1_555
Na4 O13 2.808753 1_565
Na4 O27 2.859720 1_555
Na5 O47 2.397902 1_565
Na5 O62 2.442958 1_555
Na5 O61 2.461307 1_555
Na5 O45 2.496196 1_455
Na5 O26 2.549140 1_554
Na5 O11 2.575595 1_555
Na6 O44 2.517262 1_455
Na6 O36 2.520997 1_555
Na6 O43 2.530044 1_565
Na6 O37 2.638264 1_455
Na6 O42 2.653257 1_465
Na6 O38 2.653472 1_565
Na7 O41 2.446790 1_545
Na7 O39 2.447223 1_655
Na7 O40 2.562234 1_645
Na7 O46 2.660046 1_556
Na7 O45 2.741160 1_546
Na7 O47 2.776040 1_656
Na8 O49 2.463897 1_555
Na8 O48 2.464246 1_555
Na8 O50 2.487780 1_555
Na8 O55 2.755065 1_555
Na8 O54 2.776284 1_555
Na8 O56 2.779875 1_555
Na9 O51 2.594403 1_555
Na9 O52 2.599141 1_555
Na9 O53 2.607574 1_555
Na9 O58 2.632372 1_555
Na9 O59 2.634719 1_555
Na9 O57 2.635538 1_555
Na10 O68 2.517443 1_555
Na10 O67 2.519703 1_555
Na10 O66 2.617918 1_555
Na10 O60 2.674611 1_555
Na10 O61 2.755427 1_555
Na10 O62 2.801696 1_555
Na11 O65 2.500350 1_555
Na11 O63 2.541580 1_555
Na11 O70 2.577817 1_555
Na11 O64 2.722292 1_555
Na11 O69 2.734215 1_555
Na11 O71 2.751173 1_555
Nb0 O55 1.892526 1_555
Nb0 O54 1.892919 1_555
Nb0 O56 1.898721 1_555
Nb0 O19 2.180982 1_556
Nb0 O20 2.185015 1_556
Nb0 O18 2.185343 1_556
Nb1 O22 1.878468 1_555
Nb1 O23 1.886398 1_555
Nb1 O21 1.889964 1_555
Nb1 O59 2.208238 1_555
Nb1 O57 2.223205 1_555
Nb1 O58 2.229131 1_555
Nb2 O35 1.892584 1_555
Nb2 O33 1.894870 1_555
Nb2 O34 1.897964 1_555
Nb2 O71 2.212666 1_555
Nb2 O69 2.223303 1_555
Nb2 O70 2.225486 1_555
O0 Si0 1.627528 1_545
O0 Sc0 1.979118 1_555
O1 Si1 1.624486 1_555
O1 Sc0 1.975218 1_665
O2 Si2 1.626170 1_655
O2 Sc0 1.974347 1_655
O3 S0 1.466953 1_555
O3 Sc1 2.205132 1_545
O4 S1 1.465722 1_655
O4 Sc1 2.195291 1_655
O5 S2 1.465405 1_545
O5 Sc1 2.209382 1_645
O6 S2 1.488079 1_555
O6 Sc2 2.311062 1_655
O7 S0 1.489385 1_555
O7 Sc2 2.294315 1_545
O8 S1 1.482263 1_555
O8 Sc2 2.197094 1_555
O9 Si1 1.639134 1_555
O9 Sc3 1.958591 1_565
O10 Si2 1.639281 1_555
O10 Sc3 1.959919 1_455
O11 Si0 1.650625 1_555
O11 Sc3 2.025967 1_465
O12 Si3 1.602600 1_555
O12 Sc4 1.960438 1_555
O13 Si4 1.611349 1_555
O13 Sc4 1.989782 1_555
O14 Si5 1.610627 1_555
O14 Sc4 1.986226 1_555
O15 S3 1.475521 1_555
O15 Sc5 2.189161 1_555
O16 S4 1.483797 1_555
O16 Sc5 2.189056 1_555
O17 S5 1.479968 1_555
O17 Sc5 2.195282 1_555
O18 S5 1.509928 1_555
O19 S3 1.500013 1_555
O20 S4 1.505813 1_555
O21 Si4 1.721528 1_555
O22 Si5 1.708025 1_555
O23 Si3 1.717483 1_555
O24 Si6 1.596895 1_555
O24 Sc6 1.950432 1_556
O25 Si7 1.595960 1_555
O25 Sc6 1.947256 1_556
O26 Si8 1.607364 1_555
O26 Sc6 2.021760 1_556
O27 S6 1.480831 1_555
O27 Sc7 2.226613 1_555
O28 S7 1.480599 1_555
O28 Sc7 2.225718 1_555
O29 S8 1.475339 1_555
O29 Sc7 2.148469 1_555
O30 S8 1.483531 1_555
O30 Sc8 2.235476 1_555
O31 S6 1.484899 1_555
O31 Sc8 2.231424 1_555
O32 S7 1.483380 1_555
O32 Sc8 2.236629 1_555
O33 Si7 1.691156 1_555
O34 Si8 1.696654 1_555
O35 Si6 1.693520 1_555
O36 S8 1.477220 1_555
O36 Sc0 2.347683 1_565
O37 S6 1.476178 1_555
O37 Sc0 2.351196 1_665
O38 S7 1.478480 1_555
O38 Sc0 2.339434 1_555
O39 Si7 1.591812 1_555
O39 Sc1 2.005566 1_545
O40 Si8 1.592686 1_555
O40 Sc1 2.006591 1_555
O41 Si6 1.591227 1_555
O41 Sc1 2.005015 1_655
O42 Si3 1.635387 1_555
O42 Sc2 2.057565 1_645
O43 Si4 1.621752 1_555
O43 Sc2 2.020401 1_545
O44 Si5 1.618960 1_555
O44 Sc2 1.998024 1_655
O45 S3 1.489883 1_555
O45 Sc3 2.418096 1_565
O46 S4 1.472658 1_555
O46 Sc3 2.330834 1_555
O47 S5 1.491587 1_555
O47 Sc3 2.426273 1_455
O48 S2 1.485951 1_545
O48 Sc4 2.334243 1_555
O49 S0 1.486356 1_555
O49 Sc4 2.335679 1_555
O50 S1 1.485454 1_655
O50 Sc4 2.309006 1_555
O51 Si1 1.642172 1_555
O51 Sc5 1.992105 1_555
O52 Si2 1.641947 1_655
O52 Sc5 1.991283 1_555
O53 Si0 1.643692 1_545
O53 Sc5 2.004007 1_555
O54 Si6 1.691740 1_555
O55 Si7 1.692156 1_655
O56 Si8 1.694278 1_545
O57 S6 1.521022 1_545
O58 S7 1.519879 1_555
O59 S8 1.519167 1_655
O60 S5 1.475971 1_555
O60 Sc6 2.261171 1_555
O61 S3 1.495461 1_455
O61 Sc6 2.324729 1_555
O62 S4 1.495093 1_565
O62 Sc6 2.328131 1_555
O63 Si4 1.617318 1_565
O63 Sc7 1.995212 1_555
O64 Si5 1.630896 1_555
O64 Sc7 2.030258 1_555
O65 Si3 1.619859 1_455
O65 Sc7 2.005145 1_555
O66 Si0 1.644132 1_555
O66 Sc8 2.018073 1_555
O67 Si1 1.642642 1_555
O67 Sc8 2.004720 1_555
O68 Si2 1.642530 1_555
O68 Sc8 2.004877 1_555
O69 S0 1.524558 1_555
O70 S1 1.527936 1_555
O71 S2 1.528873 1_555
