# generated using pymatgen
data_SrH2
_symmetry_space_group_name_H-M   'P 1'
_cell_length_a   3.85318502
_cell_length_b   6.34859877
_cell_length_c   7.30273785
_cell_angle_alpha   90.00000000
_cell_angle_beta   90.00000000
_cell_angle_gamma   90.00000000
_symmetry_Int_Tables_number   1
_chemical_formula_structural   SrH2
_chemical_formula_sum   'Sr4 H8'
_cell_volume   178.64195163
_cell_formula_units_Z   4
loop_
 _symmetry_equiv_pos_site_id
 _symmetry_equiv_pos_as_xyz
  1  'x, y, z'
loop_
 _atom_site_type_symbol
 _atom_site_label
 _atom_site_symmetry_multiplicity
 _atom_site_fract_x
 _atom_site_fract_y
 _atom_site_fract_z
 _atom_site_occupancy
  Sr  Sr0  1  0.25000000  0.76059628  0.61146613  1
  Sr  Sr1  1  0.75000000  0.23940372  0.38853387  1
  Sr  Sr2  1  0.25000000  0.26059628  0.88853387  1
  Sr  Sr3  1  0.75000000  0.73940372  0.11146613  1
  H  H0  1  0.25000000  0.52640633  0.32140788  1
  H  H1  1  0.75000000  0.47359367  0.67859212  1
  H  H2  1  0.25000000  0.02640633  0.17859212  1
  H  H3  1  0.75000000  0.97359367  0.82140788  1
  H  H4  1  0.75000000  0.35496629  0.07235457  1
  H  H5  1  0.25000000  0.64503371  0.92764543  1
  H  H6  1  0.75000000  0.85496629  0.42764543  1
  H  H7  1  0.25000000  0.14503371  0.57235457  1
loop_
_geom_bond_atom_site_label_1
_geom_bond_atom_site_label_2
_geom_bond_distance
_geom_bond_site_symmetry_2
H0 Sr0 2.587926 1_555
H0 Sr1 2.696660 1_455
H0 Sr1 2.696660 1_555
H0 Sr3 2.809065 1_555
H0 Sr3 2.809065 1_455
H1 Sr1 2.587926 1_555
H1 Sr0 2.696660 1_655
H1 Sr0 2.696660 1_555
H1 Sr2 2.809065 1_555
H1 Sr2 2.809065 1_655
H2 Sr2 2.587926 1_554
H2 Sr3 2.696660 1_445
H2 Sr3 2.696660 1_545
H2 Sr1 2.809065 1_555
H2 Sr1 2.809065 1_455
H3 Sr3 2.587926 1_556
H3 Sr2 2.696660 1_565
H3 Sr2 2.696660 1_665
H3 Sr0 2.809065 1_555
H3 Sr0 2.809065 1_655
H4 Sr1 2.422730 1_555
H4 Sr2 2.423370 1_654
H4 Sr2 2.423370 1_554
H4 Sr3 2.457295 1_555
H5 Sr0 2.422730 1_555
H5 Sr3 2.423370 1_556
H5 Sr3 2.423370 1_456
H5 Sr2 2.457295 1_555
H6 Sr3 2.422730 1_555
H6 Sr0 2.423370 1_555
H6 Sr0 2.423370 1_655
H6 Sr1 2.457295 1_565
H7 Sr2 2.422730 1_555
H7 Sr1 2.423370 1_555
H7 Sr1 2.423370 1_455
H7 Sr0 2.457295 1_545
