# generated using pymatgen
data_Li3Mo2(PO4)3
_symmetry_space_group_name_H-M   'P 1'
_cell_length_a   8.73728082
_cell_length_b   8.73728082
_cell_length_c   8.76135760
_cell_angle_alpha   62.80737323
_cell_angle_beta   62.80737323
_cell_angle_gamma   61.34371210
_symmetry_Int_Tables_number   1
_chemical_formula_structural   Li3Mo2(PO4)3
_chemical_formula_sum   'Li6 Mo4 P6 O24'
_cell_volume   497.22252045
_cell_formula_units_Z   2
loop_
 _symmetry_equiv_pos_site_id
 _symmetry_equiv_pos_as_xyz
  1  'x, y, z'
loop_
 _atom_site_type_symbol
 _atom_site_label
 _atom_site_symmetry_multiplicity
 _atom_site_fract_x
 _atom_site_fract_y
 _atom_site_fract_z
 _atom_site_occupancy
  Li  Li0  1  0.30704200  0.06138900  0.20153600  1
  Li  Li1  1  0.06138900  0.30704200  0.70153600  1
  Li  Li2  1  0.62584700  0.36802500  0.74751800  1
  Li  Li3  1  0.36802500  0.62584700  0.24751800  1
  Li  Li4  1  0.93920400  0.69657700  0.28306600  1
  Li  Li5  1  0.69657700  0.93920400  0.78306600  1
  Mo  Mo0  1  0.64098900  0.14951800  0.13182400  1
  Mo  Mo1  1  0.14951800  0.64098900  0.63182400  1
  Mo  Mo2  1  0.85229900  0.36101300  0.35479500  1
  Mo  Mo3  1  0.36101300  0.85229900  0.85479500  1
  P  P0  1  0.75597400  0.52545300  0.94569700  1
  P  P1  1  0.05214100  0.94992400  0.24317900  1
  P  P2  1  0.52545300  0.75597400  0.44569700  1
  P  P3  1  0.47636100  0.24590800  0.54045400  1
  P  P4  1  0.24590800  0.47636100  0.04045400  1
  P  P5  1  0.94992400  0.05214100  0.74317900  1
  O  O0  1  0.89871300  0.98051100  0.18016200  1
  O  O1  1  0.98051100  0.89871300  0.68016200  1
  O  O2  1  0.94475700  0.51828100  0.80082500  1
  O  O3  1  0.61838600  0.72445400  0.90062800  1
  O  O4  1  0.10239400  0.02130900  0.80753600  1
  O  O5  1  0.02130900  0.10239400  0.30753600  1
  O  O6  1  0.05707100  0.48361800  0.18467400  1
  O  O7  1  0.38404900  0.27745300  0.08489800  1
  O  O8  1  0.30052400  0.61425400  0.05468600  1
  O  O9  1  0.75626600  0.07082400  0.89022600  1
  O  O10  1  0.25019300  0.52533600  0.84780000  1
  O  O11  1  0.48361800  0.05707100  0.68467400  1
  O  O12  1  0.27745300  0.38404900  0.58489800  1
  O  O13  1  0.61425400  0.30052400  0.55468600  1
  O  O14  1  0.47574200  0.75346400  0.63770700  1
  O  O15  1  0.93256300  0.24479400  0.59521700  1
  O  O16  1  0.07082400  0.75626600  0.39022600  1
  O  O17  1  0.52533600  0.25019300  0.34780000  1
  O  O18  1  0.38768300  0.70069500  0.43202600  1
  O  O19  1  0.72445400  0.61838600  0.40062800  1
  O  O20  1  0.51828100  0.94475700  0.30082500  1
  O  O21  1  0.75346400  0.47574200  0.13770700  1
  O  O22  1  0.24479400  0.93256300  0.09521700  1
  O  O23  1  0.70069500  0.38768300  0.93202600  1
loop_
_geom_bond_atom_site_label_1
_geom_bond_atom_site_label_2
_geom_bond_distance
_geom_bond_site_symmetry_2
Li0 O7 1.971663 1_555
Li0 O20 2.013689 1_545
Li0 O22 2.106872 1_545
Li0 O5 2.133233 1_555
Li1 O12 1.971663 1_555
Li1 O2 2.013689 1_455
Li1 O15 2.106872 1_455
Li1 O4 2.133233 1_555
Li2 O13 2.082496 1_555
Li2 O23 2.097162 1_555
Li2 O9 2.258658 1_555
Li2 O15 2.323553 1_555
Li3 O8 2.082496 1_555
Li3 O18 2.097162 1_555
Li3 O16 2.258658 1_555
Li3 O22 2.323553 1_555
Li4 O19 1.966777 1_555
Li4 O6 2.020543 1_655
Li4 O16 2.117900 1_655
Li4 O0 2.120838 1_555
Li5 O3 1.966777 1_555
Li5 O11 2.020543 1_565
Li5 O9 2.117900 1_565
Li5 O1 2.120838 1_555
Mo0 O17 2.072820 1_555
Mo0 O7 2.115440 1_555
Mo0 O20 2.123734 1_545
Mo0 O0 2.131050 1_545
Mo0 O23 2.131638 1_554
Mo0 O9 2.164525 1_554
Mo1 O10 2.072820 1_555
Mo1 O12 2.115440 1_555
Mo1 O2 2.123734 1_455
Mo1 O1 2.131050 1_455
Mo1 O18 2.131638 1_555
Mo1 O16 2.164525 1_555
Mo2 O21 2.072791 1_555
Mo2 O19 2.114710 1_555
Mo2 O6 2.124101 1_655
Mo2 O13 2.133417 1_555
Mo2 O5 2.133994 1_655
Mo2 O15 2.161514 1_555
Mo3 O14 2.072791 1_555
Mo3 O3 2.114710 1_555
Mo3 O11 2.124101 1_565
Mo3 O8 2.133417 1_556
Mo3 O4 2.133994 1_565
Mo3 O22 2.161514 1_556
O0 P1 1.539903 1_655
O1 P5 1.539903 1_565
O2 P0 1.547820 1_555
O3 P0 1.557519 1_555
O4 P5 1.539055 1_455
O5 P1 1.539055 1_545
O6 P4 1.546066 1_555
O7 P4 1.558192 1_555
O8 P4 1.561390 1_555
O9 P5 1.576195 1_555
O10 P4 1.526770 1_556
O11 P3 1.546066 1_555
O12 P3 1.558192 1_555
O13 P3 1.561390 1_555
O14 P2 1.525373 1_555
O15 P5 1.573967 1_555
O16 P1 1.576195 1_555
O17 P3 1.526770 1_555
O18 P2 1.561687 1_555
O19 P2 1.557519 1_555
O20 P2 1.547820 1_555
O21 P0 1.525373 1_554
O22 P1 1.573967 1_555
O23 P0 1.561687 1_555
