# generated using pymatgen
data_MgZn(NiO2)4
_symmetry_space_group_name_H-M   'P 1'
_cell_length_a   5.98325127
_cell_length_b   6.09038751
_cell_length_c   6.09652636
_cell_angle_alpha   55.63471012
_cell_angle_beta   58.44940770
_cell_angle_gamma   58.47797611
_symmetry_Int_Tables_number   1
_chemical_formula_structural   MgZn(NiO2)4
_chemical_formula_sum   'Mg1 Zn1 Ni4 O8'
_cell_volume   147.87867702
_cell_formula_units_Z   1
loop_
 _symmetry_equiv_pos_site_id
 _symmetry_equiv_pos_as_xyz
  1  'x, y, z'
loop_
 _atom_site_type_symbol
 _atom_site_label
 _atom_site_symmetry_multiplicity
 _atom_site_fract_x
 _atom_site_fract_y
 _atom_site_fract_z
 _atom_site_occupancy
  Mg  Mg0  1  0.12017200  0.15869000  0.15611800  1
  Zn  Zn0  1  0.49947500  0.49847000  0.49797300  1
  Ni  Ni0  1  0.51001400  0.99803400  0.50281200  1
  Ni  Ni1  1  0.99414400  0.50698900  0.50712900  1
  Ni  Ni2  1  0.51002500  0.50229800  0.99836900  1
  Ni  Ni3  1  0.99590100  0.96215700  0.96278200  1
  O  O0  1  0.76416800  0.28285900  0.73570600  1
  O  O1  1  0.22728700  0.25551400  0.74250900  1
  O  O2  1  0.22734800  0.74319500  0.25491300  1
  O  O3  1  0.71565200  0.25554900  0.25427900  1
  O  O4  1  0.25635000  0.28399800  0.28348000  1
  O  O5  1  0.75572500  0.71951600  0.72084400  1
  O  O6  1  0.30554200  0.74337600  0.74517400  1
  O  O7  1  0.76402700  0.73519300  0.28374500  1
loop_
_geom_bond_atom_site_label_1
_geom_bond_atom_site_label_2
_geom_bond_distance
_geom_bond_site_symmetry_2
Mg0 O4 1.957162 1_555
Mg0 O3 1.988462 1_455
Mg0 O1 2.035222 1_554
Mg0 O2 2.040654 1_545
Ni0 O6 1.894903 1_555
Ni0 O3 1.911408 1_565
Ni0 O5 1.922896 1_555
Ni0 O4 1.963547 1_565
Ni0 O7 2.097983 1_555
Ni0 O1 2.163885 1_565
Ni1 O5 1.853658 1_555
Ni1 O7 1.872577 1_555
Ni1 O0 1.873109 1_555
Ni1 O1 1.931448 1_655
Ni1 O2 1.933184 1_655
Ni1 O4 1.946487 1_655
Ni2 O6 1.890706 1_555
Ni2 O3 1.906492 1_556
Ni2 O5 1.917736 1_555
Ni2 O4 1.957783 1_556
Ni2 O0 2.098922 1_555
Ni2 O2 2.164909 1_556
Ni3 O7 1.942982 1_556
Ni3 O0 1.943774 1_565
Ni3 O6 1.951926 1_655
Ni3 O2 2.199244 1_656
Ni3 O1 2.200993 1_665
O0 Zn0 2.100487 1_555
O1 Zn0 2.133751 1_555
O2 Zn0 2.135953 1_555
O3 Zn0 2.130395 1_555
O6 Zn0 2.177241 1_555
O7 Zn0 2.094503 1_555
