# generated using pymatgen
data_MgCo4(SbO6)2
_symmetry_space_group_name_H-M   'P 1'
_cell_length_a   5.19819518
_cell_length_b   5.27142923
_cell_length_c   10.19386774
_cell_angle_alpha   90.51654043
_cell_angle_beta   90.75219882
_cell_angle_gamma   59.00846947
_symmetry_Int_Tables_number   1
_chemical_formula_structural   MgCo4(SbO6)2
_chemical_formula_sum   'Mg1 Co4 Sb2 O12'
_cell_volume   239.43365163
_cell_formula_units_Z   1
loop_
 _symmetry_equiv_pos_site_id
 _symmetry_equiv_pos_as_xyz
  1  'x, y, z'
loop_
 _atom_site_type_symbol
 _atom_site_label
 _atom_site_symmetry_multiplicity
 _atom_site_fract_x
 _atom_site_fract_y
 _atom_site_fract_z
 _atom_site_occupancy
  Mg  Mg0  1  0.50577700  0.64893000  0.74920200  1
  Co  Co0  1  0.32567000  0.34236600  0.00364400  1
  Co  Co1  1  0.34046500  0.82588800  0.47247100  1
  Co  Co2  1  0.66620700  0.17068700  0.50198100  1
  Co  Co3  1  0.66375100  0.67052700  0.00460300  1
  Sb  Sb0  1  0.00139900  0.00063800  0.00654600  1
  Sb  Sb1  1  0.99990500  0.50009200  0.50278900  1
  O  O0  1  0.99588500  0.16354800  0.59621000  1
  O  O1  1  0.00031400  0.34339300  0.09590500  1
  O  O2  1  0.99680700  0.65788100  0.90757000  1
  O  O3  1  0.33934400  0.96151200  0.89221400  1
  O  O4  1  0.97709000  0.84487200  0.40774400  1
  O  O5  1  0.34859900  0.17766300  0.40528600  1
  O  O6  1  0.34828800  0.49797200  0.60172800  1
  O  O7  1  0.34972900  0.67580700  0.10265300  1
  O  O8  1  0.64721100  0.00769400  0.09132900  1
  O  O9  1  0.65590400  0.35601500  0.90350900  1
  O  O10  1  0.67177600  0.51627500  0.39177900  1
  O  O11  1  0.66588100  0.80490700  0.61283700  1
loop_
_geom_bond_atom_site_label_1
_geom_bond_atom_site_label_2
_geom_bond_distance
_geom_bond_site_symmetry_2
Mg0 O11 2.014130 1_555
Mg0 O3 2.027468 1_555
Mg0 O6 2.044615 1_555
Mg0 O9 2.058669 1_555
Co0 O8 1.912480 1_555
Co0 O2 1.924883 1_454
Co0 O1 1.943497 1_555
Co0 O9 2.041677 1_554
Co0 O7 2.077239 1_555
Co0 O3 2.267158 1_544
Co1 O10 1.850603 1_555
Co1 O4 1.946047 1_455
Co1 O5 2.003468 1_565
Co1 O11 2.160484 1_555
Co1 O6 2.166351 1_555
Co1 O0 2.168686 1_465
Co2 O5 1.895815 1_555
Co2 O4 1.907069 1_545
Co2 O0 1.937002 1_555
Co2 O6 1.953922 1_555
Co2 O10 2.161860 1_555
Co2 O11 2.244463 1_545
Co3 O7 1.913086 1_555
Co3 O8 1.940168 1_565
Co3 O1 1.944239 1_655
Co3 O3 1.956094 1_554
Co3 O9 1.962176 1_554
Co3 O2 1.976140 1_554
O0 Sb1 2.030722 1_555
O1 Sb0 2.013534 1_555
O2 Sb0 2.072210 1_666
O3 Sb0 2.040392 1_566
O4 Sb1 2.015636 1_555
O5 Sb1 2.001597 1_455
O6 Sb1 2.056291 1_455
O7 Sb0 1.990271 1_565
O8 Sb0 2.027019 1_655
O9 Sb0 2.087885 1_656
O10 Sb1 1.999600 1_555
O11 Sb1 2.000155 1_555
