# generated using pymatgen
data_Na4CaTiSi2SO12
_symmetry_space_group_name_H-M   'P 1'
_cell_length_a   9.44202702
_cell_length_b   9.36104629
_cell_length_c   22.44764971
_cell_angle_alpha   92.37874067
_cell_angle_beta   90.00000000
_cell_angle_gamma   120.28658181
_symmetry_Int_Tables_number   1
_chemical_formula_structural   Na4CaTiSi2SO12
_chemical_formula_sum   'Na24 Ca6 Ti6 Si12 S6 O72'
_cell_volume   1711.30526044
_cell_formula_units_Z   6
loop_
 _symmetry_equiv_pos_site_id
 _symmetry_equiv_pos_as_xyz
  1  'x, y, z'
loop_
 _atom_site_type_symbol
 _atom_site_label
 _atom_site_symmetry_multiplicity
 _atom_site_fract_x
 _atom_site_fract_y
 _atom_site_fract_z
 _atom_site_occupancy
  Na  Na0  1  0.65170746  0.02273420  0.25349979  1
  Na  Na1  1  0.36565135  0.35718660  0.24605406  1
  Na  Na2  1  0.99010529  0.62148482  0.24070184  1
  Na  Na3  1  0.63137953  0.62148482  0.74070184  1
  Na  Na4  1  0.99153524  0.35718660  0.74605406  1
  Na  Na5  1  0.37102674  0.02273420  0.75349979  1
  Na  Na6  1  0.31837446  0.35606720  0.58683279  1
  Na  Na7  1  0.03231835  0.69051960  0.57938706  1
  Na  Na8  1  0.65677229  0.95481782  0.57403484  1
  Na  Na9  1  0.29804653  0.95481782  0.07403484  1
  Na  Na10  1  0.65820224  0.69051960  0.07938706  1
  Na  Na11  1  0.03769374  0.35606720  0.08683279  1
  Na  Na12  1  0.98504046  0.68940120  0.92016679  1
  Na  Na13  1  0.69898435  0.02385360  0.91272106  1
  Na  Na14  1  0.32343829  0.28815182  0.90736884  1
  Na  Na15  1  0.96471253  0.28815182  0.40736884  1
  Na  Na16  1  0.32486824  0.02385360  0.41272106  1
  Na  Na17  1  0.70435974  0.68940120  0.42016679  1
  Na  Na18  1  0.98245988  0.98248121  0.49662952  1
  Na  Na19  1  0.00002134  0.98248121  0.99662952  1
  Na  Na20  1  0.64912688  0.31581421  0.82996252  1
  Na  Na21  1  0.66668834  0.31581421  0.32996252  1
  Na  Na22  1  0.31579288  0.64914821  0.16329652  1
  Na  Na23  1  0.33335434  0.64914821  0.66329652  1
  Ca  Ca0  1  0.99921696  0.00124260  0.34842908  1
  Ca  Ca1  1  0.00202565  0.00124260  0.84842908  1
  Ca  Ca2  1  0.66588396  0.33457560  0.68176208  1
  Ca  Ca3  1  0.66869265  0.33457560  0.18176208  1
  Ca  Ca4  1  0.33254996  0.66790960  0.01509608  1
  Ca  Ca5  1  0.33535865  0.66790960  0.51509608  1
  Ti  Ti0  1  0.97500075  0.01657774  0.64762953  1
  Ti  Ti1  1  0.04157699  0.01657774  0.14762953  1
  Ti  Ti2  1  0.64166775  0.34991074  0.98096253  1
  Ti  Ti3  1  0.70824399  0.34991074  0.48096253  1
  Ti  Ti4  1  0.30833375  0.68324474  0.31429653  1
  Ti  Ti5  1  0.37490999  0.68324474  0.81429653  1
  Si  Si0  1  0.30219141  0.99830795  0.25346875  1
  Si  Si1  1  0.01167846  0.30276142  0.25273756  1
  Si  Si2  1  0.29108296  0.30276142  0.75273756  1
  Si  Si3  1  0.69611655  0.99830795  0.75346875  1
  Si  Si4  1  0.96885841  0.33164095  0.58680175  1
  Si  Si5  1  0.67834546  0.63609442  0.58607056  1
  Si  Si6  1  0.95774996  0.63609442  0.08607056  1
  Si  Si7  1  0.36278355  0.33164095  0.08680175  1
  Si  Si8  1  0.63552441  0.66497495  0.92013575  1
  Si  Si9  1  0.34501146  0.96942842  0.91940456  1
  Si  Si10  1  0.62441596  0.96942842  0.41940456  1
  Si  Si11  1  0.02944955  0.66497495  0.42013575  1
  S  S0  1  0.69400151  0.70606972  0.24865803  1
  S  S1  1  0.01206821  0.70606972  0.74865803  1
  S  S2  1  0.36066851  0.03940272  0.58199103  1
  S  S3  1  0.67873521  0.03940272  0.08199103  1
  S  S4  1  0.02733451  0.37273672  0.91532503  1
  S  S5  1  0.34540121  0.37273672  0.41532503  1
  O  O0  1  0.22324847  0.02299721  0.31243533  1
  O  O1  1  0.78771241  0.78086266  0.30477003  1
  O  O2  1  0.97554407  0.19855179  0.31088704  1
  O  O3  1  0.22300772  0.19855179  0.81088704  1
  O  O4  1  0.99315025  0.78086266  0.80477003  1
  O  O5  1  0.79974875  0.02299721  0.81243533  1
  O  O6  1  0.79771904  0.97743754  0.69291108  1
  O  O7  1  0.15360250  0.18935865  0.69402714  1
  O  O8  1  0.02441052  0.80719697  0.69704205  1
  O  O9  1  0.78278645  0.80719697  0.19704205  1
  O  O10  1  0.03575615  0.18935865  0.19402714  1
  O  O11  1  0.17971850  0.97743754  0.19291108  1
  O  O12  1  0.88991547  0.35633021  0.64576833  1
  O  O13  1  0.45437941  0.11419566  0.63810303  1
  O  O14  1  0.64221107  0.53188479  0.64422004  1
  O  O15  1  0.88967472  0.53188479  0.14422004  1
  O  O16  1  0.65981725  0.11419566  0.13810303  1
  O  O17  1  0.46641575  0.35633021  0.14576833  1
  O  O18  1  0.46438604  0.31077054  0.02624408  1
  O  O19  1  0.82026950  0.52269165  0.02736014  1
  O  O20  1  0.69107752  0.14052997  0.03037505  1
  O  O21  1  0.44945345  0.14052997  0.53037505  1
  O  O22  1  0.70242315  0.52269165  0.52736014  1
  O  O23  1  0.84638550  0.31077054  0.52624408  1
  O  O24  1  0.55658147  0.68966421  0.97910233  1
  O  O25  1  0.12104541  0.44752966  0.97143703  1
  O  O26  1  0.30887707  0.86521879  0.97755404  1
  O  O27  1  0.55634072  0.86521879  0.47755404  1
  O  O28  1  0.32648325  0.44752966  0.47143703  1
  O  O29  1  0.13308175  0.68966421  0.47910233  1
  O  O30  1  0.13105204  0.64410454  0.35957808  1
  O  O31  1  0.48693550  0.85602565  0.36069414  1
  O  O32  1  0.35774352  0.47386397  0.36370905  1
  O  O33  1  0.11611945  0.47386397  0.86370905  1
  O  O34  1  0.36908915  0.85602565  0.86069414  1
  O  O35  1  0.51305150  0.64410454  0.85957808  1
  O  O36  1  0.99146558  0.81314129  0.41395942  1
  O  O37  1  0.80902644  0.00342646  0.41134380  1
  O  O38  1  0.20012499  0.20344736  0.41132141  1
  O  O39  1  0.00332237  0.20344736  0.91132141  1
  O  O40  1  0.19440001  0.00342646  0.91134380  1
  O  O41  1  0.82167571  0.81314129  0.91395942  1
  O  O42  1  0.96216494  0.14643253  0.58767896  1
  O  O43  1  0.19686349  0.02979702  0.58425999  1
  O  O44  1  0.85936944  0.81850427  0.59155558  1
  O  O45  1  0.95913482  0.81850427  0.09155558  1
  O  O46  1  0.83293353  0.02979702  0.08425999  1
  O  O47  1  0.18426759  0.14643253  0.08767896  1
  O  O48  1  0.65813258  0.14647429  0.74729242  1
  O  O49  1  0.47569344  0.33675946  0.74467680  1
  O  O50  1  0.86679199  0.53678036  0.74465441  1
  O  O51  1  0.66998937  0.53678036  0.24465441  1
  O  O52  1  0.86106701  0.33675946  0.24467680  1
  O  O53  1  0.48834271  0.14647429  0.24729242  1
  O  O54  1  0.62883194  0.47976553  0.92101196  1
  O  O55  1  0.86353049  0.36313002  0.91759299  1
  O  O56  1  0.52603644  0.15183727  0.92488858  1
  O  O57  1  0.62580182  0.15183727  0.42488858  1
  O  O58  1  0.49960053  0.36313002  0.41759299  1
  O  O59  1  0.85093459  0.47976553  0.42101196  1
  O  O60  1  0.32479858  0.47980829  0.08062642  1
  O  O61  1  0.14235944  0.67009346  0.07801080  1
  O  O62  1  0.53345799  0.87011436  0.07798841  1
  O  O63  1  0.33665537  0.87011436  0.57798841  1
  O  O64  1  0.52773301  0.67009346  0.57801080  1
  O  O65  1  0.15500871  0.47980829  0.58062642  1
  O  O66  1  0.29549794  0.81309953  0.25434596  1
  O  O67  1  0.53019649  0.69646402  0.25092699  1
  O  O68  1  0.19270244  0.48517127  0.25822258  1
  O  O69  1  0.29246782  0.48517127  0.75822258  1
  O  O70  1  0.16626653  0.69646402  0.75092699  1
  O  O71  1  0.51760059  0.81309953  0.75434596  1
loop_
_geom_bond_atom_site_label_1
_geom_bond_atom_site_label_2
_geom_bond_distance
_geom_bond_site_symmetry_2
Na0 O53 2.357124 1_555
Na0 O52 2.602935 1_555
Na0 O67 2.664371 1_545
Na0 O16 2.750813 1_555
Na0 O2 2.909582 1_555
Na0 O31 2.916972 1_545
Na0 O66 2.917055 1_545
Na1 O17 2.445254 1_555
Na1 O68 2.474435 1_555
Na1 O51 2.493262 1_555
Na1 O67 2.739856 1_555
Na1 O53 2.746426 1_555
Na1 O32 2.831364 1_555
Na1 O10 2.906260 1_555
Na2 O15 2.310915 1_555
Na2 O52 2.310984 1_555
Na2 O66 2.522572 1_655
Na2 O51 2.713085 1_555
Na2 O68 2.818864 1_655
Na2 O30 2.933537 1_655
Na3 O14 2.310917 1_555
Na3 O49 2.310984 1_555
Na3 O71 2.522579 1_555
Na3 O50 2.713094 1_555
Na3 O69 2.818872 1_555
Na3 O35 2.933541 1_555
Na4 O12 2.445250 1_555
Na4 O69 2.474427 1_655
Na4 O50 2.493254 1_555
Na4 O70 2.739856 1_655
Na4 O48 2.746419 1_555
Na4 O33 2.831362 1_655
Na4 O7 2.906260 1_655
Na5 O48 2.357132 1_555
Na5 O49 2.602933 1_555
Na5 O70 2.664372 1_545
Na5 O13 2.750814 1_555
Na5 O3 2.909582 1_555
Na5 O34 2.916970 1_545
Na5 O71 2.917047 1_545
Na6 O65 2.357138 1_555
Na6 O64 2.602937 1_555
Na6 O43 2.664371 1_555
Na6 O28 2.750796 1_555
Na6 O14 2.909582 1_555
Na6 O7 2.916972 1_555
Na6 O42 2.917055 1_455
Na7 O29 2.445228 1_555
Na7 O44 2.474435 1_455
Na7 O63 2.493254 1_555
Na7 O43 2.739856 1_565
Na7 O65 2.746411 1_555
Na7 O8 2.831364 1_555
Na7 O22 2.906260 1_455
Na8 O27 2.310895 1_555
Na8 O64 2.310977 1_555
Na8 O42 2.522572 1_565
Na8 O63 2.713098 1_555
Na8 O44 2.818864 1_555
Na8 O6 2.933537 1_555
Na9 O26 2.310891 1_554
Na9 O61 2.310978 1_555
Na9 O47 2.522579 1_565
Na9 O62 2.713079 1_555
Na9 O45 2.818872 1_455
Na9 O11 2.933541 1_555
Na10 O24 2.445235 1_554
Na10 O45 2.474427 1_555
Na10 O62 2.493270 1_555
Na10 O46 2.739856 1_565
Na10 O60 2.746426 1_555
Na10 O9 2.831362 1_555
Na10 O19 2.906260 1_555
Na11 O60 2.357121 1_555
Na11 O61 2.602941 1_555
Na11 O46 2.664372 1_455
Na11 O25 2.750794 1_554
Na11 O15 2.909582 1_455
Na11 O10 2.916970 1_555
Na11 O47 2.917047 1_555
Na12 O41 2.357124 1_555
Na12 O40 2.602935 1_665
Na12 O55 2.664381 1_555
Na12 O4 2.750813 1_555
Na12 O26 2.909582 1_655
Na12 O19 2.916953 1_556
Na12 O54 2.917047 1_555
Na13 O5 2.445254 1_555
Na13 O56 2.474417 1_555
Na13 O39 2.493262 1_655
Na13 O55 2.739848 1_555
Na13 O41 2.746426 1_545
Na13 O20 2.831338 1_556
Na13 O34 2.906260 1_545
Na14 O3 2.310915 1_555
Na14 O40 2.310984 1_555
Na14 O54 2.522576 1_555
Na14 O39 2.713085 1_555
Na14 O56 2.818876 1_555
Na14 O18 2.933523 1_556
Na15 O2 2.310917 1_555
Na15 O37 2.310984 1_555
Na15 O59 2.522561 1_555
Na15 O38 2.713094 1_655
Na15 O57 2.818859 1_555
Na15 O23 2.933515 1_555
Na16 O0 2.445250 1_555
Na16 O57 2.474434 1_555
Na16 O38 2.493254 1_555
Na16 O58 2.739849 1_555
Na16 O36 2.746419 1_445
Na16 O21 2.831342 1_555
Na16 O31 2.906260 1_545
Na17 O36 2.357132 1_555
Na17 O37 2.602933 1_565
Na17 O58 2.664378 1_555
Na17 O1 2.750814 1_555
Na17 O27 2.909582 1_555
Na17 O22 2.916958 1_555
Na17 O59 2.917063 1_555
Na18 O36 2.419847 1_555
Na18 O42 2.570167 1_565
Na18 O44 2.592227 1_555
Na18 O37 2.596198 1_565
Na18 O43 2.680882 1_665
Na18 O38 2.865385 1_665
Na19 O41 2.419847 1_455
Na19 O47 2.570167 1_566
Na19 O45 2.592227 1_456
Na19 O40 2.596197 1_565
Na19 O46 2.680882 1_466
Na19 O39 2.865385 1_565
Na20 O48 2.419847 1_555
Na20 O54 2.570167 1_555
Na20 O56 2.592227 1_555
Na20 O49 2.596198 1_555
Na20 O55 2.680882 1_555
Na20 O50 2.865385 1_555
Na21 O53 2.419847 1_555
Na21 O59 2.570167 1_555
Na21 O57 2.592227 1_555
Na21 O52 2.596197 1_555
Na21 O58 2.680882 1_555
Na21 O51 2.865385 1_555
Na22 O60 2.419847 1_555
Na22 O66 2.570167 1_555
Na22 O68 2.592227 1_555
Na22 O61 2.596198 1_555
Na22 O67 2.680882 1_555
Na22 O62 2.865385 1_555
Na23 O65 2.419847 1_555
Na23 O71 2.570167 1_555
Na23 O69 2.592227 1_555
Na23 O64 2.596197 1_555
Na23 O70 2.680882 1_555
Na23 O63 2.865385 1_555
Ca0 O2 2.171927 1_555
Ca0 O0 2.178990 1_655
Ca0 O1 2.209347 1_545
Ca0 O37 2.292258 1_555
Ca0 O38 2.308887 1_655
Ca0 O36 2.314029 1_545
Ca1 O3 2.171927 1_555
Ca1 O5 2.178990 1_455
Ca1 O4 2.209347 1_445
Ca1 O40 2.292258 1_555
Ca1 O39 2.308887 1_555
Ca1 O41 2.314029 1_445
Ca2 O14 2.171927 1_555
Ca2 O12 2.178990 1_555
Ca2 O13 2.209347 1_555
Ca2 O49 2.292258 1_555
Ca2 O50 2.308887 1_555
Ca2 O48 2.314029 1_555
Ca3 O15 2.171927 1_555
Ca3 O17 2.178990 1_555
Ca3 O16 2.209347 1_555
Ca3 O52 2.292258 1_555
Ca3 O51 2.308887 1_555
Ca3 O53 2.314029 1_555
Ca4 O26 2.171927 1_554
Ca4 O24 2.178990 1_554
Ca4 O25 2.209347 1_554
Ca4 O61 2.292258 1_555
Ca4 O62 2.308887 1_555
Ca4 O60 2.314029 1_555
Ca5 O27 2.171927 1_555
Ca5 O29 2.178990 1_555
Ca5 O28 2.209347 1_555
Ca5 O64 2.292258 1_555
Ca5 O63 2.308887 1_555
Ca5 O65 2.314029 1_555
O0 Si0 1.584126 1_545
O1 S0 1.470234 1_555
O2 Si1 1.594327 1_655
O3 Si2 1.594327 1_555
O4 S1 1.470234 1_655
O5 Si3 1.584126 1_545
O6 Si3 1.724354 1_555
O6 Ti0 1.838936 1_565
O7 Si2 1.744360 1_555
O7 Ti0 1.911445 1_455
O8 S1 1.493989 1_555
O8 Ti0 2.528327 1_465
O9 S0 1.493989 1_555
O9 Ti1 2.528327 1_665
O10 Si1 1.744360 1_555
O10 Ti1 1.911445 1_555
O11 Si0 1.724354 1_555
O11 Ti1 1.838936 1_565
O12 Si4 1.584126 1_555
O13 S2 1.470234 1_555
O14 Si5 1.594327 1_555
O15 Si6 1.594327 1_555
O16 S3 1.470234 1_555
O17 Si7 1.584126 1_555
O18 Si7 1.724354 1_555
O18 Ti2 1.838936 1_554
O19 Si6 1.744360 1_555
O19 Ti2 1.911445 1_554
O20 S3 1.493989 1_555
O20 Ti2 2.528327 1_554
O21 S2 1.493989 1_555
O21 Ti3 2.528327 1_555
O22 Si5 1.744360 1_555
O22 Ti3 1.911445 1_555
O23 Si4 1.724354 1_555
O23 Ti3 1.838936 1_555
O24 Si8 1.584126 1_555
O25 S4 1.470234 1_555
O26 Si9 1.594327 1_555
O27 Si10 1.594327 1_555
O28 S5 1.470234 1_555
O29 Si11 1.584126 1_555
O30 Si11 1.724354 1_555
O30 Ti4 1.838936 1_555
O31 Si10 1.744360 1_555
O31 Ti4 1.911445 1_555
O32 S5 1.493989 1_555
O32 Ti4 2.528327 1_555
O33 S4 1.493989 1_555
O33 Ti5 2.528327 1_555
O34 Si9 1.744360 1_555
O34 Ti5 1.911445 1_555
O35 Si8 1.724354 1_555
O35 Ti5 1.838936 1_555
O36 Si11 1.609130 1_655
O37 Si10 1.617914 1_545
O38 S5 1.482093 1_555
O39 S4 1.482097 1_555
O40 Si9 1.617904 1_545
O41 Si8 1.609136 1_555
O42 Si4 1.703692 1_555
O42 Ti0 1.894135 1_555
O43 S2 1.504298 1_555
O43 Ti0 2.486017 1_455
O44 Si5 1.700311 1_555
O44 Ti0 1.994680 1_565
O45 Si6 1.700316 1_555
O45 Ti1 1.994680 1_665
O46 S3 1.504289 1_555
O46 Ti1 2.486017 1_655
O47 Si7 1.703696 1_555
O47 Ti1 1.894135 1_555
O48 Si3 1.609130 1_545
O49 Si2 1.617914 1_555
O50 S1 1.482093 1_655
O51 S0 1.482097 1_555
O52 Si1 1.617904 1_655
O53 Si0 1.609136 1_545
O54 Si8 1.703704 1_555
O54 Ti2 1.894135 1_555
O55 S4 1.504284 1_655
O55 Ti2 2.486017 1_555
O56 Si9 1.700311 1_545
O56 Ti2 1.994680 1_555
O57 Si10 1.700301 1_545
O57 Ti3 1.994680 1_555
O58 S5 1.504303 1_555
O58 Ti3 2.486017 1_555
O59 Si11 1.703696 1_655
O59 Ti3 1.894135 1_555
O60 Si7 1.609143 1_555
O61 Si6 1.617898 1_455
O62 S3 1.482091 1_565
O63 S2 1.482083 1_565
O64 Si5 1.617917 1_555
O65 Si4 1.609130 1_455
O66 Si0 1.703692 1_555
O66 Ti4 1.894135 1_555
O67 S0 1.504298 1_555
O67 Ti4 2.486017 1_555
O68 Si1 1.700311 1_555
O68 Ti4 1.994680 1_555
O69 Si2 1.700316 1_555
O69 Ti5 1.994680 1_555
O70 S1 1.504289 1_555
O70 Ti5 2.486017 1_555
O71 Si3 1.703696 1_555
O71 Ti5 1.894135 1_555
