# generated using pymatgen
data_Na14In4Si9Ge4(SO16)3
_symmetry_space_group_name_H-M   'P 1'
_cell_length_a   18.08678036
_cell_length_b   9.00907410
_cell_length_c   22.10135956
_cell_angle_alpha   89.99829108
_cell_angle_beta   88.88179177
_cell_angle_gamma   120.00706335
_symmetry_Int_Tables_number   1
_chemical_formula_structural   Na14In4Si9Ge4(SO16)3
_chemical_formula_sum   'Na42 In12 Si27 Ge12 S9 O144'
_cell_volume   3117.81004978
_cell_formula_units_Z   3
loop_
 _symmetry_equiv_pos_site_id
 _symmetry_equiv_pos_as_xyz
  1  'x, y, z'
loop_
 _atom_site_type_symbol
 _atom_site_label
 _atom_site_symmetry_multiplicity
 _atom_site_fract_x
 _atom_site_fract_y
 _atom_site_fract_z
 _atom_site_occupancy
  Na  Na0  1  0.82293024  0.01658377  0.25613707  1
  Na  Na1  1  0.17778359  0.35648849  0.25669242  1
  Na  Na2  1  0.69219566  0.37239245  0.25542340  1
  Na  Na3  1  0.99952203  0.62917144  0.24744178  1
  Na  Na4  1  0.49759570  0.63405509  0.25052865  1
  Na  Na5  1  0.32113607  0.62696548  0.75102283  1
  Na  Na6  1  0.99533744  0.35753259  0.74000556  1
  Na  Na7  1  0.50146069  0.37255745  0.74293623  1
  Na  Na8  1  0.19061801  0.00968357  0.75023409  1
  Na  Na9  1  0.68128316  0.00328185  0.74836426  1
  Na  Na10  1  0.14725892  0.32264461  0.57903076  1
  Na  Na11  1  0.65716047  0.32936064  0.58152672  1
  Na  Na12  1  0.33641856  0.98464999  0.58770745  1
  Na  Na13  1  0.83393486  0.97318527  0.58342413  1
  Na  Na14  1  0.15196292  0.97765009  0.07760177  1
  Na  Na15  1  0.65078954  0.97255082  0.07666849  1
  Na  Na16  1  0.33250661  0.69379944  0.08040771  1
  Na  Na17  1  0.83652481  0.69000017  0.08862528  1
  Na  Na18  1  0.47680270  0.66972453  0.91702688  1
  Na  Na19  1  0.97555154  0.67518208  0.92318603  1
  Na  Na20  1  0.34780286  0.03148714  0.90645762  1
  Na  Na21  1  0.84869106  0.03315305  0.90927192  1
  Na  Na22  1  0.17303808  0.29344527  0.90812714  1
  Na  Na23  1  0.66829268  0.28143845  0.91051610  1
  Na  Na24  1  0.47931442  0.28390403  0.42739412  1
  Na  Na25  1  0.97619727  0.28046958  0.42155996  1
  Na  Na26  1  0.16781638  0.05676425  0.41470900  1
  Na  Na27  1  0.67386784  0.05088151  0.41606423  1
  Na  Na28  1  0.35035953  0.66665814  0.41399039  1
  Na  Na29  1  0.84990071  0.66562875  0.41938784  1
  Na  Na30  1  0.99761353  0.99109211  0.50355615  1
  Na  Na31  1  0.50619505  0.00560180  0.50714394  1
  Na  Na32  1  0.00313370  0.00164621  0.00487825  1
  Na  Na33  1  0.50280550  0.00210843  0.00046395  1
  Na  Na34  1  0.33008358  0.33773877  0.82687670  1
  Na  Na35  1  0.82260680  0.33589549  0.82626458  1
  Na  Na36  1  0.32339340  0.30857284  0.33188682  1
  Na  Na37  1  0.83000168  0.32321678  0.33226884  1
  Na  Na38  1  0.15764873  0.65545383  0.16567257  1
  Na  Na39  1  0.66486629  0.65831441  0.16618672  1
  Na  Na40  1  0.16304714  0.67060645  0.66369990  1
  Na  Na41  1  0.66279725  0.66239360  0.66526069  1
  In  In0  1  0.00478509  0.01639289  0.35116794  1
  In  In1  1  0.49955994  0.00493050  0.35283327  1
  In  In2  1  0.99700259  0.99435446  0.84946776  1
  In  In3  1  0.50421994  0.99244592  0.85000071  1
  In  In4  1  0.33571052  0.32319883  0.68049685  1
  In  In5  1  0.83585909  0.34774972  0.18134501  1
  In  In6  1  0.32543689  0.33184854  0.98646397  1
  In  In7  1  0.82173526  0.33893040  0.98540801  1
  In  In8  1  0.32504810  0.30889087  0.48522052  1
  In  In9  1  0.82715399  0.33039819  0.48935304  1
  In  In10  1  0.67675087  0.68081401  0.31469975  1
  In  In11  1  0.17506145  0.67102210  0.81062966  1
  Si  Si0  1  0.15908040  0.00573197  0.24931124  1
  Si  Si1  1  0.64618030  0.99595033  0.24989786  1
  Si  Si2  1  0.35662615  0.71229948  0.24786027  1
  Si  Si3  1  0.86038083  0.72039226  0.24880920  1
  Si  Si4  1  0.00452006  0.30026005  0.25304328  1
  Si  Si5  1  0.14211407  0.28753486  0.74720887  1
  Si  Si6  1  0.65769859  0.31329422  0.75139404  1
  Si  Si7  1  0.50426644  0.70925647  0.75338510  1
  Si  Si8  1  0.35983593  0.00010734  0.74875285  1
  Si  Si9  1  0.85570098  0.01211664  0.74780879  1
  Si  Si10  1  0.48938958  0.33353850  0.58215432  1
  Si  Si11  1  0.98179949  0.34079971  0.58364890  1
  Si  Si12  1  0.17376773  0.01572845  0.58393733  1
  Si  Si13  1  0.67675395  0.01842314  0.58442937  1
  Si  Si14  1  0.84099568  0.63231112  0.58455549  1
  Si  Si15  1  0.48088460  0.62327836  0.08452954  1
  Si  Si16  1  0.98846919  0.64258908  0.08145259  1
  Si  Si17  1  0.17634905  0.33367647  0.08461804  1
  Si  Si18  1  0.67087949  0.32854356  0.08507785  1
  Si  Si19  1  0.31189035  0.66883447  0.92055966  1
  Si  Si20  1  0.80251267  0.66559859  0.91486305  1
  Si  Si21  1  0.16608498  0.95438068  0.91664347  1
  Si  Si22  1  0.66795647  0.94503453  0.91722616  1
  Si  Si23  1  0.30284641  0.94082976  0.41470011  1
  Si  Si24  1  0.81333864  0.96007991  0.42159743  1
  Si  Si25  1  0.16846276  0.39126851  0.41655029  1
  Si  Si26  1  0.66697002  0.37744473  0.41714357  1
  Ge  Ge0  1  0.99608608  0.01006207  0.64431030  1
  Ge  Ge1  1  0.51735676  0.03005729  0.65810302  1
  Ge  Ge2  1  0.01695294  0.00599354  0.15822665  1
  Ge  Ge3  1  0.50428784  0.98154298  0.14982611  1
  Ge  Ge4  1  0.82477059  0.31253148  0.67671661  1
  Ge  Ge5  1  0.32642123  0.35698445  0.18155663  1
  Ge  Ge6  1  0.16222830  0.66119360  0.01844423  1
  Ge  Ge7  1  0.66070820  0.65693218  0.01939934  1
  Ge  Ge8  1  0.16015062  0.66377455  0.51874275  1
  Ge  Ge9  1  0.67842304  0.66077063  0.52757579  1
  Ge  Ge10  1  0.17975510  0.67521801  0.30535020  1
  Ge  Ge11  1  0.68057066  0.68834820  0.80473195  1
  S  S0  1  0.49307722  0.28678559  0.24688419  1
  S  S1  1  0.99441244  0.69803238  0.74929061  1
  S  S2  1  0.33227567  0.63643718  0.58038337  1
  S  S3  1  0.33579855  0.04227952  0.08464932  1
  S  S4  1  0.83245865  0.02864946  0.08017705  1
  S  S5  1  0.02083611  0.37803876  0.92031285  1
  S  S6  1  0.52468370  0.38181996  0.91777029  1
  S  S7  1  0.02691055  0.66744571  0.41438112  1
  S  S8  1  0.51999645  0.66187863  0.41891293  1
  O  O0  1  0.12691860  0.06386190  0.30934438  1
  O  O1  1  0.61066366  0.04208490  0.31101220  1
  O  O2  1  0.41312360  0.77672482  0.30786266  1
  O  O3  1  0.91375342  0.79494903  0.31037556  1
  O  O4  1  0.48265336  0.20345229  0.30706079  1
  O  O5  1  0.98238200  0.20265392  0.31796108  1
  O  O6  1  0.11028110  0.18184331  0.81179769  1
  O  O7  1  0.62225775  0.19385988  0.81248133  1
  O  O8  1  0.48119982  0.75955052  0.81885405  1
  O  O9  1  0.98538569  0.76083219  0.81038574  1
  O  O10  1  0.40979590  0.02645872  0.81194750  1
  O  O11  1  0.90964700  0.05683377  0.81011361  1
  O  O12  1  0.41404045  0.98118423  0.69036514  1
  O  O13  1  0.90438923  0.98508796  0.69017322  1
  O  O14  1  0.07829760  0.17997867  0.69188388  1
  O  O15  1  0.59251001  0.22804832  0.69400294  1
  O  O16  1  0.00404356  0.81671927  0.70071430  1
  O  O17  1  0.52829887  0.86596333  0.70411919  1
  O  O18  1  0.40376040  0.83261967  0.18719011  1
  O  O19  1  0.91341404  0.84547265  0.18865254  1
  O  O20  1  0.02902945  0.19377510  0.20262273  1
  O  O21  1  0.50190996  0.18610585  0.19734562  1
  O  O22  1  0.09481024  0.96188916  0.19143694  1
  O  O23  1  0.58400228  0.96800792  0.19123461  1
  O  O24  1  0.45006488  0.37060357  0.64221750  1
  O  O25  1  0.93181772  0.36164057  0.64350706  1
  O  O26  1  0.24113151  0.09323480  0.63907959  1
  O  O27  1  0.74624283  0.11332455  0.63968426  1
  O  O28  1  0.32051295  0.53023253  0.63457942  1
  O  O29  1  0.81664566  0.47921315  0.63493165  1
  O  O30  1  0.42934117  0.49842323  0.14402695  1
  O  O31  1  0.95040166  0.52806852  0.14175384  1
  O  O32  1  0.32512380  0.14043319  0.13429248  1
  O  O33  1  0.82062997  0.11049251  0.13444255  1
  O  O34  1  0.24834231  0.38498484  0.13904878  1
  O  O35  1  0.73735415  0.38055707  0.14011205  1
  O  O36  1  0.20791722  0.27130960  0.02558421  1
  O  O37  1  0.70229272  0.26445138  0.02530686  1
  O  O38  1  0.42444752  0.55176409  0.02483861  1
  O  O39  1  0.92583640  0.56208173  0.02290452  1
  O  O40  1  0.34728834  0.13016064  0.02522051  1
  O  O41  1  0.83987786  0.12827087  0.02448521  1
  O  O42  1  0.20680908  0.14188101  0.52388690  1
  O  O43  1  0.70711275  0.14077575  0.52439537  1
  O  O44  1  0.34048140  0.55304324  0.52448980  1
  O  O45  1  0.85947521  0.57618415  0.51890354  1
  O  O46  1  0.42559233  0.28506434  0.52399603  1
  O  O47  1  0.92647529  0.29950779  0.52354468  1
  O  O48  1  0.25786907  0.68378969  0.98089516  1
  O  O49  1  0.75638688  0.68362742  0.97780125  1
  O  O50  1  0.07501449  0.46655472  0.97331510  1
  O  O51  1  0.57446142  0.46581268  0.97330900  1
  O  O52  1  0.15624955  0.83060805  0.97577396  1
  O  O53  1  0.65270525  0.82649935  0.97951368  1
  O  O54  1  0.25583220  0.82745763  0.47665387  1
  O  O55  1  0.75949077  0.83357544  0.48010262  1
  O  O56  1  0.15310059  0.48004228  0.47791561  1
  O  O57  1  0.66056233  0.48294637  0.47612230  1
  O  O58  1  0.07578321  0.68283669  0.47008808  1
  O  O59  1  0.57385404  0.67396223  0.46903199  1
  O  O60  1  0.06826489  0.65223182  0.35839632  1
  O  O61  1  0.55363580  0.64359655  0.35893857  1
  O  O62  1  0.24565661  0.85224144  0.35480399  1
  O  O63  1  0.76014923  0.89728484  0.35879258  1
  O  O64  1  0.17986279  0.50348199  0.35397099  1
  O  O65  1  0.67090285  0.46799138  0.35200044  1
  O  O66  1  0.05736010  0.47246892  0.86313899  1
  O  O67  1  0.56326744  0.48110562  0.86212386  1
  O  O68  1  0.17553354  0.87600442  0.85252432  1
  O  O69  1  0.67931142  0.85410409  0.85581081  1
  O  O70  1  0.25651986  0.62467587  0.85943728  1
  O  O71  1  0.74423959  0.63969622  0.85599897  1
  O  O72  1  0.02136087  0.82712903  0.41485483  1
  O  O73  1  0.51165453  0.81921629  0.42000717  1
  O  O74  1  0.39762174  0.95816623  0.41448897  1
  O  O75  1  0.90442335  0.96143310  0.42242704  1
  O  O76  1  0.08520314  0.19757858  0.41870432  1
  O  O77  1  0.57886608  0.18707694  0.42127291  1
  O  O78  1  0.01380433  0.20662860  0.92093232  1
  O  O79  1  0.51946237  0.21162262  0.91804644  1
  O  O80  1  0.07983443  0.97293546  0.92003670  1
  O  O81  1  0.58464092  0.97105064  0.91924958  1
  O  O82  1  0.40298707  0.84856322  0.92318951  1
  O  O83  1  0.89782036  0.83816333  0.91413434  1
  O  O84  1  0.49930300  0.15990553  0.59177952  1
  O  O85  1  0.99387801  0.16898180  0.59053894  1
  O  O86  1  0.08096849  0.00275907  0.59651053  1
  O  O87  1  0.58409580  0.00722734  0.59903162  1
  O  O88  1  0.40610283  0.80940084  0.58342327  1
  O  O89  1  0.91751958  0.82857239  0.59671926  1
  O  O90  1  0.49032117  0.81851941  0.09141665  1
  O  O91  1  0.99979033  0.83690723  0.09018858  1
  O  O92  1  0.40881020  0.01294455  0.09031943  1
  O  O93  1  0.90640089  0.00396991  0.08258919  1
  O  O94  1  0.08383562  0.16039018  0.09822321  1
  O  O95  1  0.57483228  0.15433008  0.09714457  1
  O  O96  1  0.34568659  0.16496828  0.74819050  1
  O  O97  1  0.84235208  0.18144624  0.73870810  1
  O  O98  1  0.23935229  0.32156396  0.73961020  1
  O  O99  1  0.74839037  0.31645658  0.73710603  1
  O  O100  1  0.42013853  0.52522031  0.74138993  1
  O  O101  1  0.92015517  0.52385362  0.74442767  1
  O  O102  1  0.34398995  0.51472012  0.24056856  1
  O  O103  1  0.84567797  0.52683256  0.24726041  1
  O  O104  1  0.41867833  0.31256282  0.24143812  1
  O  O105  1  0.92085335  0.31612560  0.24103945  1
  O  O106  1  0.25242707  0.18359762  0.23259858  1
  O  O107  1  0.74210629  0.15726269  0.24083721  1
  O  O108  1  0.32573449  0.50269180  0.92243315  1
  O  O109  1  0.81428896  0.49550736  0.91550841  1
  O  O110  1  0.43734653  0.35732324  0.92337676  1
  O  O111  1  0.93491879  0.35909076  0.92658262  1
  O  O112  1  0.25483871  0.14094563  0.92006976  1
  O  O113  1  0.75593271  0.13389509  0.91909241  1
  O  O114  1  0.31471810  0.13419657  0.41518117  1
  O  O115  1  0.82636322  0.15277284  0.42500320  1
  O  O116  1  0.25616488  0.37868444  0.41817020  1
  O  O117  1  0.75385907  0.36382525  0.41746875  1
  O  O118  1  0.43207889  0.50807144  0.42305548  1
  O  O119  1  0.94092603  0.51476485  0.41738218  1
  O  O120  1  0.17360938  0.51280328  0.07651309  1
  O  O121  1  0.66771106  0.50709891  0.07370602  1
  O  O122  1  0.08679558  0.66861350  0.07389474  1
  O  O123  1  0.57933821  0.65730431  0.07979350  1
  O  O124  1  0.25516126  0.87026070  0.08499401  1
  O  O125  1  0.75168933  0.85358612  0.07951721  1
  O  O126  1  0.16981951  0.82993701  0.57258776  1
  O  O127  1  0.67439568  0.83463772  0.57771960  1
  O  O128  1  0.25161859  0.64835983  0.57938450  1
  O  O129  1  0.75171406  0.64610740  0.58299860  1
  O  O130  1  0.08095113  0.50565303  0.57815522  1
  O  O131  1  0.58660785  0.50045267  0.57435787  1
  O  O132  1  0.15944374  0.82431533  0.25510549  1
  O  O133  1  0.64428907  0.81253460  0.25002402  1
  O  O134  1  0.25995405  0.68353668  0.24955464  1
  O  O135  1  0.76712139  0.70912503  0.24408540  1
  O  O136  1  0.09211091  0.49569298  0.25548500  1
  O  O137  1  0.57278983  0.45843271  0.24527863  1
  O  O138  1  0.14131480  0.46940047  0.74749967  1
  O  O139  1  0.65838376  0.49696050  0.75683624  1
  O  O140  1  0.07435106  0.68532966  0.74781082  1
  O  O141  1  0.59164470  0.68954506  0.75626333  1
  O  O142  1  0.26642028  0.82435378  0.74247291  1
  O  O143  1  0.75933417  0.84223190  0.75065267  1
loop_
_geom_bond_atom_site_label_1
_geom_bond_atom_site_label_2
_geom_bond_distance
_geom_bond_site_symmetry_2
Na0 O105 2.393102 1_555
Na0 O107 2.393740 1_555
Na0 O135 2.444641 1_545
Na0 O63 2.504139 1_545
Na0 O133 2.813076 1_545
Na0 O33 2.826829 1_555
Na0 O5 2.883195 1_555
Na1 O136 2.433081 1_555
Na1 O64 2.516165 1_555
Na1 O134 2.554585 1_555
Na1 O106 2.570521 1_555
Na1 O0 2.585099 1_555
Na1 O102 2.620667 1_555
Na1 O20 2.645070 1_555
Na1 O34 2.828027 1_555
Na2 O65 2.397058 1_555
Na2 O103 2.406618 1_555
Na2 O107 2.532544 1_555
Na2 O135 2.641405 1_555
Na2 O137 2.647372 1_555
Na2 O35 2.650702 1_555
Na2 O1 2.842379 1_555
Na3 O105 2.447975 1_555
Na3 O103 2.455006 1_555
Na3 O136 2.511546 1_655
Na3 O31 2.519297 1_555
Na3 O132 2.533528 1_655
Na3 O60 2.731891 1_655
Na3 O22 2.869961 1_655
Na3 O3 2.967308 1_555
Na4 O133 2.314487 1_555
Na4 O102 2.441157 1_555
Na4 O104 2.518485 1_555
Na4 O137 2.551977 1_555
Na4 O61 2.604466 1_555
Na4 O30 2.676268 1_555
Na4 O2 2.735089 1_555
Na4 O23 2.903168 1_555
Na5 O100 2.391390 1_555
Na5 O98 2.401179 1_555
Na5 O142 2.438213 1_555
Na5 O70 2.640871 1_555
Na5 O28 2.715554 1_555
Na5 O138 2.826872 1_555
Na6 O138 2.317263 1_655
Na6 O97 2.405496 1_555
Na6 O25 2.451130 1_555
Na6 O101 2.477218 1_555
Na6 O140 2.565458 1_655
Na6 O11 2.801476 1_555
Na6 O14 2.877464 1_655
Na6 O66 2.948595 1_655
Na7 O24 2.425697 1_555
Na7 O100 2.466072 1_555
Na7 O96 2.483153 1_555
Na7 O139 2.501688 1_555
Na7 O141 2.502483 1_555
Na7 O15 2.766124 1_555
Na7 O67 2.857744 1_555
Na8 O96 2.428165 1_555
Na8 O98 2.498300 1_555
Na8 O68 2.506583 1_545
Na8 O26 2.580880 1_555
Na8 O140 2.611902 1_545
Na8 O142 2.641457 1_545
Na8 O6 2.923244 1_555
Na9 O141 2.460373 1_545
Na9 O99 2.461387 1_555
Na9 O143 2.480329 1_545
Na9 O97 2.531292 1_555
Na9 O17 2.612433 1_545
Na9 O27 2.618667 1_555
Na9 O69 2.719434 1_545
Na9 O7 2.805375 1_555
Na10 O85 2.410046 1_455
Na10 O130 2.477026 1_555
Na10 O86 2.533338 1_555
Na10 O128 2.575681 1_555
Na10 O56 2.618568 1_555
Na10 O42 2.645898 1_555
Na10 O14 2.775551 1_555
Na11 O131 2.450412 1_555
Na11 O84 2.479677 1_555
Na11 O129 2.487920 1_555
Na11 O87 2.542117 1_555
Na11 O43 2.605391 1_555
Na11 O15 2.683073 1_555
Na11 O57 2.693385 1_555
Na11 O29 2.788260 1_555
Na12 O88 2.464929 1_555
Na12 O84 2.556971 1_565
Na12 O26 2.612723 1_565
Na12 O128 2.632184 1_555
Na12 O126 2.640556 1_555
Na12 O12 2.699621 1_555
Na12 O46 2.730212 1_565
Na12 O54 2.868707 1_555
Na13 O89 2.460996 1_555
Na13 O127 2.512369 1_555
Na13 O85 2.533513 1_565
Na13 O129 2.551868 1_555
Na13 O55 2.652503 1_555
Na13 O13 2.679981 1_555
Na13 O27 2.753485 1_565
Na13 O47 2.861353 1_565
Na14 O91 2.395800 1_455
Na14 O122 2.422578 1_555
Na14 O124 2.502944 1_555
Na14 O94 2.538419 1_565
Na14 O36 2.573233 1_565
Na14 O52 2.630945 1_554
Na14 O22 2.677721 1_555
Na15 O123 2.462994 1_555
Na15 O53 2.527066 1_554
Na15 O90 2.527889 1_555
Na15 O125 2.538484 1_555
Na15 O37 2.565206 1_565
Na15 O95 2.645797 1_565
Na15 O23 2.775497 1_555
Na16 O120 2.499643 1_555
Na16 O92 2.502474 1_565
Na16 O90 2.507650 1_555
Na16 O48 2.581053 1_554
Na16 O124 2.591040 1_555
Na16 O18 2.702135 1_555
Na16 O34 2.724707 1_555
Na16 O38 2.821303 1_555
Na17 O93 2.456359 1_565
Na17 O91 2.562747 1_555
Na17 O125 2.615478 1_555
Na17 O19 2.637253 1_555
Na17 O121 2.674625 1_555
Na17 O35 2.683773 1_555
Na17 O39 2.796030 1_555
Na17 O49 2.856375 1_554
Na18 O8 2.301700 1_555
Na18 O108 2.370468 1_555
Na18 O81 2.425672 1_555
Na18 O110 2.537170 1_555
Na18 O82 2.557598 1_555
Na18 O38 2.570791 1_556
Na19 O80 2.385860 1_655
Na19 O39 2.389583 1_556
Na19 O83 2.499648 1_555
Na19 O109 2.540329 1_555
Na19 O111 2.561181 1_555
Na19 O9 2.586038 1_555
Na20 O82 2.346989 1_545
Na20 O112 2.351347 1_555
Na20 O10 2.362574 1_555
Na20 O110 2.578440 1_555
Na20 O79 2.707442 1_555
Na20 O40 2.772630 1_556
Na20 O68 2.978394 1_545
Na21 O113 2.279101 1_555
Na21 O83 2.334967 1_545
Na21 O11 2.394628 1_555
Na21 O111 2.577581 1_555
Na21 O78 2.605595 1_655
Na21 O41 2.713787 1_556
Na21 O69 2.929499 1_545
Na22 O6 2.405190 1_555
Na22 O108 2.471400 1_555
Na22 O112 2.488873 1_555
Na22 O80 2.522434 1_545
Na22 O78 2.588726 1_555
Na22 O36 2.714125 1_556
Na22 O70 2.787888 1_555
Na23 O7 2.328909 1_555
Na23 O109 2.371084 1_555
Na23 O81 2.429529 1_545
Na23 O79 2.440995 1_555
Na23 O113 2.536643 1_555
Na23 O37 2.644450 1_556
Na24 O46 2.330620 1_555
Na24 O77 2.362797 1_555
Na24 O118 2.558625 1_555
Na24 O74 2.560453 1_545
Na24 O114 2.601903 1_555
Na24 O4 2.764001 1_555
Na25 O115 2.355220 1_555
Na25 O5 2.411459 1_555
Na25 O76 2.432383 1_655
Na25 O47 2.448241 1_555
Na25 O75 2.492744 1_545
Na25 O119 2.494001 1_555
Na26 O114 2.386101 1_555
Na26 O76 2.395963 1_555
Na26 O72 2.411451 1_545
Na26 O0 2.467517 1_555
Na26 O116 2.517913 1_555
Na26 O42 2.536431 1_555
Na27 O117 2.442275 1_555
Na27 O115 2.444986 1_555
Na27 O43 2.513797 1_555
Na27 O77 2.563649 1_555
Na27 O1 2.591680 1_555
Na27 O73 2.614720 1_545
Na27 O63 2.834649 1_545
Na28 O116 2.283585 1_555
Na28 O74 2.320087 1_555
Na28 O118 2.527781 1_555
Na28 O73 2.534184 1_555
Na28 O2 2.558059 1_555
Na28 O44 2.616064 1_555
Na29 O75 2.335133 1_555
Na29 O45 2.381420 1_555
Na29 O117 2.385551 1_555
Na29 O119 2.606720 1_555
Na29 O3 2.653560 1_555
Na29 O72 2.686817 1_655
Na30 O75 2.407268 1_555
Na30 O89 2.498766 1_555
Na30 O85 2.524311 1_565
Na30 O76 2.534431 1_665
Na30 O86 2.543032 1_665
Na30 O72 2.609907 1_655
Na31 O84 2.368837 1_555
Na31 O77 2.399074 1_555
Na31 O88 2.433922 1_545
Na31 O87 2.490138 1_555
Na31 O73 2.587819 1_545
Na31 O74 2.747730 1_545
Na32 O91 2.380541 1_445
Na32 O80 2.401015 1_544
Na32 O93 2.435304 1_455
Na32 O94 2.542005 1_555
Na32 O78 2.553253 1_554
Na32 O83 2.676371 1_444
Na33 O82 2.390050 1_544
Na33 O81 2.408632 1_544
Na33 O79 2.526090 1_554
Na33 O90 2.536917 1_545
Na33 O95 2.542732 1_555
Na33 O92 2.622580 1_555
Na34 O96 2.438661 1_555
Na34 O100 2.490698 1_555
Na34 O98 2.513667 1_555
Na34 O112 2.591287 1_555
Na34 O108 2.604893 1_555
Na34 O110 2.857061 1_555
Na35 O99 2.362972 1_555
Na35 O101 2.477638 1_555
Na35 O109 2.487109 1_555
Na35 O97 2.505705 1_555
Na35 O113 2.585220 1_555
Na36 O114 2.371402 1_555
Na36 O116 2.488342 1_555
Na36 O106 2.528874 1_555
Na36 O104 2.602137 1_555
Na36 O102 2.634340 1_555
Na36 O118 2.788466 1_555
Na37 O117 2.445206 1_555
Na37 O103 2.536544 1_555
Na37 O115 2.540939 1_555
Na37 O107 2.567940 1_555
Na37 O105 2.597184 1_555
Na37 O119 2.688169 1_555
Na38 O136 2.370304 1_555
Na38 O120 2.442747 1_555
Na38 O122 2.454421 1_555
Na38 O132 2.485066 1_555
Na38 O124 2.549179 1_555
Na38 O134 2.567205 1_555
Na39 O135 2.423167 1_555
Na39 O137 2.440989 1_555
Na39 O133 2.447988 1_555
Na39 O121 2.470312 1_555
Na39 O123 2.477925 1_555
Na39 O125 2.519773 1_555
Na40 O130 2.427024 1_555
Na40 O126 2.438190 1_555
Na40 O142 2.445861 1_555
Na40 O138 2.475736 1_555
Na40 O140 2.478577 1_555
Na40 O128 2.506732 1_555
Na41 O127 2.419445 1_555
Na41 O141 2.444406 1_555
Na41 O129 2.456686 1_555
Na41 O131 2.482173 1_555
Na41 O139 2.489684 1_555
Na41 O143 2.556316 1_555
In0 O5 2.051891 1_455
In0 O3 2.067935 1_445
In0 O76 2.172140 1_555
In0 O0 2.211879 1_555
In0 O75 2.238296 1_445
In0 O72 2.346506 1_545
In1 O1 2.063785 1_555
In1 O2 2.122428 1_545
In1 O74 2.135112 1_545
In1 O77 2.183755 1_555
In1 O4 2.207852 1_555
In1 O73 2.330215 1_545
In2 O6 2.053259 1_665
In2 O11 2.124343 1_565
In2 O83 2.148432 1_555
In2 O9 2.186631 1_555
In2 O80 2.257128 1_655
In2 O78 2.383682 1_665
In3 O8 2.046227 1_555
In3 O10 2.073010 1_565
In3 O7 2.143403 1_565
In3 O81 2.205130 1_555
In3 O82 2.271485 1_555
In3 O79 2.389261 1_565
In4 O24 2.055286 1_555
In4 O96 2.137918 1_555
In4 O26 2.138417 1_555
In4 O98 2.151735 1_555
In4 O100 2.180844 1_555
In4 O28 2.260073 1_555
In5 O31 2.063877 1_555
In5 O103 2.116715 1_555
In5 O107 2.133420 1_555
In5 O35 2.163820 1_555
In5 O105 2.168458 1_555
In5 O33 2.267507 1_555
In6 O36 2.081275 1_556
In6 O38 2.088585 1_556
In6 O108 2.088772 1_555
In6 O112 2.149041 1_555
In6 O40 2.218757 1_556
In6 O110 2.349233 1_555
In7 O37 2.090599 1_556
In7 O39 2.132723 1_556
In7 O109 2.143041 1_555
In7 O113 2.201376 1_555
In7 O41 2.255940 1_556
In7 O111 2.332004 1_555
In8 O42 2.068286 1_555
In8 O46 2.130443 1_555
In8 O114 2.150669 1_555
In8 O116 2.235878 1_555
In8 O44 2.250513 1_555
In8 O118 2.297112 1_555
In9 O45 2.095636 1_555
In9 O47 2.104417 1_555
In9 O43 2.111062 1_555
In9 O115 2.135818 1_555
In9 O117 2.203104 1_555
In9 O119 2.444767 1_555
In10 O63 2.035537 1_555
In10 O65 2.039767 1_555
In10 O133 2.127373 1_555
In10 O135 2.157734 1_555
In10 O61 2.279267 1_555
In10 O137 2.499670 1_555
In11 O70 2.045956 1_555
In11 O68 2.062125 1_555
In11 O142 2.127761 1_555
In11 O138 2.131469 1_555
In11 O66 2.274450 1_555
In11 O140 2.365526 1_555
Ge0 O13 1.841152 1_545
Ge0 O14 1.855877 1_655
Ge0 O86 1.874864 1_655
Ge0 O85 1.876886 1_555
Ge0 O89 1.879769 1_545
Ge0 O16 2.205984 1_645
Ge1 O15 1.809950 1_555
Ge1 O12 1.821868 1_545
Ge1 O87 1.841383 1_555
Ge1 O17 1.886630 1_545
Ge1 O84 2.006095 1_555
Ge2 O22 1.810964 1_545
Ge2 O19 1.814530 1_445
Ge2 O94 1.846922 1_555
Ge2 O20 1.873855 1_555
Ge2 O91 2.055102 1_445
Ge3 O23 1.777215 1_555
Ge3 O18 1.813639 1_555
Ge3 O95 1.833612 1_565
Ge3 O90 1.878594 1_555
Ge3 O21 2.139827 1_565
Ge3 O92 2.317134 1_565
Ge4 O29 1.831757 1_555
Ge4 O27 1.844977 1_555
Ge4 O25 1.889663 1_555
Ge4 O99 1.915204 1_555
Ge4 O97 1.940481 1_555
Ge4 O101 2.378263 1_555
Ge5 O30 1.828663 1_555
Ge5 O34 1.829929 1_555
Ge5 O106 1.831313 1_555
Ge5 O102 1.840122 1_555
Ge5 O32 2.202985 1_555
Ge5 O104 2.334553 1_555
Ge6 O48 1.820499 1_554
Ge6 O122 1.842219 1_555
Ge6 O52 1.843785 1_554
Ge6 O120 1.939624 1_555
Ge6 O50 1.962854 1_554
Ge6 O124 2.338016 1_555
Ge7 O53 1.832432 1_554
Ge7 O49 1.849161 1_554
Ge7 O121 1.858927 1_555
Ge7 O51 1.952261 1_554
Ge7 O123 1.968733 1_555
Ge7 O125 2.186675 1_555
Ge8 O56 1.834071 1_555
Ge8 O54 1.849139 1_555
Ge8 O126 1.853133 1_555
Ge8 O130 1.921174 1_555
Ge8 O58 1.959708 1_555
Ge8 O128 2.206543 1_555
Ge9 O55 1.825135 1_555
Ge9 O131 1.856534 1_555
Ge9 O57 1.860344 1_555
Ge9 O129 1.874462 1_555
Ge9 O127 1.948882 1_555
Ge9 O59 2.363408 1_555
Ge10 O62 1.818908 1_555
Ge10 O134 1.857905 1_555
Ge10 O64 1.884545 1_555
Ge10 O132 1.918796 1_555
Ge10 O136 1.961431 1_555
Ge10 O60 2.230178 1_555
Ge11 O143 1.827023 1_555
Ge11 O71 1.832434 1_555
Ge11 O69 1.880969 1_555
Ge11 O139 1.891868 1_555
Ge11 O141 1.954258 1_555
Ge11 O67 2.351373 1_555
O0 Si0 1.627173 1_555
O1 Si1 1.625742 1_545
O2 Si2 1.612270 1_555
O3 Si3 1.623984 1_555
O4 S0 1.488831 1_555
O5 Si4 1.617859 1_655
O6 Si5 1.641769 1_555
O7 Si6 1.633317 1_555
O8 Si7 1.624372 1_555
O9 S1 1.501283 1_555
O10 Si8 1.630438 1_555
O11 Si9 1.633955 1_555
O12 Si8 1.665317 1_565
O13 Si9 1.621147 1_565
O14 Si5 1.644021 1_555
O15 Si6 1.655777 1_555
O16 S1 1.460347 1_455
O17 Si7 1.653873 1_555
O18 Si2 1.652503 1_555
O19 Si3 1.681245 1_555
O20 Si4 1.662760 1_555
O21 S0 1.478220 1_555
O22 Si0 1.655959 1_565
O23 Si1 1.668195 1_555
O24 Si10 1.606337 1_555
O25 Si11 1.650994 1_555
O26 Si12 1.632298 1_555
O27 Si13 1.669471 1_555
O28 S2 1.477112 1_555
O29 Si14 1.645953 1_555
O30 Si15 1.663343 1_555
O31 Si16 1.602591 1_555
O32 S3 1.478370 1_555
O33 S4 1.475014 1_555
O34 Si17 1.677957 1_555
O35 Si18 1.624251 1_555
O36 Si17 1.623532 1_555
O37 Si18 1.643227 1_555
O38 Si15 1.610059 1_555
O39 Si16 1.649007 1_555
O40 S3 1.489935 1_555
O41 S4 1.487133 1_555
O42 Si12 1.643129 1_555
O43 Si13 1.625764 1_555
O44 S2 1.488938 1_555
O45 Si14 1.619552 1_555
O46 Si10 1.651747 1_555
O47 Si11 1.607438 1_555
O48 Si19 1.682814 1_555
O49 Si20 1.657580 1_555
O50 S5 1.493868 1_555
O51 S6 1.500549 1_555
O52 Si21 1.665944 1_555
O53 Si22 1.673940 1_555
O54 Si23 1.651344 1_555
O55 Si24 1.661307 1_555
O56 Si25 1.662494 1_555
O57 Si26 1.649340 1_555
O58 S7 1.495439 1_555
O59 S8 1.457325 1_555
O60 S7 1.475019 1_555
O61 S8 1.490996 1_555
O62 Si23 1.639239 1_555
O63 Si24 1.637098 1_555
O64 Si25 1.660645 1_555
O65 Si26 1.637460 1_555
O66 S5 1.470412 1_555
O67 S6 1.463466 1_555
O68 Si21 1.627056 1_555
O69 Si22 1.647168 1_555
O70 Si19 1.624946 1_555
O71 Si20 1.632601 1_555
O72 S7 1.491356 1_555
O73 S8 1.498777 1_555
O74 Si23 1.641564 1_555
O75 Si24 1.641828 1_555
O76 Si25 1.638230 1_555
O77 Si26 1.658242 1_555
O78 S5 1.484772 1_555
O79 S6 1.488345 1_555
O80 Si21 1.650276 1_555
O81 Si22 1.636566 1_555
O82 Si19 1.635608 1_555
O83 Si20 1.645337 1_555
O84 Si10 1.675218 1_555
O85 Si11 1.675258 1_555
O86 Si12 1.641241 1_555
O87 Si13 1.653101 1_555
O88 S2 1.462189 1_555
O89 Si14 1.637384 1_555
O90 Si15 1.687284 1_555
O91 Si16 1.669408 1_555
O92 S3 1.478146 1_555
O93 S4 1.463234 1_555
O94 Si17 1.641642 1_555
O95 Si18 1.675430 1_555
O96 Si8 1.628466 1_555
O97 Si9 1.672178 1_555
O98 Si5 1.632326 1_555
O99 Si6 1.650524 1_555
O100 Si7 1.620780 1_555
O101 S1 1.474928 1_555
O102 Si2 1.685580 1_555
O103 Si3 1.627649 1_555
O104 S0 1.482578 1_555
O105 Si4 1.616411 1_655
O106 Si0 1.680557 1_555
O107 Si1 1.620731 1_545
O108 Si19 1.637092 1_555
O109 Si20 1.649329 1_555
O110 S6 1.484256 1_555
O111 S5 1.479671 1_655
O112 Si21 1.647335 1_545
O113 Si22 1.650217 1_545
O114 Si23 1.645276 1_545
O115 Si24 1.632932 1_545
O116 Si25 1.646939 1_555
O117 Si26 1.636509 1_555
O118 S8 1.499146 1_555
O119 S7 1.473556 1_655
O120 Si17 1.648969 1_555
O121 Si18 1.657362 1_555
O122 Si16 1.678381 1_455
O123 Si15 1.650028 1_555
O124 S3 1.505890 1_565
O125 S4 1.522525 1_565
O126 Si12 1.658562 1_565
O127 Si13 1.641614 1_565
O128 S2 1.515977 1_555
O129 Si14 1.681424 1_555
O130 Si11 1.662541 1_455
O131 Si10 1.651135 1_555
O132 Si0 1.642698 1_565
O133 Si1 1.635569 1_555
O134 Si2 1.634021 1_555
O135 Si3 1.643774 1_555
O136 Si4 1.681102 1_555
O137 S0 1.496402 1_555
O138 Si5 1.645730 1_555
O139 Si6 1.652904 1_555
O140 S1 1.506070 1_455
O141 Si7 1.678645 1_555
O142 Si8 1.647542 1_565
O143 Si9 1.646771 1_565
