# generated using pymatgen
data_K2MgH12(SO7)2
_symmetry_space_group_name_H-M   'P 1'
_cell_length_a   12.39413400
_cell_length_b   6.18556000
_cell_length_c   9.14992563
_cell_angle_alpha   75.61902549
_cell_angle_beta   90.00000000
_cell_angle_gamma   90.00000000
_symmetry_Int_Tables_number   1
_chemical_formula_structural   K2MgH12(SO7)2
_chemical_formula_sum   'K4 Mg2 H24 S4 O28'
_cell_volume   679.49566675
_cell_formula_units_Z   2
loop_
 _symmetry_equiv_pos_site_id
 _symmetry_equiv_pos_as_xyz
  1  'x, y, z'
loop_
 _atom_site_type_symbol
 _atom_site_label
 _atom_site_symmetry_multiplicity
 _atom_site_fract_x
 _atom_site_fract_y
 _atom_site_fract_z
 _atom_site_occupancy
  K  K0  1  0.84719700  0.34658000  0.36778600  1
  K  K1  1  0.34719700  0.65342000  0.13221400  1
  K  K2  1  0.15280300  0.65342000  0.63221400  1
  K  K3  1  0.65280300  0.34658000  0.86778600  1
  Mg  Mg0  1  0.00000000  0.00000000  0.00000000  1
  Mg  Mg1  1  0.50000000  0.00000000  0.50000000  1
  H  H0  1  0.43666300  0.33789800  0.60609500  1
  H  H1  1  0.93666300  0.66210200  0.89390500  1
  H  H2  1  0.56333700  0.66210200  0.39390500  1
  H  H3  1  0.06333700  0.33789800  0.10609500  1
  H  H4  1  0.64619400  0.66687000  0.52558500  1
  H  H5  1  0.14619400  0.33313000  0.97441500  1
  H  H6  1  0.35380600  0.33313000  0.47441500  1
  H  H7  1  0.85380600  0.66687000  0.02558500  1
  H  H8  1  0.60037500  0.93023100  0.77262700  1
  H  H9  1  0.10037500  0.06976900  0.72737300  1
  H  H10  1  0.68882300  0.00001200  0.64505800  1
  H  H11  1  0.18882300  0.99998800  0.85494200  1
  H  H12  1  0.31117700  0.99998800  0.35494200  1
  H  H13  1  0.81117700  0.00001200  0.14505800  1
  H  H14  1  0.40923800  0.67162500  0.71794200  1
  H  H15  1  0.90923800  0.32837500  0.78205800  1
  H  H16  1  0.59076200  0.32837500  0.28205800  1
  H  H17  1  0.09076200  0.67162500  0.21794200  1
  H  H18  1  0.37217300  0.90552200  0.74649500  1
  H  H19  1  0.87217300  0.09447800  0.75350500  1
  H  H20  1  0.62782700  0.09447800  0.25350500  1
  H  H21  1  0.12782700  0.90552200  0.24649500  1
  H  H22  1  0.39962500  0.06976900  0.22737300  1
  H  H23  1  0.89962500  0.93023100  0.27262700  1
  S  S0  1  0.86185300  0.72858500  0.59079800  1
  S  S1  1  0.13814700  0.27141500  0.40920200  1
  S  S2  1  0.63814700  0.72858500  0.09079800  1
  S  S3  1  0.36185300  0.27141500  0.90920200  1
  O  O0  1  0.58001600  0.75986500  0.94503800  1
  O  O1  1  0.91998400  0.75986500  0.44503800  1
  O  O2  1  0.11050000  0.82801800  0.16687400  1
  O  O3  1  0.61050000  0.17198200  0.33312600  1
  O  O4  1  0.88950000  0.17198200  0.83312600  1
  O  O5  1  0.38950000  0.82801800  0.66687400  1
  O  O6  1  0.11331200  0.96893000  0.82945300  1
  O  O7  1  0.08001600  0.24013500  0.55496200  1
  O  O8  1  0.88668800  0.03107000  0.17054700  1
  O  O9  1  0.38668800  0.96893000  0.32945300  1
  O  O10  1  0.07091100  0.29408400  0.00941000  1
  O  O11  1  0.57091100  0.70591600  0.49059000  1
  O  O12  1  0.92908900  0.70591600  0.99059000  1
  O  O13  1  0.42908900  0.29408400  0.50941000  1
  O  O14  1  0.32521900  0.05042800  0.88697900  1
  O  O15  1  0.82521900  0.94957200  0.61302100  1
  O  O16  1  0.67478100  0.94957200  0.11302100  1
  O  O17  1  0.17478100  0.05042800  0.38697900  1
  O  O18  1  0.26680500  0.42191900  0.90571400  1
  O  O19  1  0.76680500  0.57808100  0.59428600  1
  O  O20  1  0.73319500  0.57808100  0.09428600  1
  O  O21  1  0.23319500  0.42191900  0.40571400  1
  O  O22  1  0.61331200  0.03107000  0.67054700  1
  O  O23  1  0.93692000  0.61777100  0.71561100  1
  O  O24  1  0.56308000  0.61777100  0.21561100  1
  O  O25  1  0.06308000  0.38222900  0.28438900  1
  O  O26  1  0.41998400  0.24013500  0.05496200  1
  O  O27  1  0.43692000  0.38222900  0.78438900  1
loop_
_geom_bond_atom_site_label_1
_geom_bond_atom_site_label_2
_geom_bond_distance
_geom_bond_site_symmetry_2
K0 O25 2.776077 1_655
K0 O15 2.898718 1_545
K0 O20 2.920521 1_555
K0 O1 2.957407 1_555
K0 O19 2.968594 1_555
K0 O8 3.009139 1_555
K0 O3 3.169134 1_555
K0 O7 3.336640 1_655
K1 O24 2.776077 1_555
K1 O14 2.898718 1_564
K1 O21 2.920521 1_555
K1 O26 2.957407 1_555
K1 O18 2.968594 1_554
K1 O9 3.009139 1_555
K1 O2 3.169134 1_555
K1 O0 3.336640 1_554
K2 O23 2.776077 1_455
K2 O17 2.898718 1_565
K2 O18 2.920521 1_555
K2 O7 2.957407 1_555
K2 O21 2.968594 1_555
K2 O6 3.009139 1_555
K2 O5 3.169134 1_555
K2 O1 3.336640 1_455
K3 O27 2.776077 1_555
K3 O16 2.898718 1_546
K3 O19 2.920521 1_555
K3 O0 2.957407 1_555
K3 O20 2.968594 1_556
K3 O22 3.009139 1_555
K3 O4 3.169134 1_555
K3 O26 3.336640 1_556
Mg0 O12 2.041244 1_444
Mg0 O10 2.041244 1_555
Mg0 O4 2.128821 1_454
Mg0 O2 2.128821 1_545
Mg0 O8 2.143221 1_455
Mg0 O6 2.143221 1_544
Mg1 O11 2.041244 1_545
Mg1 O13 2.041244 1_555
Mg1 O5 2.128821 1_545
Mg1 O3 2.128821 1_555
Mg1 O22 2.143221 1_555
Mg1 O9 2.143221 1_545
H0 O13 0.991958 1_555
H1 O12 0.991958 1_555
H2 O11 0.991958 1_555
H3 O10 0.991958 1_555
H4 O11 0.996525 1_555
H4 O19 1.661301 1_555
H5 O10 0.996525 1_556
H5 O18 1.661301 1_555
H6 O13 0.996525 1_555
H6 O21 1.661301 1_555
H7 O12 0.996525 1_554
H7 O20 1.661301 1_555
H8 O22 0.998887 1_565
H8 K3 2.987750 1_565
H9 O6 0.998887 1_545
H9 K2 2.987750 1_545
H10 O22 0.994712 1_555
H11 O6 0.994712 1_555
H12 O9 0.994712 1_555
H13 O8 0.994712 1_555
H14 O5 0.994721 1_555
H15 O4 0.994721 1_555
H16 O3 0.994721 1_555
H17 O2 0.994721 1_555
H18 O5 0.990045 1_555
H19 O4 0.990045 1_555
H20 O3 0.990045 1_555
H21 O2 0.990045 1_555
H22 O9 0.998887 1_545
H22 K1 2.987750 1_545
H23 O8 0.998887 1_565
H23 K0 2.987750 1_565
O0 S2 1.485627 1_556
O1 S0 1.485627 1_555
O7 S1 1.485627 1_555
O14 S3 1.501355 1_555
O15 S0 1.501355 1_555
O16 S2 1.501355 1_555
O17 S1 1.501355 1_555
O18 S3 1.496898 1_555
O19 S0 1.496898 1_555
O20 S2 1.496898 1_555
O21 S1 1.496898 1_555
O23 S0 1.500283 1_555
O24 S2 1.500283 1_555
O25 S1 1.500283 1_555
O26 S3 1.485627 1_554
O27 S3 1.500283 1_555
