# generated using pymatgen
data_NaZr3Nb(PO4)6
_symmetry_space_group_name_H-M   'P 1'
_cell_length_a   8.90147242
_cell_length_b   8.90147213
_cell_length_c   23.17242616
_cell_angle_alpha   90.00000000
_cell_angle_beta   90.00000000
_cell_angle_gamma   120.00000108
_symmetry_Int_Tables_number   1
_chemical_formula_structural   NaZr3Nb(PO4)6
_chemical_formula_sum   'Na3 Zr9 Nb3 P18 O72'
_cell_volume   1590.10506448
_cell_formula_units_Z   3
loop_
 _symmetry_equiv_pos_site_id
 _symmetry_equiv_pos_as_xyz
  1  'x, y, z'
loop_
 _atom_site_type_symbol
 _atom_site_label
 _atom_site_symmetry_multiplicity
 _atom_site_fract_x
 _atom_site_fract_y
 _atom_site_fract_z
 _atom_site_occupancy
  Na  Na0  1  0.00000000  0.00000000  0.99884935  1
  Na  Na1  1  0.66666700  0.33333300  0.83407221  1
  Na  Na2  1  0.66666700  0.33333300  0.33310802  1
  Zr  Zr0  1  0.00000000  0.00000000  0.35835855  1
  Zr  Zr1  1  0.00000000  0.00000000  0.85421932  1
  Zr  Zr2  1  0.66666700  0.33333300  0.68622442  1
  Zr  Zr3  1  0.66666700  0.33333300  0.18627517  1
  Zr  Zr4  1  0.66666700  0.33333300  0.97995186  1
  Zr  Zr5  1  0.66666700  0.33333300  0.48030820  1
  Zr  Zr6  1  0.33333300  0.66666700  0.02253156  1
  Zr  Zr7  1  0.33333300  0.66666700  0.30852521  1
  Zr  Zr8  1  0.33333300  0.66666700  0.80969389  1
  Nb  Nb0  1  0.00000000  0.00000000  0.64497233  1
  Nb  Nb1  1  0.00000000  0.00000000  0.14722597  1
  Nb  Nb2  1  0.33333300  0.66666700  0.52147906  1
  P  P0  1  0.28637059  0.00193089  0.25041579  1
  P  P1  1  0.71556030  0.71362941  0.25041579  1
  P  P2  1  0.99806911  0.28443970  0.25041579  1
  P  P3  1  0.28657703  0.28542025  0.74922302  1
  P  P4  1  0.99884323  0.71342297  0.74922302  1
  P  P5  1  0.71457975  0.00115677  0.74922302  1
  P  P6  1  0.95869087  0.33341118  0.58330195  1
  P  P7  1  0.37472131  0.04130913  0.58330195  1
  P  P8  1  0.66658882  0.62527869  0.58330195  1
  P  P9  1  0.95607298  0.62587090  0.08395909  1
  P  P10  1  0.66979892  0.04392702  0.08395909  1
  P  P11  1  0.37412910  0.33020108  0.08395909  1
  P  P12  1  0.62157480  0.66626734  0.91658254  1
  P  P13  1  0.04469154  0.37842520  0.91658254  1
  P  P14  1  0.33373266  0.95530846  0.91658254  1
  P  P15  1  0.61678194  0.95190348  0.41679251  1
  P  P16  1  0.33512053  0.38321806  0.41679251  1
  P  P17  1  0.04809652  0.66487947  0.41679251  1
  O  O0  1  0.20198905  0.03039987  0.30355678  1
  O  O1  1  0.82841083  0.79801095  0.30355678  1
  O  O2  1  0.96960013  0.17158917  0.30355678  1
  O  O3  1  0.20451466  0.17320312  0.80281630  1
  O  O4  1  0.96868846  0.79548534  0.80281630  1
  O  O5  1  0.82679688  0.03131154  0.80281630  1
  O  O6  1  0.80801778  0.97923143  0.69536470  1
  O  O7  1  0.17121364  0.19198222  0.69536470  1
  O  O8  1  0.02076857  0.82878636  0.69536470  1
  O  O9  1  0.80750837  0.82870704  0.19593945  1
  O  O10  1  0.02119868  0.19249163  0.19593945  1
  O  O11  1  0.17129296  0.97880132  0.19593945  1
  O  O12  1  0.87810417  0.36637461  0.63664926  1
  O  O13  1  0.48827144  0.12189583  0.63664926  1
  O  O14  1  0.63362539  0.51172856  0.63664926  1
  O  O15  1  0.87138787  0.51454880  0.13743194  1
  O  O16  1  0.64316194  0.12861213  0.13743194  1
  O  O17  1  0.48545120  0.35683806  0.13743194  1
  O  O18  1  0.45382508  0.29559995  0.03018077  1
  O  O19  1  0.84177587  0.54617492  0.03018077  1
  O  O20  1  0.70440005  0.15822413  0.03018077  1
  O  O21  1  0.45525537  0.15498149  0.52999009  1
  O  O22  1  0.69972712  0.54474463  0.52999009  1
  O  O23  1  0.84501851  0.30027288  0.52999009  1
  O  O24  1  0.53888738  0.69365037  0.97081871  1
  O  O25  1  0.15476199  0.46111262  0.97081871  1
  O  O26  1  0.30634963  0.84523801  0.97081871  1
  O  O27  1  0.52533476  0.83781032  0.47119569  1
  O  O28  1  0.31247455  0.47466524  0.47119569  1
  O  O29  1  0.16218968  0.68752545  0.47119569  1
  O  O30  1  0.13062545  0.63561716  0.36326726  1
  O  O31  1  0.50499071  0.86937455  0.36326726  1
  O  O32  1  0.36438284  0.49500929  0.36326726  1
  O  O33  1  0.12811061  0.48877608  0.86227434  1
  O  O34  1  0.36066447  0.87188939  0.86227434  1
  O  O35  1  0.51122392  0.63933553  0.86227434  1
  O  O36  1  0.03036382  0.82605868  0.41026791  1
  O  O37  1  0.79569486  0.96963618  0.41026791  1
  O  O38  1  0.17394132  0.20430514  0.41026791  1
  O  O39  1  0.02341057  0.19559141  0.91042266  1
  O  O40  1  0.17218083  0.97658943  0.91042266  1
  O  O41  1  0.80440859  0.82781917  0.91042266  1
  O  O42  1  0.98176047  0.17427041  0.59559044  1
  O  O43  1  0.19250995  0.01823953  0.59559044  1
  O  O44  1  0.82572959  0.80749005  0.59559044  1
  O  O45  1  0.97604724  0.80990534  0.09372077  1
  O  O46  1  0.83385810  0.02395276  0.09372077  1
  O  O47  1  0.19009466  0.16614190  0.09372077  1
  O  O48  1  0.69451207  0.16240101  0.74116312  1
  O  O49  1  0.46788995  0.30548793  0.74116312  1
  O  O50  1  0.83759899  0.53211005  0.74116312  1
  O  O51  1  0.69437999  0.53249949  0.24214248  1
  O  O52  1  0.83812050  0.30562001  0.24214248  1
  O  O53  1  0.46750051  0.16187950  0.24214248  1
  O  O54  1  0.64275204  0.50444186  0.92313674  1
  O  O55  1  0.86169082  0.35724796  0.92313674  1
  O  O56  1  0.49555814  0.13830918  0.92313674  1
  O  O57  1  0.63860549  0.13408935  0.42527692  1
  O  O58  1  0.49548486  0.36139451  0.42527692  1
  O  O59  1  0.86591065  0.50451514  0.42527692  1
  O  O60  1  0.35124215  0.48701283  0.07503124  1
  O  O61  1  0.13576968  0.64875785  0.07503124  1
  O  O62  1  0.51298717  0.86423032  0.07503124  1
  O  O63  1  0.35156059  0.85914616  0.57106327  1
  O  O64  1  0.50758457  0.64843941  0.57106327  1
  O  O65  1  0.14085384  0.49241543  0.57106327  1
  O  O66  1  0.30259348  0.83984501  0.25656163  1
  O  O67  1  0.53725053  0.69740652  0.25656163  1
  O  O68  1  0.16015499  0.46274947  0.25656163  1
  O  O69  1  0.30331477  0.46349522  0.75615295  1
  O  O70  1  0.16017945  0.69668523  0.75615295  1
  O  O71  1  0.53650478  0.83982055  0.75615295  1
loop_
_geom_bond_atom_site_label_1
_geom_bond_atom_site_label_2
_geom_bond_distance
_geom_bond_site_symmetry_2
Na0 O40 2.628787 1_545
Na0 O41 2.628787 1_445
Na0 O39 2.628787 1_555
Na0 O45 2.716785 1_446
Na0 O47 2.716785 1_556
Na0 O46 2.716785 1_456
Na1 O56 2.636076 1_555
Na1 O54 2.636076 1_555
Na1 O55 2.636076 1_555
Na1 O50 2.718230 1_555
Na1 O49 2.718230 1_555
Na1 O48 2.718230 1_555
Na2 O51 2.685108 1_555
Na2 O53 2.685108 1_555
Na2 O52 2.685108 1_555
Na2 O57 2.706740 1_555
Na2 O59 2.706740 1_555
Na2 O58 2.706740 1_555
Nb0 O42 1.998514 1_455
Nb0 O44 1.998514 1_445
Nb0 O43 1.998514 1_555
Nb0 O8 2.000556 1_545
Nb0 O7 2.000556 1_555
Nb0 O6 2.000556 1_445
Nb1 O10 1.980513 1_555
Nb1 O9 1.980513 1_445
Nb1 O11 1.980513 1_545
Nb1 O45 2.021180 1_445
Nb1 O47 2.021180 1_555
Nb1 O46 2.021180 1_455
Nb2 O28 1.998956 1_555
Nb2 O27 1.998956 1_555
Nb2 O29 1.998956 1_555
Nb2 O63 2.001015 1_555
Nb2 O65 2.001015 1_555
Nb2 O64 2.001015 1_555
O0 P0 1.528105 1_555
O0 Zr0 2.105257 1_555
O1 P1 1.528106 1_555
O1 Zr0 2.105257 1_665
O2 P2 1.528106 1_555
O2 Zr0 2.105257 1_655
O3 P3 1.531014 1_555
O3 Zr1 2.074423 1_555
O4 P4 1.531014 1_555
O4 Zr1 2.074423 1_665
O5 P5 1.531014 1_555
O5 Zr1 2.074423 1_655
O6 P5 1.565176 1_565
O7 P3 1.565176 1_555
O8 P4 1.565176 1_455
O9 P1 1.572999 1_555
O10 P2 1.572999 1_455
O11 P0 1.572999 1_565
O12 P6 1.529482 1_555
O12 Zr2 2.096411 1_555
O13 P7 1.529482 1_555
O13 Zr2 2.096411 1_555
O14 P8 1.529482 1_555
O14 Zr2 2.096411 1_555
O15 P9 1.529236 1_555
O15 Zr3 2.065028 1_555
O16 P10 1.529236 1_555
O16 Zr3 2.065028 1_555
O17 P11 1.529236 1_555
O17 Zr3 2.065028 1_555
O18 P11 1.539344 1_555
O18 Zr4 2.102549 1_554
O19 P9 1.539344 1_555
O19 Zr4 2.102549 1_554
O20 P10 1.539344 1_555
O20 Zr4 2.102549 1_554
O21 P7 1.529218 1_555
O21 Zr5 2.097529 1_555
O22 P8 1.529218 1_555
O22 Zr5 2.097529 1_555
O23 P6 1.529218 1_555
O23 Zr5 2.097529 1_555
O24 P12 1.536256 1_555
O24 Zr6 2.098116 1_556
O25 P13 1.536256 1_555
O25 Zr6 2.098116 1_556
O26 P14 1.536256 1_555
O26 Zr6 2.098116 1_556
O27 P15 1.567353 1_555
O28 P16 1.567353 1_555
O29 P17 1.567353 1_555
O30 P17 1.528807 1_555
O30 Zr7 2.107754 1_555
O31 P15 1.528807 1_555
O31 Zr7 2.107754 1_555
O32 P16 1.528807 1_555
O32 Zr7 2.107754 1_555
O33 P13 1.539667 1_555
O33 Zr8 2.106281 1_555
O34 P14 1.539667 1_555
O34 Zr8 2.106281 1_555
O35 P12 1.539667 1_555
O35 Zr8 2.106281 1_555
O36 P17 1.527318 1_555
O36 Zr0 2.082250 1_565
O37 P15 1.527327 1_555
O37 Zr0 2.082250 1_665
O38 P16 1.527323 1_555
O38 Zr0 2.082250 1_555
O39 P13 1.548123 1_555
O39 Zr1 2.099532 1_555
O40 P14 1.548114 1_555
O40 Zr1 2.099531 1_565
O41 P12 1.548119 1_555
O41 Zr1 2.099532 1_665
O42 P6 1.555916 1_555
O43 P7 1.555925 1_555
O44 P8 1.555921 1_555
O45 P9 1.573257 1_555
O46 P10 1.573248 1_555
O47 P11 1.573253 1_555
O48 P5 1.543795 1_555
O48 Zr2 2.091498 1_555
O49 P3 1.543803 1_555
O49 Zr2 2.091498 1_555
O50 P4 1.543800 1_555
O50 Zr2 2.091497 1_555
O51 P1 1.538800 1_555
O51 Zr3 2.107732 1_555
O52 P2 1.538791 1_555
O52 Zr3 2.107732 1_555
O53 P0 1.538796 1_555
O53 Zr3 2.107732 1_555
O54 P12 1.550852 1_555
O54 Zr4 2.103032 1_555
O55 P13 1.550835 1_655
O55 Zr4 2.103032 1_555
O56 P14 1.550842 1_545
O56 Zr4 2.103032 1_555
O57 P15 1.546395 1_545
O57 Zr5 2.095485 1_555
O58 P16 1.546412 1_555
O58 Zr5 2.095485 1_555
O59 P17 1.546402 1_655
O59 Zr5 2.095485 1_555
O60 P11 1.522199 1_555
O60 Zr6 2.077915 1_555
O61 P9 1.522182 1_455
O61 Zr6 2.077915 1_555
O62 P10 1.522189 1_565
O62 Zr6 2.077915 1_555
O63 P7 1.554978 1_565
O64 P8 1.554995 1_555
O65 P6 1.554985 1_455
O66 P0 1.526816 1_565
O66 Zr7 2.079166 1_555
O67 P1 1.526825 1_555
O67 Zr7 2.079166 1_555
O68 P2 1.526821 1_455
O68 Zr7 2.079166 1_555
O69 P3 1.524615 1_555
O69 Zr8 2.097187 1_555
O70 P4 1.524606 1_455
O70 Zr8 2.097187 1_555
O71 P5 1.524611 1_565
O71 Zr8 2.097187 1_555
