# generated using pymatgen
data_C
_symmetry_space_group_name_H-M   'P 1'
_cell_length_a   3.86128301
_cell_length_b   3.86128328
_cell_length_c   3.86128218
_cell_angle_alpha   109.47122005
_cell_angle_beta   109.47122145
_cell_angle_gamma   109.47121842
_symmetry_Int_Tables_number   1
_chemical_formula_structural   C
_chemical_formula_sum   C8
_cell_volume   44.31726596
_cell_formula_units_Z   8
loop_
 _symmetry_equiv_pos_site_id
 _symmetry_equiv_pos_as_xyz
  1  'x, y, z'
loop_
 _atom_site_type_symbol
 _atom_site_label
 _atom_site_symmetry_multiplicity
 _atom_site_fract_x
 _atom_site_fract_y
 _atom_site_fract_z
 _atom_site_occupancy
  C  C0  1  0.18721287  0.18721287  0.18721287  1
  C  C1  1  -0.00000000  0.31278713  0.50000000  1
  C  C2  1  0.50000000  0.00000000  0.31278713  1
  C  C3  1  0.31278713  0.50000000  -0.00000000  1
  C  C4  1  0.81278713  0.81278713  0.81278713  1
  C  C5  1  0.00000000  0.68721287  0.50000000  1
  C  C6  1  0.50000000  -0.00000000  0.68721287  1
  C  C7  1  0.68721287  0.50000000  0.00000000  1
loop_
_geom_bond_atom_site_label_1
_geom_bond_atom_site_label_2
_geom_bond_distance
_geom_bond_site_symmetry_2
C0 C4 1.445764 1_444
C0 C1 1.625317 1_555
C0 C3 1.625317 1_555
C0 C2 1.625317 1_555
C1 C5 1.445764 1_555
C1 C3 1.625317 1_556
C1 C2 1.625317 1_455
C2 C6 1.445763 1_555
C2 C3 1.625317 1_545
C3 C7 1.445764 1_555
C4 C5 1.625317 1_655
C4 C7 1.625317 1_556
C4 C6 1.625317 1_565
C5 C7 1.625317 1_455
C5 C6 1.625317 1_565
C6 C7 1.625317 1_556
