# generated using pymatgen
data_Sr(YS2)2
_symmetry_space_group_name_H-M   'P 1'
_cell_length_a   3.99322085
_cell_length_b   12.02276318
_cell_length_c   14.35281413
_cell_angle_alpha   90.00000000
_cell_angle_beta   90.00000000
_cell_angle_gamma   90.00000000
_symmetry_Int_Tables_number   1
_chemical_formula_structural   Sr(YS2)2
_chemical_formula_sum   'Sr4 Y8 S16'
_cell_volume   689.07212759
_cell_formula_units_Z   4
loop_
 _symmetry_equiv_pos_site_id
 _symmetry_equiv_pos_as_xyz
  1  'x, y, z'
loop_
 _atom_site_type_symbol
 _atom_site_label
 _atom_site_symmetry_multiplicity
 _atom_site_fract_x
 _atom_site_fract_y
 _atom_site_fract_z
 _atom_site_occupancy
  Sr  Sr0  1  0.25000000  0.25762459  0.83823775  1
  Sr  Sr1  1  0.75000000  0.74237541  0.16176225  1
  Sr  Sr2  1  0.25000000  0.75762459  0.66176225  1
  Sr  Sr3  1  0.75000000  0.24237541  0.33823775  1
  Y  Y0  1  0.25000000  0.93233096  0.88963874  1
  Y  Y1  1  0.75000000  0.06766904  0.11036126  1
  Y  Y2  1  0.25000000  0.43233096  0.61036126  1
  Y  Y3  1  0.75000000  0.56766904  0.38963874  1
  Y  Y4  1  0.25000000  0.41920272  0.10097387  1
  Y  Y5  1  0.75000000  0.58079728  0.89902613  1
  Y  Y6  1  0.25000000  0.91920272  0.39902613  1
  Y  Y7  1  0.75000000  0.08079728  0.60097387  1
  S  S0  1  0.25000000  0.12977864  0.47326855  1
  S  S1  1  0.75000000  0.87022136  0.52673145  1
  S  S2  1  0.25000000  0.62977864  0.02673145  1
  S  S3  1  0.75000000  0.37022136  0.97326855  1
  S  S4  1  0.75000000  0.79244259  0.82559596  1
  S  S5  1  0.25000000  0.20755741  0.17440404  1
  S  S6  1  0.75000000  0.29244259  0.67440404  1
  S  S7  1  0.25000000  0.70755741  0.32559596  1
  S  S8  1  0.75000000  0.08565879  0.92166838  1
  S  S9  1  0.25000000  0.91434121  0.07833162  1
  S  S10  1  0.75000000  0.58565879  0.57833162  1
  S  S11  1  0.25000000  0.41434121  0.42166838  1
  S  S12  1  0.75000000  0.47760066  0.21592025  1
  S  S13  1  0.25000000  0.52239934  0.78407975  1
  S  S14  1  0.75000000  0.97760066  0.28407975  1
  S  S15  1  0.25000000  0.02239934  0.71592025  1
loop_
_geom_bond_atom_site_label_1
_geom_bond_atom_site_label_2
_geom_bond_distance
_geom_bond_site_symmetry_2
S0 Y6 2.746817 1_545
S0 Y7 2.773604 1_555
S0 Y7 2.773604 1_455
S0 Sr3 3.094373 1_455
S0 Sr3 3.094373 1_555
S1 Y7 2.746817 1_565
S1 Y6 2.773604 1_655
S1 Y6 2.773604 1_555
S1 Sr2 3.094373 1_555
S1 Sr2 3.094373 1_655
S2 Y4 2.746817 1_555
S2 Y5 2.773604 1_454
S2 Y5 2.773604 1_554
S2 Sr1 3.094373 1_455
S2 Sr1 3.094373 1_555
S3 Y5 2.746817 1_555
S3 Y4 2.773604 1_556
S3 Y4 2.773604 1_656
S3 Sr0 3.094373 1_655
S3 Sr0 3.094373 1_555
S4 Y5 2.754190 1_555
S4 Y0 2.767666 1_655
S4 Y0 2.767666 1_555
S4 Sr2 3.113056 1_555
S4 Sr2 3.113056 1_655
S5 Y4 2.754190 1_555
S5 Y1 2.767666 1_555
S5 Y1 2.767666 1_455
S5 Sr3 3.113056 1_455
S5 Sr3 3.113056 1_555
S6 Y7 2.754190 1_555
S6 Y2 2.767666 1_555
S6 Y2 2.767666 1_655
S6 Sr0 3.113056 1_655
S6 Sr0 3.113056 1_555
S7 Y6 2.754190 1_555
S7 Y3 2.767666 1_555
S7 Y3 2.767666 1_455
S7 Sr1 3.113056 1_455
S7 Sr1 3.113056 1_555
S8 Y1 2.716897 1_556
S8 Y0 2.756085 1_545
S8 Y0 2.756085 1_645
S8 Sr0 3.113671 1_555
S8 Sr0 3.113671 1_655
S9 Y0 2.716897 1_554
S9 Y1 2.756085 1_465
S9 Y1 2.756085 1_565
S9 Sr1 3.113671 1_555
S9 Sr1 3.113671 1_455
S10 Y3 2.716897 1_555
S10 Y2 2.756085 1_555
S10 Y2 2.756085 1_655
S10 Sr2 3.113671 1_555
S10 Sr2 3.113671 1_655
S11 Y2 2.716897 1_555
S11 Y3 2.756085 1_555
S11 Y3 2.756085 1_455
S11 Sr3 3.113671 1_455
S11 Sr3 3.113671 1_555
S12 Y4 2.683516 1_655
S12 Y4 2.683516 1_555
S12 Y3 2.718345 1_555
S12 Sr1 3.276855 1_555
S12 Sr3 3.328670 1_555
S13 Y5 2.683516 1_455
S13 Y5 2.683516 1_555
S13 Y2 2.718345 1_555
S13 Sr0 3.276855 1_555
S13 Sr2 3.328670 1_555
S14 Y6 2.683516 1_555
S14 Y6 2.683516 1_655
S14 Y1 2.718345 1_565
S14 Sr3 3.276855 1_565
S14 Sr1 3.328670 1_555
S15 Y7 2.683516 1_555
S15 Y7 2.683516 1_455
S15 Y0 2.718345 1_545
S15 Sr2 3.276855 1_545
S15 Sr0 3.328670 1_555
