# generated using pymatgen
data_RbCrI3
_symmetry_space_group_name_H-M   'P 1'
_cell_length_a   8.11166476
_cell_length_b   8.11166476
_cell_length_c   14.42091642
_cell_angle_alpha   84.76938546
_cell_angle_beta   84.76938546
_cell_angle_gamma   60.11998986
_symmetry_Int_Tables_number   1
_chemical_formula_structural   RbCrI3
_chemical_formula_sum   'Rb4 Cr4 I12'
_cell_volume   818.17207796
_cell_formula_units_Z   4
loop_
 _symmetry_equiv_pos_site_id
 _symmetry_equiv_pos_as_xyz
  1  'x, y, z'
loop_
 _atom_site_type_symbol
 _atom_site_label
 _atom_site_symmetry_multiplicity
 _atom_site_fract_x
 _atom_site_fract_y
 _atom_site_fract_z
 _atom_site_occupancy
  Rb  Rb0  1  0.31977000  0.34796100  0.11784400  1
  Rb  Rb1  1  0.65203900  0.68023000  0.88215600  1
  Rb  Rb2  1  0.29139800  0.38536800  0.61942400  1
  Rb  Rb3  1  0.61463200  0.70860200  0.38057600  1
  Cr  Cr0  1  0.96707100  0.03470300  0.24968800  1
  Cr  Cr1  1  0.96529700  0.03292900  0.75031200  1
  Cr  Cr2  1  0.93268800  0.06731200  0.50000000  1
  Cr  Cr3  1  0.00379900  0.99620100  0.00000000  1
  I  I0  1  0.14421100  0.18885600  0.83582700  1
  I  I1  1  0.81114400  0.85578900  0.16417300  1
  I  I2  1  0.78317400  0.88211000  0.66365100  1
  I  I3  1  0.11789000  0.21682600  0.33634900  1
  I  I4  1  0.61177200  0.21851900  0.39749300  1
  I  I5  1  0.78148100  0.38822800  0.60250700  1
  I  I6  1  0.68201300  0.15896700  0.89377700  1
  I  I7  1  0.84103300  0.31798700  0.10622300  1
  I  I8  1  0.09851100  0.74864500  0.39182700  1
  I  I9  1  0.25135500  0.90148900  0.60817300  1
  I  I10  1  0.15836600  0.67664600  0.89628900  1
  I  I11  1  0.32335400  0.84163400  0.10371100  1
loop_
_geom_bond_atom_site_label_1
_geom_bond_atom_site_label_2
_geom_bond_distance
_geom_bond_site_symmetry_2
Cr0 I3 2.767159 1_655
Cr0 I1 2.768847 1_545
Cr0 I7 2.789982 1_555
Cr0 I8 2.790854 1_645
Cr0 I11 3.196678 1_645
Cr0 I4 3.201634 1_555
Cr1 I2 2.767159 1_545
Cr1 I0 2.768847 1_655
Cr1 I6 2.789982 1_555
Cr1 I9 2.790854 1_645
Cr1 I10 3.196678 1_645
Cr1 I5 3.201634 1_555
Cr2 I4 2.766913 1_555
Cr2 I5 2.766913 1_555
Cr2 I9 2.795146 1_645
Cr2 I8 2.795146 1_645
Cr2 I2 3.153485 1_545
Cr2 I3 3.153485 1_655
Cr3 I11 2.766714 1_555
Cr3 I10 2.766714 1_554
Cr3 I6 2.798117 1_464
Cr3 I7 2.798117 1_465
Cr3 I0 3.154657 1_564
Cr3 I1 3.154657 1_455
I0 Rb2 3.743701 1_555
I0 Rb1 4.051699 1_455
I0 Rb1 4.183641 1_545
I1 Rb3 3.743701 1_555
I1 Rb0 4.051699 1_565
I1 Rb0 4.183641 1_655
I2 Rb1 3.731741 1_555
I2 Rb2 4.092476 1_565
I2 Rb2 4.132349 1_655
I3 Rb0 3.731741 1_555
I3 Rb3 4.092476 1_455
I3 Rb3 4.132349 1_545
I4 Rb2 3.820608 1_555
I4 Rb3 3.972128 1_555
I4 Rb3 4.154055 1_545
I5 Rb3 3.820608 1_555
I5 Rb2 3.972128 1_555
I5 Rb2 4.154055 1_655
I6 Rb0 4.013611 1_556
I6 Rb1 4.029205 1_545
I6 Rb1 4.101184 1_555
I7 Rb1 4.013611 1_554
I7 Rb0 4.029205 1_655
I7 Rb0 4.101184 1_555
I8 Rb3 4.023714 1_555
I8 Rb2 4.059942 1_555
I8 Rb3 4.115091 1_455
I9 Rb2 4.023714 1_555
I9 Rb3 4.059942 1_555
I9 Rb2 4.115091 1_565
I10 Rb0 3.842181 1_556
I10 Rb1 4.005570 1_555
I10 Rb1 4.116270 1_455
I11 Rb1 3.842181 1_554
I11 Rb0 4.005570 1_555
I11 Rb0 4.116270 1_565
