# generated using pymatgen
data_Na5Ta2Ti2Si5PO24
_symmetry_space_group_name_H-M   'P 1'
_cell_length_a   8.93644118
_cell_length_b   8.92381762
_cell_length_c   22.40486553
_cell_angle_alpha   89.90927472
_cell_angle_beta   90.31337958
_cell_angle_gamma   119.93400288
_symmetry_Int_Tables_number   1
_chemical_formula_structural   Na5Ta2Ti2Si5PO24
_chemical_formula_sum   'Na15 Ta6 Ti6 Si15 P3 O72'
_cell_volume   1548.35242868
_cell_formula_units_Z   3
loop_
 _symmetry_equiv_pos_site_id
 _symmetry_equiv_pos_as_xyz
  1  'x, y, z'
loop_
 _atom_site_type_symbol
 _atom_site_label
 _atom_site_symmetry_multiplicity
 _atom_site_fract_x
 _atom_site_fract_y
 _atom_site_fract_z
 _atom_site_occupancy
  Na  Na0  1  0.63862782  0.00723263  0.24890581  1
  Na  Na1  1  0.36699854  0.36066573  0.24892740  1
  Na  Na2  1  0.99385534  0.63083986  0.24894786  1
  Na  Na3  1  0.99920978  0.36387951  0.75012868  1
  Na  Na4  1  0.03599878  0.69847307  0.57987440  1
  Na  Na5  1  0.65949794  0.96264144  0.58009518  1
  Na  Na6  1  0.96536391  0.66665910  0.91848975  1
  Na  Na7  1  0.70218928  0.03576128  0.91795930  1
  Na  Na8  1  0.33189592  0.29763200  0.91933350  1
  Na  Na9  1  0.00715981  0.00788843  0.49204255  1
  Na  Na10  1  0.00168110  0.00077885  0.00189215  1
  Na  Na11  1  0.65971668  0.33109618  0.83399326  1
  Na  Na12  1  0.66795131  0.33201305  0.33365681  1
  Na  Na13  1  0.33430890  0.66576562  0.15991192  1
  Na  Na14  1  0.34087799  0.66428767  0.66246010  1
  Ta  Ta0  1  0.00196936  0.00222136  0.64470023  1
  Ta  Ta1  1  0.00376282  0.00124185  0.14377919  1
  Ta  Ta2  1  0.66333608  0.33385504  0.68781912  1
  Ta  Ta3  1  0.66833736  0.33255090  0.47673252  1
  Ta  Ta4  1  0.33115020  0.66773738  0.31455761  1
  Ta  Ta5  1  0.33531599  0.67358798  0.81169454  1
  Ti  Ti0  1  0.99353758  0.99293059  0.35417893  1
  Ti  Ti1  1  0.00711767  0.00487479  0.85122713  1
  Ti  Ti2  1  0.66837165  0.33984121  0.18444082  1
  Ti  Ti3  1  0.66493498  0.33036827  0.98447930  1
  Ti  Ti4  1  0.31746705  0.65728658  0.02281373  1
  Ti  Ti5  1  0.33477929  0.66808647  0.51802381  1
  Si  Si0  1  0.28811128  0.00314890  0.25154703  1
  Si  Si1  1  0.71339938  0.71245597  0.24972504  1
  Si  Si2  1  0.99731439  0.28414510  0.25089156  1
  Si  Si3  1  0.29233041  0.28859256  0.75133019  1
  Si  Si4  1  0.99830249  0.71342881  0.75127589  1
  Si  Si5  1  0.71148539  0.99677407  0.75061725  1
  Si  Si6  1  0.96085646  0.33741975  0.58311196  1
  Si  Si7  1  0.37742375  0.04524896  0.58170476  1
  Si  Si8  1  0.65886385  0.61901638  0.58195365  1
  Si  Si9  1  0.95413109  0.62085732  0.08287094  1
  Si  Si10  1  0.37989576  0.33858411  0.08241390  1
  Si  Si11  1  0.04140180  0.37527090  0.91737020  1
  Si  Si12  1  0.33333828  0.95705112  0.91942091  1
  Si  Si13  1  0.62795257  0.95627405  0.41793626  1
  Si  Si14  1  0.04407169  0.67229747  0.41799937  1
  P  P0  1  0.66318243  0.04228978  0.08372028  1
  P  P1  1  0.62043368  0.66742665  0.91824471  1
  P  P2  1  0.32980357  0.37649663  0.41777937  1
  O  O0  1  0.19734954  0.03882209  0.30753226  1
  O  O1  1  0.83979360  0.80038743  0.30712040  1
  O  O2  1  0.96229431  0.15813607  0.30750145  1
  O  O3  1  0.20016536  0.17100225  0.81087478  1
  O  O4  1  0.97291280  0.80417913  0.81046772  1
  O  O5  1  0.83558853  0.03283900  0.80938691  1
  O  O6  1  0.80130327  0.97106386  0.69091331  1
  O  O7  1  0.16180981  0.19647722  0.69436837  1
  O  O8  1  0.02838470  0.82995844  0.69152853  1
  O  O9  1  0.80065832  0.84058858  0.19254037  1
  O  O10  1  0.03746334  0.19803962  0.19277081  1
  O  O11  1  0.15977037  0.96069081  0.19305974  1
  O  O12  1  0.87011885  0.36678995  0.64280363  1
  O  O13  1  0.50435258  0.13728366  0.63995066  1
  O  O14  1  0.63819581  0.49998645  0.64095329  1
  O  O15  1  0.86318422  0.50272019  0.14261201  1
  O  O16  1  0.64153793  0.13107369  0.13998306  1
  O  O17  1  0.49764575  0.35838107  0.14213104  1
  O  O18  1  0.47125289  0.30612418  0.02348840  1
  O  O19  1  0.83513093  0.52636643  0.02332201  1
  O  O20  1  0.69236432  0.15768184  0.02702066  1
  O  O21  1  0.47085348  0.17057987  0.52491325  1
  O  O22  1  0.70351222  0.53082577  0.52618342  1
  O  O23  1  0.82638111  0.29706519  0.52699373  1
  O  O24  1  0.53694084  0.70154053  0.97182108  1
  O  O25  1  0.17406907  0.47001190  0.97320542  1
  O  O26  1  0.29944941  0.82497509  0.97412143  1
  O  O27  1  0.53085362  0.83749305  0.47640581  1
  O  O28  1  0.31032735  0.47189287  0.47154509  1
  O  O29  1  0.16310410  0.69146645  0.47636791  1
  O  O30  1  0.13490427  0.63859179  0.35845862  1
  O  O31  1  0.50452461  0.86169258  0.35831886  1
  O  O32  1  0.35896858  0.48987513  0.35995129  1
  O  O33  1  0.13360905  0.49855585  0.85834059  1
  O  O34  1  0.36824253  0.86484478  0.86072122  1
  O  O35  1  0.50296157  0.63566316  0.86170988  1
  O  O36  1  0.03045827  0.84506467  0.41066479  1
  O  O37  1  0.81699346  0.97659348  0.41070804  1
  O  O38  1  0.17031808  0.19910520  0.41140782  1
  O  O39  1  0.02174178  0.18273187  0.91187735  1
  O  O40  1  0.15933066  0.97341666  0.91192624  1
  O  O41  1  0.80264020  0.82878326  0.91067425  1
  O  O42  1  0.96666902  0.15722766  0.58919175  1
  O  O43  1  0.18360807  0.01908793  0.58949291  1
  O  O44  1  0.83587510  0.81044385  0.58997190  1
  O  O45  1  0.96923700  0.81119346  0.08879083  1
  O  O46  1  0.83098199  0.03042238  0.08909710  1
  O  O47  1  0.18813851  0.16422858  0.08910667  1
  O  O48  1  0.70057029  0.17385222  0.74415688  1
  O  O49  1  0.48112008  0.30679759  0.74492546  1
  O  O50  1  0.83398560  0.51701316  0.74537231  1
  O  O51  1  0.69053807  0.51891616  0.24334274  1
  O  O52  1  0.82930523  0.30938525  0.24326779  1
  O  O53  1  0.48183328  0.16792158  0.24298877  1
  O  O54  1  0.63834190  0.50282867  0.92152998  1
  O  O55  1  0.85085557  0.35796618  0.92275424  1
  O  O56  1  0.50567745  0.14932493  0.92290038  1
  O  O57  1  0.63727004  0.14497657  0.42224275  1
  O  O58  1  0.49793332  0.36515553  0.42299666  1
  O  O59  1  0.85339515  0.49661562  0.42297229  1
  O  O60  1  0.36546006  0.51204992  0.07567864  1
  O  O61  1  0.14553445  0.64066337  0.07671535  1
  O  O62  1  0.50391651  0.86398494  0.07630887  1
  O  O63  1  0.35794431  0.85425591  0.57741410  1
  O  O64  1  0.49682293  0.65015953  0.57749257  1
  O  O65  1  0.14597050  0.50961679  0.57695999  1
  O  O66  1  0.30628525  0.82700267  0.25685875  1
  O  O67  1  0.51901387  0.68842968  0.25710123  1
  O  O68  1  0.17200963  0.47749312  0.25696214  1
  O  O69  1  0.30183772  0.47555339  0.75816218  1
  O  O70  1  0.16805318  0.68720989  0.75727974  1
  O  O71  1  0.52127606  0.82585397  0.75700768  1
loop_
_geom_bond_atom_site_label_1
_geom_bond_atom_site_label_2
_geom_bond_distance
_geom_bond_site_symmetry_2
Na0 O52 2.367645 1_555
Na0 O53 2.457586 1_555
Na0 O67 2.497105 1_545
Na0 O66 2.583966 1_545
Na0 O16 2.672269 1_555
Na0 O31 2.756987 1_545
Na0 O2 2.824865 1_555
Na0 O9 2.842158 1_545
Na1 O53 2.406878 1_555
Na1 O68 2.443907 1_555
Na1 O51 2.509581 1_555
Na1 O67 2.543140 1_555
Na1 O17 2.672692 1_555
Na1 O32 2.759674 1_555
Na1 O0 2.817018 1_555
Na1 O10 2.839270 1_555
Na2 O51 2.378100 1_555
Na2 O66 2.451309 1_655
Na2 O52 2.489316 1_555
Na2 O68 2.570978 1_655
Na2 O15 2.644346 1_555
Na2 O30 2.737388 1_655
Na2 O1 2.826336 1_555
Na2 O11 2.843178 1_655
Na3 O48 2.344378 1_555
Na3 O69 2.375902 1_655
Na3 O50 2.463815 1_555
Na3 O70 2.506283 1_655
Na3 O12 2.667016 1_555
Na3 O33 2.702181 1_655
Na3 O7 2.845333 1_655
Na3 O5 2.885412 1_555
Na4 O65 2.337600 1_555
Na4 O44 2.456928 1_455
Na4 O43 2.490922 1_565
Na4 O63 2.494574 1_555
Na4 O29 2.602355 1_555
Na4 O8 2.780324 1_555
Na4 O22 2.836172 1_455
Na4 O12 2.928643 1_455
Na5 O63 2.366072 1_555
Na5 O42 2.414507 1_565
Na5 O64 2.417963 1_555
Na5 O44 2.551410 1_555
Na5 O27 2.581385 1_555
Na5 O6 2.765370 1_555
Na5 O23 2.848193 1_565
Na5 O13 2.886676 1_565
Na6 O40 2.405368 1_655
Na6 O55 2.414893 1_555
Na6 O41 2.516837 1_555
Na6 O54 2.533851 1_555
Na6 O19 2.646685 1_556
Na6 O4 2.697739 1_555
Na6 O26 2.866760 1_655
Na6 O33 2.933693 1_655
Na7 O41 2.429254 1_545
Na7 O56 2.429370 1_555
Na7 O39 2.481806 1_655
Na7 O55 2.496195 1_555
Na7 O20 2.695972 1_556
Na7 O5 2.720673 1_555
Na7 O24 2.853940 1_545
Na7 O34 2.880729 1_545
Na8 O54 2.418522 1_555
Na8 O39 2.433237 1_555
Na8 O56 2.493843 1_555
Na8 O40 2.514440 1_545
Na8 O18 2.622368 1_556
Na8 O3 2.686534 1_555
Na8 O25 2.828817 1_555
Na8 O35 2.917237 1_555
Na9 O37 2.404332 1_445
Na9 O36 2.406931 1_545
Na9 O38 2.416097 1_555
Na9 O43 2.658792 1_555
Na9 O42 2.672764 1_455
Na9 O44 2.755795 1_445
Na10 O45 2.498633 1_445
Na10 O47 2.504002 1_555
Na10 O39 2.537524 1_554
Na10 O40 2.546231 1_544
Na10 O46 2.579014 1_455
Na10 O41 2.634762 1_444
Na11 O49 2.489511 1_555
Na11 O56 2.507048 1_555
Na11 O55 2.546673 1_555
Na11 O54 2.556820 1_555
Na11 O50 2.562234 1_555
Na11 O48 2.584920 1_555
Na12 O57 2.517738 1_555
Na12 O59 2.540080 1_555
Na12 O52 2.558321 1_555
Na12 O51 2.564145 1_555
Na12 O53 2.564957 1_555
Na12 O58 2.624140 1_555
Na13 O60 2.432251 1_555
Na13 O61 2.441385 1_555
Na13 O62 2.505920 1_555
Na13 O67 2.671306 1_555
Na13 O66 2.688197 1_555
Na13 O68 2.691722 1_555
Na14 O64 2.405649 1_555
Na14 O65 2.486175 1_555
Na14 O63 2.502547 1_555
Na14 O71 2.611054 1_555
Na14 O69 2.639362 1_555
Na14 O70 2.700529 1_555
O0 Si0 1.613275 1_555
O0 Ti0 1.962744 1_445
O1 Si1 1.627245 1_555
O1 Ti0 1.893536 1_555
O2 Si2 1.618547 1_555
O2 Ti0 1.935932 1_545
O3 Si3 1.644486 1_555
O3 Ti1 1.857880 1_555
O4 Si4 1.629773 1_555
O4 Ti1 1.894924 1_665
O5 Si5 1.642093 1_545
O5 Ti1 1.912066 1_655
O6 Si5 1.637903 1_555
O6 Ta0 1.971513 1_665
O7 Si3 1.641670 1_555
O7 Ta0 1.949676 1_555
O8 Si4 1.632822 1_455
O8 Ta0 1.968238 1_565
O9 Si1 1.635069 1_555
O9 Ta1 1.990732 1_665
O10 Si2 1.642639 1_455
O10 Ta1 1.963257 1_555
O11 Si0 1.651532 1_565
O11 Ta1 1.943989 1_565
O12 Si6 1.655257 1_555
O12 Ta2 1.998938 1_555
O13 Si7 1.649734 1_555
O13 Ta2 1.935946 1_555
O14 Si8 1.646869 1_555
O14 Ta2 1.917238 1_555
O15 Si9 1.647980 1_555
O15 Ti2 1.873481 1_555
O16 P0 1.553359 1_555
O16 Ti2 2.019369 1_555
O17 Si10 1.651792 1_555
O17 Ti2 1.867960 1_555
O18 Si10 1.656025 1_555
O18 Ti3 1.857060 1_554
O19 Si9 1.647753 1_555
O19 Ti3 1.861521 1_554
O20 P0 1.572778 1_555
O20 Ti3 1.926933 1_554
O21 Si7 1.625478 1_555
O21 Ta3 1.959372 1_555
O22 Si8 1.631510 1_555
O22 Ta3 1.975939 1_555
O23 Si6 1.645510 1_555
O23 Ta3 1.947030 1_555
O24 P1 1.525751 1_555
O24 Ti4 2.134961 1_556
O25 Si11 1.634658 1_555
O25 Ti4 1.877079 1_556
O26 Si12 1.620529 1_555
O26 Ti4 1.920608 1_556
O27 Si13 1.637897 1_555
O27 Ti5 1.896015 1_555
O28 P2 1.536069 1_555
O28 Ti5 1.954205 1_555
O29 Si14 1.635497 1_555
O29 Ti5 1.889815 1_555
O30 Si14 1.669043 1_555
O30 Ta4 1.916651 1_555
O31 Si13 1.664782 1_555
O31 Ta4 1.915724 1_555
O32 P2 1.583235 1_555
O32 Ta4 2.000329 1_555
O33 Si11 1.655620 1_555
O33 Ta5 1.996662 1_555
O34 Si12 1.663746 1_555
O34 Ta5 1.925437 1_555
O35 P1 1.573667 1_555
O35 Ta5 2.025135 1_555
O36 Si14 1.613983 1_555
O36 Ti0 1.968830 1_455
O37 Si13 1.615613 1_555
O37 Ti0 1.976393 1_555
O38 P2 1.518032 1_555
O38 Ti0 2.146952 1_445
O39 Si11 1.642356 1_555
O39 Ti1 2.044639 1_555
O40 Si12 1.640515 1_555
O40 Ti1 2.034255 1_565
O41 P1 1.554272 1_555
O41 Ti1 2.176376 1_665
O42 Si6 1.639972 1_555
O42 Ta0 1.996329 1_655
O43 Si7 1.638439 1_555
O43 Ta0 1.991216 1_555
O44 Si8 1.659436 1_555
O44 Ta0 2.021657 1_665
O45 Si9 1.640880 1_555
O45 Ta1 1.992371 1_665
O46 P0 1.559099 1_555
O46 Ta1 2.081450 1_655
O47 Si10 1.649549 1_555
O47 Ta1 1.988835 1_555
O48 Si5 1.637220 1_545
O48 Ta2 2.050983 1_555
O49 Si3 1.619368 1_555
O49 Ta2 1.994067 1_555
O50 Si4 1.635818 1_555
O50 Ta2 2.038976 1_555
O51 Si1 1.641167 1_555
O51 Ti2 2.005598 1_555
O52 Si2 1.633614 1_555
O52 Ti2 2.060966 1_555
O53 Si0 1.630377 1_555
O53 Ti2 2.078091 1_555
O54 P1 1.556488 1_555
O54 Ti3 2.183719 1_555
O55 Si11 1.636369 1_655
O55 Ti3 2.085509 1_555
O56 Si12 1.638251 1_545
O56 Ti3 2.056692 1_555
O57 Si13 1.646940 1_545
O57 Ta3 1.976958 1_555
O58 P2 1.559216 1_555
O58 Ta3 2.067390 1_555
O59 Si14 1.645973 1_655
O59 Ta3 1.982184 1_555
O60 Si10 1.622957 1_555
O60 Ti4 1.952164 1_555
O61 Si9 1.636074 1_455
O61 Ti4 1.906157 1_555
O62 P0 1.524199 1_565
O62 Ti4 2.129080 1_555
O63 Si7 1.627487 1_565
O63 Ti5 2.057729 1_555
O64 Si8 1.607513 1_555
O64 Ti5 2.026634 1_555
O65 Si6 1.606784 1_455
O65 Ti5 2.056088 1_555
O66 Si0 1.662943 1_565
O66 Ta4 2.011646 1_555
O67 Si1 1.649901 1_555
O67 Ta4 2.055049 1_555
O68 Si2 1.656168 1_455
O68 Ta4 2.036464 1_555
O69 Si3 1.635060 1_555
O69 Ta5 2.031316 1_555
O70 Si4 1.651035 1_455
O70 Ta5 1.973900 1_555
O71 Si5 1.628108 1_555
O71 Ta5 1.967904 1_555
