# generated using pymatgen
data_Na10Ca3Hf5(PO4)12
_symmetry_space_group_name_H-M   'P 1'
_cell_length_a   18.24219264
_cell_length_b   9.13131319
_cell_length_c   22.88543709
_cell_angle_alpha   90.00896932
_cell_angle_beta   90.02365005
_cell_angle_gamma   120.20014247
_symmetry_Int_Tables_number   1
_chemical_formula_structural   Na10Ca3Hf5(PO4)12
_chemical_formula_sum   'Na30 Ca9 Hf15 P36 O144'
_cell_volume   3294.73610257
_cell_formula_units_Z   3
loop_
 _symmetry_equiv_pos_site_id
 _symmetry_equiv_pos_as_xyz
  1  'x, y, z'
loop_
 _atom_site_type_symbol
 _atom_site_label
 _atom_site_symmetry_multiplicity
 _atom_site_fract_x
 _atom_site_fract_y
 _atom_site_fract_z
 _atom_site_occupancy
  Na  Na0  1  0.32240064  0.01487293  0.24929098  1
  Na  Na1  1  0.68645347  0.35602909  0.24878209  1
  Na  Na2  1  0.31712550  0.62323190  0.74953321  1
  Na  Na3  1  0.81698425  0.62263553  0.74940890  1
  Na  Na4  1  0.15699563  0.34857765  0.57821552  1
  Na  Na5  1  0.65667809  0.34844998  0.57726584  1
  Na  Na6  1  0.01644623  0.68643291  0.57876525  1
  Na  Na7  1  0.51676769  0.68593511  0.57844575  1
  Na  Na8  1  0.32480521  0.96282923  0.57837477  1
  Na  Na9  1  0.82626886  0.96695626  0.57864768  1
  Na  Na10  1  0.15654362  0.96495283  0.07802754  1
  Na  Na11  1  0.65773794  0.96694021  0.07862988  1
  Na  Na12  1  0.32525226  0.68524740  0.07876776  1
  Na  Na13  1  0.82582235  0.68701785  0.07818855  1
  Na  Na14  1  0.01650164  0.34835156  0.07812352  1
  Na  Na15  1  0.51730901  0.34800935  0.07933133  1
  Na  Na16  1  0.66127498  0.02222921  0.41084934  1
  Na  Na17  1  0.35085636  0.67925791  0.40963371  1
  Na  Na18  1  0.00021898  0.99875781  0.49326507  1
  Na  Na19  1  0.49960453  0.01728155  0.48926760  1
  Na  Na20  1  0.99984078  0.99959098  0.99524034  1
  Na  Na21  1  0.49994298  0.99954079  0.99556516  1
  Na  Na22  1  0.33356513  0.31798443  0.83129668  1
  Na  Na23  1  0.83347963  0.31830659  0.83134730  1
  Na  Na24  1  0.33462923  0.34006400  0.32530616  1
  Na  Na25  1  0.84583365  0.34263711  0.32679077  1
  Na  Na26  1  0.16160784  0.65229233  0.16653324  1
  Na  Na27  1  0.66560932  0.68013915  0.16641836  1
  Na  Na28  1  0.16040468  0.66764129  0.66762226  1
  Na  Na29  1  0.66024186  0.66720476  0.66784874  1
  Ca  Ca0  1  0.50014755  0.00567743  0.34979889  1
  Ca  Ca1  1  0.33365046  0.32469300  0.69107291  1
  Ca  Ca2  1  0.83344265  0.32386833  0.69134128  1
  Ca  Ca3  1  0.33057402  0.33835659  0.18645138  1
  Ca  Ca4  1  0.84029458  0.33573689  0.18864414  1
  Ca  Ca5  1  0.16667711  0.66769852  0.00687252  1
  Ca  Ca6  1  0.66662761  0.66663173  0.00717479  1
  Ca  Ca7  1  0.16026574  0.65784985  0.50948575  1
  Ca  Ca8  1  0.67073948  0.66993889  0.51077812  1
  Hf  Hf0  1  0.00042231  0.99898198  0.35125722  1
  Hf  Hf1  1  0.00156475  0.00313872  0.85304571  1
  Hf  Hf2  1  0.50157194  0.00315642  0.85297850  1
  Hf  Hf3  1  0.00187204  0.00351288  0.65071389  1
  Hf  Hf4  1  0.50154875  0.00294781  0.65006482  1
  Hf  Hf5  1  0.99984289  0.99965662  0.15072001  1
  Hf  Hf6  1  0.50006083  0.99663471  0.15157146  1
  Hf  Hf7  1  0.33315233  0.33471650  0.97871890  1
  Hf  Hf8  1  0.83347181  0.33426688  0.97883924  1
  Hf  Hf9  1  0.33210442  0.32482795  0.47978503  1
  Hf  Hf10  1  0.83671649  0.34053735  0.47933979  1
  Hf  Hf11  1  0.16384369  0.66260277  0.31625381  1
  Hf  Hf12  1  0.66504135  0.66702925  0.31673250  1
  Hf  Hf13  1  0.16405157  0.66704405  0.81841099  1
  Hf  Hf14  1  0.66404299  0.66688259  0.81846951  1
  P  P0  1  0.14314811  0.98724483  0.25176569  1
  P  P1  1  0.64756042  0.99092435  0.25237971  1
  P  P2  1  0.34621058  0.70547655  0.25336638  1
  P  P3  1  0.85069929  0.71268470  0.25207960  1
  P  P4  1  0.00551435  0.29436681  0.25225778  1
  P  P5  1  0.50465399  0.30351292  0.24908179  1
  P  P6  1  0.14335642  0.30010475  0.75206847  1
  P  P7  1  0.64320306  0.29973602  0.75192822  1
  P  P8  1  0.00571035  0.71751684  0.75164771  1
  P  P9  1  0.50573372  0.71764269  0.75160299  1
  P  P10  1  0.35203556  0.98766644  0.75239754  1
  P  P11  1  0.85194114  0.98733911  0.75247533  1
  P  P12  1  0.47966108  0.32768165  0.58401418  1
  P  P13  1  0.97912880  0.32656389  0.58419015  1
  P  P14  1  0.18336730  0.03935895  0.58400542  1
  P  P15  1  0.68405791  0.04196626  0.58217641  1
  P  P16  1  0.33637324  0.63198745  0.58488201  1
  P  P17  1  0.83753060  0.63279251  0.58702459  1
  P  P18  1  0.47965696  0.63168281  0.08293708  1
  P  P19  1  0.98049242  0.63377194  0.08265093  1
  P  P20  1  0.33628319  0.03979843  0.08531879  1
  P  P21  1  0.83644952  0.04108160  0.08286208  1
  P  P22  1  0.18257006  0.32663222  0.08211909  1
  P  P23  1  0.68450520  0.32730781  0.08581301  1
  P  P24  1  0.31819730  0.66423272  0.91587798  1
  P  P25  1  0.81818041  0.66397720  0.91586067  1
  P  P26  1  0.01381894  0.36391666  0.91772110  1
  P  P27  1  0.51384625  0.36370283  0.91784897  1
  P  P28  1  0.16800166  0.97218205  0.91756346  1
  P  P29  1  0.66793041  0.97203454  0.91761582  1
  P  P30  1  0.31334148  0.96661815  0.41837688  1
  P  P31  1  0.81851956  0.97249832  0.41744404  1
  P  P32  1  0.16754243  0.36393719  0.41763217  1
  P  P33  1  0.67179468  0.36941094  0.41848429  1
  P  P34  1  0.01500270  0.66679664  0.41727134  1
  P  P35  1  0.51437773  0.65878853  0.41945341  1
  O  O0  1  0.09244785  0.99830623  0.30306076  1
  O  O1  1  0.60862463  0.01079623  0.30786464  1
  O  O2  1  0.39261355  0.78419358  0.30938831  1
  O  O3  1  0.90721262  0.81523397  0.30326719  1
  O  O4  1  0.49288079  0.19663724  0.30161177  1
  O  O5  1  0.00251562  0.18257867  0.30310897  1
  O  O6  1  0.09256126  0.18751943  0.80293069  1
  O  O7  1  0.59253648  0.18758111  0.80295303  1
  O  O8  1  0.50104536  0.82160461  0.80222893  1
  O  O9  1  0.00105803  0.82172411  0.80216803  1
  O  O10  1  0.40768385  0.99366973  0.80321243  1
  O  O11  1  0.90770381  0.99374799  0.80321311  1
  O  O12  1  0.39543746  0.96851579  0.69466903  1
  O  O13  1  0.89526974  0.96850265  0.69465484  1
  O  O14  1  0.09299101  0.21342257  0.69381973  1
  O  O15  1  0.59283174  0.21287476  0.69374856  1
  O  O16  1  0.01523174  0.82083170  0.69353982  1
  O  O17  1  0.51529752  0.82077461  0.69345719  1
  O  O18  1  0.39689513  0.82517663  0.19865875  1
  O  O19  1  0.89428848  0.81427318  0.19418690  1
  O  O20  1  0.01294624  0.20795860  0.19409150  1
  O  O21  1  0.51734062  0.21292697  0.19295068  1
  O  O22  1  0.09275581  0.97508390  0.19390895  1
  O  O23  1  0.58892040  0.97126679  0.19718834  1
  O  O24  1  0.44153959  0.35986642  0.63766457  1
  O  O25  1  0.94077812  0.35847213  0.63769553  1
  O  O26  1  0.23744720  0.11762471  0.63761415  1
  O  O27  1  0.73982560  0.12401284  0.63480953  1
  O  O28  1  0.32318114  0.52982084  0.64037876  1
  O  O29  1  0.82407858  0.53339663  0.64313066  1
  O  O30  1  0.44193472  0.52444578  0.13636555  1
  O  O31  1  0.94346448  0.52864689  0.13685039  1
  O  O32  1  0.32193340  0.10763492  0.14211223  1
  O  O33  1  0.82039949  0.11626616  0.13648614  1
  O  O34  1  0.23515231  0.35756854  0.13603881  1
  O  O35  1  0.73389091  0.35586188  0.14219099  1
  O  O36  1  0.22893009  0.30213122  0.02797917  1
  O  O37  1  0.73336831  0.30492064  0.03272361  1
  O  O38  1  0.42127889  0.54127632  0.02827154  1
  O  O39  1  0.92166873  0.54144075  0.02852366  1
  O  O40  1  0.34785397  0.16191432  0.03286815  1
  O  O41  1  0.84963912  0.15828799  0.02847587  1
  O  O42  1  0.22887872  0.15489598  0.52931020  1
  O  O43  1  0.72727385  0.15161857  0.52570513  1
  O  O44  1  0.34779323  0.53921042  0.53026194  1
  O  O45  1  0.84875445  0.53540963  0.53377214  1
  O  O46  1  0.42052063  0.29974411  0.52963168  1
  O  O47  1  0.92224813  0.30300695  0.52910892  1
  O  O48  1  0.28815235  0.69847899  0.97330039  1
  O  O49  1  0.78812406  0.69825301  0.97326501  1
  O  O50  1  0.05910737  0.41950700  0.97595592  1
  O  O51  1  0.55908572  0.41899137  0.97614943  1
  O  O52  1  0.15022178  0.88187900  0.97582185  1
  O  O53  1  0.65028300  0.88140464  0.97582840  1
  O  O54  1  0.27498224  0.86936736  0.47486828  1
  O  O55  1  0.79175652  0.88545708  0.47647690  1
  O  O56  1  0.14999997  0.41757565  0.47642467  1
  O  O57  1  0.66272497  0.44177948  0.47588825  1
  O  O58  1  0.05853557  0.70175458  0.47638279  1
  O  O59  1  0.56225709  0.68502245  0.47655310  1
  O  O60  1  0.06726174  0.64427533  0.36777734  1
  O  O61  1  0.56618228  0.64370564  0.36713832  1
  O  O62  1  0.25591050  0.86813535  0.36419767  1
  O  O63  1  0.75200057  0.86641892  0.36878195  1
  O  O64  1  0.18072754  0.49491916  0.36863708  1
  O  O65  1  0.67764656  0.48249469  0.36449752  1
  O  O66  1  0.06720476  0.49120398  0.86775142  1
  O  O67  1  0.56701236  0.49126487  0.86790571  1
  O  O68  1  0.17813323  0.86581792  0.86750774  1
  O  O69  1  0.67831950  0.86617774  0.86749189  1
  O  O70  1  0.25685762  0.64306131  0.86391947  1
  O  O71  1  0.75680598  0.64291290  0.86391544  1
  O  O72  1  0.00022928  0.81643861  0.40429444  1
  O  O73  1  0.50090645  0.81054316  0.41234850  1
  O  O74  1  0.40081585  0.98459710  0.41323573  1
  O  O75  1  0.90792869  0.00287882  0.40366309  1
  O  O76  1  0.09372544  0.18384422  0.40435441  1
  O  O77  1  0.59909974  0.18619040  0.41372888  1
  O  O78  1  0.00007800  0.18545093  0.90428011  1
  O  O79  1  0.50006234  0.18529100  0.90432939  1
  O  O80  1  0.09271611  0.00043336  0.90433125  1
  O  O81  1  0.59261946  0.00025797  0.90436138  1
  O  O82  1  0.40849762  0.81593603  0.90405069  1
  O  O83  1  0.90850499  0.81569263  0.90400858  1
  O  O84  1  0.48237863  0.15697704  0.58893712  1
  O  O85  1  0.98193712  0.15604286  0.58890798  1
  O  O86  1  0.09546944  0.03541977  0.58839586  1
  O  O87  1  0.59585357  0.03602003  0.58794827  1
  O  O88  1  0.42146497  0.81025791  0.58879086  1
  O  O89  1  0.92282180  0.81036313  0.58903099  1
  O  O90  1  0.48220947  0.80829761  0.08850971  1
  O  O91  1  0.98303898  0.81001462  0.08788568  1
  O  O92  1  0.42158279  0.03293772  0.08856965  1
  O  O93  1  0.92179305  0.03444228  0.08850639  1
  O  O94  1  0.09409668  0.15501102  0.08746488  1
  O  O95  1  0.59588697  0.15532417  0.08877304  1
  O  O96  1  0.34163805  0.14124968  0.75311921  1
  O  O97  1  0.84145971  0.14089571  0.75316167  1
  O  O98  1  0.23307965  0.32776671  0.75228708  1
  O  O99  1  0.73291576  0.32715983  0.75224654  1
  O  O100  1  0.42322559  0.54750620  0.75137601  1
  O  O101  1  0.92330408  0.54728804  0.75134575  1
  O  O102  1  0.32976733  0.52665618  0.24725931  1
  O  O103  1  0.83714139  0.53384116  0.25241370  1
  O  O104  1  0.42732714  0.32401069  0.24302512  1
  O  O105  1  0.92750790  0.31193725  0.25383519  1
  O  O106  1  0.23360414  0.13689038  0.25255400  1
  O  O107  1  0.73374173  0.15109275  0.24530516  1
  O  O108  1  0.32359998  0.49901678  0.91935279  1
  O  O109  1  0.82340381  0.49867921  0.91940637  1
  O  O110  1  0.42559346  0.35175801  0.92016466  1
  O  O111  1  0.92577460  0.35280990  0.91985218  1
  O  O112  1  0.25103375  0.14808532  0.91979030  1
  O  O113  1  0.75052080  0.14868667  0.92002937  1
  O  O114  1  0.31896214  0.14367069  0.42087652  1
  O  O115  1  0.81976241  0.14580702  0.41999839  1
  O  O116  1  0.25366535  0.36414696  0.42052405  1
  O  O117  1  0.75644101  0.36119180  0.42003037  1
  O  O118  1  0.42472295  0.49416269  0.42143367  1
  O  O119  1  0.92703637  0.49970052  0.42000455  1
  O  O120  1  0.16620737  0.47526407  0.07472501  1
  O  O121  1  0.66863369  0.47598709  0.07664469  1
  O  O122  1  0.07130415  0.66698692  0.07518471  1
  O  O123  1  0.57102661  0.66739265  0.07521293  1
  O  O124  1  0.26159980  0.85876368  0.07609862  1
  O  O125  1  0.76233207  0.85872770  0.07509903  1
  O  O126  1  0.16571080  0.85706494  0.57746877  1
  O  O127  1  0.66675260  0.85944108  0.57696689  1
  O  O128  1  0.26142659  0.66293735  0.57723695  1
  O  O129  1  0.76313419  0.66462785  0.57923848  1
  O  O130  1  0.07037055  0.47432135  0.57771663  1
  O  O131  1  0.57077940  0.47497376  0.57656793  1
  O  O132  1  0.14713117  0.82050965  0.25685123  1
  O  O133  1  0.65374249  0.82613521  0.25512375  1
  O  O134  1  0.26023866  0.70975072  0.25354362  1
  O  O135  1  0.76219580  0.69950257  0.25809588  1
  O  O136  1  0.08846718  0.46967737  0.25768802  1
  O  O137  1  0.59058483  0.47776187  0.25379672  1
  O  O138  1  0.14927220  0.47686768  0.75683666  1
  O  O139  1  0.64931363  0.47674712  0.75685088  1
  O  O140  1  0.08615641  0.70116117  0.75748023  1
  O  O141  1  0.58610247  0.70099799  0.75757526  1
  O  O142  1  0.26490303  0.81695472  0.75668868  1
  O  O143  1  0.76480459  0.81684611  0.75675201  1
loop_
_geom_bond_atom_site_label_1
_geom_bond_atom_site_label_2
_geom_bond_distance
_geom_bond_site_symmetry_2
Na0 O106 2.384668 1_555
Na0 O134 2.424816 1_545
Na0 O104 2.493438 1_555
Na0 O32 2.596504 1_555
Na0 O132 2.773853 1_545
Na0 O62 2.924126 1_545
Na0 O18 2.925520 1_545
Na0 O4 2.943394 1_555
Na1 O103 2.389363 1_555
Na1 O107 2.424139 1_555
Na1 O137 2.502626 1_555
Na1 O35 2.588923 1_555
Na1 O135 2.726013 1_555
Na2 O98 2.339310 1_555
Na2 O100 2.360604 1_555
Na2 O142 2.399778 1_555
Na2 O138 2.659599 1_555
Na2 O28 2.659765 1_555
Na2 O70 2.880413 1_555
Na3 O99 2.339473 1_555
Na3 O101 2.362086 1_555
Na3 O143 2.403649 1_555
Na3 O29 2.588862 1_555
Na3 O139 2.657142 1_555
Na3 O71 2.883282 1_555
Na4 O130 2.375084 1_555
Na4 O56 2.433320 1_555
Na4 O86 2.502506 1_555
Na4 O128 2.523511 1_555
Na4 O85 2.775133 1_455
Na4 O42 2.904092 1_555
Na4 O14 2.905123 1_555
Na4 O28 2.983543 1_555
Na5 O131 2.368918 1_555
Na5 O57 2.455083 1_555
Na5 O87 2.499149 1_555
Na5 O129 2.543239 1_555
Na5 O84 2.765168 1_555
Na6 O126 2.361075 1_555
Na6 O58 2.447974 1_555
Na6 O89 2.489473 1_455
Na6 O130 2.576132 1_555
Na6 O86 2.767617 1_565
Na6 O45 2.841263 1_455
Na6 O16 2.903854 1_555
Na6 O25 2.921742 1_455
Na7 O127 2.374094 1_555
Na7 O59 2.476851 1_555
Na7 O88 2.520537 1_555
Na7 O131 2.567682 1_555
Na7 O87 2.776240 1_565
Na7 O44 2.890416 1_555
Na7 O17 2.911507 1_555
Na7 O24 2.911561 1_555
Na8 O128 2.377190 1_555
Na8 O84 2.517247 1_565
Na8 O54 2.526423 1_555
Na8 O126 2.556600 1_555
Na8 O88 2.752838 1_555
Na8 O46 2.890724 1_565
Na8 O26 2.939867 1_565
Na8 O12 2.945505 1_555
Na9 O129 2.397742 1_555
Na9 O55 2.438106 1_555
Na9 O85 2.483338 1_565
Na9 O127 2.561013 1_555
Na9 O89 2.781531 1_555
Na9 O47 2.892167 1_565
Na9 O27 2.910607 1_565
Na9 O13 2.934672 1_555
Na10 O122 2.359770 1_555
Na10 O52 2.443556 1_554
Na10 O94 2.518985 1_565
Na10 O124 2.546475 1_555
Na10 O91 2.750652 1_455
Na10 O36 2.906415 1_565
Na10 O22 2.916581 1_555
Na10 O32 2.998710 1_565
Na11 O123 2.374218 1_555
Na11 O53 2.460860 1_554
Na11 O95 2.497742 1_565
Na11 O125 2.553496 1_555
Na11 O90 2.781498 1_555
Na11 O37 2.872353 1_565
Na11 O33 2.888422 1_565
Na11 O23 2.998669 1_555
Na12 O124 2.390255 1_555
Na12 O90 2.504626 1_555
Na12 O48 2.525753 1_554
Na12 O120 2.550647 1_555
Na12 O92 2.757670 1_565
Na12 O34 2.903030 1_555
Na12 O38 2.906953 1_555
Na12 O18 3.030645 1_555
Na13 O125 2.373138 1_555
Na13 O91 2.508940 1_555
Na13 O49 2.513764 1_554
Na13 O121 2.525434 1_555
Na13 O93 2.756258 1_565
Na13 O39 2.907825 1_555
Na13 O19 2.914394 1_555
Na13 O35 3.000560 1_555
Na14 O120 2.371375 1_555
Na14 O50 2.446858 1_554
Na14 O93 2.505197 1_455
Na14 O122 2.557986 1_555
Na14 O94 2.771309 1_555
Na14 O41 2.872341 1_455
Na14 O31 2.915381 1_455
Na14 O20 2.934078 1_555
Na15 O121 2.396765 1_555
Na15 O51 2.466162 1_554
Na15 O92 2.513456 1_555
Na15 O123 2.568950 1_555
Na15 O95 2.781069 1_555
Na15 O21 2.878260 1_555
Na15 O40 2.878549 1_555
Na15 O30 2.901617 1_555
Na16 O77 2.289268 1_555
Na16 O1 2.526915 1_555
Na16 O115 2.528484 1_555
Na16 O73 2.570412 1_545
Na16 O117 2.689192 1_555
Na16 O63 2.839020 1_545
Na16 O43 2.884431 1_555
Na17 O73 2.373199 1_555
Na17 O2 2.455481 1_555
Na17 O74 2.460616 1_555
Na17 O116 2.520534 1_555
Na17 O118 2.652618 1_555
Na17 O64 2.843761 1_555
Na18 O72 2.629960 1_555
Na18 O76 2.647619 1_565
Na18 O75 2.664890 1_465
Na18 O86 2.698610 1_565
Na18 O89 2.704873 1_455
Na18 O85 2.728813 1_465
Na19 O74 2.412581 1_545
Na19 O77 2.418424 1_555
Na19 O73 2.589822 1_545
Na19 O84 2.707716 1_555
Na19 O87 2.811867 1_555
Na19 O88 2.843622 1_545
Na20 O94 2.639374 1_666
Na20 O91 2.655910 1_556
Na20 O83 2.671406 1_555
Na20 O93 2.672511 1_566
Na20 O80 2.681194 1_665
Na20 O78 2.684655 1_665
Na21 O92 2.665994 1_566
Na21 O90 2.666846 1_556
Na21 O95 2.669862 1_566
Na21 O82 2.676237 1_555
Na21 O81 2.684509 1_565
Na21 O79 2.689596 1_565
Na22 O96 2.462821 1_555
Na22 O112 2.535488 1_555
Na22 O110 2.554577 1_555
Na22 O98 2.607617 1_555
Na22 O100 2.639703 1_555
Na22 O108 2.669885 1_555
Na23 O97 2.466531 1_555
Na23 O113 2.540385 1_555
Na23 O111 2.549480 1_555
Na23 O99 2.606813 1_555
Na23 O101 2.639275 1_555
Na23 O109 2.666771 1_555
Na24 O106 2.483376 1_555
Na24 O102 2.500808 1_555
Na24 O104 2.584331 1_555
Na24 O118 2.681457 1_555
Na24 O116 2.703243 1_555
Na24 O114 2.750914 1_555
Na25 O105 2.346949 1_555
Na25 O103 2.500003 1_555
Na25 O119 2.580894 1_555
Na25 O107 2.667537 1_555
Na25 O115 2.673709 1_555
Na25 O117 2.742607 1_555
Na26 O134 2.554351 1_555
Na26 O136 2.584137 1_555
Na26 O132 2.666287 1_555
Na26 O120 2.677714 1_555
Na26 O122 2.705873 1_555
Na26 O124 2.776639 1_555
Na27 O133 2.497022 1_555
Na27 O137 2.597275 1_555
Na27 O123 2.672485 1_555
Na27 O135 2.687207 1_555
Na27 O125 2.692499 1_555
Na27 O121 2.793129 1_555
Na28 O140 2.564438 1_555
Na28 O138 2.624878 1_555
Na28 O142 2.651177 1_555
Na28 O126 2.662862 1_555
Na28 O130 2.669527 1_555
Na28 O128 2.785581 1_555
Na29 O141 2.561819 1_555
Na29 O139 2.620253 1_555
Na29 O143 2.649308 1_555
Na29 O127 2.685683 1_555
Na29 O131 2.687476 1_555
Na29 O129 2.771911 1_555
Ca0 O4 2.123033 1_555
Ca0 O1 2.178897 1_555
Ca0 O2 2.190945 1_545
Ca0 O74 2.253778 1_545
Ca0 O77 2.262657 1_555
Ca0 O73 2.291252 1_545
Ca1 O26 2.193390 1_555
Ca1 O24 2.199278 1_555
Ca1 O96 2.255997 1_555
Ca1 O28 2.291568 1_555
Ca1 O100 2.316626 1_555
Ca1 O98 2.320158 1_555
Ca2 O27 2.186945 1_555
Ca2 O25 2.195603 1_555
Ca2 O97 2.249647 1_555
Ca2 O29 2.288318 1_555
Ca2 O99 2.316071 1_555
Ca2 O101 2.316848 1_555
Ca3 O34 2.167370 1_555
Ca3 O30 2.204051 1_555
Ca3 O102 2.217645 1_555
Ca3 O104 2.244862 1_555
Ca3 O32 2.271164 1_555
Ca3 O106 2.351845 1_555
Ca4 O31 2.171920 1_555
Ca4 O33 2.199987 1_555
Ca4 O107 2.237878 1_555
Ca4 O105 2.269408 1_555
Ca4 O35 2.299737 1_555
Ca4 O103 2.347205 1_555
Ca5 O48 2.225920 1_554
Ca5 O52 2.238507 1_554
Ca5 O50 2.238685 1_554
Ca5 O122 2.337079 1_555
Ca5 O120 2.341957 1_555
Ca5 O124 2.347290 1_555
Ca6 O49 2.226102 1_554
Ca6 O51 2.236414 1_554
Ca6 O53 2.244596 1_554
Ca6 O125 2.336076 1_555
Ca6 O123 2.341030 1_555
Ca6 O121 2.371577 1_555
Ca7 O54 2.161696 1_555
Ca7 O58 2.219460 1_555
Ca7 O56 2.237692 1_555
Ca7 O130 2.274663 1_555
Ca7 O126 2.357278 1_555
Ca7 O128 2.392302 1_555
Ca8 O57 2.166197 1_555
Ca8 O59 2.195836 1_555
Ca8 O55 2.234686 1_555
Ca8 O129 2.319045 1_555
Ca8 O127 2.328082 1_555
Ca8 O131 2.344911 1_555
Hf0 O5 1.990582 1_565
Hf0 O3 2.010049 1_455
Hf0 O0 2.011661 1_555
Hf0 O72 2.060687 1_555
Hf0 O76 2.080914 1_565
Hf0 O75 2.085343 1_465
Hf1 O9 2.020883 1_545
Hf1 O11 2.022458 1_445
Hf1 O6 2.023865 1_555
Hf1 O80 2.045188 1_555
Hf1 O78 2.047382 1_555
Hf1 O83 2.061759 1_445
Hf2 O8 2.020072 1_545
Hf2 O10 2.021673 1_545
Hf2 O7 2.022638 1_555
Hf2 O81 2.045659 1_555
Hf2 O79 2.047757 1_555
Hf2 O82 2.062429 1_545
Hf3 O14 2.050074 1_555
Hf3 O16 2.052292 1_545
Hf3 O13 2.066741 1_445
Hf3 O86 2.129747 1_555
Hf3 O85 2.140695 1_455
Hf3 O89 2.149819 1_445
Hf4 O15 2.057565 1_555
Hf4 O17 2.058221 1_545
Hf4 O12 2.068152 1_545
Hf4 O87 2.133320 1_555
Hf4 O84 2.133674 1_555
Hf4 O88 2.146634 1_545
Hf5 O20 2.049883 1_665
Hf5 O22 2.069150 1_655
Hf5 O19 2.070187 1_555
Hf5 O93 2.146794 1_565
Hf5 O94 2.147828 1_665
Hf5 O91 2.150656 1_555
Hf6 O23 2.036559 1_555
Hf6 O18 2.047484 1_555
Hf6 O21 2.066331 1_565
Hf6 O90 2.140529 1_555
Hf6 O95 2.162252 1_565
Hf6 O92 2.171207 1_565
Hf7 O38 2.091734 1_556
Hf7 O108 2.095352 1_555
Hf7 O112 2.096745 1_555
Hf7 O110 2.097989 1_555
Hf7 O36 2.099263 1_556
Hf7 O40 2.126851 1_556
Hf8 O113 2.095398 1_555
Hf8 O39 2.096662 1_556
Hf8 O111 2.097937 1_555
Hf8 O109 2.101301 1_555
Hf8 O41 2.106335 1_556
Hf8 O37 2.106381 1_556
Hf9 O114 2.052174 1_555
Hf9 O42 2.073888 1_555
Hf9 O46 2.079783 1_555
Hf9 O118 2.098340 1_555
Hf9 O116 2.128637 1_555
Hf9 O44 2.164234 1_555
Hf10 O119 2.065012 1_555
Hf10 O117 2.073321 1_555
Hf10 O45 2.091022 1_555
Hf10 O47 2.094236 1_555
Hf10 O115 2.132461 1_555
Hf10 O43 2.150615 1_555
Hf11 O60 2.056134 1_555
Hf11 O64 2.085959 1_555
Hf11 O136 2.085986 1_555
Hf11 O62 2.091326 1_555
Hf11 O132 2.112500 1_555
Hf11 O134 2.139584 1_555
Hf12 O61 2.060030 1_555
Hf12 O63 2.083827 1_555
Hf12 O133 2.107807 1_555
Hf12 O65 2.115974 1_555
Hf12 O135 2.122063 1_555
Hf12 O137 2.131252 1_555
Hf13 O66 2.030455 1_555
Hf13 O68 2.037887 1_555
Hf13 O70 2.090563 1_555
Hf13 O140 2.122385 1_555
Hf13 O138 2.145215 1_555
Hf13 O142 2.173229 1_555
Hf14 O67 2.032548 1_555
Hf14 O69 2.039745 1_555
Hf14 O71 2.089112 1_555
Hf14 O141 2.122444 1_555
Hf14 O139 2.145860 1_555
Hf14 O143 2.172388 1_555
O0 P0 1.529222 1_555
O1 P1 1.510012 1_545
O2 P2 1.504540 1_555
O3 P3 1.529518 1_555
O4 P5 1.494480 1_555
O5 P4 1.530861 1_555
O6 P6 1.520957 1_555
O7 P7 1.521730 1_555
O8 P9 1.527176 1_555
O9 P8 1.526559 1_555
O10 P10 1.526085 1_555
O11 P11 1.524987 1_555
O12 P10 1.594659 1_555
O13 P11 1.594641 1_555
O14 P6 1.585782 1_555
O15 P7 1.584830 1_555
O16 P8 1.588817 1_555
O17 P9 1.588498 1_555
O18 P2 1.613000 1_555
O19 P3 1.583454 1_555
O20 P4 1.587564 1_555
O21 P5 1.606372 1_555
O22 P0 1.583292 1_555
O23 P1 1.605470 1_555
O24 P12 1.511194 1_555
O25 P13 1.509763 1_555
O26 P14 1.509505 1_555
O27 P15 1.509657 1_555
O28 P16 1.521865 1_555
O29 P17 1.519613 1_555
O30 P18 1.500212 1_555
O31 P19 1.504993 1_555
O32 P20 1.518129 1_555
O33 P21 1.505109 1_555
O34 P22 1.499633 1_555
O35 P23 1.518859 1_555
O36 P22 1.578469 1_555
O37 P23 1.580072 1_555
O38 P18 1.579506 1_555
O39 P19 1.576435 1_555
O40 P20 1.578812 1_555
O41 P21 1.579266 1_555
O42 P14 1.577723 1_555
O43 P15 1.581576 1_555
O44 P16 1.581473 1_555
O45 P17 1.581435 1_555
O46 P12 1.581093 1_555
O47 P13 1.576780 1_555
O48 P24 1.515929 1_555
O49 P25 1.515772 1_555
O50 P26 1.514382 1_555
O51 P27 1.515203 1_555
O52 P28 1.514721 1_555
O53 P29 1.515253 1_555
O54 P30 1.524995 1_555
O55 P31 1.518468 1_555
O56 P32 1.520028 1_555
O57 P33 1.516511 1_555
O58 P34 1.518730 1_555
O59 P35 1.521946 1_555
O60 P34 1.559536 1_555
O61 P35 1.573941 1_555
O62 P30 1.579378 1_555
O63 P31 1.570669 1_555
O64 P32 1.567431 1_555
O65 P33 1.579165 1_555
O66 P26 1.571529 1_555
O67 P27 1.571179 1_555
O68 P28 1.571678 1_555
O69 P29 1.571701 1_555
O70 P24 1.576265 1_555
O71 P25 1.576676 1_555
O72 P34 1.548706 1_555
O73 P35 1.532866 1_555
O74 P30 1.524381 1_555
O75 P31 1.543339 1_545
O76 P32 1.543256 1_555
O77 P33 1.528812 1_555
O78 P26 1.549824 1_555
O79 P27 1.549417 1_555
O80 P28 1.549361 1_545
O81 P29 1.549754 1_545
O82 P24 1.552580 1_555
O83 P25 1.552990 1_555
O84 P12 1.588290 1_555
O85 P13 1.587162 1_555
O86 P14 1.588883 1_555
O87 P15 1.587984 1_555
O88 P16 1.589062 1_555
O89 P17 1.585526 1_555
O90 P18 1.594897 1_555
O91 P19 1.590964 1_555
O92 P20 1.590199 1_555
O93 P21 1.593407 1_555
O94 P22 1.591024 1_555
O95 P23 1.590676 1_555
O96 P10 1.506859 1_545
O97 P11 1.507519 1_545
O98 P6 1.525398 1_555
O99 P7 1.526031 1_555
O100 P9 1.525305 1_555
O101 P8 1.524871 1_655
O102 P2 1.510925 1_555
O103 P3 1.523755 1_555
O104 P5 1.519717 1_555
O105 P4 1.510539 1_655
O106 P0 1.523793 1_545
O107 P1 1.524445 1_545
O108 P24 1.562576 1_555
O109 P25 1.561615 1_555
O110 P27 1.558838 1_555
O111 P26 1.558359 1_655
O112 P28 1.558562 1_545
O113 P29 1.558809 1_545
O114 P30 1.568685 1_545
O115 P31 1.572331 1_545
O116 P32 1.571475 1_555
O117 P33 1.583598 1_555
O118 P35 1.569500 1_555
O119 P34 1.563301 1_655
O120 P22 1.538612 1_555
O121 P23 1.538351 1_555
O122 P19 1.536325 1_455
O123 P18 1.539225 1_555
O124 P20 1.538575 1_565
O125 P21 1.538519 1_565
O126 P14 1.535400 1_565
O127 P15 1.536983 1_565
O128 P16 1.538906 1_555
O129 P17 1.534551 1_555
O130 P13 1.534183 1_455
O131 P12 1.533647 1_555
O132 P0 1.564675 1_555
O133 P1 1.565776 1_555
O134 P2 1.588314 1_555
O135 P3 1.563562 1_555
O136 P4 1.559062 1_555
O137 P5 1.578328 1_555
O138 P6 1.566364 1_555
O139 P7 1.567276 1_555
O140 P8 1.553723 1_555
O141 P9 1.554109 1_555
O142 P10 1.572741 1_555
O143 P11 1.571795 1_555
