# generated using pymatgen
data_Na2Mg2Si3Sn6(S3O16)3
_symmetry_space_group_name_H-M   'P 1'
_cell_length_a   17.57341142
_cell_length_b   8.79200540
_cell_length_c   22.90207428
_cell_angle_alpha   89.97627542
_cell_angle_beta   89.73380676
_cell_angle_gamma   120.05955122
_symmetry_Int_Tables_number   1
_chemical_formula_structural   Na2Mg2Si3Sn6(S3O16)3
_chemical_formula_sum   'Na6 Mg6 Si9 Sn18 S27 O144'
_cell_volume   3062.53940174
_cell_formula_units_Z   3
loop_
 _symmetry_equiv_pos_site_id
 _symmetry_equiv_pos_as_xyz
  1  'x, y, z'
loop_
 _atom_site_type_symbol
 _atom_site_label
 _atom_site_symmetry_multiplicity
 _atom_site_fract_x
 _atom_site_fract_y
 _atom_site_fract_z
 _atom_site_occupancy
  Na  Na0  1  0.00132315  0.99255685  0.49543074  1
  Na  Na1  1  0.50002025  0.00852851  0.99855334  1
  Na  Na2  1  0.32992661  0.32632798  0.83642012  1
  Na  Na3  1  0.83436426  0.33362954  0.83595619  1
  Na  Na4  1  0.32815177  0.32623204  0.33250729  1
  Na  Na5  1  0.83124409  0.33513405  0.33489371  1
  Mg  Mg0  1  0.00547224  0.99339127  0.35322470  1
  Mg  Mg1  1  0.49961416  0.00707246  0.85574472  1
  Mg  Mg2  1  0.00426663  0.00924717  0.64857066  1
  Mg  Mg3  1  0.50271118  0.99785423  0.15037175  1
  Mg  Mg4  1  0.83407669  0.33354724  0.98323014  1
  Mg  Mg5  1  0.33219970  0.33193991  0.47971915  1
  Si  Si0  1  0.14525542  0.00135784  0.25267500  1
  Si  Si1  1  0.64382277  0.99530885  0.24744118  1
  Si  Si2  1  0.14402678  0.29345636  0.74753887  1
  Si  Si3  1  0.68872670  0.03986238  0.58222473  1
  Si  Si4  1  0.18755044  0.33573024  0.08194503  1
  Si  Si5  1  0.52012225  0.37029648  0.91790035  1
  Si  Si6  1  0.16576411  0.95044917  0.91667609  1
  Si  Si7  1  0.66418494  0.37896076  0.41612944  1
  Si  Si8  1  0.01999904  0.67115611  0.41739462  1
  Sn  Sn0  1  0.50818128  0.01165794  0.35253836  1
  Sn  Sn1  1  0.00967591  0.00703935  0.85426546  1
  Sn  Sn2  1  0.50271681  0.00137761  0.64474939  1
  Sn  Sn3  1  0.00928640  0.00600430  0.14770035  1
  Sn  Sn4  1  0.32671162  0.32826188  0.68458503  1
  Sn  Sn5  1  0.83318112  0.32917271  0.68138594  1
  Sn  Sn6  1  0.32608818  0.32941505  0.18533939  1
  Sn  Sn7  1  0.82930032  0.32728068  0.18617813  1
  Sn  Sn8  1  0.32904531  0.32027802  0.97901540  1
  Sn  Sn9  1  0.82856177  0.33638648  0.47693098  1
  Sn  Sn10  1  0.16560622  0.66737536  0.02216190  1
  Sn  Sn11  1  0.66384173  0.66002164  0.02119088  1
  Sn  Sn12  1  0.16476076  0.66846945  0.51699753  1
  Sn  Sn13  1  0.66605914  0.66770001  0.51908644  1
  Sn  Sn14  1  0.16029838  0.66949343  0.31179072  1
  Sn  Sn15  1  0.66766373  0.66751030  0.31166995  1
  Sn  Sn16  1  0.16722018  0.66516937  0.81357457  1
  Sn  Sn17  1  0.66305030  0.66342822  0.81573475  1
  S  S0  1  0.35526292  0.71280359  0.25066761  1
  S  S1  1  0.85697584  0.71387612  0.24949369  1
  S  S2  1  0.99957863  0.28805233  0.25101824  1
  S  S3  1  0.49903355  0.28977324  0.24801512  1
  S  S4  1  0.64579761  0.29109399  0.75123166  1
  S  S5  1  0.99834135  0.70764168  0.74818662  1
  S  S6  1  0.50028553  0.71097228  0.75113692  1
  S  S7  1  0.35751079  0.00130035  0.74985463  1
  S  S8  1  0.85427538  0.99751602  0.75082114  1
  S  S9  1  0.47580424  0.33249711  0.58303781  1
  S  S10  1  0.98012772  0.33089039  0.58210106  1
  S  S11  1  0.18715000  0.04100021  0.58092637  1
  S  S12  1  0.33216509  0.62430573  0.58133390  1
  S  S13  1  0.83571513  0.63134397  0.58364457  1
  S  S14  1  0.47807448  0.62629984  0.08345926  1
  S  S15  1  0.97529809  0.62080350  0.08296718  1
  S  S16  1  0.33647200  0.04127032  0.08400316  1
  S  S17  1  0.83387633  0.04059302  0.08195385  1
  S  S18  1  0.68740426  0.33143637  0.08159022  1
  S  S19  1  0.31442246  0.66988708  0.91672581  1
  S  S20  1  0.81350442  0.66715237  0.91633126  1
  S  S21  1  0.01751985  0.37305694  0.91711022  1
  S  S22  1  0.66796751  0.96200710  0.91700312  1
  S  S23  1  0.31391998  0.95999545  0.41599499  1
  S  S24  1  0.81486222  0.95859807  0.41606678  1
  S  S25  1  0.16782854  0.37635160  0.41592089  1
  S  S26  1  0.51764577  0.66271787  0.41655284  1
  O  O0  1  0.10491652  0.04283956  0.30739397  1
  O  O1  1  0.60766632  0.03787931  0.30803654  1
  O  O2  1  0.40885846  0.78915442  0.30514359  1
  O  O3  1  0.90880325  0.78957904  0.30136730  1
  O  O4  1  0.47896716  0.18135464  0.30270517  1
  O  O5  1  0.98191468  0.17870049  0.30274072  1
  O  O6  1  0.10731993  0.17688081  0.80775660  1
  O  O7  1  0.60621480  0.18015767  0.80199819  1
  O  O8  1  0.48558544  0.79034668  0.80244571  1
  O  O9  1  0.97779222  0.77507872  0.80233632  1
  O  O10  1  0.41132913  0.02980511  0.80072165  1
  O  O11  1  0.90683501  0.02755451  0.80481446  1
  O  O12  1  0.39598137  0.97073948  0.69479630  1
  O  O13  1  0.89143211  0.96819553  0.69851041  1
  O  O14  1  0.08612539  0.20615685  0.69194349  1
  O  O15  1  0.59279485  0.21812510  0.69726651  1
  O  O16  1  0.01007009  0.81196511  0.69652862  1
  O  O17  1  0.51457189  0.81623609  0.69672301  1
  O  O18  1  0.39312429  0.81861542  0.19857794  1
  O  O19  1  0.89335767  0.81880868  0.19462707  1
  O  O20  1  0.01162620  0.21269388  0.19598859  1
  O  O21  1  0.51190099  0.20881013  0.19690183  1
  O  O22  1  0.08757412  0.95784419  0.19230068  1
  O  O23  1  0.58669329  0.96654659  0.19154305  1
  O  O24  1  0.43743435  0.36503250  0.63840015  1
  O  O25  1  0.94396870  0.37071641  0.63670395  1
  O  O26  1  0.24239002  0.11500525  0.63565032  1
  O  O27  1  0.74664811  0.11918239  0.64238821  1
  O  O28  1  0.31641093  0.51868064  0.63629455  1
  O  O29  1  0.81787940  0.51841297  0.63775891  1
  O  O30  1  0.44125178  0.51359345  0.13624870  1
  O  O31  1  0.93705411  0.50915551  0.13727742  1
  O  O32  1  0.31994335  0.12000623  0.13605733  1
  O  O33  1  0.81552244  0.11432146  0.13544702  1
  O  O34  1  0.24918429  0.38012315  0.13930462  1
  O  O35  1  0.74271920  0.36777530  0.13508295  1
  O  O36  1  0.23182807  0.29948851  0.02510590  1
  O  O37  1  0.72970058  0.30655745  0.03002242  1
  O  O38  1  0.42514798  0.54485879  0.03022810  1
  O  O39  1  0.92169990  0.53782821  0.03136448  1
  O  O40  1  0.35355619  0.15157642  0.03058764  1
  O  O41  1  0.84765329  0.15025287  0.03049499  1
  O  O42  1  0.23020020  0.15405654  0.53079307  1
  O  O43  1  0.73342609  0.16700720  0.52699193  1
  O  O44  1  0.34805110  0.54366712  0.53109284  1
  O  O45  1  0.85265396  0.55243106  0.53222542  1
  O  O46  1  0.42166019  0.30340190  0.53238674  1
  O  O47  1  0.92450168  0.30458801  0.53117960  1
  O  O48  1  0.27487961  0.69999761  0.96923024  1
  O  O49  1  0.77526127  0.70288550  0.96871709  1
  O  O50  1  0.07372388  0.44875004  0.96847694  1
  O  O51  1  0.58381639  0.46160683  0.97459982  1
  O  O52  1  0.14951890  0.83074320  0.97463572  1
  O  O53  1  0.65276550  0.85011017  0.96972778  1
  O  O54  1  0.27721799  0.84998048  0.47034822  1
  O  O55  1  0.77540425  0.85069084  0.47013871  1
  O  O56  1  0.15328837  0.45605940  0.47109168  1
  O  O57  1  0.64897178  0.46503171  0.47572407  1
  O  O58  1  0.08128348  0.70807111  0.47641955  1
  O  O59  1  0.57378139  0.69986409  0.46933358  1
  O  O60  1  0.06049260  0.61857153  0.36169968  1
  O  O61  1  0.55763754  0.63189018  0.36421069  1
  O  O62  1  0.25830754  0.88005703  0.36449511  1
  O  O63  1  0.75794819  0.88199860  0.36452049  1
  O  O64  1  0.18606461  0.49129438  0.36388981  1
  O  O65  1  0.68413245  0.50222056  0.35817726  1
  O  O66  1  0.05657266  0.48181399  0.86340847  1
  O  O67  1  0.56050933  0.49675725  0.85863494  1
  O  O68  1  0.18435452  0.86802736  0.85713342  1
  O  O69  1  0.68710065  0.88621063  0.86314548  1
  O  O70  1  0.25883216  0.63418170  0.86374698  1
  O  O71  1  0.75776793  0.63367411  0.86263393  1
  O  O72  1  0.00814689  0.83841748  0.41340868  1
  O  O73  1  0.50808538  0.81941954  0.40969578  1
  O  O74  1  0.40051558  0.97276730  0.40816108  1
  O  O75  1  0.90145062  0.97775498  0.40898116  1
  O  O76  1  0.08703921  0.20662319  0.41114081  1
  O  O77  1  0.57599956  0.18857703  0.41115732  1
  O  O78  1  0.00752276  0.19611629  0.90943911  1
  O  O79  1  0.51159981  0.18228698  0.91090743  1
  O  O80  1  0.07658320  0.96193872  0.91139452  1
  O  O81  1  0.58790421  0.97092450  0.90875515  1
  O  O82  1  0.40138258  0.82484431  0.90861707  1
  O  O83  1  0.89952728  0.82799531  0.90707110  1
  O  O84  1  0.48380913  0.17291599  0.59230931  1
  O  O85  1  0.98635959  0.17226310  0.58962206  1
  O  O86  1  0.09970490  0.01953715  0.58946566  1
  O  O87  1  0.59235556  0.02282070  0.59166078  1
  O  O88  1  0.41035565  0.80108595  0.59082515  1
  O  O89  1  0.91348478  0.80475683  0.59229868  1
  O  O90  1  0.48657274  0.79987041  0.08917181  1
  O  O91  1  0.98153550  0.79286366  0.09023134  1
  O  O92  1  0.41395202  0.02149609  0.09104195  1
  O  O93  1  0.91005981  0.01807527  0.09140222  1
  O  O94  1  0.09012678  0.16500702  0.08881084  1
  O  O95  1  0.59941370  0.17921824  0.08895395  1
  O  O96  1  0.34964413  0.16294685  0.74192662  1
  O  O97  1  0.84511895  0.16014586  0.74638695  1
  O  O98  1  0.24534133  0.31576418  0.74505182  1
  O  O99  1  0.73643838  0.31266204  0.74426745  1
  O  O100  1  0.42232118  0.53122981  0.74299765  1
  O  O101  1  0.91647224  0.52198500  0.74314545  1
  O  O102  1  0.34952284  0.53658921  0.24600106  1
  O  O103  1  0.84829009  0.53465517  0.24207176  1
  O  O104  1  0.42085764  0.31505986  0.24261709  1
  O  O105  1  0.92122942  0.31395130  0.24316701  1
  O  O106  1  0.24639227  0.17590465  0.24592744  1
  O  O107  1  0.74485827  0.17486531  0.24477629  1
  O  O108  1  0.32205127  0.51043927  0.92234069  1
  O  O109  1  0.82177311  0.51032472  0.92338688  1
  O  O110  1  0.42648533  0.36708910  0.92438733  1
  O  O111  1  0.93037902  0.35654077  0.92404490  1
  O  O112  1  0.25222267  0.14471138  0.91957024  1
  O  O113  1  0.74683148  0.13571967  0.92371502  1
  O  O114  1  0.32248763  0.13381050  0.42456693  1
  O  O115  1  0.82116131  0.13233911  0.42280332  1
  O  O116  1  0.24675253  0.36051019  0.42418953  1
  O  O117  1  0.75102636  0.35900266  0.41993600  1
  O  O118  1  0.43117639  0.50468202  0.42497009  1
  O  O119  1  0.92609875  0.48491944  0.42487682  1
  O  O120  1  0.17784532  0.50963276  0.07341314  1
  O  O121  1  0.68233740  0.49718328  0.07712976  1
  O  O122  1  0.06346803  0.63968651  0.07823597  1
  O  O123  1  0.56780996  0.64522388  0.07743320  1
  O  O124  1  0.25564114  0.86927487  0.07681647  1
  O  O125  1  0.75248866  0.86192236  0.07473627  1
  O  O126  1  0.18210100  0.86626218  0.57695544  1
  O  O127  1  0.67687206  0.84543381  0.57414248  1
  O  O128  1  0.25298195  0.64345756  0.57517953  1
  O  O129  1  0.75505268  0.64170131  0.57752620  1
  O  O130  1  0.06866346  0.49041410  0.57702970  1
  O  O131  1  0.56420207  0.48813042  0.57875088  1
  O  O132  1  0.15983763  0.83105472  0.25522715  1
  O  O133  1  0.65729375  0.82624078  0.25935102  1
  O  O134  1  0.26600261  0.68623251  0.25979118  1
  O  O135  1  0.76745148  0.68928936  0.25414248  1
  O  O136  1  0.07991025  0.46177609  0.25548808  1
  O  O137  1  0.57809658  0.46398474  0.25646149  1
  O  O138  1  0.15767180  0.48972743  0.75933044  1
  O  O139  1  0.65734390  0.47064206  0.75647802  1
  O  O140  1  0.07562526  0.68752188  0.75632969  1
  O  O141  1  0.58113159  0.69587681  0.75543524  1
  O  O142  1  0.26897087  0.84618973  0.75415203  1
  O  O143  1  0.76364659  0.83945527  0.75916224  1
loop_
_geom_bond_atom_site_label_1
_geom_bond_atom_site_label_2
_geom_bond_distance
_geom_bond_site_symmetry_2
Na0 O72 2.354234 1_555
Na0 O76 2.582163 1_565
Na0 O75 2.611686 1_455
Na0 O86 2.703241 1_565
Na0 O89 2.728093 1_455
Na0 O85 2.762727 1_465
Na1 O79 2.467106 1_555
Na1 O92 2.632597 1_556
Na1 O95 2.645678 1_556
Na1 O82 2.662096 1_545
Na1 O81 2.684507 1_545
Na1 O90 2.699330 1_546
Na2 O112 2.414478 1_555
Na2 O98 2.547072 1_555
Na2 O110 2.547486 1_555
Na2 O108 2.595376 1_555
Na2 O96 2.713117 1_555
Na2 O100 2.737463 1_555
Na3 O111 2.578568 1_555
Na3 O113 2.592373 1_555
Na3 O109 2.610468 1_555
Na3 O97 2.618752 1_555
Na3 O101 2.630057 1_555
Na3 O99 2.668513 1_555
Na4 O106 2.422640 1_555
Na4 O102 2.603999 1_555
Na4 O116 2.636350 1_555
Na4 O104 2.651651 1_555
Na4 O114 2.672744 1_555
Na4 O118 2.723297 1_555
Na5 O117 2.468967 1_555
Na5 O107 2.537372 1_555
Na5 O119 2.568036 1_555
Na5 O115 2.634585 1_555
Na5 O103 2.674057 1_555
Na5 O105 2.685688 1_555
Mg0 O0 1.888433 1_565
Mg0 O72 1.954922 1_555
Mg0 O3 2.116202 1_455
Mg0 O76 2.157836 1_565
Mg0 O75 2.171985 1_455
Mg0 O5 2.200264 1_465
Mg1 O79 1.921594 1_555
Mg1 O82 2.054599 1_545
Mg1 O10 2.088914 1_555
Mg1 O7 2.112204 1_555
Mg1 O81 2.119770 1_545
Mg1 O8 2.171557 1_545
Mg2 O14 1.890246 1_555
Mg2 O16 2.098078 1_545
Mg2 O85 2.104756 1_455
Mg2 O86 2.116650 1_555
Mg2 O89 2.141492 1_445
Mg2 O13 2.152170 1_445
Mg3 O23 1.887503 1_555
Mg3 O21 2.074809 1_565
Mg3 O18 2.085546 1_555
Mg3 O90 2.141504 1_555
Mg3 O92 2.160259 1_565
Mg3 O95 2.161094 1_565
Mg4 O39 2.014676 1_556
Mg4 O37 2.028462 1_556
Mg4 O41 2.052267 1_556
Mg4 O111 2.092356 1_555
Mg4 O113 2.140928 1_555
Mg4 O109 2.162957 1_555
Mg5 O42 2.048836 1_555
Mg5 O118 2.058131 1_555
Mg5 O116 2.081002 1_555
Mg5 O114 2.089244 1_555
Mg5 O46 2.098090 1_555
Mg5 O44 2.100592 1_555
O0 Si0 1.567521 1_555
O1 Si1 1.643218 1_545
O1 Sn0 1.930772 1_555
O2 S0 1.507472 1_555
O2 Sn0 2.156469 1_565
O3 S1 1.444756 1_555
O4 S3 1.503308 1_555
O4 Sn0 2.136227 1_555
O5 S2 1.456199 1_555
O6 Si2 1.642184 1_555
O6 Sn1 1.929648 1_555
O7 S4 1.448730 1_555
O8 S6 1.453621 1_555
O9 S5 1.493598 1_555
O9 Sn1 2.179667 1_665
O10 S7 1.444802 1_555
O11 S8 1.489452 1_545
O11 Sn1 2.219635 1_655
O12 S7 1.514458 1_565
O12 Sn2 2.092404 1_565
O13 S8 1.445580 1_555
O14 Si2 1.573559 1_555
O15 S4 1.489751 1_555
O15 Sn2 2.140439 1_555
O16 S5 1.445985 1_455
O17 S6 1.495295 1_555
O17 Sn2 2.109567 1_565
O18 S0 1.450145 1_555
O19 S1 1.496500 1_555
O19 Sn3 2.152529 1_665
O20 S2 1.486901 1_455
O20 Sn3 2.110501 1_555
O21 S3 1.444860 1_555
O22 Si0 1.646414 1_565
O22 Sn3 1.926575 1_565
O23 Si1 1.571186 1_555
O24 S9 1.526329 1_555
O24 Sn4 2.088006 1_555
O25 S10 1.518573 1_555
O25 Sn5 2.059086 1_555
O26 S11 1.521734 1_555
O26 Sn4 2.049646 1_555
O27 Si3 1.650345 1_555
O27 Sn5 1.928765 1_555
O28 S12 1.503874 1_555
O28 Sn4 2.088695 1_555
O29 S13 1.517767 1_555
O29 Sn5 2.070790 1_555
O30 S14 1.487167 1_555
O30 Sn6 2.162465 1_555
O31 S15 1.514148 1_555
O31 Sn7 2.083823 1_555
O32 S16 1.477733 1_555
O32 Sn6 2.116354 1_555
O33 S17 1.493835 1_555
O33 Sn7 2.112919 1_555
O34 Si4 1.625209 1_555
O34 Sn6 1.937317 1_555
O35 S18 1.499372 1_555
O35 Sn7 2.090457 1_555
O36 Si4 1.625056 1_555
O36 Sn8 1.933041 1_554
O37 S18 1.466303 1_555
O38 S14 1.485961 1_555
O38 Sn8 2.192312 1_554
O39 S15 1.462442 1_555
O40 S16 1.493692 1_555
O40 Sn8 2.103290 1_554
O41 S17 1.462745 1_555
O42 S11 1.454741 1_555
O43 Si3 1.605195 1_555
O43 Sn9 1.952903 1_555
O44 S12 1.449307 1_555
O45 S13 1.470049 1_555
O45 Sn9 2.142944 1_555
O46 S9 1.443288 1_555
O47 S10 1.467464 1_555
O47 Sn9 2.226136 1_555
O48 S19 1.475018 1_555
O48 Sn10 2.160022 1_556
O49 S20 1.481247 1_555
O49 Sn11 2.158386 1_556
O50 S21 1.468097 1_555
O50 Sn10 2.173636 1_556
O51 Si5 1.642476 1_555
O51 Sn11 1.928015 1_556
O52 Si6 1.626489 1_555
O52 Sn10 1.932886 1_556
O53 S22 1.493324 1_555
O53 Sn11 2.132255 1_556
O54 S23 1.505878 1_555
O54 Sn12 2.100765 1_555
O55 S24 1.498811 1_555
O55 Sn13 2.102116 1_555
O56 S25 1.526440 1_555
O56 Sn12 2.063968 1_555
O57 Si7 1.645313 1_555
O57 Sn13 1.928635 1_555
O58 Si8 1.660206 1_555
O58 Sn12 1.913370 1_555
O59 S26 1.493201 1_555
O59 Sn13 2.117618 1_555
O60 Si8 1.633631 1_555
O60 Sn14 1.943576 1_555
O61 S26 1.479064 1_555
O61 Sn15 2.157776 1_555
O62 S23 1.470877 1_555
O62 Sn14 2.162765 1_555
O63 S24 1.477957 1_555
O63 Sn15 2.135623 1_555
O64 S25 1.488266 1_555
O64 Sn14 2.190319 1_555
O65 Si7 1.634849 1_555
O65 Sn15 1.937271 1_555
O66 S21 1.493882 1_555
O66 Sn16 2.125993 1_555
O67 Si5 1.667768 1_555
O67 Sn17 1.922713 1_555
O68 Si6 1.650831 1_555
O68 Sn16 1.932119 1_555
O69 S22 1.516525 1_555
O69 Sn17 2.090650 1_555
O70 S19 1.493038 1_555
O70 Sn16 2.107789 1_555
O71 S20 1.510314 1_555
O71 Sn17 2.108387 1_555
O72 Si8 1.587822 1_555
O73 S26 1.477484 1_555
O73 Sn0 2.136699 1_565
O74 S23 1.478807 1_555
O74 Sn0 2.156079 1_565
O75 S24 1.452950 1_555
O76 S25 1.460694 1_555
O77 Si7 1.618490 1_555
O77 Sn0 1.949776 1_555
O78 S21 1.486114 1_555
O78 Sn1 2.103773 1_555
O79 Si5 1.591495 1_555
O80 Si6 1.625220 1_555
O80 Sn1 1.931965 1_565
O81 S22 1.460959 1_555
O82 S19 1.461972 1_555
O83 S20 1.478239 1_555
O83 Sn1 2.147444 1_665
O84 S9 1.493703 1_555
O84 Sn2 2.081243 1_555
O85 S10 1.462773 1_555
O86 S11 1.463558 1_555
O87 Si3 1.636978 1_555
O87 Sn2 1.918267 1_555
O88 S12 1.488148 1_555
O88 Sn2 2.101828 1_565
O89 S13 1.465249 1_555
O90 S14 1.462953 1_555
O91 S15 1.470503 1_555
O91 Sn3 2.138742 1_665
O92 S16 1.466048 1_555
O93 S17 1.465127 1_555
O93 Sn3 2.218221 1_655
O94 Si4 1.622271 1_555
O94 Sn3 1.944874 1_555
O95 S18 1.461088 1_555
O96 S7 1.506228 1_555
O96 Sn4 2.142351 1_555
O97 S8 1.520255 1_545
O97 Sn5 2.186769 1_555
O98 Si2 1.691422 1_555
O98 Sn4 1.949005 1_555
O99 S4 1.514478 1_555
O99 Sn5 2.171449 1_555
O100 S6 1.497603 1_555
O100 Sn4 2.194598 1_555
O101 S5 1.548124 1_555
O101 Sn5 2.133594 1_555
O102 S0 1.505169 1_555
O102 Sn6 2.161805 1_555
O103 S1 1.514785 1_555
O103 Sn7 2.114363 1_555
O104 S3 1.503202 1_555
O104 Sn6 2.177397 1_555
O105 S2 1.515348 1_555
O105 Sn7 2.129831 1_555
O106 Si0 1.674106 1_555
O106 Sn6 1.948136 1_555
O107 Si1 1.685031 1_545
O107 Sn7 1.945939 1_555
O108 S19 1.479198 1_555
O108 Sn8 2.168091 1_555
O109 S20 1.465997 1_555
O110 Si5 1.637633 1_555
O110 Sn8 1.985054 1_555
O111 S21 1.471846 1_655
O112 Si6 1.622139 1_545
O112 Sn8 1.997468 1_555
O113 S22 1.469236 1_545
O114 S23 1.471928 1_545
O115 S24 1.483364 1_545
O115 Sn9 2.131104 1_555
O116 S25 1.474743 1_555
O117 Si7 1.623842 1_555
O117 Sn9 1.971715 1_555
O118 S26 1.469253 1_555
O119 Si8 1.650378 1_655
O119 Sn9 1.949845 1_555
O120 Si4 1.632869 1_555
O120 Sn10 1.909769 1_555
O121 S18 1.507278 1_555
O121 Sn11 2.065219 1_555
O122 S15 1.476757 1_455
O122 Sn10 2.114420 1_555
O123 S14 1.506200 1_555
O123 Sn11 2.069725 1_555
O124 S16 1.477171 1_565
O124 Sn10 2.104223 1_555
O125 S17 1.514008 1_565
O125 Sn11 2.081087 1_555
O126 S11 1.496658 1_565
O126 Sn12 2.116016 1_555
O127 Si3 1.625925 1_565
O127 Sn13 1.942729 1_555
O128 S12 1.490327 1_555
O128 Sn12 2.141951 1_555
O129 S13 1.472557 1_555
O129 Sn13 2.160257 1_555
O130 S10 1.487760 1_455
O130 Sn12 2.126269 1_555
O131 S9 1.471118 1_555
O131 Sn13 2.169824 1_555
O132 Si0 1.641787 1_565
O132 Sn14 1.925085 1_555
O133 Si1 1.640960 1_555
O133 Sn15 1.916228 1_555
O134 S0 1.479383 1_555
O134 Sn14 2.143814 1_555
O135 S1 1.480170 1_555
O135 Sn15 2.118857 1_555
O136 S2 1.475688 1_455
O136 Sn14 2.104251 1_555
O137 S3 1.478067 1_555
O137 Sn15 2.115865 1_555
O138 Si2 1.641535 1_555
O138 Sn16 1.922230 1_555
O139 S4 1.492329 1_555
O139 Sn17 2.134858 1_555
O140 S5 1.467524 1_455
O140 Sn16 2.164401 1_555
O141 S6 1.495325 1_555
O141 Sn17 2.119083 1_555
O142 S7 1.470775 1_565
O142 Sn16 2.169560 1_555
O143 S8 1.511269 1_555
O143 Sn17 2.105992 1_555
