# generated using pymatgen
data_KH18RuN6(ClO2)4
_symmetry_space_group_name_H-M   'P 1'
_cell_length_a   10.12632716
_cell_length_b   10.12632716
_cell_length_c   10.12632735
_cell_angle_alpha   41.42625378
_cell_angle_beta   41.42625378
_cell_angle_gamma   41.42625303
_symmetry_Int_Tables_number   1
_chemical_formula_structural   KH18RuN6(ClO2)4
_chemical_formula_sum   'K1 H18 Ru1 N6 Cl4 O8'
_cell_volume   410.73903997
_cell_formula_units_Z   1
loop_
 _symmetry_equiv_pos_site_id
 _symmetry_equiv_pos_as_xyz
  1  'x, y, z'
loop_
 _atom_site_type_symbol
 _atom_site_label
 _atom_site_symmetry_multiplicity
 _atom_site_fract_x
 _atom_site_fract_y
 _atom_site_fract_z
 _atom_site_occupancy
  K  K0  1  0.50000000  0.50000000  0.50000000  1
  H  H0  1  0.36291600  0.80153900  0.03004200  1
  H  H1  1  0.96995800  0.19846100  0.63708400  1
  H  H2  1  0.63708400  0.96995800  0.19846100  1
  H  H3  1  0.19846100  0.63708400  0.96995800  1
  H  H4  1  0.03004200  0.36291600  0.80153900  1
  H  H5  1  0.80153900  0.03004200  0.36291600  1
  H  H6  1  0.36291600  0.03004200  0.80153900  1
  H  H7  1  0.56179400  0.18840700  0.18840700  1
  H  H8  1  0.18840700  0.18840700  0.56179400  1
  H  H9  1  0.18840700  0.56179400  0.18840700  1
  H  H10  1  0.81159300  0.43820600  0.81159300  1
  H  H11  1  0.03004200  0.80153900  0.36291600  1
  H  H12  1  0.81159300  0.81159300  0.43820600  1
  H  H13  1  0.63708400  0.19846100  0.96995800  1
  H  H14  1  0.19846100  0.96995800  0.63708400  1
  H  H15  1  0.96995800  0.63708400  0.19846100  1
  H  H16  1  0.80153900  0.36291600  0.03004200  1
  H  H17  1  0.43820600  0.81159300  0.81159300  1
  Ru  Ru0  1  0.00000000  0.00000000  0.00000000  1
  N  N0  1  0.90074600  0.90074600  0.32655500  1
  N  N1  1  0.67344500  0.09925400  0.09925400  1
  N  N2  1  0.32655500  0.90074600  0.90074600  1
  N  N3  1  0.90074600  0.32655500  0.90074600  1
  N  N4  1  0.09925400  0.67344500  0.09925400  1
  N  N5  1  0.09925400  0.09925400  0.67344500  1
  Cl  Cl0  1  0.81476600  0.81476600  0.81476600  1
  Cl  Cl1  1  0.18523400  0.18523400  0.18523400  1
  Cl  Cl2  1  0.62318200  0.62318200  0.62318200  1
  Cl  Cl3  1  0.37681800  0.37681800  0.37681800  1
  O  O0  1  0.68556600  0.68556600  0.01898800  1
  O  O1  1  0.01898800  0.68556600  0.68556600  1
  O  O2  1  0.68556600  0.01898800  0.68556600  1
  O  O3  1  0.31443400  0.98101200  0.31443400  1
  O  O4  1  0.86723700  0.86723700  0.86723700  1
  O  O5  1  0.98101200  0.31443400  0.31443400  1
  O  O6  1  0.31443400  0.31443400  0.98101200  1
  O  O7  1  0.13276300  0.13276300  0.13276300  1
loop_
_geom_bond_atom_site_label_1
_geom_bond_atom_site_label_2
_geom_bond_distance
_geom_bond_site_symmetry_2
K0 O5 2.937875 1_555
K0 O3 2.937875 1_555
K0 O2 2.937875 1_555
K0 O1 2.937875 1_555
K0 O6 2.937875 1_555
K0 O0 2.937875 1_555
H0 N2 1.027042 1_554
H1 N5 1.027042 1_655
H2 N1 1.027042 1_565
H3 N4 1.027042 1_556
H4 N3 1.027042 1_455
H5 N0 1.027042 1_545
H6 N2 1.027042 1_545
H7 N1 1.034045 1_555
H8 N5 1.034045 1_555
H9 N4 1.034045 1_555
H10 N3 1.034045 1_555
H11 N0 1.027042 1_455
H12 N0 1.034045 1_555
H13 N1 1.027042 1_556
H14 N5 1.027042 1_565
H15 N4 1.027042 1_655
H16 N3 1.027042 1_554
H17 N2 1.034045 1_555
N0 Ru0 2.121782 1_665
N1 Ru0 2.121782 1_655
N2 Ru0 2.121782 1_566
N3 Ru0 2.121782 1_656
N4 Ru0 2.121782 1_565
N5 Ru0 2.121782 1_556
Cl0 O4 1.455019 1_555
Cl0 O1 1.467034 1_655
Cl0 O2 1.467034 1_565
Cl0 O0 1.467034 1_556
Cl1 O7 1.455019 1_555
Cl1 O3 1.467034 1_545
Cl1 O5 1.467034 1_455
Cl1 O6 1.467034 1_554
Cl2 K0 3.415832 1_555
Cl3 K0 3.415832 1_555
