# generated using pymatgen
data_Na3Al2Sn2P5SO24
_symmetry_space_group_name_H-M   'P 1'
_cell_length_a   8.59872337
_cell_length_b   8.57211106
_cell_length_c   22.18556709
_cell_angle_alpha   90.25473233
_cell_angle_beta   89.85582774
_cell_angle_gamma   120.13301458
_symmetry_Int_Tables_number   1
_chemical_formula_structural   Na3Al2Sn2P5SO24
_chemical_formula_sum   'Na9 Al6 Sn6 P15 S3 O72'
_cell_volume   1414.27854064
_cell_formula_units_Z   3
loop_
 _symmetry_equiv_pos_site_id
 _symmetry_equiv_pos_as_xyz
  1  'x, y, z'
loop_
 _atom_site_type_symbol
 _atom_site_label
 _atom_site_symmetry_multiplicity
 _atom_site_fract_x
 _atom_site_fract_y
 _atom_site_fract_z
 _atom_site_occupancy
  Na  Na0  1  0.00082977  0.36292409  0.75166137  1
  Na  Na1  1  0.66794785  0.97207398  0.58316262  1
  Na  Na2  1  0.02967708  0.33384489  0.08323946  1
  Na  Na3  1  0.00636292  0.99433931  0.50282532  1
  Na  Na4  1  0.00577791  0.99367276  0.00237276  1
  Na  Na5  1  0.65608082  0.32716144  0.83348415  1
  Na  Na6  1  0.67841274  0.33842510  0.33268901  1
  Na  Na7  1  0.34438624  0.67162025  0.16731771  1
  Na  Na8  1  0.33389155  0.66652116  0.66642521  1
  Al  Al0  1  0.00387661  0.99908500  0.64850611  1
  Al  Al1  1  0.99005880  0.99707830  0.14772201  1
  Al  Al2  1  0.32919128  0.67005957  0.01962637  1
  Al  Al3  1  0.32895971  0.67135465  0.51954576  1
  Al  Al4  1  0.33220013  0.66515861  0.31250317  1
  Al  Al5  1  0.33168807  0.67444216  0.81159031  1
  Sn  Sn0  1  0.98699057  0.99100276  0.35423535  1
  Sn  Sn1  1  0.00659880  0.00363880  0.85413466  1
  Sn  Sn2  1  0.66333982  0.33534594  0.68332641  1
  Sn  Sn3  1  0.67064449  0.33717689  0.18381674  1
  Sn  Sn4  1  0.66634544  0.32858681  0.98070125  1
  Sn  Sn5  1  0.67331976  0.33405112  0.48030945  1
  P  P0  1  0.70224382  0.71109005  0.24865433  1
  P  P1  1  0.00812250  0.29469100  0.24903833  1
  P  P2  1  0.29072217  0.29467436  0.74943938  1
  P  P3  1  0.00567245  0.71646992  0.74895050  1
  P  P4  1  0.70455975  0.98961556  0.74871546  1
  P  P5  1  0.97460767  0.33614833  0.58417676  1
  P  P6  1  0.36255818  0.03454750  0.58203483  1
  P  P7  1  0.66526617  0.63331687  0.58200942  1
  P  P8  1  0.96772907  0.63951110  0.08228261  1
  P  P9  1  0.66185311  0.02740888  0.08369930  1
  P  P10  1  0.36693839  0.33281987  0.08305288  1
  P  P11  1  0.05417312  0.38869132  0.91641947  1
  P  P12  1  0.33296756  0.94426457  0.91668455  1
  P  P13  1  0.60790284  0.94385025  0.41689201  1
  P  P14  1  0.05759898  0.66790767  0.41557205  1
  S  S0  1  0.28607929  0.99504301  0.24932234  1
  S  S1  1  0.61149021  0.66628517  0.91652901  1
  S  S2  1  0.33375352  0.38634788  0.41634449  1
  O  O0  1  0.21610967  0.03280923  0.30561186  1
  O  O1  1  0.81726278  0.77650886  0.30695156  1
  O  O2  1  0.97115731  0.18061770  0.30682396  1
  O  O3  1  0.22114232  0.18372523  0.80776505  1
  O  O4  1  0.96077688  0.78260162  0.80766593  1
  O  O5  1  0.82750732  0.04081487  0.80533359  1
  O  O6  1  0.79296325  0.96711093  0.69175564  1
  O  O7  1  0.16622952  0.20479033  0.69539312  1
  O  O8  1  0.03053902  0.83199643  0.69427933  1
  O  O9  1  0.79783370  0.82886005  0.19440177  1
  O  O10  1  0.03208814  0.20539927  0.19230645  1
  O  O11  1  0.17575397  0.97172321  0.19628705  1
  O  O12  1  0.89744291  0.37823139  0.64183546  1
  O  O13  1  0.49413868  0.10919516  0.63715892  1
  O  O14  1  0.62010431  0.51295119  0.63835516  1
  O  O15  1  0.89358504  0.50720939  0.13699070  1
  O  O16  1  0.61793590  0.10682976  0.13981755  1
  O  O17  1  0.48799648  0.37631501  0.13918111  1
  O  O18  1  0.44482592  0.28950649  0.02667121  1
  O  O19  1  0.84398368  0.55913100  0.02642403  1
  O  O20  1  0.72004900  0.16012221  0.02911770  1
  O  O21  1  0.44427293  0.15757996  0.52626877  1
  O  O22  1  0.70911510  0.55470981  0.52597971  1
  O  O23  1  0.83960328  0.28042020  0.53032818  1
  O  O24  1  0.53055254  0.68688594  0.97167021  1
  O  O25  1  0.16085112  0.47211665  0.97421456  1
  O  O26  1  0.31453673  0.83902410  0.97354881  1
  O  O27  1  0.52778902  0.84012836  0.47533021  1
  O  O28  1  0.31126164  0.46729452  0.47131221  1
  O  O29  1  0.16140057  0.68712364  0.47298255  1
  O  O30  1  0.14145732  0.64270623  0.35847716  1
  O  O31  1  0.50121568  0.85394169  0.36017668  1
  O  O32  1  0.35539854  0.48813332  0.36112741  1
  O  O33  1  0.14041869  0.49257775  0.85820930  1
  O  O34  1  0.35785056  0.86082842  0.85928039  1
  O  O35  1  0.50962322  0.64483383  0.86130803  1
  O  O36  1  0.04038046  0.84194580  0.41349445  1
  O  O37  1  0.80272727  0.97091601  0.41601274  1
  O  O38  1  0.17095964  0.20157324  0.41332566  1
  O  O39  1  0.02767412  0.19410631  0.91512606  1
  O  O40  1  0.16073998  0.96269439  0.91520185  1
  O  O41  1  0.79524415  0.83016363  0.91439279  1
  O  O42  1  0.98361239  0.16363669  0.59375930  1
  O  O43  1  0.18128657  0.01853523  0.59347773  1
  O  O44  1  0.83196147  0.82060503  0.59208858  1
  O  O45  1  0.98526996  0.82174193  0.09480310  1
  O  O46  1  0.83392390  0.01788319  0.09345632  1
  O  O47  1  0.17915448  0.16674852  0.09329274  1
  O  O48  1  0.68969085  0.16435465  0.74380279  1
  O  O49  1  0.47928775  0.31572371  0.74427587  1
  O  O50  1  0.84057801  0.51999504  0.74418443  1
  O  O51  1  0.67773725  0.51813753  0.24408496  1
  O  O52  1  0.83539844  0.31110414  0.24479889  1
  O  O53  1  0.46959459  0.15729119  0.24492303  1
  O  O54  1  0.63235711  0.50292813  0.91903522  1
  O  O55  1  0.86379435  0.37113903  0.91889025  1
  O  O56  1  0.50215817  0.13907550  0.91891648  1
  O  O57  1  0.62780988  0.13598957  0.41871480  1
  O  O58  1  0.49681382  0.36658724  0.41912532  1
  O  O59  1  0.86250769  0.49933690  0.41839102  1
  O  O60  1  0.34446352  0.49861463  0.07353706  1
  O  O61  1  0.15008615  0.65034316  0.07312793  1
  O  O62  1  0.49787319  0.84435386  0.07240448  1
  O  O63  1  0.35087099  0.85085983  0.57351590  1
  O  O64  1  0.50021106  0.65572164  0.57269814  1
  O  O65  1  0.15541611  0.50207459  0.57244339  1
  O  O66  1  0.30234036  0.83249500  0.25556450  1
  O  O67  1  0.51843754  0.69737640  0.25758623  1
  O  O68  1  0.17608823  0.48182343  0.25725134  1
  O  O69  1  0.30485061  0.48068523  0.75760191  1
  O  O70  1  0.17128425  0.69214189  0.75600099  1
  O  O71  1  0.52045781  0.82296309  0.75800549  1
loop_
_geom_bond_atom_site_label_1
_geom_bond_atom_site_label_2
_geom_bond_distance
_geom_bond_site_symmetry_2
Na0 O69 2.285038 1_555
Na0 O48 2.347968 1_455
Na0 O50 2.367506 1_455
Na0 O70 2.442761 1_555
Na0 O12 2.622054 1_455
Na0 O33 2.629665 1_555
Na0 O5 2.674264 1_455
Na0 O7 2.707440 1_555
Na1 O44 2.357171 1_555
Na1 O64 2.357363 1_555
Na1 O42 2.375699 1_565
Na1 O63 2.390740 1_555
Na1 O23 2.576969 1_565
Na1 O13 2.606250 1_565
Na1 O6 2.649806 1_555
Na1 O27 2.660227 1_555
Na2 O60 2.351414 1_555
Na2 O47 2.367739 1_555
Na2 O46 2.376268 1_455
Na2 O61 2.380534 1_555
Na2 O15 2.592919 1_455
Na2 O20 2.601394 1_455
Na2 O10 2.667323 1_555
Na2 O25 2.682738 1_554
Na3 O43 2.459372 1_565
Na3 O36 2.465265 1_555
Na3 O44 2.481446 1_455
Na3 O42 2.543888 1_465
Na3 O37 2.544858 1_455
Na3 O38 2.567947 1_565
Na4 O40 2.433895 1_554
Na4 O45 2.484425 1_455
Na4 O47 2.502047 1_565
Na4 O39 2.537127 1_564
Na4 O41 2.549026 1_454
Na4 O46 2.568908 1_465
Na5 O56 2.411575 1_555
Na5 O49 2.470092 1_555
Na5 O54 2.489045 1_555
Na5 O55 2.501405 1_555
Na5 O48 2.523335 1_555
Na5 O50 2.560191 1_555
Na6 O59 2.413117 1_555
Na6 O52 2.445240 1_555
Na6 O57 2.471893 1_555
Na6 O51 2.504653 1_555
Na6 O58 2.556022 1_555
Na6 O53 2.572513 1_555
Na7 O67 2.445127 1_555
Na7 O66 2.517631 1_555
Na7 O68 2.524399 1_555
Na7 O62 2.533765 1_555
Na7 O60 2.549844 1_555
Na7 O61 2.626690 1_555
Na8 O70 2.498602 1_555
Na8 O69 2.513660 1_555
Na8 O71 2.516384 1_555
Na8 O64 2.548325 1_555
Na8 O65 2.551007 1_555
Na8 O63 2.561797 1_555
Al0 O8 1.865234 1_555
Al0 O43 1.892738 1_565
Al0 O7 1.913039 1_565
Al0 O42 1.938640 1_465
Al0 O6 1.944066 1_455
Al0 O44 1.952987 1_455
Al1 O9 1.869629 1_555
Al1 O46 1.879927 1_565
Al1 O45 1.887190 1_555
Al1 O10 1.906837 1_665
Al1 O47 1.961811 1_665
Al1 O11 2.029011 1_655
Al2 O26 1.831873 1_554
Al2 O25 1.874982 1_554
Al2 O62 1.877310 1_555
Al2 O61 1.881628 1_555
Al2 O60 1.953920 1_555
Al2 O24 1.972823 1_554
Al3 O29 1.834554 1_555
Al3 O27 1.870589 1_555
Al3 O63 1.878977 1_555
Al3 O65 1.882011 1_555
Al3 O64 1.945549 1_555
Al3 O28 1.986189 1_555
Al4 O30 1.855754 1_555
Al4 O31 1.865687 1_555
Al4 O68 1.909816 1_555
Al4 O67 1.916848 1_555
Al4 O32 1.955968 1_555
Al4 O66 2.026509 1_555
Al5 O34 1.829768 1_555
Al5 O71 1.896779 1_555
Al5 O33 1.906964 1_555
Al5 O70 1.914867 1_555
Al5 O69 1.960963 1_555
Al5 O35 2.005711 1_555
O0 S0 1.488122 1_545
O0 Sn0 2.111255 1_445
O1 P0 1.551947 1_555
O1 Sn0 1.976726 1_555
O2 P1 1.548482 1_655
O2 Sn0 2.001237 1_545
O3 P2 1.540336 1_555
O3 Sn1 1.997481 1_555
O4 P3 1.542037 1_655
O4 Sn1 2.010794 1_665
O5 P4 1.556922 1_545
O5 Sn1 2.037008 1_655
O6 P4 1.533684 1_555
O7 P2 1.532133 1_555
O8 P3 1.514713 1_555
O9 P0 1.521900 1_555
O10 P1 1.536546 1_555
O11 S0 1.462008 1_555
O12 P5 1.561623 1_555
O12 Sn2 2.070092 1_555
O13 P6 1.567902 1_555
O13 Sn2 2.020402 1_555
O14 P7 1.544274 1_555
O14 Sn2 2.008769 1_555
O15 P8 1.564671 1_555
O15 Sn3 2.019075 1_555
O16 P9 1.550609 1_555
O16 Sn3 2.035617 1_555
O17 P10 1.544642 1_555
O17 Sn3 2.024744 1_555
O18 P10 1.546726 1_555
O18 Sn4 2.033017 1_554
O19 P8 1.551017 1_555
O19 Sn4 2.055938 1_554
O20 P9 1.564796 1_555
O20 Sn4 2.034276 1_554
O21 P6 1.549150 1_555
O21 Sn5 2.054087 1_555
O22 P7 1.544882 1_555
O22 Sn5 2.024638 1_555
O23 P5 1.564657 1_555
O23 Sn5 2.039527 1_555
O24 S1 1.459210 1_555
O25 P11 1.528419 1_555
O26 P12 1.515281 1_555
O27 P13 1.528644 1_555
O28 S2 1.460158 1_555
O29 P14 1.517337 1_555
O30 P14 1.523309 1_555
O31 P13 1.518586 1_555
O32 S2 1.463529 1_555
O33 P11 1.533990 1_555
O34 P12 1.524275 1_555
O35 S1 1.464115 1_555
O36 P14 1.572307 1_555
O36 Sn0 2.044189 1_455
O37 P13 1.571713 1_555
O37 Sn0 2.033660 1_555
O38 S2 1.498726 1_555
O38 Sn0 2.145154 1_445
O39 P11 1.566204 1_555
O39 Sn1 2.052817 1_555
O40 P12 1.566656 1_555
O40 Sn1 2.048355 1_565
O41 S1 1.497961 1_555
O41 Sn1 2.143231 1_665
O42 P5 1.534877 1_555
O43 P6 1.515375 1_555
O44 P7 1.539479 1_555
O45 P8 1.516532 1_555
O46 P9 1.538109 1_555
O47 P10 1.542268 1_555
O48 P4 1.570248 1_545
O48 Sn2 2.086245 1_555
O49 P2 1.542790 1_555
O49 Sn2 2.021232 1_555
O50 P3 1.568967 1_655
O50 Sn2 2.054349 1_555
O51 P0 1.561764 1_555
O51 Sn3 2.021080 1_555
O52 P1 1.563682 1_655
O52 Sn3 2.053667 1_555
O53 S0 1.493610 1_545
O53 Sn3 2.129459 1_555
O54 S1 1.499725 1_555
O54 Sn4 2.156216 1_555
O55 P11 1.567733 1_655
O55 Sn4 2.065683 1_555
O56 P12 1.571006 1_545
O56 Sn4 2.048989 1_555
O57 P13 1.568456 1_545
O57 Sn5 2.053785 1_555
O58 S2 1.495794 1_555
O58 Sn5 2.159296 1_555
O59 P14 1.572440 1_655
O59 Sn5 2.057377 1_555
O60 P10 1.542852 1_555
O61 P8 1.536554 1_455
O62 P9 1.513296 1_565
O63 P6 1.537443 1_565
O64 P7 1.539276 1_555
O65 P5 1.512943 1_455
O66 S0 1.475690 1_555
O67 P0 1.537255 1_555
O68 P1 1.537848 1_555
O69 P2 1.546950 1_555
O70 P3 1.547726 1_555
O71 P4 1.523058 1_555
