# generated using pymatgen
data_Ba2YbMgRuO6
_symmetry_space_group_name_H-M   'P 1'
_cell_length_a   6.60587539
_cell_length_b   6.62806934
_cell_length_c   6.62947495
_cell_angle_alpha   53.11284503
_cell_angle_beta   53.14025078
_cell_angle_gamma   53.14849746
_symmetry_Int_Tables_number   1
_chemical_formula_structural   Ba2YbMgRuO6
_chemical_formula_sum   'Ba2 Yb1 Mg1 Ru1 O6'
_cell_volume   172.23223235
_cell_formula_units_Z   1
loop_
 _symmetry_equiv_pos_site_id
 _symmetry_equiv_pos_as_xyz
  1  'x, y, z'
loop_
 _atom_site_type_symbol
 _atom_site_label
 _atom_site_symmetry_multiplicity
 _atom_site_fract_x
 _atom_site_fract_y
 _atom_site_fract_z
 _atom_site_occupancy
  Ba  Ba0  1  0.72853990  0.72733202  0.72715439  1
  Ba  Ba1  1  0.29935831  0.30022023  0.29924797  1
  Yb  Yb0  1  0.50491661  0.50414752  0.50420604  1
  Mg  Mg0  1  0.13264711  0.12718869  0.12755265  1
  Ru  Ru0  1  0.98254194  0.98206796  0.98222083  1
  O  O0  1  0.23975744  0.76158560  0.76131380  1
  O  O1  1  0.23741564  0.74900019  0.23351152  1
  O  O2  1  0.76061733  0.24249700  0.76201497  1
  O  O3  1  0.23688891  0.23350438  0.74925850  1
  O  O4  1  0.75221788  0.23502522  0.23440821  1
  O  O5  1  0.76051694  0.76243218  0.24411011  1
loop_
_geom_bond_atom_site_label_1
_geom_bond_atom_site_label_2
_geom_bond_distance
_geom_bond_site_symmetry_2
Ba0 O5 2.950710 1_555
Ba0 O1 2.961226 1_556
Ba0 O3 2.962209 1_565
Ba0 O2 2.962336 1_555
Ba0 O4 2.970928 1_556
Ba0 O0 2.972105 1_555
Ba0 O4 2.973394 1_565
Ba0 O3 2.973561 1_655
Ba0 O1 2.974451 1_655
Ba1 O1 2.530430 1_555
Ba1 O3 2.534620 1_555
Ba1 O4 2.539774 1_555
Ba1 Mg0 2.899946 1_555
Ba1 O5 3.053337 1_545
Ba1 O5 3.053800 1_455
Ba1 O2 3.055071 1_554
Ba1 O2 3.057650 1_455
Ba1 O0 3.061492 1_554
Ba1 O0 3.065069 1_545
Mg0 O1 1.909004 1_545
Mg0 O4 1.909375 1_455
Mg0 O3 1.910213 1_554
O0 Ru0 1.942398 1_455
O0 Yb0 2.282438 1_555
O1 Ru0 2.269856 1_454
O1 Yb0 2.417670 1_555
O2 Ru0 1.940883 1_545
O2 Yb0 2.274512 1_555
O3 Ru0 2.267438 1_445
O3 Yb0 2.419159 1_555
O4 Ru0 2.274772 1_544
O4 Yb0 2.424661 1_555
O5 Ru0 1.938193 1_554
O5 Yb0 2.277151 1_555
