# generated using pymatgen
data_K2PrBr5
_symmetry_space_group_name_H-M   'P 1'
_cell_length_a   8.48615978
_cell_length_b   9.22802150
_cell_length_c   13.40054707
_cell_angle_alpha   90.00000000
_cell_angle_beta   90.00000000
_cell_angle_gamma   90.00000000
_symmetry_Int_Tables_number   1
_chemical_formula_structural   K2PrBr5
_chemical_formula_sum   'K8 Pr4 Br20'
_cell_volume   1049.40307100
_cell_formula_units_Z   4
loop_
 _symmetry_equiv_pos_site_id
 _symmetry_equiv_pos_as_xyz
  1  'x, y, z'
loop_
 _atom_site_type_symbol
 _atom_site_label
 _atom_site_symmetry_multiplicity
 _atom_site_fract_x
 _atom_site_fract_y
 _atom_site_fract_z
 _atom_site_occupancy
  K  K0  1  0.44352911  0.50476883  0.67209609  1
  K  K1  1  0.94352911  0.49523117  0.82790391  1
  K  K2  1  0.55647089  0.00476883  0.32790391  1
  K  K3  1  0.05647089  0.99523117  0.17209609  1
  K  K4  1  0.55647089  0.49523117  0.32790391  1
  K  K5  1  0.05647089  0.50476883  0.17209609  1
  K  K6  1  0.44352911  0.99523117  0.67209609  1
  K  K7  1  0.94352911  0.00476883  0.82790391  1
  Pr  Pr0  1  0.92046111  0.75000000  0.50674116  1
  Pr  Pr1  1  0.57953889  0.75000000  0.00674116  1
  Pr  Pr2  1  0.07953889  0.25000000  0.49325884  1
  Pr  Pr3  1  0.42046111  0.25000000  0.99325884  1
  Br  Br0  1  0.56864593  0.75000000  0.50694324  1
  Br  Br1  1  0.33049250  0.95452633  0.92242819  1
  Br  Br2  1  0.83049250  0.04547367  0.57757181  1
  Br  Br3  1  0.66950750  0.45452633  0.07757181  1
  Br  Br4  1  0.06864593  0.25000000  0.99305676  1
  Br  Br5  1  0.66325055  0.75000000  0.79166931  1
  Br  Br6  1  0.93135407  0.75000000  0.00694324  1
  Br  Br7  1  0.43135407  0.25000000  0.49305676  1
  Br  Br8  1  0.12787328  0.75000000  0.68388367  1
  Br  Br9  1  0.16325055  0.25000000  0.70833069  1
  Br  Br10  1  0.33674945  0.25000000  0.20833069  1
  Br  Br11  1  0.83674945  0.75000000  0.29166931  1
  Br  Br12  1  0.66950750  0.04547367  0.07757181  1
  Br  Br13  1  0.62787328  0.25000000  0.81611633  1
  Br  Br14  1  0.87212672  0.25000000  0.31611633  1
  Br  Br15  1  0.37212672  0.75000000  0.18388367  1
  Br  Br16  1  0.83049250  0.45452633  0.57757181  1
  Br  Br17  1  0.33049250  0.54547367  0.92242819  1
  Br  Br18  1  0.16950750  0.95452633  0.42242819  1
  Br  Br19  1  0.16950750  0.54547367  0.42242819  1
loop_
_geom_bond_atom_site_label_1
_geom_bond_atom_site_label_2
_geom_bond_distance
_geom_bond_site_symmetry_2
Br0 Pr0 2.985561 1_555
Br0 K0 3.338635 1_555
Br0 K6 3.338635 1_555
Br0 K2 3.360687 1_565
Br0 K4 3.360687 1_555
Br1 Pr3 2.986367 1_565
Br1 Pr1 3.050472 1_556
Br1 K6 3.509203 1_555
Br1 K7 3.550069 1_465
Br2 Pr0 2.986367 1_545
Br2 Pr2 3.050472 1_655
Br2 K7 3.509203 1_555
Br2 K6 3.550069 1_545
Br3 Pr1 2.986367 1_555
Br3 Pr3 3.050472 1_554
Br3 K4 3.509203 1_555
Br3 K5 3.550069 1_655
Br4 Pr3 2.985561 1_555
Br4 K1 3.338635 1_455
Br4 K7 3.338635 1_455
Br4 K3 3.360687 1_546
Br4 K5 3.360687 1_556
Br5 Pr1 2.968340 1_556
Br5 K0 3.341463 1_555
Br5 K6 3.341463 1_555
Br5 K7 3.379384 1_565
Br5 K1 3.379384 1_555
Br6 Pr1 2.985561 1_555
Br6 K5 3.338635 1_655
Br6 K3 3.338635 1_655
Br6 K7 3.360687 1_564
Br6 K1 3.360687 1_554
Br7 Pr2 2.985561 1_555
Br7 K4 3.338635 1_555
Br7 K2 3.338635 1_555
Br7 K6 3.360687 1_545
Br7 K0 3.360687 1_555
Br8 Pr0 2.955169 1_455
Br8 K7 3.420414 1_465
Br8 K1 3.420414 1_455
Br8 K0 3.510211 1_555
Br8 K6 3.510211 1_555
Br9 Pr2 2.968340 1_555
Br9 K1 3.341463 1_455
Br9 K7 3.341463 1_455
Br9 K6 3.379384 1_545
Br9 K0 3.379384 1_555
Br10 Pr3 2.968340 1_554
Br10 K4 3.341463 1_555
Br10 K2 3.341463 1_555
Br10 K3 3.379384 1_545
Br10 K5 3.379384 1_555
Br11 Pr0 2.968340 1_555
Br11 K5 3.341463 1_655
Br11 K3 3.341463 1_655
Br11 K2 3.379384 1_565
Br11 K4 3.379384 1_555
Br12 Pr1 2.986367 1_545
Br12 Pr3 3.050472 1_554
Br12 K2 3.509203 1_555
Br12 K3 3.550069 1_645
Br13 Pr3 2.955169 1_555
Br13 K6 3.420414 1_545
Br13 K0 3.420414 1_555
Br13 K1 3.510211 1_555
Br13 K7 3.510211 1_555
Br14 Pr2 2.955169 1_655
Br14 K3 3.420414 1_645
Br14 K5 3.420414 1_655
Br14 K4 3.510211 1_555
Br14 K2 3.510211 1_555
Br15 Pr1 2.955169 1_555
Br15 K2 3.420414 1_565
Br15 K4 3.420414 1_555
Br15 K5 3.510211 1_555
Br15 K3 3.510211 1_555
Br16 Pr0 2.986367 1_555
Br16 Pr2 3.050472 1_655
Br16 K1 3.509203 1_555
Br16 K0 3.550069 1_555
Br17 Pr3 2.986367 1_555
Br17 Pr1 3.050472 1_556
Br17 K0 3.509203 1_555
Br17 K1 3.550069 1_455
Br18 Pr2 2.986367 1_565
Br18 Pr0 3.050472 1_455
Br18 K3 3.509203 1_555
Br18 K2 3.550069 1_565
Br19 Pr2 2.986367 1_555
Br19 Pr0 3.050472 1_455
Br19 K5 3.509203 1_555
Br19 K4 3.550069 1_555
