# generated using pymatgen
data_HfFeCl6
_symmetry_space_group_name_H-M   'P 1'
_cell_length_a   6.28209780
_cell_length_b   6.28209780
_cell_length_c   12.16128260
_cell_angle_alpha   90.18455618
_cell_angle_beta   90.18455618
_cell_angle_gamma   120.10016804
_symmetry_Int_Tables_number   1
_chemical_formula_structural   HfFeCl6
_chemical_formula_sum   'Hf2 Fe2 Cl12'
_cell_volume   415.21316368
_cell_formula_units_Z   2
loop_
 _symmetry_equiv_pos_site_id
 _symmetry_equiv_pos_as_xyz
  1  'x, y, z'
loop_
 _atom_site_type_symbol
 _atom_site_label
 _atom_site_symmetry_multiplicity
 _atom_site_fract_x
 _atom_site_fract_y
 _atom_site_fract_z
 _atom_site_occupancy
  Hf  Hf0  1  0.33596514  0.66403486  0.25000000  1
  Hf  Hf1  1  0.66403966  0.33596034  0.75000000  1
  Fe  Fe0  1  -0.00002350  0.00002350  0.25000000  1
  Fe  Fe1  1  0.00002800  -0.00002800  0.75000000  1
  Cl  Cl0  1  0.66522185  0.97696385  0.13545316  1
  Cl  Cl1  1  0.02505950  0.68921469  0.13558192  1
  Cl  Cl2  1  0.31063080  0.33842289  0.13227791  1
  Cl  Cl3  1  0.02303615  0.33477815  0.36454684  1
  Cl  Cl4  1  0.33842208  0.31066669  0.63229563  1
  Cl  Cl5  1  0.68918323  0.02502867  0.63558535  1
  Cl  Cl6  1  0.97698359  0.66521357  0.63545367  1
  Cl  Cl7  1  0.68933331  0.66157792  0.86770437  1
  Cl  Cl8  1  0.97497133  0.31081677  0.86441465  1
  Cl  Cl9  1  0.33478643  0.02301641  0.86454633  1
  Cl  Cl10  1  0.66157711  0.68936920  0.36772209  1
  Cl  Cl11  1  0.31078531  0.97494050  0.36441808  1
loop_
_geom_bond_atom_site_label_1
_geom_bond_atom_site_label_2
_geom_bond_distance
_geom_bond_site_symmetry_2
Cl0 Hf0 2.457881 1_555
Cl0 Fe0 2.461351 1_665
Cl1 Fe0 2.462906 1_565
Cl1 Hf0 2.463689 1_555
Cl2 Hf0 2.431515 1_555
Cl2 Fe0 2.500759 1_555
Cl3 Hf0 2.457881 1_555
Cl3 Fe0 2.461351 1_555
Cl4 Hf1 2.431508 1_555
Cl4 Fe1 2.500710 1_555
Cl5 Fe1 2.462992 1_655
Cl5 Hf1 2.463694 1_555
Cl6 Hf1 2.457904 1_555
Cl6 Fe1 2.461402 1_665
Cl7 Hf1 2.431508 1_555
Cl7 Fe1 2.500710 1_665
Cl8 Fe1 2.462992 1_655
Cl8 Hf1 2.463694 1_555
Cl9 Hf1 2.457904 1_555
Cl9 Fe1 2.461402 1_555
Cl10 Hf0 2.431515 1_555
Cl10 Fe0 2.500759 1_665
Cl11 Fe0 2.462906 1_565
Cl11 Hf0 2.463689 1_555
