# generated using pymatgen
data_Cs3ReO5
_symmetry_space_group_name_H-M   'P 1'
_cell_length_a   8.74431715
_cell_length_b   9.18443315
_cell_length_c   9.74595352
_cell_angle_alpha   90.00000000
_cell_angle_beta   90.00000000
_cell_angle_gamma   90.00000000
_symmetry_Int_Tables_number   1
_chemical_formula_structural   Cs3ReO5
_chemical_formula_sum   'Cs12 Re4 O20'
_cell_volume   782.71308472
_cell_formula_units_Z   4
loop_
 _symmetry_equiv_pos_site_id
 _symmetry_equiv_pos_as_xyz
  1  'x, y, z'
loop_
 _atom_site_type_symbol
 _atom_site_label
 _atom_site_symmetry_multiplicity
 _atom_site_fract_x
 _atom_site_fract_y
 _atom_site_fract_z
 _atom_site_occupancy
  Cs  Cs0  1  0.25000000  0.00000000  0.48145049  1
  Cs  Cs1  1  0.75000000  0.00000000  0.51854951  1
  Cs  Cs2  1  0.25000000  0.50000000  0.01854951  1
  Cs  Cs3  1  0.75000000  0.50000000  0.98145049  1
  Cs  Cs4  1  0.25000000  0.00000000  0.01897935  1
  Cs  Cs5  1  0.75000000  0.00000000  0.98102065  1
  Cs  Cs6  1  0.25000000  0.50000000  0.48102065  1
  Cs  Cs7  1  0.75000000  0.50000000  0.51897935  1
  Cs  Cs8  1  0.55476207  0.25000000  0.25000000  1
  Cs  Cs9  1  0.44523793  0.75000000  0.75000000  1
  Cs  Cs10  1  0.94523793  0.75000000  0.25000000  1
  Cs  Cs11  1  0.05476207  0.25000000  0.75000000  1
  Re  Re0  1  0.00786627  0.25000000  0.25000000  1
  Re  Re1  1  0.99213373  0.75000000  0.75000000  1
  Re  Re2  1  0.49213373  0.75000000  0.25000000  1
  Re  Re3  1  0.50786627  0.25000000  0.75000000  1
  O  O0  1  0.21419208  0.25000000  0.25000000  1
  O  O1  1  0.78580792  0.75000000  0.75000000  1
  O  O2  1  0.28580792  0.75000000  0.25000000  1
  O  O3  1  0.71419208  0.25000000  0.75000000  1
  O  O4  1  0.58828808  0.57549331  0.25004470  1
  O  O5  1  0.41171192  0.42450669  0.74995530  1
  O  O6  1  0.91171192  0.42450669  0.25004470  1
  O  O7  1  0.91171192  0.07549331  0.24995530  1
  O  O8  1  0.08828808  0.57549331  0.74995530  1
  O  O9  1  0.08828808  0.92450669  0.75004470  1
  O  O10  1  0.58828808  0.92450669  0.24995530  1
  O  O11  1  0.41171192  0.07549331  0.75004470  1
  O  O12  1  0.49958147  0.24996293  0.55878723  1
  O  O13  1  0.50041853  0.75003707  0.44121277  1
  O  O14  1  0.00041853  0.75003707  0.55878723  1
  O  O15  1  0.00041853  0.74996293  0.94121277  1
  O  O16  1  0.99958147  0.24996293  0.44121277  1
  O  O17  1  0.99958147  0.25003707  0.05878723  1
  O  O18  1  0.49958147  0.25003707  0.94121277  1
  O  O19  1  0.50041853  0.74996293  0.05878723  1
loop_
_geom_bond_atom_site_label_1
_geom_bond_atom_site_label_2
_geom_bond_distance
_geom_bond_site_symmetry_2
Cs0 O9 3.054948 1_545
Cs0 O11 3.054948 1_555
Cs0 O13 3.196763 1_545
Cs0 O16 3.196763 1_455
Cs0 O0 3.233939 1_555
Cs0 O2 3.233939 1_545
Cs0 O14 3.256010 1_545
Cs0 O12 3.256010 1_555
Cs1 O10 3.054948 1_545
Cs1 O7 3.054948 1_555
Cs1 O14 3.196763 1_645
Cs1 O12 3.196763 1_555
Cs1 O1 3.233939 1_545
Cs1 O3 3.233939 1_555
Cs1 O16 3.256010 1_555
Cs1 O13 3.256010 1_545
Cs2 O5 3.054948 1_554
Cs2 O8 3.054948 1_554
Cs2 O17 3.196763 1_455
Cs2 O19 3.196763 1_555
Cs2 O0 3.233939 1_555
Cs2 O2 3.233939 1_555
Cs2 O18 3.256010 1_554
Cs2 O15 3.256010 1_554
Cs3 O4 3.054948 1_556
Cs3 O6 3.054948 1_556
Cs3 O18 3.196763 1_555
Cs3 O15 3.196763 1_655
Cs3 O3 3.233939 1_555
Cs3 O1 3.233939 1_555
Cs3 O17 3.256010 1_556
Cs3 O19 3.256010 1_556
Cs4 O11 3.057792 1_554
Cs4 O9 3.057792 1_544
Cs4 O19 3.196741 1_545
Cs4 O17 3.196741 1_455
Cs4 O0 3.231019 1_555
Cs4 O2 3.231019 1_545
Cs4 O15 3.257462 1_544
Cs4 O18 3.257462 1_554
Cs5 O7 3.057792 1_556
Cs5 O10 3.057792 1_546
Cs5 O15 3.196741 1_645
Cs5 O18 3.196741 1_555
Cs5 O1 3.231019 1_545
Cs5 O3 3.231019 1_555
Cs5 O19 3.257462 1_546
Cs5 O17 3.257462 1_556
Cs6 O8 3.057792 1_555
Cs6 O5 3.057792 1_555
Cs6 O16 3.196741 1_455
Cs6 O13 3.196741 1_555
Cs6 O0 3.231019 1_555
Cs6 O2 3.231019 1_555
Cs6 O14 3.257462 1_555
Cs6 O12 3.257462 1_555
Cs7 O4 3.057792 1_555
Cs7 O6 3.057792 1_555
Cs7 O14 3.196741 1_655
Cs7 O12 3.196741 1_555
Cs7 O1 3.231019 1_555
Cs7 O3 3.231019 1_555
Cs7 O13 3.257462 1_555
Cs7 O16 3.257462 1_555
Cs8 O0 2.978052 1_555
Cs8 O10 3.003812 1_545
Cs8 O4 3.003812 1_555
Cs8 O12 3.047863 1_555
Cs8 O18 3.047863 1_554
Cs8 O7 3.508732 1_555
Cs8 O6 3.508732 1_555
Cs9 O1 2.978052 1_555
Cs9 O11 3.003812 1_565
Cs9 O5 3.003812 1_555
Cs9 O13 3.047863 1_555
Cs9 O19 3.047863 1_556
Cs9 O8 3.508732 1_555
Cs9 O9 3.508732 1_555
Cs10 O2 2.978052 1_655
Cs10 O7 3.003812 1_565
Cs10 O6 3.003812 1_555
Cs10 O15 3.047863 1_654
Cs10 O14 3.047863 1_655
Cs10 O10 3.508732 1_555
Cs10 O4 3.508732 1_555
Cs11 O3 2.978052 1_455
Cs11 O9 3.003812 1_545
Cs11 O8 3.003812 1_555
Cs11 O16 3.047863 1_455
Cs11 O17 3.047863 1_456
Cs11 O11 3.508732 1_555
Cs11 O5 3.508732 1_555
O0 Re0 1.804178 1_555
O1 Re1 1.804178 1_555
O2 Re2 1.804178 1_555
O3 Re3 1.804178 1_555
O4 Re2 1.809901 1_555
O5 Re3 1.809901 1_555
O6 Re0 1.809901 1_655
O7 Re0 1.809901 1_655
O8 Re1 1.809901 1_455
O9 Re1 1.809901 1_455
O10 Re2 1.809901 1_555
O11 Re3 1.809901 1_555
O12 Re3 1.864958 1_555
O13 Re2 1.864958 1_555
O14 Re1 1.864958 1_455
O15 Re1 1.864958 1_455
O16 Re0 1.864958 1_655
O17 Re0 1.864958 1_655
O18 Re3 1.864958 1_555
O19 Re2 1.864958 1_555
