# generated using pymatgen
data_KInBr3
_symmetry_space_group_name_H-M   'P 1'
_cell_length_a   8.60409982
_cell_length_b   8.60409996
_cell_length_c   10.87592584
_cell_angle_alpha   90.00000000
_cell_angle_beta   90.00000000
_cell_angle_gamma   119.99999860
_symmetry_Int_Tables_number   1
_chemical_formula_structural   KInBr3
_chemical_formula_sum   'K4 In4 Br12'
_cell_volume   697.28088975
_cell_formula_units_Z   4
loop_
 _symmetry_equiv_pos_site_id
 _symmetry_equiv_pos_as_xyz
  1  'x, y, z'
loop_
 _atom_site_type_symbol
 _atom_site_label
 _atom_site_symmetry_multiplicity
 _atom_site_fract_x
 _atom_site_fract_y
 _atom_site_fract_z
 _atom_site_occupancy
  K  K0  1  0.33333300  0.66666700  0.87446742  1
  K  K1  1  0.66666700  0.33333300  0.12553258  1
  K  K2  1  -0.00000000  -0.00000000  0.26277626  1
  K  K3  1  -0.00000000  -0.00000000  0.73722374  1
  In  In0  1  0.33333300  0.66666700  0.24698014  1
  In  In1  1  0.66666700  0.33333300  0.75301986  1
  In  In2  1  0.33333300  0.66666700  0.49947348  1
  In  In3  1  0.66666700  0.33333300  0.50052652  1
  Br  Br0  1  0.28495802  0.38492944  0.12383927  1
  Br  Br1  1  0.61507056  0.90002858  0.12383927  1
  Br  Br2  1  0.09997142  0.71504198  0.12383927  1
  Br  Br3  1  0.71504198  0.61507056  0.87616073  1
  Br  Br4  1  0.38492944  0.09997142  0.87616073  1
  Br  Br5  1  0.90002858  0.28495802  0.87616073  1
  Br  Br6  1  0.08911131  0.69586777  0.62438178  1
  Br  Br7  1  0.30413223  0.39324254  0.62438178  1
  Br  Br8  1  0.60675746  0.91088869  0.62438178  1
  Br  Br9  1  0.91088869  0.30413223  0.37561822  1
  Br  Br10  1  0.69586777  0.60675746  0.37561822  1
  Br  Br11  1  0.39324254  0.08911131  0.37561822  1
loop_
_geom_bond_atom_site_label_1
_geom_bond_atom_site_label_2
_geom_bond_distance
_geom_bond_site_symmetry_2
Br0 In0 2.614225 1_555
Br0 K2 3.338192 1_555
Br0 K0 3.520836 1_554
Br0 K1 3.527296 1_555
Br1 In0 2.614223 1_555
Br1 K2 3.338192 1_665
Br1 K0 3.520834 1_554
Br1 K1 3.527288 1_565
Br2 In0 2.614218 1_555
Br2 K2 3.338192 1_565
Br2 K0 3.520830 1_554
Br2 K1 3.527291 1_455
Br3 In1 2.614225 1_555
Br3 K3 3.338192 1_665
Br3 K1 3.520836 1_556
Br3 K0 3.527296 1_555
Br4 In1 2.614223 1_555
Br4 K3 3.338192 1_555
Br4 K1 3.520834 1_556
Br4 K0 3.527288 1_545
Br5 In1 2.614218 1_555
Br5 K3 3.338192 1_655
Br5 K1 3.520830 1_556
Br5 K0 3.527291 1_655
Br6 In2 2.617646 1_555
Br6 K3 3.308767 1_565
Br6 K0 3.522001 1_555
Br7 In2 2.617660 1_555
Br7 K3 3.308762 1_555
Br7 K0 3.522012 1_555
Br8 In2 2.617654 1_555
Br8 K3 3.308759 1_665
Br8 K0 3.522007 1_555
Br9 In3 2.617646 1_555
Br9 K2 3.308767 1_655
Br9 K1 3.522001 1_555
Br10 In3 2.617660 1_555
Br10 K2 3.308762 1_665
Br10 K1 3.522012 1_555
Br11 In3 2.617654 1_555
Br11 K2 3.308759 1_555
Br11 K1 3.522007 1_555
