# generated using pymatgen
data_CeMn2(GeO3)4
_symmetry_space_group_name_H-M   'P 1'
_cell_length_a   4.96901200
_cell_length_b   9.98867000
_cell_length_c   9.98867000
_cell_angle_alpha   90.00000000
_cell_angle_beta   90.00000000
_cell_angle_gamma   90.00000000
_symmetry_Int_Tables_number   1
_chemical_formula_structural   CeMn2(GeO3)4
_chemical_formula_sum   'Ce2 Mn4 Ge8 O24'
_cell_volume   495.77585975
_cell_formula_units_Z   2
loop_
 _symmetry_equiv_pos_site_id
 _symmetry_equiv_pos_as_xyz
  1  'x, y, z'
loop_
 _atom_site_type_symbol
 _atom_site_label
 _atom_site_symmetry_multiplicity
 _atom_site_fract_x
 _atom_site_fract_y
 _atom_site_fract_z
 _atom_site_occupancy
  Ce  Ce0  1  0.50000000  0.75000000  0.75000000  1
  Ce  Ce1  1  0.50000000  0.25000000  0.25000000  1
  Mn  Mn0  1  0.50000000  0.50000000  0.00000000  1
  Mn  Mn1  1  0.50000000  0.00000000  0.50000000  1
  Mn  Mn2  1  0.50000000  0.50000000  0.50000000  1
  Mn  Mn3  1  0.50000000  0.00000000  0.00000000  1
  Ge  Ge0  1  0.00000000  0.25000000  0.97596400  1
  Ge  Ge1  1  0.00000000  0.97596400  0.25000000  1
  Ge  Ge2  1  0.00000000  0.25000000  0.52403500  1
  Ge  Ge3  1  0.00000000  0.47596500  0.75000000  1
  Ge  Ge4  1  0.00000000  0.75000000  0.47596500  1
  Ge  Ge5  1  0.00000000  0.75000000  0.02403500  1
  Ge  Ge6  1  0.00000000  0.02403500  0.75000000  1
  Ge  Ge7  1  0.00000000  0.52403500  0.25000000  1
  O  O0  1  0.25601600  0.56367200  0.66656400  1
  O  O1  1  0.25601600  0.93632800  0.83343700  1
  O  O2  1  0.25601600  0.66656400  0.93632800  1
  O  O3  1  0.25601600  0.83343700  0.56367200  1
  O  O4  1  0.74398300  0.66656400  0.56367200  1
  O  O5  1  0.74398300  0.93632800  0.66656400  1
  O  O6  1  0.74398300  0.56367200  0.83343700  1
  O  O7  1  0.74398300  0.83343700  0.93632800  1
  O  O8  1  0.74398300  0.43632700  0.33343600  1
  O  O9  1  0.74398300  0.06367300  0.16656400  1
  O  O10  1  0.74398300  0.33343600  0.06367300  1
  O  O11  1  0.74398300  0.16656400  0.43632700  1
  O  O12  1  0.25601600  0.33343600  0.43632700  1
  O  O13  1  0.25601600  0.06367300  0.33343600  1
  O  O14  1  0.17302000  0.62998800  0.37001300  1
  O  O15  1  0.17302000  0.12998700  0.62998800  1
  O  O16  1  0.17302000  0.37001300  0.87001200  1
  O  O17  1  0.17302000  0.87001200  0.12998700  1
  O  O18  1  0.82698200  0.62998800  0.12998700  1
  O  O19  1  0.25601600  0.43632700  0.16656400  1
  O  O20  1  0.82698200  0.37001300  0.62998800  1
  O  O21  1  0.82698200  0.12998700  0.87001200  1
  O  O22  1  0.25601600  0.16656400  0.06367300  1
  O  O23  1  0.82698200  0.87001200  0.37001300  1
loop_
_geom_bond_atom_site_label_1
_geom_bond_atom_site_label_2
_geom_bond_distance
_geom_bond_site_symmetry_2
Ce0 O4 2.372411 1_555
Ce0 O5 2.372411 1_555
Ce0 O0 2.372413 1_555
Ce0 O2 2.372413 1_555
Ce0 O6 2.372414 1_555
Ce0 O7 2.372414 1_555
Ce0 O1 2.372417 1_555
Ce0 O3 2.372417 1_555
Ce1 O8 2.372403 1_555
Ce1 O9 2.372403 1_555
Ce1 O11 2.372403 1_555
Ce1 O10 2.372403 1_555
Ce1 O12 2.372406 1_555
Ce1 O22 2.372406 1_555
Ce1 O19 2.372406 1_555
Ce1 O13 2.372406 1_555
Mn0 O6 2.154608 1_554
Mn0 O2 2.154619 1_554
Mn0 O10 2.154619 1_555
Mn0 O19 2.154622 1_555
Mn0 O16 2.451850 1_554
Mn0 O18 2.451856 1_555
Mn1 O3 2.154611 1_545
Mn1 O5 2.154616 1_545
Mn1 O11 2.154619 1_555
Mn1 O13 2.154622 1_555
Mn1 O15 2.451850 1_555
Mn1 O23 2.451856 1_545
Mn2 O4 2.154616 1_555
Mn2 O0 2.154619 1_555
Mn2 O8 2.154619 1_555
Mn2 O12 2.154622 1_555
Mn2 O14 2.451850 1_555
Mn2 O20 2.451856 1_555
Mn3 O7 2.154608 1_544
Mn3 O1 2.154611 1_544
Mn3 O9 2.154619 1_555
Mn3 O22 2.154622 1_555
Mn3 O17 2.451850 1_545
Mn3 O21 2.451856 1_554
Ge0 O22 1.755130 1_556
Ge0 O10 1.755134 1_456
Ge0 O21 1.815550 1_455
Ge0 O16 1.815555 1_555
Ge1 O13 1.755130 1_565
Ge1 O9 1.755134 1_465
Ge1 O23 1.815550 1_455
Ge1 O17 1.815555 1_555
Ge2 O12 1.755125 1_555
Ge2 O11 1.755129 1_455
Ge2 O20 1.815556 1_455
Ge2 O15 1.815561 1_555
Ge3 O0 1.755120 1_555
Ge3 O6 1.755128 1_455
Ge3 O20 1.815544 1_455
Ge3 O16 1.815549 1_555
Ge4 O4 1.755124 1_455
Ge4 O3 1.755125 1_555
Ge4 O23 1.815544 1_455
Ge4 O14 1.815549 1_555
Ge5 O2 1.755120 1_554
Ge5 O7 1.755128 1_454
Ge5 O18 1.815544 1_455
Ge5 O17 1.815549 1_555
Ge6 O5 1.755124 1_445
Ge6 O1 1.755125 1_545
Ge6 O21 1.815544 1_455
Ge6 O15 1.815549 1_555
Ge7 O19 1.755125 1_555
Ge7 O8 1.755129 1_455
Ge7 O18 1.815556 1_455
Ge7 O14 1.815561 1_555
