# generated using pymatgen
data_Li3V(PO4)2
_symmetry_space_group_name_H-M   'P 1'
_cell_length_a   8.86573100
_cell_length_b   4.93236200
_cell_length_c   7.86222093
_cell_angle_alpha   55.56627579
_cell_angle_beta   90.00000000
_cell_angle_gamma   90.00000000
_symmetry_Int_Tables_number   1
_chemical_formula_structural   Li3V(PO4)2
_chemical_formula_sum   'Li6 V2 P4 O16'
_cell_volume   283.56543251
_cell_formula_units_Z   2
loop_
 _symmetry_equiv_pos_site_id
 _symmetry_equiv_pos_as_xyz
  1  'x, y, z'
loop_
 _atom_site_type_symbol
 _atom_site_label
 _atom_site_symmetry_multiplicity
 _atom_site_fract_x
 _atom_site_fract_y
 _atom_site_fract_z
 _atom_site_occupancy
  Li  Li0  1  0.13877100  0.32375500  0.69013300  1
  Li  Li1  1  0.50000000  0.00000000  0.00000000  1
  Li  Li2  1  0.63877100  0.67624500  0.80986700  1
  Li  Li3  1  0.00000000  0.00000000  0.50000000  1
  Li  Li4  1  0.36122900  0.32375500  0.19013300  1
  Li  Li5  1  0.86122900  0.67624500  0.30986700  1
  V  V0  1  0.50000000  0.50000000  0.50000000  1
  V  V1  1  0.00000000  0.50000000  0.00000000  1
  P  P0  1  0.18146300  0.80821100  0.22027900  1
  P  P1  1  0.68146300  0.19178900  0.27972100  1
  P  P2  1  0.31853700  0.80821100  0.72027900  1
  P  P3  1  0.81853700  0.19178900  0.77972100  1
  O  O0  1  0.85641900  0.47445000  0.80833200  1
  O  O1  1  0.09797200  0.74491000  0.40836900  1
  O  O2  1  0.35641900  0.52555000  0.69166800  1
  O  O3  1  0.13357500  0.14662700  0.02196600  1
  O  O4  1  0.35583800  0.82608500  0.24529900  1
  O  O5  1  0.63357500  0.85337300  0.47803400  1
  O  O6  1  0.59797200  0.25509000  0.09163100  1
  O  O7  1  0.85583800  0.17391500  0.25470100  1
  O  O8  1  0.64416200  0.17391500  0.75470100  1
  O  O9  1  0.40202800  0.74491000  0.90836900  1
  O  O10  1  0.36642500  0.14662700  0.52196600  1
  O  O11  1  0.14358100  0.52555000  0.19166800  1
  O  O12  1  0.86642500  0.85337300  0.97803400  1
  O  O13  1  0.64358100  0.47445000  0.30833200  1
  O  O14  1  0.90202800  0.25509000  0.59163100  1
  O  O15  1  0.14416200  0.82608500  0.74529900  1
loop_
_geom_bond_atom_site_label_1
_geom_bond_atom_site_label_2
_geom_bond_distance
_geom_bond_site_symmetry_2
Li0 O1 2.036978 1_555
Li0 O2 2.174349 1_555
Li0 O3 2.234791 1_556
Li0 O15 2.238719 1_545
Li0 O14 2.327332 1_455
Li1 O6 1.970181 1_555
Li1 O9 1.970181 1_544
Li1 O4 2.053759 1_545
Li1 O8 2.053759 1_554
Li2 O6 2.036978 1_556
Li2 O0 2.174349 1_555
Li2 O5 2.234791 1_555
Li2 O8 2.238719 1_565
Li2 O9 2.327332 1_555
Li3 O14 1.970181 1_455
Li3 O1 1.970181 1_545
Li3 O7 2.053759 1_455
Li3 O15 2.053759 1_545
Li4 O9 2.036978 1_554
Li4 O11 2.174349 1_555
Li4 O10 2.234791 1_555
Li4 O4 2.238719 1_545
Li4 O6 2.327332 1_555
Li5 O14 2.036978 1_555
Li5 O13 2.174349 1_555
Li5 O12 2.234791 1_554
Li5 O7 2.238719 1_565
Li5 O1 2.327332 1_655
O0 P3 1.569020 1_555
O0 V1 2.030248 1_656
O1 P0 1.519901 1_555
O2 P2 1.569020 1_555
O2 V0 2.030248 1_555
O3 P0 1.566600 1_545
O3 V1 2.032180 1_555
O4 P0 1.567188 1_555
O4 V0 2.141976 1_555
O5 P1 1.566600 1_565
O5 V0 2.032180 1_555
O6 P1 1.519901 1_555
O7 P1 1.567188 1_555
O7 V1 2.141976 1_655
O8 P3 1.567188 1_555
O8 V0 2.141976 1_555
O9 P2 1.519901 1_555
O10 P2 1.566600 1_545
O10 V0 2.032180 1_555
O11 P0 1.569020 1_555
O11 V1 2.030248 1_555
O12 P3 1.566600 1_565
O12 V1 2.032180 1_656
O13 P1 1.569020 1_555
O13 V0 2.030248 1_555
O14 P3 1.519901 1_555
O15 P2 1.567188 1_555
O15 V1 2.141976 1_556
