# generated using pymatgen
data_CsB3H8
_symmetry_space_group_name_H-M   'P 1'
_cell_length_a   5.75552674
_cell_length_b   5.75552674
_cell_length_c   9.12136700
_cell_angle_alpha   90.00000000
_cell_angle_beta   90.00000000
_cell_angle_gamma   98.76869768
_symmetry_Int_Tables_number   1
_chemical_formula_structural   CsB3H8
_chemical_formula_sum   'Cs2 B6 H16'
_cell_volume   298.62356045
_cell_formula_units_Z   2
loop_
 _symmetry_equiv_pos_site_id
 _symmetry_equiv_pos_as_xyz
  1  'x, y, z'
loop_
 _atom_site_type_symbol
 _atom_site_label
 _atom_site_symmetry_multiplicity
 _atom_site_fract_x
 _atom_site_fract_y
 _atom_site_fract_z
 _atom_site_occupancy
  Cs  Cs0  1  0.32207800  0.67792200  0.75000000  1
  Cs  Cs1  1  0.67792200  0.32207800  0.25000000  1
  B  B0  1  0.89739300  0.10260700  0.75000000  1
  B  B1  1  0.10260700  0.89739300  0.25000000  1
  B  B2  1  0.72237200  0.27762800  0.65125700  1
  B  B3  1  0.27762800  0.72237200  0.34874300  1
  B  B4  1  0.72237200  0.27762800  0.84874300  1
  B  B5  1  0.27762800  0.72237200  0.15125700  1
  H  H0  1  0.85483500  0.14516500  0.90578700  1
  H  H1  1  0.14516500  0.85483500  0.09421300  1
  H  H2  1  0.85483500  0.14516500  0.59421300  1
  H  H3  1  0.14516500  0.85483500  0.40578700  1
  H  H4  1  0.10785000  0.16307800  0.75000000  1
  H  H5  1  0.16307800  0.10785000  0.25000000  1
  H  H6  1  0.83692200  0.89215000  0.75000000  1
  H  H7  1  0.89215000  0.83692200  0.25000000  1
  H  H8  1  0.46874600  0.79578800  0.39444700  1
  H  H9  1  0.79578800  0.46874600  0.60555300  1
  H  H10  1  0.46874600  0.79578800  0.10555300  1
  H  H11  1  0.79578800  0.46874600  0.89444700  1
  H  H12  1  0.20421200  0.53125400  0.39444700  1
  H  H13  1  0.53125400  0.20421200  0.60555300  1
  H  H14  1  0.20421200  0.53125400  0.10555300  1
  H  H15  1  0.53125400  0.20421200  0.89444700  1
loop_
_geom_bond_atom_site_label_1
_geom_bond_atom_site_label_2
_geom_bond_distance
_geom_bond_site_symmetry_2
Cs0 H6 3.030984 1_555
Cs0 H4 3.030984 1_555
Cs1 H7 3.030984 1_555
Cs1 H5 3.030984 1_555
B0 H6 1.208231 1_545
B0 H4 1.208231 1_655
B0 H2 1.468844 1_555
B0 H0 1.468844 1_555
B1 H7 1.208231 1_455
B1 H5 1.208231 1_565
B1 H3 1.468844 1_555
B1 H1 1.468844 1_555
B2 H9 1.191886 1_555
B2 H13 1.191886 1_555
B2 H2 1.269031 1_555
B3 H8 1.191886 1_555
B3 H12 1.191886 1_555
B3 H3 1.269031 1_555
B4 H11 1.191886 1_555
B4 H15 1.191886 1_555
B4 H0 1.269031 1_555
B5 H10 1.191886 1_555
B5 H14 1.191886 1_555
B5 H1 1.269031 1_555
