# generated using pymatgen
data_Te7Pd20
_symmetry_space_group_name_H-M   'P 1'
_cell_length_a   7.85736832
_cell_length_b   7.85736654
_cell_length_c   7.85736662
_cell_angle_alpha   99.00211931
_cell_angle_beta   99.00210911
_cell_angle_gamma   99.00212087
_symmetry_Int_Tables_number   1
_chemical_formula_structural   Te7Pd20
_chemical_formula_sum   'Te7 Pd20'
_cell_volume   465.01033237
_cell_formula_units_Z   1
loop_
 _symmetry_equiv_pos_site_id
 _symmetry_equiv_pos_as_xyz
  1  'x, y, z'
loop_
 _atom_site_type_symbol
 _atom_site_label
 _atom_site_symmetry_multiplicity
 _atom_site_fract_x
 _atom_site_fract_y
 _atom_site_fract_z
 _atom_site_occupancy
  Te  Te0  1  0.00000000  -0.00000000  -0.00000000  1
  Te  Te1  1  0.88102716  0.45420550  0.72281752  1
  Te  Te2  1  0.72281752  0.88102716  0.45420550  1
  Te  Te3  1  0.45420550  0.72281752  0.88102716  1
  Te  Te4  1  0.11897284  0.54579450  0.27718248  1
  Te  Te5  1  0.27718248  0.11897284  0.54579450  1
  Te  Te6  1  0.54579450  0.27718248  0.11897284  1
  Pd  Pd0  1  0.38027049  0.38027049  0.38027049  1
  Pd  Pd1  1  0.61972951  0.61972951  0.61972951  1
  Pd  Pd2  1  0.32901763  0.01174043  0.22020626  1
  Pd  Pd3  1  0.22020626  0.32901763  0.01174043  1
  Pd  Pd4  1  0.01174043  0.22020626  0.32901763  1
  Pd  Pd5  1  0.67098237  0.98825957  0.77979374  1
  Pd  Pd6  1  0.77979374  0.67098237  0.98825957  1
  Pd  Pd7  1  0.98825957  0.77979374  0.67098237  1
  Pd  Pd8  1  0.14397032  0.68277074  0.98824474  1
  Pd  Pd9  1  0.98824474  0.14397032  0.68277074  1
  Pd  Pd10  1  0.68277074  0.98824474  0.14397032  1
  Pd  Pd11  1  0.85602968  0.31722926  0.01175526  1
  Pd  Pd12  1  0.01175526  0.85602968  0.31722926  1
  Pd  Pd13  1  0.31722926  0.01175526  0.85602968  1
  Pd  Pd14  1  0.68343832  0.22323876  0.45728170  1
  Pd  Pd15  1  0.45728170  0.68343832  0.22323876  1
  Pd  Pd16  1  0.22323876  0.45728170  0.68343832  1
  Pd  Pd17  1  0.31656168  0.77676124  0.54271830  1
  Pd  Pd18  1  0.54271830  0.31656168  0.77676124  1
  Pd  Pd19  1  0.77676124  0.54271830  0.31656168  1
loop_
_geom_bond_atom_site_label_1
_geom_bond_atom_site_label_2
_geom_bond_distance
_geom_bond_site_symmetry_2
Pd0 Te5 2.684727 1_555
Pd0 Te6 2.684727 1_555
Pd0 Te4 2.684728 1_555
Pd0 Pd1 2.701255 1_555
Pd0 Pd15 2.874945 1_555
Pd0 Pd16 2.874945 1_555
Pd0 Pd14 2.874946 1_555
Pd0 Pd2 2.909599 1_555
Pd0 Pd3 2.909599 1_555
Pd0 Pd4 2.909600 1_555
Pd1 Te2 2.684727 1_555
Pd1 Te3 2.684727 1_555
Pd1 Te1 2.684728 1_555
Pd1 Pd18 2.874945 1_555
Pd1 Pd19 2.874945 1_555
Pd1 Pd17 2.874946 1_555
Pd1 Pd5 2.909599 1_555
Pd1 Pd6 2.909599 1_555
Pd1 Pd7 2.909600 1_555
Pd2 Te5 2.679447 1_555
Pd2 Te6 2.777659 1_555
Pd2 Te0 2.856779 1_555
Pd2 Pd8 2.938977 1_544
Pd3 Te6 2.679448 1_555
Pd3 Te4 2.777659 1_555
Pd3 Te0 2.856779 1_555
Pd3 Pd9 2.938977 1_454
Pd3 Pd8 2.960730 1_554
Pd4 Te4 2.679447 1_555
Pd4 Te5 2.777660 1_555
Pd4 Te0 2.856779 1_555
Pd4 Pd9 2.960730 1_455
Pd5 Te2 2.679447 1_555
Pd5 Te3 2.777659 1_555
Pd5 Te0 2.856779 1_666
Pd5 Pd9 2.867839 1_565
Pd6 Te3 2.679448 1_555
Pd6 Te1 2.777659 1_555
Pd6 Pd8 2.848465 1_655
Pd6 Te0 2.856779 1_666
Pd7 Te1 2.679447 1_555
Pd7 Te2 2.777660 1_555
Pd7 Pd9 2.848464 1_565
Pd7 Te0 2.856779 1_666
Pd7 Pd8 2.867839 1_655
Pd8 Te4 2.681270 1_556
Pd8 Te3 2.690047 1_555
Pd8 Te1 2.856872 1_455
Pd8 Te0 2.888640 1_566
Pd9 Te5 2.681270 1_655
Pd9 Te1 2.690046 1_555
Pd9 Te2 2.856872 1_545
Pd9 Te0 2.888640 1_656
Pd10 Te6 2.681270 1_565
Pd10 Te2 2.690046 1_555
Pd10 Pd14 2.835533 1_565
Pd10 Pd5 2.848464 1_554
Pd10 Te3 2.856872 1_554
Pd10 Pd6 2.867839 1_554
Pd10 Te0 2.888641 1_665
Pd10 Pd4 2.938977 1_665
Pd10 Pd15 2.957564 1_555
Pd10 Pd2 2.960731 1_565
Pd10 Pd11 3.129890 1_565
Pd10 Pd12 3.129891 1_655
Pd11 Te1 2.681270 1_554
Pd11 Te6 2.690047 1_555
Pd11 Pd18 2.835534 1_554
Pd11 Pd3 2.848465 1_655
Pd11 Te4 2.856872 1_655
Pd11 Pd4 2.867839 1_655
Pd11 Te0 2.888640 1_655
Pd11 Pd5 2.938977 1_544
Pd11 Pd19 2.957563 1_555
Pd11 Pd6 2.960730 1_554
Pd11 Pd9 3.129890 1_554
Pd12 Te2 2.681270 1_455
Pd12 Te4 2.690046 1_555
Pd12 Pd19 2.835534 1_455
Pd12 Pd4 2.848464 1_565
Pd12 Te5 2.856872 1_565
Pd12 Pd2 2.867839 1_565
Pd12 Te0 2.888640 1_565
Pd12 Pd6 2.938977 1_454
Pd12 Pd17 2.957564 1_555
Pd12 Pd7 2.960730 1_455
Pd12 Pd8 3.129890 1_554
Pd13 Te3 2.681270 1_545
Pd13 Te5 2.690046 1_555
Pd13 Pd17 2.835533 1_545
Pd13 Pd2 2.848464 1_556
Pd13 Te6 2.856872 1_556
Pd13 Pd3 2.867839 1_556
Pd13 Te0 2.888641 1_556
Pd13 Pd7 2.938977 1_445
Pd13 Pd18 2.957564 1_555
Pd13 Pd5 2.960731 1_545
Pd13 Pd8 3.129890 1_545
Pd13 Pd9 3.129891 1_455
Pd14 Te1 2.641325 1_555
Pd14 Te2 2.751141 1_545
Pd14 Te6 2.830516 1_555
Pd14 Pd9 2.957564 1_555
Pd15 Te2 2.641325 1_555
Pd15 Te3 2.751141 1_554
Pd15 Te4 2.830516 1_555
Pd15 Pd8 2.835534 1_554
Pd16 Te3 2.641325 1_555
Pd16 Te1 2.751141 1_455
Pd16 Te5 2.830515 1_555
Pd16 Pd9 2.835534 1_455
Pd16 Pd8 2.957563 1_555
Pd17 Te4 2.641325 1_555
Pd17 Te5 2.751141 1_565
Pd17 Te3 2.830516 1_555
Pd18 Te5 2.641325 1_555
Pd18 Te6 2.751141 1_556
Pd18 Te1 2.830516 1_555
Pd19 Te6 2.641325 1_555
Pd19 Te4 2.751141 1_655
Pd19 Te2 2.830515 1_555
