# generated using pymatgen
data_Na3Mg2Sn2P3(SO8)3
_symmetry_space_group_name_H-M   'P 1'
_cell_length_a   8.78554567
_cell_length_b   8.77440041
_cell_length_c   22.63895630
_cell_angle_alpha   90.12711770
_cell_angle_beta   89.78013439
_cell_angle_gamma   120.02787292
_symmetry_Int_Tables_number   1
_chemical_formula_structural   Na3Mg2Sn2P3(SO8)3
_chemical_formula_sum   'Na9 Mg6 Sn6 P9 S9 O72'
_cell_volume   1510.94255056
_cell_formula_units_Z   3
loop_
 _symmetry_equiv_pos_site_id
 _symmetry_equiv_pos_as_xyz
  1  'x, y, z'
loop_
 _atom_site_type_symbol
 _atom_site_label
 _atom_site_symmetry_multiplicity
 _atom_site_fract_x
 _atom_site_fract_y
 _atom_site_fract_z
 _atom_site_occupancy
  Na  Na0  1  0.66094023  0.68593619  0.08214243  1
  Na  Na1  1  0.33358855  0.29875419  0.91730946  1
  Na  Na2  1  0.33340953  0.03443584  0.41752869  1
  Na  Na3  1  0.99469257  0.00027073  0.49997503  1
  Na  Na4  1  0.00515697  0.99679395  0.99965609  1
  Na  Na5  1  0.67993713  0.33408539  0.83190882  1
  Na  Na6  1  0.67968831  0.34460791  0.33158014  1
  Na  Na7  1  0.31262218  0.65676823  0.16420386  1
  Na  Na8  1  0.33459270  0.67622949  0.66382372  1
  Mg  Mg0  1  0.99582199  0.00122581  0.34765997  1
  Mg  Mg1  1  0.99394243  0.99357931  0.84735058  1
  Mg  Mg2  1  0.67210032  0.33832282  0.98472560  1
  Mg  Mg3  1  0.66611867  0.33361845  0.48434605  1
  Mg  Mg4  1  0.31974252  0.66079533  0.02097064  1
  Mg  Mg5  1  0.33425826  0.67170761  0.52088688  1
  Sn  Sn0  1  0.00709611  0.00086360  0.65147313  1
  Sn  Sn1  1  0.01127029  0.00375115  0.15190839  1
  Sn  Sn2  1  0.66089528  0.32663882  0.68583930  1
  Sn  Sn3  1  0.66804936  0.33778323  0.18594408  1
  Sn  Sn4  1  0.33286274  0.66268851  0.31256431  1
  Sn  Sn5  1  0.33332401  0.67062197  0.81226066  1
  P  P0  1  0.29775763  0.00160925  0.25377260  1
  P  P1  1  0.70890983  0.70929712  0.25074589  1
  P  P2  1  0.99700210  0.29085718  0.25131989  1
  P  P3  1  0.29386361  0.29429155  0.75335060  1
  P  P4  1  0.99671005  0.70369798  0.75099346  1
  P  P5  1  0.71107316  0.00086011  0.75072903  1
  P  P6  1  0.37001938  0.03728615  0.58092864  1
  P  P7  1  0.96168397  0.62788736  0.08331915  1
  P  P8  1  0.37063671  0.33103292  0.08049868  1
  S  S0  1  0.96075062  0.33295901  0.58244763  1
  S  S1  1  0.66690882  0.62773060  0.58259001  1
  S  S2  1  0.66684125  0.04005801  0.08234245  1
  S  S3  1  0.62833802  0.66992197  0.91851926  1
  S  S4  1  0.03768004  0.37253559  0.91715357  1
  S  S5  1  0.33454059  0.95983136  0.91817462  1
  S  S6  1  0.62845292  0.95860763  0.41815777  1
  S  S7  1  0.33355761  0.37541923  0.41866766  1
  S  S8  1  0.03788531  0.66377593  0.41794666  1
  O  O0  1  0.22001313  0.02870941  0.30991058  1
  O  O1  1  0.82056398  0.79561657  0.30373347  1
  O  O2  1  0.97253733  0.18412757  0.30570174  1
  O  O3  1  0.21594443  0.18971839  0.80940407  1
  O  O4  1  0.96895145  0.78448347  0.80537998  1
  O  O5  1  0.81838668  0.02743824  0.80501557  1
  O  O6  1  0.78662622  0.96851181  0.69245370  1
  O  O7  1  0.18288446  0.21696672  0.69638145  1
  O  O8  1  0.03192237  0.81165193  0.69296590  1
  O  O9  1  0.78130226  0.81228244  0.19098089  1
  O  O10  1  0.02995112  0.21632622  0.19299613  1
  O  O11  1  0.18654307  0.96620344  0.19682653  1
  O  O12  1  0.88467220  0.36316366  0.63800411  1
  O  O13  1  0.48321349  0.12452917  0.63761709  1
  O  O14  1  0.64337824  0.52519458  0.63836373  1
  O  O15  1  0.88147498  0.51709557  0.14072166  1
  O  O16  1  0.63887810  0.11520043  0.13789587  1
  O  O17  1  0.48893902  0.36329568  0.13631016  1
  O  O18  1  0.44867710  0.29974795  0.02440371  1
  O  O19  1  0.84033722  0.54703394  0.03032893  1
  O  O20  1  0.69507182  0.15053585  0.03083945  1
  O  O21  1  0.44977314  0.14704772  0.52515512  1
  O  O22  1  0.69731638  0.54560323  0.53118059  1
  O  O23  1  0.85034363  0.30667233  0.53100545  1
  O  O24  1  0.54299341  0.69081732  0.97146277  1
  O  O25  1  0.15463247  0.45955157  0.96758172  1
  O  O26  1  0.31300081  0.84962603  0.96869882  1
  O  O27  1  0.54014531  0.84800609  0.46928573  1
  O  O28  1  0.31184689  0.46407183  0.46934467  1
  O  O29  1  0.15460776  0.69290649  0.46820886  1
  O  O30  1  0.11497021  0.63322640  0.36192982  1
  O  O31  1  0.51237066  0.88179017  0.36332271  1
  O  O32  1  0.36342904  0.48066825  0.36241178  1
  O  O33  1  0.11575768  0.48114069  0.86155269  1
  O  O34  1  0.36372199  0.88396515  0.86177354  1
  O  O35  1  0.50985303  0.63330245  0.86477563  1
  O  O36  1  0.02744004  0.82705832  0.41141470  1
  O  O37  1  0.80140239  0.97491326  0.41048763  1
  O  O38  1  0.17589470  0.19720944  0.41271290  1
  O  O39  1  0.02743553  0.19897107  0.91064344  1
  O  O40  1  0.17650191  0.97961586  0.91236769  1
  O  O41  1  0.80104552  0.82687182  0.91078496  1
  O  O42  1  0.96988048  0.16618607  0.58849539  1
  O  O43  1  0.18495908  0.02684010  0.58800489  1
  O  O44  1  0.82915234  0.80752399  0.58810017  1
  O  O45  1  0.96614568  0.81112921  0.09024543  1
  O  O46  1  0.82772635  0.02052824  0.08799606  1
  O  O47  1  0.18489220  0.16467391  0.08839490  1
  O  O48  1  0.69042431  0.16657572  0.74417966  1
  O  O49  1  0.47927024  0.31459773  0.74540206  1
  O  O50  1  0.83178636  0.51756028  0.74281438  1
  O  O51  1  0.68655511  0.52224518  0.24546181  1
  O  O52  1  0.83139576  0.31026914  0.24431605  1
  O  O53  1  0.48229979  0.16681782  0.24491066  1
  O  O54  1  0.64054326  0.50667608  0.92143798  1
  O  O55  1  0.86275440  0.35323831  0.92328892  1
  O  O56  1  0.49229828  0.13906965  0.92182164  1
  O  O57  1  0.64222060  0.13484018  0.42274313  1
  O  O58  1  0.49150496  0.35408017  0.42216864  1
  O  O59  1  0.86256455  0.50774359  0.42404708  1
  O  O60  1  0.35923502  0.49991848  0.07692604  1
  O  O61  1  0.14576970  0.65688251  0.07806600  1
  O  O62  1  0.51465712  0.86129372  0.07664028  1
  O  O63  1  0.34684523  0.85344522  0.57824404  1
  O  O64  1  0.51082290  0.64554933  0.57739020  1
  O  O65  1  0.13789420  0.48438086  0.57698098  1
  O  O66  1  0.31838335  0.83533882  0.25661285  1
  O  O67  1  0.52121457  0.68744194  0.25448543  1
  O  O68  1  0.16329135  0.47946128  0.25445692  1
  O  O69  1  0.31628874  0.48205816  0.75609088  1
  O  O70  1  0.16287521  0.68216436  0.75469370  1
  O  O71  1  0.52220895  0.83543091  0.75419949  1
loop_
_geom_bond_atom_site_label_1
_geom_bond_atom_site_label_2
_geom_bond_distance
_geom_bond_site_symmetry_2
Na0 O60 2.318503 1_555
Na0 O45 2.342035 1_555
Na0 O62 2.452724 1_555
Na0 O46 2.545210 1_565
Na0 O19 2.692114 1_555
Na0 O9 2.693148 1_555
Na0 O24 2.723750 1_554
Na0 O17 2.742510 1_555
Na1 O39 2.381078 1_555
Na1 O54 2.384692 1_555
Na1 O56 2.423816 1_555
Na1 O40 2.427034 1_545
Na1 O18 2.628790 1_556
Na1 O3 2.640172 1_555
Na1 O35 2.807351 1_555
Na1 O25 2.820834 1_555
Na2 O36 2.379575 1_545
Na2 O57 2.400134 1_555
Na2 O58 2.430524 1_555
Na2 O38 2.438606 1_555
Na2 O0 2.626572 1_555
Na2 O21 2.637363 1_555
Na2 O31 2.803111 1_545
Na2 O29 2.838018 1_545
Na3 O43 2.540418 1_655
Na3 O42 2.546421 1_555
Na3 O44 2.546896 1_545
Na3 O38 2.580859 1_655
Na3 O37 2.585300 1_545
Na3 O36 2.613816 1_645
Na4 O47 2.526349 1_566
Na4 O40 2.529191 1_555
Na4 O45 2.535353 1_456
Na4 O46 2.602332 1_466
Na4 O41 2.612485 1_455
Na4 O39 2.628972 1_565
Na5 O48 2.496908 1_555
Na5 O50 2.506798 1_555
Na5 O55 2.577110 1_555
Na5 O49 2.587667 1_555
Na5 O56 2.637325 1_555
Na5 O54 2.650811 1_555
Na6 O52 2.479752 1_555
Na6 O51 2.480441 1_555
Na6 O53 2.568219 1_555
Na6 O59 2.592921 1_555
Na6 O58 2.656489 1_555
Na6 O57 2.675964 1_555
Na7 O61 2.444388 1_555
Na7 O68 2.503428 1_555
Na7 O60 2.551804 1_555
Na7 O66 2.596367 1_555
Na7 O62 2.664875 1_555
Na7 O67 2.672257 1_555
Na8 O63 2.455074 1_555
Na8 O71 2.561867 1_555
Na8 O70 2.562244 1_555
Na8 O64 2.586527 1_555
Na8 O65 2.604847 1_555
Na8 O69 2.651566 1_555
Mg0 O1 1.959108 1_545
Mg0 O2 1.963805 1_555
Mg0 O0 2.044653 1_655
Mg0 O37 2.140574 1_545
Mg0 O38 2.216473 1_655
Mg0 O36 2.221164 1_645
Mg1 O5 1.963899 1_565
Mg1 O4 1.976821 1_555
Mg1 O3 2.034247 1_665
Mg1 O41 2.140945 1_555
Mg1 O39 2.201967 1_665
Mg1 O40 2.229260 1_655
Mg2 O19 1.974459 1_556
Mg2 O18 2.024175 1_556
Mg2 O20 2.046374 1_556
Mg2 O55 2.126213 1_555
Mg2 O54 2.175806 1_555
Mg2 O56 2.195929 1_555
Mg3 O21 2.006298 1_555
Mg3 O22 2.035266 1_555
Mg3 O23 2.046592 1_555
Mg3 O59 2.128043 1_555
Mg3 O57 2.157801 1_555
Mg3 O58 2.158797 1_555
Mg4 O61 1.985095 1_555
Mg4 O25 2.030639 1_554
Mg4 O60 2.054068 1_555
Mg4 O26 2.063151 1_554
Mg4 O62 2.146472 1_555
Mg4 O24 2.154052 1_554
Mg5 O63 2.014111 1_555
Mg5 O27 2.054466 1_555
Mg5 O29 2.063301 1_555
Mg5 O28 2.086357 1_555
Mg5 O65 2.108316 1_555
Mg5 O64 2.113792 1_555
O0 P0 1.514206 1_555
O1 P1 1.495430 1_555
O2 P2 1.496851 1_555
O3 P3 1.513517 1_555
O4 P4 1.498252 1_555
O5 P5 1.497083 1_555
O6 P5 1.562650 1_565
O6 Sn0 2.032280 1_665
O7 P3 1.555008 1_555
O7 Sn0 2.021598 1_555
O8 P4 1.558151 1_455
O8 Sn0 2.014248 1_565
O9 P1 1.573320 1_555
O9 Sn1 2.069451 1_665
O10 P2 1.561279 1_455
O10 Sn1 2.014525 1_555
O11 P0 1.554775 1_565
O11 Sn1 2.008749 1_565
O12 S0 1.506074 1_555
O12 Sn2 2.120196 1_555
O13 P6 1.570199 1_555
O13 Sn2 2.001845 1_555
O14 S1 1.504453 1_555
O14 Sn2 2.119454 1_555
O15 P7 1.563124 1_555
O15 Sn3 2.019712 1_555
O16 S2 1.494280 1_555
O16 Sn3 2.134243 1_555
O17 P8 1.571901 1_555
O17 Sn3 2.038657 1_555
O18 P8 1.529151 1_555
O19 P7 1.525806 1_555
O20 S2 1.457007 1_555
O21 P6 1.528402 1_555
O22 S1 1.460063 1_555
O23 S0 1.460795 1_555
O24 S3 1.470420 1_555
O25 S4 1.470376 1_555
O26 S5 1.448892 1_555
O27 S6 1.458774 1_555
O28 S7 1.449333 1_555
O29 S8 1.468684 1_555
O30 S8 1.520632 1_555
O30 Sn4 2.114228 1_555
O31 S6 1.534117 1_555
O31 Sn4 2.115002 1_555
O32 S7 1.517828 1_555
O32 Sn4 2.082302 1_555
O33 S4 1.519061 1_555
O33 Sn5 2.115259 1_555
O34 S5 1.517813 1_555
O34 Sn5 2.079579 1_555
O35 S3 1.529843 1_555
O35 Sn5 2.109534 1_555
O36 S8 1.488477 1_555
O37 S6 1.462832 1_555
O38 S7 1.488175 1_555
O39 S4 1.486958 1_555
O40 S5 1.489284 1_555
O41 S3 1.461902 1_555
O42 S0 1.511611 1_555
O42 Sn0 2.175171 1_655
O43 P6 1.589462 1_555
O43 Sn0 2.045984 1_555
O44 S1 1.511951 1_555
O44 Sn0 2.175397 1_665
O45 P7 1.595968 1_555
O45 Sn1 2.070191 1_665
O46 S2 1.512458 1_555
O46 Sn1 2.229778 1_655
O47 P8 1.562225 1_555
O47 Sn1 2.055364 1_555
O48 P5 1.560237 1_555
O48 Sn2 2.039546 1_555
O49 P3 1.557195 1_555
O49 Sn2 2.047197 1_555
O50 P4 1.559955 1_555
O50 Sn2 2.052374 1_555
O51 P1 1.556708 1_555
O51 Sn3 2.047019 1_555
O52 P2 1.555933 1_555
O52 Sn3 2.055916 1_555
O53 P0 1.554605 1_555
O53 Sn3 2.058544 1_555
O54 S3 1.490567 1_555
O55 S4 1.465537 1_655
O56 S5 1.489933 1_545
O57 S6 1.492898 1_545
O58 S7 1.492606 1_555
O59 S8 1.467858 1_655
O60 P8 1.536773 1_555
O61 P7 1.510416 1_455
O62 S2 1.471772 1_565
O63 P6 1.522557 1_565
O64 S1 1.461050 1_555
O65 S0 1.460280 1_455
O66 P0 1.559014 1_565
O66 Sn4 2.029340 1_555
O67 P1 1.563864 1_555
O67 Sn4 2.034483 1_555
O68 P2 1.567990 1_455
O68 Sn4 2.035483 1_555
O69 P3 1.559431 1_555
O69 Sn5 2.030075 1_555
O70 P4 1.565553 1_455
O70 Sn5 2.029421 1_555
O71 P5 1.566943 1_565
O71 Sn5 2.040269 1_555
