# generated using pymatgen
data_FeHO2
_symmetry_space_group_name_H-M   'P 1'
_cell_length_a   7.68417712
_cell_length_b   7.68417712
_cell_length_c   4.04855200
_cell_angle_alpha   90.00000000
_cell_angle_beta   90.00000000
_cell_angle_gamma   160.26955063
_symmetry_Int_Tables_number   1
_chemical_formula_structural   FeHO2
_chemical_formula_sum   'Fe2 H2 O4'
_cell_volume   80.70327613
_cell_formula_units_Z   2
loop_
 _symmetry_equiv_pos_site_id
 _symmetry_equiv_pos_as_xyz
  1  'x, y, z'
loop_
 _atom_site_type_symbol
 _atom_site_label
 _atom_site_symmetry_multiplicity
 _atom_site_fract_x
 _atom_site_fract_y
 _atom_site_fract_z
 _atom_site_occupancy
  Fe  Fe0  1  0.31202100  0.68797900  0.75000000  1
  Fe  Fe1  1  0.68797900  0.31202100  0.25000000  1
  H  H0  1  0.44332500  0.55667500  0.75000000  1
  H  H1  1  0.55667500  0.44332500  0.25000000  1
  O  O0  1  0.28631600  0.71368400  0.25000000  1
  O  O1  1  0.71368400  0.28631600  0.75000000  1
  O  O2  1  0.08276000  0.91724000  0.25000000  1
  O  O3  1  0.91724000  0.08276000  0.75000000  1
loop_
_geom_bond_atom_site_label_1
_geom_bond_atom_site_label_2
_geom_bond_distance
_geom_bond_site_symmetry_2
Fe0 O1 1.987509 1_565
Fe0 O1 1.987509 1_455
Fe0 H0 1.988088 1_555
Fe0 O0 2.061352 1_555
Fe0 O0 2.061352 1_556
Fe0 O3 2.066723 1_455
Fe0 O3 2.066723 1_565
Fe1 O0 1.987509 1_655
Fe1 O0 1.987509 1_545
Fe1 H1 1.988088 1_555
Fe1 O1 2.061352 1_554
Fe1 O1 2.061352 1_555
Fe1 O2 2.066723 1_545
Fe1 O2 2.066723 1_655
H0 O3 1.374505 1_455
H0 O3 1.374505 1_565
H1 O2 1.374505 1_545
H1 O2 1.374505 1_655
