# generated using pymatgen
data_K8MgCo2(Mo4O15)2
_symmetry_space_group_name_H-M   'P 1'
_cell_length_a   10.42540131
_cell_length_b   10.71556419
_cell_length_c   8.50139059
_cell_angle_alpha   92.14570667
_cell_angle_beta   88.00412047
_cell_angle_gamma   120.66772323
_symmetry_Int_Tables_number   1
_chemical_formula_structural   K8MgCo2(Mo4O15)2
_chemical_formula_sum   'K8 Mg1 Co2 Mo8 O30'
_cell_volume   816.18658212
_cell_formula_units_Z   1
loop_
 _symmetry_equiv_pos_site_id
 _symmetry_equiv_pos_as_xyz
  1  'x, y, z'
loop_
 _atom_site_type_symbol
 _atom_site_label
 _atom_site_symmetry_multiplicity
 _atom_site_fract_x
 _atom_site_fract_y
 _atom_site_fract_z
 _atom_site_occupancy
  K  K0  1  0.09620100  0.68751800  0.14846700  1
  K  K1  1  0.58444500  0.88770300  0.14175700  1
  K  K2  1  0.39564800  0.08583300  0.85528500  1
  K  K3  1  0.00655300  0.00813700  0.00620700  1
  K  K4  1  0.91669000  0.30330500  0.85528200  1
  K  K5  1  0.68941400  0.54873100  0.89528500  1
  K  K6  1  0.31455600  0.41002700  0.13311300  1
  K  K7  1  0.99707600  0.00454000  0.50416800  1
  Mg  Mg0  1  0.64302700  0.77886200  0.73930800  1
  Co  Co0  1  0.33453100  0.67546100  0.48143400  1
  Co  Co1  1  0.66270400  0.33973100  0.53002100  1
  Mo  Mo0  1  0.98967400  0.33355800  0.36612000  1
  Mo  Mo1  1  0.00304900  0.67592300  0.64326800  1
  Mo  Mo2  1  0.33512900  0.00948400  0.37317100  1
  Mo  Mo3  1  0.66610500  0.31159600  0.15848300  1
  Mo  Mo4  1  0.66631700  0.01940700  0.59566200  1
  Mo  Mo5  1  0.33419200  0.67162600  0.84336600  1
  Mo  Mo6  1  0.67472900  0.65254700  0.36709400  1
  Mo  Mo7  1  0.32339600  0.34665900  0.63304900  1
  O  O0  1  0.49590800  0.81874900  0.63741900  1
  O  O1  1  0.65910400  0.47467400  0.34507200  1
  O  O2  1  0.73549800  0.00211600  0.40736500  1
  O  O3  1  0.49654600  0.63682500  0.33993600  1
  O  O4  1  0.18853000  0.51691800  0.94473900  1
  O  O5  1  0.15242000  0.51541500  0.35712500  1
  O  O6  1  0.26311400  0.01252400  0.56261400  1
  O  O7  1  0.35695000  0.85117100  0.35522000  1
  O  O8  1  0.51685100  0.31717100  0.06803300  1
  O  O9  1  0.84461400  0.49246600  0.66129400  1
  O  O10  1  0.33522100  0.52570100  0.64346100  1
  O  O11  1  0.81355100  0.33729000  0.35111300  1
  O  O12  1  0.98250800  0.26131400  0.55135000  1
  O  O13  1  0.73051200  0.71798800  0.56712700  1
  O  O14  1  0.35591700  0.83230400  0.94341000  1
  O  O15  1  0.82598100  0.45891200  0.06733800  1
  O  O16  1  0.21159300  0.99433900  0.22482000  1
  O  O17  1  0.00442700  0.73712900  0.45310200  1
  O  O18  1  0.66117400  0.15979700  0.06423300  1
  O  O19  1  0.77822500  0.99015000  0.75137000  1
  O  O20  1  0.00914700  0.22976200  0.20910600  1
  O  O21  1  0.51939600  0.18035200  0.35209800  1
  O  O22  1  0.50725100  0.36935000  0.65835600  1
  O  O23  1  0.17665500  0.67356600  0.66771500  1
  O  O24  1  0.26028600  0.27034900  0.44447300  1
  O  O25  1  0.63892000  0.17137000  0.65801000  1
  O  O26  1  0.79690500  0.77077600  0.22069400  1
  O  O27  1  0.98117500  0.78392700  0.79654200  1
  O  O28  1  0.51335600  0.67418900  0.91558800  1
  O  O29  1  0.20482600  0.22900800  0.78417300  1
loop_
_geom_bond_atom_site_label_1
_geom_bond_atom_site_label_2
_geom_bond_distance
_geom_bond_site_symmetry_2
K0 O15 2.716942 1_455
K0 O17 2.854538 1_555
K0 O5 2.882915 1_555
K0 O14 2.892367 1_554
K0 O16 2.921943 1_555
K0 O4 2.951262 1_554
K0 O7 2.965380 1_555
K1 O2 2.674439 1_565
K1 O18 2.702435 1_565
K1 O28 2.742430 1_554
K1 O14 2.762995 1_554
K1 O7 2.806753 1_555
K1 O3 2.936630 1_555
K1 O26 3.150222 1_555
K2 O14 2.663871 1_545
K2 O25 2.744559 1_555
K2 O8 2.764241 1_556
K2 O6 2.775391 1_555
K2 O18 3.073362 1_556
K2 O29 3.153365 1_555
K2 O22 3.166322 1_555
K3 O27 2.843066 1_444
K3 O20 2.871747 1_555
K3 O29 2.917094 1_554
K3 O16 2.943653 1_545
K3 O26 2.994985 1_445
K3 O19 3.202657 1_444
K4 O4 2.692919 1_655
K4 O12 2.730195 1_555
K4 O15 2.861693 1_556
K4 O18 2.883142 1_556
K4 O19 3.008301 1_545
K4 O25 3.030131 1_555
K4 O9 3.046861 1_555
K5 O15 2.596394 1_556
K5 O8 2.661811 1_556
K5 O22 2.758834 1_555
K5 O9 2.760390 1_555
K5 O28 2.771961 1_555
K5 O27 2.910136 1_555
K6 O4 2.724317 1_554
K6 O8 2.786079 1_555
K6 O3 2.793962 1_555
K6 O20 2.821810 1_555
K6 O24 2.982511 1_555
K6 O5 3.053085 1_555
K6 O28 3.141362 1_554
K6 O29 3.378319 1_554
K7 O6 2.792409 1_655
K7 O24 2.817505 1_655
K7 O12 2.844995 1_555
K7 O2 2.863081 1_555
K7 O17 2.921259 1_645
K7 O13 2.958460 1_545
K7 O19 2.996240 1_545
K7 O16 3.242443 1_645
K7 O29 3.280083 1_655
K7 O26 3.317080 1_545
Mg0 O28 1.941504 1_555
Mg0 O13 1.960209 1_555
Mg0 O19 1.964814 1_555
Mg0 O0 2.018526 1_555
Co0 O0 2.077090 1_555
Co0 O5 2.084492 1_555
Co0 O7 2.106156 1_555
Co0 O10 2.156546 1_555
Co0 O23 2.236998 1_555
Co0 O3 2.237395 1_555
Co1 O25 2.042545 1_555
Co1 O22 2.072012 1_555
Co1 O9 2.089273 1_555
Co1 O11 2.158610 1_555
Co1 O1 2.189571 1_555
Co1 O21 2.190404 1_555
Mo0 O12 1.763144 1_555
Mo0 O20 1.777740 1_655
Mo0 O5 1.819700 1_655
Mo0 O11 1.865727 1_555
Mo1 O17 1.764132 1_555
Mo1 O27 1.795809 1_455
Mo1 O9 1.819019 1_455
Mo1 O23 1.841967 1_555
Mo2 O6 1.759358 1_555
Mo2 O16 1.777710 1_545
Mo2 O7 1.823387 1_545
Mo2 O21 1.867458 1_555
Mo3 O18 1.763658 1_555
Mo3 O15 1.785500 1_555
Mo3 O8 1.788212 1_555
Mo3 O21 2.197771 1_555
Mo3 O11 2.197815 1_555
Mo3 O1 2.343012 1_555
Mo4 O2 1.775028 1_555
Mo4 O25 1.847538 1_555
Mo4 O19 1.929633 1_545
Mo4 O0 2.005469 1_545
Mo5 O4 1.801322 1_555
Mo5 O14 1.801407 1_555
Mo5 O28 1.973047 1_555
Mo5 O23 2.266215 1_555
Mo5 O10 2.269411 1_555
Mo5 O0 2.383890 1_555
Mo6 O26 1.771426 1_555
Mo6 O3 1.800052 1_555
Mo6 O13 1.812573 1_555
Mo6 O1 1.831156 1_555
Mo7 O24 1.760151 1_555
Mo7 O29 1.785758 1_555
Mo7 O22 1.824489 1_555
Mo7 O10 1.857574 1_555
