# generated using pymatgen
data_Ba4Mg(CuO2)4
_symmetry_space_group_name_H-M   'P 1'
_cell_length_a   5.95950550
_cell_length_b   12.53492494
_cell_length_c   3.54213085
_cell_angle_alpha   90.00249738
_cell_angle_beta   90.00147013
_cell_angle_gamma   89.56068542
_symmetry_Int_Tables_number   1
_chemical_formula_structural   Ba4Mg(CuO2)4
_chemical_formula_sum   'Ba4 Mg1 Cu4 O8'
_cell_volume   264.59631815
_cell_formula_units_Z   1
loop_
 _symmetry_equiv_pos_site_id
 _symmetry_equiv_pos_as_xyz
  1  'x, y, z'
loop_
 _atom_site_type_symbol
 _atom_site_label
 _atom_site_symmetry_multiplicity
 _atom_site_fract_x
 _atom_site_fract_y
 _atom_site_fract_z
 _atom_site_occupancy
  Ba  Ba0  1  0.24182400  0.12245500  0.50024700  1
  Ba  Ba1  1  0.25823400  0.37799400  0.49972400  1
  Ba  Ba2  1  0.74419700  0.89933300  0.50016700  1
  Ba  Ba3  1  0.75580800  0.60110600  0.49970000  1
  Mg  Mg0  1  0.24999100  0.75025300  0.50014700  1
  Cu  Cu0  1  0.24487300  0.90608900  0.00020700  1
  Cu  Cu1  1  0.25508200  0.59436100  0.99999700  1
  Cu  Cu2  1  0.74644900  0.13475400  0.00003600  1
  Cu  Cu3  1  0.75356700  0.36563200  0.99976000  1
  O  O0  1  0.03162600  0.74898100  0.99975600  1
  O  O1  1  0.97790200  0.24981300  0.99984900  1
  O  O2  1  0.99957900  0.48960200  0.99981400  1
  O  O3  1  0.50042100  0.01086000  0.00012500  1
  O  O4  1  0.46828400  0.75167100  0.00073300  1
  O  O5  1  0.52214500  0.25060200  0.99974900  1
  O  O6  1  0.51436700  0.48973200  0.99972800  1
  O  O7  1  0.98564900  0.01076100  0.00025900  1
loop_
_geom_bond_atom_site_label_1
_geom_bond_atom_site_label_2
_geom_bond_distance
_geom_bond_site_symmetry_2
Ba0 O3 2.726522 1_556
Ba0 O3 2.727055 1_555
Ba0 O7 2.731281 1_455
Ba0 O7 2.731466 1_456
Ba0 O1 2.848768 1_455
Ba0 O1 2.850557 1_454
Ba0 O5 2.922711 1_555
Ba0 O5 2.924985 1_554
Ba1 O2 2.726872 1_454
Ba1 O2 2.727258 1_455
Ba1 O6 2.731462 1_555
Ba1 O6 2.731574 1_554
Ba1 O5 2.849790 1_554
Ba1 O5 2.849936 1_555
Ba1 O1 2.923785 1_454
Ba1 O1 2.924458 1_455
Ba2 O3 2.677659 1_566
Ba2 O3 2.677887 1_565
Ba2 O7 2.681064 1_565
Ba2 O7 2.681365 1_566
Ba2 O4 3.050492 1_555
Ba2 O4 3.052962 1_556
Ba2 O0 3.093251 1_655
Ba2 O0 3.094874 1_654
Ba3 O2 2.677325 1_554
Ba3 O2 2.677890 1_555
Ba3 O6 2.680694 1_554
Ba3 O6 2.680954 1_555
Ba3 O0 3.053006 1_654
Ba3 O0 3.053094 1_655
Ba3 O4 3.093919 1_555
Ba3 O4 3.098061 1_556
Mg0 O4 2.196020 1_555
Mg0 O0 2.196808 1_555
Mg0 O0 2.198985 1_554
Mg0 O4 2.199311 1_556
Cu0 O3 2.018605 1_565
Cu0 O7 2.019148 1_465
Cu0 O4 2.340893 1_555
Cu0 O0 2.351961 1_554
Cu1 O2 2.018302 1_455
Cu1 O6 2.019078 1_555
Cu1 O0 2.343126 1_555
Cu1 O4 2.353946 1_556
Cu2 O5 1.966174 1_554
Cu2 O1 2.003298 1_554
Cu2 O7 2.100901 1_555
Cu2 O3 2.143943 1_555
Cu3 O1 1.966031 1_555
Cu3 O5 2.002906 1_555
Cu3 O6 2.101886 1_555
Cu3 O2 2.144572 1_555
