# generated using pymatgen
data_MgCo2(SbO3)4
_symmetry_space_group_name_H-M   'P 1'
_cell_length_a   4.99519289
_cell_length_b   4.88241016
_cell_length_c   9.56620226
_cell_angle_alpha   89.69303404
_cell_angle_beta   90.17212829
_cell_angle_gamma   92.10319915
_symmetry_Int_Tables_number   1
_chemical_formula_structural   MgCo2(SbO3)4
_chemical_formula_sum   'Mg1 Co2 Sb4 O12'
_cell_volume   233.14466040
_cell_formula_units_Z   1
loop_
 _symmetry_equiv_pos_site_id
 _symmetry_equiv_pos_as_xyz
  1  'x, y, z'
loop_
 _atom_site_type_symbol
 _atom_site_label
 _atom_site_symmetry_multiplicity
 _atom_site_fract_x
 _atom_site_fract_y
 _atom_site_fract_z
 _atom_site_occupancy
  Mg  Mg0  1  0.00399900  0.50211100  0.02887700  1
  Co  Co0  1  0.00013700  0.00139200  0.99474000  1
  Co  Co1  1  0.49893000  0.50036800  0.50968400  1
  Sb  Sb0  1  0.00095300  0.99786200  0.67040700  1
  Sb  Sb1  1  0.99918800  0.00129200  0.34206100  1
  Sb  Sb2  1  0.50353100  0.49831400  0.19719100  1
  Sb  Sb3  1  0.50070800  0.49828200  0.82337300  1
  O  O0  1  0.31798500  0.26935700  0.35096500  1
  O  O1  1  0.30816300  0.29268800  0.97499200  1
  O  O2  1  0.18068700  0.77574500  0.82695900  1
  O  O3  1  0.69236700  0.70307300  0.97507900  1
  O  O4  1  0.31721600  0.28494000  0.67088600  1
  O  O5  1  0.13742100  0.79234400  0.17205300  1
  O  O6  1  0.82147900  0.21728500  0.82739400  1
  O  O7  1  0.68352700  0.72873700  0.35079400  1
  O  O8  1  0.17088900  0.80098100  0.50782900  1
  O  O9  1  0.82965500  0.19779900  0.50791300  1
  O  O10  1  0.68408700  0.71193600  0.67061500  1
  O  O11  1  0.84908000  0.22549500  0.17676000  1
loop_
_geom_bond_atom_site_label_1
_geom_bond_atom_site_label_2
_geom_bond_distance
_geom_bond_site_symmetry_2
Mg0 O1 1.934949 1_554
Mg0 O3 1.937175 1_454
Mg0 O5 2.067392 1_555
Mg0 O11 2.081717 1_455
Mg0 O2 2.488157 1_554
Mg0 O6 2.530847 1_454
Co0 O1 2.064971 1_555
Co0 O3 2.087382 1_445
Co0 O5 2.101185 1_546
Co0 O6 2.124304 1_455
Co0 O2 2.168830 1_545
Co0 O11 2.210741 1_456
Co1 O4 2.056505 1_555
Co1 O10 2.056905 1_555
Co1 O7 2.078121 1_555
Co1 O0 2.080798 1_555
Co1 O8 2.239572 1_555
Co1 O9 2.256410 1_555
O0 Sb1 2.025716 1_455
O0 Sb2 2.046242 1_555
O1 Sb3 1.989546 1_555
O1 Sb2 2.533173 1_556
O2 Sb0 2.066624 1_555
O2 Sb3 2.133436 1_555
O3 Sb3 1.989819 1_555
O3 Sb2 2.514737 1_556
O4 Sb3 1.997782 1_555
O4 Sb0 2.073124 1_545
O5 Sb1 2.058815 1_465
O5 Sb2 2.376875 1_555
O6 Sb0 2.074264 1_645
O6 Sb3 2.147447 1_555
O7 Sb1 2.027229 1_565
O7 Sb2 2.041748 1_555
O8 Sb0 2.036476 1_555
O8 Sb1 2.059987 1_465
O9 Sb0 2.034319 1_645
O9 Sb1 2.058857 1_555
O10 Sb3 1.996058 1_555
O10 Sb0 2.071696 1_655
O11 Sb1 2.072578 1_555
O11 Sb2 2.228318 1_555
