# generated using pymatgen
data_Sr2In4Pt3
_symmetry_space_group_name_H-M   'P 1'
_cell_length_a   14.72801063
_cell_length_b   14.72797888
_cell_length_c   4.55307414
_cell_angle_alpha   89.99996008
_cell_angle_beta   90.00004029
_cell_angle_gamma   119.99939777
_symmetry_Int_Tables_number   1
_chemical_formula_structural   Sr2In4Pt3
_chemical_formula_sum   'Sr8 In16 Pt12'
_cell_volume   855.31331144
_cell_formula_units_Z   4
loop_
 _symmetry_equiv_pos_site_id
 _symmetry_equiv_pos_as_xyz
  1  'x, y, z'
loop_
 _atom_site_type_symbol
 _atom_site_label
 _atom_site_symmetry_multiplicity
 _atom_site_fract_x
 _atom_site_fract_y
 _atom_site_fract_z
 _atom_site_occupancy
  Sr  Sr0  1  0.18638396  -0.00002250  0.50000020  1
  Sr  Sr1  1  0.81360858  0.81359998  0.50000029  1
  Sr  Sr2  1  -0.00001740  0.18639826  0.49999979  1
  Sr  Sr3  1  0.66669063  0.33334285  0.00000005  1
  Sr  Sr4  1  0.33332480  0.66666996  -0.00000005  1
  Sr  Sr5  1  0.55117336  0.00000073  -0.00000011  1
  Sr  Sr6  1  0.44883823  0.44884528  0.00000005  1
  Sr  Sr7  1  0.99999344  0.55115932  -0.00000030  1
  In  In0  1  0.47907131  0.12465775  0.49999991  1
  In  In1  1  0.87533199  0.35441329  0.49999985  1
  In  In2  1  0.64561086  0.52093335  0.49999982  1
  In  In3  1  0.52093279  0.64560621  0.49999983  1
  In  In4  1  0.35440219  0.87532483  0.49999985  1
  In  In5  1  0.12465352  0.47907638  0.49999982  1
  In  In6  1  0.37908822  0.19553956  -0.00000010  1
  In  In7  1  0.80446233  0.18354327  0.00000010  1
  In  In8  1  0.81646316  0.62091289  0.00000000  1
  In  In9  1  0.62091390  0.81646258  -0.00000008  1
  In  In10  1  -0.00000247  -0.00000428  0.00000008  1
  In  In11  1  0.18353525  0.80445688  -0.00000015  1
  In  In12  1  0.72297475  0.99999857  0.49999977  1
  In  In13  1  0.27704367  0.27704537  0.49999998  1
  In  In14  1  0.00000138  0.72295695  0.49999994  1
  In  In15  1  0.19552161  0.37907876  0.00000294  1
  Pt  Pt0  1  0.99999595  0.35142748  -0.00000013  1
  Pt  Pt1  1  0.35142084  -0.00000421  -0.00000012  1
  Pt  Pt2  1  0.48243839  0.31322663  0.49999978  1
  Pt  Pt3  1  0.68679212  0.16919092  0.50000006  1
  Pt  Pt4  1  0.83082658  0.51759093  0.50000002  1
  Pt  Pt5  1  0.51758484  0.83081259  0.49999978  1
  Pt  Pt6  1  0.16917552  0.68676809  0.49999972  1
  Pt  Pt7  1  0.31320065  0.48242391  0.49999992  1
  Pt  Pt8  1  0.99999015  0.81859890  -0.00000022  1
  Pt  Pt9  1  0.18137006  0.18137435  0.00000007  1
  Pt  Pt10  1  0.81861153  0.99999474  -0.00000009  1
  Pt  Pt11  1  0.64859433  0.64859842  -0.00000028  1
loop_
_geom_bond_atom_site_label_1
_geom_bond_atom_site_label_2
_geom_bond_distance
_geom_bond_site_symmetry_2
In0 Pt2 2.752779 1_555
In0 Pt3 2.789815 1_555
In0 Pt1 2.938776 1_556
In0 Pt1 2.938776 1_555
In0 Sr5 3.410363 1_556
In0 Sr5 3.410366 1_555
In0 Sr3 3.711055 1_555
In0 Sr3 3.711056 1_556
In0 Sr0 3.746807 1_555
In1 Pt3 2.752735 1_555
In1 Pt4 2.789382 1_555
In1 Pt0 2.938771 1_556
In1 Pt0 2.938773 1_555
In1 Sr7 3.410279 1_555
In1 Sr7 3.410279 1_556
In1 Sr3 3.710510 1_555
In1 Sr3 3.710513 1_556
In1 Sr2 3.746519 1_655
In2 Pt4 2.752802 1_555
In2 Pt2 2.789620 1_555
In2 Pt11 2.938922 1_555
In2 Pt11 2.938924 1_556
In2 Sr6 3.410541 1_555
In2 Sr6 3.410544 1_556
In2 Sr3 3.710791 1_556
In2 Sr3 3.710792 1_555
In2 Sr1 3.746544 1_555
In3 Pt5 2.752701 1_555
In3 Pt7 2.789917 1_555
In3 Pt11 2.938852 1_556
In3 Pt11 2.938855 1_555
In3 Sr6 3.410407 1_556
In3 Sr6 3.410408 1_555
In3 Sr4 3.710889 1_555
In3 Sr4 3.710892 1_556
In3 Sr1 3.746656 1_555
In4 Pt6 2.752893 1_555
In4 Pt5 2.789525 1_555
In4 Pt1 2.938812 1_565
In4 Pt1 2.938814 1_566
In4 Sr5 3.410521 1_566
In4 Sr5 3.410521 1_565
In4 Sr4 3.710628 1_556
In4 Sr4 3.710629 1_555
In4 Sr0 3.746588 1_565
In5 Pt7 2.752605 1_555
In5 Pt6 2.789440 1_555
In5 Pt0 2.938749 1_455
In5 Pt0 2.938749 1_456
In5 Sr7 3.410233 1_455
In5 Sr7 3.410234 1_456
In5 Sr4 3.710839 1_555
In5 Sr4 3.710839 1_556
In5 Sr2 3.746687 1_555
In6 Pt1 2.699392 1_555
In6 Pt2 2.804562 1_555
In6 Pt2 2.804563 1_554
In6 Pt9 2.813492 1_555
In6 Sr6 3.337799 1_555
In6 Sr0 3.655006 1_554
In6 Sr0 3.655008 1_555
In6 Sr3 3.669405 1_555
In7 Pt0 2.699369 1_555
In7 Pt3 2.804359 1_554
In7 Pt3 2.804360 1_555
In7 Pt10 2.813286 1_545
In7 Sr5 3.337598 1_555
In7 Sr2 3.654522 1_655
In7 Sr2 3.654526 1_654
In7 Sr3 3.668977 1_555
In8 Pt11 2.699443 1_555
In8 Pt4 2.804446 1_555
In8 Pt4 2.804448 1_554
In8 Pt8 2.813080 1_555
In8 Sr7 3.337464 1_555
In8 Sr1 3.654765 1_554
In8 Sr1 3.654770 1_555
In8 Sr3 3.668983 1_555
In9 Pt11 2.699324 1_555
In9 Pt5 2.804440 1_554
In9 Pt5 2.804441 1_555
In9 Pt10 2.813209 1_555
In9 Sr5 3.337435 1_565
In9 Sr1 3.654907 1_555
In9 Sr1 3.654907 1_554
In9 Sr4 3.669237 1_555
In10 Pt9 2.671323 1_555
In10 Pt10 2.671448 1_445
In10 Pt8 2.671554 1_445
In10 Sr1 3.566342 1_444
In10 Sr1 3.566344 1_445
In10 Sr0 3.566361 1_555
In10 Sr0 3.566363 1_554
In10 Sr2 3.566521 1_554
In10 Sr2 3.566522 1_555
In11 Pt1 2.699423 1_565
In11 Pt6 2.804489 1_555
In11 Pt6 2.804492 1_554
In11 Pt8 2.813183 1_455
In11 Sr7 3.337681 1_455
In11 Sr0 3.654556 1_564
In11 Sr0 3.654561 1_565
In11 Sr4 3.669039 1_555
In12 Pt10 2.677066 1_556
In12 Pt10 2.677067 1_555
In12 Pt3 2.796648 1_565
In12 Pt5 2.796787 1_555
In12 Sr5 3.403685 1_565
In12 Sr5 3.403688 1_566
In12 Sr2 3.602946 1_665
In12 Sr1 3.603173 1_555
In13 Pt9 2.677332 1_555
In13 Pt9 2.677333 1_556
In13 Pt7 2.796840 1_555
In13 Pt2 2.796957 1_555
In13 Sr6 3.403644 1_555
In13 Sr6 3.403645 1_556
In13 Sr2 3.603563 1_555
In13 Sr0 3.603613 1_555
In14 Pt8 2.677133 1_455
In14 Pt8 2.677134 1_456
In14 Pt6 2.796446 1_555
In14 Pt4 2.796503 1_455
In14 Sr7 3.403584 1_456
In14 Sr7 3.403588 1_455
In14 Sr0 3.603032 1_565
In14 Sr1 3.603197 1_455
In15 Pt0 2.699225 1_455
In15 Pt7 2.804494 1_555
In15 Pt7 2.804516 1_554
In15 Pt9 2.813373 1_555
In15 Sr6 3.337901 1_555
In15 Sr2 3.654729 1_555
In15 Sr2 3.654747 1_554
In15 Sr4 3.669252 1_555
Pt0 Sr7 2.941665 1_555
Pt0 Sr2 3.330119 1_655
Pt0 Sr2 3.330122 1_654
Pt1 Sr5 2.941921 1_555
Pt1 Sr0 3.330178 1_554
Pt1 Sr0 3.330182 1_555
Pt2 Sr6 3.225752 1_555
Pt2 Sr6 3.225756 1_556
Pt2 Sr3 3.439539 1_556
Pt2 Sr3 3.439539 1_555
Pt3 Sr5 3.225576 1_556
Pt3 Sr5 3.225577 1_555
Pt3 Sr3 3.439610 1_555
Pt3 Sr3 3.439612 1_556
Pt4 Sr7 3.225338 1_556
Pt4 Sr7 3.225342 1_555
Pt4 Sr3 3.439524 1_556
Pt4 Sr3 3.439525 1_555
Pt5 Sr5 3.225484 1_565
Pt5 Sr5 3.225486 1_566
Pt5 Sr4 3.439632 1_555
Pt5 Sr4 3.439633 1_556
Pt6 Sr7 3.225488 1_455
Pt6 Sr7 3.225489 1_456
Pt6 Sr4 3.439563 1_556
Pt6 Sr4 3.439564 1_555
Pt7 Sr6 3.225803 1_556
Pt7 Sr6 3.225805 1_555
Pt7 Sr4 3.439429 1_555
Pt7 Sr4 3.439432 1_556
Pt8 Sr1 3.538519 1_554
Pt8 Sr1 3.538524 1_555
Pt8 Sr0 3.538586 1_664
Pt8 Sr0 3.538589 1_665
Pt9 Sr2 3.538721 1_554
Pt9 Sr2 3.538721 1_555
Pt9 Sr0 3.538763 1_555
Pt9 Sr0 3.538765 1_554
Pt10 Sr2 3.538603 1_665
Pt10 Sr2 3.538604 1_664
Pt10 Sr1 3.538644 1_555
Pt10 Sr1 3.538644 1_554
Pt11 Sr6 2.942012 1_555
Pt11 Sr1 3.329979 1_554
Pt11 Sr1 3.329983 1_555
