# generated using pymatgen
data_MgFe(SbO3)4
_symmetry_space_group_name_H-M   'P 1'
_cell_length_a   5.53035464
_cell_length_b   11.02815915
_cell_length_c   9.67677302
_cell_angle_alpha   28.56190693
_cell_angle_beta   51.82615848
_cell_angle_gamma   57.13493178
_symmetry_Int_Tables_number   1
_chemical_formula_structural   MgFe(SbO3)4
_chemical_formula_sum   'Mg1 Fe1 Sb4 O12'
_cell_volume   221.82575725
_cell_formula_units_Z   1
loop_
 _symmetry_equiv_pos_site_id
 _symmetry_equiv_pos_as_xyz
  1  'x, y, z'
loop_
 _atom_site_type_symbol
 _atom_site_label
 _atom_site_symmetry_multiplicity
 _atom_site_fract_x
 _atom_site_fract_y
 _atom_site_fract_z
 _atom_site_occupancy
  Mg  Mg0  1  0.79756200  0.00014400  0.77927500  1
  Fe  Fe0  1  0.29396800  0.99682800  0.28052800  1
  Sb  Sb0  1  0.01120800  0.00488300  0.98324400  1
  Sb  Sb1  1  0.97590300  0.49739800  0.99851100  1
  Sb  Sb2  1  0.50423100  0.99484200  0.49433900  1
  Sb  Sb3  1  0.48297800  0.50222900  0.49012200  1
  O  O0  1  0.34513100  0.28592800  0.13396000  1
  O  O1  1  0.20861500  0.11174100  0.62586200  1
  O  O2  1  0.11939300  0.31325000  0.73957500  1
  O  O3  1  0.87257200  0.18392400  0.23838600  1
  O  O4  1  0.38207100  0.81712900  0.10025000  1
  O  O5  1  0.72919000  0.36384400  0.37772900  1
  O  O6  1  0.23185500  0.62740100  0.61390100  1
  O  O7  1  0.62887000  0.17925000  0.85261600  1
  O  O8  1  0.11280000  0.81830800  0.72509900  1
  O  O9  1  0.84571500  0.71854400  0.20038300  1
  O  O10  1  0.71077500  0.88665200  0.35096400  1
  O  O11  1  0.61598700  0.68580200  0.86622400  1
loop_
_geom_bond_atom_site_label_1
_geom_bond_atom_site_label_2
_geom_bond_distance
_geom_bond_site_symmetry_2
Mg0 O5 2.030317 1_555
Mg0 O4 2.049442 1_546
Mg0 O8 2.063520 1_645
Mg0 O9 2.129488 1_546
Mg0 O1 2.131147 1_655
Mg0 O7 2.218003 1_555
Fe0 O6 2.045823 1_555
Fe0 O3 2.081489 1_465
Fe0 O7 2.134178 1_564
Fe0 O10 2.168388 1_555
Fe0 O0 2.190064 1_565
Fe0 O8 2.307023 1_555
O0 Sb1 2.024051 1_454
O0 Sb2 2.074392 1_545
O1 Sb2 1.994317 1_545
O1 Sb0 2.027550 1_555
O2 Sb0 1.965079 1_555
O2 Sb3 1.981115 1_555
O3 Sb2 1.983324 1_545
O3 Sb1 2.018484 1_554
O4 Sb0 1.979672 1_564
O4 Sb3 2.022229 1_555
O5 Sb1 1.998733 1_554
O5 Sb3 2.048353 1_555
O6 Sb3 2.009105 1_555
O6 Sb1 2.056282 1_455
O7 Sb3 2.018496 1_555
O7 Sb0 2.094670 1_655
O8 Sb1 2.020448 1_455
O8 Sb2 2.103570 1_555
O9 Sb3 2.017083 1_555
O9 Sb0 2.080529 1_664
O10 Sb0 2.003916 1_664
O10 Sb2 2.030504 1_555
O11 Sb2 1.966370 1_555
O11 Sb1 1.976508 1_555
