# generated using pymatgen
data_Cd2As3Br
_symmetry_space_group_name_H-M   'P 1'
_cell_length_a   6.33338479
_cell_length_b   6.33338558
_cell_length_c   8.05956876
_cell_angle_alpha   97.39489425
_cell_angle_beta   97.39490176
_cell_angle_gamma   97.30734477
_symmetry_Int_Tables_number   1
_chemical_formula_structural   Cd2As3Br
_chemical_formula_sum   'Cd4 As6 Br2'
_cell_volume   314.51304755
_cell_formula_units_Z   2
loop_
 _symmetry_equiv_pos_site_id
 _symmetry_equiv_pos_as_xyz
  1  'x, y, z'
loop_
 _atom_site_type_symbol
 _atom_site_label
 _atom_site_symmetry_multiplicity
 _atom_site_fract_x
 _atom_site_fract_y
 _atom_site_fract_z
 _atom_site_occupancy
  Cd  Cd0  1  0.91136829  0.61080508  0.70748220  1
  Cd  Cd1  1  0.38919492  0.08863171  0.79251780  1
  Cd  Cd2  1  0.61080508  0.91136829  0.20748220  1
  Cd  Cd3  1  0.08863171  0.38919492  0.29251780  1
  As  As0  1  0.92085648  0.82607519  0.02819321  1
  As  As1  1  0.17392481  0.07914352  0.47180679  1
  As  As2  1  0.07914352  0.17392481  0.97180679  1
  As  As3  1  0.79063417  0.20936583  0.75000000  1
  As  As4  1  0.20936583  0.79063417  0.25000000  1
  As  As5  1  0.82607519  0.92085648  0.52819321  1
  Br  Br0  1  0.36370384  0.63629616  0.75000000  1
  Br  Br1  1  0.63629616  0.36370384  0.25000000  1
loop_
_geom_bond_atom_site_label_1
_geom_bond_atom_site_label_2
_geom_bond_distance
_geom_bond_site_symmetry_2
As0 As2 2.424497 1_664
As0 As4 2.439616 1_655
As0 Cd2 2.652386 1_555
As0 Cd0 2.752384 1_554
As1 As5 2.424497 1_445
As1 As4 2.439616 1_545
As1 Cd3 2.652386 1_555
As1 Cd1 2.752384 1_555
As2 As3 2.439616 1_455
As2 Cd1 2.652386 1_555
As2 Cd3 2.752384 1_556
As3 As5 2.439616 1_545
As3 Cd1 2.638834 1_555
As3 Cd0 2.638834 1_555
As4 Cd2 2.638834 1_555
As4 Cd3 2.638834 1_555
As5 Cd0 2.652386 1_555
As5 Cd2 2.752384 1_555
Br0 Cd0 2.822420 1_455
Br0 Cd1 2.822421 1_565
Br1 Cd3 2.822420 1_655
Br1 Cd2 2.822421 1_545
