# generated using pymatgen
data_CsAsSe2
_symmetry_space_group_name_H-M   'P 1'
_cell_length_a   6.81427886
_cell_length_b   9.85769995
_cell_length_c   16.83956484
_cell_angle_alpha   90.00000000
_cell_angle_beta   90.00000000
_cell_angle_gamma   90.00000000
_symmetry_Int_Tables_number   1
_chemical_formula_structural   CsAsSe2
_chemical_formula_sum   'Cs8 As8 Se16'
_cell_volume   1131.16604874
_cell_formula_units_Z   8
loop_
 _symmetry_equiv_pos_site_id
 _symmetry_equiv_pos_as_xyz
  1  'x, y, z'
loop_
 _atom_site_type_symbol
 _atom_site_label
 _atom_site_symmetry_multiplicity
 _atom_site_fract_x
 _atom_site_fract_y
 _atom_site_fract_z
 _atom_site_occupancy
  Cs  Cs0  1  0.85974252  0.19832713  0.07958168  1
  Cs  Cs1  1  0.35974252  0.30167287  0.92041832  1
  Cs  Cs2  1  0.14025748  0.69832713  0.42041832  1
  Cs  Cs3  1  0.64025748  0.80167287  0.57958168  1
  Cs  Cs4  1  0.14025748  0.80167287  0.92041832  1
  Cs  Cs5  1  0.64025748  0.69832713  0.07958168  1
  Cs  Cs6  1  0.85974252  0.30167287  0.57958168  1
  Cs  Cs7  1  0.35974252  0.19832713  0.42041832  1
  As  As0  1  0.23440234  0.96889827  0.71248171  1
  As  As1  1  0.76559766  0.03110173  0.28751829  1
  As  As2  1  0.26559766  0.46889827  0.71248171  1
  As  As3  1  0.23440234  0.53110173  0.21248171  1
  As  As4  1  0.73440234  0.96889827  0.78751829  1
  As  As5  1  0.73440234  0.53110173  0.28751829  1
  As  As6  1  0.76559766  0.46889827  0.78751829  1
  As  As7  1  0.26559766  0.03110173  0.21248171  1
  Se  Se0  1  0.48712392  0.87446156  0.28226617  1
  Se  Se1  1  0.98712392  0.62553844  0.71773383  1
  Se  Se2  1  0.51287608  0.37446156  0.21773383  1
  Se  Se3  1  0.98712392  0.87446156  0.21773383  1
  Se  Se4  1  0.01287608  0.12553844  0.78226617  1
  Se  Se5  1  0.51287608  0.12553844  0.71773383  1
  Se  Se6  1  0.01287608  0.37446156  0.28226617  1
  Se  Se7  1  0.48712392  0.62553844  0.78226617  1
  Se  Se8  1  0.36099360  0.02469297  0.08030133  1
  Se  Se9  1  0.86099360  0.47530703  0.91969867  1
  Se  Se10  1  0.63900640  0.52469297  0.41969867  1
  Se  Se11  1  0.13900640  0.97530703  0.58030133  1
  Se  Se12  1  0.63900640  0.97530703  0.91969867  1
  Se  Se13  1  0.13900640  0.52469297  0.08030133  1
  Se  Se14  1  0.36099360  0.47530703  0.58030133  1
  Se  Se15  1  0.86099360  0.02469297  0.41969867  1
loop_
_geom_bond_atom_site_label_1
_geom_bond_atom_site_label_2
_geom_bond_distance
_geom_bond_site_symmetry_2
Cs0 Se13 3.737910 1_655
Cs0 Se2 3.743491 1_555
Cs0 Se12 3.787419 1_544
Cs0 Se8 3.805314 1_555
Cs0 Se8 3.820550 1_655
Cs0 Se9 3.834564 1_554
Cs0 Se6 3.968996 1_655
Cs0 Se3 4.044525 1_545
Cs1 Se12 3.737910 1_545
Cs1 Se4 3.743491 1_555
Cs1 Se13 3.787419 1_556
Cs1 Se9 3.805314 1_455
Cs1 Se9 3.820550 1_555
Cs1 Se8 3.834564 1_556
Cs1 Se5 3.968996 1_555
Cs1 Se7 4.044525 1_555
Cs2 Se15 3.737910 1_465
Cs2 Se0 3.743491 1_555
Cs2 Se14 3.787419 1_555
Cs2 Se10 3.805314 1_555
Cs2 Se10 3.820550 1_455
Cs2 Se11 3.834564 1_555
Cs2 Se3 3.968996 1_455
Cs2 Se6 4.044525 1_555
Cs3 Se14 3.737910 1_555
Cs3 Se1 3.743491 1_555
Cs3 Se15 3.787419 1_565
Cs3 Se11 3.805314 1_655
Cs3 Se11 3.820550 1_555
Cs3 Se10 3.834564 1_555
Cs3 Se7 3.968996 1_555
Cs3 Se5 4.044525 1_565
Cs4 Se9 3.737910 1_455
Cs4 Se7 3.743491 1_555
Cs4 Se8 3.787419 1_566
Cs4 Se12 3.805314 1_555
Cs4 Se12 3.820550 1_455
Cs4 Se13 3.834564 1_556
Cs4 Se1 3.968996 1_455
Cs4 Se4 4.044525 1_565
Cs5 Se8 3.737910 1_565
Cs5 Se3 3.743491 1_555
Cs5 Se9 3.787419 1_554
Cs5 Se13 3.805314 1_655
Cs5 Se13 3.820550 1_555
Cs5 Se12 3.834564 1_554
Cs5 Se0 3.968996 1_555
Cs5 Se2 4.044525 1_555
Cs6 Se11 3.737910 1_645
Cs6 Se5 3.743491 1_555
Cs6 Se10 3.787419 1_555
Cs6 Se14 3.805314 1_555
Cs6 Se14 3.820550 1_655
Cs6 Se15 3.834564 1_555
Cs6 Se4 3.968996 1_655
Cs6 Se1 4.044525 1_555
Cs7 Se10 3.737910 1_555
Cs7 Se6 3.743491 1_555
Cs7 Se11 3.787419 1_545
Cs7 Se15 3.805314 1_455
Cs7 Se15 3.820550 1_555
Cs7 Se14 3.834564 1_555
Cs7 Se2 3.968996 1_555
Cs7 Se0 4.044525 1_545
As0 Se11 2.319702 1_555
As0 Se5 2.448056 1_565
As0 Se4 2.458445 1_565
As0 Cs3 3.921041 1_555
As0 Cs4 3.922998 1_555
As1 Se15 2.319702 1_555
As1 Se0 2.448056 1_545
As1 Se3 2.458445 1_545
As1 Cs7 3.921041 1_555
As1 Cs0 3.922998 1_555
As2 Se14 2.319702 1_555
As2 Se1 2.448056 1_455
As2 Se7 2.458445 1_555
As2 Cs6 3.921041 1_455
As2 Cs1 3.922998 1_555
As3 Se13 2.319702 1_555
As3 Se2 2.448056 1_555
As3 Se6 2.458445 1_555
As3 Cs5 3.921041 1_555
As3 Cs2 3.922998 1_555
As4 Se12 2.319702 1_555
As4 Se4 2.448056 1_665
As4 Se5 2.458445 1_565
As4 Cs4 3.921041 1_655
As4 Cs3 3.922998 1_555
As5 Se10 2.319702 1_555
As5 Se6 2.448056 1_655
As5 Se2 2.458445 1_555
As5 Cs2 3.921041 1_655
As5 Cs5 3.922998 1_555
As6 Se9 2.319702 1_555
As6 Se7 2.448056 1_555
As6 Se1 2.458445 1_555
As6 Cs1 3.921041 1_555
As6 Cs6 3.922998 1_555
As7 Se8 2.319702 1_555
As7 Se3 2.448056 1_445
As7 Se0 2.458445 1_545
As7 Cs0 3.921041 1_455
As7 Cs7 3.922998 1_555
