# generated using pymatgen
data_MgZn2(FeO2)4
_symmetry_space_group_name_H-M   'P 1'
_cell_length_a   5.94588619
_cell_length_b   6.02754106
_cell_length_c   5.90711300
_cell_angle_alpha   60.65874365
_cell_angle_beta   60.21547432
_cell_angle_gamma   69.62976829
_symmetry_Int_Tables_number   1
_chemical_formula_structural   MgZn2(FeO2)4
_chemical_formula_sum   'Mg1 Zn2 Fe4 O8'
_cell_volume   158.62793917
_cell_formula_units_Z   1
loop_
 _symmetry_equiv_pos_site_id
 _symmetry_equiv_pos_as_xyz
  1  'x, y, z'
loop_
 _atom_site_type_symbol
 _atom_site_label
 _atom_site_symmetry_multiplicity
 _atom_site_fract_x
 _atom_site_fract_y
 _atom_site_fract_z
 _atom_site_occupancy
  Mg  Mg0  1  0.62500000  0.12500000  0.12500000  1
  Zn  Zn0  1  0.12500000  0.62500000  0.62500000  1
  Zn  Zn1  1  0.62500000  0.12500000  0.62500000  1
  Fe  Fe0  1  0.13145200  0.09677800  0.88588600  1
  Fe  Fe1  1  0.11854800  0.15322200  0.36411400  1
  Fe  Fe2  1  0.62500000  0.62500000  0.12500000  1
  Fe  Fe3  1  0.62500000  0.62500000  0.62500000  1
  O  O0  1  0.32728200  0.28410000  0.44760800  1
  O  O1  1  0.32728200  0.28410000  0.94100900  1
  O  O2  1  0.39599500  0.84370000  0.38015200  1
  O  O3  1  0.82416500  0.42651900  0.37465700  1
  O  O4  1  0.42583500  0.82348100  0.87534300  1
  O  O5  1  0.85400500  0.40630000  0.86984800  1
  O  O6  1  0.92271800  0.96590000  0.30899100  1
  O  O7  1  0.92271800  0.96590000  0.80239200  1
loop_
_geom_bond_atom_site_label_1
_geom_bond_atom_site_label_2
_geom_bond_distance
_geom_bond_site_symmetry_2
Mg0 O5 2.016061 1_554
Mg0 O2 2.016061 1_545
Mg0 O7 2.223202 1_544
Mg0 O0 2.223202 1_555
Mg0 O6 2.223206 1_545
Mg0 O1 2.223206 1_554
Fe0 O4 1.940670 1_545
Fe0 O5 2.012584 1_455
Fe0 O6 2.019146 1_446
Fe0 O7 2.019150 1_445
Fe0 O1 2.094968 1_555
Fe0 O0 2.094980 1_555
Fe1 O3 1.940670 1_455
Fe1 O2 2.012584 1_545
Fe1 O1 2.019146 1_554
Fe1 O0 2.019150 1_555
Fe1 O6 2.094968 1_445
Fe1 O7 2.094980 1_445
Fe2 O3 2.007033 1_555
Fe2 O4 2.007033 1_554
Fe2 O2 2.126528 1_555
Fe2 O5 2.126528 1_554
Fe2 O7 2.516077 1_554
Fe2 O0 2.516077 1_555
Fe3 O4 2.007042 1_555
Fe3 O3 2.007042 1_555
Fe3 O5 2.126533 1_555
Fe3 O2 2.126533 1_555
Fe3 O6 2.516077 1_555
Fe3 O1 2.516077 1_555
O0 Zn1 2.197160 1_555
O0 Zn0 2.429881 1_555
O1 Zn1 2.197156 1_555
O1 Zn0 2.429877 1_555
O2 Zn0 1.928943 1_555
O3 Zn1 2.004202 1_555
O4 Zn1 2.004202 1_565
O5 Zn0 1.928943 1_655
O6 Zn1 2.197156 1_565
O6 Zn0 2.429877 1_655
O7 Zn1 2.197160 1_565
O7 Zn0 2.429881 1_655
