# generated using pymatgen
data_Na2Ca2Zr2SiS5O24
_symmetry_space_group_name_H-M   'P 1'
_cell_length_a   9.09134964
_cell_length_b   9.08312683
_cell_length_c   23.93043956
_cell_angle_alpha   90.09682500
_cell_angle_beta   90.08737305
_cell_angle_gamma   119.89434141
_symmetry_Int_Tables_number   1
_chemical_formula_structural   Na2Ca2Zr2SiS5O24
_chemical_formula_sum   'Na6 Ca6 Zr6 Si3 S15 O72'
_cell_volume   1713.18479254
_cell_formula_units_Z   3
loop_
 _symmetry_equiv_pos_site_id
 _symmetry_equiv_pos_as_xyz
  1  'x, y, z'
loop_
 _atom_site_type_symbol
 _atom_site_label
 _atom_site_symmetry_multiplicity
 _atom_site_fract_x
 _atom_site_fract_y
 _atom_site_fract_z
 _atom_site_occupancy
  Na  Na0  1  0.00474491  0.00237581  0.49879273  1
  Na  Na1  1  0.99846028  0.99359984  0.99708218  1
  Na  Na2  1  0.66836536  0.31531135  0.82264823  1
  Na  Na3  1  0.65167513  0.32295045  0.33877279  1
  Na  Na4  1  0.31705897  0.67088873  0.16361058  1
  Na  Na5  1  0.33896621  0.67321459  0.66197858  1
  Ca  Ca0  1  0.01019820  0.00367590  0.34981470  1
  Ca  Ca1  1  0.99699747  0.00166453  0.85051890  1
  Ca  Ca2  1  0.66530897  0.32699584  0.68382136  1
  Ca  Ca3  1  0.66280641  0.33096242  0.48380294  1
  Ca  Ca4  1  0.32674069  0.66721973  0.02160037  1
  Ca  Ca5  1  0.33413476  0.66751271  0.51892381  1
  Zr  Zr0  1  0.98686012  0.99767935  0.65108831  1
  Zr  Zr1  1  0.00948390  0.98702003  0.14853850  1
  Zr  Zr2  1  0.67097728  0.33427841  0.18646334  1
  Zr  Zr3  1  0.67826755  0.34605424  0.98069039  1
  Zr  Zr4  1  0.33107308  0.67573593  0.31566798  1
  Zr  Zr5  1  0.34342026  0.67710243  0.81030323  1
  Si  Si0  1  0.29951783  0.00050779  0.25097574  1
  Si  Si1  1  0.70689906  0.00681637  0.75300787  1
  Si  Si2  1  0.95868868  0.62516235  0.08546378  1
  S  S0  1  0.70399186  0.70515455  0.24898483  1
  S  S1  1  0.00154764  0.29397934  0.24870880  1
  S  S2  1  0.29174342  0.29619378  0.75115213  1
  S  S3  1  0.00328210  0.70809309  0.75096035  1
  S  S4  1  0.96603011  0.32991064  0.58467977  1
  S  S5  1  0.36067339  0.03400612  0.58485014  1
  S  S6  1  0.67128986  0.63535474  0.58497100  1
  S  S7  1  0.67376835  0.04994231  0.08412926  1
  S  S8  1  0.37800721  0.32874904  0.08433800  1
  S  S9  1  0.62277567  0.66215713  0.91786986  1
  S  S10  1  0.03939424  0.37479369  0.91771903  1
  S  S11  1  0.33823433  0.96269006  0.91731006  1
  S  S12  1  0.62658180  0.96004299  0.41559800  1
  S  S13  1  0.33434547  0.37740412  0.41513983  1
  S  S14  1  0.03828544  0.66455680  0.41613151  1
  O  O0  1  0.22561924  0.03790937  0.30460693  1
  O  O1  1  0.80379660  0.77518313  0.29926927  1
  O  O2  1  0.96740528  0.19428246  0.29906315  1
  O  O3  1  0.21888547  0.19640972  0.80125122  1
  O  O4  1  0.98583067  0.78616373  0.80149768  1
  O  O5  1  0.80882821  0.01820669  0.80772759  1
  O  O6  1  0.80024236  0.97442948  0.69647549  1
  O  O7  1  0.18347072  0.21244990  0.70039951  1
  O  O8  1  0.03262188  0.81786546  0.70030067  1
  O  O9  1  0.78656280  0.81438986  0.19876825  1
  O  O10  1  0.02367976  0.21044416  0.19847722  1
  O  O11  1  0.17478427  0.96911405  0.19432524  1
  O  O12  1  0.88533976  0.35173745  0.63428451  1
  O  O13  1  0.46466783  0.11583664  0.63421508  1
  O  O14  1  0.65178182  0.53491089  0.63485680  1
  O  O15  1  0.84909264  0.50757240  0.13791779  1
  O  O16  1  0.65111541  0.13380503  0.13424027  1
  O  O17  1  0.48024721  0.34291670  0.13437514  1
  O  O18  1  0.45640343  0.30211406  0.03299553  1
  O  O19  1  0.83723092  0.52854036  0.02864335  1
  O  O20  1  0.69083230  0.15344514  0.03303380  1
  O  O21  1  0.43358231  0.13357453  0.53349443  1
  O  O22  1  0.69793747  0.56220558  0.53372812  1
  O  O23  1  0.86527457  0.29972096  0.53345167  1
  O  O24  1  0.54348501  0.68145515  0.96799243  1
  O  O25  1  0.13717961  0.45576351  0.96816165  1
  O  O26  1  0.31850588  0.86276226  0.96721074  1
  O  O27  1  0.54552404  0.86250952  0.46581647  1
  O  O28  1  0.32131129  0.46008910  0.46570649  1
  O  O29  1  0.13767934  0.68201472  0.46611423  1
  O  O30  1  0.13464883  0.65271063  0.36461223  1
  O  O31  1  0.51630963  0.86397532  0.36427136  1
  O  O32  1  0.34561182  0.48363428  0.36408282  1
  O  O33  1  0.11718805  0.47885269  0.86704377  1
  O  O34  1  0.35969599  0.87641833  0.86621057  1
  O  O35  1  0.51658492  0.63917068  0.86685688  1
  O  O36  1  0.01932131  0.81487046  0.41078219  1
  O  O37  1  0.79373152  0.97541396  0.40891584  1
  O  O38  1  0.18080301  0.20889507  0.41119644  1
  O  O39  1  0.01451192  0.20287692  0.91370124  1
  O  O40  1  0.19148961  0.98642183  0.91121065  1
  O  O41  1  0.79596679  0.80459630  0.91257311  1
  O  O42  1  0.98459129  0.17186083  0.59231391  1
  O  O43  1  0.18725911  0.01703656  0.59254103  1
  O  O44  1  0.83216687  0.81004343  0.59158830  1
  O  O45  1  0.96437728  0.81205983  0.09062659  1
  O  O46  1  0.83195449  0.04134748  0.09025649  1
  O  O47  1  0.20478793  0.17494330  0.09021301  1
  O  O48  1  0.67029427  0.15962983  0.74662343  1
  O  O49  1  0.46427305  0.32848911  0.74323608  1
  O  O50  1  0.85653363  0.53930966  0.74328471  1
  O  O51  1  0.68161835  0.53202498  0.23936365  1
  O  O52  1  0.85270122  0.32074473  0.23954634  1
  O  O53  1  0.48850877  0.16093070  0.23591857  1
  O  O54  1  0.63212379  0.49830971  0.92265313  1
  O  O55  1  0.86247546  0.35809648  0.92380846  1
  O  O56  1  0.49758824  0.13427950  0.92249934  1
  O  O57  1  0.63587430  0.12697755  0.41544332  1
  O  O58  1  0.49082443  0.36472612  0.41508701  1
  O  O59  1  0.87254536  0.50600233  0.41558701  1
  O  O60  1  0.36426392  0.48168495  0.08027706  1
  O  O61  1  0.14336061  0.64682470  0.08445160  1
  O  O62  1  0.52517023  0.88045123  0.07986405  1
  O  O63  1  0.33848590  0.86140758  0.58020966  1
  O  O64  1  0.52506968  0.66281556  0.58046044  1
  O  O65  1  0.13857903  0.47722743  0.58005595  1
  O  O66  1  0.31740704  0.82627787  0.25705342  1
  O  O67  1  0.53063843  0.68453747  0.25429826  1
  O  O68  1  0.15659769  0.46673704  0.25482389  1
  O  O69  1  0.29849058  0.46676042  0.75742645  1
  O  O70  1  0.16201466  0.69191849  0.75651703  1
  O  O71  1  0.51404686  0.82112945  0.75800508  1
loop_
_geom_bond_atom_site_label_1
_geom_bond_atom_site_label_2
_geom_bond_distance
_geom_bond_site_symmetry_2
Na0 O38 2.739614 1_555
Na0 O36 2.750949 1_545
Na0 O43 2.751619 1_555
Na0 O42 2.771807 1_455
Na0 O44 2.781434 1_445
Na0 O37 2.807750 1_445
Na1 O41 2.693086 1_555
Na1 O45 2.707670 1_556
Na1 O39 2.711691 1_665
Na1 O40 2.726042 1_655
Na1 O47 2.844938 1_666
Na1 O46 2.848260 1_566
Na2 O48 2.307794 1_555
Na2 O50 2.688231 1_555
Na2 O49 2.698130 1_555
Na2 O56 2.881627 1_555
Na2 O55 2.902716 1_555
Na2 O54 3.022178 1_555
Na3 O58 2.485257 1_555
Na3 O57 2.512469 1_555
Na3 O59 2.612659 1_555
Na3 O53 2.867927 1_555
Na3 O51 2.973485 1_555
Na3 O52 3.004746 1_555
Na4 O61 2.403190 1_555
Na4 O66 2.641447 1_555
Na4 O62 2.766567 1_555
Na4 O68 2.767328 1_555
Na4 O60 2.800125 1_555
Na4 O67 2.870837 1_555
Na5 O63 2.601856 1_555
Na5 O64 2.616445 1_555
Na5 O65 2.660048 1_555
Na5 O71 2.732392 1_555
Na5 O70 2.831487 1_555
Na5 O69 2.863271 1_555
Ca0 O0 2.122082 1_555
Ca0 O38 2.267117 1_555
Ca0 O36 2.286133 1_545
Ca0 O2 2.302361 1_455
Ca0 O1 2.322536 1_445
Ca0 O37 2.333506 1_445
Ca1 O5 2.061339 1_555
Ca1 O4 2.238695 1_545
Ca1 O3 2.246275 1_655
Ca1 O39 2.313340 1_655
Ca1 O40 2.343495 1_645
Ca1 O41 2.346440 1_545
Ca2 O48 2.155906 1_555
Ca2 O13 2.216641 1_555
Ca2 O12 2.239933 1_555
Ca2 O14 2.278850 1_555
Ca2 O49 2.322665 1_555
Ca2 O50 2.325404 1_555
Ca3 O21 2.293860 1_555
Ca3 O22 2.294073 1_555
Ca3 O23 2.322820 1_555
Ca3 O57 2.388578 1_555
Ca3 O58 2.390530 1_555
Ca3 O59 2.413480 1_555
Ca4 O61 2.185567 1_555
Ca4 O25 2.231567 1_554
Ca4 O26 2.234818 1_554
Ca4 O24 2.302089 1_554
Ca4 O62 2.334524 1_555
Ca4 O60 2.346839 1_555
Ca5 O28 2.226563 1_555
Ca5 O29 2.243341 1_555
Ca5 O27 2.251143 1_555
Ca5 O63 2.275049 1_555
Ca5 O65 2.289479 1_555
Ca5 O64 2.291245 1_555
O0 Si0 1.562884 1_555
O1 S0 1.447299 1_555
O2 S1 1.446740 1_655
O3 S2 1.450940 1_555
O4 S3 1.449299 1_655
O5 Si1 1.576200 1_555
O6 Si1 1.699375 1_565
O6 Zr0 1.937011 1_555
O7 S2 1.506485 1_555
O7 Zr0 2.214282 1_445
O8 S3 1.508299 1_555
O8 Zr0 2.215833 1_455
O9 S0 1.502135 1_555
O9 Zr1 2.203858 1_655
O10 S1 1.486943 1_555
O10 Zr1 2.300760 1_545
O11 Si0 1.696107 1_565
O11 Zr1 1.929933 1_555
O12 S4 1.460617 1_555
O13 S5 1.461166 1_555
O14 S6 1.460135 1_555
O15 Si2 1.629954 1_555
O15 Zr2 1.980043 1_555
O16 S7 1.488195 1_555
O16 Zr2 2.138701 1_555
O17 S8 1.480262 1_555
O17 Zr2 2.167024 1_555
O18 S8 1.499877 1_555
O18 Zr3 2.236382 1_554
O19 Si2 1.692278 1_555
O19 Zr3 1.937413 1_554
O20 S7 1.504021 1_555
O20 Zr3 2.202035 1_554
O21 S5 1.475238 1_555
O22 S6 1.470536 1_555
O23 S4 1.470433 1_555
O24 S9 1.454969 1_555
O25 S10 1.459568 1_555
O26 S11 1.457407 1_555
O27 S12 1.458641 1_555
O28 S13 1.458930 1_555
O29 S14 1.457940 1_555
O30 S14 1.547864 1_555
O30 Zr4 2.058993 1_555
O31 S12 1.547818 1_555
O31 Zr4 2.056542 1_555
O32 S13 1.529776 1_555
O32 Zr4 2.154223 1_555
O33 S10 1.484693 1_555
O33 Zr5 2.375188 1_555
O34 S11 1.515699 1_555
O34 Zr5 2.193994 1_555
O35 S9 1.503498 1_555
O35 Zr5 2.228104 1_555
O36 S14 1.464708 1_555
O37 S12 1.464114 1_555
O38 S13 1.472937 1_555
O39 S10 1.464972 1_555
O40 S11 1.460748 1_555
O41 S9 1.462768 1_555
O42 S4 1.537864 1_555
O42 Zr0 2.126429 1_545
O43 S5 1.517219 1_555
O43 Zr0 2.236629 1_445
O44 S6 1.538527 1_555
O44 Zr0 2.122831 1_555
O45 Si2 1.676779 1_555
O45 Zr1 1.988841 1_655
O46 S7 1.485634 1_555
O46 Zr1 2.362843 1_645
O47 S8 1.503258 1_555
O47 Zr1 2.238063 1_545
O48 Si1 1.587987 1_555
O49 S2 1.457622 1_555
O50 S3 1.457224 1_655
O51 S0 1.499037 1_555
O51 Zr2 2.157973 1_555
O52 S1 1.505184 1_655
O52 Zr2 2.134204 1_555
O53 Si0 1.647202 1_555
O53 Zr2 2.010066 1_555
O54 S9 1.536824 1_555
O54 Zr3 2.144878 1_555
O55 S10 1.545612 1_655
O55 Zr3 2.119984 1_555
O56 S11 1.513757 1_545
O56 Zr3 2.274174 1_555
O57 S12 1.476012 1_545
O58 S13 1.483364 1_555
O59 S14 1.476980 1_655
O60 S8 1.458830 1_555
O61 Si2 1.590256 1_455
O62 S7 1.459957 1_565
O63 S5 1.481530 1_565
O64 S6 1.473492 1_555
O65 S4 1.473851 1_455
O66 Si0 1.676109 1_565
O66 Zr4 2.006983 1_555
O67 S0 1.497185 1_555
O67 Zr4 2.306270 1_555
O68 S1 1.504818 1_555
O68 Zr4 2.285148 1_555
O69 S2 1.526770 1_555
O69 Zr5 2.151879 1_555
O70 S3 1.527285 1_555
O70 Zr5 2.147112 1_555
O71 Si1 1.728190 1_565
O71 Zr5 1.916410 1_555
