# generated using pymatgen
data_YbRh2
_symmetry_space_group_name_H-M   'P 1'
_cell_length_a   5.25087654
_cell_length_b   5.25087654
_cell_length_c   5.25087654
_cell_angle_alpha   60.00000000
_cell_angle_beta   60.00000000
_cell_angle_gamma   60.00000000
_symmetry_Int_Tables_number   1
_chemical_formula_structural   YbRh2
_chemical_formula_sum   'Yb2 Rh4'
_cell_volume   102.37181999
_cell_formula_units_Z   2
loop_
 _symmetry_equiv_pos_site_id
 _symmetry_equiv_pos_as_xyz
  1  'x, y, z'
loop_
 _atom_site_type_symbol
 _atom_site_label
 _atom_site_symmetry_multiplicity
 _atom_site_fract_x
 _atom_site_fract_y
 _atom_site_fract_z
 _atom_site_occupancy
  Yb  Yb0  1  0.75000000  0.75000000  0.75000000  1
  Yb  Yb1  1  0.50000000  0.50000000  0.50000000  1
  Rh  Rh0  1  0.12500000  0.62500000  0.12500000  1
  Rh  Rh1  1  0.12500000  0.12500000  0.62500000  1
  Rh  Rh2  1  0.62500000  0.12500000  0.12500000  1
  Rh  Rh3  1  0.12500000  0.12500000  0.12500000  1
loop_
_geom_bond_atom_site_label_1
_geom_bond_atom_site_label_2
_geom_bond_distance
_geom_bond_site_symmetry_2
Yb0 Yb1 3.215492 1_565
Yb0 Yb1 3.215492 1_556
Yb0 Yb1 3.215492 1_555
Yb0 Yb1 3.215492 1_655
Rh0 Rh2 2.625438 1_465
Rh0 Rh1 2.625438 1_555
Rh0 Rh3 2.625438 1_555
Rh0 Rh3 2.625438 1_565
Rh0 Rh1 2.625438 1_564
Rh0 Rh2 2.625438 1_555
Rh0 Yb0 3.078599 1_554
Rh0 Yb1 3.078599 1_555
Rh0 Yb1 3.078599 1_554
Rh0 Yb0 3.078599 1_455
Rh0 Yb0 3.078599 1_454
Rh0 Yb1 3.078599 1_455
Rh1 Rh3 2.625438 1_555
Rh1 Rh2 2.625438 1_456
Rh1 Rh2 2.625438 1_555
Rh1 Rh3 2.625438 1_556
Rh1 Yb0 3.078599 1_455
Rh1 Yb1 3.078599 1_545
Rh1 Yb0 3.078599 1_445
Rh1 Yb1 3.078599 1_555
Rh1 Yb0 3.078599 1_545
Rh1 Yb1 3.078599 1_455
Rh2 Rh3 2.625438 1_555
Rh2 Rh3 2.625438 1_655
Rh2 Yb0 3.078599 1_554
Rh2 Yb1 3.078599 1_545
Rh2 Yb1 3.078599 1_555
Rh2 Yb1 3.078599 1_554
Rh2 Yb0 3.078599 1_544
Rh2 Yb0 3.078599 1_545
Rh3 Yb0 3.078599 1_454
Rh3 Yb0 3.078599 1_445
Rh3 Yb1 3.078599 1_545
Rh3 Yb1 3.078599 1_554
Rh3 Yb0 3.078599 1_544
Rh3 Yb1 3.078599 1_455
