# generated using pymatgen
data_Na4MgTi3O8
_symmetry_space_group_name_H-M   'P 1'
_cell_length_a   8.41049924
_cell_length_b   6.09842513
_cell_length_c   6.36962775
_cell_angle_alpha   58.51767587
_cell_angle_beta   112.25141426
_cell_angle_gamma   88.35866050
_symmetry_Int_Tables_number   1
_chemical_formula_structural   Na4MgTi3O8
_chemical_formula_sum   'Na4 Mg1 Ti3 O8'
_cell_volume   247.02939902
_cell_formula_units_Z   1
loop_
 _symmetry_equiv_pos_site_id
 _symmetry_equiv_pos_as_xyz
  1  'x, y, z'
loop_
 _atom_site_type_symbol
 _atom_site_label
 _atom_site_symmetry_multiplicity
 _atom_site_fract_x
 _atom_site_fract_y
 _atom_site_fract_z
 _atom_site_occupancy
  Na  Na0  1  0.26188259  0.37130621  0.94528819  1
  Na  Na1  1  0.11921130  0.01395722  0.30619273  1
  Na  Na2  1  0.11921130  0.01395722  0.79906135  1
  Na  Na3  1  0.71431657  0.16027586  0.77702036  1
  Mg  Mg0  1  0.88559602  0.66227201  0.61166201  1
  Ti  Ti0  1  0.53642449  0.73668401  0.67148515  1
  Ti  Ti1  1  0.53642449  0.73668401  0.12825534  1
  Ti  Ti2  1  0.64273327  0.21667390  0.21302968  1
  O  O0  1  0.42229145  0.86366619  0.27931263  1
  O  O1  1  0.38726903  0.91159692  0.73783606  1
  O  O2  1  0.72523041  0.90192060  0.20637389  1
  O  O3  1  0.72523041  0.90192060  0.61693592  1
  O  O4  1  0.48876925  0.39754301  0.27082090  1
  O  O5  1  0.48876925  0.39754301  0.82040434  1
  O  O6  1  0.98864297  0.28854127  0.85005085  1
  O  O7  1  0.72883021  0.50878898  0.11002062  1
loop_
_geom_bond_atom_site_label_1
_geom_bond_atom_site_label_2
_geom_bond_distance
_geom_bond_site_symmetry_2
Na0 O6 2.287879 1_455
Na0 O4 2.309509 1_556
Na0 O5 2.309513 1_555
Na0 O0 2.576458 1_546
Na1 O6 2.201880 1_454
Na1 O1 2.542447 1_545
Na1 O0 2.779864 1_545
Na2 O6 2.201881 1_455
Na2 O1 2.542447 1_545
Na2 O0 2.779863 1_546
Na3 O2 2.295903 1_546
Na3 O3 2.295903 1_545
Na3 O6 2.412910 1_555
Na3 O5 2.534940 1_555
Na3 O4 2.534944 1_555
Mg0 O6 1.878003 1_555
Mg0 O2 1.982135 1_555
Mg0 O3 1.982136 1_555
O0 Ti0 1.970292 1_555
O0 Ti1 1.970293 1_555
O1 Ti1 1.919866 1_556
O1 Ti0 1.919866 1_555
O2 Ti1 1.949762 1_555
O2 Ti2 2.049066 1_565
O3 Ti0 1.949762 1_555
O3 Ti2 2.049066 1_565
O4 Ti1 1.903761 1_555
O4 Ti2 1.931895 1_555
O5 Ti0 1.903761 1_555
O5 Ti2 1.931899 1_556
O7 Ti2 1.827915 1_555
O7 Ti0 2.178487 1_554
O7 Ti1 2.178488 1_555
