# generated using pymatgen
data_Na2MgMn4O8
_symmetry_space_group_name_H-M   'P 1'
_cell_length_a   3.24472932
_cell_length_b   5.68052499
_cell_length_c   10.24880488
_cell_angle_alpha   90.00182537
_cell_angle_beta   89.85098052
_cell_angle_gamma   68.37492378
_symmetry_Int_Tables_number   1
_chemical_formula_structural   Na2MgMn4O8
_chemical_formula_sum   'Na2 Mg1 Mn4 O8'
_cell_volume   175.60695464
_cell_formula_units_Z   1
loop_
 _symmetry_equiv_pos_site_id
 _symmetry_equiv_pos_as_xyz
  1  'x, y, z'
loop_
 _atom_site_type_symbol
 _atom_site_label
 _atom_site_symmetry_multiplicity
 _atom_site_fract_x
 _atom_site_fract_y
 _atom_site_fract_z
 _atom_site_occupancy
  Na  Na0  1  0.16727700  0.32920700  0.25036800  1
  Na  Na1  1  0.88011600  0.69018300  0.74701900  1
  Mg  Mg0  1  0.85344900  0.85052800  0.24981800  1
  Mn  Mn0  1  0.59122200  0.20618300  0.91574600  1
  Mn  Mn1  1  0.41596800  0.75692600  0.46827500  1
  Mn  Mn2  1  0.59184900  0.20811700  0.58384400  1
  Mn  Mn3  1  0.42107400  0.75460400  0.03008700  1
  O  O0  1  0.20046400  0.96883600  0.61680300  1
  O  O1  1  0.20026700  0.96744300  0.88255700  1
  O  O2  1  0.64700000  0.02581000  0.41056500  1
  O  O3  1  0.64541500  0.02358400  0.08895400  1
  O  O4  1  0.47819900  0.65189600  0.25295700  1
  O  O5  1  0.55669600  0.36260800  0.75045400  1
  O  O6  1  0.12269300  0.52179700  0.50789700  1
  O  O7  1  0.12473700  0.51977700  0.99460500  1
loop_
_geom_bond_atom_site_label_1
_geom_bond_atom_site_label_2
_geom_bond_distance
_geom_bond_site_symmetry_2
Na0 O4 2.310573 1_455
Na0 O4 2.396188 1_555
Na0 O2 2.474869 1_555
Na0 O3 2.481717 1_555
Na0 O7 2.820266 1_554
Na0 O6 2.839932 1_555
Na1 O5 2.296237 1_655
Na1 O5 2.450342 1_555
Na1 O0 2.563723 1_655
Na1 O0 2.567575 1_555
Na1 O1 2.588326 1_555
Na1 O1 2.588930 1_655
Na1 O6 2.641090 1_655
Na1 O7 2.729479 1_655
Mg0 O2 1.912281 1_565
Mg0 O3 1.912307 1_565
Mg0 O4 1.923005 1_655
Mg0 O4 1.941415 1_555
Mn0 O5 1.897266 1_555
Mn0 O1 1.970107 1_645
Mn0 O7 2.030698 1_555
Mn0 O3 2.031102 1_556
Mn0 O1 2.198709 1_545
Mn1 O0 1.905027 1_555
Mn1 O6 1.946600 1_555
Mn1 O2 2.021490 1_565
Mn1 O6 2.225917 1_655
Mn1 O4 2.274927 1_555
Mn1 O2 2.471245 1_465
Mn2 O5 1.903687 1_555
Mn2 O0 1.971421 1_645
Mn2 O6 2.026133 1_555
Mn2 O2 2.029768 1_555
Mn2 O0 2.201015 1_545
Mn3 O1 1.904872 1_554
Mn3 O7 1.945083 1_554
Mn3 O3 2.012586 1_565
Mn3 O7 2.208039 1_654
Mn3 O4 2.348335 1_555
Mn3 O3 2.488081 1_465
