# generated using pymatgen
data_MgMn2FeWO6
_symmetry_space_group_name_H-M   'P 1'
_cell_length_a   5.39344003
_cell_length_b   5.37807041
_cell_length_c   6.10551225
_cell_angle_alpha   61.94271504
_cell_angle_beta   64.89276984
_cell_angle_gamma   59.54908228
_symmetry_Int_Tables_number   1
_chemical_formula_structural   MgMn2FeWO6
_chemical_formula_sum   'Mg1 Mn2 Fe1 W1 O6'
_cell_volume   130.64174380
_cell_formula_units_Z   1
loop_
 _symmetry_equiv_pos_site_id
 _symmetry_equiv_pos_as_xyz
  1  'x, y, z'
loop_
 _atom_site_type_symbol
 _atom_site_label
 _atom_site_symmetry_multiplicity
 _atom_site_fract_x
 _atom_site_fract_y
 _atom_site_fract_z
 _atom_site_occupancy
  Mg  Mg0  1  0.64553800  0.64646400  0.06331200  1
  Mn  Mn0  1  0.81250700  0.81429600  0.55702700  1
  Mn  Mn1  1  0.27816000  0.27335500  0.16442400  1
  Fe  Fe0  1  0.46691300  0.48038200  0.58955700  1
  W  W0  1  0.00322400  0.99265000  0.00612500  1
  O  O0  1  0.24854000  0.84872100  0.28943300  1
  O  O1  1  0.87673500  0.62133900  0.27208400  1
  O  O2  1  0.63265200  0.22049600  0.26182300  1
  O  O3  1  0.04903200  0.40521400  0.83310100  1
  O  O4  1  0.39238500  0.73064200  0.82070900  1
  O  O5  1  0.70816400  0.06779300  0.81038100  1
loop_
_geom_bond_atom_site_label_1
_geom_bond_atom_site_label_2
_geom_bond_distance
_geom_bond_site_symmetry_2
Mg0 O2 2.049367 1_555
Mg0 O1 2.052784 1_555
Mg0 O0 2.053586 1_555
Mg0 O3 2.157014 1_654
Mg0 O5 2.162108 1_564
Mg0 O4 2.173039 1_554
Mn0 O2 2.143290 1_565
Mn0 O3 2.190967 1_655
Mn0 O5 2.244000 1_565
Mn0 O1 2.246344 1_555
Mn0 O0 2.265016 1_655
Mn0 O4 2.277008 1_555
Mn1 O2 2.084430 1_555
Mn1 O0 2.109511 1_545
Mn1 O1 2.112945 1_455
Mn1 O3 2.450690 1_554
Mn1 O4 2.532841 1_554
Mn1 O5 2.582310 1_554
Fe0 O5 2.045106 1_555
Fe0 O0 2.172788 1_555
Fe0 O4 2.172998 1_555
Fe0 O3 2.228939 1_555
Fe0 O1 2.428525 1_555
Fe0 O2 2.569656 1_555
O0 W0 2.233006 1_555
O1 W0 2.116675 1_655
O2 W0 2.145383 1_645
O3 W0 2.056520 1_546
O4 W0 2.039349 1_556
O5 W0 2.152193 1_646
