# generated using pymatgen
data_NdAsSe
_symmetry_space_group_name_H-M   'P 1'
_cell_length_a   4.02842193
_cell_length_b   4.02842193
_cell_length_c   18.07958798
_cell_angle_alpha   90.00000000
_cell_angle_beta   90.00000000
_cell_angle_gamma   90.44664530
_symmetry_Int_Tables_number   1
_chemical_formula_structural   NdAsSe
_chemical_formula_sum   'Nd4 As4 Se4'
_cell_volume   293.38995277
_cell_formula_units_Z   4
loop_
 _symmetry_equiv_pos_site_id
 _symmetry_equiv_pos_as_xyz
  1  'x, y, z'
loop_
 _atom_site_type_symbol
 _atom_site_label
 _atom_site_symmetry_multiplicity
 _atom_site_fract_x
 _atom_site_fract_y
 _atom_site_fract_z
 _atom_site_occupancy
  Nd  Nd0  1  0.24296491  0.24296491  0.13985671  1
  Nd  Nd1  1  0.25703509  0.25703509  0.63985671  1
  Nd  Nd2  1  0.75703509  0.75703509  0.86014329  1
  Nd  Nd3  1  0.74296491  0.74296491  0.36014329  1
  As  As0  1  0.78218069  0.21781931  0.50000000  1
  As  As1  1  0.71781931  0.28218069  -0.00000000  1
  As  As2  1  0.21781931  0.78218069  0.50000000  1
  As  As3  1  0.28218069  0.71781931  -0.00000000  1
  Se  Se0  1  0.24489365  0.24489365  0.31262353  1
  Se  Se1  1  0.25510635  0.25510635  0.81262353  1
  Se  Se2  1  0.75510635  0.75510635  0.68737647  1
  Se  Se3  1  0.74489365  0.74489365  0.18737647  1
loop_
_geom_bond_atom_site_label_1
_geom_bond_atom_site_label_2
_geom_bond_distance
_geom_bond_site_symmetry_2
Nd0 Se3 2.954144 1_445
Nd0 Se3 2.975095 1_555
Nd0 Se3 2.985897 1_455
Nd0 Se3 2.985897 1_545
Nd0 Se0 3.123572 1_555
Nd1 Se2 2.954144 1_555
Nd1 Se2 2.975095 1_445
Nd1 Se2 2.985897 1_455
Nd1 Se2 2.985897 1_545
Nd1 Se1 3.123572 1_555
Nd2 Se1 2.954144 1_665
Nd2 Se1 2.975095 1_555
Nd2 Se1 2.985897 1_565
Nd2 Se1 2.985897 1_655
Nd2 Se2 3.123572 1_555
Nd3 Se0 2.954144 1_555
Nd3 Se0 2.975095 1_665
Nd3 Se0 2.985897 1_565
Nd3 Se0 2.985897 1_655
Nd3 Se3 3.123572 1_555
As0 As2 2.491509 1_645
As0 As2 2.861177 1_545
As0 As2 2.861177 1_655
As0 Nd1 3.173808 1_655
As0 Nd3 3.173808 1_545
As0 Nd3 3.301381 1_555
As0 Nd1 3.301381 1_555
As1 As3 2.491509 1_555
As1 As3 2.861177 1_545
As1 As3 2.861177 1_655
As1 Nd0 3.173808 1_555
As1 Nd2 3.173808 1_554
As1 Nd2 3.301381 1_544
As1 Nd0 3.301381 1_655
As2 Nd3 3.173808 1_455
As2 Nd1 3.173808 1_565
As2 Nd3 3.301381 1_555
As2 Nd1 3.301381 1_555
As3 Nd0 3.173808 1_555
As3 Nd2 3.173808 1_554
As3 Nd2 3.301381 1_454
As3 Nd0 3.301381 1_565
