# generated using pymatgen
data_MgTiNbS4
_symmetry_space_group_name_H-M   'P 1'
_cell_length_a   3.41271106
_cell_length_b   6.99716635
_cell_length_c   6.95415379
_cell_angle_alpha   62.31374243
_cell_angle_beta   104.18550302
_cell_angle_gamma   119.19367879
_symmetry_Int_Tables_number   1
_chemical_formula_structural   MgTiNbS4
_chemical_formula_sum   'Mg1 Ti1 Nb1 S4'
_cell_volume   128.33225421
_cell_formula_units_Z   1
loop_
 _symmetry_equiv_pos_site_id
 _symmetry_equiv_pos_as_xyz
  1  'x, y, z'
loop_
 _atom_site_type_symbol
 _atom_site_label
 _atom_site_symmetry_multiplicity
 _atom_site_fract_x
 _atom_site_fract_y
 _atom_site_fract_z
 _atom_site_occupancy
  Mg  Mg0  1  0.00375800  0.25484400  0.49999900  1
  Ti  Ti0  1  0.95761100  0.94924100  0.01340100  1
  Nb  Nb0  1  0.04564500  0.54971300  0.98776900  1
  S  S0  1  0.66536000  0.79801700  0.73009100  1
  S  S1  1  0.34953100  0.71583800  0.26474800  1
  S  S2  1  0.65620700  0.26333800  0.78422600  1
  S  S3  1  0.33974400  0.22900800  0.21976600  1
loop_
_geom_bond_atom_site_label_1
_geom_bond_atom_site_label_2
_geom_bond_distance
_geom_bond_site_symmetry_2
Mg0 S2 2.577615 1_455
Mg0 S0 2.581325 1_445
Mg0 S2 2.586728 1_555
Mg0 S3 2.594010 1_455
Mg0 S3 2.601915 1_555
Mg0 S1 2.608238 1_555
Nb0 S1 2.462176 1_556
Nb0 S0 2.465904 1_455
Nb0 S0 2.466230 1_555
Nb0 S3 2.585561 1_556
Nb0 S3 2.590171 1_456
Nb0 S2 2.626949 1_455
S0 Ti0 2.437345 1_556
S1 Ti0 2.417379 1_455
S1 Ti0 2.418220 1_555
S2 Ti0 2.559306 1_446
S2 Ti0 2.564222 1_546
S3 Ti0 2.606757 1_445
