# generated using pymatgen
data_MgTe4Mo3W(SeS)2
_symmetry_space_group_name_H-M   'P 1'
_cell_length_a   6.77677800
_cell_length_b   6.77659945
_cell_length_c   77.42059600
_cell_angle_alpha   90.00071214
_cell_angle_beta   90.00002579
_cell_angle_gamma   120.00091778
_symmetry_Int_Tables_number   1
_chemical_formula_structural   MgTe4Mo3W(SeS)2
_chemical_formula_sum   'Mg8 Te32 Mo24 W8 Se16 S16'
_cell_volume   3079.06034526
_cell_formula_units_Z   8
loop_
 _symmetry_equiv_pos_site_id
 _symmetry_equiv_pos_as_xyz
  1  'x, y, z'
loop_
 _atom_site_type_symbol
 _atom_site_label
 _atom_site_symmetry_multiplicity
 _atom_site_fract_x
 _atom_site_fract_y
 _atom_site_fract_z
 _atom_site_occupancy
  Mg  Mg0_0  1  0.16569450  0.33032450  0.43669350  1
  Mg  Mg0_1  1  0.16569450  0.33032450  0.93669350  1
  Mg  Mg0_2  1  0.16569450  0.83032450  0.43669350  1
  Mg  Mg0_3  1  0.16569450  0.83032450  0.93669350  1
  Mg  Mg0_4  1  0.66569450  0.33032450  0.43669350  1
  Mg  Mg0_5  1  0.66569450  0.33032450  0.93669350  1
  Mg  Mg0_6  1  0.66569450  0.83032450  0.43669350  1
  Mg  Mg0_7  1  0.66569450  0.83032450  0.93669350  1
  Te  Te0_0  1  0.16667350  0.33334550  0.35302050  1
  Te  Te0_1  1  0.16667350  0.33334550  0.85302050  1
  Te  Te0_2  1  0.16667350  0.83334550  0.35302050  1
  Te  Te0_3  1  0.16667350  0.83334550  0.85302050  1
  Te  Te0_4  1  0.66667350  0.33334550  0.35302050  1
  Te  Te0_5  1  0.66667350  0.33334550  0.85302050  1
  Te  Te0_6  1  0.66667350  0.83334550  0.35302050  1
  Te  Te0_7  1  0.66667350  0.83334550  0.85302050  1
  Te  Te1_0  1  0.33332350  0.16664400  0.02274650  1
  Te  Te1_1  1  0.33332350  0.16664400  0.52274650  1
  Te  Te1_2  1  0.33332350  0.66664400  0.02274650  1
  Te  Te1_3  1  0.33332350  0.66664400  0.52274650  1
  Te  Te1_4  1  0.83332350  0.16664400  0.02274650  1
  Te  Te1_5  1  0.83332350  0.16664400  0.52274650  1
  Te  Te1_6  1  0.83332350  0.66664400  0.02274650  1
  Te  Te1_7  1  0.83332350  0.66664400  0.52274650  1
  Te  Te2_0  1  0.33332850  0.16665400  0.07119700  1
  Te  Te2_1  1  0.33332850  0.16665400  0.57119700  1
  Te  Te2_2  1  0.33332850  0.66665400  0.07119700  1
  Te  Te2_3  1  0.33332850  0.66665400  0.57119700  1
  Te  Te2_4  1  0.83332850  0.16665400  0.07119700  1
  Te  Te2_5  1  0.83332850  0.16665400  0.57119700  1
  Te  Te2_6  1  0.83332850  0.66665400  0.07119700  1
  Te  Te2_7  1  0.83332850  0.66665400  0.57119700  1
  Te  Te3_0  1  0.16667300  0.33334450  0.30454700  1
  Te  Te3_1  1  0.16667300  0.33334450  0.80454700  1
  Te  Te3_2  1  0.16667300  0.83334450  0.30454700  1
  Te  Te3_3  1  0.16667300  0.83334450  0.80454700  1
  Te  Te3_4  1  0.66667300  0.33334450  0.30454700  1
  Te  Te3_5  1  0.66667300  0.33334450  0.80454700  1
  Te  Te3_6  1  0.66667300  0.83334450  0.30454700  1
  Te  Te3_7  1  0.66667300  0.83334450  0.80454700  1
  Mo  Mo0_0  1  0.16665750  0.33331250  0.04694400  1
  Mo  Mo0_1  1  0.16665750  0.33331250  0.54694400  1
  Mo  Mo0_2  1  0.16665750  0.83331250  0.04694400  1
  Mo  Mo0_3  1  0.16665750  0.83331250  0.54694400  1
  Mo  Mo0_4  1  0.66665750  0.33331250  0.04694400  1
  Mo  Mo0_5  1  0.66665750  0.33331250  0.54694400  1
  Mo  Mo0_6  1  0.66665750  0.83331250  0.04694400  1
  Mo  Mo0_7  1  0.66665750  0.83331250  0.54694400  1
  Mo  Mo1_0  1  0.33336900  0.16672200  0.14090100  1
  Mo  Mo1_1  1  0.33336900  0.16672200  0.64090100  1
  Mo  Mo1_2  1  0.33336900  0.66672200  0.14090100  1
  Mo  Mo1_3  1  0.33336900  0.66672200  0.64090100  1
  Mo  Mo1_4  1  0.83336900  0.16672200  0.14090100  1
  Mo  Mo1_5  1  0.83336900  0.16672200  0.64090100  1
  Mo  Mo1_6  1  0.83336900  0.66672200  0.14090100  1
  Mo  Mo1_7  1  0.83336900  0.66672200  0.64090100  1
  Mo  Mo2_0  1  0.33334400  0.16668700  0.32880900  1
  Mo  Mo2_1  1  0.33334400  0.16668700  0.82880900  1
  Mo  Mo2_2  1  0.33334400  0.66668700  0.32880900  1
  Mo  Mo2_3  1  0.33334400  0.66668700  0.82880900  1
  Mo  Mo2_4  1  0.83334400  0.16668700  0.32880900  1
  Mo  Mo2_5  1  0.83334400  0.16668700  0.82880900  1
  Mo  Mo2_6  1  0.83334400  0.66668700  0.32880900  1
  Mo  Mo2_7  1  0.83334400  0.66668700  0.82880900  1
  W  W0_0  1  0.16665900  0.33331600  0.23480850  1
  W  W0_1  1  0.16665900  0.33331600  0.73480850  1
  W  W0_2  1  0.16665900  0.83331600  0.23480850  1
  W  W0_3  1  0.16665900  0.83331600  0.73480850  1
  W  W0_4  1  0.66665900  0.33331600  0.23480850  1
  W  W0_5  1  0.66665900  0.33331600  0.73480850  1
  W  W0_6  1  0.66665900  0.83331600  0.23480850  1
  W  W0_7  1  0.66665900  0.83331600  0.73480850  1
  Se  Se0_0  1  0.33332550  0.16664900  0.21338250  1
  Se  Se0_1  1  0.33332550  0.16664900  0.71338250  1
  Se  Se0_2  1  0.33332550  0.66664900  0.21338250  1
  Se  Se0_3  1  0.33332550  0.66664900  0.71338250  1
  Se  Se0_4  1  0.83332550  0.16664900  0.21338250  1
  Se  Se0_5  1  0.83332550  0.16664900  0.71338250  1
  Se  Se0_6  1  0.83332550  0.66664900  0.21338250  1
  Se  Se0_7  1  0.83332550  0.66664900  0.71338250  1
  Se  Se1_0  1  0.33332500  0.16664900  0.25622000  1
  Se  Se1_1  1  0.33332500  0.16664900  0.75622000  1
  Se  Se1_2  1  0.33332500  0.66664900  0.25622000  1
  Se  Se1_3  1  0.33332500  0.66664900  0.75622000  1
  Se  Se1_4  1  0.83332500  0.16664900  0.25622000  1
  Se  Se1_5  1  0.83332500  0.16664900  0.75622000  1
  Se  Se1_6  1  0.83332500  0.66664900  0.25622000  1
  Se  Se1_7  1  0.83332500  0.66664900  0.75622000  1
  S  S0_0  1  0.16666600  0.33333950  0.16032950  1
  S  S0_1  1  0.16666600  0.33333950  0.66032950  1
  S  S0_2  1  0.16666600  0.83333950  0.16032950  1
  S  S0_3  1  0.16666600  0.83333950  0.66032950  1
  S  S0_4  1  0.66666600  0.33333950  0.16032950  1
  S  S0_5  1  0.66666600  0.33333950  0.66032950  1
  S  S0_6  1  0.66666600  0.83333950  0.16032950  1
  S  S0_7  1  0.66666600  0.83333950  0.66032950  1
  S  S1_0  1  0.16666550  0.33333850  0.12146450  1
  S  S1_1  1  0.16666550  0.33333850  0.62146450  1
  S  S1_2  1  0.16666550  0.83333850  0.12146450  1
  S  S1_3  1  0.16666550  0.83333850  0.62146450  1
  S  S1_4  1  0.66666550  0.33333850  0.12146450  1
  S  S1_5  1  0.66666550  0.33333850  0.62146450  1
  S  S1_6  1  0.66666550  0.83333850  0.12146450  1
  S  S1_7  1  0.66666550  0.83333850  0.62146450  1
loop_
_geom_bond_atom_site_label_1
_geom_bond_atom_site_label_2
_geom_bond_distance
_geom_bond_site_symmetry_2
Mg0_0 Mg0_6 3.388297 1_445
Mg0_0 Mg0_6 3.388297 1_555
Mg0_0 Mg0_2 3.388300 1_545
Mg0_0 Mg0_2 3.388300 1_555
Mg0_0 Mg0_4 3.388389 1_455
Mg0_0 Mg0_4 3.388389 1_555
Mg0_1 Mg0_7 3.388297 1_555
Mg0_1 Mg0_7 3.388297 1_445
Mg0_1 Mg0_3 3.388300 1_545
Mg0_1 Mg0_3 3.388300 1_555
Mg0_1 Mg0_5 3.388389 1_555
Mg0_1 Mg0_5 3.388389 1_455
Mg0_2 Mg0_4 3.388297 1_455
Mg0_2 Mg0_4 3.388297 1_565
Mg0_2 Mg0_6 3.388389 1_555
Mg0_2 Mg0_6 3.388389 1_455
Mg0_3 Mg0_5 3.388297 1_565
Mg0_3 Mg0_5 3.388297 1_455
Mg0_3 Mg0_7 3.388389 1_555
Mg0_3 Mg0_7 3.388389 1_455
Mg0_4 Mg0_6 3.388300 1_545
Mg0_4 Mg0_6 3.388300 1_555
Mg0_5 Mg0_7 3.388300 1_545
Mg0_5 Mg0_7 3.388300 1_555
Mo0_0 Te1_2 2.708583 1_555
Mo0_0 Te1_4 2.708601 1_455
Mo0_0 Te1_0 2.708605 1_555
Mo0_0 Te2_2 2.711560 1_555
Mo0_0 Te2_4 2.711574 1_455
Mo0_0 Te2_0 2.711576 1_555
Mo0_1 Te1_3 2.708583 1_555
Mo0_1 Te1_5 2.708601 1_455
Mo0_1 Te1_1 2.708605 1_555
Mo0_1 Te2_3 2.711560 1_555
Mo0_1 Te2_5 2.711574 1_455
Mo0_1 Te2_1 2.711576 1_555
Mo0_2 Te1_0 2.708583 1_565
Mo0_2 Te1_6 2.708601 1_455
Mo0_2 Te1_2 2.708605 1_555
Mo0_2 Te2_0 2.711560 1_565
Mo0_2 Te2_6 2.711574 1_455
Mo0_2 Te2_2 2.711576 1_555
Mo0_3 Te1_1 2.708583 1_565
Mo0_3 Te1_7 2.708601 1_455
Mo0_3 Te1_3 2.708605 1_555
Mo0_3 Te2_1 2.711560 1_565
Mo0_3 Te2_7 2.711574 1_455
Mo0_3 Te2_3 2.711576 1_555
Mo0_4 Te1_6 2.708583 1_555
Mo0_4 Te1_0 2.708601 1_555
Mo0_4 Te1_4 2.708605 1_555
Mo0_4 Te2_6 2.711560 1_555
Mo0_4 Te2_0 2.711574 1_555
Mo0_4 Te2_4 2.711576 1_555
Mo0_5 Te1_7 2.708583 1_555
Mo0_5 Te1_1 2.708601 1_555
Mo0_5 Te1_5 2.708605 1_555
Mo0_5 Te2_7 2.711560 1_555
Mo0_5 Te2_1 2.711574 1_555
Mo0_5 Te2_5 2.711576 1_555
Mo0_6 Te1_4 2.708583 1_565
Mo0_6 Te1_2 2.708601 1_555
Mo0_6 Te1_6 2.708605 1_555
Mo0_6 Te2_4 2.711560 1_565
Mo0_6 Te2_2 2.711574 1_555
Mo0_6 Te2_6 2.711576 1_555
Mo0_7 Te1_5 2.708583 1_565
Mo0_7 Te1_3 2.708601 1_555
Mo0_7 Te1_7 2.708605 1_555
Mo0_7 Te2_5 2.711560 1_565
Mo0_7 Te2_3 2.711574 1_555
Mo0_7 Te2_7 2.711576 1_555
Mo1_0 S0_4 2.467514 1_555
Mo1_0 S0_0 2.467625 1_555
Mo1_0 S0_2 2.467897 1_545
Mo1_0 S1_4 2.467908 1_555
Mo1_0 S1_0 2.468017 1_555
Mo1_0 S1_2 2.468245 1_545
Mo1_1 S0_5 2.467514 1_555
Mo1_1 S0_1 2.467625 1_555
Mo1_1 S0_3 2.467897 1_545
Mo1_1 S1_5 2.467908 1_555
Mo1_1 S1_1 2.468017 1_555
Mo1_1 S1_3 2.468245 1_545
Mo1_2 S0_6 2.467514 1_555
Mo1_2 S0_2 2.467625 1_555
Mo1_2 S0_0 2.467897 1_555
Mo1_2 S1_6 2.467908 1_555
Mo1_2 S1_2 2.468017 1_555
Mo1_2 S1_0 2.468245 1_555
Mo1_3 S0_7 2.467514 1_555
Mo1_3 S0_3 2.467625 1_555
Mo1_3 S0_1 2.467897 1_555
Mo1_3 S1_7 2.467908 1_555
Mo1_3 S1_3 2.468017 1_555
Mo1_3 S1_1 2.468245 1_555
Mo1_4 S0_0 2.467514 1_655
Mo1_4 S0_4 2.467625 1_555
Mo1_4 S0_6 2.467897 1_545
Mo1_4 S1_0 2.467908 1_655
Mo1_4 S1_4 2.468017 1_555
Mo1_4 S1_6 2.468245 1_545
Mo1_5 S0_1 2.467514 1_655
Mo1_5 S0_5 2.467625 1_555
Mo1_5 S0_7 2.467897 1_545
Mo1_5 S1_1 2.467908 1_655
Mo1_5 S1_5 2.468017 1_555
Mo1_5 S1_7 2.468245 1_545
Mo1_6 S0_2 2.467514 1_655
Mo1_6 S0_6 2.467625 1_555
Mo1_6 S0_4 2.467897 1_555
Mo1_6 S1_2 2.467908 1_655
Mo1_6 S1_6 2.468017 1_555
Mo1_6 S1_4 2.468245 1_555
Mo1_7 S0_3 2.467514 1_655
Mo1_7 S0_7 2.467625 1_555
Mo1_7 S0_5 2.467897 1_555
Mo1_7 S1_3 2.467908 1_655
Mo1_7 S1_7 2.468017 1_555
Mo1_7 S1_5 2.468245 1_555
Mo2_0 Te0_0 2.709332 1_555
Mo2_0 Te0_4 2.709332 1_555
Mo2_0 Te0_2 2.709375 1_545
Mo2_0 Te3_2 2.712047 1_545
Mo2_0 Te3_0 2.712055 1_555
Mo2_0 Te3_4 2.712057 1_555
Mo2_1 Te0_1 2.709332 1_555
Mo2_1 Te0_5 2.709332 1_555
Mo2_1 Te0_3 2.709375 1_545
Mo2_1 Te3_3 2.712047 1_545
Mo2_1 Te3_1 2.712055 1_555
Mo2_1 Te3_5 2.712057 1_555
Mo2_2 Te0_2 2.709332 1_555
Mo2_2 Te0_6 2.709332 1_555
Mo2_2 Te0_0 2.709375 1_555
Mo2_2 Te3_0 2.712047 1_555
Mo2_2 Te3_2 2.712055 1_555
Mo2_2 Te3_6 2.712057 1_555
Mo2_3 Te0_3 2.709332 1_555
Mo2_3 Te0_7 2.709332 1_555
Mo2_3 Te0_1 2.709375 1_555
Mo2_3 Te3_1 2.712047 1_555
Mo2_3 Te3_3 2.712055 1_555
Mo2_3 Te3_7 2.712057 1_555
Mo2_4 Te0_4 2.709332 1_555
Mo2_4 Te0_0 2.709332 1_655
Mo2_4 Te0_6 2.709375 1_545
Mo2_4 Te3_6 2.712047 1_545
Mo2_4 Te3_4 2.712055 1_555
Mo2_4 Te3_0 2.712057 1_655
Mo2_5 Te0_5 2.709332 1_555
Mo2_5 Te0_1 2.709332 1_655
Mo2_5 Te0_7 2.709375 1_545
Mo2_5 Te3_7 2.712047 1_545
Mo2_5 Te3_5 2.712055 1_555
Mo2_5 Te3_1 2.712057 1_655
Mo2_6 Te0_6 2.709332 1_555
Mo2_6 Te0_2 2.709332 1_655
Mo2_6 Te0_4 2.709375 1_555
Mo2_6 Te3_4 2.712047 1_555
Mo2_6 Te3_6 2.712055 1_555
Mo2_6 Te3_2 2.712057 1_655
Mo2_7 Te0_7 2.709332 1_555
Mo2_7 Te0_3 2.709332 1_655
Mo2_7 Te0_5 2.709375 1_555
Mo2_7 Te3_5 2.712047 1_555
Mo2_7 Te3_7 2.712055 1_555
Mo2_7 Te3_3 2.712057 1_655
Se0_0 W0_2 2.564866 1_545
Se0_0 W0_4 2.564879 1_555
Se0_0 W0_0 2.564881 1_555
Se0_1 W0_3 2.564866 1_545
Se0_1 W0_5 2.564879 1_555
Se0_1 W0_1 2.564881 1_555
Se0_2 W0_0 2.564866 1_555
Se0_2 W0_6 2.564879 1_555
Se0_2 W0_2 2.564881 1_555
Se0_3 W0_1 2.564866 1_555
Se0_3 W0_7 2.564879 1_555
Se0_3 W0_3 2.564881 1_555
Se0_4 W0_6 2.564866 1_545
Se0_4 W0_0 2.564879 1_655
Se0_4 W0_4 2.564881 1_555
Se0_5 W0_7 2.564866 1_545
Se0_5 W0_1 2.564879 1_655
Se0_5 W0_5 2.564881 1_555
Se0_6 W0_4 2.564866 1_555
Se0_6 W0_2 2.564879 1_655
Se0_6 W0_6 2.564881 1_555
Se0_7 W0_5 2.564866 1_555
Se0_7 W0_3 2.564879 1_655
Se0_7 W0_7 2.564881 1_555
Se1_0 W0_2 2.564103 1_545
Se1_0 W0_0 2.564171 1_555
Se1_0 W0_4 2.564175 1_555
Se1_1 W0_3 2.564103 1_545
Se1_1 W0_1 2.564171 1_555
Se1_1 W0_5 2.564175 1_555
Se1_2 W0_0 2.564103 1_555
Se1_2 W0_2 2.564171 1_555
Se1_2 W0_6 2.564175 1_555
Se1_3 W0_1 2.564103 1_555
Se1_3 W0_3 2.564171 1_555
Se1_3 W0_7 2.564175 1_555
Se1_4 W0_6 2.564103 1_545
Se1_4 W0_4 2.564171 1_555
Se1_4 W0_0 2.564175 1_655
Se1_5 W0_7 2.564103 1_545
Se1_5 W0_5 2.564171 1_555
Se1_5 W0_1 2.564175 1_655
Se1_6 W0_4 2.564103 1_555
Se1_6 W0_6 2.564171 1_555
Se1_6 W0_2 2.564175 1_655
Se1_7 W0_5 2.564103 1_555
Se1_7 W0_7 2.564171 1_555
Se1_7 W0_3 2.564175 1_655
