# generated using pymatgen
data_NaTi2Zn2PS5O24
_symmetry_space_group_name_H-M   'P 1'
_cell_length_a   8.65117122
_cell_length_b   8.65679218
_cell_length_c   22.37020074
_cell_angle_alpha   89.83370329
_cell_angle_beta   89.85841184
_cell_angle_gamma   120.13340791
_symmetry_Int_Tables_number   1
_chemical_formula_structural   NaTi2Zn2PS5O24
_chemical_formula_sum   'Na3 Ti6 Zn6 P3 S15 O72'
_cell_volume   1448.90765534
_cell_formula_units_Z   3
loop_
 _symmetry_equiv_pos_site_id
 _symmetry_equiv_pos_as_xyz
  1  'x, y, z'
loop_
 _atom_site_type_symbol
 _atom_site_label
 _atom_site_symmetry_multiplicity
 _atom_site_fract_x
 _atom_site_fract_y
 _atom_site_fract_z
 _atom_site_occupancy
  Na  Na0  1  0.66672043  0.33212778  0.82779263  1
  Na  Na1  1  0.66322679  0.33405724  0.33198820  1
  Na  Na2  1  0.33482606  0.66697766  0.16288948  1
  Ti  Ti0  1  0.00295241  0.99361843  0.35407154  1
  Ti  Ti1  1  0.99734631  0.99967069  0.64279956  1
  Ti  Ti2  1  0.99885201  0.99073487  0.14347977  1
  Ti  Ti3  1  0.67132757  0.33182677  0.97574819  1
  Ti  Ti4  1  0.34139149  0.67381622  0.31185230  1
  Ti  Ti5  1  0.32092994  0.65735758  0.81015815  1
  Zn  Zn0  1  0.99898032  0.00426294  0.85424761  1
  Zn  Zn1  1  0.66619465  0.33169358  0.68210348  1
  Zn  Zn2  1  0.65932955  0.33300944  0.18833562  1
  Zn  Zn3  1  0.66625735  0.33401747  0.48670857  1
  Zn  Zn4  1  0.33199735  0.66273065  0.01524605  1
  Zn  Zn5  1  0.33365246  0.66656402  0.52236515  1
  P  P0  1  0.28631339  0.99841335  0.25007931  1
  P  P1  1  0.71525381  0.71393332  0.25043014  1
  P  P2  1  0.04643048  0.37599706  0.91789741  1
  S  S0  1  0.00265566  0.28706432  0.25065064  1
  S  S1  1  0.29167210  0.28936400  0.75054429  1
  S  S2  1  0.99825480  0.71084984  0.75119803  1
  S  S3  1  0.70738154  0.99857276  0.75094402  1
  S  S4  1  0.95986604  0.33347466  0.58394494  1
  S  S5  1  0.37228651  0.03938740  0.58414075  1
  S  S6  1  0.66650396  0.62649453  0.58406795  1
  S  S7  1  0.95629811  0.62074253  0.08450261  1
  S  S8  1  0.66702893  0.04343013  0.08461701  1
  S  S9  1  0.37590509  0.33379998  0.08439926  1
  S  S10  1  0.62269280  0.66572114  0.91682143  1
  S  S11  1  0.33309404  0.95563777  0.91677728  1
  S  S12  1  0.62572108  0.95855226  0.41598688  1
  S  S13  1  0.33179349  0.37653718  0.41531173  1
  S  S14  1  0.04375517  0.66486901  0.41578379  1
  O  O0  1  0.19109773  0.01957450  0.30584347  1
  O  O1  1  0.82927191  0.81215342  0.30586894  1
  O  O2  1  0.98067876  0.17865026  0.30483566  1
  O  O3  1  0.21493190  0.18232618  0.80446635  1
  O  O4  1  0.97096850  0.78871716  0.80505063  1
  O  O5  1  0.81606768  0.02938746  0.80416712  1
  O  O6  1  0.79280515  0.97055884  0.69690823  1
  O  O7  1  0.17871135  0.20835950  0.69698525  1
  O  O8  1  0.02876522  0.82312524  0.69721766  1
  O  O9  1  0.80066180  0.83272598  0.19391177  1
  O  O10  1  0.03196496  0.20703851  0.19631776  1
  O  O11  1  0.16738625  0.96940620  0.19427452  1
  O  O12  1  0.88029722  0.36244427  0.63735943  1
  O  O13  1  0.48162054  0.11897157  0.63721994  1
  O  O14  1  0.63719548  0.51734119  0.63748887  1
  O  O15  1  0.87725891  0.51428497  0.13860014  1
  O  O16  1  0.63743894  0.12157713  0.13830198  1
  O  O17  1  0.48217004  0.36258040  0.13847722  1
  O  O18  1  0.45973893  0.30437604  0.03058481  1
  O  O19  1  0.84396981  0.53785861  0.03050778  1
  O  O20  1  0.69505718  0.15798725  0.03012455  1
  O  O21  1  0.44057798  0.15225257  0.52994026  1
  O  O22  1  0.71155753  0.55934982  0.53006853  1
  O  O23  1  0.84754714  0.28892533  0.53007604  1
  O  O24  1  0.54936005  0.69432800  0.97161037  1
  O  O25  1  0.15043470  0.45740852  0.97373910  1
  O  O26  1  0.31065679  0.85630166  0.97187988  1
  O  O27  1  0.54988476  0.84967798  0.46907286  1
  O  O28  1  0.29941885  0.45016815  0.46881337  1
  O  O29  1  0.14988601  0.69840407  0.46922420  1
  O  O30  1  0.13535014  0.64404113  0.36147004  1
  O  O31  1  0.50834380  0.86532545  0.36142436  1
  O  O32  1  0.35592294  0.49376234  0.36107940  1
  O  O33  1  0.13532470  0.50403385  0.86147103  1
  O  O34  1  0.37193546  0.87596178  0.86342892  1
  O  O35  1  0.50447737  0.62998854  0.86377122  1
  O  O36  1  0.02513156  0.82754026  0.40571144  1
  O  O37  1  0.80363502  0.97704623  0.40434893  1
  O  O38  1  0.17005440  0.19838321  0.40390312  1
  O  O39  1  0.01111976  0.19191025  0.90613796  1
  O  O40  1  0.18316512  0.98274294  0.90762512  1
  O  O41  1  0.80245265  0.81213865  0.90721058  1
  O  O42  1  0.97687384  0.16752016  0.59509335  1
  O  O43  1  0.18966363  0.02284969  0.59570471  1
  O  O44  1  0.83297019  0.80963924  0.59514320  1
  O  O45  1  0.96634362  0.80083099  0.09086402  1
  O  O46  1  0.83492373  0.03356111  0.09136371  1
  O  O47  1  0.19548344  0.16647740  0.09226354  1
  O  O48  1  0.68037969  0.15250576  0.74309440  1
  O  O49  1  0.47391846  0.32045697  0.74299003  1
  O  O50  1  0.84741233  0.52833239  0.74405000  1
  O  O51  1  0.69692071  0.53143309  0.24739842  1
  O  O52  1  0.84481849  0.30683307  0.24660985  1
  O  O53  1  0.47115332  0.16067684  0.24707686  1
  O  O54  1  0.63271990  0.49381742  0.92403226  1
  O  O55  1  0.85597357  0.36643100  0.92529839  1
  O  O56  1  0.50347212  0.14032679  0.92316985  1
  O  O57  1  0.64085864  0.13500029  0.41812182  1
  O  O58  1  0.49178123  0.35830781  0.41759179  1
  O  O59  1  0.86438223  0.50594296  0.41848032  1
  O  O60  1  0.34886677  0.48750341  0.07795332  1
  O  O61  1  0.13898953  0.65417305  0.07796168  1
  O  O62  1  0.51386884  0.86258143  0.07670275  1
  O  O63  1  0.34300432  0.85992682  0.57617200  1
  O  O64  1  0.51656521  0.65622867  0.57628655  1
  O  O65  1  0.14003070  0.48373952  0.57611198  1
  O  O66  1  0.29599641  0.82386423  0.25824797  1
  O  O67  1  0.52830730  0.70026332  0.25840966  1
  O  O68  1  0.16828917  0.46722324  0.25706747  1
  O  O69  1  0.30447001  0.47030417  0.75840082  1
  O  O70  1  0.16834943  0.70052850  0.75830288  1
  O  O71  1  0.52869352  0.83161168  0.75896678  1
loop_
_geom_bond_atom_site_label_1
_geom_bond_atom_site_label_2
_geom_bond_distance
_geom_bond_site_symmetry_2
Na0 O50 2.477732 1_555
Na0 O48 2.494447 1_555
Na0 O49 2.497732 1_555
Na0 O56 2.629422 1_555
Na0 O55 2.657028 1_555
Na0 O54 2.666165 1_555
Na1 O51 2.462444 1_555
Na1 O53 2.479917 1_555
Na1 O58 2.492388 1_555
Na1 O57 2.522615 1_555
Na1 O59 2.533694 1_555
Na1 O52 2.555557 1_555
Na2 O60 2.498855 1_555
Na2 O62 2.513286 1_555
Na2 O61 2.514093 1_555
Na2 O68 2.639495 1_555
Na2 O66 2.641819 1_555
Na2 O67 2.643426 1_555
O0 P0 1.554343 1_545
O0 Ti0 1.867215 1_545
O1 P1 1.550501 1_555
O1 Ti0 1.880448 1_655
O2 S0 1.483012 1_655
O2 Ti0 2.028955 1_645
O3 S1 1.458180 1_555
O3 Zn0 2.048139 1_455
O4 S2 1.457555 1_555
O4 Zn0 2.076265 1_565
O5 S3 1.458887 1_545
O5 Zn0 2.039442 1_555
O6 S3 1.497784 1_555
O6 Ti1 2.049326 1_555
O7 S1 1.484880 1_555
O7 Ti1 2.090686 1_445
O8 S2 1.485449 1_455
O8 Ti1 2.073519 1_455
O9 P1 1.557862 1_555
O9 Ti2 1.926217 1_555
O10 S0 1.483657 1_555
O10 Ti2 2.112196 1_445
O11 P0 1.558458 1_555
O11 Ti2 1.930886 1_455
O12 S4 1.461337 1_555
O12 Zn1 1.999437 1_555
O13 S5 1.461243 1_555
O13 Zn1 2.003814 1_555
O14 S6 1.461734 1_555
O14 Zn1 2.009619 1_555
O15 S7 1.462232 1_555
O15 Zn2 2.064933 1_555
O16 S8 1.463736 1_555
O16 Zn2 2.074517 1_555
O17 S9 1.465590 1_555
O17 Zn2 2.014748 1_555
O18 S9 1.490993 1_555
O18 Ti3 2.112448 1_554
O19 S7 1.492946 1_555
O19 Ti3 2.063869 1_554
O20 S8 1.509412 1_555
O20 Ti3 2.021705 1_554
O21 S5 1.477764 1_555
O21 Zn3 2.029873 1_555
O22 S6 1.475874 1_555
O22 Zn3 2.035879 1_555
O23 S4 1.475572 1_555
O23 Zn3 2.042874 1_555
O24 S10 1.456593 1_555
O24 Zn4 2.009147 1_556
O25 P2 1.496905 1_555
O25 Zn4 1.924129 1_556
O26 S11 1.456597 1_555
O26 Zn4 2.021200 1_556
O27 S12 1.448383 1_555
O27 Zn5 2.105739 1_555
O28 S13 1.448855 1_555
O28 Zn5 2.118917 1_555
O29 S14 1.447847 1_555
O29 Zn5 2.112820 1_555
O30 S14 1.508848 1_555
O30 Ti4 2.000752 1_555
O31 S12 1.536649 1_555
O31 Ti4 1.918011 1_555
O32 S13 1.524506 1_555
O32 Ti4 1.960985 1_555
O33 P2 1.595155 1_555
O33 Ti5 1.870784 1_555
O34 S11 1.499462 1_555
O34 Ti5 2.091245 1_555
O35 S10 1.496819 1_555
O35 Ti5 2.097967 1_555
O36 S14 1.511927 1_555
O36 Ti0 1.925282 1_555
O37 S12 1.487549 1_555
O37 Ti0 1.999995 1_655
O38 S13 1.496293 1_555
O38 Ti0 1.980202 1_545
O39 P2 1.488671 1_555
O39 Zn0 1.958953 1_455
O40 S11 1.444281 1_555
O40 Zn0 2.074999 1_465
O41 S10 1.445308 1_555
O41 Zn0 2.049400 1_565
O42 S4 1.535610 1_555
O42 Ti1 1.879339 1_545
O43 S5 1.534332 1_555
O43 Ti1 1.890296 1_445
O44 S6 1.536420 1_555
O44 Ti1 1.879858 1_555
O45 S7 1.524325 1_555
O45 Ti2 1.927627 1_555
O46 S8 1.505123 1_555
O46 Ti2 2.010325 1_545
O47 S9 1.514100 1_555
O47 Ti2 1.975544 1_445
O48 S3 1.473946 1_545
O48 Zn1 2.112452 1_555
O49 S1 1.469403 1_555
O49 Zn1 2.111196 1_555
O50 S2 1.468766 1_555
O50 Zn1 2.149605 1_555
O51 P1 1.508253 1_555
O51 Zn2 2.063110 1_555
O52 S0 1.461891 1_655
O52 Zn2 2.167835 1_555
O53 P0 1.509428 1_545
O53 Zn2 2.035231 1_555
O54 S10 1.541550 1_555
O54 Ti3 1.969574 1_555
O55 P2 1.615759 1_655
O55 Ti3 1.850349 1_555
O56 S11 1.544510 1_545
O56 Ti3 1.960381 1_555
O57 S12 1.467045 1_545
O57 Zn3 2.237743 1_555
O58 S13 1.470642 1_555
O58 Zn3 2.245327 1_555
O59 S14 1.469693 1_655
O59 Zn3 2.212481 1_555
O60 S9 1.468841 1_555
O60 Zn4 2.121558 1_555
O61 S7 1.463727 1_455
O61 Zn4 2.150687 1_555
O62 S8 1.469021 1_565
O62 Zn4 2.156440 1_555
O63 S5 1.454706 1_565
O63 Zn5 2.033106 1_555
O64 S6 1.454384 1_555
O64 Zn5 2.029281 1_555
O65 S4 1.453899 1_455
O65 Zn5 2.018293 1_555
O66 P0 1.564992 1_555
O66 Ti4 1.945471 1_555
O67 P1 1.570935 1_555
O67 Ti4 1.927086 1_555
O68 S0 1.504908 1_555
O68 Ti4 2.067808 1_555
O69 S1 1.524535 1_555
O69 Ti5 1.939869 1_555
O70 S2 1.526988 1_455
O70 Ti5 1.930816 1_555
O71 S3 1.504904 1_555
O71 Ti5 2.018683 1_555
