# generated using pymatgen
data_Na7Ti2Ga2Si3(PO8)3
_symmetry_space_group_name_H-M   'P 1'
_cell_length_a   8.88697513
_cell_length_b   8.86439744
_cell_length_c   21.96797980
_cell_angle_alpha   89.78211790
_cell_angle_beta   90.08203092
_cell_angle_gamma   119.98859709
_symmetry_Int_Tables_number   1
_chemical_formula_structural   Na7Ti2Ga2Si3(PO8)3
_chemical_formula_sum   'Na21 Ti6 Ga6 Si9 P9 O72'
_cell_volume   1498.89297094
_cell_formula_units_Z   3
loop_
 _symmetry_equiv_pos_site_id
 _symmetry_equiv_pos_as_xyz
  1  'x, y, z'
loop_
 _atom_site_type_symbol
 _atom_site_label
 _atom_site_symmetry_multiplicity
 _atom_site_fract_x
 _atom_site_fract_y
 _atom_site_fract_z
 _atom_site_occupancy
  Na  Na0  1  0.63212172  0.00117033  0.25098738  1
  Na  Na1  1  0.36783182  0.36908261  0.24920564  1
  Na  Na2  1  0.99997018  0.62855859  0.24990908  1
  Na  Na3  1  0.63192794  0.63316710  0.74983396  1
  Na  Na4  1  0.99530408  0.36486798  0.74956483  1
  Na  Na5  1  0.37112171  0.00105615  0.74850343  1
  Na  Na6  1  0.03226709  0.69784184  0.58376906  1
  Na  Na7  1  0.66270816  0.96690108  0.58325690  1
  Na  Na8  1  0.66708307  0.69560710  0.08318939  1
  Na  Na9  1  0.03105012  0.33487084  0.08445100  1
  Na  Na10  1  0.96238493  0.66514558  0.91824527  1
  Na  Na11  1  0.70149100  0.03333619  0.91634321  1
  Na  Na12  1  0.33792229  0.30200980  0.91757783  1
  Na  Na13  1  0.96815503  0.30368342  0.41617751  1
  Na  Na14  1  0.33540990  0.03266682  0.41687831  1
  Na  Na15  1  0.00086990  0.99927249  0.50003673  1
  Na  Na16  1  0.00555064  0.99671162  0.00033743  1
  Na  Na17  1  0.66671308  0.33331410  0.83333899  1
  Na  Na18  1  0.66965861  0.33992234  0.33434789  1
  Na  Na19  1  0.32957582  0.66954476  0.16660548  1
  Na  Na20  1  0.33349754  0.66175687  0.66539415  1
  Ti  Ti0  1  0.98636247  0.99402876  0.35457972  1
  Ti  Ti1  1  0.00161303  0.00852956  0.64596197  1
  Ti  Ti2  1  0.01395018  0.00660162  0.14560092  1
  Ti  Ti3  1  0.66832728  0.33018893  0.48093306  1
  Ti  Ti4  1  0.33595712  0.66823563  0.02120960  1
  Ti  Ti5  1  0.33074454  0.67040274  0.51908596  1
  Ga  Ga0  1  0.99163851  0.99635678  0.85009813  1
  Ga  Ga1  1  0.66892518  0.32633810  0.68168085  1
  Ga  Ga2  1  0.67330290  0.33622042  0.18161684  1
  Ga  Ga3  1  0.66367330  0.34208610  0.98479858  1
  Ga  Ga4  1  0.32699471  0.66172812  0.31845127  1
  Ga  Ga5  1  0.34153020  0.67082212  0.81664309  1
  Si  Si0  1  0.99992453  0.29462230  0.24972398  1
  Si  Si1  1  0.70635188  0.00100591  0.75066757  1
  Si  Si2  1  0.96095530  0.33599207  0.58430699  1
  Si  Si3  1  0.37450463  0.04620170  0.58400266  1
  Si  Si4  1  0.95981742  0.62668942  0.08332549  1
  Si  Si5  1  0.37972212  0.32997363  0.08366482  1
  Si  Si6  1  0.62691134  0.66566675  0.91585096  1
  Si  Si7  1  0.62009206  0.95120993  0.41535389  1
  Si  Si8  1  0.03903530  0.66669644  0.41538676  1
  P  P0  1  0.29193668  0.00152248  0.25078905  1
  P  P1  1  0.70837469  0.70985546  0.24938220  1
  P  P2  1  0.28973671  0.28970367  0.75145209  1
  P  P3  1  0.99971269  0.70837740  0.75060762  1
  P  P4  1  0.66301481  0.61778666  0.58486497  1
  P  P5  1  0.66426880  0.04440768  0.08307460  1
  P  P6  1  0.04382556  0.37678158  0.91575713  1
  P  P7  1  0.33381895  0.95780891  0.91583180  1
  P  P8  1  0.33705083  0.38005716  0.41589873  1
  O  O0  1  0.20632957  0.03209302  0.30704914  1
  O  O1  1  0.83100784  0.79979158  0.30531247  1
  O  O2  1  0.96839147  0.16538591  0.30870834  1
  O  O3  1  0.21129935  0.17309633  0.80861602  1
  O  O4  1  0.96777721  0.79027169  0.80816055  1
  O  O5  1  0.83202744  0.04248586  0.80988120  1
  O  O6  1  0.80184162  0.96551955  0.69179843  1
  O  O7  1  0.16792993  0.19764464  0.69565107  1
  O  O8  1  0.03442375  0.82695371  0.69390631  1
  O  O9  1  0.79360124  0.82598134  0.19288433  1
  O  O10  1  0.03123408  0.19720963  0.19128522  1
  O  O11  1  0.16947503  0.96877478  0.19486816  1
  O  O12  1  0.88237603  0.38010227  0.64382341  1
  O  O13  1  0.49603751  0.12230088  0.64386750  1
  O  O14  1  0.63495617  0.51113208  0.64364850  1
  O  O15  1  0.88287731  0.50317146  0.14361285  1
  O  O16  1  0.63173785  0.12089486  0.14115668  1
  O  O17  1  0.50007117  0.37501682  0.14427129  1
  O  O18  1  0.45390707  0.29293056  0.02185691  1
  O  O19  1  0.83892692  0.54633944  0.02298294  1
  O  O20  1  0.70333637  0.16056598  0.02566162  1
  O  O21  1  0.46584263  0.16539923  0.52336980  1
  O  O22  1  0.69936974  0.53271768  0.52943838  1
  O  O23  1  0.83217250  0.29648040  0.52501633  1
  O  O24  1  0.53193915  0.70098897  0.97482278  1
  O  O25  1  0.16102824  0.46393818  0.97261471  1
  O  O26  1  0.29921203  0.83457234  0.97117104  1
  O  O27  1  0.53301607  0.83356773  0.47642775  1
  O  O28  1  0.29965019  0.46537823  0.47079944  1
  O  O29  1  0.16738719  0.70240846  0.47484153  1
  O  O30  1  0.11833960  0.62183643  0.35605369  1
  O  O31  1  0.50015769  0.87311698  0.35515517  1
  O  O32  1  0.36790696  0.48687364  0.35700924  1
  O  O33  1  0.12280183  0.49383888  0.85864184  1
  O  O34  1  0.36621891  0.87794741  0.85785523  1
  O  O35  1  0.50128143  0.62442148  0.85664499  1
  O  O36  1  0.03273623  0.84736599  0.40923494  1
  O  O37  1  0.81893951  0.98213523  0.41062126  1
  O  O38  1  0.17120301  0.19567851  0.41061224  1
  O  O39  1  0.03282360  0.19649540  0.91191776  1
  O  O40  1  0.17011438  0.97711640  0.91080233  1
  O  O41  1  0.81985805  0.84247334  0.91218124  1
  O  O42  1  0.96945381  0.15520687  0.59016228  1
  O  O43  1  0.17646167  0.01274260  0.59059877  1
  O  O44  1  0.83049036  0.80227282  0.58934064  1
  O  O45  1  0.97072305  0.81593249  0.09193488  1
  O  O46  1  0.82704151  0.02241925  0.08930967  1
  O  O47  1  0.17924324  0.16468660  0.09019031  1
  O  O48  1  0.68888207  0.17638081  0.74520592  1
  O  O49  1  0.47243483  0.31254093  0.74436406  1
  O  O50  1  0.83317179  0.52813668  0.74527407  1
  O  O51  1  0.69225426  0.52814009  0.24678843  1
  O  O52  1  0.82158740  0.30587123  0.24534157  1
  O  O53  1  0.47185695  0.16619843  0.24419433  1
  O  O54  1  0.64526628  0.49075710  0.92091645  1
  O  O55  1  0.85980755  0.35290111  0.92224873  1
  O  O56  1  0.50045215  0.13747546  0.92198154  1
  O  O57  1  0.64284284  0.14754306  0.42242778  1
  O  O58  1  0.49552722  0.35376126  0.42283140  1
  O  O59  1  0.84926845  0.49296851  0.42498507  1
  O  O60  1  0.35529726  0.50437848  0.07607781  1
  O  O61  1  0.15136821  0.64303669  0.07447555  1
  O  O62  1  0.50384527  0.85825614  0.07688057  1
  O  O63  1  0.35679135  0.85133130  0.57675660  1
  O  O64  1  0.50583286  0.64572692  0.57769875  1
  O  O65  1  0.15146815  0.50747243  0.57530161  1
  O  O66  1  0.30800569  0.83586568  0.25339893  1
  O  O67  1  0.52853229  0.69460614  0.25559348  1
  O  O68  1  0.17767804  0.48453012  0.25446223  1
  O  O69  1  0.29966568  0.46913895  0.75458332  1
  O  O70  1  0.16346349  0.68871906  0.75611288  1
  O  O71  1  0.51366704  0.82417087  0.75443986  1
loop_
_geom_bond_atom_site_label_1
_geom_bond_atom_site_label_2
_geom_bond_distance
_geom_bond_site_symmetry_2
Na0 O52 2.365922 1_555
Na0 O67 2.395807 1_545
Na0 O66 2.495459 1_545
Na0 O53 2.504267 1_555
Na0 O31 2.560781 1_545
Na0 O16 2.632843 1_555
Na0 O2 2.883058 1_555
Na0 O9 2.889358 1_545
Na1 O68 2.376260 1_555
Na1 O53 2.401042 1_555
Na1 O51 2.497886 1_555
Na1 O67 2.503741 1_555
Na1 O17 2.577372 1_555
Na1 O32 2.591688 1_555
Na1 O0 2.878974 1_555
Na1 O10 2.887256 1_555
Na2 O51 2.417014 1_555
Na2 O66 2.418346 1_655
Na2 O68 2.479591 1_655
Na2 O52 2.484743 1_555
Na2 O30 2.569423 1_655
Na2 O15 2.574406 1_555
Na2 O11 2.874440 1_655
Na2 O1 2.887502 1_555
Na3 O50 2.396071 1_555
Na3 O71 2.400406 1_555
Na3 O49 2.465025 1_555
Na3 O69 2.559667 1_555
Na3 O14 2.580855 1_555
Na3 O35 2.603112 1_555
Na3 O6 2.848670 1_555
Na3 O4 2.887390 1_555
Na4 O48 2.380874 1_555
Na4 O69 2.383990 1_655
Na4 O70 2.491800 1_655
Na4 O50 2.502555 1_555
Na4 O12 2.558873 1_555
Na4 O33 2.655329 1_655
Na4 O5 2.803438 1_555
Na4 O7 2.871488 1_655
Na5 O49 2.440470 1_555
Na5 O70 2.447220 1_545
Na5 O48 2.451048 1_555
Na5 O71 2.462508 1_545
Na5 O13 2.543038 1_555
Na5 O34 2.626096 1_545
Na5 O8 2.856785 1_545
Na5 O3 2.876272 1_555
Na6 O44 2.397571 1_455
Na6 O65 2.407169 1_555
Na6 O43 2.425570 1_565
Na6 O63 2.503928 1_555
Na6 O29 2.669932 1_555
Na6 O8 2.676414 1_555
Na6 O12 2.770226 1_455
Na6 O22 2.827323 1_455
Na7 O63 2.382623 1_555
Na7 O42 2.385907 1_565
Na7 O64 2.469498 1_555
Na7 O44 2.558121 1_555
Na7 O27 2.623832 1_555
Na7 O6 2.687199 1_555
Na7 O13 2.814903 1_565
Na7 O23 2.831794 1_565
Na8 O45 2.361997 1_555
Na8 O60 2.425048 1_555
Na8 O62 2.508231 1_555
Na8 O46 2.513377 1_565
Na8 O9 2.668574 1_555
Na8 O24 2.675853 1_554
Na8 O17 2.799956 1_555
Na8 O19 2.805608 1_555
Na9 O61 2.393694 1_555
Na9 O46 2.438887 1_455
Na9 O47 2.451601 1_555
Na9 O60 2.503232 1_555
Na9 O10 2.641474 1_555
Na9 O25 2.710138 1_554
Na9 O15 2.762667 1_455
Na9 O20 2.836068 1_455
Na10 O55 2.444557 1_555
Na10 O40 2.444657 1_655
Na10 O54 2.445449 1_555
Na10 O41 2.466019 1_555
Na10 O19 2.537841 1_556
Na10 O4 2.647208 1_555
Na10 O26 2.841991 1_655
Na10 O33 2.870077 1_655
Na11 O56 2.389514 1_555
Na11 O41 2.399573 1_545
Na11 O55 2.457422 1_555
Na11 O39 2.552274 1_655
Na11 O5 2.595071 1_555
Na11 O20 2.653575 1_556
Na11 O24 2.852940 1_545
Na11 O34 2.885432 1_545
Na12 O54 2.386856 1_555
Na12 O39 2.388882 1_555
Na12 O40 2.499925 1_545
Na12 O56 2.515416 1_555
Na12 O18 2.528134 1_556
Na12 O3 2.651305 1_555
Na12 O35 2.810027 1_555
Na12 O25 2.875396 1_555
Na13 O59 2.396721 1_555
Na13 O38 2.432334 1_655
Na13 O37 2.474165 1_545
Na13 O57 2.508443 1_555
Na13 O2 2.664818 1_555
Na13 O23 2.666682 1_555
Na13 O30 2.773717 1_655
Na13 O28 2.820455 1_655
Na14 O36 2.354910 1_545
Na14 O57 2.394834 1_555
Na14 O58 2.469191 1_555
Na14 O38 2.518415 1_555
Na14 O21 2.617365 1_555
Na14 O0 2.668992 1_555
Na14 O29 2.833500 1_545
Na14 O31 2.841253 1_545
Na15 O43 2.492785 1_565
Na15 O37 2.498637 1_455
Na15 O36 2.505121 1_555
Na15 O42 2.513304 1_465
Na15 O38 2.555326 1_565
Na15 O44 2.555417 1_455
Na16 O41 2.469534 1_454
Na16 O45 2.488821 1_455
Na16 O47 2.492398 1_565
Na16 O40 2.510477 1_554
Na16 O39 2.552269 1_564
Na16 O46 2.600481 1_465
Na17 O54 2.443953 1_555
Na17 O48 2.453179 1_555
Na17 O50 2.518426 1_555
Na17 O56 2.531244 1_555
Na17 O55 2.546545 1_555
Na17 O49 2.551584 1_555
Na18 O52 2.481274 1_555
Na18 O51 2.483074 1_555
Na18 O59 2.489898 1_555
Na18 O57 2.505769 1_555
Na18 O58 2.527525 1_555
Na18 O53 2.586700 1_555
Na19 O68 2.450974 1_555
Na19 O66 2.480075 1_555
Na19 O61 2.506399 1_555
Na19 O62 2.544764 1_555
Na19 O60 2.551237 1_555
Na19 O67 2.568644 1_555
Na20 O71 2.484160 1_555
Na20 O65 2.490816 1_555
Na20 O63 2.507362 1_555
Na20 O64 2.511026 1_555
Na20 O69 2.511512 1_555
Na20 O70 2.585627 1_555
Ga0 O5 1.879696 1_565
Ga0 O4 1.963668 1_555
Ga0 O41 1.990334 1_555
Ga0 O3 2.008144 1_665
Ga0 O39 2.119791 1_665
Ga0 O40 2.141454 1_655
Ga1 O13 1.884620 1_555
Ga1 O12 1.901287 1_555
Ga1 O14 1.988899 1_555
Ga1 O48 1.991675 1_555
Ga1 O50 2.164517 1_555
Ga1 O49 2.180022 1_555
Ga2 O15 1.896232 1_555
Ga2 O17 1.919614 1_555
Ga2 O16 1.968975 1_555
Ga2 O52 2.028536 1_555
Ga2 O53 2.158778 1_555
Ga2 O51 2.168816 1_555
Ga3 O18 1.875486 1_556
Ga3 O19 1.896424 1_556
Ga3 O54 1.983374 1_555
Ga3 O20 2.018477 1_556
Ga3 O56 2.163643 1_555
Ga3 O55 2.185023 1_555
Ga4 O30 1.895403 1_555
Ga4 O31 1.911776 1_555
Ga4 O32 1.950538 1_555
Ga4 O68 2.032724 1_555
Ga4 O67 2.163749 1_555
Ga4 O66 2.167124 1_555
Ga5 O35 1.879996 1_555
Ga5 O34 1.961686 1_555
Ga5 O71 1.992079 1_555
Ga5 O33 2.009133 1_555
Ga5 O70 2.130939 1_555
Ga5 O69 2.132012 1_555
O0 P0 1.546308 1_555
O0 Ti0 2.090288 1_445
O1 P1 1.570996 1_555
O1 Ti0 1.917199 1_555
O2 Si0 1.654924 1_555
O2 Ti0 1.891737 1_545
O3 P2 1.550379 1_555
O4 P3 1.555641 1_555
O5 Si1 1.632070 1_555
O6 Si1 1.662723 1_565
O6 Ti1 1.907027 1_665
O7 P2 1.568804 1_555
O7 Ti1 1.928421 1_555
O8 P3 1.555169 1_455
O8 Ti1 2.059227 1_565
O9 P1 1.545095 1_555
O9 Ti2 2.082321 1_665
O10 Si0 1.649483 1_455
O10 Ti2 1.907522 1_555
O11 P0 1.568725 1_565
O11 Ti2 1.910598 1_565
O12 Si2 1.621561 1_555
O13 Si3 1.620322 1_555
O14 P4 1.542589 1_555
O15 Si4 1.632036 1_555
O16 P5 1.541072 1_555
O17 Si5 1.627586 1_555
O18 Si5 1.615068 1_555
O19 Si4 1.630005 1_555
O20 P5 1.550974 1_555
O21 Si3 1.638447 1_555
O21 Ti3 1.899414 1_555
O22 P4 1.551536 1_555
O22 Ti3 1.988271 1_555
O23 Si2 1.651518 1_555
O23 Ti3 1.891036 1_555
O24 Si6 1.661052 1_555
O24 Ti4 1.911416 1_556
O25 P6 1.562394 1_555
O25 Ti4 2.007884 1_556
O26 P7 1.555950 1_555
O26 Ti4 1.989228 1_556
O27 Si7 1.634632 1_555
O27 Ti5 1.896550 1_555
O28 P8 1.548048 1_555
O28 Ti5 2.004085 1_555
O29 Si8 1.656843 1_555
O29 Ti5 1.881060 1_555
O30 Si8 1.624961 1_555
O31 Si7 1.621560 1_555
O32 P8 1.541916 1_555
O33 P6 1.551835 1_555
O34 P7 1.554950 1_555
O35 Si6 1.631942 1_555
O36 Si8 1.635310 1_555
O36 Ti0 1.955494 1_455
O37 Si7 1.650705 1_555
O37 Ti0 1.894205 1_555
O38 P8 1.565236 1_555
O38 Ti0 2.117636 1_445
O39 P6 1.554184 1_555
O40 P7 1.551244 1_555
O41 Si6 1.648040 1_555
O42 Si2 1.646153 1_555
O42 Ti1 1.906085 1_655
O43 Si3 1.638643 1_555
O43 Ti1 1.960144 1_555
O44 P4 1.570640 1_555
O44 Ti1 2.105967 1_665
O45 Si4 1.642891 1_555
O45 Ti2 1.938793 1_665
O46 P5 1.558963 1_555
O46 Ti2 2.129218 1_655
O47 Si5 1.652624 1_555
O47 Ti2 1.880861 1_555
O48 Si1 1.641664 1_555
O49 P2 1.540560 1_555
O50 P3 1.547264 1_555
O51 P1 1.545454 1_555
O52 Si0 1.639671 1_555
O53 P0 1.540873 1_555
O54 Si6 1.641464 1_555
O55 P6 1.547235 1_655
O56 P7 1.546318 1_545
O57 Si7 1.656545 1_545
O57 Ti3 1.993211 1_555
O58 P8 1.545426 1_555
O58 Ti3 2.084278 1_555
O59 Si8 1.631711 1_655
O59 Ti3 1.962422 1_555
O60 Si5 1.672840 1_555
O60 Ti4 1.956474 1_555
O61 Si4 1.646446 1_455
O61 Ti4 1.935814 1_555
O62 P5 1.556726 1_565
O62 Ti4 2.014245 1_555
O63 Si3 1.662603 1_565
O63 Ti5 1.968344 1_555
O64 P4 1.543470 1_555
O64 Ti5 2.111701 1_555
O65 Si2 1.625495 1_455
O65 Ti5 1.959897 1_555
O66 P0 1.545634 1_565
O67 P1 1.541370 1_555
O68 Si0 1.637881 1_455
O69 P2 1.550159 1_555
O70 P3 1.554214 1_455
O71 Si1 1.646942 1_565
