# generated using pymatgen
data_P2W3O13
_symmetry_space_group_name_H-M   'P 1'
_cell_length_a   5.41311700
_cell_length_b   12.32293900
_cell_length_c   16.00259600
_cell_angle_alpha   90.00000000
_cell_angle_beta   90.00000000
_cell_angle_gamma   90.00000000
_symmetry_Int_Tables_number   1
_chemical_formula_structural   P2W3O13
_chemical_formula_sum   'P8 W12 O52'
_cell_volume   1067.46133696
_cell_formula_units_Z   4
loop_
 _symmetry_equiv_pos_site_id
 _symmetry_equiv_pos_as_xyz
  1  'x, y, z'
loop_
 _atom_site_type_symbol
 _atom_site_label
 _atom_site_symmetry_multiplicity
 _atom_site_fract_x
 _atom_site_fract_y
 _atom_site_fract_z
 _atom_site_occupancy
  P  P0  1  0.25000000  0.69848700  0.06077400  1
  P  P1  1  0.75000000  0.30151300  0.93922600  1
  P  P2  1  0.25000000  0.19848700  0.43922600  1
  P  P3  1  0.75000000  0.80151300  0.56077400  1
  P  P4  1  0.75000000  0.51324100  0.84278500  1
  P  P5  1  0.25000000  0.48675900  0.15721500  1
  P  P6  1  0.75000000  0.01324100  0.65721500  1
  P  P7  1  0.25000000  0.98675900  0.34278500  1
  W  W0  1  0.25000000  0.63245200  0.60483800  1
  W  W1  1  0.75000000  0.86754800  0.10483800  1
  W  W2  1  0.25000000  0.13245200  0.89516200  1
  W  W3  1  0.75000000  0.36754800  0.39516200  1
  W  W4  1  0.25000000  0.58857300  0.36618800  1
  W  W5  1  0.75000000  0.41142700  0.63381200  1
  W  W6  1  0.25000000  0.08857300  0.13381200  1
  W  W7  1  0.75000000  0.91142700  0.86618800  1
  W  W8  1  0.75000000  0.80429500  0.33958700  1
  W  W9  1  0.25000000  0.19570500  0.66041300  1
  W  W10  1  0.75000000  0.30429500  0.16041300  1
  W  W11  1  0.25000000  0.69570500  0.83958700  1
  O  O0  1  0.75000000  0.95137400  0.73942000  1
  O  O1  1  0.25000000  0.04862600  0.26058000  1
  O  O2  1  0.75000000  0.45137400  0.76058000  1
  O  O3  1  0.25000000  0.54862600  0.23942000  1
  O  O4  1  0.25000000  0.66989900  0.72658000  1
  O  O5  1  0.75000000  0.33010100  0.27342000  1
  O  O6  1  0.25000000  0.16989900  0.77342000  1
  O  O7  1  0.75000000  0.83010100  0.22658000  1
  O  O8  1  0.50133800  0.31069200  0.66007200  1
  O  O9  1  0.00133800  0.68930800  0.33992800  1
  O  O10  1  0.99866200  0.81069200  0.83992800  1
  O  O11  1  0.49866200  0.18930800  0.16007200  1
  O  O12  1  0.49866200  0.68930800  0.33992800  1
  O  O13  1  0.99866200  0.31069200  0.66007200  1
  O  O14  1  0.00133800  0.18930800  0.16007200  1
  O  O15  1  0.50133800  0.81069200  0.83992800  1
  O  O16  1  0.51492700  0.07763000  0.64305600  1
  O  O17  1  0.48507300  0.92237000  0.35694400  1
  O  O18  1  0.98507300  0.57763000  0.85694400  1
  O  O19  1  0.48507300  0.42237000  0.14305600  1
  O  O20  1  0.75000000  0.87787100  0.98018400  1
  O  O21  1  0.25000000  0.12212900  0.01981600  1
  O  O22  1  0.75000000  0.37787100  0.51981600  1
  O  O23  1  0.25000000  0.62212900  0.48018400  1
  O  O24  1  0.25000000  0.70581500  0.96594100  1
  O  O25  1  0.75000000  0.29418500  0.03405900  1
  O  O26  1  0.25000000  0.20581500  0.53405900  1
  O  O27  1  0.75000000  0.79418500  0.46594100  1
  O  O28  1  0.25000000  0.57238300  0.08098100  1
  O  O29  1  0.75000000  0.42761700  0.91901900  1
  O  O30  1  0.25000000  0.07238300  0.41901900  1
  O  O31  1  0.75000000  0.92761700  0.58098100  1
  O  O32  1  0.48654500  0.74607700  0.09758500  1
  O  O33  1  0.98654500  0.25392300  0.90241500  1
  O  O34  1  0.01345500  0.24607700  0.40241500  1
  O  O35  1  0.51345500  0.75392300  0.59758500  1
  O  O36  1  0.51345500  0.25392300  0.90241500  1
  O  O37  1  0.01345500  0.74607700  0.09758500  1
  O  O38  1  0.98654500  0.75392300  0.59758500  1
  O  O39  1  0.48654500  0.24607700  0.40241500  1
  O  O40  1  0.49877100  0.97402600  0.11804700  1
  O  O41  1  0.99877100  0.02597400  0.88195300  1
  O  O42  1  0.00122900  0.47402600  0.38195300  1
  O  O43  1  0.50122900  0.52597400  0.61804700  1
  O  O44  1  0.50122900  0.02597400  0.88195300  1
  O  O45  1  0.00122900  0.97402600  0.11804700  1
  O  O46  1  0.99877100  0.52597400  0.61804700  1
  O  O47  1  0.49877100  0.47402600  0.38195300  1
  O  O48  1  0.51492700  0.57763000  0.85694400  1
  O  O49  1  0.01492700  0.42237000  0.14305600  1
  O  O50  1  0.98507300  0.07763000  0.64305600  1
  O  O51  1  0.01492700  0.92237000  0.35694400  1
loop_
_geom_bond_atom_site_label_1
_geom_bond_atom_site_label_2
_geom_bond_distance
_geom_bond_site_symmetry_2
O0 P6 1.520444 1_565
O0 W7 2.087489 1_555
O1 P7 1.520444 1_545
O1 W6 2.087489 1_555
O2 P4 1.520444 1_555
O2 W5 2.087489 1_555
O3 P5 1.520444 1_555
O3 W4 2.087489 1_555
O4 W11 1.836153 1_555
O4 W0 2.002094 1_555
O5 W10 1.836153 1_555
O5 W3 2.002094 1_555
O6 W9 1.836153 1_555
O6 W2 2.002094 1_555
O7 W8 1.836153 1_555
O7 W1 2.002094 1_555
O8 W5 1.878659 1_555
O8 W9 1.964402 1_555
O9 W4 1.878659 1_555
O9 W8 1.964402 1_455
O10 W7 1.878659 1_555
O10 W11 1.964402 1_655
O11 W6 1.878659 1_555
O11 W10 1.964402 1_555
O12 W4 1.878659 1_555
O12 W8 1.964402 1_555
O13 W5 1.878659 1_555
O13 W9 1.964402 1_655
O14 W6 1.878659 1_555
O14 W10 1.964402 1_455
O15 W7 1.878659 1_555
O15 W11 1.964402 1_555
O16 P6 1.516615 1_555
O16 W9 2.061759 1_555
O17 P7 1.516615 1_555
O17 W8 2.061759 1_555
O18 P4 1.516615 1_555
O18 W11 2.061759 1_655
O19 P5 1.516615 1_555
O19 W10 2.061759 1_555
O20 W7 1.870511 1_555
O20 W1 1.998840 1_556
O21 W6 1.870511 1_555
O21 W2 1.998840 1_554
O22 W5 1.870511 1_555
O22 W3 1.998840 1_555
O23 W4 1.870511 1_555
O23 W0 1.998840 1_555
O24 P0 1.520259 1_556
O24 W11 2.025827 1_555
O25 P1 1.520259 1_554
O25 W10 2.025827 1_555
O26 P2 1.520259 1_555
O26 W9 2.025827 1_555
O27 P3 1.520259 1_555
O27 W8 2.025827 1_555
O28 P0 1.587260 1_555
O28 P5 1.612941 1_555
O29 P1 1.587260 1_555
O29 P4 1.612941 1_555
O30 P2 1.587260 1_555
O30 P7 1.612941 1_545
O31 P3 1.587260 1_555
O31 P6 1.612941 1_565
O32 P0 1.526587 1_555
O32 W1 2.070729 1_555
O33 P1 1.526587 1_555
O33 W2 2.070729 1_655
O34 P2 1.526587 1_555
O34 W3 2.070729 1_455
O35 P3 1.526587 1_555
O35 W0 2.070729 1_555
O36 P1 1.526587 1_555
O36 W2 2.070729 1_555
O37 P0 1.526587 1_555
O37 W1 2.070729 1_455
O38 P3 1.526587 1_555
O38 W0 2.070729 1_655
O39 P2 1.526587 1_555
O39 W3 2.070729 1_555
O40 W1 1.901515 1_555
O40 W6 1.967114 1_565
O41 W2 1.901515 1_655
O41 W7 1.967114 1_545
O42 W3 1.901515 1_455
O42 W4 1.967114 1_555
O43 W0 1.901515 1_555
O43 W5 1.967114 1_555
O44 W2 1.901515 1_555
O44 W7 1.967114 1_545
O45 W1 1.901515 1_455
O45 W6 1.967114 1_565
O46 W0 1.901515 1_655
O46 W5 1.967114 1_555
O47 W3 1.901515 1_555
O47 W4 1.967114 1_555
O48 P4 1.516615 1_555
O48 W11 2.061759 1_555
O49 P5 1.516615 1_555
O49 W10 2.061759 1_455
O50 P6 1.516615 1_555
O50 W9 2.061759 1_655
O51 P7 1.516615 1_555
O51 W8 2.061759 1_455
