# generated using pymatgen
data_Ta11(FeSe4)2
_symmetry_space_group_name_H-M   'P 1'
_cell_length_a   3.41803505
_cell_length_b   12.15084150
_cell_length_c   19.57328441
_cell_angle_alpha   90.00000000
_cell_angle_beta   90.00000000
_cell_angle_gamma   90.00000000
_symmetry_Int_Tables_number   1
_chemical_formula_structural   Ta11(FeSe4)2
_chemical_formula_sum   'Ta22 Fe4 Se16'
_cell_volume   812.91768989
_cell_formula_units_Z   2
loop_
 _symmetry_equiv_pos_site_id
 _symmetry_equiv_pos_as_xyz
  1  'x, y, z'
loop_
 _atom_site_type_symbol
 _atom_site_label
 _atom_site_symmetry_multiplicity
 _atom_site_fract_x
 _atom_site_fract_y
 _atom_site_fract_z
 _atom_site_occupancy
  Ta  Ta0  1  0.50000000  0.82107700  0.05331190  1
  Ta  Ta1  1  0.50000000  0.17893030  0.94668866  1
  Ta  Ta2  1  -0.00000000  0.67893030  0.55331134  1
  Ta  Ta3  1  0.00000000  0.32107700  0.44668810  1
  Ta  Ta4  1  0.50000000  0.44724131  0.74363636  1
  Ta  Ta5  1  0.50000000  0.55277727  0.25636754  1
  Ta  Ta6  1  -0.00000000  0.94724131  0.75636364  1
  Ta  Ta7  1  -0.00000000  0.05277727  0.24363246  1
  Ta  Ta8  1  0.50000000  0.06205980  0.11629944  1
  Ta  Ta9  1  0.50000000  0.93791965  0.88372300  1
  Ta  Ta10  1  -0.00000000  0.56205980  0.38370056  1
  Ta  Ta11  1  -0.00000000  0.43791965  0.61627700  1
  Ta  Ta12  1  0.50000000  0.17214717  0.35376302  1
  Ta  Ta13  1  0.50000000  0.82787317  0.64623151  1
  Ta  Ta14  1  -0.00000000  0.67214717  0.14623698  1
  Ta  Ta15  1  -0.00000000  0.32787317  0.85376849  1
  Ta  Ta16  1  0.50000000  0.15144721  0.78883989  1
  Ta  Ta17  1  0.50000000  0.84855738  0.21116790  1
  Ta  Ta18  1  0.00000000  0.65144721  0.71116011  1
  Ta  Ta19  1  -0.00000000  0.34855738  0.28883210  1
  Ta  Ta20  1  0.50000000  0.49998950  0.49999717  1
  Ta  Ta21  1  -0.00000000  -0.00001050  0.00000283  1
  Fe  Fe0  1  0.00000000  0.09384569  0.87417768  1
  Fe  Fe1  1  0.00000000  0.90617059  0.12585095  1
  Fe  Fe2  1  0.50000000  0.59384569  0.62582232  1
  Fe  Fe3  1  0.50000000  0.40617059  0.37414905  1
  Se  Se0  1  0.50000000  0.29599333  0.55678553  1
  Se  Se1  1  0.50000000  0.70396309  0.44320414  1
  Se  Se2  1  -0.00000000  0.79599333  0.94321447  1
  Se  Se3  1  -0.00000000  0.20396309  0.05679586  1
  Se  Se4  1  0.50000000  0.04155247  0.67406728  1
  Se  Se5  1  0.50000000  0.95846483  0.32592648  1
  Se  Se6  1  -0.00000000  0.54155247  0.82593272  1
  Se  Se7  1  -0.00000000  0.45846483  0.17407352  1
  Se  Se8  1  0.50000000  0.38878269  0.94669472  1
  Se  Se9  1  0.50000000  0.61120692  0.05332623  1
  Se  Se10  1  -0.00000000  0.88878269  0.55330528  1
  Se  Se11  1  -0.00000000  0.11120692  0.44667377  1
  Se  Se12  1  -0.00000000  0.28477008  0.71706806  1
  Se  Se13  1  -0.00000000  0.71522855  0.28293346  1
  Se  Se14  1  0.50000000  0.78477008  0.78293194  1
  Se  Se15  1  0.50000000  0.21522855  0.21706654  1
loop_
_geom_bond_atom_site_label_1
_geom_bond_atom_site_label_2
_geom_bond_distance
_geom_bond_site_symmetry_2
Fe0 Ta1 2.450293 1_555
Fe0 Ta1 2.450293 1_455
Fe0 Ta16 2.490110 1_455
Fe0 Ta16 2.490110 1_555
Fe0 Ta9 2.558375 1_545
Fe0 Ta9 2.558375 1_445
Fe0 Ta21 2.714042 1_556
Fe0 Ta15 2.871553 1_555
Fe0 Ta6 2.913921 1_545
Fe1 Ta0 2.450657 1_555
Fe1 Ta0 2.450657 1_455
Fe1 Ta17 2.489877 1_555
Fe1 Ta17 2.489877 1_455
Fe1 Ta8 2.558052 1_465
Fe1 Ta8 2.558052 1_565
Fe1 Ta21 2.714260 1_565
Fe1 Ta14 2.871441 1_555
Fe1 Ta7 2.913435 1_565
Fe2 Ta2 2.450293 1_555
Fe2 Ta2 2.450293 1_655
Fe2 Ta18 2.490110 1_655
Fe2 Ta18 2.490110 1_555
Fe2 Ta11 2.558375 1_655
Fe2 Ta11 2.558375 1_555
Fe2 Ta20 2.714042 1_555
Fe2 Ta13 2.871553 1_555
Fe2 Ta4 2.913921 1_555
Fe3 Ta3 2.450657 1_655
Fe3 Ta3 2.450657 1_555
Fe3 Ta19 2.489877 1_555
Fe3 Ta19 2.489877 1_655
Fe3 Ta10 2.558052 1_555
Fe3 Ta10 2.558052 1_655
Fe3 Ta20 2.714260 1_555
Fe3 Ta12 2.871441 1_555
Fe3 Ta5 2.913435 1_555
Se0 Ta11 2.692704 1_655
Se0 Ta11 2.692704 1_555
Se0 Ta20 2.716540 1_555
Se0 Ta3 2.767223 1_555
Se0 Ta3 2.767223 1_655
Se1 Ta10 2.692627 1_555
Se1 Ta10 2.692627 1_655
Se1 Ta20 2.716327 1_555
Se1 Ta2 2.767304 1_655
Se1 Ta2 2.767304 1_555
Se2 Ta9 2.692704 1_455
Se2 Ta9 2.692704 1_555
Se2 Ta21 2.716540 1_566
Se2 Ta0 2.767223 1_556
Se2 Ta0 2.767223 1_456
Se3 Ta8 2.692627 1_555
Se3 Ta8 2.692627 1_455
Se3 Ta21 2.716327 1_555
Se3 Ta1 2.767304 1_454
Se3 Ta1 2.767304 1_554
Se4 Ta6 2.613173 1_545
Se4 Ta6 2.613173 1_645
Se4 Ta16 2.613373 1_555
Se4 Ta13 2.652933 1_545
Se5 Ta7 2.613152 1_565
Se5 Ta7 2.613152 1_665
Se5 Ta17 2.613216 1_555
Se5 Ta12 2.652972 1_565
Se6 Ta4 2.613173 1_555
Se6 Ta4 2.613173 1_455
Se6 Ta18 2.613373 1_555
Se6 Ta15 2.652933 1_555
Se7 Ta5 2.613152 1_555
Se7 Ta5 2.613152 1_455
Se7 Ta19 2.613216 1_555
Se7 Ta14 2.652972 1_555
Se8 Ta1 2.549883 1_555
Se8 Ta15 2.603226 1_655
Se8 Ta15 2.603226 1_555
Se9 Ta0 2.550098 1_555
Se9 Ta14 2.603120 1_655
Se9 Ta14 2.603120 1_555
Se10 Ta2 2.549883 1_555
Se10 Ta13 2.603226 1_455
Se10 Ta13 2.603226 1_555
Se11 Ta3 2.550098 1_555
Se11 Ta12 2.603120 1_555
Se11 Ta12 2.603120 1_455
Se12 Ta4 2.662421 1_455
Se12 Ta4 2.662421 1_555
Se12 Ta11 2.711996 1_555
Se12 Ta15 2.726453 1_555
Se12 Ta16 2.742004 1_455
Se12 Ta16 2.742004 1_555
Se13 Ta5 2.662232 1_455
Se13 Ta5 2.662232 1_555
Se13 Ta10 2.711815 1_555
Se13 Ta14 2.726327 1_555
Se13 Ta17 2.741984 1_455
Se13 Ta17 2.741984 1_555
Se14 Ta6 2.662421 1_555
Se14 Ta6 2.662421 1_655
Se14 Ta9 2.711996 1_555
Se14 Ta13 2.726453 1_555
Se14 Ta18 2.742004 1_555
Se14 Ta18 2.742004 1_655
Se15 Ta7 2.662232 1_555
Se15 Ta7 2.662232 1_655
Se15 Ta8 2.711815 1_555
Se15 Ta12 2.726327 1_555
Se15 Ta19 2.741984 1_555
Se15 Ta19 2.741984 1_655
