# generated using pymatgen
data_Na3SiSn4P5O24
_symmetry_space_group_name_H-M   'P 1'
_cell_length_a   8.80697056
_cell_length_b   8.78619956
_cell_length_c   22.86590012
_cell_angle_alpha   90.13222900
_cell_angle_beta   89.76206665
_cell_angle_gamma   119.95250324
_symmetry_Int_Tables_number   1
_chemical_formula_structural   Na3SiSn4P5O24
_chemical_formula_sum   'Na9 Si3 Sn12 P15 O72'
_cell_volume   1533.02924297
_cell_formula_units_Z   3
loop_
 _symmetry_equiv_pos_site_id
 _symmetry_equiv_pos_as_xyz
  1  'x, y, z'
loop_
 _atom_site_type_symbol
 _atom_site_label
 _atom_site_symmetry_multiplicity
 _atom_site_fract_x
 _atom_site_fract_y
 _atom_site_fract_z
 _atom_site_occupancy
  Na  Na0  1  0.36833044  0.00072197  0.74911902  1
  Na  Na1  1  0.66458490  0.96916938  0.58492357  1
  Na  Na2  1  0.66981592  0.69669744  0.08271833  1
  Na  Na3  1  0.01009695  0.00104457  0.49980701  1
  Na  Na4  1  0.00631439  0.00340407  0.99963938  1
  Na  Na5  1  0.67391890  0.33734962  0.83369267  1
  Na  Na6  1  0.66669478  0.33335978  0.33330731  1
  Na  Na7  1  0.32271201  0.66544962  0.16694290  1
  Na  Na8  1  0.32960870  0.65897648  0.66659082  1
  Si  Si0  1  0.71090753  0.00049875  0.74974214  1
  Si  Si1  1  0.37143697  0.04222121  0.58309489  1
  Si  Si2  1  0.96003322  0.62368801  0.08375928  1
  Sn  Sn0  1  0.00074736  0.00044662  0.35235011  1
  Sn  Sn1  1  0.99595286  0.00009306  0.85293470  1
  Sn  Sn2  1  0.00263675  0.99936920  0.64797232  1
  Sn  Sn3  1  0.00498402  0.00168776  0.14843849  1
  Sn  Sn4  1  0.66979127  0.33327052  0.68523249  1
  Sn  Sn5  1  0.66991538  0.33394714  0.18624949  1
  Sn  Sn6  1  0.66945327  0.33551109  0.98091135  1
  Sn  Sn7  1  0.66288586  0.33226448  0.48017339  1
  Sn  Sn8  1  0.32577525  0.66627165  0.01841125  1
  Sn  Sn9  1  0.32917673  0.66555429  0.51806000  1
  Sn  Sn10  1  0.33253532  0.66614848  0.31431914  1
  Sn  Sn11  1  0.33690954  0.66523317  0.81505410  1
  P  P0  1  0.29306358  0.00069204  0.25040910  1
  P  P1  1  0.70744708  0.70820830  0.25024015  1
  P  P2  1  0.99975139  0.29073096  0.25047051  1
  P  P3  1  0.28995726  0.29238972  0.75039034  1
  P  P4  1  0.99738469  0.70653916  0.75102110  1
  P  P5  1  0.95956209  0.33615174  0.58259493  1
  P  P6  1  0.66648902  0.62219671  0.58288132  1
  P  P7  1  0.66675115  0.04365112  0.08335198  1
  P  P8  1  0.37541109  0.33117282  0.08302231  1
  P  P9  1  0.62482929  0.66536617  0.91776555  1
  P  P10  1  0.04214142  0.37471596  0.91626266  1
  P  P11  1  0.33333611  0.96124646  0.91600287  1
  P  P12  1  0.62584658  0.95841631  0.41641303  1
  P  P13  1  0.33345540  0.37581701  0.41616888  1
  P  P14  1  0.04038257  0.66606628  0.41625242  1
  O  O0  1  0.21387265  0.03495108  0.30555842  1
  O  O1  1  0.82274337  0.79008431  0.30448977  1
  O  O2  1  0.96720753  0.17770896  0.30546353  1
  O  O3  1  0.21559055  0.17295596  0.80479882  1
  O  O4  1  0.96744211  0.78729474  0.80630271  1
  O  O5  1  0.82895366  0.03725964  0.80737475  1
  O  O6  1  0.78617340  0.96341444  0.68912351  1
  O  O7  1  0.17966729  0.21395999  0.69508942  1
  O  O8  1  0.04229949  0.82456898  0.69629574  1
  O  O9  1  0.78329348  0.81800413  0.19362750  1
  O  O10  1  0.03431772  0.21259130  0.19485610  1
  O  O11  1  0.18085547  0.96600194  0.19527269  1
  O  O12  1  0.88397332  0.37241510  0.63816992  1
  O  O13  1  0.49224825  0.11662269  0.64229421  1
  O  O14  1  0.63383991  0.51252733  0.63859779  1
  O  O15  1  0.87588346  0.50620162  0.14185975  1
  O  O16  1  0.62790650  0.11736918  0.13860718  1
  O  O17  1  0.49066285  0.37057177  0.13798820  1
  O  O18  1  0.45214313  0.29572891  0.02768601  1
  O  O19  1  0.83313277  0.54715552  0.02653392  1
  O  O20  1  0.69938625  0.15341610  0.02788659  1
  O  O21  1  0.45824211  0.16077051  0.52551095  1
  O  O22  1  0.70342199  0.54668479  0.52771858  1
  O  O23  1  0.84255783  0.29698713  0.52821023  1
  O  O24  1  0.54651819  0.69836435  0.97422306  1
  O  O25  1  0.15508716  0.45345871  0.97131212  1
  O  O26  1  0.30006380  0.84709744  0.97060237  1
  O  O27  1  0.55009546  0.84880531  0.47302718  1
  O  O28  1  0.29906865  0.45400022  0.47176091  1
  O  O29  1  0.15264806  0.70075527  0.47136800  1
  O  O30  1  0.11966745  0.63184570  0.36109463  1
  O  O31  1  0.51053786  0.87658370  0.36218611  1
  O  O32  1  0.36621579  0.48893293  0.36118917  1
  O  O33  1  0.12163360  0.48878398  0.86115509  1
  O  O34  1  0.36548679  0.88360321  0.85950779  1
  O  O35  1  0.51139587  0.63288169  0.86313914  1
  O  O36  1  0.02271230  0.83233047  0.41029717  1
  O  O37  1  0.80891537  0.97500567  0.41044929  1
  O  O38  1  0.16751026  0.19185108  0.41062954  1
  O  O39  1  0.02721842  0.19207099  0.91171746  1
  O  O40  1  0.16718024  0.97810929  0.91026083  1
  O  O41  1  0.80821260  0.83075989  0.91257184  1
  O  O42  1  0.96856214  0.16485965  0.58850206  1
  O  O43  1  0.17840899  0.02105975  0.58854882  1
  O  O44  1  0.82686049  0.81030022  0.58824839  1
  O  O45  1  0.96944146  0.81572854  0.08944682  1
  O  O46  1  0.83020473  0.02135843  0.08999401  1
  O  O47  1  0.19086258  0.17078827  0.08940495  1
  O  O48  1  0.68223568  0.17138441  0.74564261  1
  O  O49  1  0.47322288  0.30895445  0.74420241  1
  O  O50  1  0.83237233  0.52600808  0.74409638  1
  O  O51  1  0.68736367  0.52352339  0.24515046  1
  O  O52  1  0.83299083  0.30635296  0.24563636  1
  O  O53  1  0.47639235  0.16654305  0.24402421  1
  O  O54  1  0.63951842  0.49770315  0.92191179  1
  O  O55  1  0.85823291  0.35581549  0.92159460  1
  O  O56  1  0.49974147  0.14379599  0.92239785  1
  O  O57  1  0.64566100  0.14299608  0.42152199  1
  O  O58  1  0.50010140  0.35993530  0.42095686  1
  O  O59  1  0.85706566  0.50025436  0.42252148  1
  O  O60  1  0.36744115  0.50360051  0.07649133  1
  O  O61  1  0.15349973  0.64512829  0.07860170  1
  O  O62  1  0.50778764  0.85414242  0.07662242  1
  O  O63  1  0.36415290  0.85125230  0.57731845  1
  O  O64  1  0.50273310  0.64443151  0.57672904  1
  O  O65  1  0.14357112  0.49745864  0.57680984  1
  O  O66  1  0.31078413  0.83448920  0.25636990  1
  O  O67  1  0.52432500  0.69169674  0.25623226  1
  O  O68  1  0.16578461  0.47472048  0.25600775  1
  O  O69  1  0.30601905  0.47397489  0.75657379  1
  O  O70  1  0.16557645  0.69201210  0.75718637  1
  O  O71  1  0.51071017  0.83017221  0.75542185  1
loop_
_geom_bond_atom_site_label_1
_geom_bond_atom_site_label_2
_geom_bond_distance
_geom_bond_site_symmetry_2
Na0 O49 2.388027 1_555
Na0 O71 2.391103 1_545
Na0 O70 2.396408 1_545
Na0 O48 2.399334 1_555
Na0 O13 2.659723 1_555
Na0 O34 2.723331 1_545
Na0 O8 2.771549 1_545
Na0 O3 2.780300 1_555
Na1 O63 2.317338 1_555
Na1 O42 2.352598 1_565
Na1 O44 2.447469 1_555
Na1 O64 2.479176 1_555
Na1 O6 2.627155 1_555
Na1 O27 2.761469 1_555
Na1 O13 2.764437 1_565
Na1 O23 2.815441 1_565
Na2 O45 2.308143 1_555
Na2 O60 2.341107 1_555
Na2 O62 2.437835 1_555
Na2 O46 2.477123 1_565
Na2 O19 2.703623 1_555
Na2 O24 2.715207 1_554
Na2 O9 2.740654 1_555
Na2 O17 2.789765 1_555
Na3 O43 2.471583 1_555
Na3 O36 2.558782 1_545
Na3 O38 2.561635 1_555
Na3 O44 2.605854 1_445
Na3 O42 2.612410 1_455
Na3 O37 2.643785 1_445
Na4 O45 2.552815 1_446
Na4 O40 2.553744 1_545
Na4 O39 2.555598 1_555
Na4 O47 2.577686 1_556
Na4 O41 2.584699 1_445
Na4 O46 2.629674 1_456
Na5 O48 2.505425 1_555
Na5 O55 2.542399 1_555
Na5 O54 2.560069 1_555
Na5 O50 2.564035 1_555
Na5 O56 2.596992 1_555
Na5 O49 2.638365 1_555
Na6 O58 2.557229 1_555
Na6 O52 2.557425 1_555
Na6 O51 2.568452 1_555
Na6 O57 2.569751 1_555
Na6 O59 2.585009 1_555
Na6 O53 2.585868 1_555
Na7 O61 2.467947 1_555
Na7 O66 2.556994 1_555
Na7 O68 2.558424 1_555
Na7 O62 2.638199 1_555
Na7 O67 2.644513 1_555
Na7 O60 2.644635 1_555
Na8 O71 2.559168 1_555
Na8 O69 2.567769 1_555
Na8 O65 2.570127 1_555
Na8 O63 2.571178 1_555
Na8 O64 2.594314 1_555
Na8 O70 2.617937 1_555
O0 P0 1.538769 1_555
O0 Sn0 2.043613 1_555
O1 P1 1.537611 1_555
O1 Sn0 2.045232 1_665
O2 P2 1.538845 1_555
O2 Sn0 2.032750 1_655
O3 P3 1.546246 1_555
O3 Sn1 2.077569 1_455
O4 P4 1.533221 1_555
O4 Sn1 2.054257 1_565
O5 Si0 1.611183 1_555
O5 Sn1 1.961870 1_555
O6 Si0 1.634864 1_565
O6 Sn2 2.001152 1_655
O7 P3 1.534633 1_555
O7 Sn2 2.053197 1_545
O8 P4 1.545971 1_455
O8 Sn2 2.061181 1_555
O9 P1 1.551665 1_555
O9 Sn3 2.080562 1_665
O10 P2 1.543579 1_455
O10 Sn3 2.035239 1_555
O11 P0 1.538423 1_565
O11 Sn3 2.035804 1_565
O12 P5 1.537027 1_555
O12 Sn4 2.042418 1_555
O13 Si1 1.644716 1_555
O13 Sn4 2.016002 1_555
O14 P6 1.536297 1_555
O14 Sn4 2.055830 1_555
O15 Si2 1.616786 1_555
O15 Sn5 1.965105 1_555
O16 P7 1.531920 1_555
O16 Sn5 2.058016 1_555
O17 P8 1.545147 1_555
O17 Sn5 2.082530 1_555
O18 P8 1.534895 1_555
O18 Sn6 2.060493 1_554
O19 Si2 1.634337 1_555
O19 Sn6 1.987708 1_554
O20 P7 1.532003 1_555
O20 Sn6 2.052914 1_554
O21 Si1 1.614285 1_555
O21 Sn7 1.968068 1_555
O22 P6 1.531404 1_555
O22 Sn7 2.044693 1_555
O23 P5 1.543134 1_555
O23 Sn7 2.076586 1_555
O24 P9 1.554615 1_555
O24 Sn8 2.077852 1_556
O25 P10 1.540048 1_555
O25 Sn8 2.028104 1_556
O26 P11 1.536128 1_555
O26 Sn8 2.034664 1_556
O27 P12 1.550932 1_555
O27 Sn9 2.073892 1_555
O28 P13 1.542709 1_555
O28 Sn9 2.036457 1_555
O29 P14 1.538309 1_555
O29 Sn9 2.036673 1_555
O30 P14 1.539238 1_555
O30 Sn10 2.042059 1_555
O31 P12 1.537187 1_555
O31 Sn10 2.045642 1_555
O32 P13 1.538789 1_555
O32 Sn10 2.032861 1_555
O33 P10 1.542807 1_555
O33 Sn11 2.040862 1_555
O34 P11 1.549229 1_555
O34 Sn11 2.070914 1_555
O35 P9 1.537425 1_555
O35 Sn11 2.025536 1_555
O36 P14 1.550771 1_555
O36 Sn0 2.066736 1_565
O37 P12 1.550127 1_555
O37 Sn0 2.067547 1_665
O38 P13 1.551222 1_555
O38 Sn0 2.073788 1_555
O39 P10 1.546626 1_555
O39 Sn1 2.063116 1_455
O40 P11 1.548776 1_555
O40 Sn1 2.082794 1_465
O41 P9 1.545912 1_555
O41 Sn1 2.083535 1_565
O42 P5 1.552327 1_555
O42 Sn2 2.121714 1_645
O43 Si1 1.619511 1_555
O43 Sn2 1.992004 1_545
O44 P6 1.552723 1_555
O44 Sn2 2.111915 1_655
O45 Si2 1.652347 1_555
O45 Sn3 2.017346 1_665
O46 P7 1.554730 1_555
O46 Sn3 2.113994 1_655
O47 P8 1.536434 1_555
O47 Sn3 2.066786 1_555
O48 Si0 1.645081 1_555
O48 Sn4 2.027115 1_555
O49 P3 1.552378 1_555
O49 Sn4 2.115041 1_555
O50 P4 1.533602 1_555
O50 Sn4 2.076964 1_555
O51 P1 1.546162 1_555
O51 Sn5 2.085121 1_555
O52 P2 1.546195 1_555
O52 Sn5 2.081072 1_555
O53 P0 1.549592 1_555
O53 Sn5 2.073755 1_555
O54 P9 1.544945 1_555
O54 Sn6 2.075396 1_555
O55 P10 1.547794 1_655
O55 Sn6 2.078902 1_555
O56 P11 1.547640 1_545
O56 Sn6 2.086540 1_555
O57 P12 1.546248 1_545
O57 Sn7 2.080024 1_555
O58 P13 1.546399 1_555
O58 Sn7 2.076906 1_555
O59 P14 1.549147 1_655
O59 Sn7 2.076215 1_555
O60 P8 1.558757 1_555
O60 Sn8 2.116055 1_555
O61 Si2 1.621862 1_455
O61 Sn8 1.983204 1_555
O62 P7 1.558512 1_565
O62 Sn8 2.105074 1_555
O63 Si1 1.651800 1_565
O63 Sn9 2.020980 1_555
O64 P6 1.555966 1_555
O64 Sn9 2.114686 1_555
O65 P5 1.535575 1_455
O65 Sn9 2.058666 1_555
O66 P0 1.550500 1_565
O66 Sn10 2.067421 1_555
O67 P1 1.550938 1_555
O67 Sn10 2.066803 1_555
O68 P2 1.551664 1_455
O68 Sn10 2.074320 1_555
O69 P3 1.535971 1_555
O69 Sn11 2.054782 1_555
O70 P4 1.555926 1_455
O70 Sn11 2.110830 1_555
O71 Si0 1.652059 1_565
O71 Sn11 2.019672 1_555
