# generated using pymatgen
data_Co(SbO3)2
_symmetry_space_group_name_H-M   'P 1'
_cell_length_a   4.65740131
_cell_length_b   10.42066701
_cell_length_c   9.31401696
_cell_angle_alpha   63.46336238
_cell_angle_beta   89.99806979
_cell_angle_gamma   89.99909899
_symmetry_Int_Tables_number   1
_chemical_formula_structural   Co(SbO3)2
_chemical_formula_sum   'Co4 Sb8 O24'
_cell_volume   404.41645284
_cell_formula_units_Z   4
loop_
 _symmetry_equiv_pos_site_id
 _symmetry_equiv_pos_as_xyz
  1  'x, y, z'
loop_
 _atom_site_type_symbol
 _atom_site_label
 _atom_site_symmetry_multiplicity
 _atom_site_fract_x
 _atom_site_fract_y
 _atom_site_fract_z
 _atom_site_occupancy
  Co  Co0  1  -0.00000000  -0.00000000  0.50000000  1
  Co  Co1  1  0.50000000  0.50000000  0.00000000  1
  Co  Co2  1  -0.00000000  -0.00000000  0.00000000  1
  Co  Co3  1  0.50000000  0.50000000  0.50000000  1
  Sb  Sb0  1  0.99997327  0.66761348  0.66620879  1
  Sb  Sb1  1  -0.00002034  0.66759882  0.16626253  1
  Sb  Sb2  1  0.00002673  0.33238652  0.33379121  1
  Sb  Sb3  1  0.00002034  0.33240118  0.83373747  1
  Sb  Sb4  1  0.50003466  0.16762071  0.16617337  1
  Sb  Sb5  1  0.50003678  0.16762838  0.66616794  1
  Sb  Sb6  1  0.49996534  0.83237929  0.83382663  1
  Sb  Sb7  1  0.49996322  0.83237162  0.33383206  1
  O  O0  1  0.30875349  0.00001712  0.34566064  1
  O  O1  1  0.30873793  0.00002263  0.84564462  1
  O  O2  1  0.69124651  0.99998288  0.65433936  1
  O  O3  1  0.69126207  0.99997737  0.15435538  1
  O  O4  1  0.19128808  0.50000103  0.84563842  1
  O  O5  1  0.19125430  0.49999744  0.34569782  1
  O  O6  1  0.80871192  0.49999897  0.15436158  1
  O  O7  1  0.80874570  0.50000256  0.65430218  1
  O  O8  1  0.30230009  0.32786072  0.18504945  1
  O  O9  1  0.30222949  0.32787318  0.68498275  1
  O  O10  1  0.19779799  0.82779988  0.68505230  1
  O  O11  1  0.19771657  0.82780045  0.18510511  1
  O  O12  1  0.30210440  0.67219030  0.01288522  1
  O  O13  1  0.30213007  0.67216758  0.51288078  1
  O  O14  1  0.19789054  0.17226249  0.01278802  1
  O  O15  1  0.19782936  0.17224541  0.51283547  1
  O  O16  1  0.80210946  0.82773751  0.98721198  1
  O  O17  1  0.80217064  0.82775459  0.48716453  1
  O  O18  1  0.69789560  0.32780970  0.98711478  1
  O  O19  1  0.69786993  0.32783242  0.48711922  1
  O  O20  1  0.69769991  0.67213928  0.81495055  1
  O  O21  1  0.69777051  0.67212682  0.31501725  1
  O  O22  1  0.80220201  0.17220012  0.31494770  1
  O  O23  1  0.80228343  0.17219955  0.81489489  1
loop_
_geom_bond_atom_site_label_1
_geom_bond_atom_site_label_2
_geom_bond_distance
_geom_bond_site_symmetry_2
Co0 O0 2.033201 1_555
Co0 O2 2.033201 1_445
Co0 O10 2.067815 1_545
Co0 O22 2.067815 1_455
Co0 O15 2.068024 1_555
Co0 O17 2.068024 1_445
Co1 O6 2.033332 1_555
Co1 O4 2.033332 1_554
Co1 O20 2.067259 1_554
Co1 O8 2.067259 1_555
Co1 O18 2.067826 1_554
Co1 O12 2.067826 1_555
Co2 O3 2.033237 1_445
Co2 O1 2.033237 1_554
Co2 O23 2.067862 1_454
Co2 O11 2.067862 1_545
Co2 O14 2.068113 1_555
Co2 O16 2.068113 1_444
Co3 O7 2.033064 1_555
Co3 O5 2.033064 1_555
Co3 O21 2.067064 1_555
Co3 O9 2.067064 1_555
Co3 O19 2.067542 1_555
Co3 O13 2.067542 1_555
O0 Sb7 2.007250 1_545
O0 Sb4 2.007439 1_555
O1 Sb6 2.007223 1_545
O1 Sb5 2.007443 1_555
O2 Sb5 2.007250 1_565
O2 Sb6 2.007439 1_555
O3 Sb4 2.007223 1_565
O3 Sb7 2.007443 1_555
O4 Sb3 2.007271 1_555
O4 Sb0 2.007342 1_455
O5 Sb1 2.007225 1_555
O5 Sb2 2.007315 1_555
O6 Sb1 2.007271 1_655
O6 Sb2 2.007342 1_655
O7 Sb3 2.007225 1_655
O7 Sb0 2.007315 1_555
O8 Sb4 1.982306 1_555
O8 Sb2 1.990398 1_555
O9 Sb5 1.982242 1_555
O9 Sb3 1.990279 1_555
O10 Sb0 1.981898 1_455
O10 Sb6 1.990517 1_555
O11 Sb1 1.981843 1_555
O11 Sb7 1.990438 1_555
O12 Sb6 1.982288 1_554
O12 Sb1 1.990437 1_555
O13 Sb7 1.982258 1_555
O13 Sb0 1.990333 1_455
O14 Sb3 1.982056 1_554
O14 Sb4 1.990465 1_555
O15 Sb2 1.981895 1_555
O15 Sb5 1.990402 1_555
O16 Sb1 1.982056 1_656
O16 Sb6 1.990465 1_555
O17 Sb0 1.981895 1_555
O17 Sb7 1.990402 1_555
O18 Sb4 1.982288 1_556
O18 Sb3 1.990437 1_655
O19 Sb5 1.982258 1_555
O19 Sb2 1.990333 1_655
O20 Sb6 1.982306 1_555
O20 Sb0 1.990398 1_555
O21 Sb7 1.982242 1_555
O21 Sb1 1.990279 1_655
O22 Sb2 1.981898 1_655
O22 Sb4 1.990517 1_555
O23 Sb3 1.981843 1_655
O23 Sb5 1.990438 1_555
