# generated using pymatgen
data_ZnPb2F6
_symmetry_space_group_name_H-M   'P 1'
_cell_length_a   5.64751718
_cell_length_b   5.64751718
_cell_length_c   15.90396139
_cell_angle_alpha   90.00000000
_cell_angle_beta   90.00000000
_cell_angle_gamma   90.00000000
_symmetry_Int_Tables_number   1
_chemical_formula_structural   ZnPb2F6
_chemical_formula_sum   'Zn4 Pb8 F24'
_cell_volume   507.24810610
_cell_formula_units_Z   4
loop_
 _symmetry_equiv_pos_site_id
 _symmetry_equiv_pos_as_xyz
  1  'x, y, z'
loop_
 _atom_site_type_symbol
 _atom_site_label
 _atom_site_symmetry_multiplicity
 _atom_site_fract_x
 _atom_site_fract_y
 _atom_site_fract_z
 _atom_site_occupancy
  Zn  Zn0  1  0.75000000  0.25000000  0.25000000  1
  Zn  Zn1  1  0.25000000  0.25000000  0.75000000  1
  Zn  Zn2  1  0.75000000  0.75000000  0.75000000  1
  Zn  Zn3  1  0.25000000  0.75000000  0.25000000  1
  Pb  Pb0  1  0.25920551  0.75920551  0.59451446  1
  Pb  Pb1  1  0.74079449  0.24079449  0.59451446  1
  Pb  Pb2  1  0.75920551  0.25920551  0.90548554  1
  Pb  Pb3  1  0.25920551  0.24079449  0.09451446  1
  Pb  Pb4  1  0.74079449  0.75920551  0.09451446  1
  Pb  Pb5  1  0.24079449  0.25920551  0.40548554  1
  Pb  Pb6  1  0.75920551  0.74079449  0.40548554  1
  Pb  Pb7  1  0.24079449  0.74079449  0.90548554  1
  F  F0  1  -0.00000000  0.50000000  0.50825497  1
  F  F1  1  -0.00000000  0.50000000  0.00825497  1
  F  F2  1  0.50000000  0.00000000  0.49174503  1
  F  F3  1  0.50000000  0.00000000  0.99174503  1
  F  F4  1  -0.00000000  0.00000000  0.00000000  1
  F  F5  1  0.50000000  0.50000000  0.50000000  1
  F  F6  1  0.50000000  0.50000000  0.00000000  1
  F  F7  1  -0.00000000  0.00000000  0.50000000  1
  F  F8  1  -0.00000000  0.50000000  0.71581307  1
  F  F9  1  -0.00000000  0.50000000  0.21581307  1
  F  F10  1  0.50000000  0.00000000  0.28418693  1
  F  F11  1  0.50000000  0.00000000  0.78418693  1
  F  F12  1  0.30345129  0.80345129  0.12762945  1
  F  F13  1  0.69654871  0.80345129  0.62762945  1
  F  F14  1  0.30345129  0.19654871  0.62762945  1
  F  F15  1  0.80345129  0.69654871  0.87237055  1
  F  F16  1  0.19654871  0.30345129  0.87237055  1
  F  F17  1  0.69654871  0.19654871  0.12762945  1
  F  F18  1  0.80345129  0.30345129  0.37237055  1
  F  F19  1  0.19654871  0.69654871  0.37237055  1
  F  F20  1  -0.00000000  0.00000000  0.75000000  1
  F  F21  1  0.50000000  0.50000000  0.25000000  1
  F  F22  1  0.50000000  0.50000000  0.75000000  1
  F  F23  1  -0.00000000  0.00000000  0.25000000  1
loop_
_geom_bond_atom_site_label_1
_geom_bond_atom_site_label_2
_geom_bond_distance
_geom_bond_site_symmetry_2
F0 Pb1 2.483513 1_455
F0 Pb0 2.483513 1_555
F0 Pb5 2.523887 1_555
F0 Pb6 2.523887 1_455
F1 Pb3 2.483513 1_555
F1 Pb4 2.483513 1_455
F1 Pb2 2.523887 1_454
F1 Pb7 2.523887 1_554
F2 Pb6 2.483513 1_545
F2 Pb5 2.483513 1_555
F2 Pb0 2.523887 1_545
F2 Pb1 2.523887 1_555
F3 Pb2 2.483513 1_555
F3 Pb7 2.483513 1_545
F3 Pb4 2.523887 1_546
F3 Pb3 2.523887 1_556
F4 Pb2 2.500337 1_454
F4 Pb7 2.500337 1_544
F4 Pb4 2.500337 1_445
F4 Pb3 2.500337 1_555
F5 Pb1 2.500337 1_555
F5 Pb0 2.500337 1_555
F5 Pb5 2.500337 1_555
F5 Pb6 2.500337 1_555
F6 Pb2 2.500337 1_554
F6 Pb7 2.500337 1_554
F6 Pb4 2.500337 1_555
F6 Pb3 2.500337 1_555
F7 Pb0 2.500337 1_545
F7 Pb1 2.500337 1_455
F7 Pb5 2.500337 1_555
F7 Pb6 2.500337 1_445
F8 Zn1 2.069402 1_555
F8 Zn2 2.069402 1_455
F9 Zn3 2.069402 1_555
F9 Zn0 2.069402 1_455
F10 Zn3 2.069402 1_545
F10 Zn0 2.069402 1_555
F11 Zn1 2.069402 1_555
F11 Zn2 2.069402 1_545
F12 Zn3 1.992448 1_555
F12 Pb3 2.537761 1_565
F12 Pb4 2.537761 1_555
F13 Zn2 1.992448 1_555
F13 Pb0 2.537761 1_555
F13 Pb1 2.537761 1_565
F14 Zn1 1.992448 1_555
F14 Pb1 2.537761 1_555
F14 Pb0 2.537761 1_545
F15 Zn2 1.992448 1_555
F15 Pb2 2.537761 1_555
F15 Pb7 2.537761 1_655
F16 Zn1 1.992448 1_555
F16 Pb7 2.537761 1_555
F16 Pb2 2.537761 1_455
F17 Zn0 1.992448 1_555
F17 Pb3 2.537761 1_555
F17 Pb4 2.537761 1_545
F18 Zn0 1.992448 1_555
F18 Pb6 2.537761 1_555
F18 Pb5 2.537761 1_655
F19 Zn3 1.992448 1_555
F19 Pb5 2.537761 1_555
F19 Pb6 2.537761 1_455
F20 Zn1 1.996699 1_555
F20 Zn2 1.996699 1_445
F21 Zn0 1.996699 1_555
F21 Zn3 1.996699 1_555
F22 Zn1 1.996699 1_555
F22 Zn2 1.996699 1_555
F23 Zn0 1.996699 1_455
F23 Zn3 1.996699 1_545
