# generated using pymatgen
data_MgV2Cd2(CuO4)2
_symmetry_space_group_name_H-M   'P 1'
_cell_length_a   5.83712611
_cell_length_b   5.83712557
_cell_length_c   6.72327790
_cell_angle_alpha   90.43650277
_cell_angle_beta   89.56349728
_cell_angle_gamma   118.23747574
_symmetry_Int_Tables_number   1
_chemical_formula_structural   MgV2Cd2(CuO4)2
_chemical_formula_sum   'Mg1 V2 Cd2 Cu2 O8'
_cell_volume   201.80647809
_cell_formula_units_Z   1
loop_
 _symmetry_equiv_pos_site_id
 _symmetry_equiv_pos_as_xyz
  1  'x, y, z'
loop_
 _atom_site_type_symbol
 _atom_site_label
 _atom_site_symmetry_multiplicity
 _atom_site_fract_x
 _atom_site_fract_y
 _atom_site_fract_z
 _atom_site_occupancy
  Mg  Mg0  1  0.50000000  0.50000000  0.50000000  1
  V  V0  1  0.33568324  0.66431676  0.21558968  1
  V  V1  1  0.66431676  0.33568324  0.78441032  1
  Cd  Cd0  1  0.00000000  0.00000000  0.00000000  1
  Cd  Cd1  1  0.00000000  0.00000000  0.50000000  1
  Cu  Cu0  1  0.73873647  0.26126353  0.26480633  1
  Cu  Cu1  1  0.26126353  0.73873647  0.73519367  1
  O  O0  1  0.23071295  0.76928705  0.00351984  1
  O  O1  1  0.72883170  0.27116830  0.53707799  1
  O  O2  1  0.76928705  0.23071295  0.99648016  1
  O  O3  1  0.27116830  0.72883170  0.46292201  1
  O  O4  1  0.24452764  0.30453692  0.26314210  1
  O  O5  1  0.75547236  0.69546308  0.73685790  1
  O  O6  1  0.69546308  0.75547236  0.26314210  1
  O  O7  1  0.30453692  0.24452764  0.73685790  1
loop_
_geom_bond_atom_site_label_1
_geom_bond_atom_site_label_2
_geom_bond_distance
_geom_bond_site_symmetry_2
Mg0 O7 2.111865 1_555
Mg0 O6 2.111865 1_555
Mg0 O5 2.111865 1_555
Mg0 O4 2.111865 1_555
Mg0 O1 2.308428 1_555
Mg0 O3 2.308428 1_555
Cd0 O2 2.311896 1_454
Cd0 O0 2.311896 1_545
Cd0 O4 2.432463 1_555
Cd0 O5 2.432463 1_444
Cd0 O6 2.432463 1_445
Cd0 O7 2.432463 1_554
Cd1 O5 2.311009 1_445
Cd1 O4 2.311009 1_555
Cd1 O6 2.311009 1_445
Cd1 O7 2.311009 1_555
Cd1 O1 2.726104 1_455
Cd1 O3 2.726104 1_545
Cu0 O2 1.827134 1_554
Cu0 O1 1.832366 1_555
Cu1 O0 1.827134 1_556
Cu1 O3 1.832366 1_555
O0 V0 1.779230 1_555
O1 V1 1.778741 1_555
O2 V1 1.779230 1_555
O3 V0 1.778741 1_555
O4 V0 1.935442 1_555
O5 V1 1.935442 1_555
O6 V0 1.935442 1_555
O7 V1 1.935442 1_555
