# generated using pymatgen
data_Sr4MgMn2(SO3)2
_symmetry_space_group_name_H-M   'P 1'
_cell_length_a   3.97217612
_cell_length_b   3.97200122
_cell_length_c   15.47670049
_cell_angle_alpha   90.02737156
_cell_angle_beta   89.98977683
_cell_angle_gamma   90.02587899
_symmetry_Int_Tables_number   1
_chemical_formula_structural   Sr4MgMn2(SO3)2
_chemical_formula_sum   'Sr4 Mg1 Mn2 S2 O6'
_cell_volume   244.18340542
_cell_formula_units_Z   1
loop_
 _symmetry_equiv_pos_site_id
 _symmetry_equiv_pos_as_xyz
  1  'x, y, z'
loop_
 _atom_site_type_symbol
 _atom_site_label
 _atom_site_symmetry_multiplicity
 _atom_site_fract_x
 _atom_site_fract_y
 _atom_site_fract_z
 _atom_site_occupancy
  Sr  Sr0  1  0.75001000  0.75003400  0.12170200  1
  Sr  Sr1  1  0.25001200  0.24999700  0.87826600  1
  Sr  Sr2  1  0.74993500  0.75073900  0.35998200  1
  Sr  Sr3  1  0.25026400  0.24980700  0.63997900  1
  Mg  Mg0  1  0.24983500  0.74954100  0.50004500  1
  Mn  Mn0  1  0.24994400  0.25017200  0.24495600  1
  Mn  Mn1  1  0.75006100  0.74995000  0.75514500  1
  S  S0  1  0.25003800  0.24997200  0.08171200  1
  S  S1  1  0.74998600  0.75006800  0.91825800  1
  O  O0  1  0.74998100  0.25023200  0.25709700  1
  O  O1  1  0.24999400  0.75018400  0.26126100  1
  O  O2  1  0.25007000  0.74995700  0.73870600  1
  O  O3  1  0.75007200  0.24994700  0.74288000  1
  O  O4  1  0.24996500  0.24952700  0.44441200  1
  O  O5  1  0.74983800  0.74986900  0.55560300  1
loop_
_geom_bond_atom_site_label_1
_geom_bond_atom_site_label_2
_geom_bond_distance
_geom_bond_site_symmetry_2
Mg0 O5 2.164080 1_455
Mg0 O4 2.164286 1_555
Mg0 O5 2.164382 1_555
Mg0 O4 2.164938 1_565
Mn0 O0 1.994777 1_455
Mn0 O0 1.995137 1_555
Mn0 O1 2.001896 1_555
Mn0 O1 2.002041 1_545
Mn0 S0 2.526478 1_555
Mn1 O3 1.994973 1_555
Mn1 O3 1.995130 1_565
Mn1 O2 2.002308 1_655
Mn1 O2 2.002327 1_555
Mn1 S1 2.524451 1_555
S0 Sr0 2.875419 1_555
S0 Sr0 2.875489 1_445
S0 Sr0 2.876659 1_455
S0 Sr0 2.876726 1_545
S0 Sr1 3.148673 1_554
S1 Sr1 2.875456 1_555
S1 Sr1 2.875465 1_665
S1 Sr1 2.876685 1_655
S1 Sr1 2.876714 1_565
S1 Sr0 3.148642 1_556
O0 Sr2 2.544544 1_545
O0 Sr2 2.546500 1_555
O0 Sr0 2.886924 1_545
O0 Sr0 2.887219 1_555
O1 Sr2 2.505754 1_455
O1 Sr2 2.505813 1_555
O1 Sr0 2.934023 1_555
O1 Sr0 2.934458 1_455
O2 Sr3 2.505664 1_555
O2 Sr3 2.505876 1_565
O2 Sr1 2.933602 1_565
O2 Sr1 2.934784 1_555
O3 Sr3 2.545372 1_555
O3 Sr3 2.546119 1_655
O3 Sr1 2.886938 1_555
O3 Sr1 2.887124 1_655
