# generated using pymatgen
data_MgCo2(BiO3)4
_symmetry_space_group_name_H-M   'P 1'
_cell_length_a   5.56130662
_cell_length_b   5.56129842
_cell_length_c   9.64013942
_cell_angle_alpha   88.83021997
_cell_angle_beta   91.16982791
_cell_angle_gamma   105.01023427
_symmetry_Int_Tables_number   1
_chemical_formula_structural   MgCo2(BiO3)4
_chemical_formula_sum   'Mg1 Co2 Bi4 O12'
_cell_volume   287.88266737
_cell_formula_units_Z   1
loop_
 _symmetry_equiv_pos_site_id
 _symmetry_equiv_pos_as_xyz
  1  'x, y, z'
loop_
 _atom_site_type_symbol
 _atom_site_label
 _atom_site_symmetry_multiplicity
 _atom_site_fract_x
 _atom_site_fract_y
 _atom_site_fract_z
 _atom_site_occupancy
  Mg  Mg0  1  0.30484293  0.69515707  0.35479144  1
  Co  Co0  1  0.00226802  -0.00226802  0.98961235  1
  Co  Co1  1  0.58238952  0.41761048  0.51812109  1
  Bi  Bi0  1  0.97037226  0.02962674  0.32712036  1
  Bi  Bi1  1  0.99390115  0.00609885  0.66786726  1
  Bi  Bi2  1  0.59228309  0.40771991  0.15381610  1
  Bi  Bi3  1  0.41288538  0.58711062  0.83119464  1
  O  O0  1  0.14405146  0.85594854  0.49439262  1
  O  O1  1  0.15597872  0.84401828  0.19508067  1
  O  O2  1  0.16226075  0.83774125  0.84085180  1
  O  O3  1  0.29705345  0.33650600  0.34534819  1
  O  O4  1  0.31560456  0.31508628  0.65420159  1
  O  O5  1  0.29799208  0.28334394  0.99391741  1
  O  O6  1  0.71665606  0.70200692  0.99391741  1
  O  O7  1  0.66349200  0.70294855  0.34535019  1
  O  O8  1  0.68491372  0.68439644  0.65420359  1
  O  O9  1  0.84248793  0.15751007  0.13761210  1
  O  O10  1  0.85376326  0.14624074  0.83878693  1
  O  O11  1  0.80680368  0.19319732  0.49506523  1
loop_
_geom_bond_atom_site_label_1
_geom_bond_atom_site_label_2
_geom_bond_distance
_geom_bond_site_symmetry_2
Mg0 O0 1.980604 1_555
Mg0 O7 1.987688 1_555
Mg0 O3 1.987700 1_555
Mg0 O1 1.998033 1_555
Co0 O10 1.932226 1_455
Co0 O5 1.968807 1_555
Co0 O6 1.968810 1_445
Co0 O9 2.031562 1_456
Co0 O2 2.038184 1_545
Co0 O1 2.371728 1_546
Co1 O4 1.964189 1_555
Co1 O8 1.964203 1_555
Co1 O11 1.998505 1_555
Co1 O7 2.246678 1_555
Co1 O3 2.246686 1_555
Bi0 O1 2.100089 1_645
Bi0 O9 2.122504 1_555
Bi0 O7 2.153444 1_545
Bi0 O3 2.153450 1_655
Bi0 O0 2.195938 1_645
Bi0 O11 2.196600 1_555
Bi1 O10 2.085468 1_555
Bi1 O8 2.139840 1_545
Bi1 O4 2.139845 1_655
Bi1 O0 2.160190 1_645
Bi1 O2 2.204710 1_645
Bi1 O11 2.315076 1_555
Bi2 O6 2.210691 1_554
Bi2 O5 2.210708 1_554
Bi2 O9 2.217544 1_555
Bi2 O3 2.453334 1_555
Bi2 O7 2.453343 1_555
Bi3 O2 2.216079 1_555
Bi3 O5 2.257534 1_555
Bi3 O6 2.257551 1_555
Bi3 O4 2.266338 1_555
Bi3 O8 2.266341 1_555
