# generated using pymatgen
data_Li5SbO5
_symmetry_space_group_name_H-M   'P 1'
_cell_length_a   4.00344892
_cell_length_b   5.22401996
_cell_length_c   5.78230880
_cell_angle_alpha   107.42127004
_cell_angle_beta   90.00000000
_cell_angle_gamma   112.53061466
_symmetry_Int_Tables_number   1
_chemical_formula_structural   Li5SbO5
_chemical_formula_sum   'Li5 Sb1 O5'
_cell_volume   105.67097758
_cell_formula_units_Z   1
loop_
 _symmetry_equiv_pos_site_id
 _symmetry_equiv_pos_as_xyz
  1  'x, y, z'
loop_
 _atom_site_type_symbol
 _atom_site_label
 _atom_site_symmetry_multiplicity
 _atom_site_fract_x
 _atom_site_fract_y
 _atom_site_fract_z
 _atom_site_occupancy
  Li  Li0  1  0.71301726  0.42603552  0.34395899  1
  Li  Li1  1  -0.00000000  -0.00000000  0.50000000  1
  Li  Li2  1  0.31101983  0.62204065  0.14064550  1
  Li  Li3  1  0.68898017  0.37795935  0.85935450  1
  Li  Li4  1  0.28698274  0.57396448  0.65604201  1
  Sb  Sb0  1  -0.00000000  -0.00000000  0.00000000  1
  O  O0  1  0.85492090  0.70984081  0.17365965  1
  O  O1  1  0.50000000  -0.00000000  0.00000000  1
  O  O2  1  0.15750514  0.31500927  0.31830500  1
  O  O3  1  0.84249486  0.68499073  0.68169500  1
  O  O4  1  0.14507910  0.29015919  0.82634035  1
loop_
_geom_bond_atom_site_label_1
_geom_bond_atom_site_label_2
_geom_bond_distance
_geom_bond_site_symmetry_2
Li0 O0 1.928540 1_555
Li0 O3 1.947619 1_555
Li0 O2 2.065038 1_555
Li0 O2 2.065046 1_655
Li0 O1 2.351850 1_555
Li1 O0 1.951496 1_445
Li1 O4 1.951496 1_555
Li1 O3 2.109381 1_445
Li1 O2 2.109381 1_555
Li2 O4 1.995192 1_554
Li2 O0 2.042152 1_455
Li2 O0 2.042160 1_555
Li2 O2 2.058355 1_555
Li2 O1 2.224637 1_565
Li3 O0 1.995192 1_556
Li3 O4 2.042152 1_655
Li3 O4 2.042160 1_555
Li3 O3 2.058355 1_555
Li3 O1 2.224637 1_556
Li4 O4 1.928535 1_555
Li4 O2 1.947624 1_555
Li4 O3 2.065038 1_555
Li4 O3 2.065046 1_455
Li4 O1 2.351847 1_566
O0 Sb0 1.969779 1_665
O1 Sb0 2.001724 1_655
O1 Sb0 2.001724 1_555
O2 Sb0 1.970887 1_555
O3 Sb0 1.970887 1_666
O4 Sb0 1.969779 1_556
