# generated using pymatgen
data_Hg5(ClO2)2
_symmetry_space_group_name_H-M   'P 1'
_cell_length_a   8.87157232
_cell_length_b   8.87129609
_cell_length_c   8.87125138
_cell_angle_alpha   139.30534344
_cell_angle_beta   97.09190904
_cell_angle_gamma   96.79723577
_symmetry_Int_Tables_number   1
_chemical_formula_structural   Hg5(ClO2)2
_chemical_formula_sum   'Hg10 Cl4 O8'
_cell_volume   426.82732053
_cell_formula_units_Z   2
loop_
 _symmetry_equiv_pos_site_id
 _symmetry_equiv_pos_as_xyz
  1  'x, y, z'
loop_
 _atom_site_type_symbol
 _atom_site_label
 _atom_site_symmetry_multiplicity
 _atom_site_fract_x
 _atom_site_fract_y
 _atom_site_fract_z
 _atom_site_occupancy
  Hg  Hg0  1  0.85856349  0.78687547  0.64542728  1
  Hg  Hg1  1  0.64145553  0.28677044  0.92823487  1
  Hg  Hg2  1  0.35852446  0.71320947  0.07175728  1
  Hg  Hg3  1  0.14143980  0.21312358  0.35457495  1
  Hg  Hg4  1  0.59056219  0.25002302  0.34057973  1
  Hg  Hg5  1  0.90943385  0.24998748  0.65942971  1
  Hg  Hg6  1  0.40946173  0.75003156  0.65945708  1
  Hg  Hg7  1  0.09058527  0.75001364  0.34054489  1
  Hg  Hg8  1  0.25002219  0.25000646  0.99999473  1
  Hg  Hg9  1  0.75006244  0.75008630  0.00001134  1
  Cl  Cl0  1  0.39283292  0.22824233  0.62111432  1
  Cl  Cl1  1  0.10710643  0.72827517  0.83542016  1
  Cl  Cl2  1  0.89284746  0.27167501  0.16458064  1
  Cl  Cl3  1  0.60712189  0.77169996  0.37886674  1
  O  O0  1  0.17681453  0.52167542  0.05150661  1
  O  O1  1  0.32321130  0.37478870  0.34495962  1
  O  O2  1  0.47017370  0.12529355  0.94849822  1
  O  O3  1  0.02982525  0.97825474  0.65503758  1
  O  O4  1  0.97016204  0.02168542  0.34490100  1
  O  O5  1  0.52982692  0.87476258  0.05156616  1
  O  O6  1  0.82318232  0.47826255  0.94843486  1
  O  O7  1  0.67678629  0.62525613  0.65510322  1
loop_
_geom_bond_atom_site_label_1
_geom_bond_atom_site_label_2
_geom_bond_distance
_geom_bond_site_symmetry_2
Hg0 O3 2.082332 1_655
Hg0 O7 2.082594 1_555
Hg1 O6 2.082285 1_555
Hg1 O2 2.082322 1_555
Hg2 O0 2.082148 1_555
Hg2 O5 2.082447 1_555
Hg3 O4 2.082409 1_455
Hg3 O1 2.082460 1_555
Hg4 O7 2.058458 1_555
Hg4 O5 2.058599 1_545
Hg5 O4 2.058601 1_555
Hg5 O6 2.058612 1_555
Hg6 O1 2.058489 1_555
Hg6 O2 2.058621 1_565
Hg7 O3 2.058557 1_555
Hg7 O0 2.058692 1_555
Hg8 O2 2.283131 1_555
Hg8 O0 2.283144 1_556
Hg8 O1 2.283518 1_556
Hg8 O3 2.283592 1_545
Hg9 O7 2.282853 1_554
Hg9 O4 2.282928 1_565
Hg9 O5 2.283657 1_555
Hg9 O6 2.283770 1_554
Cl0 Hg1 2.942383 1_555
Cl0 Hg3 2.954520 1_555
Cl0 Hg2 3.018885 1_556
Cl1 Hg0 2.941990 1_455
Cl1 Hg2 2.954556 1_556
Cl1 Hg3 3.018108 1_566
Cl2 Hg3 2.942001 1_655
Cl2 Hg1 2.954627 1_554
Cl2 Hg0 3.018103 1_544
Cl3 Hg2 2.942382 1_555
Cl3 Hg0 2.954599 1_555
Cl3 Hg1 3.018812 1_554
