# generated using pymatgen
data_MgV5O12
_symmetry_space_group_name_H-M   'P 1'
_cell_length_a   5.29913601
_cell_length_b   10.96769731
_cell_length_c   9.82043293
_cell_angle_alpha   26.71098388
_cell_angle_beta   51.27529433
_cell_angle_gamma   56.30536167
_symmetry_Int_Tables_number   1
_chemical_formula_structural   MgV5O12
_chemical_formula_sum   'Mg1 V5 O12'
_cell_volume   200.13659231
_cell_formula_units_Z   1
loop_
 _symmetry_equiv_pos_site_id
 _symmetry_equiv_pos_as_xyz
  1  'x, y, z'
loop_
 _atom_site_type_symbol
 _atom_site_label
 _atom_site_symmetry_multiplicity
 _atom_site_fract_x
 _atom_site_fract_y
 _atom_site_fract_z
 _atom_site_occupancy
  Mg  Mg0  1  0.78984600  0.49864900  0.78451600  1
  V  V0  1  0.02801500  0.00911700  0.97634000  1
  V  V1  1  0.94738400  0.47599600  0.05150500  1
  V  V2  1  0.44607600  0.99158600  0.54034500  1
  V  V3  1  0.52860400  0.51224000  0.46478100  1
  V  V4  1  0.31325700  0.98905400  0.29114300  1
  O  O0  1  0.36677800  0.28632900  0.12306700  1
  O  O1  1  0.23216300  0.11066800  0.62666900  1
  O  O2  1  0.10785100  0.31541700  0.73184200  1
  O  O3  1  0.86909600  0.18950800  0.21834600  1
  O  O4  1  0.34010600  0.81576500  0.11311300  1
  O  O5  1  0.73846500  0.38071700  0.35645200  1
  O  O6  1  0.21697700  0.66507100  0.56581500  1
  O  O7  1  0.58121600  0.18413500  0.88476800  1
  O  O8  1  0.14804700  0.82201600  0.69430500  1
  O  O9  1  0.84661700  0.69779000  0.22863300  1
  O  O10  1  0.72661700  0.86589000  0.34682500  1
  O  O11  1  0.61968800  0.69005300  0.83861200  1
loop_
_geom_bond_atom_site_label_1
_geom_bond_atom_site_label_2
_geom_bond_distance
_geom_bond_site_symmetry_2
Mg0 O0 2.034048 1_556
Mg0 O2 2.038396 1_655
Mg0 O10 2.045734 1_555
Mg0 O6 2.136692 1_655
Mg0 O3 2.162104 1_556
Mg0 O11 2.189759 1_555
O0 V1 1.993279 1_455
O0 V4 2.064197 1_545
O0 V2 2.097544 1_545
O1 V2 1.685975 1_545
O1 V0 2.014613 1_555
O2 V0 1.767744 1_555
O2 V3 2.102120 1_555
O3 V2 2.000792 1_545
O3 V1 2.031688 1_555
O3 V4 2.107180 1_645
O4 V0 1.683882 1_564
O4 V3 2.023268 1_555
O5 V1 1.682404 1_555
O5 V3 1.982635 1_555
O6 V4 1.824353 1_555
O6 V3 2.090741 1_555
O6 V1 2.486325 1_456
O7 V4 1.883213 1_546
O7 V3 1.961522 1_555
O7 V0 2.153241 1_655
O8 V2 1.867257 1_555
O8 V1 1.965960 1_456
O8 V4 2.069382 1_555
O9 V3 1.686202 1_555
O9 V0 2.066247 1_664
O10 V0 1.886367 1_664
O10 V4 1.953907 1_555
O11 V2 1.747153 1_555
O11 V1 2.036684 1_556
