# generated using pymatgen
data_NaMgTaP2SO12
_symmetry_space_group_name_H-M   'P 1'
_cell_length_a   8.72466920
_cell_length_b   8.72466893
_cell_length_c   22.57795189
_cell_angle_alpha   90.03471434
_cell_angle_beta   89.96528566
_cell_angle_gamma   120.13822964
_symmetry_Int_Tables_number   1
_chemical_formula_structural   NaMgTaP2SO12
_chemical_formula_sum   'Na6 Mg6 Ta6 P12 S6 O72'
_cell_volume   1486.29966955
_cell_formula_units_Z   6
loop_
 _symmetry_equiv_pos_site_id
 _symmetry_equiv_pos_as_xyz
  1  'x, y, z'
loop_
 _atom_site_type_symbol
 _atom_site_label
 _atom_site_symmetry_multiplicity
 _atom_site_fract_x
 _atom_site_fract_y
 _atom_site_fract_z
 _atom_site_occupancy
  Na  Na0  1  0.98976516  0.98312735  0.49136030  1
  Na  Na1  1  0.01687265  0.01023484  0.99136030  1
  Na  Na2  1  0.65643216  0.31646035  0.82469330  1
  Na  Na3  1  0.68353965  0.34356784  0.32469330  1
  Na  Na4  1  0.32309816  0.64979435  0.15802730  1
  Na  Na5  1  0.35020565  0.67690184  0.65802730  1
  Mg  Mg0  1  0.98787156  0.99313377  0.35336081  1
  Mg  Mg1  1  0.00686623  0.01212844  0.85336081  1
  Mg  Mg2  1  0.65453856  0.32646677  0.68669381  1
  Mg  Mg3  1  0.67353323  0.34546144  0.18669381  1
  Mg  Mg4  1  0.32120456  0.65980077  0.02002781  1
  Mg  Mg5  1  0.34019923  0.67879544  0.52002781  1
  Ta  Ta0  1  0.99894993  0.00332127  0.64567419  1
  Ta  Ta1  1  0.99667873  0.00105007  0.14567419  1
  Ta  Ta2  1  0.66561693  0.33665427  0.97900719  1
  Ta  Ta3  1  0.66334573  0.33438307  0.47900719  1
  Ta  Ta4  1  0.33228293  0.66998827  0.31234119  1
  Ta  Ta5  1  0.33001173  0.66771707  0.81234119  1
  P  P0  1  0.71020293  0.70690845  0.25253798  1
  P  P1  1  0.99506065  0.28648715  0.25293115  1
  P  P2  1  0.29309155  0.28979707  0.75253798  1
  P  P3  1  0.71351285  0.00493935  0.75293115  1
  P  P4  1  0.37686993  0.04024145  0.58587098  1
  P  P5  1  0.66172765  0.61982015  0.58626415  1
  P  P6  1  0.95975855  0.62313007  0.08587098  1
  P  P7  1  0.38017985  0.33827235  0.08626415  1
  P  P8  1  0.04353593  0.37357545  0.91920498  1
  P  P9  1  0.32839365  0.95315415  0.91959815  1
  P  P10  1  0.62642455  0.95646407  0.41920498  1
  P  P11  1  0.04684585  0.67160635  0.41959815  1
  S  S0  1  0.28971037  0.00320598  0.25110809  1
  S  S1  1  0.99679402  0.71028963  0.75110809  1
  S  S2  1  0.95637737  0.33653898  0.58444109  1
  S  S3  1  0.66346102  0.04362263  0.08444109  1
  S  S4  1  0.62304337  0.66987298  0.91777509  1
  S  S5  1  0.33012702  0.37695663  0.41777509  1
  O  O0  1  0.20827016  0.02381564  0.30380256  1
  O  O1  1  0.82092299  0.79407083  0.30584061  1
  O  O2  1  0.98405768  0.18216080  0.30659621  1
  O  O3  1  0.20592917  0.17907701  0.80584061  1
  O  O4  1  0.97618436  0.79172984  0.80380256  1
  O  O5  1  0.81783920  0.01594232  0.80659621  1
  O  O6  1  0.80138116  0.97175260  0.69513107  1
  O  O7  1  0.17128131  0.19818091  0.69525848  1
  O  O8  1  0.02891867  0.82386633  0.69645046  1
  O  O9  1  0.80181909  0.82871869  0.19525848  1
  O  O10  1  0.02824740  0.19861884  0.19513107  1
  O  O11  1  0.17613367  0.97108133  0.19645046  1
  O  O12  1  0.87493716  0.35714864  0.63713556  1
  O  O13  1  0.48758999  0.12740383  0.63917361  1
  O  O14  1  0.65072468  0.51549380  0.63992921  1
  O  O15  1  0.87259617  0.51241001  0.13917361  1
  O  O16  1  0.64285136  0.12506284  0.13713556  1
  O  O17  1  0.48450620  0.34927532  0.13992921  1
  O  O18  1  0.46804816  0.30508560  0.02846407  1
  O  O19  1  0.83794831  0.53151391  0.02859148  1
  O  O20  1  0.69558567  0.15719933  0.02978346  1
  O  O21  1  0.46848609  0.16205169  0.52859148  1
  O  O22  1  0.69491440  0.53195184  0.52846407  1
  O  O23  1  0.84280067  0.30441433  0.52978346  1
  O  O24  1  0.54160316  0.69048264  0.97046956  1
  O  O25  1  0.15425599  0.46073783  0.97250761  1
  O  O26  1  0.31739068  0.84882780  0.97326321  1
  O  O27  1  0.53926217  0.84574401  0.47250761  1
  O  O28  1  0.30951736  0.45839684  0.47046956  1
  O  O29  1  0.15117220  0.68260932  0.47326321  1
  O  O30  1  0.13471416  0.63841960  0.36179807  1
  O  O31  1  0.50461431  0.86484791  0.36192548  1
  O  O32  1  0.36225167  0.49053333  0.36311746  1
  O  O33  1  0.13515209  0.49538569  0.86192548  1
  O  O34  1  0.36158040  0.86528584  0.86179807  1
  O  O35  1  0.50946667  0.63774833  0.86311746  1
  O  O36  1  0.02285917  0.82924116  0.41001786  1
  O  O37  1  0.81290553  0.99282563  0.41092081  1
  O  O38  1  0.18373770  0.19872660  0.40898220  1
  O  O39  1  0.00717437  0.18709447  0.91092081  1
  O  O40  1  0.17075884  0.97714083  0.91001786  1
  O  O41  1  0.80127340  0.81626230  0.90898220  1
  O  O42  1  0.96515171  0.16559332  0.58820928  1
  O  O43  1  0.19121401  0.03449527  0.59089513  1
  O  O44  1  0.83852264  0.80987026  0.59092283  1
  O  O45  1  0.96550473  0.80878599  0.09089513  1
  O  O46  1  0.83440668  0.03484829  0.08820928  1
  O  O47  1  0.19012974  0.16147736  0.09092283  1
  O  O48  1  0.68952617  0.16257416  0.74335086  1
  O  O49  1  0.47957253  0.32615863  0.74425381  1
  O  O50  1  0.85040470  0.53205960  0.74231520  1
  O  O51  1  0.67384137  0.52042747  0.24425381  1
  O  O52  1  0.83742584  0.31047383  0.24335086  1
  O  O53  1  0.46794040  0.14959530  0.24231520  1
  O  O54  1  0.63181871  0.49892632  0.92154228  1
  O  O55  1  0.85788101  0.36782827  0.92422813  1
  O  O56  1  0.50518964  0.14320326  0.92425583  1
  O  O57  1  0.63217173  0.14211899  0.42422813  1
  O  O58  1  0.50107368  0.36818129  0.42154228  1
  O  O59  1  0.85679674  0.49481036  0.42425583  1
  O  O60  1  0.35619217  0.49590816  0.07668486  1
  O  O61  1  0.14623853  0.65949263  0.07758781  1
  O  O62  1  0.51707070  0.86539360  0.07564920  1
  O  O63  1  0.34050737  0.85376147  0.57758781  1
  O  O64  1  0.50409184  0.64380783  0.57668486  1
  O  O65  1  0.13460640  0.48292930  0.57564920  1
  O  O66  1  0.29848471  0.83226032  0.25487628  1
  O  O67  1  0.52454701  0.70116227  0.25756213  1
  O  O68  1  0.17185564  0.47653726  0.25758983  1
  O  O69  1  0.29883773  0.47545299  0.75756213  1
  O  O70  1  0.16773968  0.70151529  0.75487628  1
  O  O71  1  0.52346274  0.82814436  0.75758983  1
loop_
_geom_bond_atom_site_label_1
_geom_bond_atom_site_label_2
_geom_bond_distance
_geom_bond_site_symmetry_2
Na0 O36 2.375816 1_655
Na0 O37 2.412729 1_555
Na0 O38 2.581749 1_665
Na0 O44 2.660235 1_555
Na0 O43 2.748242 1_665
Na0 O42 2.774957 1_565
Na1 O40 2.375816 1_545
Na1 O39 2.412729 1_555
Na1 O41 2.581749 1_445
Na1 O47 2.660235 1_556
Na1 O45 2.748242 1_446
Na1 O46 2.774957 1_456
Na2 O48 2.375816 1_555
Na2 O49 2.412729 1_555
Na2 O50 2.581749 1_555
Na2 O56 2.660235 1_555
Na2 O55 2.748242 1_555
Na2 O54 2.774957 1_555
Na3 O52 2.375816 1_555
Na3 O51 2.412729 1_555
Na3 O53 2.581749 1_555
Na3 O59 2.660235 1_555
Na3 O57 2.748242 1_555
Na3 O58 2.774957 1_555
Na4 O60 2.375816 1_555
Na4 O61 2.412729 1_555
Na4 O62 2.581749 1_555
Na4 O68 2.660235 1_555
Na4 O67 2.748242 1_555
Na4 O66 2.774957 1_555
Na5 O64 2.375816 1_555
Na5 O63 2.412729 1_555
Na5 O65 2.581749 1_555
Na5 O71 2.660235 1_555
Na5 O69 2.748242 1_555
Na5 O70 2.774957 1_555
Mg0 O1 1.936084 1_555
Mg0 O2 1.973078 1_565
Mg0 O37 2.003167 1_555
Mg0 O36 2.053089 1_655
Mg0 O0 2.121810 1_665
Mg0 O38 2.153275 1_665
Mg1 O3 1.936084 1_555
Mg1 O5 1.973078 1_455
Mg1 O39 2.003167 1_555
Mg1 O40 2.053089 1_545
Mg1 O4 2.121810 1_445
Mg1 O41 2.153275 1_445
Mg2 O13 1.936084 1_555
Mg2 O14 1.973078 1_555
Mg2 O49 2.003167 1_555
Mg2 O48 2.053089 1_555
Mg2 O12 2.121810 1_555
Mg2 O50 2.153275 1_555
Mg3 O15 1.936084 1_555
Mg3 O17 1.973078 1_555
Mg3 O51 2.003167 1_555
Mg3 O52 2.053089 1_555
Mg3 O16 2.121810 1_555
Mg3 O53 2.153275 1_555
Mg4 O25 1.936084 1_554
Mg4 O26 1.973078 1_554
Mg4 O61 2.003167 1_555
Mg4 O60 2.053089 1_555
Mg4 O24 2.121810 1_554
Mg4 O62 2.153275 1_555
Mg5 O27 1.936084 1_555
Mg5 O29 1.973078 1_555
Mg5 O63 2.003167 1_555
Mg5 O64 2.053089 1_555
Mg5 O28 2.121810 1_555
Mg5 O65 2.153275 1_555
O0 S0 1.442108 1_555
O1 P0 1.490774 1_555
O2 P1 1.489713 1_555
O3 P2 1.490774 1_555
O4 S1 1.442108 1_555
O5 P3 1.489713 1_555
O6 P3 1.611154 1_565
O6 Ta0 1.953267 1_565
O7 P2 1.608804 1_555
O7 Ta0 1.958861 1_455
O8 S1 1.518402 1_455
O8 Ta0 2.060982 1_465
O9 P0 1.608804 1_555
O9 Ta1 1.958861 1_565
O10 P1 1.611154 1_455
O10 Ta1 1.953267 1_455
O11 S0 1.518402 1_565
O11 Ta1 2.060982 1_465
O12 S2 1.442108 1_555
O13 P4 1.490774 1_555
O14 P5 1.489713 1_555
O15 P6 1.490774 1_555
O16 S3 1.442108 1_555
O17 P7 1.489713 1_555
O18 P7 1.611154 1_555
O18 Ta2 1.953267 1_554
O19 P6 1.608804 1_555
O19 Ta2 1.958861 1_554
O20 S3 1.518402 1_555
O20 Ta2 2.060982 1_554
O21 P4 1.608804 1_555
O21 Ta3 1.958861 1_555
O22 P5 1.611154 1_555
O22 Ta3 1.953267 1_555
O23 S2 1.518402 1_555
O23 Ta3 2.060982 1_555
O24 S4 1.442108 1_555
O25 P8 1.490774 1_555
O26 P9 1.489713 1_555
O27 P10 1.490774 1_555
O28 S5 1.442108 1_555
O29 P11 1.489713 1_555
O30 P11 1.611154 1_555
O30 Ta4 1.953267 1_555
O31 P10 1.608804 1_555
O31 Ta4 1.958861 1_555
O32 S5 1.518402 1_555
O32 Ta4 2.060982 1_555
O33 P8 1.608804 1_555
O33 Ta5 1.958861 1_555
O34 P9 1.611154 1_555
O34 Ta5 1.953267 1_555
O35 S4 1.518402 1_555
O35 Ta5 2.060982 1_555
O36 P11 1.507150 1_555
O37 P10 1.504694 1_555
O38 S5 1.447158 1_555
O39 P8 1.504694 1_555
O40 P9 1.507150 1_555
O41 S4 1.447158 1_555
O42 S2 1.533727 1_555
O42 Ta0 2.048566 1_555
O43 P4 1.599165 1_555
O43 Ta0 1.989273 1_455
O44 P5 1.603547 1_555
O44 Ta0 1.990781 1_565
O45 P6 1.599165 1_555
O45 Ta1 1.989273 1_565
O46 S3 1.533727 1_555
O46 Ta1 2.048566 1_555
O47 P7 1.603547 1_555
O47 Ta1 1.990781 1_455
O48 P3 1.507150 1_555
O49 P2 1.504694 1_555
O50 S1 1.447158 1_555
O51 P0 1.504694 1_555
O52 P1 1.507150 1_555
O53 S0 1.447158 1_555
O54 S4 1.533739 1_555
O54 Ta2 2.048566 1_555
O55 P8 1.599151 1_655
O55 Ta2 1.989273 1_555
O56 P9 1.603545 1_545
O56 Ta2 1.990781 1_555
O57 P10 1.599150 1_545
O57 Ta3 1.989273 1_555
O58 S5 1.533739 1_555
O58 Ta3 2.048566 1_555
O59 P11 1.603545 1_655
O59 Ta3 1.990781 1_555
O60 P7 1.507161 1_555
O61 P6 1.504680 1_455
O62 S3 1.447152 1_565
O63 P4 1.504680 1_565
O64 P5 1.507161 1_555
O65 S2 1.447152 1_455
O66 S0 1.533727 1_565
O66 Ta4 2.048566 1_555
O67 P0 1.599165 1_555
O67 Ta4 1.989273 1_555
O68 P1 1.603547 1_455
O68 Ta4 1.990781 1_555
O69 P2 1.599165 1_555
O69 Ta5 1.989273 1_555
O70 S1 1.533727 1_455
O70 Ta5 2.048566 1_555
O71 P3 1.603547 1_565
O71 Ta5 1.990781 1_555
