# generated using pymatgen
data_SbN3Cl4
_symmetry_space_group_name_H-M   'P 1'
_cell_length_a   9.80845100
_cell_length_b   8.48077200
_cell_length_c   13.17130417
_cell_angle_alpha   53.57123009
_cell_angle_beta   90.00000000
_cell_angle_gamma   90.00000000
_symmetry_Int_Tables_number   1
_chemical_formula_structural   SbN3Cl4
_chemical_formula_sum   'Sb4 N12 Cl16'
_cell_volume   881.54058866
_cell_formula_units_Z   4
loop_
 _symmetry_equiv_pos_site_id
 _symmetry_equiv_pos_as_xyz
  1  'x, y, z'
loop_
 _atom_site_type_symbol
 _atom_site_label
 _atom_site_symmetry_multiplicity
 _atom_site_fract_x
 _atom_site_fract_y
 _atom_site_fract_z
 _atom_site_occupancy
  Sb  Sb0  1  0.31743600  0.95725800  0.48671100  1
  Sb  Sb1  1  0.81743600  0.04274200  0.01328900  1
  Sb  Sb2  1  0.68256400  0.04274200  0.51328900  1
  Sb  Sb3  1  0.18256400  0.95725800  0.98671100  1
  N  N0  1  0.51302300  0.37073800  0.16445800  1
  N  N1  1  0.01302300  0.62926200  0.33554200  1
  N  N2  1  0.48697700  0.62926200  0.83554200  1
  N  N3  1  0.98697700  0.37073800  0.66445800  1
  N  N4  1  0.48638500  0.76188300  0.73172800  1
  N  N5  1  0.98638500  0.23811700  0.76827200  1
  N  N6  1  0.51493700  0.09094800  0.37960300  1
  N  N7  1  0.01493700  0.90905200  0.12039700  1
  N  N8  1  0.48506300  0.90905200  0.62039700  1
  N  N9  1  0.98506300  0.09094800  0.87960300  1
  N  N10  1  0.51361500  0.23811700  0.26827200  1
  N  N11  1  0.01361500  0.76188300  0.23172800  1
  Cl  Cl0  1  0.26997700  0.25620600  0.45604100  1
  Cl  Cl1  1  0.30227800  0.06215100  0.80130200  1
  Cl  Cl2  1  0.69772200  0.93784900  0.19869800  1
  Cl  Cl3  1  0.19772200  0.06215100  0.30130200  1
  Cl  Cl4  1  0.34691400  0.79114300  0.14746400  1
  Cl  Cl5  1  0.84691400  0.20885700  0.35253600  1
  Cl  Cl6  1  0.65308600  0.20885700  0.85253600  1
  Cl  Cl7  1  0.15308600  0.79114300  0.64746400  1
  Cl  Cl8  1  0.73002300  0.74379400  0.54395900  1
  Cl  Cl9  1  0.23002300  0.25620600  0.95604100  1
  Cl  Cl10  1  0.38348300  0.66246600  0.51853100  1
  Cl  Cl11  1  0.88348300  0.33753400  0.98146900  1
  Cl  Cl12  1  0.61651700  0.33753400  0.48146900  1
  Cl  Cl13  1  0.11651700  0.66246600  0.01853100  1
  Cl  Cl14  1  0.80227800  0.93784900  0.69869800  1
  Cl  Cl15  1  0.76997700  0.74379400  0.04395900  1
loop_
_geom_bond_atom_site_label_1
_geom_bond_atom_site_label_2
_geom_bond_distance
_geom_bond_site_symmetry_2
N0 N10 1.143782 1_555
N1 N11 1.143782 1_555
N2 N4 1.143782 1_555
N3 N5 1.143782 1_555
N4 N8 1.238779 1_555
N5 N9 1.238779 1_555
N6 Sb2 2.261845 1_555
N6 Sb0 2.264670 1_545
N7 Sb3 2.261845 1_554
N7 Sb1 2.264670 1_465
N8 Sb0 2.261845 1_555
N8 Sb2 2.264670 1_565
N9 Sb1 2.261845 1_556
N9 Sb3 2.264670 1_645
N10 N6 1.238779 1_555
N11 N7 1.238779 1_555
Cl0 Sb0 2.364597 1_545
Cl1 Sb3 2.356651 1_545
Cl2 Sb1 2.356651 1_565
Cl3 Sb0 2.356651 1_545
Cl4 Sb3 2.350271 1_554
Cl5 Sb2 2.350271 1_555
Cl6 Sb1 2.350271 1_556
Cl7 Sb0 2.350271 1_555
Cl8 Sb2 2.364597 1_565
Cl9 Sb3 2.364597 1_545
Cl10 Sb0 2.366690 1_555
Cl11 Sb1 2.366690 1_556
Cl12 Sb2 2.366690 1_555
Cl13 Sb3 2.366690 1_554
Cl14 Sb2 2.356651 1_565
Cl15 Sb1 2.364597 1_565
