# generated using pymatgen
data_MgFe6(O5F)2
_symmetry_space_group_name_H-M   'P 1'
_cell_length_a   8.12068556
_cell_length_b   5.72300175
_cell_length_c   5.93771625
_cell_angle_alpha   67.30955462
_cell_angle_beta   62.80500634
_cell_angle_gamma   65.37633316
_symmetry_Int_Tables_number   1
_chemical_formula_structural   MgFe6(O5F)2
_chemical_formula_sum   'Mg1 Fe6 O10 F2'
_cell_volume   216.51989725
_cell_formula_units_Z   1
loop_
 _symmetry_equiv_pos_site_id
 _symmetry_equiv_pos_as_xyz
  1  'x, y, z'
loop_
 _atom_site_type_symbol
 _atom_site_label
 _atom_site_symmetry_multiplicity
 _atom_site_fract_x
 _atom_site_fract_y
 _atom_site_fract_z
 _atom_site_occupancy
  Mg  Mg0  1  0.33608628  0.66259731  0.16232951  1
  Fe  Fe0  1  0.86876203  0.68064450  0.68798637  1
  Fe  Fe1  1  0.66831373  0.32655764  0.34868562  1
  Fe  Fe2  1  0.32060706  0.65870057  0.66344971  1
  Fe  Fe3  1  0.10566035  0.30598920  0.31286875  1
  Fe  Fe4  1  0.53701443  0.04243602  0.02907113  1
  Fe  Fe5  1  0.97352400  0.00465339  0.99308801  1
  O  O0  1  0.69053430  0.04474534  0.66316319  1
  O  O1  1  0.34354330  0.39309668  0.00475944  1
  O  O2  1  0.94299767  0.25006828  0.19623582  1
  O  O3  1  0.03733101  0.74952222  0.79707798  1
  O  O4  1  0.39755456  0.40554479  0.47282318  1
  O  O5  1  0.69703248  0.09272276  0.15006744  1
  O  O6  1  0.30635779  0.95142369  0.32431726  1
  O  O7  1  0.63826541  0.65422438  0.03402985  1
  O  O8  1  0.97587433  0.30609670  0.68270206  1
  O  O9  1  0.03017703  0.69664592  0.30558325  1
  F  F0  1  0.27892227  0.92536425  0.85449300  1
  F  F1  1  0.61036899  0.59896635  0.54345742  1
loop_
_geom_bond_atom_site_label_1
_geom_bond_atom_site_label_2
_geom_bond_distance
_geom_bond_site_symmetry_2
Mg0 O4 1.987226 1_555
Mg0 O1 2.059507 1_555
Mg0 O6 2.097019 1_555
Mg0 O9 2.173886 1_555
Mg0 O7 2.196759 1_555
Fe0 O8 1.955905 1_555
Fe0 O0 1.975696 1_565
Fe0 O3 1.976356 1_655
Fe0 O9 2.025181 1_655
Fe0 O7 2.056467 1_556
Fe1 O4 1.878720 1_555
Fe1 O2 1.906072 1_555
Fe1 O0 1.965319 1_555
Fe1 O5 1.985510 1_555
Fe1 O7 2.097407 1_555
Fe2 O4 1.906560 1_555
Fe2 O3 1.960866 1_555
Fe2 O1 2.045679 1_556
Fe2 O6 2.079323 1_555
Fe3 O2 1.919978 1_455
Fe3 O8 1.953993 1_455
Fe3 O6 2.004343 1_545
Fe3 O9 2.045411 1_555
Fe3 O1 2.048355 1_555
Fe4 O5 1.900541 1_555
Fe4 O0 1.946954 1_554
Fe4 O1 1.967998 1_555
Fe4 O6 1.990020 1_545
Fe4 O7 2.015545 1_545
Fe5 O5 1.915904 1_556
Fe5 O3 1.970879 1_645
Fe5 O8 1.978753 1_555
Fe5 O2 2.057355 1_556
Fe5 O9 2.083952 1_646
F0 Mg0 1.972600 1_556
F0 Fe2 2.069909 1_555
F0 Fe5 2.125695 1_465
F1 Fe2 2.036319 1_555
F1 Fe1 2.066800 1_555
