# generated using pymatgen
data_MgTe4Mo4(SeS)2
_symmetry_space_group_name_H-M   'P 1'
_cell_length_a   3.39942403
_cell_length_b   3.39936626
_cell_length_c   45.13679542
_cell_angle_alpha   90.04204322
_cell_angle_beta   89.99017348
_cell_angle_gamma   120.00865522
_symmetry_Int_Tables_number   1
_chemical_formula_structural   MgTe4Mo4(SeS)2
_chemical_formula_sum   'Mg1 Te4 Mo4 Se2 S2'
_cell_volume   451.67561159
_cell_formula_units_Z   1
loop_
 _symmetry_equiv_pos_site_id
 _symmetry_equiv_pos_as_xyz
  1  'x, y, z'
loop_
 _atom_site_type_symbol
 _atom_site_label
 _atom_site_symmetry_multiplicity
 _atom_site_fract_x
 _atom_site_fract_y
 _atom_site_fract_z
 _atom_site_occupancy
  Mg  Mg0  1  0.99920000  0.99815100  0.55401800  1
  Te  Te0  1  0.33352700  0.66718100  0.32345100  1
  Te  Te1  1  0.33313900  0.66654600  0.70558200  1
  Te  Te2  1  0.33344200  0.66673300  0.24041100  1
  Te  Te3  1  0.33313100  0.66611300  0.62226600  1
  Mo  Mo0  1  0.33344100  0.66680000  0.09389300  1
  Mo  Mo1  1  0.33359600  0.66721900  0.46226700  1
  Mo  Mo2  1  0.66678400  0.33362800  0.28189600  1
  Mo  Mo3  1  0.66642100  0.33298900  0.66413500  1
  Se  Se0  1  0.66665300  0.33312000  0.05738800  1
  Se  Se1  1  0.66681900  0.33375500  0.13044900  1
  S  S0  1  0.66667900  0.33321200  0.42925000  1
  S  S1  1  0.66716700  0.33455100  0.49582600  1
loop_
_geom_bond_atom_site_label_1
_geom_bond_atom_site_label_2
_geom_bond_distance
_geom_bond_site_symmetry_2
Mo0 Se0 2.562474 1_455
Mo0 Se0 2.562518 1_555
Mo0 Se0 2.562623 1_565
Mo0 Se1 2.563645 1_565
Mo0 Se1 2.564151 1_455
Mo0 Se1 2.564261 1_555
Mo1 S0 2.463485 1_565
Mo1 S0 2.464521 1_455
Mo1 S0 2.464766 1_555
Mo1 S1 2.478791 1_455
Mo1 S1 2.478894 1_555
Mo1 S1 2.479701 1_565
Mo2 Te2 2.711940 1_545
Mo2 Te2 2.712779 1_655
Mo2 Te2 2.712905 1_555
Mo2 Te0 2.714444 1_555
Mo2 Te0 2.714530 1_655
Mo2 Te0 2.715197 1_545
Mo3 Te1 2.711112 1_655
Mo3 Te1 2.711141 1_555
Mo3 Te1 2.711820 1_545
Mo3 Te3 2.723887 1_545
Mo3 Te3 2.724834 1_555
Mo3 Te3 2.724885 1_655
