# generated using pymatgen
data_Na4Sc3Nb(PO4)6
_symmetry_space_group_name_H-M   'P 1'
_cell_length_a   8.92931339
_cell_length_b   8.92215427
_cell_length_c   22.79033360
_cell_angle_alpha   89.94428095
_cell_angle_beta   90.08953641
_cell_angle_gamma   119.98695942
_symmetry_Int_Tables_number   1
_chemical_formula_structural   Na4Sc3Nb(PO4)6
_chemical_formula_sum   'Na12 Sc9 Nb3 P18 O72'
_cell_volume   1572.62661372
_cell_formula_units_Z   3
loop_
 _symmetry_equiv_pos_site_id
 _symmetry_equiv_pos_as_xyz
  1  'x, y, z'
loop_
 _atom_site_type_symbol
 _atom_site_label
 _atom_site_symmetry_multiplicity
 _atom_site_fract_x
 _atom_site_fract_y
 _atom_site_fract_z
 _atom_site_occupancy
  Na  Na0  1  0.63632042  0.99961666  0.25073105  1
  Na  Na1  1  0.36309777  0.36327117  0.25077808  1
  Na  Na2  1  0.99994971  0.63706590  0.25036439  1
  Na  Na3  1  0.29892247  0.33219828  0.58542199  1
  Na  Na4  1  0.03523198  0.69978445  0.58534579  1
  Na  Na5  1  0.66593989  0.70202493  0.08171287  1
  Na  Na6  1  0.99011092  0.99915338  0.49738102  1
  Na  Na7  1  0.00992996  0.00916337  0.99639628  1
  Na  Na8  1  0.66684481  0.33368345  0.82764495  1
  Na  Na9  1  0.66645718  0.33328017  0.33481003  1
  Na  Na10  1  0.32313434  0.66618089  0.16224941  1
  Na  Na11  1  0.34512759  0.67760650  0.66684298  1
  Sc  Sc0  1  0.00075736  0.00012311  0.35413091  1
  Sc  Sc1  1  0.99963396  0.99946602  0.85179685  1
  Sc  Sc2  1  0.99162654  0.99924125  0.65159066  1
  Sc  Sc3  1  0.00729101  0.00666598  0.14520023  1
  Sc  Sc4  1  0.66608325  0.33108770  0.68843807  1
  Sc  Sc5  1  0.66725317  0.33146982  0.18212308  1
  Sc  Sc6  1  0.32685776  0.66623583  0.01787921  1
  Sc  Sc7  1  0.33981454  0.67266783  0.51631409  1
  Sc  Sc8  1  0.33358000  0.66674307  0.32007224  1
  Nb  Nb0  1  0.66620193  0.33125037  0.97741200  1
  Nb  Nb1  1  0.66725505  0.33191523  0.47953769  1
  Nb  Nb2  1  0.33230614  0.66591394  0.81309627  1
  P  P0  1  0.29152161  0.99927116  0.25013383  1
  P  P1  1  0.70741752  0.70808084  0.24891677  1
  P  P2  1  0.00080997  0.29231365  0.25025009  1
  P  P3  1  0.29248797  0.29223011  0.75046914  1
  P  P4  1  0.99964167  0.70746594  0.75031545  1
  P  P5  1  0.70723961  -0.00004394  0.75203472  1
  P  P6  1  0.95682854  0.33225805  0.58352886  1
  P  P7  1  0.37682019  0.04182318  0.58402529  1
  P  P8  1  0.66617396  0.62275211  0.58374276  1
  P  P9  1  0.95882383  0.62375558  0.08343385  1
  P  P10  1  0.66603549  0.04035169  0.08308064  1
  P  P11  1  0.37561810  0.33322177  0.08255365  1
  P  P12  1  0.62363768  0.66790168  0.91872266  1
  P  P13  1  0.04409715  0.37602185  0.91756800  1
  P  P14  1  0.33178113  0.95563331  0.91728609  1
  P  P15  1  0.62979096  0.96209244  0.41638480  1
  P  P16  1  0.33272248  0.37081794  0.41801102  1
  P  P17  1  0.03815231  0.66726772  0.41779951  1
  O  O0  1  0.20960191  0.03275476  0.30396814  1
  O  O1  1  0.82526328  0.79418941  0.30206309  1
  O  O2  1  0.96792023  0.17704639  0.30409176  1
  O  O3  1  0.20201951  0.18080383  0.80354643  1
  O  O4  1  0.97831764  0.79762932  0.80341477  1
  O  O5  1  0.81663889  0.02260555  0.80580907  1
  O  O6  1  0.78176595  0.96341060  0.69589017  1
  O  O7  1  0.18620885  0.22148875  0.69272492  1
  O  O8  1  0.03442645  0.81366955  0.69258404  1
  O  O9  1  0.78589471  0.81746921  0.19265819  1
  O  O10  1  0.03308307  0.20991384  0.19572138  1
  O  O11  1  0.17672887  0.96709852  0.19557118  1
  O  O12  1  0.87305403  0.36506034  0.63628303  1
  O  O13  1  0.48754027  0.12840486  0.63757597  1
  O  O14  1  0.63545572  0.50733308  0.63690007  1
  O  O15  1  0.87734487  0.51998161  0.14038872  1
  O  O16  1  0.64241227  0.12084154  0.13978983  1
  O  O17  1  0.48413876  0.36183649  0.13907546  1
  O  O18  1  0.47709408  0.31475944  0.02908909  1
  O  O19  1  0.83605933  0.52327097  0.03008217  1
  O  O20  1  0.68437045  0.15996340  0.02962182  1
  O  O21  1  0.47257195  0.16042311  0.52893942  1
  O  O22  1  0.69004343  0.52759703  0.52853448  1
  O  O23  1  0.84094132  0.31209760  0.52815265  1
  O  O24  1  0.54266837  0.68858257  0.97484026  1
  O  O25  1  0.15153170  0.46130993  0.97188634  1
  O  O26  1  0.31058622  0.84905364  0.97177701  1
  O  O27  1  0.53836171  0.84964038  0.46968074  1
  O  O28  1  0.31268094  0.45822573  0.47296482  1
  O  O29  1  0.14526959  0.68708362  0.47287851  1
  O  O30  1  0.11442746  0.63424240  0.36145005  1
  O  O31  1  0.52263880  0.88975814  0.35934078  1
  O  O32  1  0.36635836  0.48044285  0.36156403  1
  O  O33  1  0.13192669  0.49416537  0.86288560  1
  O  O34  1  0.36116542  0.86747835  0.86272357  1
  O  O35  1  0.50360215  0.63907599  0.86471036  1
  O  O36  1  0.01287574  0.82375122  0.41220456  1
  O  O37  1  0.81118473  0.98723463  0.41168358  1
  O  O38  1  0.17607982  0.18945148  0.41232044  1
  O  O39  1  0.01714038  0.19478188  0.90983630  1
  O  O40  1  0.17802123  0.98347352  0.90980206  1
  O  O41  1  0.80493323  0.82193466  0.91044251  1
  O  O42  1  0.97799687  0.17148220  0.58619253  1
  O  O43  1  0.19745723  0.03127427  0.58568068  1
  O  O44  1  0.83527151  0.79868917  0.58624656  1
  O  O45  1  0.96173435  0.79853263  0.08531316  1
  O  O46  1  0.82975719  0.02322642  0.08507692  1
  O  O47  1  0.19844719  0.16890908  0.08486749  1
  O  O48  1  0.67965374  0.15538319  0.74548515  1
  O  O49  1  0.47604615  0.32084228  0.74519116  1
  O  O50  1  0.84457810  0.52391365  0.74488488  1
  O  O51  1  0.68531357  0.52324546  0.24421907  1
  O  O52  1  0.83832532  0.31405444  0.24433265  1
  O  O53  1  0.47566037  0.16177076  0.24411078  1
  O  O54  1  0.63701792  0.49706671  0.92451757  1
  O  O55  1  0.86082668  0.36320507  0.92452082  1
  O  O56  1  0.50241889  0.13910913  0.92408808  1
  O  O57  1  0.64490888  0.14530757  0.42542481  1
  O  O58  1  0.50076019  0.35489763  0.42588246  1
  O  O59  1  0.85414027  0.49913583  0.42542070  1
  O  O60  1  0.36701494  0.50037301  0.07609791  1
  O  O61  1  0.13734860  0.64285359  0.07723018  1
  O  O62  1  0.50716459  0.85826971  0.07690233  1
  O  O63  1  0.34898894  0.85807450  0.57666231  1
  O  O64  1  0.50213740  0.63631126  0.57556966  1
  O  O65  1  0.13805946  0.49612100  0.57560810  1
  O  O66  1  0.31210086  0.83625872  0.25630795  1
  O  O67  1  0.52403914  0.68740033  0.25593500  1
  O  O68  1  0.16331927  0.47628358  0.25638190  1
  O  O69  1  0.31025168  0.47792891  0.76017477  1
  O  O70  1  0.16777981  0.69033310  0.76002165  1
  O  O71  1  0.52180555  0.83198585  0.76065713  1
loop_
_geom_bond_atom_site_label_1
_geom_bond_atom_site_label_2
_geom_bond_distance
_geom_bond_site_symmetry_2
Na0 O67 2.446840 1_555
Na0 O52 2.467200 1_565
Na0 O53 2.499501 1_565
Na0 O66 2.510922 1_555
Na0 O31 2.669568 1_555
Na0 O16 2.738947 1_565
Na0 O2 2.838879 1_565
Na0 O9 2.890669 1_555
Na1 O68 2.452391 1_555
Na1 O53 2.464299 1_555
Na1 O51 2.496714 1_555
Na1 O67 2.507610 1_555
Na1 O32 2.728204 1_555
Na1 O17 2.769766 1_555
Na1 O0 2.828813 1_555
Na1 O10 2.844572 1_555
Na2 O66 2.448160 1_655
Na2 O51 2.468032 1_555
Na2 O52 2.499991 1_555
Na2 O68 2.509088 1_655
Na2 O15 2.724901 1_555
Na2 O30 2.733582 1_655
Na2 O1 2.825129 1_555
Na2 O11 2.841571 1_655
Na3 O43 2.365994 1_555
Na3 O64 2.404951 1_555
Na3 O42 2.482132 1_455
Na3 O65 2.520043 1_555
Na3 O7 2.641628 1_555
Na3 O28 2.775858 1_555
Na3 O14 2.854291 1_555
Na3 O21 2.965759 1_555
Na4 O44 2.354211 1_455
Na4 O65 2.421450 1_555
Na4 O63 2.434935 1_555
Na4 O43 2.561881 1_565
Na4 O8 2.649116 1_555
Na4 O29 2.769084 1_555
Na4 O12 2.835329 1_455
Na4 O22 2.965649 1_455
Na5 O45 2.334610 1_555
Na5 O60 2.361552 1_555
Na5 O62 2.437261 1_555
Na5 O46 2.483575 1_565
Na5 O24 2.649277 1_554
Na5 O9 2.737736 1_555
Na5 O17 2.937771 1_555
Na5 O19 2.943921 1_555
Na6 O37 2.489825 1_555
Na6 O38 2.565855 1_665
Na6 O36 2.565897 1_655
Na6 O42 2.577884 1_565
Na6 O44 2.596560 1_555
Na6 O43 2.649299 1_665
Na7 O39 2.554602 1_555
Na7 O47 2.554828 1_556
Na7 O40 2.560104 1_545
Na7 O46 2.627008 1_456
Na7 O41 2.630037 1_445
Na7 O45 2.647690 1_446
Na8 O48 2.497640 1_555
Na8 O49 2.498444 1_555
Na8 O50 2.503486 1_555
Na8 O56 2.730442 1_555
Na8 O54 2.732453 1_555
Na8 O55 2.734463 1_555
Na9 O59 2.603638 1_555
Na9 O57 2.605091 1_555
Na9 O58 2.613413 1_555
Na9 O51 2.621567 1_555
Na9 O53 2.627938 1_555
Na9 O52 2.628731 1_555
Na10 O61 2.489047 1_555
Na10 O62 2.570850 1_555
Na10 O60 2.604715 1_555
Na10 O66 2.657810 1_555
Na10 O68 2.663655 1_555
Na10 O67 2.731693 1_555
Na11 O63 2.599259 1_555
Na11 O71 2.603922 1_555
Na11 O64 2.637291 1_555
Na11 O70 2.687182 1_555
Na11 O69 2.689874 1_555
Na11 O65 2.714002 1_555
Nb0 O18 2.004400 1_556
Nb0 O20 2.005335 1_556
Nb0 O56 2.011697 1_555
Nb0 O55 2.016202 1_555
Nb0 O19 2.019240 1_556
Nb0 O54 2.022564 1_555
Nb1 O23 1.983046 1_555
Nb1 O21 1.993661 1_555
Nb1 O22 1.996110 1_555
Nb1 O57 2.000973 1_555
Nb1 O59 2.011457 1_555
Nb1 O58 2.011499 1_555
Nb2 O69 1.994890 1_555
Nb2 O70 1.995678 1_555
Nb2 O71 1.995900 1_555
Nb2 O33 2.024698 1_555
Nb2 O34 2.029684 1_555
Nb2 O35 2.034823 1_555
O0 P0 1.533483 1_545
O0 Sc0 2.081501 1_555
O1 P1 1.534375 1_555
O1 Sc0 2.088062 1_665
O2 P2 1.531790 1_655
O2 Sc0 2.082403 1_655
O3 P3 1.517271 1_555
O3 Sc1 2.042739 1_445
O4 P4 1.517759 1_555
O4 Sc1 2.038522 1_555
O5 P5 1.515402 1_555
O5 Sc1 2.035327 1_545
O6 P5 1.551385 1_565
O6 Sc2 2.009849 1_555
O7 P3 1.558790 1_555
O7 Sc2 2.093865 1_445
O8 P4 1.558884 1_455
O8 Sc2 2.094902 1_455
O9 P1 1.550556 1_555
O9 Sc3 2.143557 1_665
O10 P2 1.543563 1_555
O10 Sc3 2.062270 1_555
O11 P0 1.543358 1_555
O11 Sc3 2.063786 1_565
O12 P6 1.520874 1_555
O12 Sc4 2.089599 1_555
O13 P7 1.516010 1_555
O13 Sc4 2.066872 1_555
O14 P8 1.523031 1_555
O14 Sc4 2.086242 1_555
O15 P9 1.548775 1_555
O15 Sc5 2.025164 1_555
O16 P10 1.544234 1_555
O16 Sc5 2.024304 1_555
O17 P11 1.553366 1_555
O17 Sc5 2.036347 1_555
O18 P11 1.576671 1_555
O19 P9 1.580954 1_555
O20 P10 1.572741 1_555
O21 P7 1.588467 1_555
O22 P8 1.591575 1_555
O23 P6 1.583099 1_555
O24 P12 1.526160 1_555
O24 Sc6 2.082501 1_556
O25 P13 1.516651 1_555
O25 Sc6 2.007467 1_556
O26 P14 1.516852 1_555
O26 Sc6 2.004674 1_556
O27 P15 1.526574 1_555
O27 Sc7 1.992537 1_555
O28 P16 1.533254 1_555
O28 Sc7 2.057899 1_555
O29 P17 1.532794 1_555
O29 Sc7 2.057156 1_555
O30 P17 1.550485 1_555
O30 Sc8 2.059310 1_555
O31 P15 1.550032 1_555
O31 Sc8 2.061802 1_555
O32 P16 1.551426 1_555
O32 Sc8 2.055516 1_555
O33 P13 1.566336 1_555
O34 P14 1.563002 1_555
O35 P12 1.565622 1_555
O36 P17 1.526778 1_555
O36 Sc0 2.098903 1_565
O37 P15 1.524007 1_555
O37 Sc0 2.100266 1_665
O38 P16 1.526134 1_555
O38 Sc0 2.101760 1_555
O39 P13 1.521573 1_555
O39 Sc1 2.131290 1_445
O40 P14 1.521818 1_555
O40 Sc1 2.127306 1_455
O41 P12 1.523655 1_555
O41 Sc1 2.137356 1_555
O42 P6 1.538810 1_555
O42 Sc2 2.186276 1_545
O43 P7 1.557199 1_555
O43 Sc2 2.280068 1_445
O44 P8 1.542031 1_555
O44 Sc2 2.206862 1_555
O45 P9 1.547196 1_555
O45 Sc3 2.173663 1_665
O46 P10 1.544570 1_555
O46 Sc3 2.153915 1_655
O47 P11 1.528571 1_555
O47 Sc3 2.105506 1_555
O48 P5 1.531976 1_555
O48 Sc4 2.085185 1_555
O49 P3 1.532455 1_555
O49 Sc4 2.100558 1_555
O50 P4 1.532210 1_555
O50 Sc4 2.100478 1_555
O51 P1 1.563637 1_555
O51 Sc5 2.164401 1_555
O52 P2 1.562535 1_655
O52 Sc5 2.144232 1_555
O53 P0 1.562617 1_545
O53 Sc5 2.151550 1_555
O54 P12 1.592654 1_555
O55 P13 1.590586 1_655
O56 P14 1.591186 1_545
O57 P15 1.585186 1_545
O58 P16 1.586158 1_555
O59 P17 1.586439 1_655
O60 P11 1.538093 1_555
O60 Sc6 2.145724 1_555
O61 P9 1.522934 1_455
O61 Sc6 2.095314 1_555
O62 P10 1.538698 1_565
O62 Sc6 2.139499 1_555
O63 P7 1.539742 1_565
O63 Sc7 2.122120 1_555
O64 P8 1.539808 1_555
O64 Sc7 2.119625 1_555
O65 P6 1.557003 1_455
O65 Sc7 2.172477 1_555
O66 P0 1.560637 1_555
O66 Sc8 2.172765 1_555
O67 P1 1.561921 1_555
O67 Sc8 2.181000 1_555
O68 P2 1.561519 1_555
O68 Sc8 2.172869 1_555
O69 P3 1.599089 1_555
O70 P4 1.598337 1_455
O71 P5 1.595683 1_565
