# generated using pymatgen
data_GdIn2Rh
_symmetry_space_group_name_H-M   'P 1'
_cell_length_a   4.43370016
_cell_length_b   5.54850352
_cell_length_c   7.77701985
_cell_angle_alpha   90.00000000
_cell_angle_beta   90.00000000
_cell_angle_gamma   113.54942977
_symmetry_Int_Tables_number   1
_chemical_formula_structural   GdIn2Rh
_chemical_formula_sum   'Gd2 In4 Rh2'
_cell_volume   175.38404228
_cell_formula_units_Z   2
loop_
 _symmetry_equiv_pos_site_id
 _symmetry_equiv_pos_as_xyz
  1  'x, y, z'
loop_
 _atom_site_type_symbol
 _atom_site_label
 _atom_site_symmetry_multiplicity
 _atom_site_fract_x
 _atom_site_fract_y
 _atom_site_fract_z
 _atom_site_occupancy
  Gd  Gd0  1  0.93316171  0.86632341  0.25000000  1
  Gd  Gd1  1  0.06683829  0.13367659  0.75000000  1
  In  In0  1  0.35511022  0.71021943  0.55102648  1
  In  In1  1  0.64488978  0.28978057  0.44897452  1
  In  In2  1  0.35511022  0.71021943  0.94897352  1
  In  In3  1  0.64488978  0.28978057  0.05102548  1
  Rh  Rh0  1  0.78771109  0.57542419  0.75000000  1
  Rh  Rh1  1  0.21228891  0.42457581  0.25000000  1
loop_
_geom_bond_atom_site_label_1
_geom_bond_atom_site_label_2
_geom_bond_distance
_geom_bond_site_symmetry_2
Gd0 Rh1 2.839495 1_665
Gd0 Rh1 3.156420 1_555
Gd0 Rh1 3.156426 1_655
Gd0 In3 3.315759 1_555
Gd0 In1 3.315759 1_555
Gd0 In0 3.320476 1_555
Gd0 In2 3.320476 1_554
Gd0 In0 3.320479 1_655
Gd0 In2 3.320479 1_654
Gd0 In1 3.456605 1_665
Gd0 In3 3.456605 1_665
Gd0 In3 3.456608 1_565
Gd0 In1 3.456608 1_565
Gd1 Rh0 2.839495 1_445
Gd1 Rh0 3.156420 1_555
Gd1 Rh0 3.156426 1_455
Gd1 In2 3.315755 1_555
Gd1 In0 3.315755 1_555
Gd1 In1 3.320470 1_555
Gd1 In3 3.320470 1_556
Gd1 In1 3.320473 1_455
Gd1 In3 3.320473 1_456
Gd1 In0 3.456602 1_445
Gd1 In2 3.456602 1_445
Gd1 In2 3.456604 1_545
Gd1 In0 3.456604 1_545
In0 Rh1 2.755288 1_555
In0 Rh0 2.789083 1_555
In0 Rh0 2.789094 1_455
In1 Rh0 2.755281 1_555
In1 Rh1 2.789087 1_555
In1 Rh1 2.789098 1_655
In2 Rh1 2.755288 1_556
In2 Rh0 2.789083 1_555
In2 Rh0 2.789094 1_455
In3 Rh0 2.755281 1_554
In3 Rh1 2.789087 1_555
In3 Rh1 2.789098 1_655
