# generated using pymatgen
data_Bi4Br2O5
_symmetry_space_group_name_H-M   'P 1'
_cell_length_a   5.65025584
_cell_length_b   10.93906937
_cell_length_c   14.60015792
_cell_angle_alpha   81.97584392
_cell_angle_beta   90.00000000
_cell_angle_gamma   90.00000000
_symmetry_Int_Tables_number   1
_chemical_formula_structural   Bi4Br2O5
_chemical_formula_sum   'Bi16 Br8 O20'
_cell_volume   893.57918857
_cell_formula_units_Z   4
loop_
 _symmetry_equiv_pos_site_id
 _symmetry_equiv_pos_as_xyz
  1  'x, y, z'
loop_
 _atom_site_type_symbol
 _atom_site_label
 _atom_site_symmetry_multiplicity
 _atom_site_fract_x
 _atom_site_fract_y
 _atom_site_fract_z
 _atom_site_occupancy
  Bi  Bi0  1  0.26645006  0.79062568  0.15004410  1
  Bi  Bi1  1  0.76645006  0.20937432  0.84995590  1
  Bi  Bi2  1  0.76852423  0.64719008  0.30397924  1
  Bi  Bi3  1  0.26852423  0.35280992  0.69602076  1
  Bi  Bi4  1  0.21920422  0.73418898  0.88196270  1
  Bi  Bi5  1  0.71920422  0.26581102  0.11803730  1
  Bi  Bi6  1  0.66392828  0.59628850  0.04394606  1
  Bi  Bi7  1  0.16392828  0.40371150  0.95605394  1
  Bi  Bi8  1  0.18926009  0.43789137  0.21849151  1
  Bi  Bi9  1  0.68926009  0.56210863  0.78150849  1
  Bi  Bi10  1  0.75096894  0.27589583  0.37271609  1
  Bi  Bi11  1  0.25096894  0.72410417  0.62728391  1
  Bi  Bi12  1  0.26089372  0.07818669  0.54326783  1
  Bi  Bi13  1  0.76089372  0.92181331  0.45673217  1
  Bi  Bi14  1  0.75782589  0.90625478  0.70689439  1
  Bi  Bi15  1  0.25782589  0.09374522  0.29310561  1
  Br  Br0  1  0.26474875  0.78344320  0.38041848  1
  Br  Br1  1  0.76474875  0.21655680  0.61958152  1
  Br  Br2  1  0.78489202  0.61649604  0.55253693  1
  Br  Br3  1  0.28489202  0.38350396  0.44746307  1
  Br  Br4  1  0.76357172  0.94859018  0.22474696  1
  Br  Br5  1  0.78000130  0.87434187  0.94260259  1
  Br  Br6  1  0.28000130  0.12565813  0.05739741  1
  Br  Br7  1  0.26357172  0.05140982  0.77525304  1
  O  O0  1  0.30712041  0.69721321  0.03424105  1
  O  O1  1  0.80712041  0.30278679  0.96575895  1
  O  O2  1  0.01551828  0.65337684  0.19382789  1
  O  O3  1  0.51551828  0.34662316  0.80617211  1
  O  O4  1  0.51722681  0.65037968  0.19612251  1
  O  O5  1  0.01722681  0.34962032  0.80387749  1
  O  O6  1  0.81893056  0.45916530  0.29299557  1
  O  O7  1  0.31893056  0.54083470  0.70700443  1
  O  O8  1  0.97850574  0.42289356  0.09563173  1
  O  O9  1  0.47850574  0.57710644  0.90436827  1
  O  O10  1  0.47588323  0.42314820  0.09008436  1
  O  O11  1  0.97588323  0.57685180  0.90991564  1
  O  O12  1  0.00272958  0.92237674  0.57933764  1
  O  O13  1  0.50272958  0.07762326  0.42066236  1
  O  O14  1  0.51878156  0.92009614  0.58000697  1
  O  O15  1  0.01878156  0.07990386  0.41999303  1
  O  O16  1  0.49568185  0.25415062  0.26386267  1
  O  O17  1  0.50725075  0.75103028  0.74073590  1
  O  O18  1  0.00725075  0.24896972  0.25926410  1
  O  O19  1  0.99568185  0.74584938  0.73613733  1
loop_
_geom_bond_atom_site_label_1
_geom_bond_atom_site_label_2
_geom_bond_distance
_geom_bond_site_symmetry_2
Bi0 O2 2.098823 1_555
Bi0 O0 2.106638 1_555
Bi0 O4 2.127405 1_555
Bi0 Br0 3.353451 1_555
Bi1 O3 2.098823 1_555
Bi1 O1 2.106638 1_555
Bi1 O5 2.127405 1_655
Bi1 Br1 3.353451 1_555
Bi2 O6 2.104616 1_555
Bi2 O4 2.117012 1_555
Bi2 O2 2.123259 1_655
Bi2 Br4 3.338357 1_555
Bi2 Br0 3.434052 1_655
Bi2 Br0 3.468974 1_555
Bi3 O7 2.104616 1_555
Bi3 O5 2.117012 1_555
Bi3 O3 2.123259 1_555
Bi3 Br7 3.338357 1_555
Bi3 Br1 3.434052 1_555
Bi3 Br1 3.468974 1_455
Bi4 O11 2.196102 1_455
Bi4 O9 2.247073 1_555
Bi4 O0 2.258830 1_556
Bi4 O19 2.463427 1_455
Bi4 O17 2.613108 1_555
Bi4 Br5 3.109937 1_455
Bi5 O10 2.196102 1_555
Bi5 O8 2.247073 1_555
Bi5 O1 2.258830 1_554
Bi5 O16 2.463427 1_555
Bi5 O18 2.613108 1_655
Bi5 Br6 3.109937 1_555
Bi6 O10 2.194016 1_555
Bi6 O0 2.293415 1_555
Bi6 O9 2.326783 1_554
Bi6 O4 2.518058 1_555
Bi6 O8 2.631904 1_555
Bi6 O11 2.664120 1_554
Bi6 Br5 3.258003 1_554
Bi7 O11 2.194016 1_455
Bi7 O1 2.293415 1_455
Bi7 O8 2.326783 1_456
Bi7 O5 2.518058 1_555
Bi7 O9 2.631904 1_555
Bi7 O10 2.664120 1_556
Bi7 Br6 3.258003 1_556
Bi8 O8 2.178242 1_455
Bi8 O18 2.310727 1_555
Bi8 O6 2.384628 1_455
Bi8 O10 2.499585 1_555
Bi8 O2 2.532359 1_555
Bi8 O16 2.665449 1_555
Bi9 O9 2.178242 1_555
Bi9 O17 2.310727 1_555
Bi9 O7 2.384628 1_555
Bi9 O11 2.499585 1_555
Bi9 O3 2.532359 1_555
Bi9 O19 2.665449 1_555
Bi10 O16 2.183702 1_555
Bi10 O6 2.206797 1_555
Bi10 O18 2.250235 1_655
Bi10 O13 2.595706 1_555
Bi10 O15 2.636229 1_655
Bi10 Br3 3.141709 1_555
Bi11 O19 2.183702 1_455
Bi11 O7 2.206797 1_555
Bi11 O17 2.250235 1_555
Bi11 O12 2.595706 1_555
Bi11 O14 2.636229 1_555
Bi11 Br2 3.141709 1_455
Bi12 O12 2.249347 1_545
Bi12 O13 2.252681 1_555
Bi12 O15 2.258699 1_555
Bi12 O14 2.267748 1_545
Bi12 Br7 3.358714 1_555
Bi12 Br1 3.444142 1_455
Bi12 Br1 3.479693 1_555
Bi13 O13 2.249347 1_565
Bi13 O12 2.252681 1_655
Bi13 O14 2.258699 1_555
Bi13 O15 2.267748 1_665
Bi13 Br4 3.358714 1_555
Bi13 Br0 3.444142 1_555
Bi13 Br0 3.479693 1_655
Bi14 O19 2.204144 1_555
Bi14 O17 2.213069 1_555
Bi14 O14 2.280557 1_555
Bi14 O12 2.307069 1_655
Bi14 Br5 3.412513 1_555
Bi14 Br1 3.455517 1_565
Bi15 O16 2.204144 1_555
Bi15 O18 2.213069 1_555
Bi15 O15 2.280557 1_555
Bi15 O13 2.307069 1_555
Bi15 Br6 3.412513 1_555
Bi15 Br0 3.455517 1_545
