# generated using pymatgen
data_U3Se4
_symmetry_space_group_name_H-M   'P 1'
_cell_length_a   7.66935111
_cell_length_b   7.66870430
_cell_length_c   7.66873000
_cell_angle_alpha   109.43330600
_cell_angle_beta   109.46029540
_cell_angle_gamma   109.51696126
_symmetry_Int_Tables_number   1
_chemical_formula_structural   U3Se4
_chemical_formula_sum   'U6 Se8'
_cell_volume   347.21509574
_cell_formula_units_Z   2
loop_
 _symmetry_equiv_pos_site_id
 _symmetry_equiv_pos_as_xyz
  1  'x, y, z'
loop_
 _atom_site_type_symbol
 _atom_site_label
 _atom_site_symmetry_multiplicity
 _atom_site_fract_x
 _atom_site_fract_y
 _atom_site_fract_z
 _atom_site_occupancy
  U  U0  1  0.87509665  0.24993951  0.12510779  1
  U  U1  1  0.12507385  0.87498893  0.24993140  1
  U  U2  1  0.37518014  0.62506018  0.74997883  1
  U  U3  1  0.24996711  0.12477871  0.87487379  1
  U  U4  1  0.74990888  0.37513727  0.62520391  1
  U  U5  1  0.62472109  0.74996608  0.37479948  1
  Se  Se0  1  0.50002238  0.00008011  0.65138144  1
  Se  Se1  1  0.15140107  0.49996237  0.00000867  1
  Se  Se2  1  0.34857339  0.34848392  0.34872582  1
  Se  Se3  1  0.00001252  0.15137352  0.49982721  1
  Se  Se4  1  0.84855262  0.84853133  0.84873904  1
  Se  Se5  1  0.00002810  0.65126988  0.49983266  1
  Se  Se6  1  0.50002091  0.00015580  0.15153867  1
  Se  Se7  1  0.65144129  0.50027239  0.00005030  1
loop_
_geom_bond_atom_site_label_1
_geom_bond_atom_site_label_2
_geom_bond_distance
_geom_bond_site_symmetry_2
Se0 U4 2.990515 1_555
Se0 U1 2.993350 1_545
Se0 U5 2.993738 1_545
Se0 U2 3.138284 1_545
Se0 U3 3.139198 1_555
Se0 U0 3.141031 1_556
Se1 U0 2.991793 1_455
Se1 U4 2.993622 1_454
Se1 U1 2.993878 1_555
Se1 U5 3.137691 1_555
Se1 U2 3.139874 1_554
Se1 U3 3.141627 1_554
Se2 U4 2.992334 1_555
Se2 U5 2.992654 1_555
Se2 U2 2.993051 1_555
Se2 U1 3.137253 1_545
Se2 U0 3.138918 1_455
Se2 U3 3.142235 1_554
Se3 U5 2.992757 1_445
Se3 U1 2.994172 1_545
Se3 U3 2.994400 1_555
Se3 U0 3.137152 1_455
Se3 U2 3.139415 1_555
Se3 U4 3.143008 1_455
Se4 U1 2.992327 1_656
Se4 U3 2.992386 1_665
Se4 U0 2.993600 1_566
Se4 U2 3.136538 1_555
Se4 U4 3.138453 1_555
Se4 U5 3.142556 1_555
Se5 U4 2.992933 1_455
Se5 U0 2.993002 1_455
Se5 U2 2.993966 1_555
Se5 U1 3.138291 1_555
Se5 U3 3.139783 1_565
Se5 U5 3.142740 1_455
Se6 U0 2.991683 1_555
Se6 U3 2.992553 1_554
Se6 U2 2.995816 1_544
Se6 U1 3.137381 1_545
Se6 U5 3.138159 1_545
Se6 U4 3.140878 1_555
Se7 U2 2.991846 1_554
Se7 U5 2.993396 1_555
Se7 U3 2.993471 1_554
Se7 U1 3.138097 1_655
Se7 U4 3.138402 1_554
Se7 U0 3.142697 1_555
