# generated using pymatgen
data_Sm(FeGe)2
_symmetry_space_group_name_H-M   'P 1'
_cell_length_a   6.13218011
_cell_length_b   6.13218011
_cell_length_c   6.13218011
_cell_angle_alpha   142.23395029
_cell_angle_beta   142.23395029
_cell_angle_gamma   54.47655082
_symmetry_Int_Tables_number   1
_chemical_formula_structural   Sm(FeGe)2
_chemical_formula_sum   'Sm1 Fe2 Ge2'
_cell_volume   85.89684429
_cell_formula_units_Z   1
loop_
 _symmetry_equiv_pos_site_id
 _symmetry_equiv_pos_as_xyz
  1  'x, y, z'
loop_
 _atom_site_type_symbol
 _atom_site_label
 _atom_site_symmetry_multiplicity
 _atom_site_fract_x
 _atom_site_fract_y
 _atom_site_fract_z
 _atom_site_occupancy
  Sm  Sm0  1  0.00000000  -0.00000000  0.00000000  1
  Fe  Fe0  1  0.75000000  0.25000000  0.50000000  1
  Fe  Fe1  1  0.25000000  0.75000000  0.50000000  1
  Ge  Ge0  1  0.61628920  0.61628920  -0.00000000  1
  Ge  Ge1  1  0.38371080  0.38371080  0.00000000  1
loop_
_geom_bond_atom_site_label_1
_geom_bond_atom_site_label_2
_geom_bond_distance
_geom_bond_site_symmetry_2
Fe0 Ge0 2.462621 1_556
Fe0 Ge0 2.462621 1_545
Fe0 Ge1 2.462621 1_656
Fe0 Ge1 2.462621 1_555
Fe0 Sm0 3.371977 1_555
Fe0 Sm0 3.371977 1_656
Fe0 Sm0 3.371977 1_655
Fe0 Sm0 3.371977 1_666
Fe1 Ge0 2.462621 1_455
Fe1 Ge0 2.462621 1_556
Fe1 Ge1 2.462621 1_566
Fe1 Ge1 2.462621 1_555
Fe1 Sm0 3.371977 1_555
Fe1 Sm0 3.371977 1_565
Fe1 Sm0 3.371977 1_566
Fe1 Sm0 3.371977 1_666
Ge0 Ge1 2.536122 1_555
Ge0 Sm0 3.079815 1_655
Ge0 Sm0 3.079815 1_666
Ge0 Sm0 3.079815 1_554
Ge0 Sm0 3.079815 1_565
Ge1 Sm0 3.079815 1_655
Ge1 Sm0 3.079815 1_666
Ge1 Sm0 3.079815 1_554
Ge1 Sm0 3.079815 1_565
