# generated using pymatgen
data_BiPd
_symmetry_space_group_name_H-M   'P 1'
_cell_length_a   10.85224100
_cell_length_b   5.73430900
_cell_length_c   5.75015261
_cell_angle_alpha   78.89815893
_cell_angle_beta   90.00000000
_cell_angle_gamma   90.00000000
_symmetry_Int_Tables_number   1
_chemical_formula_structural   BiPd
_chemical_formula_sum   'Bi8 Pd8'
_cell_volume   351.13628233
_cell_formula_units_Z   8
loop_
 _symmetry_equiv_pos_site_id
 _symmetry_equiv_pos_as_xyz
  1  'x, y, z'
loop_
 _atom_site_type_symbol
 _atom_site_label
 _atom_site_symmetry_multiplicity
 _atom_site_fract_x
 _atom_site_fract_y
 _atom_site_fract_z
 _atom_site_occupancy
  Bi  Bi0  1  0.28720200  0.11313800  0.84859200  1
  Bi  Bi1  1  0.78720200  0.88686200  0.15140800  1
  Bi  Bi2  1  0.29249600  0.64054800  0.39682700  1
  Bi  Bi3  1  0.79249600  0.35945200  0.60317300  1
  Bi  Bi4  1  0.50903700  0.11669700  0.34357200  1
  Bi  Bi5  1  0.00903700  0.88330300  0.65642800  1
  Bi  Bi6  1  0.50492900  0.64930400  0.89465200  1
  Bi  Bi7  1  0.00492900  0.35069600  0.10534800  1
  Pd  Pd0  1  0.55926900  0.17045400  0.82403900  1
  Pd  Pd1  1  0.05926900  0.82954600  0.17596100  1
  Pd  Pd2  1  0.56651900  0.59765600  0.40863800  1
  Pd  Pd3  1  0.06651900  0.40234400  0.59136200  1
  Pd  Pd4  1  0.73534600  0.84265700  0.66777500  1
  Pd  Pd5  1  0.23534600  0.15734300  0.33222500  1
  Pd  Pd6  1  0.73030400  0.40626600  0.08783100  1
  Pd  Pd7  1  0.23030400  0.59373400  0.91216900  1
loop_
_geom_bond_atom_site_label_1
_geom_bond_atom_site_label_2
_geom_bond_distance
_geom_bond_site_symmetry_2
Bi0 Pd5 2.895890 1_556
Bi0 Pd7 2.915101 1_555
Bi0 Pd0 2.971121 1_555
Bi0 Pd5 2.984490 1_555
Bi0 Pd7 2.994428 1_545
Bi0 Pd3 3.119130 1_555
Bi0 Pd1 3.335832 1_546
Bi1 Pd4 2.895890 1_554
Bi1 Pd6 2.915101 1_555
Bi1 Pd1 2.971121 1_655
Bi1 Pd4 2.984490 1_555
Bi1 Pd6 2.994428 1_565
Bi1 Pd2 3.119130 1_555
Bi1 Pd0 3.335832 1_564
Bi2 Pd3 2.922788 1_555
Bi2 Pd7 2.929550 1_554
Bi2 Pd5 2.932000 1_555
Bi2 Pd1 2.943395 1_555
Bi2 Pd5 2.980069 1_565
Bi2 Pd2 2.983613 1_555
Bi2 Pd7 3.000393 1_555
Bi3 Pd2 2.922788 1_555
Bi3 Pd6 2.929550 1_556
Bi3 Pd4 2.932000 1_555
Bi3 Pd0 2.943395 1_555
Bi3 Pd4 2.980069 1_545
Bi3 Pd3 2.983613 1_655
Bi3 Pd6 3.000393 1_555
Bi4 Pd0 2.890156 1_555
Bi4 Pd2 2.921109 1_555
Bi4 Pd5 2.979023 1_555
Bi4 Pd2 2.993139 1_545
Bi4 Pd0 2.993672 1_554
Bi4 Pd6 3.121748 1_555
Bi4 Pd4 3.293671 1_545
Bi5 Pd1 2.890156 1_555
Bi5 Pd3 2.921109 1_555
Bi5 Pd4 2.979023 1_455
Bi5 Pd3 2.993139 1_565
Bi5 Pd1 2.993672 1_556
Bi5 Pd7 3.121748 1_555
Bi5 Pd5 3.293671 1_565
Bi6 Pd0 2.912355 1_555
Bi6 Pd6 2.926097 1_556
Bi6 Pd4 2.937160 1_555
Bi6 Pd2 2.943348 1_555
Bi6 Pd2 2.988701 1_556
Bi6 Pd0 2.996010 1_565
Bi6 Pd7 2.996914 1_555
Bi7 Pd1 2.912355 1_555
Bi7 Pd7 2.926097 1_554
Bi7 Pd5 2.937160 1_555
Bi7 Pd3 2.943348 1_555
Bi7 Pd3 2.988701 1_554
Bi7 Pd1 2.996010 1_545
Bi7 Pd6 2.996914 1_455
Pd0 Pd6 2.892121 1_556
Pd0 Pd4 2.939782 1_545
Pd0 Pd2 3.075604 1_555
Pd1 Pd7 2.892121 1_554
Pd1 Pd5 2.939782 1_565
Pd1 Pd3 3.075604 1_555
Pd2 Pd4 2.890861 1_555
Pd2 Pd6 2.923404 1_555
Pd3 Pd5 2.890861 1_555
Pd3 Pd7 2.923404 1_555
Pd4 Pd6 3.125925 1_556
Pd5 Pd7 3.125925 1_554
