# generated using pymatgen
data_Zn(Mo4O5)2
_symmetry_space_group_name_H-M   'P 1'
_cell_length_a   13.58118784
_cell_length_b   13.58118784
_cell_length_c   13.58118784
_cell_angle_alpha   152.70426755
_cell_angle_beta   152.70426755
_cell_angle_gamma   38.98572013
_symmetry_Int_Tables_number   1
_chemical_formula_structural   Zn(Mo4O5)2
_chemical_formula_sum   'Zn2 Mo16 O20'
_cell_volume   525.88861595
_cell_formula_units_Z   2
loop_
 _symmetry_equiv_pos_site_id
 _symmetry_equiv_pos_as_xyz
  1  'x, y, z'
loop_
 _atom_site_type_symbol
 _atom_site_label
 _atom_site_symmetry_multiplicity
 _atom_site_fract_x
 _atom_site_fract_y
 _atom_site_fract_z
 _atom_site_occupancy
  Zn  Zn0  1  0.87702100  0.37702100  0.50000000  1
  Zn  Zn1  1  0.12702100  0.12702100  0.00000000  1
  Mo  Mo0  1  0.59802600  0.82722800  0.77079800  1
  Mo  Mo1  1  0.57722800  0.84802600  0.27079800  1
  Mo  Mo2  1  0.57722800  0.30643000  0.72920200  1
  Mo  Mo3  1  0.05643000  0.82722800  0.22920200  1
  Mo  Mo4  1  0.41010000  0.66371900  0.74638200  1
  Mo  Mo5  1  0.41371900  0.66010000  0.24638200  1
  Mo  Mo6  1  0.41371900  0.16733700  0.75361800  1
  Mo  Mo7  1  0.91733700  0.66371900  0.25361800  1
  Mo  Mo8  1  0.76364200  0.99722600  0.76641600  1
  Mo  Mo9  1  0.74722600  0.01364200  0.26641600  1
  Mo  Mo10  1  0.74722600  0.48081000  0.73358400  1
  Mo  Mo11  1  0.23081000  0.99722600  0.23358400  1
  Mo  Mo12  1  0.76438700  0.49984100  0.26454600  1
  Mo  Mo13  1  0.24984100  0.01438700  0.76454600  1
  Mo  Mo14  1  0.24984100  0.48529400  0.23545400  1
  Mo  Mo15  1  0.23529400  0.49984100  0.73545400  1
  O  O0  1  0.49728800  0.24724300  0.25004500  1
  O  O1  1  0.18528300  0.41657900  0.76870300  1
  O  O2  1  0.37713500  0.58163000  0.79550600  1
  O  O3  1  0.33163000  0.62713500  0.29550600  1
  O  O4  1  0.33163000  0.03612400  0.70449400  1
  O  O5  1  0.78612400  0.58163000  0.20449400  1
  O  O6  1  0.63347400  0.91333000  0.72014400  1
  O  O7  1  0.66333000  0.88347400  0.22014400  1
  O  O8  1  0.66333000  0.44318600  0.77985600  1
  O  O9  1  0.19318600  0.91333000  0.27985600  1
  O  O10  1  0.16657900  0.43528300  0.26870300  1
  O  O11  1  0.83155400  0.58906300  0.75750900  1
  O  O12  1  0.83155400  0.07404600  0.24249100  1
  O  O13  1  0.82404600  0.08155400  0.74249100  1
  O  O14  1  0.64787600  0.41657900  0.23129700  1
  O  O15  1  0.16657900  0.89787600  0.73129700  1
  O  O16  1  0.99719800  0.24724300  0.74995500  1
  O  O17  1  0.99724300  0.24719800  0.24995500  1
  O  O18  1  0.99724300  0.74728800  0.75004500  1
  O  O19  1  0.33906300  0.08155400  0.25750900  1
loop_
_geom_bond_atom_site_label_1
_geom_bond_atom_site_label_2
_geom_bond_distance
_geom_bond_site_symmetry_2
Mo0 O11 2.141380 1_555
Mo0 O12 2.141381 1_566
Mo0 O3 2.177751 1_555
Mo0 O4 2.177752 1_565
Mo0 O6 2.228460 1_555
Mo1 O19 2.141380 1_565
Mo1 O13 2.141381 1_565
Mo1 O2 2.177751 1_554
Mo1 O5 2.177752 1_555
Mo1 O7 2.228460 1_555
Mo2 O19 2.141380 1_555
Mo2 O13 2.141385 1_555
Mo2 O5 2.177752 1_556
Mo2 O2 2.177756 1_555
Mo2 O8 2.228460 1_555
Mo3 O11 2.141380 1_454
Mo3 O12 2.141385 1_465
Mo3 O4 2.177752 1_565
Mo3 O3 2.177756 1_555
Mo3 O9 2.228460 1_555
Mo4 O2 2.125379 1_555
Mo4 O7 2.152417 1_556
Mo4 O8 2.152421 1_555
Mo4 O15 2.167105 1_555
Mo4 O10 2.167110 1_555
Mo5 O3 2.125379 1_555
Mo5 O6 2.152417 1_555
Mo5 O9 2.152421 1_555
Mo5 O14 2.167105 1_555
Mo5 O1 2.167110 1_554
Mo6 O4 2.125379 1_555
Mo6 O6 2.152417 1_545
Mo6 O9 2.152417 1_545
Mo6 O1 2.167105 1_555
Mo6 O14 2.167110 1_556
Mo7 O5 2.125379 1_555
Mo7 O7 2.152417 1_555
Mo7 O8 2.152417 1_554
Mo7 O10 2.167105 1_655
Mo7 O15 2.167110 1_655
Mo8 O13 2.164712 1_565
Mo8 O6 2.168574 1_555
Mo8 O17 2.192605 1_566
Mo8 O18 2.192605 1_555
Mo9 O12 2.164712 1_555
Mo9 O7 2.168574 1_545
Mo9 O0 2.192605 1_555
Mo9 O16 2.192605 1_555
Mo10 O11 2.164699 1_555
Mo10 O8 2.168574 1_555
Mo10 O0 2.192605 1_555
Mo10 O16 2.192605 1_555
Mo11 O19 2.164699 1_565
Mo11 O9 2.168574 1_555
Mo11 O18 2.192605 1_454
Mo11 O17 2.192605 1_465
Mo12 O5 2.129322 1_555
Mo12 O14 2.142589 1_555
Mo12 O17 2.202230 1_555
Mo12 O18 2.202230 1_555
Mo13 O4 2.129322 1_555
Mo13 O15 2.142589 1_545
Mo13 O16 2.202230 1_455
Mo13 O0 2.202230 1_556
Mo14 O3 2.129322 1_555
Mo14 O10 2.142565 1_555
Mo14 O0 2.202226 1_555
Mo14 O16 2.202230 1_454
Mo15 O2 2.129322 1_555
Mo15 O1 2.142565 1_555
Mo15 O18 2.202226 1_455
Mo15 O17 2.202230 1_455
O1 Zn0 1.997940 1_455
O10 Zn1 1.997940 1_555
O11 Zn0 2.019697 1_555
O12 Zn0 2.019687 1_555
O13 Zn1 2.019687 1_656
O14 Zn0 1.997931 1_555
O15 Zn1 1.997931 1_566
O19 Zn1 2.019697 1_555
