# generated using pymatgen
data_Eu(PIr)2
_symmetry_space_group_name_H-M   'P 1'
_cell_length_a   6.68936884
_cell_length_b   6.68933021
_cell_length_c   7.09032933
_cell_angle_alpha   90.00000329
_cell_angle_beta   90.00036690
_cell_angle_gamma   119.99981950
_symmetry_Int_Tables_number   1
_chemical_formula_structural   Eu(PIr)2
_chemical_formula_sum   'Eu3 P6 Ir6'
_cell_volume   274.76765466
_cell_formula_units_Z   3
loop_
 _symmetry_equiv_pos_site_id
 _symmetry_equiv_pos_as_xyz
  1  'x, y, z'
loop_
 _atom_site_type_symbol
 _atom_site_label
 _atom_site_symmetry_multiplicity
 _atom_site_fract_x
 _atom_site_fract_y
 _atom_site_fract_z
 _atom_site_occupancy
  Eu  Eu0  1  0.39669451  0.39669229  0.50000970  1
  Eu  Eu1  1  0.60330549  0.99999778  0.16665730  1
  Eu  Eu2  1  0.00000000  0.60331067  0.83333300  1
  P  P0  1  0.88042698  0.22013451  0.54323636  1
  P  P1  1  0.22014424  0.88043331  0.45676798  1
  P  P2  1  0.11957302  0.33970853  0.12343064  1
  P  P3  1  0.77985576  0.66028808  0.20989802  1
  P  P4  1  0.33970162  0.11957150  0.87657827  1
  P  P5  1  0.66029838  0.77987088  0.79008873  1
  Ir  Ir0  1  0.86869164  0.86869544  0.49999235  1
  Ir  Ir1  1  0.13130836  0.00000380  0.16667465  1
  Ir  Ir2  1  0.48815284  0.48814826  0.00000234  1
  Ir  Ir3  1  0.00000000  0.51183767  0.33333300  1
  Ir  Ir4  1  0.51184716  -0.00000559  0.66666466  1
  Ir  Ir5  1  0.00000000  0.13131286  0.83333300  1
loop_
_geom_bond_atom_site_label_1
_geom_bond_atom_site_label_2
_geom_bond_distance
_geom_bond_site_symmetry_2
Eu0 P1 3.055557 1_545
Eu0 P0 3.055614 1_455
Eu0 P5 3.064282 1_555
Eu0 P3 3.064390 1_555
Eu0 Ir0 3.157383 1_555
Eu0 P4 3.162895 1_555
Eu0 P2 3.162964 1_555
Eu0 Ir5 3.326864 1_555
Eu0 Ir1 3.326881 1_555
Eu0 Ir4 3.327991 1_555
Eu0 Ir3 3.328002 1_555
Eu1 P3 3.055563 1_555
Eu1 P2 3.055615 1_665
Eu1 P4 3.064278 1_564
Eu1 P1 3.064387 1_555
Eu1 Ir1 3.157383 1_565
Eu1 P5 3.162891 1_554
Eu1 P0 3.162963 1_565
Eu1 Ir5 3.326870 1_664
Eu1 Ir0 3.326882 1_555
Eu1 Ir2 3.327985 1_555
Eu1 Ir3 3.327999 1_665
Eu2 P4 3.055567 1_565
Eu2 P5 3.055572 1_455
Eu2 P0 3.064355 1_455
Eu2 P2 3.064356 1_556
Eu2 Ir5 3.157349 1_555
Eu2 P3 3.162904 1_456
Eu2 P1 3.162906 1_555
Eu2 Ir0 3.326925 1_455
Eu2 Ir1 3.326930 1_566
Eu2 Ir4 3.328012 1_565
Eu2 Ir2 3.328017 1_456
Ir0 P0 2.332878 1_565
Ir0 P1 2.332957 1_655
Ir0 P5 2.387223 1_555
Ir0 P3 2.387236 1_555
Ir1 P2 2.332884 1_555
Ir1 P3 2.332959 1_445
Ir1 P4 2.387223 1_554
Ir1 P1 2.387227 1_545
Ir2 P3 2.258634 1_555
Ir2 P5 2.258808 1_554
Ir2 P4 2.320007 1_554
Ir2 P2 2.320065 1_555
Ir3 P2 2.258660 1_555
Ir3 P0 2.258669 1_455
Ir3 P3 2.320141 1_455
Ir3 P1 2.320145 1_555
Ir4 P1 2.258640 1_545
Ir4 P4 2.258808 1_555
Ir4 P5 2.319996 1_545
Ir4 P0 2.320065 1_555
Ir5 P5 2.332892 1_445
Ir5 P4 2.332897 1_555
Ir5 P0 2.387215 1_455
Ir5 P2 2.387223 1_556
