# generated using pymatgen
data_Na3Ta2Zn2P5SO24
_symmetry_space_group_name_H-M   'P 1'
_cell_length_a   8.81890212
_cell_length_b   8.78706120
_cell_length_c   22.41972048
_cell_angle_alpha   89.99534005
_cell_angle_beta   89.94676181
_cell_angle_gamma   119.76212256
_symmetry_Int_Tables_number   1
_chemical_formula_structural   Na3Ta2Zn2P5SO24
_chemical_formula_sum   'Na9 Ta6 Zn6 P15 S3 O72'
_cell_volume   1508.18547129
_cell_formula_units_Z   3
loop_
 _symmetry_equiv_pos_site_id
 _symmetry_equiv_pos_as_xyz
  1  'x, y, z'
loop_
 _atom_site_type_symbol
 _atom_site_label
 _atom_site_symmetry_multiplicity
 _atom_site_fract_x
 _atom_site_fract_y
 _atom_site_fract_z
 _atom_site_occupancy
  Na  Na0  1  0.01454795  0.36944971  0.75464789  1
  Na  Na1  1  0.68346162  0.98326992  0.58765603  1
  Na  Na2  1  0.68439897  0.70428702  0.08791927  1
  Na  Na3  1  0.01742147  0.00606116  0.51026147  1
  Na  Na4  1  0.01228089  0.01489275  0.00951291  1
  Na  Na5  1  0.66177619  0.34214877  0.84541103  1
  Na  Na6  1  0.65331915  0.32385358  0.34402994  1
  Na  Na7  1  0.32851844  0.67739462  0.17890235  1
  Na  Na8  1  0.33440599  0.67140106  0.67795193  1
  Ta  Ta0  1  -0.00012395  0.99828271  0.35418677  1
  Ta  Ta1  1  0.99428947  0.99731615  0.85358082  1
  Ta  Ta2  1  0.66253674  0.33508112  0.68695972  1
  Ta  Ta3  1  0.66174652  0.33059984  0.18720533  1
  Ta  Ta4  1  0.33103034  0.66162651  0.02064913  1
  Ta  Ta5  1  0.33526688  0.66031427  0.52057508  1
  Zn  Zn0  1  0.00700959  0.99895849  0.64968173  1
  Zn  Zn1  1  0.00682126  0.99834455  0.14932094  1
  Zn  Zn2  1  0.67595812  0.33993447  0.98308537  1
  Zn  Zn3  1  0.65561904  0.32484056  0.48265364  1
  Zn  Zn4  1  0.35658033  0.67994202  0.31504575  1
  Zn  Zn5  1  0.33946116  0.66460804  0.81590711  1
  P  P0  1  0.28975622  0.99550586  0.24862922  1
  P  P1  1  0.70837147  0.70834664  0.24606269  1
  P  P2  1  0.28976780  0.28841065  0.74886095  1
  P  P3  1  0.00082578  0.70882254  0.74820335  1
  P  P4  1  0.70292106  0.99618516  0.74637956  1
  P  P5  1  0.95761038  0.33598311  0.58179897  1
  P  P6  1  0.37023816  0.04020104  0.58105600  1
  P  P7  1  0.67103731  0.62429772  0.57952283  1
  P  P8  1  0.95892119  0.62356534  0.08244313  1
  P  P9  1  0.66722586  0.04399291  0.08038455  1
  P  P10  1  0.37197686  0.32608702  0.08047016  1
  P  P11  1  0.62419650  0.66321230  0.91535825  1
  P  P12  1  0.03850785  0.37432043  0.91267870  1
  P  P13  1  0.62693538  0.96319721  0.41560738  1
  P  P14  1  0.33456897  0.37588832  0.41226562  1
  S  S0  1  0.99787988  0.29136921  0.24918979  1
  S  S1  1  0.33046562  0.95674389  0.91513555  1
  S  S2  1  0.04479696  0.66609740  0.41445206  1
  O  O0  1  0.19709520  0.02598124  0.30523243  1
  O  O1  1  0.83119656  0.80930085  0.30153424  1
  O  O2  1  0.97291624  0.17694539  0.30383495  1
  O  O3  1  0.19823242  0.16856363  0.80557928  1
  O  O4  1  0.97420772  0.80102319  0.80526165  1
  O  O5  1  0.83266003  0.02774865  0.80160038  1
  O  O6  1  0.78148359  0.97709831  0.68892377  1
  O  O7  1  0.17632071  0.20953591  0.69482730  1
  O  O8  1  0.02254627  0.81174791  0.69269771  1
  O  O9  1  0.78611618  0.80819466  0.18885086  1
  O  O10  1  0.01824986  0.21110235  0.19564983  1
  O  O11  1  0.18920943  0.97976989  0.19296541  1
  O  O12  1  0.86980160  0.36405150  0.64042579  1
  O  O13  1  0.49734962  0.13289481  0.63736865  1
  O  O14  1  0.64117867  0.50545493  0.63699763  1
  O  O15  1  0.86678513  0.50192117  0.13891546  1
  O  O16  1  0.63936101  0.13539398  0.13768906  1
  O  O17  1  0.49797497  0.36394112  0.13733042  1
  O  O18  1  0.45595455  0.30573304  0.02543357  1
  O  O19  1  0.84656890  0.54635279  0.02813521  1
  O  O20  1  0.68899224  0.14814743  0.02521315  1
  O  O21  1  0.45215841  0.14266088  0.52555266  1
  O  O22  1  0.69364276  0.54177638  0.52469586  1
  O  O23  1  0.84294265  0.30690854  0.52871481  1
  O  O24  1  0.53584290  0.69318561  0.97365076  1
  O  O25  1  0.16408962  0.47646603  0.96808057  1
  O  O26  1  0.30699851  0.84388114  0.96987648  1
  O  O27  1  0.53513935  0.84228136  0.47327348  1
  O  O28  1  0.30618379  0.46851256  0.47017434  1
  O  O29  1  0.15761786  0.69440637  0.46930814  1
  O  O30  1  0.12567968  0.64809189  0.36126028  1
  O  O31  1  0.51813809  0.88141679  0.36142607  1
  O  O32  1  0.34597500  0.47886929  0.35783835  1
  O  O33  1  0.11698337  0.47352397  0.85552836  1
  O  O34  1  0.34819090  0.87538167  0.86165153  1
  O  O35  1  0.51964733  0.64828924  0.86105219  1
  O  O36  1  0.03593763  0.83741883  0.41167687  1
  O  O37  1  0.80851699  0.96407100  0.40937411  1
  O  O38  1  0.15836211  0.19015878  0.40900912  1
  O  O39  1  0.03634376  0.19163301  0.91034880  1
  O  O40  1  0.16108243  0.96381932  0.91317840  1
  O  O41  1  0.80906872  0.84028181  0.91028008  1
  O  O42  1  0.98505392  0.17982957  0.58978243  1
  O  O43  1  0.18770007  0.00741921  0.58965088  1
  O  O44  1  0.81386649  0.81273067  0.58771976  1
  O  O45  1  0.98658435  0.80714574  0.09024762  1
  O  O46  1  0.81493209  0.00447251  0.08924382  1
  O  O47  1  0.18767849  0.18214910  0.09050629  1
  O  O48  1  0.70505308  0.17889369  0.74466042  1
  O  O49  1  0.47195585  0.29627417  0.74328335  1
  O  O50  1  0.82428058  0.52297561  0.74442196  1
  O  O51  1  0.70521169  0.52526943  0.24359253  1
  O  O52  1  0.82750501  0.29600559  0.24672044  1
  O  O53  1  0.47577064  0.17161627  0.24392948  1
  O  O54  1  0.65287588  0.50887216  0.92259733  1
  O  O55  1  0.85479107  0.34021549  0.92142075  1
  O  O56  1  0.47740878  0.13270269  0.92264997  1
  O  O57  1  0.66658460  0.14987740  0.42330624  1
  O  O58  1  0.48855922  0.34793633  0.42043609  1
  O  O59  1  0.86837881  0.52119745  0.42257113  1
  O  O60  1  0.37151196  0.50960334  0.07660628  1
  O  O61  1  0.14130821  0.63175904  0.07628454  1
  O  O62  1  0.49097184  0.85735010  0.07587400  1
  O  O63  1  0.36996834  0.85770655  0.57752933  1
  O  O64  1  0.49157768  0.63103637  0.57610619  1
  O  O65  1  0.14003357  0.51017011  0.57550316  1
  O  O66  1  0.31504228  0.83940701  0.25731668  1
  O  O67  1  0.52339091  0.67302276  0.25344041  1
  O  O68  1  0.14256738  0.46744682  0.25757444  1
  O  O69  1  0.31791635  0.47230503  0.75650920  1
  O  O70  1  0.14907325  0.66979161  0.75639877  1
  O  O71  1  0.52070944  0.84801287  0.75672156  1
loop_
_geom_bond_atom_site_label_1
_geom_bond_atom_site_label_2
_geom_bond_distance
_geom_bond_site_symmetry_2
Na0 O70 2.294701 1_555
Na0 O69 2.361325 1_555
Na0 O48 2.401543 1_455
Na0 O33 2.439607 1_555
Na0 O50 2.633625 1_455
Na0 O7 2.792059 1_555
Na0 O5 2.812677 1_455
Na0 O12 2.852285 1_455
Na1 O44 2.297638 1_555
Na1 O42 2.344998 1_565
Na1 O63 2.425921 1_555
Na1 O6 2.440301 1_555
Na1 O64 2.703951 1_555
Na1 O13 2.793548 1_565
Na1 O23 2.799415 1_565
Na1 O27 2.867050 1_555
Na2 O46 2.295481 1_565
Na2 O45 2.351704 1_555
Na2 O60 2.433034 1_555
Na2 O9 2.439225 1_555
Na2 O62 2.658993 1_555
Na2 O19 2.781187 1_555
Na2 O17 2.826434 1_555
Na2 O24 2.858050 1_554
Na3 O43 2.326013 1_555
Na3 O42 2.454316 1_455
Na3 O44 2.467853 1_445
Na3 O38 2.704231 1_555
Na3 O36 2.710694 1_545
Na3 O37 2.824765 1_445
Na4 O47 2.366140 1_555
Na4 O46 2.463468 1_455
Na4 O45 2.499606 1_445
Na4 O39 2.659146 1_554
Na4 O40 2.677262 1_544
Na4 O41 2.791683 1_444
Na5 O54 2.293763 1_555
Na5 O55 2.415742 1_555
Na5 O56 2.460258 1_555
Na5 O50 2.727186 1_555
Na5 O49 2.746768 1_555
Na5 O48 2.801464 1_555
Na6 O58 2.321870 1_555
Na6 O57 2.384787 1_555
Na6 O59 2.538954 1_555
Na6 O53 2.684256 1_555
Na6 O52 2.747038 1_555
Na6 O51 2.757832 1_555
Na7 O66 2.302053 1_555
Na7 O67 2.412146 1_555
Na7 O68 2.488812 1_555
Na7 O61 2.744001 1_555
Na7 O62 2.762712 1_555
Na7 O60 2.851567 1_555
Na8 O71 2.387673 1_555
Na8 O70 2.395098 1_555
Na8 O69 2.435195 1_555
Na8 O63 2.708460 1_555
Na8 O64 2.782636 1_555
Na8 O65 2.796055 1_555
O0 P0 1.601652 1_545
O0 Ta0 1.965958 1_545
O1 P1 1.598629 1_555
O1 Ta0 1.978643 1_655
O2 S0 1.529666 1_555
O2 Ta0 2.041155 1_645
O3 P2 1.591082 1_555
O3 Ta1 1.991607 1_445
O4 P3 1.592589 1_655
O4 Ta1 1.969103 1_555
O5 P4 1.614431 1_545
O5 Ta1 1.960317 1_545
O6 P4 1.510365 1_555
O6 Zn0 2.093815 1_655
O7 P2 1.504268 1_555
O7 Zn0 1.984414 1_545
O8 P3 1.493525 1_555
O8 Zn0 1.969452 1_555
O9 P1 1.511978 1_555
O9 Zn1 2.033085 1_655
O10 S0 1.447792 1_455
O10 Zn1 2.097033 1_545
O11 P0 1.497718 1_555
O11 Zn1 1.958261 1_555
O12 P5 1.604963 1_555
O12 Ta2 2.007167 1_555
O13 P6 1.615639 1_555
O13 Ta2 1.987094 1_555
O14 P7 1.595749 1_555
O14 Ta2 1.952311 1_555
O15 P8 1.594162 1_555
O15 Ta3 2.000403 1_555
O16 P9 1.597354 1_555
O16 Ta3 1.969295 1_555
O17 P10 1.614367 1_555
O17 Ta3 1.960908 1_555
O18 P10 1.494264 1_555
O18 Zn2 2.042970 1_554
O19 P8 1.503163 1_555
O19 Zn2 1.966609 1_554
O20 P9 1.493121 1_555
O20 Zn2 1.984336 1_554
O21 P6 1.494442 1_555
O21 Zn3 1.962662 1_555
O22 P7 1.489863 1_555
O22 Zn3 2.000217 1_555
O23 P5 1.500030 1_555
O23 Zn3 2.020369 1_555
O24 P11 1.608225 1_555
O24 Ta4 1.987143 1_556
O25 P12 1.609598 1_555
O25 Ta4 1.956814 1_556
O26 S1 1.525822 1_555
O26 Ta4 2.059739 1_556
O27 P13 1.612335 1_555
O27 Ta5 1.996593 1_555
O28 P14 1.616324 1_555
O28 Ta5 1.937729 1_555
O29 S2 1.523474 1_555
O29 Ta5 2.081954 1_555
O30 S2 1.437526 1_555
O30 Zn4 2.174531 1_555
O31 P13 1.493433 1_555
O31 Zn4 1.935012 1_555
O32 P14 1.492375 1_555
O32 Zn4 1.971398 1_555
O33 P12 1.509894 1_555
O33 Zn5 2.045412 1_555
O34 S1 1.443656 1_555
O34 Zn5 2.084907 1_555
O35 P11 1.493903 1_555
O35 Zn5 1.949163 1_555
O36 S2 1.546934 1_555
O36 Ta0 2.051155 1_555
O37 P13 1.603524 1_555
O37 Ta0 1.990365 1_655
O38 P14 1.601870 1_555
O38 Ta0 1.992699 1_545
O39 P12 1.596757 1_555
O39 Ta1 2.011311 1_445
O40 S1 1.526262 1_555
O40 Ta1 2.114006 1_455
O41 P11 1.604095 1_555
O41 Ta1 1.986511 1_555
O42 P5 1.517593 1_555
O42 Zn0 2.161608 1_645
O43 P6 1.500187 1_555
O43 Zn0 2.057791 1_545
O44 P7 1.513878 1_555
O44 Zn0 2.178622 1_655
O45 P8 1.517151 1_555
O45 Zn1 2.076459 1_655
O46 P9 1.518683 1_555
O46 Zn1 2.185287 1_645
O47 P10 1.500118 1_555
O47 Zn1 2.080733 1_545
O48 P4 1.596683 1_545
O48 Ta2 2.051616 1_555
O49 P2 1.578385 1_555
O49 Ta2 1.990637 1_555
O50 P3 1.604401 1_655
O50 Ta2 2.021364 1_555
O51 P1 1.596028 1_555
O51 Ta3 2.005353 1_555
O52 S0 1.524210 1_555
O52 Ta3 2.110545 1_555
O53 P0 1.605068 1_545
O53 Ta3 1.994987 1_555
O54 P11 1.506705 1_555
O54 Zn2 2.093881 1_555
O55 P12 1.506839 1_655
O55 Zn2 2.095395 1_555
O56 S1 1.452423 1_545
O56 Zn2 2.248780 1_555
O57 P13 1.507841 1_545
O57 Zn3 2.071486 1_555
O58 P14 1.506559 1_555
O58 Zn3 2.111424 1_555
O59 S2 1.451761 1_655
O59 Zn3 2.256742 1_555
O60 P10 1.616924 1_555
O60 Ta4 1.989929 1_555
O61 P8 1.579868 1_455
O61 Ta4 1.996054 1_555
O62 P9 1.607938 1_565
O62 Ta4 2.018796 1_555
O63 P6 1.604366 1_565
O63 Ta5 2.051026 1_555
O64 P7 1.614737 1_555
O64 Ta5 1.967650 1_555
O65 P5 1.582934 1_455
O65 Ta5 1.990516 1_555
O66 P0 1.507579 1_555
O66 Zn4 2.069530 1_555
O67 P1 1.510533 1_555
O67 Zn4 2.039723 1_555
O68 S0 1.448383 1_455
O68 Zn4 2.283635 1_555
O69 P2 1.517898 1_555
O69 Zn5 2.084927 1_555
O70 P3 1.518626 1_555
O70 Zn5 2.163613 1_555
O71 P4 1.501080 1_555
O71 Zn5 2.085938 1_555
