# generated using pymatgen
data_K4MgMn4O8
_symmetry_space_group_name_H-M   'P 1'
_cell_length_a   3.13687411
_cell_length_b   6.38285153
_cell_length_c   14.99825741
_cell_angle_alpha   99.31424444
_cell_angle_beta   83.92847428
_cell_angle_gamma   90.56209394
_symmetry_Int_Tables_number   1
_chemical_formula_structural   K4MgMn4O8
_chemical_formula_sum   'K4 Mg1 Mn4 O8'
_cell_volume   294.66841016
_cell_formula_units_Z   1
loop_
 _symmetry_equiv_pos_site_id
 _symmetry_equiv_pos_as_xyz
  1  'x, y, z'
loop_
 _atom_site_type_symbol
 _atom_site_label
 _atom_site_symmetry_multiplicity
 _atom_site_fract_x
 _atom_site_fract_y
 _atom_site_fract_z
 _atom_site_occupancy
  K  K0  1  0.10404000  0.57536800  0.04572400  1
  K  K1  1  0.22695100  0.04241600  0.67865100  1
  K  K2  1  0.70204900  0.58882500  0.81996300  1
  K  K3  1  0.82374700  0.86555600  0.46517400  1
  Mg  Mg0  1  0.44675200  0.99476900  0.24617400  1
  Mn  Mn0  1  0.07807200  0.07465900  0.06470000  1
  Mn  Mn1  1  0.66260400  0.11041700  0.89889800  1
  Mn  Mn2  1  0.84158500  0.32735800  0.42044600  1
  Mn  Mn3  1  0.25806400  0.49968800  0.59431000  1
  O  O0  1  0.98034900  0.92237100  0.17615500  1
  O  O1  1  0.19043200  0.25831100  0.84818200  1
  O  O2  1  0.36471100  0.12269800  0.37125800  1
  O  O3  1  0.73759900  0.69065000  0.64116100  1
  O  O4  1  0.59297100  0.26191000  0.04328600  1
  O  O5  1  0.14638300  0.90770100  0.92660300  1
  O  O6  1  0.76552900  0.28872500  0.57308800  1
  O  O7  1  0.32838000  0.53107700  0.45153800  1
loop_
_geom_bond_atom_site_label_1
_geom_bond_atom_site_label_2
_geom_bond_distance
_geom_bond_site_symmetry_2
K0 O4 2.526125 1_555
K0 O4 2.549562 1_455
K0 O0 2.708658 1_455
K0 O5 2.979977 1_554
K1 O1 2.680398 1_555
K1 O3 2.719312 1_545
K1 O3 2.723974 1_445
K1 O6 2.832032 1_555
K1 O6 2.899753 1_455
K2 O1 2.698920 1_555
K2 O1 2.732442 1_655
K2 O5 2.829423 1_655
K2 O3 2.850608 1_555
K2 O5 2.857460 1_555
K3 O7 2.622055 1_555
K3 O7 2.638567 1_655
K3 O2 2.783095 1_665
K3 O2 2.824032 1_565
K3 O6 2.912138 1_565
K3 O3 3.013863 1_555
Mg0 O0 1.898506 1_555
Mg0 O0 1.900410 1_455
Mg0 O2 1.912758 1_565
Mn0 O4 2.027447 1_455
Mn0 O4 2.029057 1_555
Mn0 O0 2.060313 1_445
Mn0 O5 2.160466 1_544
Mn1 O1 2.036292 1_655
Mn1 O1 2.040019 1_555
Mn1 O5 2.111787 1_545
Mn1 O5 2.120326 1_645
Mn1 O4 2.213291 1_556
Mn2 O7 2.038487 1_655
Mn2 O7 2.045946 1_555
Mn2 O2 2.090829 1_555
Mn2 O2 2.101795 1_655
Mn2 O6 2.329153 1_555
Mn3 O3 2.037783 1_555
Mn3 O3 2.040599 1_455
Mn3 O6 2.055738 1_455
Mn3 O6 2.060251 1_555
Mn3 O7 2.170756 1_555
