# generated using pymatgen
data_ZnH8C2N4(ClO)2
_symmetry_space_group_name_H-M   'P 1'
_cell_length_a   6.39496700
_cell_length_b   6.96046836
_cell_length_c   11.97671845
_cell_angle_alpha   88.61416834
_cell_angle_beta   103.91731540
_cell_angle_gamma   113.50251082
_symmetry_Int_Tables_number   1
_chemical_formula_structural   ZnH8C2N4(ClO)2
_chemical_formula_sum   'Zn2 H16 C4 N8 Cl4 O4'
_cell_volume   472.98700371
_cell_formula_units_Z   2
loop_
 _symmetry_equiv_pos_site_id
 _symmetry_equiv_pos_as_xyz
  1  'x, y, z'
loop_
 _atom_site_type_symbol
 _atom_site_label
 _atom_site_symmetry_multiplicity
 _atom_site_fract_x
 _atom_site_fract_y
 _atom_site_fract_z
 _atom_site_occupancy
  Zn  Zn0  1  0.52305900  0.33662000  0.74905100  1
  Zn  Zn1  1  0.47694100  0.66338000  0.25094900  1
  H  H0  1  0.76496800  0.01644100  0.59273800  1
  H  H1  1  0.23503200  0.98355900  0.40726200  1
  H  H2  1  0.73183100  0.75441400  0.57719000  1
  H  H3  1  0.26816900  0.24558600  0.42281000  1
  H  H4  1  0.06761100  0.68065000  0.64331300  1
  H  H5  1  0.93238900  0.31935000  0.35668700  1
  H  H6  1  0.33303300  0.87735200  0.71887100  1
  H  H7  1  0.66696700  0.12264800  0.28112900  1
  H  H8  1  0.16658500  0.34728500  0.95215600  1
  H  H9  1  0.01052600  0.66966800  0.18602700  1
  H  H10  1  0.68934400  0.05286700  0.07178400  1
  H  H11  1  0.31065600  0.94713300  0.92821600  1
  H  H12  1  0.99907000  0.17344500  0.09520200  1
  H  H13  1  0.98947400  0.33033200  0.81397300  1
  H  H14  1  0.00093000  0.82655500  0.90479800  1
  H  H15  1  0.83341500  0.65271500  0.04784400  1
  C  C0  1  0.06603200  0.97469500  0.65661800  1
  C  C1  1  0.19096300  0.80441000  0.06521200  1
  C  C2  1  0.80903700  0.19559000  0.93478800  1
  C  C3  1  0.93396800  0.02530500  0.34338200  1
  N  N0  1  0.83581900  0.90777900  0.60386700  1
  N  N1  1  0.16418100  0.09222100  0.39613300  1
  N  N2  1  0.16521700  0.86979600  0.95857000  1
  N  N3  1  0.83478300  0.13020400  0.04143000  1
  N  N4  1  0.83215700  0.16368300  0.33256000  1
  N  N5  1  0.16784300  0.83631700  0.66744000  1
  N  N6  1  0.99678000  0.68680500  0.10040400  1
  N  N7  1  0.00322000  0.31319500  0.89959600  1
  Cl  Cl0  1  0.57617900  0.63533700  0.84134100  1
  Cl  Cl1  1  0.29289200  0.64005900  0.39336800  1
  Cl  Cl2  1  0.70710800  0.35994100  0.60663200  1
  Cl  Cl3  1  0.42382100  0.36466300  0.15865900  1
  O  O0  1  0.18037300  0.16829800  0.69429100  1
  O  O1  1  0.39914200  0.85360100  0.13146100  1
  O  O2  1  0.60085800  0.14639900  0.86853900  1
  O  O3  1  0.81962700  0.83170200  0.30570900  1
loop_
_geom_bond_atom_site_label_1
_geom_bond_atom_site_label_2
_geom_bond_distance
_geom_bond_site_symmetry_2
H0 N0 1.017103 1_545
H1 N1 1.017103 1_565
H2 N0 1.015850 1_555
H3 N1 1.015850 1_555
H4 N5 1.020038 1_555
H5 N4 1.020038 1_555
H6 N5 1.015773 1_555
H7 N4 1.015773 1_555
H8 N7 1.018407 1_555
H9 N6 1.016195 1_455
H10 N3 1.020217 1_555
H11 N2 1.020217 1_555
H12 N3 1.020205 1_555
H13 N7 1.016195 1_655
H14 N2 1.020205 1_555
H15 N6 1.018407 1_555
C0 O0 1.280231 1_565
C0 N0 1.342900 1_455
C0 N5 1.349793 1_555
C1 O1 1.288641 1_555
C1 N2 1.340158 1_554
C1 N6 1.346893 1_455
C2 O2 1.288641 1_555
C2 N3 1.340158 1_556
C2 N7 1.346893 1_655
C3 O3 1.280231 1_545
C3 N1 1.342900 1_655
C3 N4 1.349793 1_555
Cl0 Zn0 2.242203 1_555
Cl1 Zn1 2.262978 1_555
Cl2 Zn0 2.262978 1_555
Cl3 Zn1 2.242203 1_555
O0 Zn0 1.975673 1_555
O1 Zn1 2.034648 1_555
O2 Zn0 2.034648 1_555
O3 Zn1 1.975673 1_555
