# generated using pymatgen
data_La(In2Au)2
_symmetry_space_group_name_H-M   'P 1'
_cell_length_a   4.71670929
_cell_length_b   7.48197646
_cell_length_c   18.64804637
_cell_angle_alpha   90.00000000
_cell_angle_beta   90.00000000
_cell_angle_gamma   90.00000000
_symmetry_Int_Tables_number   1
_chemical_formula_structural   La(In2Au)2
_chemical_formula_sum   'La4 In16 Au8'
_cell_volume   658.09529769
_cell_formula_units_Z   4
loop_
 _symmetry_equiv_pos_site_id
 _symmetry_equiv_pos_as_xyz
  1  'x, y, z'
loop_
 _atom_site_type_symbol
 _atom_site_label
 _atom_site_symmetry_multiplicity
 _atom_site_fract_x
 _atom_site_fract_y
 _atom_site_fract_z
 _atom_site_occupancy
  La  La0  1  0.75000000  0.97910375  0.64147677  1
  La  La1  1  0.25000000  0.02089625  0.35852323  1
  La  La2  1  0.25000000  0.47910375  0.85852323  1
  La  La3  1  0.75000000  0.52089625  0.14147677  1
  In  In0  1  0.25000000  0.26922836  0.68953069  1
  In  In1  1  0.75000000  0.73077164  0.31046931  1
  In  In2  1  0.75000000  0.76922836  0.81046931  1
  In  In3  1  0.25000000  0.23077164  0.18953069  1
  In  In4  1  0.25000000  0.67617863  0.68410698  1
  In  In5  1  0.75000000  0.32382137  0.31589302  1
  In  In6  1  0.75000000  0.17617863  0.81589302  1
  In  In7  1  0.25000000  0.82382137  0.18410698  1
  In  In8  1  0.25000000  0.14439172  0.53518521  1
  In  In9  1  0.75000000  0.85560828  0.46481479  1
  In  In10  1  0.75000000  0.64439172  0.96481479  1
  In  In11  1  0.25000000  0.35560828  0.03518521  1
  In  In12  1  0.25000000  0.48089262  0.43372842  1
  In  In13  1  0.75000000  0.51910738  0.56627158  1
  In  In14  1  0.75000000  0.98089262  0.06627158  1
  In  In15  1  0.25000000  0.01910738  0.93372842  1
  Au  Au0  1  0.25000000  0.75647032  0.53649662  1
  Au  Au1  1  0.75000000  0.24352968  0.46350338  1
  Au  Au2  1  0.75000000  0.25647032  0.96350338  1
  Au  Au3  1  0.25000000  0.74352968  0.03649662  1
  Au  Au4  1  0.25000000  0.96886516  0.78340682  1
  Au  Au5  1  0.75000000  0.03113484  0.21659318  1
  Au  Au6  1  0.75000000  0.46886516  0.71659318  1
  Au  Au7  1  0.25000000  0.53113484  0.28340682  1
loop_
_geom_bond_atom_site_label_1
_geom_bond_atom_site_label_2
_geom_bond_distance
_geom_bond_site_symmetry_2
In0 La0 3.328185 1_545
In0 La0 3.328185 1_445
In0 La2 3.520936 1_555
In1 La1 3.328185 1_565
In1 La1 3.328185 1_665
In1 La3 3.520936 1_555
In2 La2 3.328185 1_655
In2 La2 3.328185 1_555
In2 La0 3.520936 1_555
In3 La3 3.328185 1_455
In3 La3 3.328185 1_555
In3 La1 3.520936 1_555
In4 La0 3.366116 1_455
In4 La0 3.366116 1_555
In4 La2 3.571145 1_555
In5 La1 3.366116 1_555
In5 La1 3.366116 1_655
In5 La3 3.571145 1_555
In6 La2 3.366116 1_655
In6 La2 3.366116 1_555
In6 La0 3.571145 1_545
In7 La3 3.366116 1_455
In7 La3 3.366116 1_555
In7 La1 3.571145 1_565
In8 La0 3.319647 1_445
In8 La0 3.319647 1_545
In8 La1 3.421525 1_555
In9 La1 3.319647 1_565
In9 La1 3.319647 1_665
In9 La0 3.421525 1_555
In10 La2 3.319647 1_555
In10 La2 3.319647 1_655
In10 La3 3.421525 1_556
In11 La3 3.319647 1_455
In11 La3 3.319647 1_555
In11 La2 3.421525 1_554
In12 La1 3.716448 1_555
In13 La0 3.716448 1_555
In14 La3 3.716448 1_555
In15 La2 3.716448 1_555
Au0 In9 2.810492 1_455
Au0 In9 2.810492 1_555
Au0 In12 2.814956 1_555
Au0 In4 2.817435 1_555
Au0 In8 2.902522 1_565
Au0 In13 3.004016 1_455
Au0 In13 3.004016 1_555
Au0 La0 3.488411 1_455
Au0 La0 3.488411 1_555
Au0 La1 3.863804 1_565
Au1 In8 2.810492 1_655
Au1 In8 2.810492 1_555
Au1 In13 2.814956 1_555
Au1 In5 2.817435 1_555
Au1 In9 2.902522 1_545
Au1 In12 3.004016 1_555
Au1 In12 3.004016 1_655
Au1 La1 3.488411 1_555
Au1 La1 3.488411 1_655
Au1 La0 3.863804 1_545
Au2 In11 2.810492 1_556
Au2 In11 2.810492 1_656
Au2 In14 2.814956 1_546
Au2 In6 2.817435 1_555
Au2 In10 2.902522 1_555
Au2 In15 3.004016 1_555
Au2 In15 3.004016 1_655
Au2 La2 3.488411 1_655
Au2 La2 3.488411 1_555
Au2 La3 3.863804 1_556
Au3 In10 2.810492 1_454
Au3 In10 2.810492 1_554
Au3 In15 2.814956 1_564
Au3 In7 2.817435 1_555
Au3 In11 2.902522 1_555
Au3 In14 3.004016 1_455
Au3 In14 3.004016 1_555
Au3 La3 3.488411 1_455
Au3 La3 3.488411 1_555
Au3 La2 3.863804 1_554
Au4 In15 2.828297 1_565
Au4 In2 2.836828 1_455
Au4 In2 2.836828 1_555
Au4 In0 2.848689 1_565
Au4 In4 2.867842 1_555
Au4 In6 2.887004 1_465
Au4 In6 2.887004 1_565
Au4 La0 3.545818 1_555
Au4 La0 3.545818 1_455
Au4 La2 3.922993 1_555
Au5 In14 2.828297 1_545
Au5 In3 2.836828 1_555
Au5 In3 2.836828 1_655
Au5 In1 2.848689 1_545
Au5 In5 2.867842 1_555
Au5 In7 2.887004 1_645
Au5 In7 2.887004 1_545
Au5 La1 3.545818 1_555
Au5 La1 3.545818 1_655
Au5 La3 3.922993 1_555
Au6 In13 2.828297 1_555
Au6 In0 2.836828 1_555
Au6 In0 2.836828 1_655
Au6 In2 2.848689 1_555
Au6 In6 2.867842 1_555
Au6 In4 2.887004 1_655
Au6 In4 2.887004 1_555
Au6 La2 3.545818 1_555
Au6 La2 3.545818 1_655
Au6 La0 3.922993 1_545
Au7 In12 2.828297 1_555
Au7 In1 2.836828 1_455
Au7 In1 2.836828 1_555
Au7 In3 2.848689 1_555
Au7 In7 2.867842 1_555
Au7 In5 2.887004 1_455
Au7 In5 2.887004 1_555
Au7 La3 3.545818 1_455
Au7 La3 3.545818 1_555
Au7 La1 3.922993 1_565
