# generated using pymatgen
data_Ba2SmMgNbO6
_symmetry_space_group_name_H-M   'P 1'
_cell_length_a   6.97174090
_cell_length_b   6.97101091
_cell_length_c   6.97101062
_cell_angle_alpha   50.81105511
_cell_angle_beta   50.80999785
_cell_angle_gamma   50.80999944
_symmetry_Int_Tables_number   1
_chemical_formula_structural   Ba2SmMgNbO6
_chemical_formula_sum   'Ba2 Sm1 Mg1 Nb1 O6'
_cell_volume   187.64118507
_cell_formula_units_Z   1
loop_
 _symmetry_equiv_pos_site_id
 _symmetry_equiv_pos_as_xyz
  1  'x, y, z'
loop_
 _atom_site_type_symbol
 _atom_site_label
 _atom_site_symmetry_multiplicity
 _atom_site_fract_x
 _atom_site_fract_y
 _atom_site_fract_z
 _atom_site_occupancy
  Ba  Ba0  1  0.72127894  0.72075886  0.72075886  1
  Ba  Ba1  1  0.30247529  0.30192250  0.30192250  1
  Sm  Sm0  1  0.50633724  0.50566949  0.50566949  1
  Mg  Mg0  1  0.13143149  0.13095492  0.13095492  1
  Nb  Nb0  1  0.98242541  0.98196601  0.98196601  1
  O  O0  1  0.25552423  0.76435873  0.76435873  1
  O  O1  1  0.22522043  0.75383258  0.22505145  1
  O  O2  1  0.76445273  0.25583327  0.76449390  1
  O  O3  1  0.22522043  0.22505145  0.75383258  1
  O  O4  1  0.75399307  0.22536630  0.22536630  1
  O  O5  1  0.76445273  0.76449390  0.25583327  1
loop_
_geom_bond_atom_site_label_1
_geom_bond_atom_site_label_2
_geom_bond_distance
_geom_bond_site_symmetry_2
Ba0 O5 2.884791 1_555
Ba0 O2 2.884791 1_555
Ba0 O0 2.889773 1_555
Ba0 O1 3.001908 1_655
Ba0 O3 3.001908 1_655
Ba0 O4 3.003048 1_556
Ba0 O4 3.003048 1_565
Ba0 O1 3.003943 1_556
Ba0 O3 3.003943 1_565
Ba1 O3 2.566806 1_555
Ba1 O1 2.566806 1_555
Ba1 O4 2.567574 1_555
Ba1 O2 3.078369 1_554
Ba1 O5 3.078369 1_545
Ba1 O0 3.080907 1_554
Ba1 O0 3.080907 1_545
Ba1 O2 3.082002 1_455
Ba1 O5 3.082002 1_455
Ba1 Mg0 3.106468 1_555
Mg0 O3 1.989825 1_554
Mg0 O1 1.989825 1_545
Mg0 O4 1.990133 1_455
Nb0 O0 1.958369 1_655
Nb0 O5 1.959523 1_556
Nb0 O2 1.959523 1_565
Nb0 O1 2.254587 1_656
Nb0 O3 2.254587 1_665
Nb0 O4 2.258868 1_566
O0 Sm0 2.387697 1_555
O1 Sm0 2.635182 1_555
O2 Sm0 2.387087 1_555
O3 Sm0 2.635182 1_555
O4 Sm0 2.629651 1_555
O5 Sm0 2.387087 1_555
