# generated using pymatgen
data_MoH8S2(NO)2
_symmetry_space_group_name_H-M   'P 1'
_cell_length_a   6.89100157
_cell_length_b   6.89100157
_cell_length_c   9.62011790
_cell_angle_alpha   66.94139559
_cell_angle_beta   66.94139559
_cell_angle_gamma   64.81669661
_symmetry_Int_Tables_number   1
_chemical_formula_structural   MoH8S2(NO)2
_chemical_formula_sum   'Mo2 H16 S4 N4 O4'
_cell_volume   366.21929488
_cell_formula_units_Z   2
loop_
 _symmetry_equiv_pos_site_id
 _symmetry_equiv_pos_as_xyz
  1  'x, y, z'
loop_
 _atom_site_type_symbol
 _atom_site_label
 _atom_site_symmetry_multiplicity
 _atom_site_fract_x
 _atom_site_fract_y
 _atom_site_fract_z
 _atom_site_occupancy
  Mo  Mo0  1  0.08339500  0.91660500  0.75000000  1
  Mo  Mo1  1  0.91660500  0.08339500  0.25000000  1
  H  H0  1  0.79471800  0.72318900  0.71407800  1
  H  H1  1  0.27681100  0.20528200  0.78592200  1
  H  H2  1  0.20528200  0.27681100  0.28592200  1
  H  H3  1  0.72318900  0.79471800  0.21407800  1
  H  H4  1  0.79400700  0.71299300  0.53893000  1
  H  H5  1  0.28700700  0.20599300  0.96107000  1
  H  H6  1  0.20599300  0.28700700  0.46107000  1
  H  H7  1  0.71299300  0.79400700  0.03893000  1
  H  H8  1  0.87978000  0.47209500  0.67645500  1
  H  H9  1  0.52790500  0.12022000  0.82354500  1
  H  H10  1  0.12022000  0.52790500  0.32354500  1
  H  H11  1  0.47209500  0.87978000  0.17645500  1
  H  H12  1  0.60639800  0.63624400  0.70859200  1
  H  H13  1  0.36375600  0.39360200  0.79140800  1
  H  H14  1  0.39360200  0.36375600  0.29140800  1
  H  H15  1  0.63624400  0.60639800  0.20859200  1
  S  S0  1  0.25281000  0.72770500  0.93866300  1
  S  S1  1  0.27229500  0.74719000  0.56133700  1
  S  S2  1  0.74719000  0.27229500  0.06133700  1
  S  S3  1  0.72770500  0.25281000  0.43866300  1
  N  N0  1  0.76899600  0.63536300  0.65917000  1
  N  N1  1  0.36463700  0.23100400  0.84083000  1
  N  N2  1  0.23100400  0.36463700  0.34083000  1
  N  N3  1  0.63536300  0.76899600  0.15917000  1
  O  O0  1  0.09702700  0.19747100  0.67667600  1
  O  O1  1  0.80252900  0.90297300  0.82332400  1
  O  O2  1  0.90297300  0.80252900  0.32332400  1
  O  O3  1  0.19747100  0.09702700  0.17667600  1
loop_
_geom_bond_atom_site_label_1
_geom_bond_atom_site_label_2
_geom_bond_distance
_geom_bond_site_symmetry_2
Mo0 O1 1.812656 1_455
Mo0 O0 1.812656 1_565
Mo0 S0 2.206187 1_555
Mo0 S1 2.206187 1_555
Mo1 O2 1.812656 1_545
Mo1 O3 1.812656 1_655
Mo1 S2 2.206187 1_555
Mo1 S3 2.206187 1_555
H0 N0 1.044879 1_555
H1 N1 1.044879 1_555
H2 N2 1.044879 1_555
H3 N3 1.044879 1_555
H4 N0 1.044727 1_555
H5 N1 1.044727 1_555
H6 N2 1.044727 1_555
H7 N3 1.044727 1_555
H8 N0 1.047947 1_555
H9 N1 1.047947 1_555
H10 N2 1.047947 1_555
H11 N3 1.047947 1_555
H12 N0 1.029899 1_555
H13 N1 1.029899 1_555
H14 N2 1.029899 1_555
H15 N3 1.029899 1_555
