# generated using pymatgen
data_MgTi4(FeO4)3
_symmetry_space_group_name_H-M   'P 1'
_cell_length_a   6.97701457
_cell_length_b   6.45343674
_cell_length_c   6.97112501
_cell_angle_alpha   109.80137095
_cell_angle_beta   114.59175759
_cell_angle_gamma   106.69499044
_symmetry_Int_Tables_number   1
_chemical_formula_structural   MgTi4(FeO4)3
_chemical_formula_sum   'Mg1 Ti4 Fe3 O12'
_cell_volume   232.46933131
_cell_formula_units_Z   1
loop_
 _symmetry_equiv_pos_site_id
 _symmetry_equiv_pos_as_xyz
  1  'x, y, z'
loop_
 _atom_site_type_symbol
 _atom_site_label
 _atom_site_symmetry_multiplicity
 _atom_site_fract_x
 _atom_site_fract_y
 _atom_site_fract_z
 _atom_site_occupancy
  Mg  Mg0  1  0.85353324  0.44154997  0.59885965  1
  Ti  Ti0  1  0.96651655  0.98613442  0.49937247  1
  Ti  Ti1  1  0.95921914  0.46154910  0.03001709  1
  Ti  Ti2  1  0.44150923  0.46782021  0.50466007  1
  Ti  Ti3  1  0.48646740  0.01779678  0.01990954  1
  Fe  Fe0  1  0.42889151  0.49937301  -0.02400406  1
  Fe  Fe1  1  0.13584328  0.64297667  0.51615757  1
  Fe  Fe2  1  0.48821910  0.94359601  0.45334141  1
  O  O0  1  0.50539728  0.80050823  0.68964139  1
  O  O1  1  0.10517741  0.79812226  0.29994408  1
  O  O2  1  0.88613230  0.18915943  0.69545729  1
  O  O3  1  0.19098700  0.30926883  0.51447783  1
  O  O4  1  0.29160014  0.50043137  0.20454793  1
  O  O5  1  0.70108753  0.48579552  0.78879416  1
  O  O6  1  0.81222203  0.30192754  0.13465967  1
  O  O7  1  0.68095879  0.88319688  0.20561425  1
  O  O8  1  0.50018011  0.19351833  0.30942345  1
  O  O9  1  0.21826908  0.69531499  0.86245748  1
  O  O10  1  0.84794655  0.69960351  0.50337635  1
  O  O11  1  0.31234433  0.11985894  0.81829738  1
loop_
_geom_bond_atom_site_label_1
_geom_bond_atom_site_label_2
_geom_bond_distance
_geom_bond_site_symmetry_2
Mg0 O10 1.996155 1_555
Mg0 O2 1.996653 1_555
Mg0 O5 2.014051 1_555
Mg0 O8 2.028689 1_555
Mg0 O9 2.051618 1_655
Fe0 O11 2.038560 1_554
Fe0 O7 2.063595 1_555
Fe0 O4 2.173175 1_555
Fe0 O9 2.272127 1_554
Fe0 O3 2.514426 1_554
Fe0 O5 2.719970 1_554
Fe1 O1 2.048694 1_555
Fe1 O0 2.051786 1_555
Fe1 O9 2.110247 1_555
Fe1 O10 2.114485 1_455
Fe1 O6 2.279524 1_455
Fe1 O3 2.291006 1_555
Fe2 O0 2.123774 1_555
Fe2 O1 2.160276 1_555
Fe2 O8 2.168754 1_565
Fe2 O2 2.197193 1_565
Fe2 O4 2.339686 1_555
Fe2 O7 2.592399 1_555
O0 Ti2 1.888666 1_555
O0 Ti3 2.335953 1_566
O1 Ti1 1.913313 1_455
O1 Ti0 2.234246 1_455
O2 Ti0 1.935598 1_545
O2 Ti1 2.122960 1_556
O3 Ti2 1.796168 1_555
O3 Ti0 2.156382 1_445
O4 Ti1 2.007894 1_455
O4 Ti2 2.029470 1_555
O5 Ti1 1.978722 1_556
O5 Ti2 1.988646 1_555
O6 Ti1 1.780425 1_555
O6 Ti3 2.065494 1_555
O7 Ti0 1.877882 1_555
O7 Ti3 2.061264 1_565
O8 Ti3 1.895976 1_555
O8 Ti2 2.097908 1_555
O9 Ti3 1.882219 1_566
O10 Ti0 1.810978 1_555
O11 Ti3 1.884372 1_556
O11 Ti0 2.132699 1_445
