# generated using pymatgen
data_Sc5(NiTe)2
_symmetry_space_group_name_H-M   'P 1'
_cell_length_a   3.96223600
_cell_length_b   10.65544811
_cell_length_c   17.93948041
_cell_angle_alpha   90.00000000
_cell_angle_beta   90.00000000
_cell_angle_gamma   90.00000000
_symmetry_Int_Tables_number   1
_chemical_formula_structural   Sc5(NiTe)2
_chemical_formula_sum   'Sc20 Ni8 Te8'
_cell_volume   757.39410097
_cell_formula_units_Z   4
loop_
 _symmetry_equiv_pos_site_id
 _symmetry_equiv_pos_as_xyz
  1  'x, y, z'
loop_
 _atom_site_type_symbol
 _atom_site_label
 _atom_site_symmetry_multiplicity
 _atom_site_fract_x
 _atom_site_fract_y
 _atom_site_fract_z
 _atom_site_occupancy
  Sc  Sc0  1  0.25000000  0.17681019  0.48061316  1
  Sc  Sc1  1  0.75000000  0.82318981  0.51938684  1
  Sc  Sc2  1  0.75000000  0.67681019  0.01938684  1
  Sc  Sc3  1  0.25000000  0.32318981  0.98061316  1
  Sc  Sc4  1  0.25000000  0.05799129  0.07164805  1
  Sc  Sc5  1  0.75000000  0.94200871  0.92835195  1
  Sc  Sc6  1  0.75000000  0.55799129  0.42835195  1
  Sc  Sc7  1  0.25000000  0.44200871  0.57164805  1
  Sc  Sc8  1  0.25000000  0.80320948  0.36681370  1
  Sc  Sc9  1  0.75000000  0.19679052  0.63318630  1
  Sc  Sc10  1  0.75000000  0.30320948  0.13318630  1
  Sc  Sc11  1  0.25000000  0.69679052  0.86681370  1
  Sc  Sc12  1  0.25000000  0.02087823  0.77348907  1
  Sc  Sc13  1  0.75000000  0.97912177  0.22651093  1
  Sc  Sc14  1  0.75000000  0.52087823  0.72651093  1
  Sc  Sc15  1  0.25000000  0.47912177  0.27348907  1
  Sc  Sc16  1  0.25000000  0.78433613  0.15147020  1
  Sc  Sc17  1  0.75000000  0.21566387  0.84852980  1
  Sc  Sc18  1  0.75000000  0.28433613  0.34852980  1
  Sc  Sc19  1  0.25000000  0.71566387  0.65147020  1
  Ni  Ni0  1  0.25000000  0.67485482  0.49365536  1
  Ni  Ni1  1  0.75000000  0.32514518  0.50634464  1
  Ni  Ni2  1  0.75000000  0.17485482  0.00634464  1
  Ni  Ni3  1  0.25000000  0.82514518  0.99365536  1
  Ni  Ni4  1  0.25000000  0.39682269  0.41508529  1
  Ni  Ni5  1  0.75000000  0.60317731  0.58491471  1
  Ni  Ni6  1  0.75000000  0.89682269  0.08491471  1
  Ni  Ni7  1  0.25000000  0.10317731  0.91508529  1
  Te  Te0  1  0.25000000  0.19107652  0.23216364  1
  Te  Te1  1  0.75000000  0.80892348  0.76783636  1
  Te  Te2  1  0.75000000  0.69107652  0.26783636  1
  Te  Te3  1  0.25000000  0.30892348  0.73216364  1
  Te  Te4  1  0.25000000  0.99044745  0.60707247  1
  Te  Te5  1  0.75000000  0.00955255  0.39292753  1
  Te  Te6  1  0.75000000  0.49044745  0.89292753  1
  Te  Te7  1  0.25000000  0.50955255  0.10707247  1
loop_
_geom_bond_atom_site_label_1
_geom_bond_atom_site_label_2
_geom_bond_distance
_geom_bond_site_symmetry_2
Sc0 Te4 3.014951 1_545
Sc0 Te5 3.094434 1_455
Sc0 Te5 3.094434 1_555
Sc1 Te5 3.014951 1_565
Sc1 Te4 3.094434 1_555
Sc1 Te4 3.094434 1_655
Sc2 Te6 3.014951 1_554
Sc2 Te7 3.094434 1_555
Sc2 Te7 3.094434 1_655
Sc3 Te7 3.014951 1_556
Sc3 Te6 3.094434 1_455
Sc3 Te6 3.094434 1_555
Sc4 Te0 3.209807 1_555
Sc5 Te1 3.209807 1_555
Sc6 Te2 3.209807 1_555
Sc7 Te3 3.209807 1_555
Sc8 Te2 2.916368 1_555
Sc8 Te2 2.916368 1_455
Sc8 Te5 2.996410 1_465
Sc8 Te5 2.996410 1_565
Sc9 Te3 2.916368 1_555
Sc9 Te3 2.916368 1_655
Sc9 Te4 2.996410 1_645
Sc9 Te4 2.996410 1_545
Sc10 Te0 2.916368 1_655
Sc10 Te0 2.916368 1_555
Sc10 Te7 2.996410 1_655
Sc10 Te7 2.996410 1_555
Sc11 Te1 2.916368 1_555
Sc11 Te1 2.916368 1_455
Sc11 Te6 2.996410 1_455
Sc11 Te6 2.996410 1_555
Sc12 Te4 3.002985 1_545
Sc12 Te1 3.005963 1_545
Sc12 Te1 3.005963 1_445
Sc12 Te3 3.157517 1_555
Sc13 Te5 3.002985 1_565
Sc13 Te0 3.005963 1_565
Sc13 Te0 3.005963 1_665
Sc13 Te2 3.157517 1_555
Sc14 Te6 3.002985 1_555
Sc14 Te3 3.005963 1_555
Sc14 Te3 3.005963 1_655
Sc14 Te1 3.157517 1_555
Sc15 Te7 3.002985 1_555
Sc15 Te2 3.005963 1_555
Sc15 Te2 3.005963 1_455
Sc15 Te0 3.157517 1_555
Sc16 Te7 3.034339 1_555
Sc16 Te2 3.044696 1_455
Sc16 Te2 3.044696 1_555
Sc17 Te6 3.034339 1_555
Sc17 Te3 3.044696 1_655
Sc17 Te3 3.044696 1_555
Sc18 Te5 3.034339 1_555
Sc18 Te0 3.044696 1_555
Sc18 Te0 3.044696 1_655
Sc19 Te4 3.034339 1_555
Sc19 Te1 3.044696 1_555
Sc19 Te1 3.044696 1_455
Ni0 Sc1 2.576069 1_455
Ni0 Sc1 2.576069 1_555
Ni0 Sc6 2.616843 1_555
Ni0 Sc6 2.616843 1_455
Ni0 Sc8 2.654867 1_555
Ni0 Ni5 2.681119 1_455
Ni0 Ni5 2.681119 1_555
Ni0 Sc7 2.848398 1_555
Ni0 Sc19 2.864316 1_555
Ni1 Sc0 2.576069 1_655
Ni1 Sc0 2.576069 1_555
Ni1 Sc7 2.616843 1_555
Ni1 Sc7 2.616843 1_655
Ni1 Sc9 2.654867 1_555
Ni1 Ni4 2.681119 1_655
Ni1 Ni4 2.681119 1_555
Ni1 Sc6 2.848398 1_555
Ni1 Sc18 2.864316 1_555
Ni2 Sc3 2.576069 1_554
Ni2 Sc3 2.576069 1_654
Ni2 Sc4 2.616843 1_655
Ni2 Sc4 2.616843 1_555
Ni2 Sc10 2.654867 1_555
Ni2 Ni7 2.681119 1_554
Ni2 Ni7 2.681119 1_654
Ni2 Sc5 2.848398 1_544
Ni2 Sc17 2.864316 1_554
Ni3 Sc2 2.576069 1_456
Ni3 Sc2 2.576069 1_556
Ni3 Sc5 2.616843 1_555
Ni3 Sc5 2.616843 1_455
Ni3 Sc11 2.654867 1_555
Ni3 Ni6 2.681119 1_556
Ni3 Ni6 2.681119 1_456
Ni3 Sc4 2.848398 1_566
Ni3 Sc16 2.864316 1_556
Ni4 Sc18 2.605192 1_455
Ni4 Sc18 2.605192 1_555
Ni4 Sc0 2.622551 1_555
Ni4 Sc6 2.632617 1_455
Ni4 Sc6 2.632617 1_555
Ni4 Sc15 2.687273 1_555
Ni4 Sc7 2.849625 1_555
Ni5 Sc19 2.605192 1_555
Ni5 Sc19 2.605192 1_655
Ni5 Sc1 2.622551 1_555
Ni5 Sc7 2.632617 1_655
Ni5 Sc7 2.632617 1_555
Ni5 Sc14 2.687273 1_555
Ni5 Sc6 2.849625 1_555
Ni6 Sc16 2.605192 1_555
Ni6 Sc16 2.605192 1_655
Ni6 Sc2 2.622551 1_555
Ni6 Sc4 2.632617 1_565
Ni6 Sc4 2.632617 1_665
Ni6 Sc13 2.687273 1_555
Ni6 Sc5 2.849625 1_554
Ni7 Sc17 2.605192 1_555
Ni7 Sc17 2.605192 1_455
Ni7 Sc3 2.622551 1_555
Ni7 Sc5 2.632617 1_545
Ni7 Sc5 2.632617 1_445
Ni7 Sc12 2.687273 1_555
Ni7 Sc4 2.849625 1_556
