# generated using pymatgen
data_MgMn12O17F7
_symmetry_space_group_name_H-M   'P 1'
_cell_length_a   4.78790867
_cell_length_b   5.71715029
_cell_length_c   15.03206357
_cell_angle_alpha   90.96204015
_cell_angle_beta   86.72447579
_cell_angle_gamma   90.27400835
_symmetry_Int_Tables_number   1
_chemical_formula_structural   MgMn12O17F7
_chemical_formula_sum   'Mg1 Mn12 O17 F7'
_cell_volume   410.74244334
_cell_formula_units_Z   1
loop_
 _symmetry_equiv_pos_site_id
 _symmetry_equiv_pos_as_xyz
  1  'x, y, z'
loop_
 _atom_site_type_symbol
 _atom_site_label
 _atom_site_symmetry_multiplicity
 _atom_site_fract_x
 _atom_site_fract_y
 _atom_site_fract_z
 _atom_site_occupancy
  Mg  Mg0  1  0.49233900  0.07550800  0.74092600  1
  Mn  Mn0  1  0.00774100  0.17733600  0.40987900  1
  Mn  Mn1  1  0.02270900  0.83033300  0.24682900  1
  Mn  Mn2  1  0.02237600  0.17220400  0.08522800  1
  Mn  Mn3  1  0.01439600  0.34792500  0.74276500  1
  Mn  Mn4  1  0.01836300  0.83765100  0.57666700  1
  Mn  Mn5  1  0.02484400  0.83225400  0.91168700  1
  Mn  Mn6  1  0.52752600  0.32271600  0.92862100  1
  Mn  Mn7  1  0.46244500  0.37988000  0.57836400  1
  Mn  Mn8  1  0.48664900  0.36616100  0.25667600  1
  Mn  Mn9  1  0.50574200  0.63843500  0.09515400  1
  Mn  Mn10  1  0.47813600  0.65066500  0.41862500  1
  Mn  Mn11  1  0.51140100  0.60042000  0.75682700  1
  O  O0  1  0.22051300  0.12386100  0.29932100  1
  O  O1  1  0.21292700  0.14121200  0.64772900  1
  O  O2  1  0.22281000  0.11791700  0.97385700  1
  O  O3  1  0.22838200  0.88057900  0.13799500  1
  O  O4  1  0.22112900  0.90702600  0.46320400  1
  O  O5  1  0.30666300  0.83162700  0.81135700  1
  O  O6  1  0.24587200  0.42463900  0.48029900  1
  O  O7  1  0.28316400  0.40117400  0.14940100  1
  O  O8  1  0.26888500  0.60492600  0.31386400  1
  O  O9  1  0.25482000  0.59699300  0.65667300  1
  O  O10  1  0.32489800  0.35072900  0.81534700  1
  O  O11  1  0.73597600  0.38817100  0.03137400  1
  O  O12  1  0.71966300  0.61623200  0.19575300  1
  O  O13  1  0.70341700  0.39217700  0.36006400  1
  O  O14  1  0.68224000  0.62948800  0.52521100  1
  O  O15  1  0.79333200  0.55400200  0.84084500  1
  O  O16  1  0.68761700  0.35473200  0.68219500  1
  F  F0  1  0.29142900  0.61571000  0.98516300  1
  F  F1  1  0.75691000  0.13016500  0.19416000  1
  F  F2  1  0.74046100  0.14289500  0.52235000  1
  F  F3  1  0.75560600  0.87345200  0.35724100  1
  F  F4  1  0.75154300  0.87201000  0.02461800  1
  F  F5  1  0.78773600  0.09015300  0.83837800  1
  F  F6  1  0.74323400  0.83578700  0.69118300  1
loop_
_geom_bond_atom_site_label_1
_geom_bond_atom_site_label_2
_geom_bond_distance
_geom_bond_site_symmetry_2
Mg0 O5 1.945625 1_545
Mg0 O1 2.032266 1_555
Mg0 O16 2.034871 1_555
Mg0 O10 2.054388 1_555
Mn0 O0 1.919815 1_555
Mn0 O4 2.055463 1_545
Mn0 O13 2.089296 1_455
Mn0 O6 2.119376 1_555
Mn1 O3 1.886189 1_555
Mn1 O8 2.063792 1_555
Mn1 O12 2.066835 1_455
Mn1 O0 2.088410 1_565
Mn2 O2 1.903106 1_554
Mn2 O11 2.058357 1_455
Mn2 O7 2.069508 1_555
Mn2 O3 2.128693 1_545
Mn3 O16 1.855534 1_455
Mn3 O10 1.893502 1_555
Mn3 O1 2.034686 1_555
Mn3 O15 2.111241 1_455
Mn3 O9 2.214389 1_555
Mn4 O4 1.959245 1_555
Mn4 O14 2.167388 1_455
Mn4 O9 2.201637 1_555
Mn4 O1 2.248741 1_565
Mn5 O5 1.965342 1_555
Mn5 O2 2.115234 1_565
Mn5 O15 2.225872 1_455
Mn6 O11 1.917044 1_556
Mn6 O2 1.964405 1_555
Mn6 O10 2.016338 1_555
Mn6 O15 2.227034 1_555
Mn7 O6 1.871795 1_555
Mn7 O14 1.926177 1_555
Mn7 O9 1.934850 1_555
Mn7 O16 1.954575 1_555
Mn7 O1 2.065467 1_555
Mn8 O8 1.887127 1_555
Mn8 O13 1.920861 1_555
Mn8 O7 1.944703 1_555
Mn8 O0 1.968035 1_555
Mn8 O12 2.009811 1_555
Mn9 O12 1.880594 1_555
Mn9 O7 1.888019 1_555
Mn9 O3 1.996158 1_555
Mn9 O11 2.007429 1_555
Mn10 O6 1.916945 1_555
Mn10 O8 1.927695 1_555
Mn10 O14 1.929580 1_555
Mn10 O13 1.996332 1_555
Mn10 O4 2.000357 1_555
Mn11 O5 1.806735 1_555
Mn11 O10 1.883941 1_555
Mn11 O15 1.922791 1_555
Mn11 O16 1.947741 1_555
Mn11 O9 1.996569 1_555
F0 Mn9 1.997217 1_556
F0 Mn5 2.145665 1_555
F0 Mn6 2.160247 1_555
F1 Mn2 2.031514 1_655
F1 Mn8 2.052580 1_555
F1 Mn1 2.316549 1_645
F2 Mn7 2.041421 1_555
F2 Mn0 2.072759 1_655
F2 Mn4 2.382594 1_645
F3 Mn10 2.030239 1_555
F3 Mn1 2.048819 1_655
F3 Mn0 2.268202 1_665
F4 Mn9 2.045100 1_555
F4 Mn5 2.093270 1_654
F4 Mn2 2.349112 1_665
F5 Mg0 2.093993 1_555
F5 Mn5 2.211492 1_645
F5 Mn6 2.218636 1_555
F5 Mn3 2.300626 1_655
F6 Mg0 1.938856 1_565
F6 Mn11 1.980315 1_555
F6 Mn4 2.107127 1_655
