# generated using pymatgen
data_La(NiSn)2
_symmetry_space_group_name_H-M   'P 1'
_cell_length_a   4.45118201
_cell_length_b   4.45118134
_cell_length_c   6.06309958
_cell_angle_alpha   111.53511168
_cell_angle_beta   111.53510557
_cell_angle_gamma   90.00000412
_symmetry_Int_Tables_number   1
_chemical_formula_structural   La(NiSn)2
_chemical_formula_sum   'La1 Ni2 Sn2'
_cell_volume   102.67402863
_cell_formula_units_Z   1
loop_
 _symmetry_equiv_pos_site_id
 _symmetry_equiv_pos_as_xyz
  1  'x, y, z'
loop_
 _atom_site_type_symbol
 _atom_site_label
 _atom_site_symmetry_multiplicity
 _atom_site_fract_x
 _atom_site_fract_y
 _atom_site_fract_z
 _atom_site_occupancy
  La  La0  1  -0.00000000  -0.00000000  0.00000000  1
  Ni  Ni0  1  0.75000000  0.25000000  0.50000000  1
  Ni  Ni1  1  0.25000000  0.75000000  0.50000000  1
  Sn  Sn0  1  0.64029741  0.64029741  0.28059382  1
  Sn  Sn1  1  0.35970259  0.35970259  0.71940618  1
loop_
_geom_bond_atom_site_label_1
_geom_bond_atom_site_label_2
_geom_bond_distance
_geom_bond_site_symmetry_2
La0 Ni1 3.415688 1_544
La0 Ni0 3.415688 1_455
La0 Ni1 3.415688 1_545
La0 Ni0 3.415688 1_454
La0 Ni0 3.415688 1_444
La0 Ni1 3.415688 1_555
La0 Ni0 3.415688 1_555
La0 Ni1 3.415688 1_444
La0 Sn1 3.467107 1_554
La0 Sn0 3.467107 1_445
La0 Sn0 3.467110 1_455
La0 Sn1 3.467110 1_544
La0 Sn0 3.467111 1_545
La0 Sn1 3.467111 1_454
La0 Sn0 3.467114 1_555
La0 Sn1 3.467114 1_444
Ni0 Sn0 2.499201 1_545
Ni0 Sn1 2.499201 1_655
Ni0 Sn0 2.499204 1_555
Ni0 Sn1 2.499204 1_555
Ni1 Sn1 2.499201 1_565
Ni1 Sn0 2.499201 1_455
Ni1 Sn1 2.499204 1_555
Ni1 Sn0 2.499204 1_555
Sn0 Sn1 2.908158 1_554
