# generated using pymatgen
data_KMgCr2FeO8
_symmetry_space_group_name_H-M   'P 1'
_cell_length_a   5.48506602
_cell_length_b   5.48502652
_cell_length_c   8.59390379
_cell_angle_alpha   79.74529871
_cell_angle_beta   79.74122071
_cell_angle_gamma   60.69437128
_symmetry_Int_Tables_number   1
_chemical_formula_structural   KMgCr2FeO8
_chemical_formula_sum   'K1 Mg1 Cr2 Fe1 O8'
_cell_volume   220.61299349
_cell_formula_units_Z   1
loop_
 _symmetry_equiv_pos_site_id
 _symmetry_equiv_pos_as_xyz
  1  'x, y, z'
loop_
 _atom_site_type_symbol
 _atom_site_label
 _atom_site_symmetry_multiplicity
 _atom_site_fract_x
 _atom_site_fract_y
 _atom_site_fract_z
 _atom_site_occupancy
  K  K0  1  0.90180556  0.90195502  0.95264364  1
  Mg  Mg0  1  0.14319549  0.14313852  0.21560709  1
  Cr  Cr0  1  0.39999160  0.39994828  0.30390485  1
  Cr  Cr1  1  0.62142665  0.62146383  0.70545152  1
  Fe  Fe0  1  0.00929278  0.00928354  0.51167988  1
  O  O0  1  0.34369993  0.34359263  0.11383690  1
  O  O1  1  0.76765153  0.23303506  0.32526052  1
  O  O2  1  0.27803688  0.77263064  0.67629893  1
  O  O3  1  0.23309707  0.76760936  0.32526702  1
  O  O4  1  0.21689670  0.21689690  0.42401118  1
  O  O5  1  0.78432526  0.78433935  0.58765773  1
  O  O6  1  0.77258855  0.27807062  0.67628834  1
  O  O7  1  0.64049198  0.64053625  0.89042540  1
loop_
_geom_bond_atom_site_label_1
_geom_bond_atom_site_label_2
_geom_bond_distance
_geom_bond_site_symmetry_2
K0 O7 2.637091 1_555
K0 O6 2.796877 1_565
K0 O2 2.796968 1_655
K0 O0 3.095671 1_566
K0 O0 3.097112 1_656
Mg0 O0 1.918875 1_555
Mg0 O1 1.963162 1_455
Mg0 O3 1.963181 1_545
Mg0 O4 2.052017 1_555
Cr0 O3 1.789769 1_555
Cr0 O1 1.789780 1_555
Cr0 O0 1.819838 1_555
Cr0 O4 1.825097 1_555
Cr1 O7 1.636457 1_555
Cr1 O5 1.660873 1_555
Cr1 O2 1.692095 1_555
Cr1 O6 1.692096 1_555
Fe0 O4 1.954346 1_555
Fe0 O6 2.018657 1_455
Fe0 O2 2.018690 1_545
Fe0 O3 2.072011 1_545
Fe0 O1 2.072067 1_455
Fe0 O5 2.094737 1_445
