# generated using pymatgen
data_Na10Si9Sn4Ge4(SO16)3
_symmetry_space_group_name_H-M   'P 1'
_cell_length_a   17.66457796
_cell_length_b   8.83380190
_cell_length_c   22.22499881
_cell_angle_alpha   90.07577247
_cell_angle_beta   90.28964782
_cell_angle_gamma   119.83963078
_symmetry_Int_Tables_number   1
_chemical_formula_structural   Na10Si9Sn4Ge4(SO16)3
_chemical_formula_sum   'Na30 Si27 Sn12 Ge12 S9 O144'
_cell_volume   3008.24391804
_cell_formula_units_Z   3
loop_
 _symmetry_equiv_pos_site_id
 _symmetry_equiv_pos_as_xyz
  1  'x, y, z'
loop_
 _atom_site_type_symbol
 _atom_site_label
 _atom_site_symmetry_multiplicity
 _atom_site_fract_x
 _atom_site_fract_y
 _atom_site_fract_z
 _atom_site_occupancy
  Na  Na0  1  0.32011833  0.00122930  0.24919856  1
  Na  Na1  1  0.82155656  0.00329480  0.24814382  1
  Na  Na2  1  0.18275209  0.98897182  0.74809852  1
  Na  Na3  1  0.68350106  0.99498399  0.74639956  1
  Na  Na4  1  0.01492450  0.69548863  0.57868469  1
  Na  Na5  1  0.51395877  0.70324235  0.57896771  1
  Na  Na6  1  0.01313852  0.33315921  0.07891554  1
  Na  Na7  1  0.51850652  0.32918136  0.07807901  1
  Na  Na8  1  0.48363044  0.66646431  0.91291731  1
  Na  Na9  1  0.35029984  0.03670211  0.91482742  1
  Na  Na10  1  0.85294830  0.03935300  0.91212810  1
  Na  Na11  1  0.16290318  0.30192736  0.91801881  1
  Na  Na12  1  0.48427184  0.30314547  0.41356795  1
  Na  Na13  1  0.98574044  0.30867370  0.41216123  1
  Na  Na14  1  0.16569793  0.03518847  0.41669062  1
  Na  Na15  1  0.66788075  0.03082262  0.42050779  1
  Na  Na16  1  0.34651052  0.66158355  0.41585235  1
  Na  Na17  1  0.85088042  0.66803836  0.41481975  1
  Na  Na18  1  0.00099833  0.00640799  0.50276922  1
  Na  Na19  1  0.50028647  0.00181907  0.50153798  1
  Na  Na20  1  0.00358877  0.98540816  0.00241879  1
  Na  Na21  1  0.50748937  0.01232827  0.99787623  1
  Na  Na22  1  0.34077231  0.33968674  0.83284263  1
  Na  Na23  1  0.84433030  0.35425621  0.83626026  1
  Na  Na24  1  0.33728397  0.35292912  0.33218101  1
  Na  Na25  1  0.83936876  0.35620371  0.32949239  1
  Na  Na26  1  0.17022887  0.65852276  0.16272527  1
  Na  Na27  1  0.67435800  0.65481887  0.16418840  1
  Na  Na28  1  0.17854864  0.67079516  0.66715551  1
  Na  Na29  1  0.67767614  0.66991212  0.66878258  1
  Si  Si0  1  0.35237613  0.70268100  0.24883146  1
  Si  Si1  1  0.86277792  0.71279359  0.24700372  1
  Si  Si2  1  0.99805443  0.29225622  0.24784550  1
  Si  Si3  1  0.50177870  0.30475603  0.24800806  1
  Si  Si4  1  0.00060247  0.70737772  0.75509358  1
  Si  Si5  1  0.50031990  0.70815745  0.75471290  1
  Si  Si6  1  0.35215476  0.99096258  0.75547141  1
  Si  Si7  1  0.85837792  0.98983070  0.75323974  1
  Si  Si8  1  0.18155905  0.03038992  0.58653944  1
  Si  Si9  1  0.68567298  0.04060925  0.58653792  1
  Si  Si10  1  0.32590000  0.62395931  0.58264001  1
  Si  Si11  1  0.83232799  0.62651986  0.58681130  1
  Si  Si12  1  0.32603993  0.02616587  0.08121328  1
  Si  Si13  1  0.82717632  0.03724305  0.08418984  1
  Si  Si14  1  0.18038911  0.33062032  0.08194490  1
  Si  Si15  1  0.69686659  0.34025632  0.08084374  1
  Si  Si16  1  0.30818815  0.66915037  0.91370582  1
  Si  Si17  1  0.02208841  0.38732068  0.91670989  1
  Si  Si18  1  0.53151419  0.38390988  0.91601901  1
  Si  Si19  1  0.15791357  0.94117074  0.91657690  1
  Si  Si20  1  0.66673886  0.95624219  0.91818880  1
  Si  Si21  1  0.30826729  0.95274675  0.41655082  1
  Si  Si22  1  0.81531777  0.96137251  0.41294767  1
  Si  Si23  1  0.16217906  0.37747885  0.41686818  1
  Si  Si24  1  0.66676763  0.37679347  0.41721337  1
  Si  Si25  1  0.02504967  0.67324784  0.41755578  1
  Si  Si26  1  0.52182136  0.66407815  0.41748242  1
  Sn  Sn0  1  0.49506648  0.99593318  0.35224744  1
  Sn  Sn1  1  0.49482234  0.98611202  0.64992074  1
  Sn  Sn2  1  0.49949897  0.01075798  0.14455400  1
  Sn  Sn3  1  0.33134150  0.33254300  0.68928977  1
  Sn  Sn4  1  0.83676560  0.33319814  0.69031404  1
  Sn  Sn5  1  0.32742904  0.33016514  0.18485585  1
  Sn  Sn6  1  0.32694146  0.32364529  0.97826458  1
  Sn  Sn7  1  0.32643305  0.32962528  0.48266493  1
  Sn  Sn8  1  0.83254764  0.33625813  0.48304956  1
  Sn  Sn9  1  0.67499230  0.67820564  0.51960751  1
  Sn  Sn10  1  0.16486518  0.65647522  0.31165439  1
  Sn  Sn11  1  0.66953747  0.66008948  0.31196909  1
  Ge  Ge0  1  0.99362141  0.99723117  0.35305877  1
  Ge  Ge1  1  -0.00047420  -0.00120607  0.85384717  1
  Ge  Ge2  1  0.49455843  0.99344963  0.85790527  1
  Ge  Ge3  1  0.99356389  0.96425481  0.65048191  1
  Ge  Ge4  1  0.99277410  0.01761332  0.14531291  1
  Ge  Ge5  1  0.83651012  0.34539526  0.18414363  1
  Ge  Ge6  1  0.82992717  0.30776401  0.98146465  1
  Ge  Ge7  1  0.17354960  0.66946871  0.01554108  1
  Ge  Ge8  1  0.67201683  0.66717805  0.01857755  1
  Ge  Ge9  1  0.17252415  0.67667166  0.51752634  1
  Ge  Ge10  1  0.16424345  0.67473800  0.81701570  1
  Ge  Ge11  1  0.66627557  0.68656635  0.81456296  1
  S  S0  1  0.13815117  0.99869337  0.24972979  1
  S  S1  1  0.64871294  0.00647187  0.24840238  1
  S  S2  1  0.13865682  0.28776127  0.75082802  1
  S  S3  1  0.64272970  0.29382277  0.75418781  1
  S  S4  1  0.48079519  0.33155951  0.58425481  1
  S  S5  1  0.98362618  0.32748859  0.58422025  1
  S  S6  1  0.48340209  0.62953108  0.08173562  1
  S  S7  1  0.97558119  0.62353453  0.08275960  1
  S  S8  1  0.81106295  0.66353084  0.91625670  1
  O  O0  1  0.10094924  0.02016116  0.30724284  1
  O  O1  1  0.60904033  0.02330354  0.30499831  1
  O  O2  1  0.40566581  0.77856264  0.31250857  1
  O  O3  1  0.91758772  0.79605165  0.31071986  1
  O  O4  1  0.48499336  0.18413950  0.30827762  1
  O  O5  1  0.97954524  0.16337860  0.30699963  1
  O  O6  1  0.10243259  0.18491336  0.80804883  1
  O  O7  1  0.60011683  0.17725563  0.80604479  1
  O  O8  1  0.48903293  0.80842193  0.81310411  1
  O  O9  1  0.98764022  0.81446840  0.81026615  1
  O  O10  1  0.41558586  0.03073064  0.81469223  1
  O  O11  1  0.91507333  0.02580117  0.81585114  1
  O  O12  1  0.39511468  0.97097965  0.69373582  1
  O  O13  1  0.90757706  0.97024039  0.69386019  1
  O  O14  1  0.08681825  0.19776402  0.69685791  1
  O  O15  1  0.59351914  0.22182339  0.69674335  1
  O  O16  1  0.02183748  0.82466661  0.69266178  1
  O  O17  1  0.52528300  0.82530517  0.69331858  1
  O  O18  1  0.40301303  0.83269931  0.19303430  1
  O  O19  1  0.91028088  0.84621183  0.19039314  1
  O  O20  1  0.01414247  0.20858918  0.18675681  1
  O  O21  1  0.51834260  0.22427202  0.18665711  1
  O  O22  1  0.08782811  0.98426625  0.19521436  1
  O  O23  1  0.59403180  0.98047548  0.19476299  1
  O  O24  1  0.43785041  0.35849125  0.63703165  1
  O  O25  1  0.94126097  0.36169505  0.63636288  1
  O  O26  1  0.24268387  0.11437183  0.64621430  1
  O  O27  1  0.74308461  0.12272771  0.64766751  1
  O  O28  1  0.31516243  0.50568100  0.64153864  1
  O  O29  1  0.82177294  0.50624548  0.64397328  1
  O  O30  1  0.44105784  0.51761801  0.13455468  1
  O  O31  1  0.93820621  0.50823827  0.13773920  1
  O  O32  1  0.31490390  0.11418221  0.14331404  1
  O  O33  1  0.81512867  0.13445395  0.14350444  1
  O  O34  1  0.24512809  0.37442356  0.13891451  1
  O  O35  1  0.75501803  0.37126048  0.14186690  1
  O  O36  1  0.21959487  0.29581331  0.02014444  1
  O  O37  1  0.74303165  0.31239323  0.02117251  1
  O  O38  1  0.43132453  0.55614683  0.02547690  1
  O  O39  1  0.92033871  0.54102679  0.02839615  1
  O  O40  1  0.35412728  0.16324201  0.02413955  1
  O  O41  1  0.85592587  0.16569587  0.02432716  1
  O  O42  1  0.22083650  0.14434405  0.52530586  1
  O  O43  1  0.72886030  0.14529432  0.52429222  1
  O  O44  1  0.35495488  0.55127093  0.52372725  1
  O  O45  1  0.85825269  0.55732347  0.52566992  1
  O  O46  1  0.43014074  0.30480170  0.52752632  1
  O  O47  1  0.93078012  0.29787244  0.52776745  1
  O  O48  1  0.26983683  0.71035081  0.97408359  1
  O  O49  1  0.77339603  0.70126416  0.97118135  1
  O  O50  1  0.08489805  0.46503238  0.97669038  1
  O  O51  1  0.58543553  0.46809319  0.97957886  1
  O  O52  1  0.14383021  0.81984717  0.97487614  1
  O  O53  1  0.64764828  0.81760186  0.97322413  1
  O  O54  1  0.26507848  0.82312318  0.47335018  1
  O  O55  1  0.77779649  0.83310897  0.47025044  1
  O  O56  1  0.13922681  0.46546687  0.47387083  1
  O  O57  1  0.64028830  0.45366213  0.47469530  1
  O  O58  1  0.08525306  0.70861623  0.47850821  1
  O  O59  1  0.57897599  0.70508372  0.47958224  1
  O  O60  1  0.06116905  0.62005632  0.35919736  1
  O  O61  1  0.56528055  0.62318825  0.36044039  1
  O  O62  1  0.25108568  0.88667571  0.35427665  1
  O  O63  1  0.75306995  0.89127913  0.35319235  1
  O  O64  1  0.19436666  0.50289857  0.35843446  1
  O  O65  1  0.69586766  0.50191683  0.35857323  1
  O  O66  1  0.06557731  0.50306840  0.85682837  1
  O  O67  1  0.57861745  0.52035650  0.86008985  1
  O  O68  1  0.18320276  0.87189772  0.85585766  1
  O  O69  1  0.69346155  0.88526015  0.85687339  1
  O  O70  1  0.24086759  0.62004168  0.85709121  1
  O  O71  1  0.75764183  0.63867300  0.86171247  1
  O  O72  1  0.01633200  0.85008673  0.40952295  1
  O  O73  1  0.51425343  0.84053130  0.41189899  1
  O  O74  1  0.40566473  0.97468549  0.41505088  1
  O  O75  1  0.91132307  0.97647900  0.40798967  1
  O  O76  1  0.07607727  0.18186597  0.40615706  1
  O  O77  1  0.58189170  0.18157995  0.41015660  1
  O  O78  1  0.00962075  0.18414179  0.91006193  1
  O  O79  1  0.51622544  0.18494671  0.90936726  1
  O  O80  1  0.07553210  0.98211181  0.90974731  1
  O  O81  1  0.57798483  0.96977930  0.91029313  1
  O  O82  1  0.40726385  0.84216874  0.91108005  1
  O  O83  1  0.89863773  0.82769528  0.91342765  1
  O  O84  1  0.49098915  0.17711348  0.58953127  1
  O  O85  1  0.99235226  0.17257568  0.59183885  1
  O  O86  1  0.08439422  0.01698793  0.59506418  1
  O  O87  1  0.58928723  0.02736884  0.58884827  1
  O  O88  1  0.41509802  0.81636904  0.58642888  1
  O  O89  1  0.92113885  0.82092662  0.59190900  1
  O  O90  1  0.49583664  0.80664397  0.08734763  1
  O  O91  1  0.98392516  0.79697440  0.08987030  1
  O  O92  1  0.41680839  0.01443724  0.08214404  1
  O  O93  1  0.91653668  0.02004479  0.08864360  1
  O  O94  1  0.08339689  0.14771761  0.09066841  1
  O  O95  1  0.59759704  0.16615982  0.08493839  1
  O  O96  1  0.33671470  0.16194166  0.75110250  1
  O  O97  1  0.84016489  0.15615783  0.74909199  1
  O  O98  1  0.22659941  0.29947244  0.74933422  1
  O  O99  1  0.72962241  0.30202846  0.75120253  1
  O  O100  1  0.41326728  0.51768050  0.74882557  1
  O  O101  1  0.91340240  0.51624814  0.75091949  1
  O  O102  1  0.33997217  0.50895360  0.24533666  1
  O  O103  1  0.85047500  0.51683133  0.24003147  1
  O  O104  1  0.40782258  0.30096581  0.24450116  1
  O  O105  1  0.90578372  0.29938719  0.24056662  1
  O  O106  1  0.22844842  0.15403866  0.24886733  1
  O  O107  1  0.73556441  0.16651439  0.24553586  1
  O  O108  1  0.32278751  0.49938490  0.91919222  1
  O  O109  1  0.82205693  0.51009020  0.92223458  1
  O  O110  1  0.43274773  0.36524137  0.91984929  1
  O  O111  1  0.92190120  0.36028038  0.92623309  1
  O  O112  1  0.24692405  0.13842523  0.91800108  1
  O  O113  1  0.75649770  0.14819866  0.92444382  1
  O  O114  1  0.32253590  0.14892430  0.42406947  1
  O  O115  1  0.82965301  0.15660013  0.42206832  1
  O  O116  1  0.24638027  0.34816925  0.42196353  1
  O  O117  1  0.75244932  0.35314006  0.42188342  1
  O  O118  1  0.42461450  0.49091050  0.42199829  1
  O  O119  1  0.92785973  0.50119745  0.42377378  1
  O  O120  1  0.16623363  0.50132005  0.07475893  1
  O  O121  1  0.68017811  0.51037440  0.07404505  1
  O  O122  1  0.06191810  0.63610995  0.07825152  1
  O  O123  1  0.56905198  0.63612873  0.07839723  1
  O  O124  1  0.23716999  0.83815179  0.07406720  1
  O  O125  1  0.74103815  0.84445431  0.07341832  1
  O  O126  1  0.16766131  0.83155562  0.57827796  1
  O  O127  1  0.66846520  0.84017030  0.58338183  1
  O  O128  1  0.23699717  0.63397785  0.57430093  1
  O  O129  1  0.74431549  0.63791411  0.58272949  1
  O  O130  1  0.06776844  0.49118490  0.57938354  1
  O  O131  1  0.56605123  0.49317869  0.58182403  1
  O  O132  1  0.14861064  0.84163964  0.25091662  1
  O  O133  1  0.65994212  0.85077954  0.24972397  1
  O  O134  1  0.26031474  0.70706101  0.24959324  1
  O  O135  1  0.76823191  0.70841580  0.25029883  1
  O  O136  1  0.08251207  0.48503149  0.25025855  1
  O  O137  1  0.58599588  0.49919374  0.24969764  1
  O  O138  1  0.14805572  0.46226190  0.75375290  1
  O  O139  1  0.65524355  0.47120311  0.75979396  1
  O  O140  1  0.08971055  0.69178891  0.75877379  1
  O  O141  1  0.59083321  0.69375913  0.75927633  1
  O  O142  1  0.25451741  0.81467581  0.75996026  1
  O  O143  1  0.75885268  0.81258263  0.75911064  1
loop_
_geom_bond_atom_site_label_1
_geom_bond_atom_site_label_2
_geom_bond_distance
_geom_bond_site_symmetry_2
Na0 O134 2.266537 1_545
Na0 O104 2.311306 1_555
Na0 O106 2.572859 1_555
Na0 O32 2.576339 1_555
Na0 O62 2.602304 1_545
Na0 O132 2.630291 1_545
Na0 O4 2.844264 1_555
Na0 O18 2.846347 1_545
Na1 O105 2.283518 1_555
Na1 O135 2.287811 1_545
Na1 O133 2.477920 1_545
Na1 O107 2.562926 1_555
Na1 O63 2.595563 1_545
Na1 O33 2.626626 1_555
Na1 O5 2.744118 1_555
Na1 O19 2.865169 1_545
Na2 O140 2.315446 1_555
Na2 O96 2.366072 1_565
Na2 O142 2.446905 1_555
Na2 O98 2.451443 1_565
Na2 O26 2.517762 1_565
Na2 O68 2.611508 1_555
Na2 O16 2.749295 1_555
Na3 O141 2.348241 1_555
Na3 O97 2.401309 1_565
Na3 O99 2.414824 1_565
Na3 O27 2.458495 1_565
Na3 O143 2.565057 1_555
Na3 O69 2.677780 1_555
Na3 O17 2.691240 1_555
Na4 O126 2.344619 1_555
Na4 O130 2.409415 1_555
Na4 O89 2.426886 1_455
Na4 O86 2.495765 1_565
Na4 O58 2.529635 1_555
Na4 O45 2.671893 1_455
Na4 O16 2.753988 1_555
Na4 O25 2.870484 1_455
Na5 O127 2.373485 1_555
Na5 O88 2.411443 1_555
Na5 O131 2.448113 1_555
Na5 O59 2.491075 1_555
Na5 O87 2.494198 1_565
Na5 O44 2.721570 1_555
Na5 O17 2.726650 1_555
Na5 O24 2.949753 1_555
Na6 O120 2.352416 1_555
Na6 O122 2.368584 1_555
Na6 O93 2.432611 1_455
Na6 O94 2.512598 1_555
Na6 O50 2.586944 1_554
Na6 O20 2.642298 1_555
Na6 O41 2.691742 1_455
Na6 O31 2.811160 1_455
Na7 O123 2.395866 1_555
Na7 O92 2.449013 1_555
Na7 O95 2.459603 1_555
Na7 O121 2.485953 1_555
Na7 O51 2.507102 1_554
Na7 O21 2.585628 1_555
Na7 O40 2.782391 1_555
Na7 O30 2.914828 1_555
Na8 O81 2.349020 1_555
Na8 O110 2.352576 1_555
Na8 O108 2.470186 1_555
Na8 O82 2.512731 1_555
Na8 O8 2.528470 1_555
Na8 O38 2.682415 1_556
Na8 O67 2.833864 1_555
Na8 O53 2.842517 1_555
Na9 O82 2.386186 1_545
Na9 O112 2.404405 1_555
Na9 O110 2.519482 1_555
Na9 O10 2.524246 1_555
Na9 O79 2.550447 1_555
Na9 O40 2.659388 1_556
Na9 O48 2.831447 1_545
Na9 O68 2.868652 1_545
Na10 O113 2.352979 1_555
Na10 O83 2.376927 1_545
Na10 O78 2.403374 1_655
Na10 O11 2.439467 1_555
Na10 O111 2.485269 1_555
Na10 O41 2.720197 1_556
Na10 O69 2.728052 1_545
Na10 O49 2.910250 1_545
Na11 O78 2.374111 1_555
Na11 O80 2.460503 1_545
Na11 O108 2.473156 1_555
Na11 O36 2.487707 1_556
Na11 O112 2.534217 1_555
Na11 O6 2.655404 1_555
Na11 O50 2.768390 1_555
Na11 O70 2.793716 1_555
Na12 O118 2.374344 1_555
Na12 O77 2.444693 1_555
Na12 O114 2.491413 1_555
Na12 O74 2.517830 1_545
Na12 O4 2.566794 1_555
Na12 O46 2.714322 1_555
Na12 O61 2.726685 1_555
Na12 O57 2.742200 1_555
Na13 O76 2.366378 1_655
Na13 O119 2.395073 1_555
Na13 O115 2.403394 1_555
Na13 O75 2.550948 1_545
Na13 O5 2.640388 1_555
Na13 O60 2.665407 1_655
Na13 O56 2.714906 1_655
Na13 O47 2.736218 1_555
Na14 O72 2.315681 1_545
Na14 O116 2.401098 1_555
Na14 O114 2.436559 1_555
Na14 O76 2.505655 1_555
Na14 O42 2.596378 1_555
Na14 O0 2.657568 1_555
Na14 O62 2.811764 1_545
Na14 O58 2.860076 1_545
Na15 O73 2.383499 1_545
Na15 O117 2.471052 1_555
Na15 O77 2.478731 1_555
Na15 O115 2.498205 1_555
Na15 O43 2.527460 1_555
Na15 O1 2.753020 1_555
Na15 O63 2.808243 1_545
Na15 O59 2.829127 1_545
Na16 O74 2.422081 1_555
Na16 O116 2.437714 1_555
Na16 O118 2.502791 1_555
Na16 O2 2.528063 1_555
Na16 O73 2.574548 1_555
Na16 O44 2.620530 1_555
Na16 O64 2.651023 1_555
Na16 O54 2.791958 1_555
Na17 O75 2.386361 1_555
Na17 O117 2.444716 1_555
Na17 O119 2.460352 1_555
Na17 O72 2.543334 1_655
Na17 O3 2.593951 1_555
Na17 O45 2.678233 1_555
Na17 O65 2.678779 1_555
Na17 O55 2.682433 1_555
Na18 O86 2.493690 1_555
Na18 O85 2.513009 1_455
Na18 O89 2.517192 1_445
Na18 O75 2.562118 1_445
Na18 O72 2.577876 1_545
Na18 O76 2.600717 1_555
Na19 O87 2.429596 1_555
Na19 O88 2.468099 1_545
Na19 O74 2.472564 1_545
Na19 O73 2.531230 1_545
Na19 O77 2.546477 1_555
Na19 O84 2.549072 1_555
Na20 O94 2.417277 1_565
Na20 O80 2.433328 1_554
Na20 O91 2.471662 1_455
Na20 O93 2.574317 1_465
Na20 O83 2.583624 1_454
Na20 O78 2.670632 1_564
Na21 O95 2.435910 1_556
Na21 O81 2.443223 1_545
Na21 O79 2.448555 1_555
Na21 O92 2.476642 1_556
Na21 O82 2.534683 1_545
Na21 O90 2.634276 1_546
Na22 O100 2.372157 1_555
Na22 O96 2.376973 1_555
Na22 O110 2.456015 1_555
Na22 O108 2.493823 1_555
Na22 O112 2.568823 1_555
Na22 O98 2.624083 1_555
Na23 O101 2.329591 1_555
Na23 O111 2.403845 1_555
Na23 O109 2.498113 1_555
Na23 O97 2.585038 1_555
Na23 O113 2.606038 1_555
Na23 O99 2.630761 1_555
Na24 O102 2.360109 1_555
Na24 O118 2.437516 1_555
Na24 O104 2.480336 1_555
Na24 O116 2.554877 1_555
Na24 O106 2.608757 1_555
Na24 O114 2.652195 1_555
Na25 O103 2.395726 1_555
Na25 O105 2.478133 1_555
Na25 O119 2.538125 1_555
Na25 O107 2.559558 1_555
Na25 O117 2.562275 1_555
Na25 O115 2.661552 1_555
Na26 O120 2.376885 1_555
Na26 O134 2.394010 1_555
Na26 O124 2.442000 1_555
Na26 O136 2.491901 1_555
Na26 O122 2.609645 1_555
Na26 O132 2.686678 1_555
Na27 O121 2.403821 1_555
Na27 O135 2.412632 1_555
Na27 O137 2.416500 1_555
Na27 O125 2.516508 1_555
Na27 O123 2.603990 1_555
Na27 O133 2.666506 1_555
Na28 O128 2.405106 1_555
Na28 O142 2.436861 1_555
Na28 O126 2.496185 1_555
Na28 O138 2.533816 1_555
Na28 O140 2.638970 1_555
Na28 O130 2.648697 1_555
Na29 O129 2.340048 1_555
Na29 O143 2.416729 1_555
Na29 O127 2.477711 1_555
Na29 O139 2.579732 1_555
Na29 O141 2.606598 1_555
Na29 O131 2.636397 1_555
Ge0 O75 1.841416 1_555
Ge0 O3 1.858813 1_555
Ge0 O5 1.904855 1_565
Ge0 O76 1.946234 1_665
Ge0 O72 1.985827 1_655
Ge0 O0 2.076106 1_665
Ge1 O9 1.813051 1_445
Ge1 O11 1.826892 1_455
Ge1 O80 1.883712 1_545
Ge1 O78 1.993828 1_555
Ge1 O6 2.023012 1_555
Ge1 O83 2.136016 1_445
Ge2 O10 1.849704 1_565
Ge2 O8 1.873097 1_555
Ge2 O82 1.879440 1_555
Ge2 O79 1.913752 1_565
Ge2 O81 1.964963 1_555
Ge2 O7 2.110815 1_565
Ge3 O16 1.805537 1_655
Ge3 O89 1.816951 1_555
Ge3 O13 1.825915 1_555
Ge3 O86 1.893685 1_665
Ge3 O14 2.150971 1_665
Ge3 O85 2.265169 1_565
Ge4 O20 1.787643 1_655
Ge4 O19 1.800815 1_545
Ge4 O93 1.847174 1_555
Ge4 O94 1.884386 1_655
Ge4 O22 2.147183 1_645
Ge4 O91 2.242812 1_545
Ge5 O35 1.822497 1_555
Ge5 O103 1.875458 1_555
Ge5 O105 1.927660 1_555
Ge5 O33 1.929367 1_555
Ge5 O31 1.952212 1_555
Ge5 O107 2.182801 1_555
Ge6 O37 1.792400 1_556
Ge6 O41 1.807135 1_556
Ge6 O113 1.853253 1_555
Ge6 O111 1.906103 1_555
Ge6 O39 2.141772 1_556
Ge6 O109 2.279984 1_555
Ge7 O48 1.810471 1_554
Ge7 O124 1.867872 1_555
Ge7 O52 1.884008 1_554
Ge7 O50 1.904512 1_554
Ge7 O120 1.941935 1_555
Ge7 O122 2.316987 1_555
Ge8 O51 1.867935 1_554
Ge8 O125 1.871994 1_555
Ge8 O53 1.880279 1_554
Ge8 O121 1.913280 1_555
Ge8 O49 1.972463 1_554
Ge8 O123 2.163304 1_555
Ge9 O54 1.795937 1_555
Ge9 O128 1.856249 1_555
Ge9 O58 1.904792 1_555
Ge9 O56 1.914600 1_555
Ge9 O126 1.953378 1_555
Ge9 O130 2.239061 1_555
Ge10 O68 1.817534 1_555
Ge10 O70 1.870452 1_555
Ge10 O66 1.873300 1_555
Ge10 O140 1.900599 1_555
Ge10 O142 1.934400 1_555
Ge10 O138 2.244217 1_555
Ge11 O67 1.826079 1_555
Ge11 O69 1.829735 1_555
Ge11 O141 1.832415 1_555
Ge11 O143 1.909136 1_555
Ge11 O71 2.132018 1_555
Ge11 O139 2.182108 1_555
O0 S0 1.494509 1_545
O1 S1 1.485770 1_555
O1 Sn0 2.179953 1_545
O2 Si0 1.641461 1_555
O2 Sn0 1.981129 1_555
O3 Si1 1.660842 1_555
O4 Si3 1.646464 1_555
O4 Sn0 2.011900 1_545
O5 Si2 1.664137 1_555
O6 S2 1.511603 1_555
O7 S3 1.481830 1_555
O8 Si5 1.638200 1_555
O9 Si4 1.632881 1_655
O10 Si6 1.644196 1_545
O11 Si7 1.645722 1_545
O12 Si6 1.622598 1_555
O12 Sn1 1.962569 1_555
O13 Si7 1.639375 1_555
O14 S2 1.473513 1_555
O15 S3 1.492174 1_555
O15 Sn1 2.195784 1_545
O16 Si4 1.661869 1_555
O17 Si5 1.637959 1_555
O17 Sn1 1.999190 1_555
O18 Si0 1.627793 1_555
O18 Sn2 1.973619 1_565
O19 Si1 1.645176 1_555
O20 Si2 1.637266 1_455
O21 Si3 1.630580 1_555
O21 Sn2 1.977710 1_555
O22 S0 1.466423 1_555
O23 S1 1.474386 1_565
O23 Sn2 2.128798 1_565
O24 S4 1.481818 1_555
O24 Sn3 2.129530 1_555
O25 S5 1.492386 1_555
O25 Sn4 2.114027 1_555
O26 Si8 1.631257 1_555
O26 Sn3 2.014918 1_555
O27 Si9 1.628463 1_555
O27 Sn4 2.002827 1_555
O28 Si10 1.627922 1_555
O28 Sn3 1.995861 1_555
O29 Si11 1.608239 1_555
O29 Sn4 1.967738 1_555
O30 S6 1.480191 1_555
O30 Sn5 2.177311 1_555
O31 S7 1.519410 1_555
O32 Si12 1.643249 1_555
O32 Sn5 2.028506 1_555
O33 Si13 1.643857 1_555
O34 Si14 1.613802 1_555
O34 Sn5 1.964853 1_555
O35 Si15 1.635401 1_555
O36 Si14 1.637415 1_555
O36 Sn6 2.019157 1_554
O37 Si15 1.641404 1_555
O38 S6 1.490856 1_555
O38 Sn6 2.219308 1_554
O39 S7 1.490388 1_555
O40 Si12 1.653482 1_555
O40 Sn6 1.988463 1_554
O41 Si13 1.659204 1_555
O42 Si8 1.632466 1_555
O42 Sn7 2.010025 1_555
O43 Si9 1.631870 1_555
O43 Sn8 1.996735 1_555
O44 Si10 1.650037 1_555
O44 Sn7 1.982244 1_555
O45 Si11 1.646982 1_555
O45 Sn8 2.006336 1_555
O46 S4 1.491121 1_555
O46 Sn7 2.186348 1_555
O47 S5 1.502766 1_555
O47 Sn8 2.163972 1_555
O48 Si16 1.626459 1_555
O49 S8 1.507243 1_555
O50 Si17 1.644382 1_555
O51 Si18 1.653629 1_555
O52 Si19 1.622028 1_555
O53 Si20 1.645270 1_555
O54 Si21 1.622035 1_555
O55 Si22 1.615569 1_555
O55 Sn9 1.981116 1_555
O56 Si23 1.640037 1_555
O57 Si24 1.622285 1_555
O57 Sn9 2.021189 1_555
O58 Si25 1.648443 1_555
O59 Si26 1.635862 1_555
O59 Sn9 2.027430 1_555
O60 Si25 1.617167 1_555
O60 Sn10 2.002329 1_555
O61 Si26 1.616049 1_555
O61 Sn11 2.020405 1_555
O62 Si21 1.635101 1_555
O62 Sn10 2.061669 1_555
O63 Si22 1.631483 1_555
O63 Sn11 2.042081 1_555
O64 Si23 1.619189 1_555
O64 Sn10 1.973548 1_555
O65 Si24 1.621621 1_555
O65 Sn11 1.971599 1_555
O66 Si17 1.624532 1_555
O67 Si18 1.645191 1_555
O68 Si19 1.634350 1_555
O69 Si20 1.664888 1_555
O70 Si16 1.629609 1_555
O71 S8 1.479788 1_555
O72 Si25 1.654021 1_555
O73 Si26 1.634225 1_555
O73 Sn0 2.054348 1_555
O74 Si21 1.633254 1_555
O74 Sn0 2.050735 1_555
O75 Si22 1.637900 1_555
O76 Si23 1.654012 1_555
O77 Si24 1.634093 1_555
O77 Sn0 2.041976 1_545
O78 Si17 1.702172 1_555
O79 Si18 1.646357 1_555
O80 Si19 1.671291 1_555
O81 Si20 1.639191 1_555
O82 Si16 1.655817 1_555
O83 S8 1.506267 1_555
O84 S4 1.467077 1_555
O84 Sn1 2.184401 1_545
O85 S5 1.461303 1_555
O86 Si8 1.672420 1_555
O87 Si9 1.648615 1_555
O87 Sn1 2.044184 1_545
O88 Si10 1.646784 1_555
O88 Sn1 2.023808 1_555
O89 Si11 1.655250 1_555
O90 S6 1.472728 1_555
O90 Sn2 2.179191 1_565
O91 S7 1.472592 1_555
O92 Si12 1.657407 1_555
O92 Sn2 2.021263 1_555
O93 Si13 1.661835 1_555
O94 Si14 1.683152 1_555
O95 Si15 1.663338 1_555
O95 Sn2 2.074508 1_555
O96 Si6 1.665887 1_545
O96 Sn3 2.077025 1_555
O97 Si7 1.655695 1_545
O97 Sn4 2.062547 1_555
O98 S2 1.505213 1_555
O98 Sn3 2.185779 1_555
O99 S3 1.501987 1_555
O99 Sn4 2.235498 1_555
O100 Si5 1.623428 1_555
O100 Sn3 2.034573 1_555
O101 Si4 1.625428 1_655
O101 Sn4 2.014718 1_555
O102 Si0 1.615265 1_555
O102 Sn5 1.998376 1_555
O103 Si1 1.640880 1_555
O104 Si3 1.644740 1_555
O104 Sn5 2.046199 1_555
O105 Si2 1.669229 1_555
O106 S0 1.499961 1_545
O106 Sn5 2.196724 1_555
O107 S1 1.483013 1_555
O108 Si16 1.647860 1_555
O108 Sn6 2.063231 1_555
O109 S8 1.467932 1_555
O110 Si18 1.671384 1_555
O110 Sn6 2.157811 1_555
O111 Si17 1.678438 1_655
O112 Si19 1.668055 1_545
O112 Sn6 2.035310 1_555
O113 Si20 1.652356 1_545
O114 Si21 1.630597 1_545
O114 Sn7 2.032983 1_555
O115 Si22 1.625862 1_545
O115 Sn8 2.066663 1_555
O116 Si23 1.635166 1_555
O116 Sn7 2.014540 1_555
O117 Si24 1.630458 1_555
O117 Sn8 2.015758 1_555
O118 Si26 1.639148 1_555
O118 Sn7 2.103691 1_555
O119 Si25 1.637934 1_655
O119 Sn8 2.068684 1_555
O120 Si14 1.654491 1_555
O121 Si15 1.676045 1_555
O122 S7 1.476922 1_455
O123 S6 1.487068 1_555
O124 Si12 1.627966 1_565
O125 Si13 1.639943 1_565
O126 Si8 1.657926 1_565
O127 Si9 1.642049 1_565
O127 Sn9 2.056650 1_555
O128 Si10 1.625991 1_555
O129 Si11 1.609283 1_555
O129 Sn9 2.003004 1_555
O130 S5 1.474777 1_455
O131 S4 1.473316 1_555
O131 Sn9 2.278076 1_555
O132 S0 1.488220 1_555
O132 Sn10 2.247109 1_555
O133 S1 1.484368 1_565
O133 Sn11 2.251233 1_555
O134 Si0 1.645991 1_555
O134 Sn10 2.054358 1_555
O135 Si1 1.653213 1_555
O135 Sn11 2.094119 1_555
O136 Si2 1.612239 1_455
O136 Sn10 2.013415 1_555
O137 Si3 1.619011 1_555
O137 Sn11 2.000044 1_555
O138 S2 1.467297 1_555
O139 S3 1.474520 1_555
O140 Si4 1.648559 1_555
O141 Si5 1.668428 1_555
O142 Si6 1.655008 1_555
O143 Si7 1.680167 1_555
