# generated using pymatgen
data_MgMo2(WS4)2
_symmetry_space_group_name_H-M   'P 1'
_cell_length_a   3.19075200
_cell_length_b   3.19076474
_cell_length_c   44.08899200
_cell_angle_alpha   89.99885655
_cell_angle_beta   89.99978959
_cell_angle_gamma   119.99986792
_symmetry_Int_Tables_number   1
_chemical_formula_structural   MgMo2(WS4)2
_chemical_formula_sum   'Mg1 Mo2 W2 S8'
_cell_volume   388.73103412
_cell_formula_units_Z   1
loop_
 _symmetry_equiv_pos_site_id
 _symmetry_equiv_pos_as_xyz
  1  'x, y, z'
loop_
 _atom_site_type_symbol
 _atom_site_label
 _atom_site_symmetry_multiplicity
 _atom_site_fract_x
 _atom_site_fract_y
 _atom_site_fract_z
 _atom_site_occupancy
  Mg  Mg0  1  0.99997400  0.99995600  0.55953100  1
  Mo  Mo0  1  0.33328600  0.66658700  0.09381400  1
  Mo  Mo1  1  0.33333000  0.66664000  0.46198500  1
  W  W0  1  0.66668100  0.33336400  0.28171100  1
  W  W1  1  0.66671500  0.33343100  0.66644600  1
  S  S0  1  0.33333800  0.66668100  0.31740000  1
  S  S1  1  0.33337900  0.66676200  0.70211100  1
  S  S2  1  0.66663200  0.33327200  0.05830000  1
  S  S3  1  0.66667300  0.33332800  0.42662900  1
  S  S4  1  0.66660400  0.33322700  0.12932300  1
  S  S5  1  0.66665100  0.33328500  0.49789300  1
  S  S6  1  0.33335600  0.66671100  0.24602500  1
  S  S7  1  0.33338000  0.66675800  0.63054200  1
loop_
_geom_bond_atom_site_label_1
_geom_bond_atom_site_label_2
_geom_bond_distance
_geom_bond_site_symmetry_2
Mo0 S4 2.417542 1_565
Mo0 S4 2.417575 1_555
Mo0 S4 2.417576 1_455
Mo0 S2 2.417697 1_455
Mo0 S2 2.417704 1_555
Mo0 S2 2.417719 1_565
Mo1 S3 2.413186 1_555
Mo1 S3 2.413198 1_455
Mo1 S3 2.413220 1_565
Mo1 S5 2.428982 1_565
Mo1 S5 2.428998 1_455
Mo1 S5 2.428999 1_555
S0 W0 2.422706 1_555
S0 W0 2.422708 1_455
S0 W0 2.422719 1_565
S1 W1 2.422002 1_565
S1 W1 2.422034 1_555
S1 W1 2.422035 1_455
S6 W0 2.422622 1_455
S6 W0 2.422623 1_555
S6 W0 2.422630 1_565
S7 W1 2.428854 1_455
S7 W1 2.428855 1_555
S7 W1 2.428925 1_565
