# generated using pymatgen
data_Pb
_symmetry_space_group_name_H-M   'P 1'
_cell_length_a   7.05623201
_cell_length_b   7.05623413
_cell_length_c   7.05623244
_cell_angle_alpha   59.99998836
_cell_angle_beta   59.99997834
_cell_angle_gamma   59.99998412
_symmetry_Int_Tables_number   1
_chemical_formula_structural   Pb
_chemical_formula_sum   Pb8
_cell_volume   248.42972227
_cell_formula_units_Z   8
loop_
 _symmetry_equiv_pos_site_id
 _symmetry_equiv_pos_as_xyz
  1  'x, y, z'
loop_
 _atom_site_type_symbol
 _atom_site_label
 _atom_site_symmetry_multiplicity
 _atom_site_fract_x
 _atom_site_fract_y
 _atom_site_fract_z
 _atom_site_occupancy
  Pb  Pb0_0  1  0.00000000  0.00000000  0.00000000  1
  Pb  Pb0_1  1  0.00000000  0.00000000  0.50000000  1
  Pb  Pb0_2  1  0.00000000  0.50000000  0.00000000  1
  Pb  Pb0_3  1  0.00000000  0.50000000  0.50000000  1
  Pb  Pb0_4  1  0.50000000  0.00000000  0.00000000  1
  Pb  Pb0_5  1  0.50000000  0.00000000  0.50000000  1
  Pb  Pb0_6  1  0.50000000  0.50000000  0.00000000  1
  Pb  Pb0_7  1  0.50000000  0.50000000  0.50000000  1
loop_
_geom_bond_atom_site_label_1
_geom_bond_atom_site_label_2
_geom_bond_distance
_geom_bond_site_symmetry_2
Pb0_0 Pb0_5 3.528115 1_554
Pb0_0 Pb0_5 3.528115 1_455
Pb0_0 Pb0_6 3.528116 1_455
Pb0_0 Pb0_6 3.528116 1_545
Pb0_0 Pb0_4 3.528116 1_555
Pb0_0 Pb0_4 3.528116 1_455
Pb0_0 Pb0_3 3.528116 1_554
Pb0_0 Pb0_3 3.528116 1_545
Pb0_0 Pb0_1 3.528116 1_554
Pb0_0 Pb0_1 3.528116 1_555
Pb0_0 Pb0_2 3.528117 1_555
Pb0_0 Pb0_2 3.528117 1_545
Pb0_1 Pb0_4 3.528115 1_555
Pb0_1 Pb0_4 3.528115 1_456
Pb0_1 Pb0_7 3.528116 1_455
Pb0_1 Pb0_7 3.528116 1_545
Pb0_1 Pb0_5 3.528116 1_455
Pb0_1 Pb0_5 3.528116 1_555
Pb0_1 Pb0_2 3.528116 1_555
Pb0_1 Pb0_2 3.528116 1_546
Pb0_1 Pb0_3 3.528117 1_545
Pb0_1 Pb0_3 3.528117 1_555
Pb0_2 Pb0_7 3.528115 1_455
Pb0_2 Pb0_7 3.528115 1_554
Pb0_2 Pb0_4 3.528116 1_465
Pb0_2 Pb0_4 3.528116 1_555
Pb0_2 Pb0_6 3.528116 1_455
Pb0_2 Pb0_6 3.528116 1_555
Pb0_2 Pb0_3 3.528116 1_554
Pb0_2 Pb0_3 3.528116 1_555
Pb0_3 Pb0_6 3.528115 1_456
Pb0_3 Pb0_6 3.528115 1_555
Pb0_3 Pb0_5 3.528116 1_555
Pb0_3 Pb0_5 3.528116 1_465
Pb0_3 Pb0_7 3.528116 1_455
Pb0_3 Pb0_7 3.528116 1_555
Pb0_4 Pb0_7 3.528116 1_554
Pb0_4 Pb0_7 3.528116 1_545
Pb0_4 Pb0_5 3.528116 1_555
Pb0_4 Pb0_5 3.528116 1_554
Pb0_4 Pb0_6 3.528117 1_545
Pb0_4 Pb0_6 3.528117 1_555
Pb0_5 Pb0_6 3.528116 1_546
Pb0_5 Pb0_6 3.528116 1_555
Pb0_5 Pb0_7 3.528117 1_545
Pb0_5 Pb0_7 3.528117 1_555
Pb0_6 Pb0_7 3.528116 1_554
Pb0_6 Pb0_7 3.528116 1_555
