# generated using pymatgen
data_MgTe4Mo4(SeS)2
_symmetry_space_group_name_H-M   'P 1'
_cell_length_a   3.41468918
_cell_length_b   3.41400183
_cell_length_c   42.56248247
_cell_angle_alpha   89.99258278
_cell_angle_beta   89.90986450
_cell_angle_gamma   119.99219305
_symmetry_Int_Tables_number   1
_chemical_formula_structural   MgTe4Mo4(SeS)2
_chemical_formula_sum   'Mg1 Te4 Mo4 Se2 S2'
_cell_volume   429.74010922
_cell_formula_units_Z   1
loop_
 _symmetry_equiv_pos_site_id
 _symmetry_equiv_pos_as_xyz
  1  'x, y, z'
loop_
 _atom_site_type_symbol
 _atom_site_label
 _atom_site_symmetry_multiplicity
 _atom_site_fract_x
 _atom_site_fract_y
 _atom_site_fract_z
 _atom_site_occupancy
  Mg  Mg0  1  0.67250200  0.33620300  0.19722800  1
  Te  Te0  1  0.33176200  0.66594200  0.70164300  1
  Te  Te1  1  0.66816400  0.33413600  0.42529300  1
  Te  Te2  1  0.66510100  0.33244900  0.51310100  1
  Te  Te3  1  0.33487000  0.66762100  0.61390600  1
  Mo  Mo0  1  0.33375000  0.66676300  0.09051600  1
  Mo  Mo1  1  0.33326400  0.66662500  0.46921800  1
  Mo  Mo2  1  0.66832900  0.33419300  0.28699200  1
  Mo  Mo3  1  0.66672800  0.33347800  0.65777600  1
  Se  Se0  1  0.66873900  0.33433800  0.05195300  1
  Se  Se1  1  0.66548900  0.33254100  0.12929000  1
  S  S0  1  0.33461800  0.66729100  0.32177400  1
  S  S1  1  0.33525600  0.66770600  0.25144600  1
loop_
_geom_bond_atom_site_label_1
_geom_bond_atom_site_label_2
_geom_bond_distance
_geom_bond_site_symmetry_2
Mg0 Se1 2.891724 1_555
Mg0 S1 3.030542 1_655
Mg0 S1 3.036900 1_545
Mg0 S1 3.037697 1_555
Mo0 Se0 2.564025 1_455
Mo0 Se0 2.565719 1_555
Mo0 Se0 2.565828 1_565
Mo0 Se1 2.570177 1_565
Mo0 Se1 2.570282 1_555
Mo0 Se1 2.572380 1_455
Mo1 Te2 2.715191 1_565
Mo1 Te2 2.715268 1_555
Mo1 Te1 2.716287 1_455
Mo1 Te2 2.716502 1_455
Mo1 Te1 2.717173 1_565
Mo1 Te1 2.717191 1_555
Mo2 S0 2.464533 1_545
Mo2 S0 2.464551 1_555
Mo2 S0 2.466891 1_655
Mo2 S1 2.483547 1_655
Mo2 S1 2.485676 1_555
Mo2 S1 2.485740 1_545
Mo3 Te0 2.714444 1_655
Mo3 Te3 2.714861 1_555
Mo3 Te3 2.714881 1_545
Mo3 Te0 2.715531 1_545
Mo3 Te0 2.715582 1_555
Mo3 Te3 2.716078 1_655
