# generated using pymatgen
data_MgGe3P2(SO6)4
_symmetry_space_group_name_H-M   'P 1'
_cell_length_a   8.38852929
_cell_length_b   8.39796783
_cell_length_c   21.75376604
_cell_angle_alpha   89.76959093
_cell_angle_beta   89.87815118
_cell_angle_gamma   120.07918243
_symmetry_Int_Tables_number   1
_chemical_formula_structural   MgGe3P2(SO6)4
_chemical_formula_sum   'Mg3 Ge9 P6 S12 O72'
_cell_volume   1326.07948099
_cell_formula_units_Z   3
loop_
 _symmetry_equiv_pos_site_id
 _symmetry_equiv_pos_as_xyz
  1  'x, y, z'
loop_
 _atom_site_type_symbol
 _atom_site_label
 _atom_site_symmetry_multiplicity
 _atom_site_fract_x
 _atom_site_fract_y
 _atom_site_fract_z
 _atom_site_occupancy
  Mg  Mg0  1  0.99591220  0.99973575  0.35574740  1
  Mg  Mg1  1  0.67113860  0.33483454  0.68798915  1
  Mg  Mg2  1  0.66401032  0.33433446  0.18654415  1
  Ge  Ge0  1  0.00122261  0.00057390  0.86042088  1
  Ge  Ge1  1  0.99873069  0.00595718  0.64560508  1
  Ge  Ge2  1  0.00731817  0.00679143  0.14600949  1
  Ge  Ge3  1  0.65766543  0.33078754  0.97789860  1
  Ge  Ge4  1  0.67239160  0.32379634  0.47915756  1
  Ge  Ge5  1  0.33336180  0.66047013  0.01896014  1
  Ge  Ge6  1  0.33319148  0.66468673  0.51936720  1
  Ge  Ge7  1  0.34087353  0.67548639  0.31117216  1
  Ge  Ge8  1  0.33293396  0.66712379  0.81862630  1
  P  P0  1  0.96056160  0.33656350  0.58384480  1
  P  P1  1  0.37678652  0.33570981  0.08349025  1
  P  P2  1  0.62132269  0.66513587  0.91686755  1
  P  P3  1  0.04088107  0.37786630  0.91733652  1
  P  P4  1  0.33495272  0.95448264  0.91760289  1
  P  P5  1  0.61986449  0.95377972  0.41754999  1
  S  S0  1  0.28952497  -0.00004069  0.25155322  1
  S  S1  1  0.71204369  0.71077041  0.25082941  1
  S  S2  1  0.00106702  0.29252872  0.25154806  1
  S  S3  1  0.28797803  0.29078844  0.75149222  1
  S  S4  1  0.00286971  0.71418892  0.75124769  1
  S  S5  1  0.70943542  0.99680263  0.75182010  1
  S  S6  1  0.37501089  0.04068650  0.58393991  1
  S  S7  1  0.66611017  0.62322528  0.58320229  1
  S  S8  1  0.95903005  0.62489478  0.08310602  1
  S  S9  1  0.66499145  0.04026362  0.08331041  1
  S  S10  1  0.33661429  0.37813673  0.41739282  1
  S  S11  1  0.04390517  0.66571914  0.41705168  1
  O  O0  1  0.20558323  0.02696521  0.30524126  1
  O  O1  1  0.82191656  0.79324805  0.30453812  1
  O  O2  1  0.97237573  0.18013842  0.30506792  1
  O  O3  1  0.20261319  0.16969323  0.80608525  1
  O  O4  1  0.96809953  0.79887085  0.80589429  1
  O  O5  1  0.83010124  0.03208821  0.80587343  1
  O  O6  1  0.78841559  0.95671505  0.69478261  1
  O  O7  1  0.16957464  0.21111331  0.69472521  1
  O  O8  1  0.04202993  0.83370071  0.69387561  1
  O  O9  1  0.78881148  0.83084008  0.19318737  1
  O  O10  1  0.04287815  0.21579914  0.19418433  1
  O  O11  1  0.17073815  0.95686727  0.19427093  1
  O  O12  1  0.88027313  0.37223954  0.63943208  1
  O  O13  1  0.48674170  0.11908803  0.63779126  1
  O  O14  1  0.62990646  0.51123563  0.63761459  1
  O  O15  1  0.88257775  0.51220200  0.13759213  1
  O  O16  1  0.63224778  0.11852356  0.13765214  1
  O  O17  1  0.49206755  0.37099788  0.13926292  1
  O  O18  1  0.45796773  0.29461830  0.02450160  1
  O  O19  1  0.84388776  0.54726269  0.02678338  1
  O  O20  1  0.70615389  0.15782314  0.02677677  1
  O  O21  1  0.45077159  0.15837033  0.52715208  1
  O  O22  1  0.70313859  0.54553073  0.52650254  1
  O  O23  1  0.83863240  0.29532600  0.52497735  1
  O  O24  1  0.54043251  0.70806184  0.97323197  1
  O  O25  1  0.16537920  0.45999330  0.97323740  1
  O  O26  1  0.29453128  0.83068704  0.97428129  1
  O  O27  1  0.52944020  0.83114909  0.47586070  1
  O  O28  1  0.29919120  0.45892285  0.47323620  1
  O  O29  1  0.15934720  0.69871433  0.47309557  1
  O  O30  1  0.12124397  0.62222753  0.36182819  1
  O  O31  1  0.49191909  0.87016700  0.36024119  1
  O  O32  1  0.37550453  0.49780081  0.36178967  1
  O  O33  1  0.12293576  0.49782616  0.85817869  1
  O  O34  1  0.37364724  0.87502019  0.85837813  1
  O  O35  1  0.50150132  0.62610633  0.85818855  1
  O  O36  1  0.02732848  0.82615666  0.41022314  1
  O  O37  1  0.80396311  0.97336471  0.41066958  1
  O  O38  1  0.17693263  0.20001485  0.41049301  1
  O  O39  1  0.02508887  0.18958109  0.90678619  1
  O  O40  1  0.16385991  0.97308166  0.90723178  1
  O  O41  1  0.81072059  0.83706411  0.90673940  1
  O  O42  1  0.98094356  0.16179938  0.59117618  1
  O  O43  1  0.18793835  0.02043237  0.59055298  1
  O  O44  1  0.83367487  0.80988206  0.59020644  1
  O  O45  1  0.97689607  0.81051436  0.09034607  1
  O  O46  1  0.83173872  0.02002095  0.09033095  1
  O  O47  1  0.18085355  0.16087642  0.09101204  1
  O  O48  1  0.69145044  0.15681830  0.74363462  1
  O  O49  1  0.46565549  0.30711001  0.74291127  1
  O  O50  1  0.84123347  0.53654634  0.74385495  1
  O  O51  1  0.68966046  0.53082321  0.24214342  1
  O  O52  1  0.84277454  0.31344367  0.24138115  1
  O  O53  1  0.47058201  0.15650503  0.24226872  1
  O  O54  1  0.64401899  0.49744062  0.92527927  1
  O  O55  1  0.85136892  0.35737120  0.92706915  1
  O  O56  1  0.50489818  0.14410979  0.92515635  1
  O  O57  1  0.63148256  0.14387769  0.42565518  1
  O  O58  1  0.50706472  0.36692751  0.42635496  1
  O  O59  1  0.85876721  0.49749699  0.42507727  1
  O  O60  1  0.35418639  0.50550697  0.07254506  1
  O  O61  1  0.14418699  0.64591578  0.07412699  1
  O  O62  1  0.49944260  0.85718831  0.07419451  1
  O  O63  1  0.35508108  0.85702461  0.57466559  1
  O  O64  1  0.50158202  0.64394000  0.57470032  1
  O  O65  1  0.15345408  0.50681192  0.57172873  1
  O  O66  1  0.30296308  0.82669067  0.25671961  1
  O  O67  1  0.52324191  0.69335736  0.25664415  1
  O  O68  1  0.17312406  0.48036906  0.25824983  1
  O  O69  1  0.30193919  0.47361166  0.75803808  1
  O  O70  1  0.17186765  0.69940305  0.75770001  1
  O  O71  1  0.52575769  0.82690730  0.75813636  1
loop_
_geom_bond_atom_site_label_1
_geom_bond_atom_site_label_2
_geom_bond_distance
_geom_bond_site_symmetry_2
Mg0 O37 1.923902 1_555
Mg0 O2 1.958831 1_565
Mg0 O1 1.965639 1_555
Mg0 O0 1.984823 1_665
Mg0 O36 1.992797 1_655
Mg0 O38 2.004175 1_665
Mg1 O12 1.931106 1_555
Mg1 O48 1.992722 1_555
Mg1 O50 1.995863 1_555
Mg1 O14 2.004304 1_555
Mg1 O49 2.009858 1_555
Mg1 O13 2.020309 1_555
Mg2 O17 1.918852 1_555
Mg2 O53 1.969925 1_555
Mg2 O51 1.973140 1_555
Mg2 O15 1.990087 1_555
Mg2 O52 1.993029 1_555
Mg2 O16 2.004885 1_555
Ge0 O41 1.799151 1_445
Ge0 O40 1.808675 1_545
Ge0 O39 1.808878 1_555
Ge0 O3 1.959889 1_555
Ge0 O4 1.974649 1_445
Ge0 O5 1.980949 1_455
Ge1 O42 1.822382 1_555
Ge1 O6 1.919660 1_545
Ge1 O7 1.926214 1_655
Ge1 O43 1.940480 1_655
Ge1 O44 1.954098 1_545
Ge1 O8 1.960439 1_645
Ge2 O47 1.821221 1_555
Ge2 O11 1.932859 1_545
Ge2 O10 1.938920 1_555
Ge2 O46 1.954283 1_455
Ge2 O45 1.960632 1_445
Ge2 O9 1.965015 1_445
Ge3 O18 1.845666 1_556
Ge3 O56 1.850201 1_555
Ge3 O54 1.852126 1_555
Ge3 O55 1.881354 1_555
Ge3 O20 1.996890 1_556
Ge3 O19 2.012963 1_556
Ge4 O57 1.803176 1_555
Ge4 O23 1.825806 1_555
Ge4 O59 1.910110 1_555
Ge4 O21 1.966568 1_555
Ge4 O58 1.970007 1_555
Ge4 O22 2.032213 1_555
Ge5 O60 1.816434 1_555
Ge5 O25 1.857634 1_554
Ge5 O24 1.860127 1_554
Ge5 O26 1.884428 1_554
Ge5 O61 1.941569 1_555
Ge5 O62 1.957011 1_555
Ge6 O27 1.798876 1_555
Ge6 O65 1.818050 1_555
Ge6 O28 1.896186 1_555
Ge6 O29 1.908705 1_555
Ge6 O64 1.930491 1_555
Ge6 O63 1.951689 1_555
Ge7 O31 1.833333 1_555
Ge7 O66 1.873763 1_555
Ge7 O67 1.878982 1_555
Ge7 O68 1.923870 1_555
Ge7 O32 1.986501 1_555
Ge7 O30 1.992507 1_555
Ge8 O34 1.824371 1_555
Ge8 O33 1.827031 1_555
Ge8 O35 1.830263 1_555
Ge8 O71 1.987347 1_555
Ge8 O70 2.006855 1_555
Ge8 O69 2.010200 1_555
O0 S0 1.438750 1_555
O1 S1 1.437180 1_555
O2 S2 1.437546 1_655
O3 S3 1.487978 1_555
O4 S4 1.489037 1_655
O5 S5 1.483992 1_545
O6 S5 1.521596 1_555
O7 S3 1.518181 1_555
O8 S4 1.526624 1_555
O9 S1 1.529475 1_555
O10 S2 1.525312 1_555
O11 S0 1.524497 1_565
O12 P0 1.485709 1_555
O13 S6 1.441039 1_555
O14 S7 1.442580 1_555
O15 S8 1.446093 1_555
O16 S9 1.445910 1_555
O17 P1 1.488494 1_555
O18 P1 1.570002 1_555
O19 S8 1.496459 1_555
O20 S9 1.501029 1_555
O21 S6 1.504650 1_555
O22 S7 1.500520 1_555
O23 P0 1.568456 1_555
O24 P2 1.529383 1_555
O25 P3 1.528164 1_555
O26 P4 1.533158 1_555
O27 P5 1.564401 1_555
O28 S10 1.501024 1_555
O29 S11 1.496558 1_555
O30 S11 1.495055 1_555
O31 P5 1.567318 1_555
O32 S10 1.496436 1_555
O33 P3 1.560616 1_555
O34 P4 1.559748 1_555
O35 P2 1.557472 1_555
O36 S11 1.429347 1_555
O37 P5 1.476001 1_555
O38 S10 1.431274 1_555
O39 P3 1.537380 1_555
O40 P4 1.536537 1_555
O41 P2 1.534259 1_555
O42 P0 1.567951 1_555
O43 S6 1.497831 1_555
O44 S7 1.500119 1_555
O45 S8 1.498367 1_555
O46 S9 1.499273 1_555
O47 P1 1.569032 1_555
O48 S5 1.435861 1_545
O49 S3 1.438371 1_555
O50 S4 1.437055 1_655
O51 S1 1.439680 1_555
O52 S2 1.441405 1_655
O53 S0 1.439085 1_555
O54 P2 1.523115 1_555
O55 P3 1.525020 1_655
O56 P4 1.524058 1_545
O57 P5 1.560633 1_545
O58 S10 1.492393 1_555
O59 S11 1.495256 1_655
O60 P1 1.547389 1_555
O61 S8 1.485030 1_455
O62 S9 1.481572 1_565
O63 S6 1.480466 1_565
O64 S7 1.486868 1_555
O65 P0 1.551774 1_455
O66 S0 1.518495 1_565
O67 S1 1.520708 1_555
O68 S2 1.520965 1_555
O69 S3 1.487569 1_555
O70 S4 1.490635 1_555
O71 S5 1.490804 1_555
