# generated using pymatgen
data_Eu(SiPd)2
_symmetry_space_group_name_H-M   'P 1'
_cell_length_a   4.23677246
_cell_length_b   4.23677265
_cell_length_c   5.80856826
_cell_angle_alpha   111.38914154
_cell_angle_beta   111.38914302
_cell_angle_gamma   90.00000495
_symmetry_Int_Tables_number   1
_chemical_formula_structural   Eu(SiPd)2
_chemical_formula_sum   'Eu1 Si2 Pd2'
_cell_volume   89.32718961
_cell_formula_units_Z   1
loop_
 _symmetry_equiv_pos_site_id
 _symmetry_equiv_pos_as_xyz
  1  'x, y, z'
loop_
 _atom_site_type_symbol
 _atom_site_label
 _atom_site_symmetry_multiplicity
 _atom_site_fract_x
 _atom_site_fract_y
 _atom_site_fract_z
 _atom_site_occupancy
  Eu  Eu0  1  -0.00000000  0.00000000  -0.00000000  1
  Si  Si0  1  0.62154766  0.62154766  0.24309433  1
  Si  Si1  1  0.37845234  0.37845234  0.75690567  1
  Pd  Pd0  1  0.75000000  0.25000000  0.50000000  1
  Pd  Pd1  1  0.25000000  0.75000000  0.50000000  1
loop_
_geom_bond_atom_site_label_1
_geom_bond_atom_site_label_2
_geom_bond_distance
_geom_bond_site_symmetry_2
Eu0 Si1 3.230874 1_554
Eu0 Si0 3.230874 1_445
Eu0 Si0 3.230877 1_545
Eu0 Si1 3.230877 1_454
Eu0 Si1 3.230877 1_544
Eu0 Si0 3.230877 1_455
Eu0 Si0 3.230879 1_555
Eu0 Si1 3.230879 1_444
Eu0 Pd0 3.267819 1_555
Eu0 Pd1 3.267819 1_444
Eu0 Pd0 3.267819 1_444
Eu0 Pd1 3.267819 1_555
Eu0 Pd1 3.267820 1_545
Eu0 Pd0 3.267820 1_454
Eu0 Pd0 3.267820 1_455
Eu0 Pd1 3.267820 1_544
Si0 Si1 2.419459 1_554
Pd0 Si1 2.474270 1_655
Pd0 Si0 2.474270 1_545
Pd0 Si1 2.474273 1_555
Pd0 Si0 2.474274 1_555
Pd1 Si0 2.474270 1_455
Pd1 Si1 2.474270 1_565
Pd1 Si0 2.474273 1_555
Pd1 Si1 2.474274 1_555
