# generated using pymatgen
data_CaMg2
_symmetry_space_group_name_H-M   'P 1'
_cell_length_a   6.27560629
_cell_length_b   6.27560607
_cell_length_c   9.90717363
_cell_angle_alpha   90.00000000
_cell_angle_beta   90.00000000
_cell_angle_gamma   119.99998644
_symmetry_Int_Tables_number   1
_chemical_formula_structural   CaMg2
_chemical_formula_sum   'Ca4 Mg8'
_cell_volume   337.90283005
_cell_formula_units_Z   4
loop_
 _symmetry_equiv_pos_site_id
 _symmetry_equiv_pos_as_xyz
  1  'x, y, z'
loop_
 _atom_site_type_symbol
 _atom_site_label
 _atom_site_symmetry_multiplicity
 _atom_site_fract_x
 _atom_site_fract_y
 _atom_site_fract_z
 _atom_site_occupancy
  Ca  Ca0  1  0.33333300  0.66666700  0.43808549  1
  Ca  Ca1  1  0.66666700  0.33333300  0.93808549  1
  Ca  Ca2  1  0.66666700  0.33333300  0.56191451  1
  Ca  Ca3  1  0.33333300  0.66666700  0.06191451  1
  Mg  Mg0  1  0.16800050  0.33599900  0.75000000  1
  Mg  Mg1  1  0.83199950  0.16799950  0.25000000  1
  Mg  Mg2  1  0.33599900  0.16800050  0.25000000  1
  Mg  Mg3  1  0.66400100  0.83199950  0.75000000  1
  Mg  Mg4  1  0.00000000  -0.00000000  0.00000000  1
  Mg  Mg5  1  0.00000000  -0.00000000  0.50000000  1
  Mg  Mg6  1  0.83199950  0.66400100  0.25000000  1
  Mg  Mg7  1  0.16800050  0.83200050  0.75000000  1
loop_
_geom_bond_atom_site_label_1
_geom_bond_atom_site_label_2
_geom_bond_distance
_geom_bond_site_symmetry_2
Ca0 Mg7 3.574759 1_555
Ca0 Mg0 3.574765 1_555
Ca0 Mg3 3.574765 1_555
Ca0 Mg2 3.649417 1_555
Ca0 Mg6 3.649417 1_555
Ca0 Mg1 3.649417 1_565
Ca0 Mg2 3.649422 1_565
Ca0 Mg6 3.649422 1_455
Ca0 Mg1 3.649423 1_455
Ca0 Mg5 3.674775 1_565
Ca0 Mg5 3.674781 1_555
Ca0 Mg5 3.674781 1_665
Ca0 Ca3 3.726791 1_555
Ca0 Ca2 3.825278 1_565
Ca0 Ca2 3.825278 1_455
Ca0 Ca2 3.825287 1_555
Ca1 Mg1 3.574759 1_556
Ca1 Mg6 3.574765 1_556
Ca1 Mg2 3.574765 1_556
Ca1 Mg3 3.649417 1_555
Ca1 Mg0 3.649417 1_555
Ca1 Mg7 3.649417 1_545
Ca1 Mg3 3.649422 1_545
Ca1 Mg0 3.649422 1_655
Ca1 Mg7 3.649423 1_655
Ca1 Mg4 3.674775 1_656
Ca1 Mg4 3.674781 1_666
Ca1 Mg4 3.674781 1_556
Ca1 Ca2 3.726791 1_555
Ca1 Ca3 3.825278 1_546
Ca1 Ca3 3.825278 1_656
Ca1 Ca3 3.825287 1_556
Ca2 Mg1 3.574759 1_555
Ca2 Mg6 3.574765 1_555
Ca2 Mg2 3.574765 1_555
Ca2 Mg3 3.649417 1_555
Ca2 Mg0 3.649417 1_555
Ca2 Mg7 3.649417 1_545
Ca2 Mg3 3.649422 1_545
Ca2 Mg0 3.649422 1_655
Ca2 Mg7 3.649423 1_655
Ca2 Mg5 3.674775 1_655
Ca2 Mg5 3.674781 1_665
Ca2 Mg5 3.674781 1_555
Ca3 Mg7 3.574759 1_554
Ca3 Mg0 3.574765 1_554
Ca3 Mg3 3.574765 1_554
Ca3 Mg2 3.649417 1_555
Ca3 Mg6 3.649417 1_555
Ca3 Mg1 3.649417 1_565
Ca3 Mg2 3.649422 1_565
Ca3 Mg6 3.649422 1_455
Ca3 Mg1 3.649423 1_455
Ca3 Mg4 3.674775 1_565
Ca3 Mg4 3.674781 1_555
Ca3 Mg4 3.674781 1_665
Mg0 Mg4 3.077197 1_556
Mg0 Mg5 3.077197 1_555
Mg0 Mg3 3.112704 1_555
Mg0 Mg7 3.112710 1_555
Mg0 Mg7 3.162896 1_545
Mg0 Mg3 3.162903 1_445
Mg1 Mg4 3.077200 1_655
Mg1 Mg5 3.077200 1_655
Mg1 Mg2 3.112707 1_555
Mg1 Mg6 3.112710 1_555
Mg1 Mg6 3.162896 1_545
Mg1 Mg2 3.162899 1_655
Mg2 Mg5 3.077197 1_555
Mg2 Mg4 3.077197 1_555
Mg2 Mg6 3.112704 1_555
Mg2 Mg6 3.162903 1_445
Mg3 Mg4 3.077197 1_666
Mg3 Mg5 3.077197 1_665
Mg3 Mg7 3.112707 1_555
Mg3 Mg7 3.162899 1_655
Mg4 Mg6 3.077197 1_445
Mg4 Mg7 3.077200 1_544
Mg5 Mg6 3.077197 1_445
Mg5 Mg7 3.077200 1_545
