# generated using pymatgen
data_MgTe2Mo2W2(Se2S)2
_symmetry_space_group_name_H-M   'P 1'
_cell_length_a   3.33808069
_cell_length_b   3.33808464
_cell_length_c   44.98813616
_cell_angle_alpha   89.80912742
_cell_angle_beta   90.19424953
_cell_angle_gamma   120.00070594
_symmetry_Int_Tables_number   1
_chemical_formula_structural   MgTe2Mo2W2(Se2S)2
_chemical_formula_sum   'Mg1 Te2 Mo2 W2 Se4 S2'
_cell_volume   434.12665081
_cell_formula_units_Z   1
loop_
 _symmetry_equiv_pos_site_id
 _symmetry_equiv_pos_as_xyz
  1  'x, y, z'
loop_
 _atom_site_type_symbol
 _atom_site_label
 _atom_site_symmetry_multiplicity
 _atom_site_fract_x
 _atom_site_fract_y
 _atom_site_fract_z
 _atom_site_occupancy
  Mg  Mg0  1  0.66677400  0.33323900  0.56702800  1
  Te  Te0  1  0.66531300  0.33457000  0.05159500  1
  Te  Te1  1  0.66782300  0.33216000  0.13602500  1
  Mo  Mo0  1  0.33322400  0.66670800  0.09381800  1
  Mo  Mo1  1  0.66743600  0.33262400  0.28187400  1
  W  W0  1  0.33297400  0.66697000  0.46433700  1
  W  W1  1  0.66435100  0.33571100  0.66660000  1
  Se  Se0  1  0.33515300  0.66496800  0.31896800  1
  Se  Se1  1  0.66526700  0.33461400  0.42710900  1
  Se  Se2  1  0.66736300  0.33264200  0.50178000  1
  Se  Se3  1  0.33304400  0.66694500  0.24475400  1
  S  S0  1  0.33207100  0.66804800  0.70031300  1
  S  S1  1  0.32992000  0.67008500  0.63267000  1
loop_
_geom_bond_atom_site_label_1
_geom_bond_atom_site_label_2
_geom_bond_distance
_geom_bond_site_symmetry_2
Mg0 Se2 2.935401 1_555
Mo0 Te1 2.705359 1_555
Mo0 Te1 2.705541 1_565
Mo0 Te1 2.705572 1_455
Mo0 Te0 2.705858 1_455
Mo0 Te0 2.705897 1_565
Mo0 Te0 2.706233 1_555
Mo1 Se0 2.549099 1_545
Mo1 Se0 2.549102 1_655
Mo1 Se3 2.549674 1_555
Mo1 Se0 2.549773 1_555
Mo1 Se3 2.550285 1_655
Mo1 Se3 2.550313 1_545
Se1 W0 2.553015 1_545
Se1 W0 2.553022 1_655
Se1 W0 2.553789 1_555
Se2 W0 2.559181 1_555
Se2 W0 2.559852 1_655
Se2 W0 2.559857 1_545
S0 W1 2.452435 1_555
S0 W1 2.452463 1_565
S0 W1 2.452469 1_455
S1 W1 2.458394 1_455
S1 W1 2.458403 1_565
S1 W1 2.458718 1_555
