# generated using pymatgen
data_BaLa2In2O7
_symmetry_space_group_name_H-M   'P 1'
_cell_length_a   6.00390100
_cell_length_b   6.00390100
_cell_length_c   20.97179400
_cell_angle_alpha   90.00000000
_cell_angle_beta   90.00000000
_cell_angle_gamma   90.00000000
_symmetry_Int_Tables_number   1
_chemical_formula_structural   BaLa2In2O7
_chemical_formula_sum   'Ba4 La8 In8 O28'
_cell_volume   755.96663477
_cell_formula_units_Z   4
loop_
 _symmetry_equiv_pos_site_id
 _symmetry_equiv_pos_as_xyz
  1  'x, y, z'
loop_
 _atom_site_type_symbol
 _atom_site_label
 _atom_site_symmetry_multiplicity
 _atom_site_fract_x
 _atom_site_fract_y
 _atom_site_fract_z
 _atom_site_occupancy
  Ba  Ba0  1  0.24150100  0.75849900  0.50000000  1
  Ba  Ba1  1  0.75849900  0.24150100  0.50000000  1
  Ba  Ba2  1  0.25849900  0.25849900  0.00000000  1
  Ba  Ba3  1  0.74150100  0.74150100  0.00000000  1
  La  La0  1  0.77698200  0.22301800  0.31449500  1
  La  La1  1  0.77698200  0.22301800  0.68550500  1
  La  La2  1  0.22301800  0.77698200  0.68550500  1
  La  La3  1  0.27698200  0.27698200  0.18550500  1
  La  La4  1  0.22301800  0.77698200  0.31449500  1
  La  La5  1  0.27698200  0.27698200  0.81449500  1
  La  La6  1  0.72301800  0.72301800  0.81449500  1
  La  La7  1  0.72301800  0.72301800  0.18550500  1
  In  In0  1  0.74155100  0.74155100  0.60180300  1
  In  In1  1  0.25844900  0.25844900  0.60180300  1
  In  In2  1  0.74155100  0.74155100  0.39819700  1
  In  In3  1  0.24155100  0.75844900  0.10180300  1
  In  In4  1  0.75844900  0.24155100  0.10180300  1
  In  In5  1  0.75844900  0.24155100  0.89819700  1
  In  In6  1  0.24155100  0.75844900  0.89819700  1
  In  In7  1  0.25844900  0.25844900  0.39819700  1
  O  O0  1  0.00000000  0.00000000  0.59161500  1
  O  O1  1  0.50000000  0.50000000  0.09161500  1
  O  O2  1  0.50000000  0.50000000  0.90838500  1
  O  O3  1  0.00000000  0.00000000  0.40838500  1
  O  O4  1  0.00000000  0.00000000  0.86625500  1
  O  O5  1  0.50000000  0.50000000  0.36625500  1
  O  O6  1  0.50000000  0.50000000  0.63374500  1
  O  O7  1  0.00000000  0.00000000  0.13374500  1
  O  O8  1  0.50000000  0.00000000  0.11510900  1
  O  O9  1  0.50000000  0.00000000  0.61510900  1
  O  O10  1  0.00000000  0.50000000  0.38489100  1
  O  O11  1  0.00000000  0.50000000  0.88489100  1
  O  O12  1  0.50000000  0.00000000  0.88489100  1
  O  O13  1  0.50000000  0.00000000  0.38489100  1
  O  O14  1  0.00000000  0.50000000  0.61510900  1
  O  O15  1  0.00000000  0.50000000  0.11510900  1
  O  O16  1  0.81742100  0.81742100  0.71122100  1
  O  O17  1  0.18257900  0.18257900  0.71122100  1
  O  O18  1  0.81742100  0.81742100  0.28877900  1
  O  O19  1  0.31742100  0.68257900  0.21122100  1
  O  O20  1  0.79673700  0.20326300  0.00000000  1
  O  O21  1  0.29673700  0.29673700  0.50000000  1
  O  O22  1  0.70326300  0.70326300  0.50000000  1
  O  O23  1  0.20326300  0.79673700  0.00000000  1
  O  O24  1  0.18257900  0.18257900  0.28877900  1
  O  O25  1  0.31742100  0.68257900  0.78877900  1
  O  O26  1  0.68257900  0.31742100  0.78877900  1
  O  O27  1  0.68257900  0.31742100  0.21122100  1
loop_
_geom_bond_atom_site_label_1
_geom_bond_atom_site_label_2
_geom_bond_distance
_geom_bond_site_symmetry_2
Ba0 O21 2.792138 1_555
Ba0 O22 2.792138 1_555
Ba0 O3 2.810020 1_565
Ba0 O0 2.810020 1_565
Ba0 O10 3.215379 1_555
Ba0 O14 3.215379 1_555
Ba0 O9 3.215379 1_565
Ba0 O13 3.215379 1_565
Ba0 O22 3.248500 1_455
Ba0 O21 3.248500 1_565
Ba1 O21 2.792138 1_555
Ba1 O22 2.792138 1_555
Ba1 O0 2.810020 1_655
Ba1 O3 2.810020 1_655
Ba1 O9 3.215379 1_555
Ba1 O13 3.215379 1_555
Ba1 O10 3.215379 1_655
Ba1 O14 3.215379 1_655
Ba1 O22 3.248500 1_545
Ba1 O21 3.248500 1_655
Ba2 O20 2.792138 1_455
Ba2 O23 2.792138 1_545
Ba2 O1 2.810020 1_555
Ba2 O2 2.810020 1_554
Ba2 O8 3.215379 1_555
Ba2 O15 3.215379 1_555
Ba2 O11 3.215379 1_554
Ba2 O12 3.215379 1_554
Ba2 O20 3.248500 1_555
Ba2 O23 3.248500 1_555
Ba3 O23 2.792138 1_655
Ba3 O20 2.792138 1_565
Ba3 O1 2.810020 1_555
Ba3 O2 2.810020 1_554
Ba3 O8 3.215379 1_565
Ba3 O15 3.215379 1_655
Ba3 O11 3.215379 1_654
Ba3 O12 3.215379 1_564
Ba3 O23 3.248500 1_555
Ba3 O20 3.248500 1_555
La0 O27 2.309407 1_555
La0 O18 2.505959 1_545
La0 O24 2.505959 1_655
La0 O5 2.590225 1_555
La0 O13 2.595745 1_555
La0 O10 2.595745 1_655
La0 O3 2.731822 1_655
La1 O26 2.309407 1_555
La1 O16 2.505959 1_545
La1 O17 2.505959 1_655
La1 O6 2.590225 1_555
La1 O9 2.595745 1_555
La1 O14 2.595745 1_655
La1 O0 2.731822 1_655
La2 O25 2.309407 1_555
La2 O16 2.505959 1_455
La2 O17 2.505959 1_565
La2 O6 2.590225 1_555
La2 O14 2.595745 1_555
La2 O9 2.595745 1_565
La2 O0 2.731822 1_565
La3 O24 2.309407 1_555
La3 O27 2.505959 1_555
La3 O19 2.505959 1_555
La3 O7 2.590225 1_555
La3 O15 2.595745 1_555
La3 O8 2.595745 1_555
La3 O1 2.731822 1_555
La4 O19 2.309407 1_555
La4 O18 2.505959 1_455
La4 O24 2.505959 1_565
La4 O5 2.590225 1_555
La4 O10 2.595745 1_555
La4 O13 2.595745 1_565
La4 O3 2.731822 1_565
La5 O17 2.309407 1_555
La5 O26 2.505959 1_555
La5 O25 2.505959 1_555
La5 O4 2.590225 1_555
La5 O12 2.595745 1_555
La5 O11 2.595745 1_555
La5 O2 2.731822 1_555
La6 O16 2.309407 1_555
La6 O26 2.505959 1_555
La6 O25 2.505959 1_555
La6 O4 2.590225 1_665
La6 O12 2.595745 1_565
La6 O11 2.595745 1_655
La6 O2 2.731822 1_555
La7 O18 2.309407 1_555
La7 O27 2.505959 1_555
La7 O19 2.505959 1_555
La7 O7 2.590225 1_665
La7 O8 2.595745 1_565
La7 O15 2.595745 1_655
La7 O1 2.731822 1_555
In0 O14 2.142165 1_655
In0 O9 2.142165 1_565
In0 O6 2.157587 1_555
In0 O22 2.159601 1_555
In0 O0 2.204815 1_665
In0 O16 2.383401 1_555
In1 O9 2.142165 1_555
In1 O14 2.142165 1_555
In1 O6 2.157587 1_555
In1 O21 2.159601 1_555
In1 O0 2.204815 1_555
In1 O17 2.383401 1_555
In2 O13 2.142165 1_565
In2 O10 2.142165 1_655
In2 O5 2.157587 1_555
In2 O22 2.159601 1_555
In2 O3 2.204815 1_665
In2 O18 2.383401 1_555
In3 O15 2.142165 1_555
In3 O8 2.142165 1_565
In3 O7 2.157587 1_565
In3 O23 2.159601 1_555
In3 O1 2.204815 1_555
In3 O19 2.383401 1_555
In4 O8 2.142165 1_555
In4 O15 2.142165 1_655
In4 O7 2.157587 1_655
In4 O20 2.159601 1_555
In4 O1 2.204815 1_555
In4 O27 2.383401 1_555
In5 O12 2.142165 1_555
In5 O11 2.142165 1_655
In5 O4 2.157587 1_655
In5 O20 2.159601 1_556
In5 O2 2.204815 1_555
In5 O26 2.383401 1_555
In6 O11 2.142165 1_555
In6 O12 2.142165 1_565
In6 O4 2.157587 1_565
In6 O23 2.159601 1_556
In6 O2 2.204815 1_555
In6 O25 2.383401 1_555
In7 O13 2.142165 1_555
In7 O10 2.142165 1_555
In7 O5 2.157587 1_555
In7 O21 2.159601 1_555
In7 O3 2.204815 1_555
In7 O24 2.383401 1_555
