# generated using pymatgen
data_Ba4Hf3O10
_symmetry_space_group_name_H-M   'P 1'
_cell_length_a   15.39080226
_cell_length_b   15.39080226
_cell_length_c   5.89356129
_cell_angle_alpha   90.00000000
_cell_angle_beta   90.00000000
_cell_angle_gamma   157.91935600
_symmetry_Int_Tables_number   1
_chemical_formula_structural   Ba4Hf3O10
_chemical_formula_sum   'Ba8 Hf6 O20'
_cell_volume   524.79009368
_cell_formula_units_Z   2
loop_
 _symmetry_equiv_pos_site_id
 _symmetry_equiv_pos_as_xyz
  1  'x, y, z'
loop_
 _atom_site_type_symbol
 _atom_site_label
 _atom_site_symmetry_multiplicity
 _atom_site_fract_x
 _atom_site_fract_y
 _atom_site_fract_z
 _atom_site_occupancy
  Ba  Ba0  1  0.93142224  0.06857776  0.50000000  1
  Ba  Ba1  1  0.20349375  0.79650625  0.50000000  1
  Ba  Ba2  1  0.79650625  0.20349375  0.50000000  1
  Ba  Ba3  1  0.06857776  0.93142224  0.50000000  1
  Ba  Ba4  1  0.70349375  0.29650625  -0.00000000  1
  Ba  Ba5  1  0.43142224  0.56857776  -0.00000000  1
  Ba  Ba6  1  0.29650625  0.70349375  -0.00000000  1
  Ba  Ba7  1  0.56857776  0.43142224  -0.00000000  1
  Hf  Hf0  1  0.50000000  0.50000000  0.50000000  1
  Hf  Hf1  1  0.36118276  0.63881724  0.50000000  1
  Hf  Hf2  1  0.63881724  0.36118276  0.50000000  1
  Hf  Hf3  1  0.13881724  0.86118276  -0.00000000  1
  Hf  Hf4  1  -0.00000000  0.00000000  -0.00000000  1
  Hf  Hf5  1  0.86118276  0.13881724  -0.00000000  1
  O  O0  1  0.43096801  0.56903199  0.50000000  1
  O  O1  1  0.29268262  0.70731738  0.50000000  1
  O  O2  1  0.70731738  0.29268262  0.50000000  1
  O  O3  1  0.56903199  0.43096801  0.50000000  1
  O  O4  1  0.24770028  0.24770028  0.74769101  1
  O  O5  1  0.88852198  0.61234559  0.74956114  1
  O  O6  1  0.61234559  0.88852198  0.74956114  1
  O  O7  1  0.11234559  0.38852198  0.75043886  1
  O  O8  1  0.38852198  0.11234559  0.75043886  1
  O  O9  1  0.74770028  0.74770028  0.75230899  1
  O  O10  1  0.93096801  0.06903199  -0.00000000  1
  O  O11  1  0.20731738  0.79268262  -0.00000000  1
  O  O12  1  0.79268262  0.20731738  -0.00000000  1
  O  O13  1  0.06903199  0.93096801  -0.00000000  1
  O  O14  1  0.25229972  0.25229972  0.24769101  1
  O  O15  1  0.61147802  0.88765441  0.24956114  1
  O  O16  1  0.88765441  0.61147802  0.24956114  1
  O  O17  1  0.11147802  0.38765441  0.25043886  1
  O  O18  1  0.38765441  0.11147802  0.25043886  1
  O  O19  1  0.75229972  0.75229972  0.25230899  1
loop_
_geom_bond_atom_site_label_1
_geom_bond_atom_site_label_2
_geom_bond_distance
_geom_bond_site_symmetry_2
Ba0 O19 2.924982 1_545
Ba0 O4 2.924982 1_655
Ba0 O10 2.946813 1_555
Ba0 O10 2.946813 1_556
Ba0 O0 2.947367 1_655
Ba0 O0 2.947367 1_545
Ba0 O14 2.952224 1_655
Ba0 O9 2.952224 1_545
Ba0 O17 2.955945 1_655
Ba0 O6 2.955945 1_545
Ba0 O7 2.961069 1_655
Ba0 O15 2.961069 1_545
Ba1 O1 2.694567 1_555
Ba1 O5 2.869166 1_455
Ba1 O18 2.869166 1_565
Ba1 O8 2.874444 1_565
Ba1 O16 2.874444 1_455
Ba1 O11 2.949044 1_555
Ba1 O11 2.949044 1_556
Ba1 O2 2.949598 1_565
Ba1 O2 2.949598 1_455
Ba2 O2 2.694567 1_555
Ba2 O6 2.869166 1_545
Ba2 O17 2.869166 1_655
Ba2 O15 2.874444 1_545
Ba2 O7 2.874444 1_655
Ba2 O12 2.949044 1_555
Ba2 O12 2.949044 1_556
Ba2 O1 2.949598 1_655
Ba2 O1 2.949598 1_545
Ba3 O19 2.924982 1_455
Ba3 O4 2.924982 1_565
Ba3 O13 2.946813 1_556
Ba3 O13 2.946813 1_555
Ba3 O3 2.947367 1_565
Ba3 O3 2.947367 1_455
Ba3 O14 2.952224 1_565
Ba3 O9 2.952224 1_455
Ba3 O18 2.955945 1_565
Ba3 O5 2.955945 1_455
Ba3 O8 2.961069 1_565
Ba3 O16 2.961069 1_455
Ba4 O12 2.694567 1_555
Ba4 O8 2.869166 1_554
Ba4 O16 2.869166 1_555
Ba4 O5 2.874444 1_554
Ba4 O18 2.874444 1_555
Ba4 O2 2.949044 1_554
Ba4 O2 2.949044 1_555
Ba4 O11 2.949598 1_545
Ba4 O11 2.949598 1_655
Ba5 O9 2.924982 1_554
Ba5 O14 2.924982 1_555
Ba5 O0 2.946813 1_555
Ba5 O0 2.946813 1_554
Ba5 O10 2.947367 1_565
Ba5 O10 2.947367 1_455
Ba5 O19 2.952224 1_555
Ba5 O4 2.952224 1_554
Ba5 O15 2.955945 1_555
Ba5 O7 2.955945 1_554
Ba5 O6 2.961069 1_554
Ba5 O17 2.961069 1_555
Ba6 O11 2.694567 1_555
Ba6 O7 2.869166 1_554
Ba6 O15 2.869166 1_555
Ba6 O6 2.874444 1_554
Ba6 O17 2.874444 1_555
Ba6 O1 2.949044 1_555
Ba6 O1 2.949044 1_554
Ba6 O12 2.949598 1_565
Ba6 O12 2.949598 1_455
Ba7 O9 2.924982 1_554
Ba7 O14 2.924982 1_555
Ba7 O3 2.946813 1_554
Ba7 O3 2.946813 1_555
Ba7 O13 2.947367 1_545
Ba7 O13 2.947367 1_655
Ba7 O19 2.952224 1_555
Ba7 O4 2.952224 1_554
Ba7 O8 2.955945 1_554
Ba7 O16 2.955945 1_555
Ba7 O18 2.961069 1_555
Ba7 O5 2.961069 1_554
Hf0 O19 2.083938 1_555
Hf0 O4 2.083938 1_555
Hf0 O14 2.084008 1_555
Hf0 O9 2.084008 1_555
Hf0 O3 2.085589 1_555
Hf0 O0 2.085589 1_555
Hf1 O1 2.069521 1_555
Hf1 O6 2.083984 1_555
Hf1 O17 2.083984 1_555
Hf1 O15 2.084025 1_555
Hf1 O7 2.084025 1_555
Hf1 O0 2.108346 1_555
Hf2 O2 2.069521 1_555
Hf2 O5 2.083984 1_555
Hf2 O18 2.083984 1_555
Hf2 O8 2.084025 1_555
Hf2 O16 2.084025 1_555
Hf2 O3 2.108346 1_555
Hf3 O11 2.069521 1_555
Hf3 O16 2.083984 1_455
Hf3 O8 2.083984 1_564
Hf3 O5 2.084025 1_454
Hf3 O18 2.084025 1_565
Hf3 O13 2.108346 1_555
Hf4 O9 2.083938 1_444
Hf4 O14 2.083938 1_555
Hf4 O4 2.084008 1_554
Hf4 O19 2.084008 1_445
Hf4 O10 2.085589 1_455
Hf4 O13 2.085589 1_545
Hf5 O12 2.069521 1_555
Hf5 O7 2.083984 1_654
Hf5 O15 2.083984 1_545
Hf5 O17 2.084025 1_655
Hf5 O6 2.084025 1_544
Hf5 O10 2.108346 1_555
