# generated using pymatgen
data_SmClO
_symmetry_space_group_name_H-M   'P 1'
_cell_length_a   3.98835344
_cell_length_b   3.98835344
_cell_length_c   6.73221284
_cell_angle_alpha   90.00000000
_cell_angle_beta   90.00000000
_cell_angle_gamma   90.00000000
_symmetry_Int_Tables_number   1
_chemical_formula_structural   SmClO
_chemical_formula_sum   'Sm2 Cl2 O2'
_cell_volume   107.08906165
_cell_formula_units_Z   2
loop_
 _symmetry_equiv_pos_site_id
 _symmetry_equiv_pos_as_xyz
  1  'x, y, z'
loop_
 _atom_site_type_symbol
 _atom_site_label
 _atom_site_symmetry_multiplicity
 _atom_site_fract_x
 _atom_site_fract_y
 _atom_site_fract_z
 _atom_site_occupancy
  Sm  Sm0  1  0.25000000  0.25000000  0.17206239  1
  Sm  Sm1  1  0.75000000  0.75000000  0.82793761  1
  Cl  Cl0  1  0.25000000  0.25000000  0.62784708  1
  Cl  Cl1  1  0.75000000  0.75000000  0.37215292  1
  O  O0  1  0.25000000  0.75000000  -0.00000000  1
  O  O1  1  0.75000000  0.25000000  0.00000000  1
loop_
_geom_bond_atom_site_label_1
_geom_bond_atom_site_label_2
_geom_bond_distance
_geom_bond_site_symmetry_2
Cl0 Sm0 3.068440 1_555
Cl0 Sm1 3.125385 1_545
Cl0 Sm1 3.125385 1_555
Cl0 Sm1 3.125385 1_455
Cl0 Sm1 3.125385 1_445
Cl1 Sm1 3.068440 1_555
Cl1 Sm0 3.125385 1_565
Cl1 Sm0 3.125385 1_555
Cl1 Sm0 3.125385 1_665
Cl1 Sm0 3.125385 1_655
O0 Sm0 2.306196 1_565
O0 Sm1 2.306196 1_554
O0 Sm1 2.306196 1_454
O0 Sm0 2.306196 1_555
O1 Sm1 2.306196 1_554
O1 Sm0 2.306196 1_655
O1 Sm1 2.306196 1_544
O1 Sm0 2.306196 1_555
