# generated using pymatgen
data_Sc3PbC
_symmetry_space_group_name_H-M   'P 1'
_cell_length_a   4.55407219
_cell_length_b   4.55407219
_cell_length_c   4.55407219
_cell_angle_alpha   90.00000000
_cell_angle_beta   90.00000000
_cell_angle_gamma   90.00000000
_symmetry_Int_Tables_number   1
_chemical_formula_structural   Sc3PbC
_chemical_formula_sum   'Sc3 Pb1 C1'
_cell_volume   94.44951496
_cell_formula_units_Z   1
loop_
 _symmetry_equiv_pos_site_id
 _symmetry_equiv_pos_as_xyz
  1  'x, y, z'
loop_
 _atom_site_type_symbol
 _atom_site_label
 _atom_site_symmetry_multiplicity
 _atom_site_fract_x
 _atom_site_fract_y
 _atom_site_fract_z
 _atom_site_occupancy
  Sc  Sc0  1  0.00000000  0.50000000  0.50000000  1
  Sc  Sc1  1  0.50000000  0.50000000  0.00000000  1
  Sc  Sc2  1  0.50000000  0.00000000  0.50000000  1
  Pb  Pb0  1  -0.00000000  -0.00000000  -0.00000000  1
  C  C0  1  0.50000000  0.50000000  0.50000000  1
loop_
_geom_bond_atom_site_label_1
_geom_bond_atom_site_label_2
_geom_bond_distance
_geom_bond_site_symmetry_2
Pb0 Sc0 3.220215 1_555
Pb0 Sc0 3.220215 1_554
Pb0 Sc2 3.220215 1_454
Pb0 Sc2 3.220215 1_455
Pb0 Sc2 3.220215 1_555
Pb0 Sc1 3.220215 1_455
Pb0 Sc0 3.220215 1_544
Pb0 Sc1 3.220215 1_555
Pb0 Sc1 3.220215 1_445
Pb0 Sc0 3.220215 1_545
Pb0 Sc2 3.220215 1_554
Pb0 Sc1 3.220215 1_545
C0 Sc2 2.277036 1_555
C0 Sc1 2.277036 1_555
C0 Sc1 2.277036 1_556
C0 Sc0 2.277036 1_655
C0 Sc2 2.277036 1_565
C0 Sc0 2.277036 1_555
