# generated using pymatgen
data_Sr5Zr3F22
_symmetry_space_group_name_H-M   'P 1'
_cell_length_a   7.63898851
_cell_length_b   10.25215672
_cell_length_c   10.33391338
_cell_angle_alpha   90.00000000
_cell_angle_beta   90.00000000
_cell_angle_gamma   90.00000000
_symmetry_Int_Tables_number   1
_chemical_formula_structural   Sr5Zr3F22
_chemical_formula_sum   'Sr10 Zr6 F44'
_cell_volume   809.31186999
_cell_formula_units_Z   2
loop_
 _symmetry_equiv_pos_site_id
 _symmetry_equiv_pos_as_xyz
  1  'x, y, z'
loop_
 _atom_site_type_symbol
 _atom_site_label
 _atom_site_symmetry_multiplicity
 _atom_site_fract_x
 _atom_site_fract_y
 _atom_site_fract_z
 _atom_site_occupancy
  Sr  Sr0  1  0.26359333  0.25354522  0.79456311  1
  Sr  Sr1  1  0.76359333  0.74645478  0.70543689  1
  Sr  Sr2  1  0.73640667  0.25354522  0.20543689  1
  Sr  Sr3  1  0.23640667  0.74645478  0.29456311  1
  Sr  Sr4  1  0.00000000  0.97862120  -0.00000000  1
  Sr  Sr5  1  0.50000000  0.02137880  0.50000000  1
  Sr  Sr6  1  0.50000000  0.93790263  -0.00000000  1
  Sr  Sr7  1  0.00000000  0.06209737  0.50000000  1
  Sr  Sr8  1  0.50000000  0.46078929  0.50000000  1
  Sr  Sr9  1  0.00000000  0.53921071  -0.00000000  1
  Zr  Zr0  1  0.75343292  0.22495105  0.78791469  1
  Zr  Zr1  1  0.25343292  0.77504895  0.71208531  1
  Zr  Zr2  1  0.24656708  0.22495105  0.21208531  1
  Zr  Zr3  1  0.74656708  0.77504895  0.28791469  1
  Zr  Zr4  1  0.00000000  0.46129738  0.50000000  1
  Zr  Zr5  1  0.50000000  0.53870262  -0.00000000  1
  F  F0  1  0.71419026  0.47425422  0.10764073  1
  F  F1  1  0.21419026  0.52574578  0.39235927  1
  F  F2  1  0.28580974  0.47425422  0.89235927  1
  F  F3  1  0.78580974  0.52574578  0.60764073  1
  F  F4  1  0.73691973  0.11444844  0.38681240  1
  F  F5  1  0.23691973  0.88555156  0.11318760  1
  F  F6  1  0.26308027  0.11444844  0.61318760  1
  F  F7  1  0.76308027  0.88555156  0.88681240  1
  F  F8  1  0.71271736  0.60028953  0.89153049  1
  F  F9  1  0.21271736  0.39971047  0.60846951  1
  F  F10  1  0.28728264  0.60028953  0.10846951  1
  F  F11  1  0.78728264  0.39971047  0.39153049  1
  F  F12  1  0.91200022  0.62994747  0.39005903  1
  F  F13  1  0.41200022  0.37005253  0.10994097  1
  F  F14  1  0.56635794  0.63522202  0.34752422  1
  F  F15  1  0.08799978  0.62994747  0.60994097  1
  F  F16  1  0.74044349  0.07393495  0.65361666  1
  F  F17  1  0.24044349  0.92606505  0.84638334  1
  F  F18  1  0.25955651  0.07393495  0.34638334  1
  F  F19  1  0.75955651  0.92606505  0.15361666  1
  F  F20  1  0.98845752  0.12367277  0.79838706  1
  F  F21  1  0.48845752  0.87632723  0.70161294  1
  F  F22  1  0.01154248  0.12367277  0.20161294  1
  F  F23  1  0.51154248  0.87632723  0.29838706  1
  F  F24  1  0.52770636  0.12355335  0.84223714  1
  F  F25  1  0.02770636  0.87644665  0.65776286  1
  F  F26  1  0.47229364  0.12355335  0.15776286  1
  F  F27  1  0.97229364  0.87644665  0.34223714  1
  F  F28  1  0.78316098  0.16864312  0.98316505  1
  F  F29  1  0.28316098  0.83135688  0.51683495  1
  F  F30  1  0.21683902  0.16864312  0.01683495  1
  F  F31  1  0.71683902  0.83135688  0.48316505  1
  F  F32  1  0.56316101  0.29276390  0.65849664  1
  F  F33  1  0.06316101  0.70723610  0.84150336  1
  F  F34  1  0.43683899  0.29276390  0.34150336  1
  F  F35  1  0.93683899  0.70723610  0.15849664  1
  F  F36  1  0.90958761  0.29280026  0.61081811  1
  F  F37  1  0.40958761  0.70719974  0.88918189  1
  F  F38  1  0.09041239  0.29280026  0.38918189  1
  F  F39  1  0.59041239  0.70719974  0.11081811  1
  F  F40  1  0.93364206  0.36477798  0.84752422  1
  F  F41  1  0.43364206  0.63522202  0.65247578  1
  F  F42  1  0.06635794  0.36477798  0.15247578  1
  F  F43  1  0.58799978  0.37005253  0.89005903  1
loop_
_geom_bond_atom_site_label_1
_geom_bond_atom_site_label_2
_geom_bond_distance
_geom_bond_site_symmetry_2
F0 Zr5 2.085913 1_555
F0 Sr2 2.483980 1_555
F0 Sr9 2.539211 1_655
F1 Zr4 2.085913 1_555
F1 Sr3 2.483980 1_555
F1 Sr8 2.539211 1_555
F2 Zr5 2.085913 1_556
F2 Sr0 2.483980 1_555
F2 Sr9 2.539211 1_556
F3 Zr4 2.085913 1_655
F3 Sr1 2.483980 1_555
F3 Sr8 2.539211 1_555
F4 Sr2 2.355140 1_555
F4 Sr5 2.356700 1_555
F4 Sr7 2.386410 1_655
F5 Sr3 2.355140 1_555
F5 Sr4 2.356700 1_555
F5 Sr6 2.386410 1_555
F6 Sr0 2.355140 1_555
F6 Sr5 2.356700 1_555
F6 Sr7 2.386410 1_555
F7 Sr1 2.355140 1_555
F7 Sr4 2.356700 1_656
F7 Sr6 2.386410 1_556
F8 Zr5 2.072574 1_556
F8 Sr1 2.468763 1_555
F8 Sr9 2.542559 1_656
F9 Zr4 2.072574 1_555
F9 Sr0 2.468763 1_555
F9 Sr8 2.542559 1_555
F10 Zr5 2.072574 1_555
F10 Sr3 2.468763 1_555
F10 Sr9 2.542559 1_555
F11 Zr4 2.072574 1_655
F11 Sr2 2.468763 1_555
F11 Sr8 2.542559 1_555
F12 Zr4 2.175361 1_655
F12 Zr3 2.219052 1_555
F12 Sr3 2.922626 1_655
F13 Zr5 2.175361 1_555
F13 Zr2 2.219052 1_555
F13 Sr2 2.922626 1_555
F14 Zr3 2.080752 1_555
F14 Sr8 2.436751 1_555
F14 Sr3 2.820085 1_555
F15 Zr4 2.175361 1_555
F15 Zr1 2.219052 1_555
F15 Sr1 2.922626 1_455
F16 Zr0 2.081574 1_555
F16 Sr5 2.486762 1_555
F16 Sr7 2.542844 1_655
F17 Zr1 2.081574 1_555
F17 Sr4 2.486762 1_556
F17 Sr6 2.542844 1_556
F18 Zr2 2.081574 1_555
F18 Sr5 2.486762 1_555
F18 Sr7 2.542844 1_555
F19 Zr3 2.081574 1_555
F19 Sr4 2.486762 1_655
F19 Sr6 2.542844 1_555
F20 Zr0 2.076801 1_555
F20 Sr0 2.488327 1_655
F20 Sr4 2.561246 1_646
F21 Zr1 2.076801 1_555
F21 Sr1 2.488327 1_555
F21 Sr5 2.561246 1_565
F22 Zr2 2.076801 1_555
F22 Sr2 2.488327 1_455
F22 Sr4 2.561246 1_545
F23 Zr3 2.076801 1_555
F23 Sr3 2.488327 1_555
F23 Sr5 2.561246 1_565
F24 Zr0 2.090232 1_555
F24 Sr0 2.467656 1_555
F24 Sr6 2.515020 1_546
F25 Zr1 2.090232 1_555
F25 Sr1 2.467656 1_455
F25 Sr7 2.515020 1_565
F26 Zr2 2.090232 1_555
F26 Sr2 2.467656 1_555
F26 Sr6 2.515020 1_545
F27 Zr3 2.090232 1_555
F27 Sr3 2.467656 1_655
F27 Sr7 2.515020 1_665
F28 Zr0 2.110909 1_555
F28 Sr2 2.482163 1_556
F28 Sr4 2.563056 1_646
F29 Zr1 2.110909 1_555
F29 Sr3 2.482163 1_555
F29 Sr5 2.563056 1_565
F30 Zr2 2.110909 1_555
F30 Sr0 2.482163 1_554
F30 Sr4 2.563056 1_545
F31 Zr3 2.110909 1_555
F31 Sr1 2.482163 1_555
F31 Sr5 2.563056 1_565
F32 Zr0 2.093940 1_555
F32 Sr8 2.425470 1_555
F32 Sr0 2.715792 1_555
F33 Zr1 2.093940 1_555
F33 Sr9 2.425470 1_556
F33 Sr1 2.715792 1_455
F34 Zr2 2.093940 1_555
F34 Sr8 2.425470 1_555
F34 Sr2 2.715792 1_555
F35 Zr3 2.093940 1_555
F35 Sr9 2.425470 1_655
F35 Sr3 2.715792 1_655
F36 Zr4 2.184622 1_655
F36 Zr0 2.292608 1_555
F36 Sr7 2.717101 1_655
F37 Zr5 2.184622 1_556
F37 Zr1 2.292608 1_555
F37 Sr6 2.717101 1_556
F38 Zr4 2.184622 1_555
F38 Zr2 2.292608 1_555
F38 Sr7 2.717101 1_555
F39 Zr5 2.184622 1_555
F39 Zr3 2.292608 1_555
F39 Sr6 2.717101 1_555
F40 Zr0 2.080752 1_555
F40 Sr9 2.436751 1_656
F40 Sr0 2.820085 1_655
F41 Zr1 2.080752 1_555
F41 Sr8 2.436751 1_555
F41 Sr1 2.820085 1_555
F42 Zr2 2.080752 1_555
F42 Sr9 2.436751 1_555
F42 Sr2 2.820085 1_455
F43 Zr5 2.175361 1_556
F43 Zr0 2.219052 1_555
F43 Sr0 2.922626 1_555
