# generated using pymatgen
data_Li3Si3Ag2
_symmetry_space_group_name_H-M   'P 1'
_cell_length_a   6.23370100
_cell_length_b   6.23370100
_cell_length_c   6.33801300
_cell_angle_alpha   90.00000000
_cell_angle_beta   90.00000000
_cell_angle_gamma   90.00000000
_symmetry_Int_Tables_number   1
_chemical_formula_structural   Li3Si3Ag2
_chemical_formula_sum   'Li6 Si6 Ag4'
_cell_volume   246.28902563
_cell_formula_units_Z   2
loop_
 _symmetry_equiv_pos_site_id
 _symmetry_equiv_pos_as_xyz
  1  'x, y, z'
loop_
 _atom_site_type_symbol
 _atom_site_label
 _atom_site_symmetry_multiplicity
 _atom_site_fract_x
 _atom_site_fract_y
 _atom_site_fract_z
 _atom_site_occupancy
  Li  Li0  1  0.25000000  0.75000000  0.25000000  1
  Li  Li1  1  0.75000000  0.75000000  0.75000000  1
  Li  Li2  1  0.25000000  0.25000000  0.75000000  1
  Li  Li3  1  0.75000000  0.25000000  0.25000000  1
  Li  Li4  1  0.00000000  0.00000000  0.00000000  1
  Li  Li5  1  0.50000000  0.50000000  0.50000000  1
  Si  Si0  1  0.50000000  0.00000000  0.00000000  1
  Si  Si1  1  0.50000000  0.00000000  0.50000000  1
  Si  Si2  1  0.00000000  0.50000000  0.50000000  1
  Si  Si3  1  0.00000000  0.50000000  0.00000000  1
  Si  Si4  1  0.50000000  0.50000000  0.00000000  1
  Si  Si5  1  0.00000000  0.00000000  0.50000000  1
  Ag  Ag0  1  0.25000000  0.75000000  0.75000000  1
  Ag  Ag1  1  0.75000000  0.75000000  0.25000000  1
  Ag  Ag2  1  0.25000000  0.25000000  0.25000000  1
  Ag  Ag3  1  0.75000000  0.25000000  0.75000000  1
loop_
_geom_bond_atom_site_label_1
_geom_bond_atom_site_label_2
_geom_bond_distance
_geom_bond_site_symmetry_2
Li0 Si1 2.714411 1_565
Li0 Si5 2.714411 1_565
Li0 Si4 2.714411 1_555
Li0 Si0 2.714411 1_565
Li0 Si2 2.714411 1_555
Li0 Si3 2.714411 1_555
Li1 Si1 2.714411 1_565
Li1 Si4 2.714411 1_556
Li1 Si2 2.714411 1_655
Li1 Si3 2.714411 1_656
Li1 Si5 2.714411 1_665
Li1 Si0 2.714411 1_566
Li2 Si3 2.714411 1_556
Li2 Si1 2.714411 1_555
Li2 Si5 2.714411 1_555
Li2 Si4 2.714411 1_556
Li2 Si2 2.714411 1_555
Li2 Si0 2.714411 1_556
Li3 Si3 2.714411 1_655
Li3 Si1 2.714411 1_555
Li3 Si4 2.714411 1_555
Li3 Si2 2.714411 1_655
Li3 Si5 2.714411 1_655
Li3 Si0 2.714411 1_555
Ag0 Si5 2.714411 1_565
Ag0 Si4 2.714411 1_556
Ag0 Li5 2.714411 1_555
Ag0 Li4 2.714411 1_566
Ag1 Si4 2.714411 1_555
Ag1 Li5 2.714411 1_555
Ag1 Li4 2.714411 1_665
Ag1 Si5 2.714411 1_665
Ag2 Li4 2.714411 1_555
Ag2 Si4 2.714411 1_555
Ag2 Si5 2.714411 1_555
Ag2 Li5 2.714411 1_555
Ag3 Si5 2.714411 1_655
Ag3 Li5 2.714411 1_555
Ag3 Li4 2.714411 1_656
Ag3 Si4 2.714411 1_556
