# generated using pymatgen
data_Cs2In2Sb3
_symmetry_space_group_name_H-M   'P 1'
_cell_length_a   7.79396300
_cell_length_b   16.15168300
_cell_length_c   18.43578061
_cell_angle_alpha   89.44702276
_cell_angle_beta   90.00000000
_cell_angle_gamma   90.00000000
_symmetry_Int_Tables_number   1
_chemical_formula_structural   Cs2In2Sb3
_chemical_formula_sum   'Cs16 In16 Sb24'
_cell_volume   2320.69157990
_cell_formula_units_Z   8
loop_
 _symmetry_equiv_pos_site_id
 _symmetry_equiv_pos_as_xyz
  1  'x, y, z'
loop_
 _atom_site_type_symbol
 _atom_site_label
 _atom_site_symmetry_multiplicity
 _atom_site_fract_x
 _atom_site_fract_y
 _atom_site_fract_z
 _atom_site_occupancy
  Cs  Cs0  1  0.55083900  0.55473500  0.39733300  1
  Cs  Cs1  1  0.05083900  0.44526500  0.10266700  1
  Cs  Cs2  1  0.44916100  0.44526500  0.60266700  1
  Cs  Cs3  1  0.94916100  0.55473500  0.89733300  1
  Cs  Cs4  1  0.97051900  0.07505200  0.60969600  1
  Cs  Cs5  1  0.47051900  0.92494800  0.89030400  1
  Cs  Cs6  1  0.02948100  0.92494800  0.39030400  1
  Cs  Cs7  1  0.52948100  0.07505200  0.10969600  1
  Cs  Cs8  1  0.95951400  0.34717500  0.51834100  1
  Cs  Cs9  1  0.45951400  0.65282500  0.98165900  1
  Cs  Cs10  1  0.04048600  0.65282500  0.48165900  1
  Cs  Cs11  1  0.54048600  0.34717500  0.01834100  1
  Cs  Cs12  1  0.52322300  0.85737900  0.49468900  1
  Cs  Cs13  1  0.02322300  0.14262100  0.00531100  1
  Cs  Cs14  1  0.47677700  0.14262100  0.50531100  1
  Cs  Cs15  1  0.97677700  0.85737900  0.99468900  1
  In  In0  1  0.75849400  0.40587000  0.75934200  1
  In  In1  1  0.74150600  0.40587000  0.25934200  1
  In  In2  1  0.24150600  0.59413000  0.24065800  1
  In  In3  1  0.25849400  0.59413000  0.74065800  1
  In  In4  1  0.73566700  0.18115700  0.31819500  1
  In  In5  1  0.23566700  0.81884300  0.18180500  1
  In  In6  1  0.26433300  0.81884300  0.68180500  1
  In  In7  1  0.76433300  0.18115700  0.81819500  1
  In  In8  1  0.70837100  0.90722500  0.23177400  1
  In  In9  1  0.20837100  0.09277500  0.26822600  1
  In  In10  1  0.29162900  0.09277500  0.76822600  1
  In  In11  1  0.79162900  0.90722500  0.73177400  1
  In  In12  1  0.27812600  0.31537800  0.82459900  1
  In  In13  1  0.72187400  0.68462200  0.17540100  1
  In  In14  1  0.77812600  0.68462200  0.67540100  1
  In  In15  1  0.22187400  0.31537800  0.32459900  1
  Sb  Sb0  1  0.56518300  0.32609600  0.38150900  1
  Sb  Sb1  1  0.43481700  0.67390400  0.61849100  1
  Sb  Sb2  1  0.06518300  0.67390400  0.11849100  1
  Sb  Sb3  1  0.93481700  0.32609600  0.88150900  1
  Sb  Sb4  1  0.83231200  0.25326600  0.17741400  1
  Sb  Sb5  1  0.33231200  0.74673400  0.32258600  1
  Sb  Sb6  1  0.16768800  0.74673400  0.82258600  1
  Sb  Sb7  1  0.66768800  0.25326600  0.67741400  1
  Sb  Sb8  1  0.45572100  0.47484200  0.83239200  1
  Sb  Sb9  1  0.95572100  0.52515800  0.66760800  1
  Sb  Sb10  1  0.54427900  0.52515800  0.16760800  1
  Sb  Sb11  1  0.04427900  0.47484200  0.33239200  1
  Sb  Sb12  1  0.29762100  0.24508000  0.68046700  1
  Sb  Sb13  1  0.20237900  0.24508000  0.18046700  1
  Sb  Sb14  1  0.70237900  0.75492000  0.31953300  1
  Sb  Sb15  1  0.79762100  0.75492000  0.81953300  1
  Sb  Sb16  1  0.96417800  0.02834000  0.82335400  1
  Sb  Sb17  1  0.46417800  0.97166000  0.67664600  1
  Sb  Sb18  1  0.03582200  0.97166000  0.17664600  1
  Sb  Sb19  1  0.53582200  0.02834000  0.32335400  1
  Sb  Sb20  1  0.44481900  0.16660700  0.89642900  1
  Sb  Sb21  1  0.94481900  0.83339300  0.60357100  1
  Sb  Sb22  1  0.55518100  0.83339300  0.10357100  1
  Sb  Sb23  1  0.05518100  0.16660700  0.39642900  1
loop_
_geom_bond_atom_site_label_1
_geom_bond_atom_site_label_2
_geom_bond_distance
_geom_bond_site_symmetry_2
Cs0 Sb0 3.708901 1_555
Cs0 Sb14 3.717135 1_555
Cs0 Sb5 3.786050 1_555
Cs0 In2 3.811166 1_555
Cs0 In1 3.818304 1_555
Cs0 Sb11 4.233076 1_655
Cs0 Sb10 4.266903 1_555
Cs0 Sb11 4.326190 1_555
Cs1 Sb2 3.708901 1_555
Cs1 Sb13 3.717135 1_555
Cs1 Sb4 3.786050 1_455
Cs1 In1 3.811166 1_455
Cs1 In2 3.818304 1_555
Cs1 Sb10 4.233076 1_555
Cs1 Sb11 4.266903 1_555
Cs1 Sb10 4.326190 1_455
Cs2 Sb1 3.708901 1_555
Cs2 Sb12 3.717135 1_555
Cs2 Sb7 3.786050 1_555
Cs2 In0 3.811166 1_555
Cs2 In3 3.818304 1_555
Cs2 Sb9 4.233076 1_455
Cs2 Sb8 4.266903 1_555
Cs2 Sb9 4.326190 1_555
Cs3 Sb3 3.708901 1_555
Cs3 Sb15 3.717135 1_555
Cs3 Sb6 3.786050 1_655
Cs3 In3 3.811166 1_655
Cs3 In0 3.818304 1_555
Cs3 Sb8 4.233076 1_555
Cs3 Sb9 4.266903 1_555
Cs3 Sb8 4.326190 1_655
Cs4 In11 3.773494 1_545
Cs4 In10 3.860496 1_655
Cs4 Sb21 3.911054 1_545
Cs4 Sb7 3.935004 1_555
Cs4 Sb12 3.976534 1_655
Cs4 Sb16 4.003706 1_555
Cs4 Sb23 4.238931 1_655
Cs4 Sb17 4.367621 1_645
Cs4 Sb17 4.454941 1_545
Cs5 In10 3.773494 1_565
Cs5 In11 3.860496 1_555
Cs5 Sb20 3.911054 1_565
Cs5 Sb6 3.935004 1_555
Cs5 Sb15 3.976534 1_555
Cs5 Sb17 4.003706 1_555
Cs5 Sb22 4.238931 1_556
Cs5 Sb16 4.367621 1_565
Cs5 Sb16 4.454941 1_465
Cs6 In9 3.773494 1_565
Cs6 In8 3.860496 1_455
Cs6 Sb23 3.911054 1_565
Cs6 Sb5 3.935004 1_555
Cs6 Sb14 3.976534 1_455
Cs6 Sb18 4.003706 1_555
Cs6 Sb21 4.238931 1_455
Cs6 Sb19 4.367621 1_465
Cs6 Sb19 4.454941 1_565
Cs7 In8 3.773494 1_545
Cs7 In9 3.860496 1_555
Cs7 Sb22 3.911054 1_545
Cs7 Sb4 3.935004 1_555
Cs7 Sb13 3.976534 1_555
Cs7 Sb19 4.003706 1_555
Cs7 Sb20 4.238931 1_554
Cs7 Sb18 4.367621 1_545
Cs7 Sb18 4.454941 1_645
Cs8 Sb23 3.773562 1_655
Cs8 Sb0 3.992721 1_555
Cs8 Sb7 3.998550 1_555
Cs8 Sb9 3.998789 1_555
Cs8 Sb11 4.037820 1_655
Cs8 In15 4.151882 1_655
Cs8 Sb12 4.301391 1_655
Cs9 Sb22 3.773562 1_556
Cs9 Sb2 3.992721 1_556
Cs9 Sb6 3.998550 1_555
Cs9 Sb8 3.998789 1_555
Cs9 Sb10 4.037820 1_556
Cs9 In13 4.151882 1_556
Cs9 Sb15 4.301391 1_555
Cs10 Sb21 3.773562 1_455
Cs10 Sb1 3.992721 1_555
Cs10 Sb5 3.998550 1_555
Cs10 Sb11 3.998789 1_555
Cs10 Sb9 4.037820 1_455
Cs10 In14 4.151882 1_455
Cs10 Sb14 4.301391 1_455
Cs11 Sb20 3.773562 1_554
Cs11 Sb3 3.992721 1_554
Cs11 Sb4 3.998550 1_555
Cs11 Sb10 3.998789 1_555
Cs11 Sb8 4.037820 1_554
Cs11 In12 4.151882 1_554
Cs11 Sb13 4.301391 1_555
Cs12 Sb1 3.786214 1_555
Cs12 Sb21 3.868022 1_555
Cs12 Sb17 3.871845 1_555
Cs12 Sb14 3.901138 1_555
Cs12 Sb5 3.947681 1_555
Cs12 In6 4.039473 1_555
Cs12 Sb19 4.176537 1_565
Cs13 Sb3 3.786214 1_454
Cs13 Sb20 3.868022 1_554
Cs13 Sb16 3.871845 1_454
Cs13 Sb13 3.901138 1_555
Cs13 Sb4 3.947681 1_455
Cs13 In7 4.039473 1_454
Cs13 Sb18 4.176537 1_545
Cs14 Sb0 3.786214 1_555
Cs14 Sb23 3.868022 1_555
Cs14 Sb19 3.871845 1_555
Cs14 Sb12 3.901138 1_555
Cs14 Sb7 3.947681 1_555
Cs14 In4 4.039473 1_555
Cs14 Sb17 4.176537 1_545
Cs15 Sb2 3.786214 1_656
Cs15 Sb22 3.868022 1_556
Cs15 Sb18 3.871845 1_656
Cs15 Sb15 3.901138 1_555
Cs15 Sb6 3.947681 1_655
Cs15 In5 4.039473 1_656
Cs15 Sb16 4.176537 1_565
In0 Sb3 2.926663 1_555
In0 Sb8 2.941486 1_555
In0 Sb9 2.978645 1_555
In0 Sb7 2.988206 1_555
In1 Sb0 2.926663 1_555
In1 Sb11 2.941486 1_655
In1 Sb10 2.978645 1_555
In1 Sb4 2.988206 1_555
In2 Sb2 2.926663 1_555
In2 Sb10 2.941486 1_555
In2 Sb11 2.978645 1_555
In2 Sb5 2.988206 1_555
In3 Sb1 2.926663 1_555
In3 Sb9 2.941486 1_455
In3 Sb8 2.978645 1_555
In3 Sb6 2.988206 1_555
In4 Sb23 2.886248 1_655
In4 Sb19 2.919392 1_555
In4 Sb4 2.932858 1_555
In4 Sb0 2.942973 1_555
In5 Sb22 2.886248 1_555
In5 Sb18 2.919392 1_555
In5 Sb5 2.932858 1_555
In5 Sb2 2.942973 1_555
In6 Sb21 2.886248 1_455
In6 Sb17 2.919392 1_555
In6 Sb6 2.932858 1_555
In6 Sb1 2.942973 1_555
In7 Sb20 2.886248 1_555
In7 Sb16 2.919392 1_555
In7 Sb7 2.932858 1_555
In7 Sb3 2.942973 1_555
In8 Sb22 2.913462 1_555
In8 Sb19 2.923975 1_565
In8 Sb14 2.931636 1_555
In8 Sb18 2.934119 1_655
In9 Sb23 2.913462 1_555
In9 Sb18 2.923975 1_545
In9 Sb13 2.931636 1_555
In9 Sb19 2.934119 1_555
In10 Sb20 2.913462 1_555
In10 Sb17 2.923975 1_545
In10 Sb12 2.931636 1_555
In10 Sb16 2.934119 1_455
In11 Sb21 2.913462 1_555
In11 Sb16 2.923975 1_565
In11 Sb15 2.931636 1_555
In11 Sb17 2.934119 1_555
In12 Sb3 2.879900 1_455
In12 Sb12 2.903647 1_555
In12 Sb8 2.928734 1_555
In12 Sb20 3.025567 1_555
In13 Sb2 2.879900 1_655
In13 Sb14 2.903647 1_555
In13 Sb10 2.928734 1_555
In13 Sb22 3.025567 1_555
In14 Sb1 2.879900 1_555
In14 Sb15 2.903647 1_555
In14 Sb9 2.928734 1_555
In14 Sb21 3.025567 1_555
In15 Sb0 2.879900 1_555
In15 Sb13 2.903647 1_555
In15 Sb11 2.928734 1_555
In15 Sb23 3.025567 1_555
Sb12 Sb7 2.887841 1_555
Sb13 Sb4 2.887841 1_455
Sb14 Sb5 2.887841 1_555
Sb15 Sb6 2.887841 1_655
