# generated using pymatgen
data_MgTi2V2O6
_symmetry_space_group_name_H-M   'P 1'
_cell_length_a   5.97967047
_cell_length_b   5.97967054
_cell_length_c   5.97966951
_cell_angle_alpha   51.23482234
_cell_angle_beta   51.23482702
_cell_angle_gamma   51.23482922
_symmetry_Int_Tables_number   1
_chemical_formula_structural   MgTi2V2O6
_chemical_formula_sum   'Mg1 Ti2 V2 O6'
_cell_volume   119.96693945
_cell_formula_units_Z   1
loop_
 _symmetry_equiv_pos_site_id
 _symmetry_equiv_pos_as_xyz
  1  'x, y, z'
loop_
 _atom_site_type_symbol
 _atom_site_label
 _atom_site_symmetry_multiplicity
 _atom_site_fract_x
 _atom_site_fract_y
 _atom_site_fract_z
 _atom_site_occupancy
  Mg  Mg0  1  0.50000000  0.50000000  0.50000000  1
  Ti  Ti0  1  0.15124600  0.15124600  0.15124600  1
  Ti  Ti1  1  0.84875400  0.84875400  0.84875400  1
  V  V0  1  0.33048400  0.33048400  0.33048400  1
  V  V1  1  0.66951600  0.66951600  0.66951600  1
  O  O0  1  0.08855600  0.74104900  0.44282000  1
  O  O1  1  0.44282000  0.08855600  0.74104900  1
  O  O2  1  0.74104900  0.44282000  0.08855600  1
  O  O3  1  0.25895100  0.55718000  0.91144400  1
  O  O4  1  0.55718000  0.91144400  0.25895100  1
  O  O5  1  0.91144400  0.25895100  0.55718000  1
loop_
_geom_bond_atom_site_label_1
_geom_bond_atom_site_label_2
_geom_bond_distance
_geom_bond_site_symmetry_2
Mg0 O2 2.059859 1_555
Mg0 O3 2.059859 1_555
Mg0 O1 2.059860 1_555
Mg0 O4 2.059860 1_555
Mg0 O5 2.059860 1_555
Mg0 O0 2.059860 1_555
O0 Ti0 2.043137 1_565
O0 V1 2.159102 1_455
O0 Ti1 2.192143 1_455
O0 V0 2.229796 1_555
O1 Ti0 2.043137 1_556
O1 V1 2.159102 1_545
O1 Ti1 2.192143 1_545
O1 V0 2.229796 1_555
O2 Ti0 2.043137 1_655
O2 V1 2.159102 1_554
O2 Ti1 2.192143 1_554
O2 V0 2.229796 1_555
O3 Ti1 2.043137 1_455
O3 V0 2.159102 1_556
O3 Ti0 2.192143 1_556
O3 V1 2.229796 1_555
O4 Ti1 2.043137 1_554
O4 V0 2.159102 1_565
O4 Ti0 2.192143 1_565
O4 V1 2.229796 1_555
O5 Ti1 2.043137 1_545
O5 V0 2.159102 1_655
O5 Ti0 2.192143 1_655
O5 V1 2.229796 1_555
