# generated using pymatgen
data_NaMgIn3(SO4)6
_symmetry_space_group_name_H-M   'P 1'
_cell_length_a   8.80836389
_cell_length_b   8.80836360
_cell_length_c   23.28975340
_cell_angle_alpha   90.00000000
_cell_angle_beta   90.00000000
_cell_angle_gamma   120.00000112
_symmetry_Int_Tables_number   1
_chemical_formula_structural   NaMgIn3(SO4)6
_chemical_formula_sum   'Na3 Mg3 In9 S18 O72'
_cell_volume   1564.89786649
_cell_formula_units_Z   3
loop_
 _symmetry_equiv_pos_site_id
 _symmetry_equiv_pos_as_xyz
  1  'x, y, z'
loop_
 _atom_site_type_symbol
 _atom_site_label
 _atom_site_symmetry_multiplicity
 _atom_site_fract_x
 _atom_site_fract_y
 _atom_site_fract_z
 _atom_site_occupancy
  Na  Na0  1  0.00000000  0.00000000  0.99619704  1
  Na  Na1  1  0.66666700  0.33333300  0.83760576  1
  Na  Na2  1  0.66666700  0.33333300  0.33310922  1
  Mg  Mg0  1  0.00000000  0.00000000  0.35402373  1
  Mg  Mg1  1  0.00000000  0.00000000  0.85152474  1
  Mg  Mg2  1  0.66666700  0.33333300  0.98203375  1
  In  In0  1  0.00000000  0.00000000  0.64965717  1
  In  In1  1  0.00000000  0.00000000  0.14966792  1
  In  In2  1  0.66666700  0.33333300  0.68531039  1
  In  In3  1  0.66666700  0.33333300  0.18364433  1
  In  In4  1  0.66666700  0.33333300  0.48277911  1
  In  In5  1  0.33333300  0.66666700  0.01738475  1
  In  In6  1  0.33333300  0.66666700  0.51657815  1
  In  In7  1  0.33333300  0.66666700  0.31394732  1
  In  In8  1  0.33333300  0.66666700  0.81589534  1
  S  S0  1  0.29302293  0.00292413  0.25203585  1
  S  S1  1  0.70990120  0.70697707  0.25203585  1
  S  S2  1  0.99707587  0.29009880  0.25203585  1
  S  S3  1  0.29286090  0.29100110  0.75218011  1
  S  S4  1  -0.00185980  0.70713910  0.75218011  1
  S  S5  1  0.70899890  0.00185980  0.75218011  1
  S  S6  1  0.96301799  0.33346517  0.58351507  1
  S  S7  1  0.37044818  0.03698201  0.58351507  1
  S  S8  1  0.66653483  0.62955182  0.58351507  1
  S  S9  1  0.95806124  0.62707709  0.08133939  1
  S  S10  1  0.66901686  0.04193876  0.08133939  1
  S  S11  1  0.37292291  0.33098314  0.08133939  1
  S  S12  1  0.63437446  0.66668802  0.91663194  1
  S  S13  1  0.03231257  0.36562554  0.91663194  1
  S  S14  1  0.33331198  0.96768743  0.91663194  1
  S  S15  1  0.63197179  0.96405396  0.41516509  1
  S  S16  1  0.33208117  0.36802821  0.41516509  1
  S  S17  1  0.03594604  0.66791883  0.41516509  1
  O  O0  1  0.20501192  0.02552482  0.30162364  1
  O  O1  1  0.82051289  0.79498808  0.30162364  1
  O  O2  1  0.97447518  0.17948711  0.30162364  1
  O  O3  1  0.20504567  0.18013248  0.80184467  1
  O  O4  1  0.97508681  0.79495433  0.80184467  1
  O  O5  1  0.81986752  0.02491319  0.80184467  1
  O  O6  1  0.78225220  0.97887585  0.69741967  1
  O  O7  1  0.19662365  0.21774780  0.69741967  1
  O  O8  1  0.02112415  0.80337635  0.69741967  1
  O  O9  1  0.78236427  0.80308728  0.19698733  1
  O  O10  1  0.02072301  0.21763573  0.19698733  1
  O  O11  1  0.19691272  0.97927699  0.19698733  1
  O  O12  1  0.88421034  0.36489329  0.63545865  1
  O  O13  1  0.48068395  0.11578966  0.63545865  1
  O  O14  1  0.63510671  0.51931605  0.63545865  1
  O  O15  1  0.88524651  0.53023382  0.13629126  1
  O  O16  1  0.64498831  0.11475349  0.13629126  1
  O  O17  1  0.46976618  0.35501169  0.13629126  1
  O  O18  1  0.46118037  0.30786684  0.03171576  1
  O  O19  1  0.84668747  0.53881963  0.03171576  1
  O  O20  1  0.69213316  0.15331253  0.03171576  1
  O  O21  1  0.44882565  0.14701902  0.53158437  1
  O  O22  1  0.69819437  0.55117435  0.53158437  1
  O  O23  1  0.85298098  0.30180563  0.53158437  1
  O  O24  1  0.55478548  0.69821078  0.96856395  1
  O  O25  1  0.14342431  0.44521452  0.96856395  1
  O  O26  1  0.30178922  0.85657569  0.96856395  1
  O  O27  1  0.55365773  0.86070346  0.46838945  1
  O  O28  1  0.30704473  0.44634227  0.46838945  1
  O  O29  1  0.13929654  0.69295527  0.46838945  1
  O  O30  1  0.11539536  0.62998052  0.36468954  1
  O  O31  1  0.51458416  0.88460464  0.36468954  1
  O  O32  1  0.37001948  0.48541584  0.36468954  1
  O  O33  1  0.11195890  0.47682181  0.86472380  1
  O  O34  1  0.36486191  0.88804110  0.86472380  1
  O  O35  1  0.52317819  0.63513809  0.86472380  1
  O  O36  1  0.01977923  0.82288604  0.40636594  1
  O  O37  1  0.80310681  0.98022077  0.40636594  1
  O  O38  1  0.17711396  0.19689319  0.40636594  1
  O  O39  1  0.01630316  0.19146907  0.90934735  1
  O  O40  1  0.17516591  0.98369684  0.90934735  1
  O  O41  1  0.80853093  0.82483409  0.90934735  1
  O  O42  1  0.97973189  0.17568762  0.59042414  1
  O  O43  1  0.19595574  0.02026811  0.59042414  1
  O  O44  1  0.82431238  0.80404426  0.59042414  1
  O  O45  1  0.97510877  0.80546756  0.08526539  1
  O  O46  1  0.83035879  0.02489123  0.08526539  1
  O  O47  1  0.19453244  0.16964121  0.08526539  1
  O  O48  1  0.69210100  0.16341614  0.74845821  1
  O  O49  1  0.47131614  0.30789900  0.74845821  1
  O  O50  1  0.83658386  0.52868386  0.74845821  1
  O  O51  1  0.69189714  0.52787248  0.24811813  1
  O  O52  1  0.83597634  0.30810286  0.24811813  1
  O  O53  1  0.47212752  0.16402366  0.24811813  1
  O  O54  1  0.65036092  0.50844426  0.92391917  1
  O  O55  1  0.85808434  0.34963908  0.92391917  1
  O  O56  1  0.49155574  0.14191566  0.92391917  1
  O  O57  1  0.64854127  0.14183196  0.42046535  1
  O  O58  1  0.49329169  0.35145873  0.42046535  1
  O  O59  1  0.85816804  0.50670831  0.42046535  1
  O  O60  1  0.35188138  0.48734316  0.07559161  1
  O  O61  1  0.13546078  0.64811862  0.07559161  1
  O  O62  1  0.51265684  0.86453922  0.07559161  1
  O  O63  1  0.35394516  0.86246076  0.57629961  1
  O  O64  1  0.50851461  0.64605484  0.57629961  1
  O  O65  1  0.13753924  0.49148539  0.57629961  1
  O  O66  1  0.31446060  0.84663033  0.25716284  1
  O  O67  1  0.53216874  0.68553940  0.25716284  1
  O  O68  1  0.15336967  0.46783126  0.25716284  1
  O  O69  1  0.31392061  0.46854004  0.75752515  1
  O  O70  1  0.15461843  0.68607939  0.75752515  1
  O  O71  1  0.53145996  0.84538157  0.75752515  1
loop_
_geom_bond_atom_site_label_1
_geom_bond_atom_site_label_2
_geom_bond_distance
_geom_bond_site_symmetry_2
Na0 O39 2.591169 1_555
Na0 O41 2.591169 1_445
Na0 O40 2.591169 1_545
Na0 O45 2.628984 1_446
Na0 O47 2.628984 1_556
Na0 O46 2.628984 1_456
Na1 O56 2.581139 1_555
Na1 O54 2.581139 1_555
Na1 O55 2.581139 1_555
Na1 O50 2.633683 1_555
Na1 O48 2.633683 1_555
Na1 O49 2.633683 1_555
Na2 O51 2.554020 1_555
Na2 O53 2.554020 1_555
Na2 O52 2.554020 1_555
Na2 O57 2.596288 1_555
Na2 O59 2.596288 1_555
Na2 O58 2.596288 1_555
Mg0 O38 2.054768 1_555
Mg0 O36 2.054768 1_545
Mg0 O37 2.054768 1_445
Mg0 O1 2.096394 1_445
Mg0 O0 2.096394 1_555
Mg0 O2 2.096394 1_455
Mg1 O4 2.062185 1_445
Mg1 O3 2.062185 1_555
Mg1 O5 2.062185 1_455
Mg1 O39 2.106263 1_555
Mg1 O41 2.106263 1_445
Mg1 O40 2.106263 1_545
Mg2 O19 2.063795 1_556
Mg2 O20 2.063795 1_556
Mg2 O18 2.063795 1_556
Mg2 O56 2.110260 1_555
Mg2 O54 2.110260 1_555
Mg2 O55 2.110260 1_555
In0 O7 2.143328 1_555
In0 O8 2.143328 1_545
In0 O6 2.143328 1_445
In0 O42 2.146171 1_455
In0 O44 2.146171 1_445
In0 O43 2.146172 1_555
In1 O10 2.138427 1_555
In1 O9 2.138427 1_445
In1 O11 2.138427 1_545
In1 O45 2.204147 1_445
In1 O47 2.204147 1_555
In1 O46 2.204147 1_455
In2 O13 2.136449 1_555
In2 O14 2.136449 1_555
In2 O12 2.136449 1_555
In2 O50 2.188270 1_555
In2 O48 2.188270 1_555
In2 O49 2.188270 1_555
In3 O16 2.142886 1_555
In3 O15 2.142886 1_555
In3 O17 2.142886 1_555
In3 O51 2.204461 1_555
In3 O53 2.204461 1_555
In3 O52 2.204461 1_555
In4 O22 2.125593 1_555
In4 O21 2.125593 1_555
In4 O23 2.125593 1_555
In4 O57 2.169723 1_555
In4 O59 2.169723 1_555
In4 O58 2.169723 1_555
In5 O62 2.148826 1_555
In5 O60 2.148826 1_555
In5 O61 2.148826 1_555
In5 O26 2.152444 1_554
In5 O25 2.152444 1_554
In5 O24 2.152444 1_554
In6 O63 2.151456 1_555
In6 O65 2.151456 1_555
In6 O64 2.151456 1_555
In6 O28 2.151771 1_555
In6 O27 2.151771 1_555
In6 O29 2.151771 1_555
In7 O66 2.133764 1_555
In7 O68 2.133764 1_555
In7 O67 2.133764 1_555
In7 O31 2.136779 1_555
In7 O32 2.136779 1_555
In7 O30 2.136779 1_555
In8 O69 2.150466 1_555
In8 O71 2.150466 1_555
In8 O70 2.150466 1_555
In8 O34 2.152000 1_555
In8 O33 2.152000 1_555
In8 O35 2.152000 1_555
O0 S0 1.459010 1_555
O1 S1 1.459010 1_555
O2 S2 1.459010 1_555
O3 S3 1.460999 1_555
O4 S4 1.460999 1_655
O5 S5 1.460999 1_555
O6 S5 1.488116 1_565
O7 S3 1.488116 1_555
O8 S4 1.488116 1_555
O9 S1 1.492458 1_555
O10 S2 1.492458 1_455
O11 S0 1.492458 1_565
O12 S6 1.488009 1_555
O13 S7 1.488009 1_555
O14 S8 1.488009 1_555
O15 S9 1.493265 1_555
O16 S10 1.493265 1_555
O17 S11 1.493265 1_555
O18 S11 1.462806 1_555
O19 S9 1.462806 1_555
O20 S10 1.462806 1_555
O21 S7 1.486503 1_555
O22 S8 1.486503 1_555
O23 S6 1.486503 1_555
O24 S12 1.492003 1_555
O25 S13 1.492003 1_555
O26 S14 1.492003 1_555
O27 S15 1.487674 1_555
O28 S16 1.487674 1_555
O29 S17 1.487674 1_555
O30 S17 1.489036 1_555
O31 S15 1.489036 1_555
O32 S16 1.489036 1_555
O33 S13 1.491938 1_555
O34 S14 1.491938 1_555
O35 S12 1.491938 1_555
O36 S17 1.455988 1_555
O37 S15 1.455997 1_555
O38 S16 1.455993 1_555
O39 S13 1.478379 1_555
O40 S14 1.478370 1_555
O41 S12 1.478375 1_555
O42 S6 1.477704 1_555
O43 S7 1.477713 1_555
O44 S8 1.477709 1_555
O45 S9 1.504669 1_555
O46 S10 1.504660 1_555
O47 S11 1.504665 1_555
O48 S5 1.505504 1_555
O49 S3 1.505512 1_555
O50 S4 1.505509 1_655
O51 S1 1.507371 1_555
O52 S2 1.507362 1_555
O53 S0 1.507367 1_555
O54 S12 1.479114 1_555
O55 S13 1.479097 1_655
O56 S14 1.479104 1_545
O57 S15 1.503376 1_545
O58 S16 1.503393 1_555
O59 S17 1.503383 1_655
O60 S11 1.484731 1_555
O61 S9 1.484714 1_455
O62 S10 1.484721 1_565
O63 S7 1.479539 1_565
O64 S8 1.479557 1_555
O65 S6 1.479547 1_455
O66 S0 1.484978 1_565
O67 S1 1.484987 1_555
O68 S2 1.484983 1_455
O69 S3 1.485049 1_555
O70 S4 1.485041 1_555
O71 S5 1.485046 1_565
