# generated using pymatgen
data_MgCr2(PO5)2
_symmetry_space_group_name_H-M   'P 1'
_cell_length_a   6.35349742
_cell_length_b   5.90472977
_cell_length_c   5.51692593
_cell_angle_alpha   89.91893533
_cell_angle_beta   89.92479219
_cell_angle_gamma   87.74354292
_symmetry_Int_Tables_number   1
_chemical_formula_structural   MgCr2(PO5)2
_chemical_formula_sum   'Mg1 Cr2 P2 O10'
_cell_volume   206.81040261
_cell_formula_units_Z   1
loop_
 _symmetry_equiv_pos_site_id
 _symmetry_equiv_pos_as_xyz
  1  'x, y, z'
loop_
 _atom_site_type_symbol
 _atom_site_label
 _atom_site_symmetry_multiplicity
 _atom_site_fract_x
 _atom_site_fract_y
 _atom_site_fract_z
 _atom_site_occupancy
  Mg  Mg0  1  0.45428600  0.55903800  0.94459900  1
  Cr  Cr0  1  0.23256800  0.23616500  0.72520000  1
  Cr  Cr1  1  0.75532900  0.76152900  0.26975800  1
  P  P0  1  0.24651700  0.75096400  0.45644800  1
  P  P1  1  0.74898700  0.25517600  0.53992500  1
  O  O0  1  0.05364500  0.81460800  0.30482900  1
  O  O1  1  0.21315600  0.55398400  0.63926300  1
  O  O2  1  0.26339400  0.28816100  0.02250800  1
  O  O3  1  0.31952400  0.94099800  0.62772300  1
  O  O4  1  0.43193000  0.69222700  0.28010400  1
  O  O5  1  0.55917100  0.31296800  0.70871400  1
  O  O6  1  0.68629600  0.06351800  0.36647800  1
  O  O7  1  0.72477500  0.72799600  0.96738700  1
  O  O8  1  0.80614900  0.46720900  0.39172300  1
  O  O9  1  0.94177200  0.17962400  0.69284100  1
loop_
_geom_bond_atom_site_label_1
_geom_bond_atom_site_label_2
_geom_bond_distance
_geom_bond_site_symmetry_2
Mg0 O4 2.014781 1_556
Mg0 O7 2.024960 1_555
Mg0 O5 2.043424 1_555
Mg0 O2 2.088876 1_556
Mg0 O1 2.279492 1_555
Cr0 O2 1.682250 1_556
Cr0 O3 1.886296 1_545
Cr0 O9 1.899068 1_455
Cr0 O1 1.934208 1_555
Cr0 O5 2.143209 1_555
Cr1 O7 1.692470 1_554
Cr1 O8 1.878913 1_555
Cr1 O6 1.896645 1_565
Cr1 O0 1.943175 1_655
Cr1 O4 2.111492 1_555
O0 P0 1.519237 1_555
O1 P0 1.559012 1_555
O3 P0 1.553145 1_555
O4 P0 1.555726 1_555
O5 P1 1.550337 1_555
O6 P1 1.547441 1_555
O8 P1 1.549202 1_555
O9 P1 1.539358 1_555
