# generated using pymatgen
data_Na24Nb2Zn10Si9(SO8)9
_symmetry_space_group_name_H-M   'P 1'
_cell_length_a   9.22641383
_cell_length_b   9.20076371
_cell_length_c   22.13484426
_cell_angle_alpha   90.59397960
_cell_angle_beta   89.67976068
_cell_angle_gamma   119.83491468
_symmetry_Int_Tables_number   1
_chemical_formula_structural   Na24Nb2Zn10Si9(SO8)9
_chemical_formula_sum   'Na24 Nb2 Zn10 Si9 S9 O72'
_cell_volume   1629.89853794
_cell_formula_units_Z   1
loop_
 _symmetry_equiv_pos_site_id
 _symmetry_equiv_pos_as_xyz
  1  'x, y, z'
loop_
 _atom_site_type_symbol
 _atom_site_label
 _atom_site_symmetry_multiplicity
 _atom_site_fract_x
 _atom_site_fract_y
 _atom_site_fract_z
 _atom_site_occupancy
  Na  Na0  1  0.64159024  0.00944083  0.24485626  1
  Na  Na1  1  0.37546223  0.35180827  0.25257156  1
  Na  Na2  1  0.99128707  0.64491154  0.24884184  1
  Na  Na3  1  0.64476359  0.63323729  0.74985569  1
  Na  Na4  1  0.98257354  0.34702031  0.75038479  1
  Na  Na5  1  0.36898088  0.02085756  0.75113127  1
  Na  Na6  1  0.28939072  0.32747720  0.58795082  1
  Na  Na7  1  0.03281901  0.70717688  0.59305472  1
  Na  Na8  1  0.67293698  0.96384754  0.58895906  1
  Na  Na9  1  0.29413482  0.96054112  0.07935552  1
  Na  Na10  1  0.66794018  0.70521992  0.08437813  1
  Na  Na11  1  0.03907916  0.33500245  0.07394720  1
  Na  Na12  1  0.97216444  0.67654396  0.90756700  1
  Na  Na13  1  0.71465538  0.04680095  0.90488723  1
  Na  Na14  1  0.31434846  0.27671125  0.90899489  1
  Na  Na15  1  0.96686243  0.28614152  0.42145434  1
  Na  Na16  1  0.33651478  0.05074553  0.41160793  1
  Na  Na17  1  0.70154134  0.67353688  0.41538688  1
  Na  Na18  1  0.99986008  0.01008702  0.49743963  1
  Na  Na19  1  0.00848996  0.00823466  0.98878497  1
  Na  Na20  1  0.66683666  0.32710578  0.82916544  1
  Na  Na21  1  0.65108770  0.32813470  0.33449361  1
  Na  Na22  1  0.33668025  0.67443775  0.16209099  1
  Na  Na23  1  0.33675291  0.66566983  0.66784967  1
  Nb  Nb0  1  0.35345310  0.67874768  0.31602844  1
  Nb  Nb1  1  0.32142657  0.66980423  0.81240069  1
  Zn  Zn0  1  0.00376330  0.99952331  0.34877934  1
  Zn  Zn1  1  0.01112514  0.01183178  0.84256485  1
  Zn  Zn2  1  0.00073363  0.00406589  0.67665554  1
  Zn  Zn3  1  0.99551048  0.97572188  0.16416901  1
  Zn  Zn4  1  0.66871798  0.33151813  0.69227380  1
  Zn  Zn5  1  0.65041720  0.33067133  0.18536105  1
  Zn  Zn6  1  0.67014078  0.31989127  0.97404062  1
  Zn  Zn7  1  0.64925052  0.32198081  0.47954882  1
  Zn  Zn8  1  0.31719756  0.66389928  0.99595151  1
  Zn  Zn9  1  0.34940583  0.66483143  0.50773893  1
  Si  Si0  1  0.29674824  0.99908866  0.25004298  1
  Si  Si1  1  0.70893078  0.70440091  0.25020510  1
  Si  Si2  1  0.29925844  0.29962474  0.74917715  1
  Si  Si3  1  0.99563469  0.70700669  0.74996125  1
  Si  Si4  1  0.70353693  0.99668942  0.75036599  1
  Si  Si5  1  0.03651544  0.36657660  0.92037747  1
  Si  Si6  1  0.33176169  0.96612373  0.92169582  1
  Si  Si7  1  0.64007841  0.97147689  0.42165388  1
  Si  Si8  1  0.32813894  0.36624863  0.41981890  1
  S  S0  1  0.00260574  0.29855605  0.24928771  1
  S  S1  1  0.96072281  0.33783409  0.58040584  1
  S  S2  1  0.36842801  0.03370160  0.58109338  1
  S  S3  1  0.66712319  0.62555345  0.58110891  1
  S  S4  1  0.95586325  0.62397567  0.08496726  1
  S  S5  1  0.67212068  0.04043447  0.08497280  1
  S  S6  1  0.37075218  0.33530123  0.08408911  1
  S  S7  1  0.62339671  0.66458767  0.91997688  1
  S  S8  1  0.04357695  0.66562842  0.41849457  1
  O  O0  1  0.21547497  0.03621204  0.30860835  1
  O  O1  1  0.82139602  0.79003254  0.30921366  1
  O  O2  1  0.97650604  0.19879852  0.30341803  1
  O  O3  1  0.22338009  0.18283198  0.80781424  1
  O  O4  1  0.96190989  0.78768819  0.80940618  1
  O  O5  1  0.82038416  0.03213957  0.80874104  1
  O  O6  1  0.77102823  0.94947627  0.68850088  1
  O  O7  1  0.17996352  0.23215331  0.68882794  1
  O  O8  1  0.04676778  0.82230854  0.68930977  1
  O  O9  1  0.76947606  0.82217826  0.19004638  1
  O  O10  1  0.03313772  0.22299584  0.19427915  1
  O  O11  1  0.18540719  0.95740051  0.18836296  1
  O  O12  1  0.87653519  0.35226979  0.63529822  1
  O  O13  1  0.47086831  0.11572005  0.63511132  1
  O  O14  1  0.65161460  0.52692697  0.63522015  1
  O  O15  1  0.87419822  0.52508502  0.14053774  1
  O  O16  1  0.65159244  0.12259986  0.14063720  1
  O  O17  1  0.46858413  0.35308651  0.14024626  1
  O  O18  1  0.45448220  0.31476181  0.03017514  1
  O  O19  1  0.85547728  0.54018533  0.03055894  1
  O  O20  1  0.68810257  0.14020327  0.03078125  1
  O  O21  1  0.44986362  0.13280702  0.52540337  1
  O  O22  1  0.68260688  0.54119972  0.52496284  1
  O  O23  1  0.86162661  0.32246716  0.52485223  1
  O  O24  1  0.54578884  0.68739197  0.97634636  1
  O  O25  1  0.15034768  0.44139117  0.98153330  1
  O  O26  1  0.31329741  0.86308135  0.98375233  1
  O  O27  1  0.54954465  0.85492175  0.47896271  1
  O  O28  1  0.28870137  0.44564539  0.47883452  1
  O  O29  1  0.14436638  0.68707529  0.47258247  1
  O  O30  1  0.13035251  0.64658216  0.36259731  1
  O  O31  1  0.50741104  0.86279156  0.36101752  1
  O  O32  1  0.34771800  0.49824648  0.36113478  1
  O  O33  1  0.14909264  0.49930109  0.86414357  1
  O  O34  1  0.35529651  0.85673925  0.86424240  1
  O  O35  1  0.51749928  0.64461804  0.86619648  1
  O  O36  1  0.02515969  0.81549387  0.41360663  1
  O  O37  1  0.81898928  0.98239968  0.41159735  1
  O  O38  1  0.16658863  0.18101591  0.41125872  1
  O  O39  1  0.00917987  0.17951130  0.91338300  1
  O  O40  1  0.16147627  0.97393348  0.91491743  1
  O  O41  1  0.79073559  0.81402138  0.91560724  1
  O  O42  1  0.97961074  0.18557216  0.58118437  1
  O  O43  1  0.19987646  0.01909247  0.58340640  1
  O  O44  1  0.81856197  0.79572221  0.58200552  1
  O  O45  1  0.97178787  0.79509774  0.08758847  1
  O  O46  1  0.82798610  0.02783614  0.08777920  1
  O  O47  1  0.19940928  0.18443334  0.08785234  1
  O  O48  1  0.67073458  0.15463360  0.74432036  1
  O  O49  1  0.48833214  0.33162264  0.74176789  1
  O  O50  1  0.84421595  0.51508876  0.74377962  1
  O  O51  1  0.68058842  0.51459867  0.24430065  1
  O  O52  1  0.85574887  0.32310597  0.24266193  1
  O  O53  1  0.49070915  0.15364627  0.24487373  1
  O  O54  1  0.63575876  0.50976722  0.92246800  1
  O  O55  1  0.86190653  0.37332881  0.91905652  1
  O  O56  1  0.50302441  0.14976481  0.91832874  1
  O  O57  1  0.64811695  0.15253920  0.41779992  1
  O  O58  1  0.50722672  0.36879298  0.41721039  1
  O  O59  1  0.87708310  0.51129172  0.41917003  1
  O  O60  1  0.35809500  0.49128668  0.08261079  1
  O  O61  1  0.12672588  0.64301284  0.08326774  1
  O  O62  1  0.52261232  0.86845153  0.08273440  1
  O  O63  1  0.34820275  0.86079744  0.57755871  1
  O  O64  1  0.51226198  0.64227225  0.57993652  1
  O  O65  1  0.13026812  0.49351459  0.57922745  1
  O  O66  1  0.30578338  0.81869096  0.25863418  1
  O  O67  1  0.51096363  0.67942072  0.25766046  1
  O  O68  1  0.15659588  0.47214282  0.25496427  1
  O  O69  1  0.31718084  0.48965547  0.75993530  1
  O  O70  1  0.17143421  0.68941911  0.75763269  1
  O  O71  1  0.51418071  0.82372503  0.76003906  1
loop_
_geom_bond_atom_site_label_1
_geom_bond_atom_site_label_2
_geom_bond_distance
_geom_bond_site_symmetry_2
Na0 O53 2.352892 1_555
Na0 O16 2.523091 1_555
Na0 O52 2.561887 1_555
Na0 O67 2.669375 1_545
Na0 O66 2.713422 1_545
Na0 O9 2.792161 1_545
Na0 O31 2.887665 1_545
Na0 O2 2.984194 1_555
Na1 O51 2.450864 1_555
Na1 O53 2.530695 1_555
Na1 O17 2.624253 1_555
Na1 O67 2.628023 1_555
Na1 O68 2.743829 1_555
Na1 O32 2.815063 1_555
Na1 O0 2.817522 1_555
Na2 O51 2.499220 1_555
Na2 O66 2.531147 1_655
Na2 O52 2.580422 1_555
Na2 O15 2.630333 1_555
Na2 O68 2.700113 1_655
Na2 O30 2.828839 1_655
Na2 O1 2.836841 1_555
Na2 O11 2.862789 1_655
Na3 O49 2.413208 1_555
Na3 O50 2.563371 1_555
Na3 O71 2.581457 1_555
Na3 O69 2.637364 1_555
Na3 O14 2.721693 1_555
Na3 O35 2.846791 1_555
Na3 O4 2.861110 1_555
Na3 O6 2.891206 1_555
Na4 O50 2.452157 1_555
Na4 O48 2.522157 1_555
Na4 O69 2.695955 1_655
Na4 O70 2.741759 1_655
Na4 O12 2.743411 1_555
Na4 O5 2.836109 1_555
Na4 O7 2.854442 1_655
Na4 O33 2.914147 1_655
Na5 O48 2.424545 1_555
Na5 O49 2.511552 1_555
Na5 O70 2.667941 1_545
Na5 O13 2.728305 1_555
Na5 O3 2.744851 1_555
Na5 O71 2.747991 1_545
Na5 O34 2.906843 1_545
Na5 O8 2.938986 1_545
Na6 O7 2.430788 1_555
Na6 O42 2.486733 1_455
Na6 O43 2.531059 1_555
Na6 O64 2.594082 1_555
Na6 O65 2.601418 1_555
Na6 O28 2.660294 1_555
Na7 O8 2.344934 1_555
Na7 O44 2.498668 1_455
Na7 O43 2.503025 1_565
Na7 O63 2.547406 1_555
Na7 O65 2.551429 1_555
Na7 O29 2.890130 1_555
Na7 O12 2.996611 1_455
Na8 O6 2.416337 1_555
Na8 O44 2.506499 1_555
Na8 O42 2.540829 1_565
Na8 O64 2.572637 1_555
Na8 O27 2.659634 1_555
Na8 O63 2.667655 1_555
Na9 O26 2.329742 1_554
Na9 O61 2.538149 1_555
Na9 O45 2.586645 1_455
Na9 O11 2.602812 1_555
Na9 O47 2.612324 1_565
Na9 O62 2.635822 1_555
Na10 O62 2.461743 1_555
Na10 O45 2.498477 1_555
Na10 O60 2.539519 1_555
Na10 O9 2.544709 1_555
Na10 O46 2.575344 1_565
Na10 O24 2.617878 1_554
Na11 O25 2.283548 1_554
Na11 O47 2.501036 1_555
Na11 O46 2.531532 1_455
Na11 O61 2.537155 1_555
Na11 O60 2.560708 1_555
Na11 O10 2.856306 1_555
Na11 O20 2.972492 1_455
Na12 O40 2.408887 1_655
Na12 O4 2.433160 1_555
Na12 O55 2.463849 1_555
Na12 O41 2.555874 1_555
Na12 O54 2.712415 1_555
Na12 O19 2.972994 1_556
Na12 O33 2.974355 1_655
Na13 O5 2.366584 1_555
Na13 O39 2.368556 1_655
Na13 O56 2.574261 1_555
Na13 O41 2.577676 1_545
Na13 O55 2.625638 1_555
Na13 O20 2.952309 1_556
Na13 O34 3.015331 1_545
Na14 O3 2.392901 1_555
Na14 O40 2.421380 1_545
Na14 O39 2.496033 1_555
Na14 O56 2.543510 1_555
Na14 O54 2.674037 1_555
Na14 O18 2.925391 1_556
Na15 O37 2.432283 1_545
Na15 O38 2.479220 1_655
Na15 O57 2.563190 1_555
Na15 O23 2.564132 1_555
Na15 O59 2.586516 1_555
Na15 O2 2.739529 1_555
Na15 O28 2.872598 1_655
Na16 O38 2.400998 1_555
Na16 O0 2.517230 1_555
Na16 O58 2.543210 1_555
Na16 O57 2.546365 1_555
Na16 O36 2.598662 1_545
Na16 O21 2.685647 1_555
Na17 O58 2.465230 1_555
Na17 O37 2.489347 1_555
Na17 O1 2.595888 1_555
Na17 O36 2.596555 1_655
Na17 O22 2.690857 1_555
Na17 O59 2.695987 1_555
Na18 O37 2.462229 1_545
Na18 O38 2.469993 1_655
Na18 O42 2.512403 1_555
Na18 O43 2.630060 1_655
Na18 O44 2.636431 1_545
Na18 O36 2.654339 1_645
Na19 O40 2.274225 1_545
Na19 O39 2.305093 1_555
Na19 O41 2.501482 1_445
Na19 O47 2.769054 1_556
Na19 O46 2.803108 1_456
Na19 O45 2.857122 1_446
Na20 O48 2.457787 1_555
Na20 O56 2.534063 1_555
Na20 O50 2.541396 1_555
Na20 O49 2.561638 1_555
Na20 O55 2.576823 1_555
Na20 O54 2.751878 1_555
Na21 O58 2.388868 1_555
Na21 O57 2.455266 1_555
Na21 O53 2.511012 1_555
Na21 O51 2.569699 1_555
Na21 O59 2.680023 1_555
Na21 O52 2.782380 1_555
Na22 O62 2.489817 1_555
Na22 O60 2.497941 1_555
Na22 O61 2.519961 1_555
Na22 O66 2.592356 1_555
Na22 O67 2.650555 1_555
Na22 O68 2.723068 1_555
Na23 O71 2.562374 1_555
Na23 O69 2.565793 1_555
Na23 O70 2.571482 1_555
Na23 O64 2.599651 1_555
Na23 O65 2.638412 1_555
Na23 O63 2.666828 1_555
Nb0 O31 1.861277 1_555
Nb0 O32 1.924599 1_555
Nb0 O67 1.936852 1_555
Nb0 O66 2.017153 1_555
Nb0 O30 2.182584 1_555
Nb0 O68 2.297421 1_555
Nb1 O70 1.920715 1_555
Nb1 O34 1.949598 1_555
Nb1 O33 1.958553 1_555
Nb1 O69 1.998375 1_555
Nb1 O71 2.004171 1_555
Nb1 O35 2.278418 1_555
O0 Si0 1.610665 1_545
O0 Zn0 2.012672 1_545
O1 Si1 1.607433 1_555
O1 Zn0 2.016876 1_655
O2 S0 1.461399 1_655
O2 Zn0 2.221000 1_645
O3 Si2 1.612349 1_555
O3 Zn1 1.960788 1_555
O4 Si3 1.607550 1_555
O4 Zn1 2.009605 1_665
O5 Si4 1.610956 1_545
O5 Zn1 2.009314 1_655
O6 Si4 1.642842 1_555
O6 Zn2 1.936504 1_665
O7 Si2 1.643360 1_555
O7 Zn2 1.936869 1_555
O8 Si3 1.635482 1_455
O8 Zn2 1.942481 1_565
O9 Si1 1.636700 1_555
O9 Zn3 1.935214 1_555
O10 S0 1.489536 1_555
O10 Zn3 2.219482 1_445
O11 Si0 1.636816 1_555
O11 Zn3 1.921243 1_455
O12 S1 1.478528 1_555
O12 Zn4 2.217452 1_555
O13 S2 1.475358 1_555
O13 Zn4 2.289722 1_555
O14 S3 1.473069 1_555
O14 Zn4 2.276804 1_555
O15 S4 1.496429 1_555
O15 Zn5 2.187715 1_555
O16 S5 1.498686 1_555
O16 Zn5 2.150898 1_555
O17 S6 1.499337 1_555
O17 Zn5 2.054650 1_555
O18 S6 1.478831 1_555
O18 Zn6 2.320641 1_554
O19 S4 1.478283 1_555
O19 Zn6 2.262756 1_554
O20 S5 1.479661 1_555
O20 Zn6 2.157811 1_554
O21 S2 1.498925 1_555
O21 Zn7 2.067294 1_555
O22 S3 1.501872 1_555
O22 Zn7 2.125370 1_555
O23 S1 1.499456 1_555
O23 Zn7 2.204147 1_555
O24 S7 1.499214 1_555
O24 Zn8 2.054595 1_555
O25 Si5 1.639070 1_555
O25 Zn8 1.875900 1_555
O26 Si6 1.636565 1_555
O26 Zn8 1.873157 1_555
O27 Si7 1.606851 1_555
O27 Zn9 1.915963 1_555
O28 Si8 1.616123 1_555
O28 Zn9 1.908772 1_555
O29 S8 1.470379 1_555
O29 Zn9 2.152041 1_555
O30 S8 1.525320 1_555
O31 Si7 1.752803 1_555
O32 Si8 1.733983 1_555
O33 Si5 1.695421 1_555
O34 Si6 1.692670 1_555
O35 S7 1.495105 1_555
O36 S8 1.475912 1_555
O36 Zn0 2.313250 1_555
O37 Si7 1.617335 1_555
O37 Zn0 2.139010 1_655
O38 Si8 1.622044 1_555
O38 Zn0 2.106466 1_545
O39 Si5 1.616449 1_555
O39 Zn1 2.194264 1_555
O40 Si6 1.615950 1_555
O40 Zn1 2.264611 1_565
O41 S7 1.473901 1_555
O41 Zn1 2.530430 1_665
O42 S1 1.495564 1_555
O43 S2 1.493443 1_555
O44 S3 1.492310 1_555
O45 S4 1.507277 1_555
O45 Zn3 2.294978 1_555
O46 S5 1.500791 1_555
O46 Zn3 2.502290 1_545
O47 S6 1.500136 1_555
O47 Zn3 2.552935 1_445
O48 Si4 1.631996 1_545
O48 Zn4 2.011332 1_555
O49 Si2 1.625897 1_555
O49 Zn4 1.987800 1_555
O50 Si3 1.622049 1_555
O50 Zn4 2.008444 1_555
O51 Si1 1.635966 1_555
O51 Zn5 2.032944 1_555
O52 S0 1.488586 1_655
O52 Zn5 2.315704 1_555
O53 Si0 1.645236 1_545
O53 Zn5 2.047975 1_555
O54 S7 1.486106 1_555
O54 Zn6 2.247801 1_555
O55 Si5 1.643238 1_655
O55 Zn6 1.994044 1_555
O56 Si6 1.643788 1_545
O56 Zn6 1.981932 1_555
O57 Si7 1.633394 1_545
O57 Zn7 2.058755 1_555
O58 Si8 1.641516 1_555
O58 Zn7 2.097778 1_555
O59 S8 1.485305 1_655
O59 Zn7 2.369076 1_555
O60 S6 1.497413 1_555
O61 S4 1.497336 1_455
O61 Zn8 2.548418 1_554
O62 S5 1.495477 1_565
O63 S2 1.507962 1_565
O63 Zn9 2.366734 1_555
O64 S3 1.511632 1_555
O64 Zn9 2.280072 1_555
O65 S1 1.506737 1_455
O65 Zn9 2.433377 1_555
O66 Si0 1.715352 1_555
O67 Si1 1.730887 1_555
O68 S0 1.524868 1_555
O69 Si2 1.686767 1_555
O70 Si3 1.717763 1_455
O71 Si4 1.693268 1_555
