# generated using pymatgen
data_InH36C12S6(IO2)3
_symmetry_space_group_name_H-M   'P 1'
_cell_length_a   10.00923766
_cell_length_b   10.00923766
_cell_length_c   10.00923811
_cell_angle_alpha   69.95420969
_cell_angle_beta   69.95420969
_cell_angle_gamma   69.95420848
_symmetry_Int_Tables_number   1
_chemical_formula_structural   InH36C12S6(IO2)3
_chemical_formula_sum   'In1 H36 C12 S6 I3 O6'
_cell_volume   855.63692143
_cell_formula_units_Z   1
loop_
 _symmetry_equiv_pos_site_id
 _symmetry_equiv_pos_as_xyz
  1  'x, y, z'
loop_
 _atom_site_type_symbol
 _atom_site_label
 _atom_site_symmetry_multiplicity
 _atom_site_fract_x
 _atom_site_fract_y
 _atom_site_fract_z
 _atom_site_occupancy
  In  In0  1  0.00000000  0.00000000  0.00000000  1
  H  H0  1  0.23607700  0.52712300  0.75451300  1
  H  H1  1  0.75451300  0.23607700  0.52712300  1
  H  H2  1  0.52712300  0.75451300  0.23607700  1
  H  H3  1  0.76392300  0.47287700  0.24548700  1
  H  H4  1  0.24548700  0.76392300  0.47287700  1
  H  H5  1  0.47287700  0.24548700  0.76392300  1
  H  H6  1  0.15358000  0.48369300  0.95159700  1
  H  H7  1  0.95159700  0.15358000  0.48369300  1
  H  H8  1  0.48369300  0.95159700  0.15358000  1
  H  H9  1  0.84642000  0.51630700  0.04840300  1
  H  H10  1  0.04840300  0.84642000  0.51630700  1
  H  H11  1  0.51630700  0.04840300  0.84642000  1
  H  H12  1  0.04220100  0.60613600  0.82360500  1
  H  H13  1  0.82360500  0.04220100  0.60613600  1
  H  H14  1  0.60613600  0.82360500  0.04220100  1
  H  H15  1  0.99235800  0.65690300  0.45513600  1
  H  H16  1  0.95779900  0.39386400  0.17639500  1
  H  H17  1  0.39386400  0.17639500  0.95779900  1
  H  H18  1  0.34309700  0.54486400  0.00764200  1
  H  H19  1  0.00764200  0.34309700  0.54486400  1
  H  H20  1  0.54486400  0.00764200  0.34309700  1
  H  H21  1  0.65690300  0.45513600  0.99235800  1
  H  H22  1  0.28344700  0.07716200  0.60024400  1
  H  H23  1  0.07716200  0.60024400  0.28344700  1
  H  H24  1  0.60024400  0.28344700  0.07716200  1
  H  H25  1  0.71655300  0.92283800  0.39975600  1
  H  H26  1  0.92283800  0.39975600  0.71655300  1
  H  H27  1  0.39975600  0.71655300  0.92283800  1
  H  H28  1  0.41075700  0.18487800  0.55646600  1
  H  H29  1  0.18487800  0.55646600  0.41075700  1
  H  H30  1  0.55646600  0.41075700  0.18487800  1
  H  H31  1  0.58924300  0.81512200  0.44353400  1
  H  H32  1  0.81512200  0.44353400  0.58924300  1
  H  H33  1  0.44353400  0.58924300  0.81512200  1
  H  H34  1  0.45513600  0.99235800  0.65690300  1
  H  H35  1  0.17639500  0.95779900  0.39386400  1
  C  C0  1  0.36295800  0.63311600  0.90680600  1
  C  C1  1  0.90680600  0.36295800  0.63311600  1
  C  C2  1  0.63311600  0.90680600  0.36295800  1
  C  C3  1  0.63704200  0.36688400  0.09319400  1
  C  C4  1  0.43249400  0.15345800  0.84887400  1
  C  C5  1  0.15345800  0.84887400  0.43249400  1
  C  C6  1  0.84887400  0.43249400  0.15345800  1
  C  C7  1  0.56750600  0.84654200  0.15112600  1
  C  C8  1  0.36688400  0.09319400  0.63704200  1
  C  C9  1  0.15112600  0.56750600  0.84654200  1
  C  C10  1  0.09319400  0.63704200  0.36688400  1
  C  C11  1  0.84654200  0.15112600  0.56750600  1
  S  S0  1  0.19508700  0.72391900  0.85153200  1
  S  S1  1  0.85153200  0.19508700  0.72391900  1
  S  S2  1  0.72391900  0.85153200  0.19508700  1
  S  S3  1  0.80491300  0.27608100  0.14846800  1
  S  S4  1  0.14846800  0.80491300  0.27608100  1
  S  S5  1  0.27608100  0.14846800  0.80491300  1
  I  I0  1  0.50000000  0.50000000  0.50000000  1
  I  I1  1  0.24685800  0.24685800  0.24685800  1
  I  I2  1  0.75314200  0.75314200  0.75314200  1
  O  O0  1  0.08116100  0.76954700  0.99050100  1
  O  O1  1  0.99050100  0.08116100  0.76954700  1
  O  O2  1  0.23045300  0.00949900  0.91883900  1
  O  O3  1  0.91883900  0.23045300  0.00949900  1
  O  O4  1  0.00949900  0.91883900  0.23045300  1
  O  O5  1  0.76954700  0.99050100  0.08116100  1
loop_
_geom_bond_atom_site_label_1
_geom_bond_atom_site_label_2
_geom_bond_distance
_geom_bond_site_symmetry_2
In0 O3 2.191449 1_455
In0 O0 2.191449 1_544
In0 O2 2.191449 1_554
In0 O5 2.191449 1_445
In0 O4 2.191449 1_545
In0 O1 2.191449 1_454
C0 H27 1.096418 1_555
C0 H18 1.100052 1_556
C0 H33 1.100694 1_555
C0 S0 1.789150 1_555
C1 H26 1.096418 1_555
C1 H19 1.100052 1_655
C1 H32 1.100694 1_555
C1 S1 1.789150 1_555
C2 H25 1.096418 1_555
C2 H20 1.100052 1_565
C2 H31 1.100694 1_555
C2 S2 1.789151 1_555
C3 H24 1.096418 1_555
C3 H21 1.100052 1_554
C3 H30 1.100694 1_555
C3 S3 1.789150 1_555
C4 H11 1.099502 1_555
C4 H17 1.101188 1_555
C4 H5 1.103434 1_555
C4 S5 1.785514 1_555
C5 H10 1.099502 1_555
C5 H35 1.101188 1_555
C5 H4 1.103434 1_555
C5 S4 1.785514 1_555
C6 H9 1.099502 1_555
C6 H16 1.101188 1_555
C6 H3 1.103434 1_555
C6 S3 1.785514 1_555
C7 H8 1.099502 1_555
C7 H14 1.101188 1_555
C7 H2 1.103434 1_555
C7 S2 1.785514 1_555
C8 H22 1.096418 1_555
C8 H34 1.100052 1_545
C8 H28 1.100694 1_555
C8 S5 1.789151 1_555
C9 H6 1.099502 1_555
C9 H12 1.101188 1_555
C9 H0 1.103434 1_555
C9 S0 1.785514 1_555
C10 H23 1.096418 1_555
C10 H15 1.100052 1_455
C10 H29 1.100694 1_555
C10 S4 1.789150 1_555
C11 H7 1.099502 1_555
C11 H13 1.101188 1_555
C11 H1 1.103434 1_555
C11 S1 1.785514 1_555
O0 S0 1.560387 1_555
O1 S1 1.560387 1_555
O2 S5 1.560387 1_555
O3 S3 1.560387 1_555
O4 S4 1.560387 1_555
O5 S2 1.560387 1_555
