# generated using pymatgen
data_Na2NbAl3P4(SO12)2
_symmetry_space_group_name_H-M   'P 1'
_cell_length_a   8.45931969
_cell_length_b   8.46353604
_cell_length_c   22.04817955
_cell_angle_alpha   90.02708054
_cell_angle_beta   89.83895257
_cell_angle_gamma   119.97030331
_symmetry_Int_Tables_number   1
_chemical_formula_structural   Na2NbAl3P4(SO12)2
_chemical_formula_sum   'Na6 Nb3 Al9 P12 S6 O72'
_cell_volume   1367.47239959
_cell_formula_units_Z   3
loop_
 _symmetry_equiv_pos_site_id
 _symmetry_equiv_pos_as_xyz
  1  'x, y, z'
loop_
 _atom_site_type_symbol
 _atom_site_label
 _atom_site_symmetry_multiplicity
 _atom_site_fract_x
 _atom_site_fract_y
 _atom_site_fract_z
 _atom_site_occupancy
  Na  Na0  1  0.99670582  0.99593111  0.49970041  1
  Na  Na1  1  0.00330595  0.00018096  0.99900389  1
  Na  Na2  1  0.66667552  0.33243499  0.82998422  1
  Na  Na3  1  0.67434875  0.33682371  0.33244678  1
  Na  Na4  1  0.33085326  0.66002248  0.16184135  1
  Na  Na5  1  0.33361043  0.66654744  0.66614935  1
  Nb  Nb0  1  0.66424487  0.34064182  0.97884139  1
  Nb  Nb1  1  0.33107821  0.66714312  0.31091390  1
  Nb  Nb2  1  0.33247573  0.66703217  0.80938177  1
  Al  Al0  1  0.98188378  0.98943181  0.35245333  1
  Al  Al1  1  0.00053308  0.00025895  0.85229390  1
  Al  Al2  1  0.00051668  0.00013244  0.65257028  1
  Al  Al3  1  0.99823526  0.00167899  0.14533698  1
  Al  Al4  1  0.66682294  0.33376129  0.69100264  1
  Al  Al5  1  0.67741431  0.34946334  0.18506679  1
  Al  Al6  1  0.67385565  0.33303980  0.48029399  1
  Al  Al7  1  0.32582069  0.65829946  0.01895161  1
  Al  Al8  1  0.33488369  0.67603495  0.51750079  1
  P  P0  1  0.72491656  0.71433128  0.24797718  1
  P  P1  1  0.98693049  0.27173515  0.24853858  1
  P  P2  1  0.28510951  0.27490418  0.74854156  1
  P  P3  1  0.98945313  0.71490363  0.74853962  1
  P  P4  1  0.72537617  0.01045312  0.74857803  1
  P  P5  1  0.96475944  0.63056785  0.08652059  1
  P  P6  1  0.37170083  0.33399277  0.08767879  1
  P  P7  1  0.62527343  0.68147827  0.91832833  1
  P  P8  1  0.05013822  0.37156866  0.91813447  1
  P  P9  1  0.32229368  0.94765610  0.91894726  1
  P  P10  1  0.62660787  0.96043747  0.42022481  1
  P  P11  1  0.03939280  0.66967585  0.42009443  1
  S  S0  1  0.28653504  0.01076314  0.24897821  1
  S  S1  1  0.95585252  0.33348029  0.58339195  1
  S  S2  1  0.37961068  0.04737780  0.58323817  1
  S  S3  1  0.66582664  0.62013612  0.58296006  1
  S  S4  1  0.66529380  0.04104371  0.08586604  1
  S  S5  1  0.33283148  0.37304975  0.41958092  1
  O  O0  1  0.20648974  0.03307287  0.30522106  1
  O  O1  1  0.83163851  0.79496776  0.30640233  1
  O  O2  1  0.96930477  0.16762910  0.30729960  1
  O  O3  1  0.20279799  0.16732453  0.80612484  1
  O  O4  1  0.96439331  0.79712226  0.80622854  1
  O  O5  1  0.83244914  0.03529625  0.80612388  1
  O  O6  1  0.79949718  0.96847546  0.69115880  1
  O  O7  1  0.16928915  0.20088528  0.69125925  1
  O  O8  1  0.03183843  0.83086320  0.69117707  1
  O  O9  1  0.80257557  0.83358318  0.19266567  1
  O  O10  1  0.03190931  0.19751962  0.19290507  1
  O  O11  1  0.17373334  0.97036275  0.19514551  1
  O  O12  1  0.87334914  0.36603738  0.63724846  1
  O  O13  1  0.49338135  0.12868864  0.63720766  1
  O  O14  1  0.63446591  0.50672417  0.63715117  1
  O  O15  1  0.87388385  0.50393260  0.14043520  1
  O  O16  1  0.63452899  0.12696936  0.13941235  1
  O  O17  1  0.49726613  0.36239239  0.14131894  1
  O  O18  1  0.45972277  0.29957045  0.02918202  1
  O  O19  1  0.84085764  0.53935859  0.02900055  1
  O  O20  1  0.69936106  0.15416269  0.03016552  1
  O  O21  1  0.46315668  0.16036567  0.52817120  1
  O  O22  1  0.69551002  0.53604281  0.52794331  1
  O  O23  1  0.84229338  0.30249582  0.52849880  1
  O  O24  1  0.53422021  0.70083107  0.97458472  1
  O  O25  1  0.16334327  0.46148925  0.97377221  1
  O  O26  1  0.30104721  0.83422827  0.97454223  1
  O  O27  1  0.53560833  0.83414511  0.47422917  1
  O  O28  1  0.30051452  0.45948146  0.47244479  1
  O  O29  1  0.16331106  0.69843350  0.47409036  1
  O  O30  1  0.12678921  0.63270164  0.36202755  1
  O  O31  1  0.50516576  0.87077787  0.36222700  1
  O  O32  1  0.36844563  0.48732838  0.36341982  1
  O  O33  1  0.12805036  0.49361985  0.86074652  1
  O  O34  1  0.36482089  0.87033746  0.86091149  1
  O  O35  1  0.50537423  0.63558536  0.86081717  1
  O  O36  1  0.02800416  0.84151071  0.40806310  1
  O  O37  1  0.81354624  0.97847092  0.40978642  1
  O  O38  1  0.17064488  0.19408358  0.40995621  1
  O  O39  1  0.02629252  0.18481140  0.90838839  1
  O  O40  1  0.16017762  0.97314549  0.90898682  1
  O  O41  1  0.81399771  0.84104938  0.90892272  1
  O  O42  1  0.97521536  0.16942688  0.58970251  1
  O  O43  1  0.19523116  0.02623502  0.58952996  1
  O  O44  1  0.82954325  0.80394636  0.58923550  1
  O  O45  1  0.97625088  0.81555794  0.09304363  1
  O  O46  1  0.83037308  0.02536074  0.09151253  1
  O  O47  1  0.18489308  0.16196841  0.09311386  1
  O  O48  1  0.69407458  0.17232680  0.73983521  1
  O  O49  1  0.47819093  0.30586237  0.73983889  1
  O  O50  1  0.82773669  0.52186525  0.73991494  1
  O  O51  1  0.69092354  0.51971742  0.24197952  1
  O  O52  1  0.82395297  0.30210926  0.24132743  1
  O  O53  1  0.47151978  0.16543503  0.24243380  1
  O  O54  1  0.64138312  0.50408887  0.92296491  1
  O  O55  1  0.85847035  0.35524276  0.92439827  1
  O  O56  1  0.49899990  0.13887871  0.92450533  1
  O  O57  1  0.63990880  0.14695590  0.42716774  1
  O  O58  1  0.49782273  0.35803210  0.42658660  1
  O  O59  1  0.85134714  0.49823006  0.42713700  1
  O  O60  1  0.36012898  0.50580704  0.07620956  1
  O  O61  1  0.15013271  0.64622506  0.07557901  1
  O  O62  1  0.50251694  0.86142832  0.07758383  1
  O  O63  1  0.36041669  0.86232610  0.57573741  1
  O  O64  1  0.49955188  0.63821905  0.57496714  1
  O  O65  1  0.14044508  0.49842848  0.57479489  1
  O  O66  1  0.30607902  0.84105830  0.25501368  1
  O  O67  1  0.52802918  0.69270652  0.25743024  1
  O  O68  1  0.16249033  0.47008524  0.25779254  1
  O  O69  1  0.30774220  0.47045606  0.75522106  1
  O  O70  1  0.16262255  0.69244026  0.75502916  1
  O  O71  1  0.52979301  0.83729222  0.75519802  1
loop_
_geom_bond_atom_site_label_1
_geom_bond_atom_site_label_2
_geom_bond_distance
_geom_bond_site_symmetry_2
Na0 O37 2.478063 1_555
Na0 O36 2.490095 1_655
Na0 O44 2.495706 1_555
Na0 O42 2.527629 1_565
Na0 O43 2.529169 1_665
Na0 O38 2.532622 1_665
Na1 O40 2.457759 1_545
Na1 O39 2.483632 1_555
Na1 O41 2.486689 1_445
Na1 O45 2.536945 1_446
Na1 O47 2.540424 1_556
Na1 O46 2.576806 1_456
Na2 O48 2.479771 1_555
Na2 O50 2.485109 1_555
Na2 O49 2.490441 1_555
Na2 O54 2.581550 1_555
Na2 O56 2.589157 1_555
Na2 O55 2.590100 1_555
Na3 O52 2.465913 1_555
Na3 O51 2.485724 1_555
Na3 O59 2.537324 1_555
Na3 O53 2.552761 1_555
Na3 O57 2.561386 1_555
Na3 O58 2.611575 1_555
Na4 O60 2.376453 1_555
Na4 O61 2.409540 1_555
Na4 O62 2.445461 1_555
Na4 O68 2.605187 1_555
Na4 O67 2.618911 1_555
Na4 O66 2.631931 1_555
Na5 O70 2.506143 1_555
Na5 O69 2.509352 1_555
Na5 O71 2.513329 1_555
Na5 O64 2.527777 1_555
Na5 O63 2.529011 1_555
Na5 O65 2.538607 1_555
Nb0 O18 1.932554 1_556
Nb0 O54 1.933658 1_555
Nb0 O19 1.944438 1_556
Nb0 O56 1.981877 1_555
Nb0 O55 1.985412 1_555
Nb0 O20 2.081277 1_556
Nb1 O68 1.954069 1_555
Nb1 O30 1.956418 1_555
Nb1 O67 1.960156 1_555
Nb1 O31 1.972504 1_555
Nb1 O66 2.011108 1_555
Nb1 O32 2.059257 1_555
Nb2 O34 1.963652 1_555
Nb2 O70 1.966085 1_555
Nb2 O71 1.969038 1_555
Nb2 O33 1.970254 1_555
Nb2 O69 1.972180 1_555
Nb2 O35 1.973491 1_555
Al0 O1 1.808546 1_555
Al0 O2 1.854567 1_565
Al0 O37 1.868789 1_555
Al0 O36 1.927435 1_655
Al0 O0 2.029543 1_665
Al0 O38 2.098394 1_665
Al1 O3 1.880830 1_555
Al1 O4 1.885688 1_445
Al1 O5 1.890927 1_455
Al1 O39 1.917415 1_555
Al1 O41 1.931508 1_445
Al1 O40 1.938631 1_545
Al2 O6 1.795605 1_445
Al2 O8 1.796891 1_545
Al2 O7 1.798533 1_555
Al2 O43 2.077899 1_555
Al2 O42 2.080884 1_455
Al2 O44 2.099678 1_445
Al3 O10 1.859228 1_655
Al3 O9 1.868560 1_545
Al3 O47 1.873634 1_655
Al3 O45 1.884707 1_545
Al3 O46 1.938803 1_555
Al3 O11 1.970497 1_645
Al4 O49 1.837264 1_555
Al4 O50 1.841724 1_555
Al4 O48 1.842996 1_555
Al4 O14 2.007836 1_555
Al4 O13 2.008855 1_555
Al4 O12 2.010816 1_555
Al5 O15 1.805800 1_555
Al5 O17 1.854639 1_555
Al5 O51 1.870442 1_555
Al5 O52 1.934287 1_555
Al5 O16 2.002146 1_555
Al5 O53 2.082895 1_555
Al6 O59 1.864677 1_555
Al6 O57 1.866328 1_555
Al6 O23 1.898280 1_555
Al6 O22 1.942718 1_555
Al6 O21 1.953289 1_555
Al6 O58 1.997318 1_555
Al7 O25 1.837039 1_554
Al7 O26 1.879893 1_554
Al7 O24 1.884400 1_554
Al7 O61 1.901582 1_555
Al7 O60 1.929123 1_555
Al7 O62 2.074207 1_555
Al8 O27 1.818255 1_555
Al8 O29 1.827955 1_555
Al8 O63 1.959761 1_555
Al8 O28 1.974354 1_555
Al8 O65 2.020050 1_555
Al8 O64 2.025816 1_555
O0 S0 1.467884 1_555
O1 P0 1.526536 1_555
O2 P1 1.531609 1_555
O3 P2 1.512766 1_555
O4 P3 1.513939 1_555
O5 P4 1.513393 1_555
O6 P4 1.529633 1_565
O7 P2 1.529856 1_555
O8 P3 1.529174 1_455
O9 P0 1.507208 1_555
O10 P1 1.509747 1_455
O11 S0 1.454724 1_565
O12 S1 1.469763 1_555
O13 S2 1.469598 1_555
O14 S3 1.471120 1_555
O15 P5 1.524998 1_555
O16 S4 1.475455 1_555
O17 P6 1.528545 1_555
O18 P6 1.585479 1_555
O19 P5 1.581458 1_555
O20 S4 1.493761 1_555
O21 S2 1.486302 1_555
O22 S3 1.488976 1_555
O23 S1 1.486924 1_555
O24 P7 1.509658 1_555
O25 P8 1.509520 1_555
O26 P9 1.511257 1_555
O27 P10 1.525392 1_555
O28 S5 1.471588 1_555
O29 P11 1.525532 1_555
O30 P11 1.583998 1_555
O31 P10 1.579243 1_555
O32 S5 1.505793 1_555
O33 P8 1.555239 1_555
O34 P9 1.557821 1_555
O35 P7 1.549396 1_555
O36 P11 1.528142 1_555
O37 P10 1.527692 1_555
O38 S5 1.465171 1_555
O39 P8 1.505528 1_555
O40 P9 1.507583 1_555
O41 P7 1.503308 1_555
O42 S1 1.483771 1_555
O43 S2 1.484575 1_555
O44 S3 1.485135 1_555
O45 P5 1.526192 1_555
O46 S4 1.472887 1_555
O47 P6 1.527007 1_555
O48 P4 1.532063 1_555
O49 P2 1.531003 1_555
O50 P3 1.531343 1_555
O51 P0 1.529698 1_555
O52 P1 1.532153 1_555
O53 S0 1.461329 1_555
O54 P7 1.577240 1_555
O55 P8 1.562679 1_655
O56 P9 1.566061 1_545
O57 P10 1.533133 1_545
O58 S5 1.471904 1_555
O59 P11 1.533866 1_655
O60 P6 1.526698 1_555
O61 P5 1.524823 1_455
O62 S4 1.466337 1_565
O63 S2 1.500835 1_565
O64 S3 1.499806 1_555
O65 S1 1.497938 1_455
O66 S0 1.531523 1_565
O67 P0 1.595139 1_555
O68 P1 1.604951 1_455
O69 P2 1.575090 1_555
O70 P3 1.575435 1_455
O71 P4 1.575686 1_565
