# generated using pymatgen
data_Na5Y2Sc2P5SO24
_symmetry_space_group_name_H-M   'P 1'
_cell_length_a   9.14581727
_cell_length_b   9.15597707
_cell_length_c   23.12957354
_cell_angle_alpha   90.17191463
_cell_angle_beta   89.96600674
_cell_angle_gamma   119.98416155
_symmetry_Int_Tables_number   1
_chemical_formula_structural   Na5Y2Sc2P5SO24
_chemical_formula_sum   'Na15 Y6 Sc6 P15 S3 O72'
_cell_volume   1677.61604749
_cell_formula_units_Z   3
loop_
 _symmetry_equiv_pos_site_id
 _symmetry_equiv_pos_as_xyz
  1  'x, y, z'
loop_
 _atom_site_type_symbol
 _atom_site_label
 _atom_site_symmetry_multiplicity
 _atom_site_fract_x
 _atom_site_fract_y
 _atom_site_fract_z
 _atom_site_occupancy
  Na  Na0  1  0.64245440  0.00112065  0.25021473  1
  Na  Na1  1  0.99689343  0.35909420  0.74965271  1
  Na  Na2  1  0.36018026  0.99885056  0.75030697  1
  Na  Na3  1  0.02990988  0.69637625  0.57910504  1
  Na  Na4  1  0.66424419  0.96887446  0.58217283  1
  Na  Na5  1  0.30470965  0.97527030  0.08431844  1
  Na  Na6  1  0.02644758  0.33145692  0.08623658  1
  Na  Na7  1  0.97821940  0.66436873  0.91880994  1
  Na  Na8  1  0.70290958  0.67291565  0.41675397  1
  Na  Na9  1  0.02361465  0.02064734  0.49659423  1
  Na  Na10  1  0.99698423  0.00965984  0.00220843  1
  Na  Na11  1  0.65335051  0.32197089  0.83401181  1
  Na  Na12  1  0.68758182  0.34105864  0.33309742  1
  Na  Na13  1  0.33944732  0.64303626  0.16877001  1
  Na  Na14  1  0.35069406  0.65035145  0.66605501  1
  Y  Y0  1  0.00051889  0.00933669  0.85421434  1
  Y  Y1  1  0.00312064  0.00181092  0.64712897  1
  Y  Y2  1  0.66422808  0.34399919  0.68159677  1
  Y  Y3  1  0.66034187  0.32462111  0.98731204  1
  Y  Y4  1  0.32787422  0.66407918  0.51041923  1
  Y  Y5  1  0.34173020  0.66906455  0.81816366  1
  Sc  Sc0  1  0.99124701  0.99552285  0.34726354  1
  Sc  Sc1  1  0.98997917  0.99568728  0.15248048  1
  Sc  Sc2  1  0.67414823  0.35105413  0.18405828  1
  Sc  Sc3  1  0.66917802  0.32500642  0.47971333  1
  Sc  Sc4  1  0.33449209  0.66684783  0.02119224  1
  Sc  Sc5  1  0.31974794  0.66173731  0.31533826  1
  P  P0  1  0.70042497  0.70381363  0.25201240  1
  P  P1  1  0.99864029  0.29439402  0.24858443  1
  P  P2  1  0.29959947  0.29945590  0.75068985  1
  P  P3  1  0.00102095  0.69822270  0.75216682  1
  P  P4  1  0.69783833  0.00241931  0.74657665  1
  P  P5  1  0.96177617  0.33418328  0.58215153  1
  P  P6  1  0.37228250  0.03686000  0.58072145  1
  P  P7  1  0.66712159  0.63254983  0.57584571  1
  P  P8  1  0.96860548  0.63723618  0.08317386  1
  P  P9  1  0.66548025  0.03331540  0.08937424  1
  P  P10  1  0.36356250  0.33064115  0.08774187  1
  P  P11  1  0.03742565  0.37338012  0.92065663  1
  P  P12  1  0.33070273  0.96143709  0.92016019  1
  P  P13  1  0.63359316  0.96653716  0.41211020  1
  P  P14  1  0.02787750  0.66852139  0.41514731  1
  S  S0  1  0.29650389  0.00050463  0.24942972  1
  S  S1  1  0.63321529  0.66610374  0.92125288  1
  S  S2  1  0.33280943  0.36374365  0.41217073  1
  O  O0  1  0.20700513  0.01692315  0.29977174  1
  O  O1  1  0.80432117  0.78261753  0.30793669  1
  O  O2  1  0.97225690  0.17212002  0.29901178  1
  O  O3  1  0.21025593  0.19254116  0.80436384  1
  O  O4  1  0.98978332  0.78789492  0.80715973  1
  O  O5  1  0.81076585  0.01767024  0.79833965  1
  O  O6  1  0.77725794  0.98901199  0.68919524  1
  O  O7  1  0.19306393  0.21292004  0.69645569  1
  O  O8  1  0.01565224  0.80099591  0.69707794  1
  O  O9  1  0.79563468  0.82571695  0.20128809  1
  O  O10  1  0.02348626  0.21674128  0.19218086  1
  O  O11  1  0.20028083  0.98053194  0.19544739  1
  O  O12  1  0.88879307  0.35308655  0.64037306  1
  O  O13  1  0.46259825  0.11017506  0.63915556  1
  O  O14  1  0.65341680  0.53581126  0.63164172  1
  O  O15  1  0.87103891  0.51044809  0.13259159  1
  O  O16  1  0.63541089  0.11966323  0.14241933  1
  O  O17  1  0.48147924  0.35562142  0.13915176  1
  O  O18  1  0.43613734  0.29395141  0.03287991  1
  O  O19  1  0.87181711  0.57038655  0.02581210  1
  O  O20  1  0.70549514  0.14960014  0.03622310  1
  O  O21  1  0.47630148  0.15021721  0.53007101  1
  O  O22  1  0.67689441  0.53740412  0.52187356  1
  O  O23  1  0.84415828  0.32294407  0.53193681  1
  O  O24  1  0.53789825  0.67333191  0.97155611  1
  O  O25  1  0.14720701  0.47475805  0.97329953  1
  O  O26  1  0.32810244  0.85295876  0.97242619  1
  O  O27  1  0.56060502  0.85794436  0.46750388  1
  O  O28  1  0.30321027  0.43126004  0.46659829  1
  O  O29  1  0.11907327  0.69154110  0.47366960  1
  O  O30  1  0.13103903  0.64707909  0.36599746  1
  O  O31  1  0.51782084  0.86934111  0.36008977  1
  O  O32  1  0.35607348  0.48027870  0.36383023  1
  O  O33  1  0.12229240  0.46673124  0.86366809  1
  O  O34  1  0.34238460  0.88025747  0.86274541  1
  O  O35  1  0.54550826  0.65469615  0.86647338  1
  O  O36  1  0.00760076  0.82588082  0.40624788  1
  O  O37  1  0.81109048  0.98266603  0.40497987  1
  O  O38  1  0.18740975  0.19274634  0.40357370  1
  O  O39  1  0.01249634  0.19423245  0.92190884  1
  O  O40  1  0.15914551  0.95909727  0.92161065  1
  O  O41  1  0.80359742  0.81955118  0.92156315  1
  O  O42  1  0.96933050  0.16926812  0.58090798  1
  O  O43  1  0.19075631  0.00856763  0.57998322  1
  O  O44  1  0.83434317  0.80693893  0.57796383  1
  O  O45  1  0.00185996  0.81797303  0.09461083  1
  O  O46  1  0.82419277  0.01433579  0.09597455  1
  O  O47  1  0.18502990  0.17084679  0.09546312  1
  O  O48  1  0.68276802  0.16441311  0.74774065  1
  O  O49  1  0.47306798  0.31051831  0.74869777  1
  O  O50  1  0.84964195  0.51672058  0.75023512  1
  O  O51  1  0.68170664  0.52787478  0.24309451  1
  O  O52  1  0.83207977  0.30321665  0.24415029  1
  O  O53  1  0.46976781  0.15056762  0.24648684  1
  O  O54  1  0.65696415  0.51758556  0.92303430  1
  O  O55  1  0.86566367  0.36964393  0.92239108  1
  O  O56  1  0.48241175  0.14160974  0.92227463  1
  O  O57  1  0.65071171  0.14250779  0.41831284  1
  O  O58  1  0.49272333  0.35834173  0.41653680  1
  O  O59  1  0.84656275  0.51070737  0.41726286  1
  O  O60  1  0.33743528  0.48508749  0.08123739  1
  O  O61  1  0.14586806  0.64893293  0.07979377  1
  O  O62  1  0.50288211  0.86070237  0.08026958  1
  O  O63  1  0.35798790  0.86002657  0.57591061  1
  O  O64  1  0.51748503  0.66600546  0.57460186  1
  O  O65  1  0.13664092  0.49417789  0.57631931  1
  O  O66  1  0.31712957  0.84787777  0.25484002  1
  O  O67  1  0.52559610  0.69511654  0.25653708  1
  O  O68  1  0.15414423  0.47199196  0.25787171  1
  O  O69  1  0.31338955  0.47428797  0.75333058  1
  O  O70  1  0.16479858  0.68479020  0.75296491  1
  O  O71  1  0.51710683  0.84954636  0.75061199  1
loop_
_geom_bond_atom_site_label_1
_geom_bond_atom_site_label_2
_geom_bond_distance
_geom_bond_site_symmetry_2
Na0 O52 2.425987 1_555
Na0 O67 2.454143 1_545
Na0 O53 2.556379 1_555
Na0 O66 2.580834 1_545
Na0 O16 2.735846 1_555
Na0 O31 2.802487 1_545
Na0 O9 2.838767 1_545
Na0 O2 2.845431 1_555
Na1 O50 2.416473 1_555
Na1 O48 2.512794 1_555
Na1 O69 2.539032 1_655
Na1 O70 2.584251 1_655
Na1 O12 2.704992 1_555
Na1 O33 2.845923 1_655
Na1 O5 2.939072 1_555
Na1 O7 2.985243 1_655
Na2 O71 2.426888 1_555
Na2 O49 2.503254 1_565
Na2 O70 2.516065 1_555
Na2 O48 2.556557 1_565
Na2 O13 2.753971 1_565
Na2 O34 2.794410 1_555
Na3 O44 2.456543 1_455
Na3 O43 2.476243 1_565
Na3 O65 2.487952 1_555
Na3 O29 2.578212 1_555
Na3 O63 2.600087 1_555
Na3 O8 2.913573 1_555
Na4 O64 2.408148 1_555
Na4 O42 2.456831 1_565
Na4 O63 2.463553 1_555
Na4 O44 2.632953 1_555
Na4 O6 2.653237 1_555
Na4 O27 2.826481 1_555
Na5 O45 2.411803 1_555
Na5 O62 2.508710 1_555
Na5 O47 2.535174 1_565
Na5 O61 2.590147 1_555
Na5 O11 2.750204 1_555
Na5 O18 2.808496 1_565
Na5 O26 2.866912 1_554
Na5 O16 2.949413 1_565
Na6 O60 2.466449 1_555
Na6 O47 2.538828 1_555
Na6 O61 2.548280 1_555
Na6 O46 2.556973 1_455
Na6 O10 2.663748 1_555
Na6 O20 2.798972 1_455
Na6 O15 2.858571 1_455
Na6 O25 2.886790 1_554
Na7 O40 2.358019 1_655
Na7 O55 2.360747 1_555
Na7 O54 2.549912 1_555
Na7 O41 2.615510 1_555
Na7 O19 2.643027 1_556
Na7 O4 2.803016 1_555
Na8 O59 2.425381 1_555
Na8 O36 2.426164 1_655
Na8 O37 2.509184 1_555
Na8 O58 2.541048 1_555
Na8 O22 2.688859 1_555
Na8 O1 2.699099 1_555
Na8 O27 2.851642 1_555
Na8 O32 3.011812 1_555
Na9 O43 2.498569 1_555
Na9 O42 2.561135 1_455
Na9 O44 2.645755 1_445
Na9 O38 2.648256 1_555
Na9 O36 2.699113 1_545
Na9 O37 2.777400 1_445
Na10 O39 2.470721 1_654
Na10 O41 2.558246 1_544
Na10 O40 2.562601 1_644
Na10 O47 2.690096 1_655
Na10 O46 2.695516 1_555
Na10 O45 2.784041 1_645
Na11 O49 2.540329 1_555
Na11 O48 2.550525 1_555
Na11 O56 2.602845 1_555
Na11 O50 2.640869 1_555
Na11 O55 2.700345 1_555
Na11 O54 2.714297 1_555
Na12 O59 2.458526 1_555
Na12 O52 2.559148 1_555
Na12 O57 2.590634 1_555
Na12 O58 2.683581 1_555
Na12 O51 2.715807 1_555
Na12 O53 2.744895 1_555
Na13 O60 2.479236 1_555
Na13 O67 2.536464 1_555
Na13 O68 2.633325 1_555
Na13 O62 2.727552 1_555
Na13 O61 2.733715 1_555
Na13 O66 2.807515 1_555
Na14 O69 2.501793 1_555
Na14 O64 2.569308 1_555
Na14 O71 2.583682 1_555
Na14 O65 2.715536 1_555
Na14 O70 2.749333 1_555
Na14 O63 2.816574 1_555
O0 S0 1.472826 1_555
O0 Sc0 2.179708 1_445
O1 P0 1.551530 1_555
O1 Sc0 2.051898 1_555
O2 P1 1.552251 1_555
O2 Sc0 2.044969 1_545
O3 P2 1.540697 1_555
O3 Y0 2.148397 1_555
O4 P3 1.542879 1_655
O4 Y0 2.256741 1_665
O5 P4 1.541409 1_555
O5 Y0 2.196222 1_655
O6 P4 1.546333 1_565
O6 Y1 2.232458 1_665
O7 P2 1.540956 1_555
O7 Y1 2.165300 1_555
O8 P3 1.551787 1_555
O8 Y1 2.225320 1_565
O9 P0 1.554251 1_555
O9 Sc1 2.024588 1_555
O10 P1 1.553918 1_455
O10 Sc1 2.098278 1_445
O11 S0 1.485248 1_565
O11 Sc1 2.230730 1_455
O12 P5 1.549820 1_555
O12 Y2 2.227471 1_555
O13 P6 1.549604 1_555
O13 Y2 2.234078 1_555
O14 P7 1.536694 1_555
O14 Y2 2.148262 1_555
O15 P8 1.556185 1_555
O15 Sc2 2.042227 1_555
O16 P9 1.554697 1_555
O16 Sc2 2.186206 1_555
O17 P10 1.543579 1_555
O17 Sc2 2.064393 1_555
O18 P10 1.543673 1_555
O18 Y3 2.195008 1_554
O19 P8 1.540607 1_555
O19 Y3 2.288490 1_554
O20 P9 1.548132 1_555
O20 Y3 2.165921 1_554
O21 P6 1.540713 1_555
O21 Sc3 2.053435 1_555
O22 P7 1.548046 1_555
O22 Sc3 2.142267 1_555
O23 P5 1.551393 1_555
O23 Sc3 2.013234 1_555
O24 S1 1.474465 1_555
O24 Sc4 2.160979 1_556
O25 P11 1.554155 1_555
O25 Sc4 2.057607 1_556
O26 P12 1.559500 1_555
O26 Sc4 2.071356 1_556
O27 P13 1.555305 1_555
O27 Y4 2.213205 1_555
O28 S2 1.484053 1_555
O28 Y4 2.264721 1_555
O29 P14 1.547972 1_555
O29 Y4 2.217128 1_555
O30 P14 1.550358 1_555
O30 Sc5 2.033887 1_555
O31 P13 1.553726 1_555
O31 Sc5 2.124814 1_555
O32 S2 1.487899 1_555
O32 Sc5 2.166112 1_555
O33 P11 1.553348 1_555
O33 Y5 2.204661 1_555
O34 P12 1.549416 1_555
O34 Y5 2.186070 1_555
O35 S1 1.475257 1_555
O35 Y5 2.233319 1_555
O36 P14 1.556114 1_555
O36 Sc0 2.131044 1_455
O37 P13 1.563493 1_555
O37 Sc0 2.077323 1_555
O38 S2 1.475331 1_555
O38 Sc0 2.219539 1_445
O39 P11 1.539412 1_555
O39 Y0 2.264600 1_555
O40 P12 1.558777 1_555
O40 Y0 2.328162 1_565
O41 S1 1.487914 1_555
O41 Y0 2.361052 1_665
O42 P5 1.545830 1_555
O42 Y1 2.297947 1_655
O43 P6 1.547199 1_555
O43 Y1 2.291732 1_555
O44 P7 1.565146 1_555
O44 Y1 2.314828 1_665
O45 P8 1.547685 1_455
O45 Sc1 2.148133 1_455
O46 P9 1.553405 1_555
O46 Sc1 2.073348 1_545
O47 P10 1.565893 1_555
O47 Sc1 2.154962 1_445
O48 P4 1.556833 1_555
O48 Y2 2.316687 1_555
O49 P2 1.539066 1_555
O49 Y2 2.241268 1_555
O50 P3 1.542862 1_655
O50 Y2 2.281362 1_555
O51 P0 1.545714 1_555
O51 Sc2 2.089343 1_555
O52 P1 1.568699 1_555
O52 Sc2 2.201905 1_555
O53 S0 1.492562 1_555
O53 Sc2 2.351956 1_555
O54 S1 1.481072 1_555
O54 Y3 2.324469 1_555
O55 P11 1.554586 1_655
O55 Y3 2.275440 1_555
O56 P12 1.536461 1_545
O56 Y3 2.231840 1_555
O57 P13 1.545158 1_545
O57 Sc3 2.131069 1_555
O58 S2 1.491370 1_555
O58 Sc3 2.308815 1_555
O59 P14 1.563805 1_655
O59 Sc3 2.205493 1_555
O60 P10 1.555152 1_555
O60 Sc4 2.181232 1_555
O61 P8 1.572344 1_455
O61 Sc4 2.134446 1_555
O62 P9 1.550104 1_565
O62 Sc4 2.155239 1_555
O63 P6 1.561495 1_565
O63 Y4 2.253774 1_555
O64 P7 1.544893 1_555
O64 Y4 2.276772 1_555
O65 P5 1.543082 1_455
O65 Y4 2.256948 1_555
O66 S0 1.506210 1_565
O66 Sc5 2.217743 1_555
O67 P0 1.564139 1_555
O67 Sc5 2.216271 1_555
O68 P1 1.549101 1_455
O68 Sc5 2.106513 1_555
O69 P2 1.542626 1_555
O69 Y5 2.240238 1_555
O70 P3 1.563103 1_555
O70 Y5 2.269461 1_555
O71 P4 1.545370 1_565
O71 Y5 2.260065 1_555
