# generated using pymatgen
data_NaMgTi2BiO6
_symmetry_space_group_name_H-M   'P 1'
_cell_length_a   6.73314582
_cell_length_b   6.73314455
_cell_length_c   6.73314536
_cell_angle_alpha   48.06562018
_cell_angle_beta   48.06562212
_cell_angle_gamma   48.06562186
_symmetry_Int_Tables_number   1
_chemical_formula_structural   NaMgTi2BiO6
_chemical_formula_sum   'Na1 Mg1 Ti2 Bi1 O6'
_cell_volume   154.78011197
_cell_formula_units_Z   1
loop_
 _symmetry_equiv_pos_site_id
 _symmetry_equiv_pos_as_xyz
  1  'x, y, z'
loop_
 _atom_site_type_symbol
 _atom_site_label
 _atom_site_symmetry_multiplicity
 _atom_site_fract_x
 _atom_site_fract_y
 _atom_site_fract_z
 _atom_site_occupancy
  Na  Na0  1  0.17966327  0.17966327  0.17966327  1
  Mg  Mg0  1  0.34302985  0.34302985  0.34302985  1
  Ti  Ti0  1  0.01197367  0.01197367  0.01197367  1
  Ti  Ti1  1  0.60441922  0.60441922  0.60441922  1
  Bi  Bi0  1  0.76051932  0.76051932  0.76051932  1
  O  O0  1  0.14634979  0.30997117  0.75646971  1
  O  O1  1  0.30997117  0.75646971  0.14634979  1
  O  O2  1  0.75646971  0.14634979  0.30997117  1
  O  O3  1  0.27005694  0.94121984  0.61117721  1
  O  O4  1  0.61117721  0.27005694  0.94121984  1
  O  O5  1  0.94121984  0.61117721  0.27005694  1
loop_
_geom_bond_atom_site_label_1
_geom_bond_atom_site_label_2
_geom_bond_distance
_geom_bond_site_symmetry_2
Na0 O1 2.487789 1_545
Na0 O0 2.487790 1_554
Na0 O2 2.487790 1_455
Na0 O5 2.492500 1_455
Na0 O3 2.492501 1_545
Na0 O4 2.492501 1_554
Mg0 O1 2.047233 1_555
Mg0 O0 2.047233 1_555
Mg0 O2 2.047233 1_555
Mg0 O3 2.209757 1_545
Mg0 O4 2.209757 1_554
Mg0 O5 2.209757 1_455
Bi0 O0 2.331308 1_655
Bi0 O2 2.331308 1_565
Bi0 O1 2.331309 1_556
O0 Ti0 1.880570 1_556
O1 Ti0 1.880570 1_565
O2 Ti0 1.880570 1_655
O3 Ti1 1.841316 1_555
O3 Ti0 2.207555 1_566
O4 Ti1 1.841316 1_555
O4 Ti0 2.207556 1_656
O5 Ti1 1.841317 1_555
O5 Ti0 2.207555 1_665
