# generated using pymatgen
data_Na9Nb5Zn(SiO4)9
_symmetry_space_group_name_H-M   'P 1'
_cell_length_a   15.80921126
_cell_length_b   27.27015434
_cell_length_c   9.07561348
_cell_angle_alpha   89.84484434
_cell_angle_beta   124.98947876
_cell_angle_gamma   90.11878465
_symmetry_Int_Tables_number   1
_chemical_formula_structural   Na9Nb5Zn(SiO4)9
_chemical_formula_sum   'Na36 Nb20 Zn4 Si36 O144'
_cell_volume   3205.47548952
_cell_formula_units_Z   4
loop_
 _symmetry_equiv_pos_site_id
 _symmetry_equiv_pos_as_xyz
  1  'x, y, z'
loop_
 _atom_site_type_symbol
 _atom_site_label
 _atom_site_symmetry_multiplicity
 _atom_site_fract_x
 _atom_site_fract_y
 _atom_site_fract_z
 _atom_site_occupancy
  Na  Na0  1  0.25679241  0.25413248  0.01880610  1
  Na  Na1  1  0.25982183  0.58881654  0.02193056  1
  Na  Na2  1  0.24799435  0.91512172  0.99807979  1
  Na  Na3  1  0.74886492  0.25567080  0.50371718  1
  Na  Na4  1  0.74300174  0.57717354  0.49717652  1
  Na  Na5  1  0.75093422  0.91469909  0.50642765  1
  Na  Na6  1  0.75982071  0.08881647  0.02192771  1
  Na  Na7  1  0.74799428  0.41512174  0.99807968  1
  Na  Na8  1  0.75679233  0.75413236  0.01880635  1
  Na  Na9  1  0.24300194  0.07717356  0.49717678  1
  Na  Na10  1  0.25093422  0.41469906  0.50642773  1
  Na  Na11  1  0.24886487  0.75567077  0.50371699  1
  Na  Na12  1  0.50259379  0.03693355  0.75408137  1
  Na  Na13  1  0.48853769  0.36242540  0.71966307  1
  Na  Na14  1  0.48935972  0.69717169  0.72687225  1
  Na  Na15  1  0.49890448  0.28946754  0.26902692  1
  Na  Na16  1  0.49918275  0.62475967  0.27450117  1
  Na  Na17  1  0.49943879  0.96497633  0.25382605  1
  Na  Na18  1  0.98935937  0.19717195  0.72687140  1
  Na  Na19  1  0.00259376  0.53693353  0.75408138  1
  Na  Na20  1  0.98853768  0.86242543  0.71966314  1
  Na  Na21  1  0.99918289  0.12475954  0.27450067  1
  Na  Na22  1  0.99943880  0.46497634  0.25382605  1
  Na  Na23  1  0.99890478  0.78946750  0.26902736  1
  Na  Na24  1  0.80759062  0.65363016  0.23835805  1
  Na  Na25  1  0.81616089  0.98565401  0.24621017  1
  Na  Na26  1  0.20541603  0.30677097  0.29168048  1
  Na  Na27  1  0.20865637  0.64385159  0.28564228  1
  Na  Na28  1  0.81469701  0.02578062  0.68107794  1
  Na  Na29  1  0.81204033  0.69201393  0.67854268  1
  Na  Na30  1  0.30759223  0.15363108  0.23836091  1
  Na  Na31  1  0.31616040  0.48565414  0.24621008  1
  Na  Na32  1  0.70865626  0.14385161  0.28564227  1
  Na  Na33  1  0.70541605  0.80677099  0.29168048  1
  Na  Na34  1  0.31204159  0.19201327  0.67854368  1
  Na  Na35  1  0.31469698  0.52578066  0.68107785  1
  Nb  Nb0  1  0.10803890  0.25040417  0.57615397  1
  Nb  Nb1  1  0.10866732  0.58459992  0.57433708  1
  Nb  Nb2  1  0.10877131  0.91731030  0.57193245  1
  Nb  Nb3  1  0.88912565  0.25187029  0.93186261  1
  Nb  Nb4  1  0.89311679  0.58205834  0.93269979  1
  Nb  Nb5  1  0.89665905  0.91745056  0.93579021  1
  Nb  Nb6  1  0.89063021  0.41525476  0.43005152  1
  Nb  Nb7  1  0.10248167  0.08125784  0.05881770  1
  Nb  Nb8  1  0.10624184  0.41536086  0.06759193  1
  Nb  Nb9  1  0.10766680  0.75064280  0.06133718  1
  Nb  Nb10  1  0.60866713  0.08459981  0.57433661  1
  Nb  Nb11  1  0.60877149  0.41731032  0.57193277  1
  Nb  Nb12  1  0.60803900  0.75040411  0.57615498  1
  Nb  Nb13  1  0.39311679  0.08205823  0.93269984  1
  Nb  Nb14  1  0.39665887  0.41745051  0.93579002  1
  Nb  Nb15  1  0.38912573  0.75187017  0.93186256  1
  Nb  Nb16  1  0.39062976  0.91525477  0.43005126  1
  Nb  Nb17  1  0.60766596  0.25064294  0.06133541  1
  Nb  Nb18  1  0.60248193  0.58125805  0.05881816  1
  Nb  Nb19  1  0.60624183  0.91536091  0.06759170  1
  Zn  Zn0  1  0.90315723  0.08230940  0.44544578  1
  Zn  Zn1  1  0.90192548  0.74890885  0.44460066  1
  Zn  Zn2  1  0.40192544  0.24890886  0.44460063  1
  Zn  Zn3  1  0.40315727  0.58230942  0.44544575  1
  Si  Si0  1  0.99984556  0.31947486  0.75046844  1
  Si  Si1  1  0.00027197  0.65323596  0.74429776  1
  Si  Si2  1  0.99794666  0.98553530  0.73544958  1
  Si  Si3  1  0.00330832  0.01387283  0.24997415  1
  Si  Si4  1  0.00112286  0.34639416  0.25209888  1
  Si  Si5  1  0.00256541  0.67981629  0.24803968  1
  Si  Si6  1  0.50027191  0.15323595  0.74429769  1
  Si  Si7  1  0.49794660  0.48553530  0.73544954  1
  Si  Si8  1  0.49984561  0.81947487  0.75046851  1
  Si  Si9  1  0.50256542  0.17981629  0.24803967  1
  Si  Si10  1  0.50330831  0.51387285  0.24997403  1
  Si  Si11  1  0.50112279  0.84639415  0.25209891  1
  Si  Si12  1  0.35443152  0.29797701  0.75297602  1
  Si  Si13  1  0.35215750  0.63195526  0.74811991  1
  Si  Si14  1  0.35517563  0.96355410  0.75337034  1
  Si  Si15  1  0.64209918  0.29808605  0.73300700  1
  Si  Si16  1  0.64508665  0.63057123  0.74156539  1
  Si  Si17  1  0.64539917  0.96329912  0.74358910  1
  Si  Si18  1  0.64367965  0.03361222  0.24540431  1
  Si  Si19  1  0.64293779  0.36818035  0.24712134  1
  Si  Si20  1  0.63959751  0.70080653  0.24111444  1
  Si  Si21  1  0.35468443  0.03589346  0.25683996  1
  Si  Si22  1  0.35637462  0.36985341  0.25724495  1
  Si  Si23  1  0.35521997  0.70448643  0.25750267  1
  Si  Si24  1  0.85215748  0.13195519  0.74811978  1
  Si  Si25  1  0.85517557  0.46355408  0.75337029  1
  Si  Si26  1  0.85443137  0.79797700  0.75297591  1
  Si  Si27  1  0.14508654  0.13057119  0.74156542  1
  Si  Si28  1  0.14539913  0.46329911  0.74358915  1
  Si  Si29  1  0.14209924  0.79808606  0.73300684  1
  Si  Si30  1  0.13959754  0.20080654  0.24111451  1
  Si  Si31  1  0.14367961  0.53361218  0.24540419  1
  Si  Si32  1  0.14293779  0.86818037  0.24712129  1
  Si  Si33  1  0.85521986  0.20448632  0.25750266  1
  Si  Si34  1  0.85468431  0.53589344  0.25683979  1
  Si  Si35  1  0.85637466  0.86985345  0.25724482  1
  O  O0  1  0.15331119  0.19172377  0.74564948  1
  O  O1  1  0.14810840  0.52362052  0.73892596  1
  O  O2  1  0.14937590  0.85864734  0.74458787  1
  O  O3  1  0.84527205  0.19112196  0.76995326  1
  O  O4  1  0.84830392  0.52360152  0.75368164  1
  O  O5  1  0.84791115  0.85738725  0.77480919  1
  O  O6  1  0.84366611  0.14598668  0.24751927  1
  O  O7  1  0.84987503  0.47579905  0.26145500  1
  O  O8  1  0.84150346  0.81165195  0.24261163  1
  O  O9  1  0.14478436  0.14024569  0.23883460  1
  O  O10  1  0.15127366  0.47269367  0.24838993  1
  O  O11  1  0.14610534  0.80818089  0.23868492  1
  O  O12  1  0.64810842  0.02362047  0.73892590  1
  O  O13  1  0.64937584  0.35864735  0.74458795  1
  O  O14  1  0.65331111  0.69172386  0.74564934  1
  O  O15  1  0.34830370  0.02360146  0.75368162  1
  O  O16  1  0.34791126  0.35738723  0.77480917  1
  O  O17  1  0.34527211  0.69112183  0.76995334  1
  O  O18  1  0.34150338  0.31165196  0.24261160  1
  O  O19  1  0.34366603  0.64598665  0.24751893  1
  O  O20  1  0.34987528  0.97579922  0.26145515  1
  O  O21  1  0.64610547  0.30818097  0.23868506  1
  O  O22  1  0.64478441  0.64024560  0.23883445  1
  O  O23  1  0.65127363  0.97269376  0.24838999  1
  O  O24  1  0.41759452  0.18268993  0.56353892  1
  O  O25  1  0.41639945  0.51509456  0.55361915  1
  O  O26  1  0.43624938  0.85672859  0.57724868  1
  O  O27  1  0.56775829  0.18935104  0.92250744  1
  O  O28  1  0.56205735  0.52421577  0.90955983  1
  O  O29  1  0.56796834  0.85490004  0.93090199  1
  O  O30  1  0.56836511  0.14175779  0.42412568  1
  O  O31  1  0.56562693  0.47648966  0.42555421  1
  O  O32  1  0.56944128  0.80939083  0.42597320  1
  O  O33  1  0.44479902  0.14077020  0.07770056  1
  O  O34  1  0.44362487  0.47793710  0.07146053  1
  O  O35  1  0.43692889  0.81303194  0.07164554  1
  O  O36  1  0.91639937  0.01509465  0.55361901  1
  O  O37  1  0.93624918  0.35672856  0.57724856  1
  O  O38  1  0.91759448  0.68269004  0.56353826  1
  O  O39  1  0.06205744  0.02421576  0.90955989  1
  O  O40  1  0.06796851  0.35490009  0.93090225  1
  O  O41  1  0.06775845  0.68935116  0.92250764  1
  O  O42  1  0.06944142  0.30939089  0.42597346  1
  O  O43  1  0.06836538  0.64175776  0.42412612  1
  O  O44  1  0.06562692  0.97648966  0.42555412  1
  O  O45  1  0.93692869  0.31303190  0.07164522  1
  O  O46  1  0.94479879  0.64077006  0.07770005  1
  O  O47  1  0.94362467  0.97793709  0.07146028  1
  O  O48  1  0.25971018  0.26953748  0.74570550  1
  O  O49  1  0.25956951  0.60233268  0.74603516  1
  O  O50  1  0.25815932  0.93792323  0.73927941  1
  O  O51  1  0.74667465  0.27632570  0.76097658  1
  O  O52  1  0.75121732  0.61074866  0.76476321  1
  O  O53  1  0.74607578  0.94322017  0.75437059  1
  O  O54  1  0.73098278  0.05915620  0.23413905  1
  O  O55  1  0.74423417  0.39302112  0.26796715  1
  O  O56  1  0.73125823  0.72565326  0.23912666  1
  O  O57  1  0.25904472  0.06438215  0.24070579  1
  O  O58  1  0.25801933  0.39679423  0.24568688  1
  O  O59  1  0.25692352  0.73013460  0.24592839  1
  O  O60  1  0.75956930  0.10233261  0.74603508  1
  O  O61  1  0.75815930  0.43792319  0.73927943  1
  O  O62  1  0.75971044  0.76953753  0.74570539  1
  O  O63  1  0.25121720  0.11074873  0.76476325  1
  O  O64  1  0.24607591  0.44322020  0.75437072  1
  O  O65  1  0.24667425  0.77632573  0.76097633  1
  O  O66  1  0.23125840  0.22565332  0.23912648  1
  O  O67  1  0.23098304  0.55915624  0.23413903  1
  O  O68  1  0.24423424  0.89302113  0.26796714  1
  O  O69  1  0.75692333  0.23013451  0.24592822  1
  O  O70  1  0.75904438  0.56438217  0.24070546  1
  O  O71  1  0.75801932  0.89679424  0.24568698  1
  O  O72  1  0.35258854  0.29000684  0.57558153  1
  O  O73  1  0.34932264  0.62214970  0.57117848  1
  O  O74  1  0.36298298  0.95079962  0.58420750  1
  O  O75  1  0.63483444  0.28325203  0.90575673  1
  O  O76  1  0.64420747  0.61842990  0.92093158  1
  O  O77  1  0.64433197  0.95035651  0.92259801  1
  O  O78  1  0.64585231  0.04665007  0.42674200  1
  O  O79  1  0.63699925  0.38129569  0.41764344  1
  O  O80  1  0.64381832  0.71436587  0.42537645  1
  O  O81  1  0.35711779  0.04954655  0.08216078  1
  O  O82  1  0.35960896  0.39131724  0.08994084  1
  O  O83  1  0.35716784  0.72399282  0.08774994  1
  O  O84  1  0.84932269  0.12214969  0.57117828  1
  O  O85  1  0.86298302  0.45079965  0.58420770  1
  O  O86  1  0.85258845  0.79000675  0.57558168  1
  O  O87  1  0.14420735  0.11842993  0.92093123  1
  O  O88  1  0.14433180  0.45035655  0.92259808  1
  O  O89  1  0.13483439  0.78325199  0.90575679  1
  O  O90  1  0.14381822  0.21436591  0.42537651  1
  O  O91  1  0.14585237  0.54665006  0.42674240  1
  O  O92  1  0.13699940  0.88129567  0.41764357  1
  O  O93  1  0.85716793  0.22399284  0.08774973  1
  O  O94  1  0.85711767  0.54954655  0.08216032  1
  O  O95  1  0.85960895  0.89131721  0.08994089  1
  O  O96  1  0.46300359  0.27520000  0.93269178  1
  O  O97  1  0.46225655  0.60876063  0.92553607  1
  O  O98  1  0.46478475  0.94342039  0.93702922  1
  O  O99  1  0.54126017  0.27879198  0.54871408  1
  O  O100  1  0.54532048  0.61108822  0.55872100  1
  O  O101  1  0.53737705  0.94280775  0.56528136  1
  O  O102  1  0.52831329  0.04799272  0.06870963  1
  O  O103  1  0.53692025  0.38823500  0.06312690  1
  O  O104  1  0.52842868  0.72087181  0.06804921  1
  O  O105  1  0.46413706  0.05577222  0.43790014  1
  O  O106  1  0.46230178  0.39074495  0.44218878  1
  O  O107  1  0.46551645  0.72333833  0.44275961  1
  O  O108  1  0.96225675  0.10876055  0.92553636  1
  O  O109  1  0.96478471  0.44342042  0.93702918  1
  O  O110  1  0.96300368  0.77519997  0.93269185  1
  O  O111  1  0.04532063  0.11108827  0.55872133  1
  O  O112  1  0.03737676  0.44280772  0.56528118  1
  O  O113  1  0.04126039  0.77879197  0.54871444  1
  O  O114  1  0.02842841  0.22087183  0.06804900  1
  O  O115  1  0.02831293  0.54799275  0.06870896  1
  O  O116  1  0.03692038  0.88823495  0.06312707  1
  O  O117  1  0.96551649  0.22333825  0.44275968  1
  O  O118  1  0.96413739  0.55577232  0.43790061  1
  O  O119  1  0.96230172  0.89074499  0.44218852  1
  O  O120  1  0.08222794  0.28495448  0.74266815  1
  O  O121  1  0.08359448  0.61707848  0.74283464  1
  O  O122  1  0.08469966  0.95030772  0.74558431  1
  O  O123  1  0.92046019  0.28281091  0.75580462  1
  O  O124  1  0.92968155  0.61413896  0.77313454  1
  O  O125  1  0.92265115  0.94878671  0.76061687  1
  O  O126  1  0.91745430  0.04773238  0.24161744  1
  O  O127  1  0.92350274  0.38394543  0.26134502  1
  O  O128  1  0.91627677  0.71265966  0.24067291  1
  O  O129  1  0.08764434  0.04759511  0.24309428  1
  O  O130  1  0.08747459  0.37994269  0.24856612  1
  O  O131  1  0.08933189  0.71219679  0.24544037  1
  O  O132  1  0.58359445  0.11707848  0.74283467  1
  O  O133  1  0.58469953  0.45030770  0.74558406  1
  O  O134  1  0.58222806  0.78495449  0.74266811  1
  O  O135  1  0.42968178  0.11413909  0.77313446  1
  O  O136  1  0.42265113  0.44878672  0.76061686  1
  O  O137  1  0.42046035  0.78281096  0.75580456  1
  O  O138  1  0.41627681  0.21265962  0.24067267  1
  O  O139  1  0.41745434  0.54773232  0.24161749  1
  O  O140  1  0.42350285  0.88394540  0.26134496  1
  O  O141  1  0.58933188  0.21219677  0.24544050  1
  O  O142  1  0.58764445  0.54759520  0.24309407  1
  O  O143  1  0.58747445  0.87994268  0.24856597  1
loop_
_geom_bond_atom_site_label_1
_geom_bond_atom_site_label_2
_geom_bond_distance
_geom_bond_site_symmetry_2
Na0 O18 2.295312 1_555
Na0 O66 2.383330 1_555
Na0 O138 2.422337 1_555
Na0 O48 2.539143 1_554
Na0 O120 2.582547 1_554
Na0 O0 2.660572 1_554
Na1 O19 2.296875 1_555
Na1 O67 2.359725 1_555
Na1 O139 2.396235 1_555
Na1 O49 2.527655 1_554
Na1 O121 2.583974 1_554
Na1 O1 2.772435 1_554
Na2 O2 2.447643 1_555
Na2 O122 2.459714 1_555
Na2 O50 2.520664 1_555
Na2 O68 2.554434 1_556
Na2 O140 2.554603 1_556
Na2 O20 2.576966 1_556
Na3 O51 2.422729 1_555
Na3 O21 2.446397 1_555
Na3 O123 2.454425 1_555
Na3 O69 2.515132 1_555
Na3 O141 2.546280 1_555
Na3 O3 2.650350 1_555
Na4 O142 2.346678 1_555
Na4 O4 2.423239 1_555
Na4 O70 2.507123 1_555
Na4 O52 2.530351 1_555
Na4 O22 2.584684 1_555
Na4 O124 2.742821 1_555
Na5 O53 2.425352 1_555
Na5 O143 2.473704 1_555
Na5 O71 2.482172 1_555
Na5 O23 2.495310 1_555
Na5 O125 2.524776 1_555
Na5 O5 2.536250 1_555
Na6 O6 2.296895 1_555
Na6 O54 2.359740 1_555
Na6 O126 2.396249 1_555
Na6 O60 2.527638 1_554
Na6 O132 2.583956 1_554
Na6 O12 2.772418 1_554
Na7 O13 2.447643 1_555
Na7 O133 2.459715 1_555
Na7 O61 2.520662 1_555
Na7 O55 2.554435 1_556
Na7 O127 2.554603 1_556
Na7 O7 2.576962 1_556
Na8 O8 2.295314 1_555
Na8 O56 2.383330 1_555
Na8 O128 2.422335 1_555
Na8 O62 2.539150 1_554
Na8 O134 2.582548 1_554
Na8 O14 2.660571 1_554
Na9 O129 2.346681 1_555
Na9 O15 2.423238 1_555
Na9 O57 2.507124 1_555
Na9 O63 2.530352 1_555
Na9 O9 2.584686 1_555
Na9 O135 2.742822 1_555
Na10 O64 2.425351 1_555
Na10 O130 2.473702 1_555
Na10 O58 2.482174 1_555
Na10 O10 2.495309 1_555
Na10 O136 2.524776 1_555
Na10 O16 2.536249 1_555
Na11 O65 2.422732 1_555
Na11 O11 2.446396 1_555
Na11 O137 2.454428 1_555
Na11 O59 2.515130 1_555
Na11 O131 2.546279 1_555
Na11 O17 2.650354 1_555
Na12 O12 2.410293 1_555
Na12 O135 2.456001 1_555
Na12 O15 2.463350 1_555
Na12 O132 2.562035 1_555
Na12 O105 2.619221 1_555
Na12 O102 2.661289 1_556
Na13 O13 2.422507 1_555
Na13 O106 2.429598 1_555
Na13 O16 2.546838 1_555
Na13 O72 2.646225 1_555
Na13 O136 2.688578 1_555
Na13 O133 2.772687 1_555
Na13 O103 2.841174 1_556
Na13 O75 2.895578 1_555
Na14 O107 2.485233 1_555
Na14 O14 2.502832 1_555
Na14 O17 2.527546 1_555
Na14 O137 2.655439 1_555
Na14 O73 2.737271 1_555
Na14 O134 2.766318 1_555
Na14 O104 2.864032 1_556
Na14 O76 2.960110 1_555
Na15 O99 2.241377 1_555
Na15 O138 2.401217 1_555
Na15 O18 2.436562 1_555
Na15 O21 2.545789 1_555
Na15 O141 2.625959 1_555
Na15 O96 2.794564 1_554
Na16 O100 2.272188 1_555
Na16 O139 2.391799 1_555
Na16 O19 2.398834 1_555
Na16 O22 2.536015 1_555
Na16 O142 2.633955 1_555
Na16 O97 2.906468 1_554
Na17 O20 2.423517 1_555
Na17 O23 2.437675 1_555
Na17 O140 2.531965 1_555
Na17 O101 2.600590 1_555
Na17 O98 2.667095 1_554
Na17 O143 2.721526 1_555
Na17 O78 2.934762 1_565
Na17 O81 2.964848 1_565
Na17 O102 3.001780 1_565
Na18 O117 2.485225 1_555
Na18 O0 2.502835 1_655
Na18 O3 2.527546 1_555
Na18 O123 2.655433 1_555
Na18 O84 2.737273 1_555
Na18 O120 2.766311 1_655
Na18 O114 2.864036 1_656
Na18 O87 2.960117 1_655
Na19 O1 2.410293 1_555
Na19 O124 2.456000 1_455
Na19 O4 2.463346 1_455
Na19 O121 2.562036 1_555
Na19 O118 2.619220 1_455
Na19 O115 2.661286 1_556
Na20 O2 2.422509 1_655
Na20 O119 2.429600 1_555
Na20 O5 2.546839 1_555
Na20 O86 2.646228 1_555
Na20 O125 2.688577 1_555
Na20 O122 2.772687 1_655
Na20 O116 2.841174 1_656
Na20 O89 2.895579 1_655
Na21 O111 2.272194 1_655
Na21 O126 2.391797 1_555
Na21 O6 2.398839 1_555
Na21 O9 2.536009 1_655
Na21 O129 2.633949 1_655
Na21 O108 2.906462 1_554
Na22 O7 2.423519 1_555
Na22 O10 2.437675 1_655
Na22 O127 2.531966 1_555
Na22 O112 2.600591 1_655
Na22 O109 2.667095 1_554
Na22 O130 2.721526 1_655
Na22 O91 2.934762 1_655
Na22 O94 2.964849 1_555
Na22 O115 3.001782 1_655
Na23 O113 2.241377 1_655
Na23 O128 2.401217 1_555
Na23 O8 2.436563 1_555
Na23 O11 2.545785 1_655
Na23 O131 2.625957 1_655
Na23 O110 2.794566 1_554
Na24 O56 2.309432 1_555
Na24 O128 2.343371 1_555
Na24 O38 2.546155 1_555
Na24 O70 2.554137 1_555
Na24 O22 2.601296 1_555
Na24 O76 2.713526 1_554
Na25 O126 2.344550 1_565
Na25 O54 2.384078 1_565
Na25 O36 2.424030 1_565
Na25 O71 2.588960 1_555
Na25 O23 2.641149 1_555
Na25 O77 2.790385 1_554
Na26 O72 2.320342 1_555
Na26 O66 2.349614 1_555
Na26 O18 2.437620 1_555
Na26 O130 2.604958 1_555
Na26 O58 2.697534 1_555
Na27 O73 2.323593 1_555
Na27 O19 2.350544 1_555
Na27 O67 2.424050 1_555
Na27 O131 2.527243 1_555
Na27 O59 2.559675 1_555
Na28 O78 2.389569 1_555
Na28 O60 2.463443 1_555
Na28 O36 2.478901 1_555
Na28 O125 2.536932 1_545
Na28 O53 2.738186 1_545
Na29 O80 2.390549 1_555
Na29 O38 2.437082 1_555
Na29 O62 2.473429 1_555
Na29 O124 2.623216 1_555
Na29 O52 2.700516 1_555
Na29 O14 2.901830 1_555
Na30 O66 2.309416 1_555
Na30 O138 2.343347 1_555
Na30 O24 2.546130 1_555
Na30 O57 2.554163 1_555
Na30 O9 2.601311 1_555
Na30 O87 2.713559 1_554
Na31 O139 2.344551 1_555
Na31 O67 2.384070 1_555
Na31 O25 2.424030 1_555
Na31 O58 2.588961 1_555
Na31 O10 2.641142 1_555
Na31 O88 2.790383 1_554
Na32 O84 2.323593 1_555
Na32 O6 2.350545 1_555
Na32 O54 2.424051 1_555
Na32 O141 2.527242 1_555
Na32 O69 2.559672 1_555
Na33 O86 2.320343 1_555
Na33 O56 2.349615 1_555
Na33 O8 2.437621 1_555
Na33 O143 2.604959 1_555
Na33 O71 2.697534 1_555
Na34 O90 2.390569 1_555
Na34 O24 2.437065 1_555
Na34 O48 2.473451 1_555
Na34 O135 2.623191 1_555
Na34 O63 2.700507 1_555
Na34 O0 2.901843 1_555
Na35 O91 2.389566 1_555
Na35 O49 2.463443 1_555
Na35 O25 2.478901 1_555
Na35 O136 2.536933 1_555
Na35 O64 2.738186 1_555
Nb0 O42 1.963657 1_555
Nb0 O117 1.989166 1_455
Nb0 O120 2.013586 1_555
Nb0 O90 2.013847 1_555
Nb0 O48 2.038916 1_555
Nb0 O0 2.041574 1_555
Nb1 O43 1.921052 1_555
Nb1 O121 1.996007 1_555
Nb1 O49 2.022189 1_555
Nb1 O91 2.030768 1_555
Nb1 O118 2.031037 1_455
Nb1 O1 2.075580 1_555
Nb2 O44 1.946351 1_555
Nb2 O92 1.962240 1_555
Nb2 O50 2.021333 1_555
Nb2 O122 2.033528 1_555
Nb2 O119 2.035646 1_455
Nb2 O2 2.064874 1_555
Nb3 O93 1.909738 1_556
Nb3 O45 1.966994 1_556
Nb3 O51 1.979079 1_555
Nb3 O114 1.993136 1_656
Nb3 O3 2.055316 1_555
Nb3 O123 2.099791 1_555
Nb4 O46 1.932788 1_556
Nb4 O94 1.956180 1_556
Nb4 O115 1.982729 1_656
Nb4 O52 2.011763 1_555
Nb4 O124 2.036601 1_555
Nb4 O4 2.090953 1_555
Nb5 O95 1.934129 1_556
Nb5 O47 1.935351 1_556
Nb5 O116 1.987635 1_656
Nb5 O5 2.031679 1_555
Nb5 O125 2.041315 1_555
Nb5 O53 2.092241 1_555
Nb6 O37 1.933993 1_555
Nb6 O85 1.948945 1_555
Nb6 O55 1.995621 1_555
Nb6 O112 2.045813 1_655
Nb6 O127 2.065153 1_555
Nb6 O7 2.083854 1_555
Nb7 O39 1.917698 1_554
Nb7 O108 1.966403 1_454
Nb7 O87 1.991428 1_554
Nb7 O129 2.033573 1_555
Nb7 O57 2.092327 1_555
Nb7 O9 2.112052 1_555
Nb8 O40 1.941548 1_554
Nb8 O88 1.975999 1_554
Nb8 O109 1.988436 1_454
Nb8 O58 2.044283 1_555
Nb8 O130 2.065829 1_555
Nb8 O10 2.076839 1_555
Nb9 O89 1.912087 1_554
Nb9 O41 1.968404 1_554
Nb9 O110 1.995458 1_454
Nb9 O59 2.038145 1_555
Nb9 O11 2.076026 1_555
Nb9 O131 2.125946 1_555
Nb10 O30 1.921055 1_555
Nb10 O132 1.996011 1_555
Nb10 O60 2.022189 1_555
Nb10 O78 2.030767 1_555
Nb10 O105 2.031039 1_555
Nb10 O12 2.075580 1_555
Nb11 O31 1.946352 1_555
Nb11 O79 1.962240 1_555
Nb11 O61 2.021330 1_555
Nb11 O133 2.033526 1_555
Nb11 O106 2.035648 1_555
Nb11 O13 2.064874 1_555
Nb12 O32 1.963663 1_555
Nb12 O107 1.989166 1_555
Nb12 O134 2.013579 1_555
Nb12 O80 2.013855 1_555
Nb12 O62 2.038918 1_555
Nb12 O14 2.041565 1_555
Nb13 O33 1.932795 1_556
Nb13 O81 1.956181 1_556
Nb13 O102 1.982732 1_556
Nb13 O63 2.011766 1_555
Nb13 O135 2.036607 1_555
Nb13 O15 2.090952 1_555
Nb14 O82 1.934128 1_556
Nb14 O34 1.935355 1_556
Nb14 O103 1.987634 1_556
Nb14 O16 2.031678 1_555
Nb14 O136 2.041316 1_555
Nb14 O64 2.092238 1_555
Nb15 O83 1.909741 1_556
Nb15 O35 1.966999 1_556
Nb15 O65 1.979086 1_555
Nb15 O104 1.993137 1_556
Nb15 O17 2.055315 1_555
Nb15 O137 2.099794 1_555
Nb16 O26 1.933994 1_555
Nb16 O74 1.948941 1_555
Nb16 O68 1.995615 1_555
Nb16 O101 2.045823 1_555
Nb16 O140 2.065157 1_555
Nb16 O20 2.083857 1_555
Nb17 O75 1.912081 1_554
Nb17 O27 1.968404 1_554
Nb17 O96 1.995449 1_554
Nb17 O69 2.038157 1_555
Nb17 O21 2.076033 1_555
Nb17 O141 2.125956 1_555
Nb18 O28 1.917704 1_554
Nb18 O97 1.966407 1_554
Nb18 O76 1.991424 1_554
Nb18 O142 2.033570 1_555
Nb18 O70 2.092320 1_555
Nb18 O22 2.112043 1_555
Nb19 O29 1.941551 1_554
Nb19 O77 1.975998 1_554
Nb19 O98 1.988435 1_554
Nb19 O71 2.044284 1_555
Nb19 O143 2.065832 1_555
Nb19 O23 2.076841 1_555
O0 Si27 1.671291 1_555
O1 Si28 1.646504 1_555
O2 Si29 1.654711 1_555
O3 Si24 1.637575 1_555
O4 Si25 1.641445 1_555
O5 Si26 1.643337 1_555
O6 Si33 1.602227 1_555
O6 Zn0 2.275742 1_555
O7 Si34 1.641923 1_555
O8 Si35 1.598683 1_555
O8 Zn1 2.276422 1_555
O9 Si30 1.654482 1_555
O10 Si31 1.664865 1_555
O11 Si32 1.640402 1_555
O12 Si17 1.646502 1_545
O13 Si15 1.654712 1_555
O14 Si16 1.671292 1_555
O15 Si14 1.641443 1_545
O16 Si12 1.643336 1_555
O17 Si13 1.637569 1_555
O18 Si22 1.598681 1_555
O18 Zn2 2.276422 1_555
O19 Si23 1.602231 1_555
O19 Zn3 2.275742 1_555
O20 Si21 1.641918 1_565
O21 Si19 1.640400 1_555
O22 Si20 1.654484 1_555
O23 Si18 1.664864 1_565
O24 Si6 1.607139 1_555
O24 Zn2 2.042572 1_555
O25 Si7 1.610049 1_555
O25 Zn3 2.030645 1_555
O26 Si8 1.642330 1_555
O27 Si6 1.658132 1_555
O28 Si7 1.674713 1_555
O29 Si8 1.660226 1_555
O30 Si9 1.673952 1_555
O31 Si10 1.656512 1_555
O32 Si11 1.648082 1_555
O33 Si9 1.656335 1_555
O34 Si10 1.651374 1_555
O35 Si11 1.624164 1_555
O36 Si2 1.610051 1_545
O36 Zn0 2.030642 1_555
O37 Si0 1.642330 1_555
O38 Si1 1.607145 1_655
O38 Zn1 2.042567 1_555
O39 Si2 1.674712 1_445
O40 Si0 1.660229 1_455
O41 Si1 1.658134 1_555
O42 Si4 1.648083 1_555
O43 Si5 1.673955 1_555
O44 Si3 1.656510 1_565
O45 Si4 1.624167 1_655
O46 Si5 1.656341 1_655
O47 Si3 1.651376 1_665
O48 Si12 1.652389 1_555
O49 Si13 1.660988 1_555
O50 Si14 1.621229 1_555
O51 Si15 1.634559 1_555
O52 Si16 1.658227 1_555
O53 Si17 1.633204 1_555
O54 Si18 1.599401 1_555
O54 Zn0 2.344833 1_555
O55 Si19 1.645584 1_555
O56 Si20 1.607831 1_555
O56 Zn1 2.321310 1_555
O57 Si21 1.631397 1_555
O58 Si22 1.669070 1_555
O59 Si23 1.652882 1_555
O60 Si24 1.660991 1_555
O61 Si25 1.621229 1_555
O62 Si26 1.652383 1_555
O63 Si27 1.658225 1_555
O64 Si28 1.633206 1_555
O65 Si29 1.634552 1_555
O66 Si30 1.607834 1_555
O66 Zn2 2.321308 1_555
O67 Si31 1.599405 1_555
O67 Zn3 2.344830 1_555
O68 Si32 1.645585 1_555
O69 Si33 1.652883 1_555
O70 Si34 1.631399 1_555
O71 Si35 1.669071 1_555
O72 Si12 1.608771 1_555
O72 Zn2 2.086075 1_555
O73 Si13 1.603749 1_555
O73 Zn3 2.081146 1_555
O74 Si14 1.647305 1_555
O75 Si15 1.684558 1_555
O76 Si16 1.668158 1_555
O77 Si17 1.671089 1_555
O78 Si18 1.665646 1_555
O79 Si19 1.643637 1_555
O80 Si20 1.677202 1_555
O81 Si21 1.649252 1_555
O82 Si22 1.653729 1_555
O83 Si23 1.645385 1_555
O84 Si24 1.603749 1_555
O84 Zn0 2.081144 1_555
O85 Si25 1.647304 1_555
O86 Si26 1.608770 1_555
O86 Zn1 2.086076 1_555
O87 Si27 1.668154 1_555
O88 Si28 1.671090 1_555
O89 Si29 1.684562 1_555
O90 Si30 1.677203 1_555
O91 Si31 1.665650 1_555
O92 Si32 1.643637 1_555
O93 Si33 1.645390 1_555
O94 Si34 1.649255 1_555
O95 Si35 1.653726 1_555
O96 Si12 1.667476 1_555
O97 Si13 1.675465 1_555
O98 Si14 1.664020 1_555
O99 Si15 1.599716 1_555
O99 Zn2 2.004696 1_555
O100 Si16 1.588482 1_555
O100 Zn3 2.017729 1_555
O101 Si17 1.636746 1_555
O102 Si18 1.642284 1_555
O103 Si19 1.638828 1_555
O104 Si20 1.639729 1_555
O105 Si21 1.651733 1_555
O106 Si22 1.650412 1_555
O107 Si23 1.664433 1_555
O108 Si24 1.675468 1_555
O109 Si25 1.664020 1_555
O110 Si26 1.667479 1_555
O111 Si27 1.588478 1_555
O111 Zn0 2.017731 1_455
O112 Si28 1.636749 1_555
O113 Si29 1.599713 1_555
O113 Zn1 2.004698 1_455
O114 Si30 1.639732 1_555
O115 Si31 1.642289 1_555
O116 Si32 1.638826 1_555
O117 Si33 1.664435 1_555
O118 Si34 1.651740 1_555
O119 Si35 1.650411 1_555
O120 Si0 1.642751 1_455
O121 Si1 1.653212 1_555
O122 Si2 1.634822 1_455
O123 Si0 1.625215 1_555
O124 Si1 1.667080 1_655
O125 Si2 1.667048 1_555
O126 Si3 1.608514 1_655
O126 Zn0 2.202736 1_555
O127 Si4 1.638674 1_655
O128 Si5 1.602408 1_655
O128 Zn1 2.224052 1_555
O129 Si3 1.648428 1_555
O130 Si4 1.657264 1_555
O131 Si5 1.641294 1_555
O132 Si6 1.653212 1_555
O133 Si7 1.634823 1_555
O134 Si8 1.642753 1_555
O135 Si6 1.667074 1_555
O136 Si7 1.667047 1_555
O137 Si8 1.625212 1_555
O138 Si9 1.602406 1_555
O138 Zn2 2.224055 1_555
O139 Si10 1.608513 1_555
O139 Zn3 2.202736 1_555
O140 Si11 1.638671 1_555
O141 Si9 1.641293 1_555
O142 Si10 1.648431 1_555
O143 Si11 1.657264 1_555
