# generated using pymatgen
data_Co3Se4
_symmetry_space_group_name_H-M   'P 1'
_cell_length_a   7.04730271
_cell_length_b   7.04761789
_cell_length_c   7.05875957
_cell_angle_alpha   59.94244813
_cell_angle_beta   59.94492713
_cell_angle_gamma   60.13057512
_symmetry_Int_Tables_number   1
_chemical_formula_structural   Co3Se4
_chemical_formula_sum   'Co6 Se8'
_cell_volume   247.93309030
_cell_formula_units_Z   2
loop_
 _symmetry_equiv_pos_site_id
 _symmetry_equiv_pos_as_xyz
  1  'x, y, z'
loop_
 _atom_site_type_symbol
 _atom_site_label
 _atom_site_symmetry_multiplicity
 _atom_site_fract_x
 _atom_site_fract_y
 _atom_site_fract_z
 _atom_site_occupancy
  Co  Co0  1  0.12478122  0.12477082  0.12516942  1
  Co  Co1  1  0.87521625  0.87523111  0.87483993  1
  Co  Co2  1  0.50000335  0.50000229  0.50000629  1
  Co  Co3  1  0.50000543  0.50000425  -0.00001149  1
  Co  Co4  1  -0.00000763  0.50000360  0.50000518  1
  Co  Co5  1  0.50001595  -0.00001834  0.49999653  1
  Se  Se0  1  0.26114472  0.26116168  0.26285079  1
  Se  Se1  1  0.73880454  0.73884004  0.28525425  1
  Se  Se2  1  0.28526842  0.73716921  0.73877934  1
  Se  Se3  1  0.73718181  0.28526936  0.73877396  1
  Se  Se4  1  0.71474275  0.26281805  0.26121458  1
  Se  Se5  1  0.26279886  0.71475710  0.26121599  1
  Se  Se6  1  0.26119891  0.26114302  0.71476691  1
  Se  Se7  1  0.73884542  0.73884882  0.73713934  1
loop_
_geom_bond_atom_site_label_1
_geom_bond_atom_site_label_2
_geom_bond_distance
_geom_bond_site_symmetry_2
Co0 Se5 2.361038 1_545
Co0 Se4 2.361136 1_455
Co0 Se6 2.362571 1_554
Co0 Se0 2.362920 1_555
Co1 Se3 2.361180 1_565
Co1 Se2 2.361215 1_655
Co1 Se1 2.362639 1_556
Co1 Se7 2.363023 1_555
Co2 Se3 2.381562 1_555
Co2 Se2 2.381674 1_555
Co2 Se5 2.381806 1_555
Co2 Se4 2.381859 1_555
Co2 Se1 2.381918 1_555
Co2 Se6 2.382043 1_555
Co3 Se2 2.381552 1_554
Co3 Se4 2.381642 1_555
Co3 Se3 2.381708 1_554
Co3 Se5 2.381861 1_555
Co3 Se7 2.382090 1_554
Co3 Se0 2.382185 1_555
Co4 Se3 2.381425 1_455
Co4 Se5 2.381495 1_555
Co4 Se1 2.381604 1_455
Co4 Se6 2.381753 1_555
Co4 Se7 2.381907 1_455
Co4 Se0 2.381990 1_555
Co5 Se1 2.381466 1_545
Co5 Se2 2.381505 1_545
Co5 Se4 2.381532 1_555
Co5 Se6 2.381702 1_555
Co5 Se7 2.381729 1_545
Co5 Se0 2.381964 1_555
