# generated using pymatgen
data_Na2ZnH8(SO6)2
_symmetry_space_group_name_H-M   'P 1'
_cell_length_a   8.37235100
_cell_length_b   5.57486500
_cell_length_c   11.17139850
_cell_angle_alpha   80.60151491
_cell_angle_beta   90.00000000
_cell_angle_gamma   90.00000000
_symmetry_Int_Tables_number   1
_chemical_formula_structural   Na2ZnH8(SO6)2
_chemical_formula_sum   'Na4 Zn2 H16 S4 O24'
_cell_volume   514.42265160
_cell_formula_units_Z   2
loop_
 _symmetry_equiv_pos_site_id
 _symmetry_equiv_pos_as_xyz
  1  'x, y, z'
loop_
 _atom_site_type_symbol
 _atom_site_label
 _atom_site_symmetry_multiplicity
 _atom_site_fract_x
 _atom_site_fract_y
 _atom_site_fract_z
 _atom_site_occupancy
  Na  Na0  1  0.92735400  0.88106600  0.36186000  1
  Na  Na1  1  0.07264600  0.11893400  0.63814000  1
  Na  Na2  1  0.57264600  0.88106600  0.86186000  1
  Na  Na3  1  0.42735400  0.11893400  0.13814000  1
  Zn  Zn0  1  0.50000000  0.00000000  0.50000000  1
  Zn  Zn1  1  0.00000000  0.00000000  0.00000000  1
  H  H0  1  0.27256800  0.75513100  0.01222900  1
  H  H1  1  0.77256800  0.24486900  0.48777100  1
  H  H2  1  0.72743200  0.24486900  0.98777100  1
  H  H3  1  0.22743200  0.75513100  0.51222900  1
  H  H4  1  0.19547400  0.67146900  0.13869600  1
  H  H5  1  0.69547400  0.32853100  0.36130400  1
  H  H6  1  0.80452600  0.32853100  0.86130400  1
  H  H7  1  0.30452600  0.67146900  0.63869600  1
  H  H8  1  0.86393700  0.22886600  0.15470900  1
  H  H9  1  0.36393700  0.77113400  0.34529100  1
  H  H10  1  0.05346700  0.23676900  0.18204500  1
  H  H11  1  0.55346700  0.76323100  0.31795500  1
  H  H12  1  0.94653300  0.76323100  0.81795500  1
  H  H13  1  0.44653300  0.23676900  0.68204500  1
  H  H14  1  0.13606300  0.77113400  0.84529100  1
  H  H15  1  0.63606300  0.22886600  0.65470900  1
  S  S0  1  0.21186500  0.37790900  0.36373600  1
  S  S1  1  0.71186500  0.62209100  0.13626400  1
  S  S2  1  0.78813500  0.62209100  0.63626400  1
  S  S3  1  0.28813500  0.37790900  0.86373600  1
  O  O0  1  0.91520100  0.78269800  0.57749800  1
  O  O1  1  0.08479900  0.21730200  0.42250200  1
  O  O2  1  0.13019400  0.31717500  0.92200900  1
  O  O3  1  0.58479900  0.78269800  0.07749800  1
  O  O4  1  0.86980600  0.68282500  0.07799100  1
  O  O5  1  0.36980600  0.31717500  0.42200900  1
  O  O6  1  0.32330700  0.63986800  0.87298300  1
  O  O7  1  0.82330700  0.36013200  0.62701700  1
  O  O8  1  0.67669300  0.36013200  0.12701700  1
  O  O9  1  0.17669300  0.63986800  0.37298300  1
  O  O10  1  0.03638000  0.87076500  0.83615900  1
  O  O11  1  0.53638000  0.12923500  0.66384100  1
  O  O12  1  0.96362000  0.12923500  0.16384100  1
  O  O13  1  0.46362000  0.87076500  0.33615900  1
  O  O14  1  0.28549500  0.81928300  0.57781700  1
  O  O15  1  0.78549500  0.18071700  0.92218300  1
  O  O16  1  0.71450500  0.18071700  0.42218300  1
  O  O17  1  0.21450500  0.81928300  0.07781700  1
  O  O18  1  0.22083500  0.36046900  0.23046000  1
  O  O19  1  0.72083500  0.63953100  0.26954000  1
  O  O20  1  0.77916500  0.63953100  0.76954000  1
  O  O21  1  0.27916500  0.36046900  0.73046000  1
  O  O22  1  0.63019400  0.68282500  0.57799100  1
  O  O23  1  0.41520100  0.21730200  0.92250200  1
loop_
_geom_bond_atom_site_label_1
_geom_bond_atom_site_label_2
_geom_bond_distance
_geom_bond_site_symmetry_2
Na0 O0 2.383863 1_555
Na0 O12 2.429058 1_565
Na0 O1 2.474861 1_665
Na0 O9 2.475242 1_655
Na0 O19 2.513955 1_555
Na0 O16 2.605399 1_565
Na1 O1 2.383863 1_555
Na1 O10 2.429058 1_545
Na1 O0 2.474861 1_445
Na1 O7 2.475242 1_455
Na1 O21 2.513955 1_555
Na1 O14 2.605399 1_545
Na2 O3 2.383863 1_556
Na2 O11 2.429058 1_565
Na2 O23 2.474861 1_565
Na2 O6 2.475242 1_555
Na2 O20 2.513955 1_555
Na2 O15 2.605399 1_565
Na3 O23 2.383863 1_554
Na3 O13 2.429058 1_545
Na3 O3 2.474861 1_545
Na3 O8 2.475242 1_555
Na3 O18 2.513955 1_555
Na3 O17 2.605399 1_545
H0 O17 0.993312 1_555
H1 O16 0.993312 1_555
H2 O15 0.993312 1_555
H3 O14 0.993312 1_555
H4 O17 0.991936 1_555
H5 O16 0.991936 1_555
H6 O15 0.991936 1_555
H7 O14 0.991936 1_555
H8 O12 0.998463 1_555
H9 O13 0.998463 1_555
H10 O12 1.003200 1_455
H10 O18 1.689217 1_555
H11 O13 1.003200 1_555
H11 O19 1.689217 1_555
H12 O10 1.003200 1_655
H12 O20 1.689217 1_555
H13 O11 1.003200 1_555
H13 O21 1.689217 1_555
H14 O10 0.998463 1_555
H15 O11 0.998463 1_555
O0 S2 1.473922 1_555
O1 S0 1.473922 1_555
O2 S3 1.488293 1_555
O2 Zn1 2.137915 1_556
O3 S1 1.473922 1_555
O4 S1 1.488293 1_555
O4 Zn1 2.137915 1_665
O5 S0 1.488293 1_555
O5 Zn0 2.137915 1_555
O6 S3 1.509763 1_555
O7 S2 1.509763 1_555
O8 S1 1.509763 1_555
O9 S0 1.509763 1_555
O10 Zn1 2.095865 1_566
O11 Zn0 2.095865 1_555
O12 Zn1 2.095865 1_655
O13 Zn0 2.095865 1_565
O14 Zn0 2.170249 1_565
O15 Zn1 2.170249 1_656
O16 Zn0 2.170249 1_555
O17 Zn1 2.170249 1_565
O18 S0 1.509679 1_555
O19 S1 1.509679 1_555
O20 S2 1.509679 1_555
O21 S3 1.509679 1_555
O22 S2 1.488293 1_555
O22 Zn0 2.137915 1_565
O23 S3 1.473922 1_555
