# generated using pymatgen
data_MgFeAgS2
_symmetry_space_group_name_H-M   'P 1'
_cell_length_a   3.35546419
_cell_length_b   3.35546403
_cell_length_c   9.10003134
_cell_angle_alpha   79.37436231
_cell_angle_beta   79.37436236
_cell_angle_gamma   59.98406171
_symmetry_Int_Tables_number   1
_chemical_formula_structural   MgFeAgS2
_chemical_formula_sum   'Mg1 Fe1 Ag1 S2'
_cell_volume   86.68350215
_cell_formula_units_Z   1
loop_
 _symmetry_equiv_pos_site_id
 _symmetry_equiv_pos_as_xyz
  1  'x, y, z'
loop_
 _atom_site_type_symbol
 _atom_site_label
 _atom_site_symmetry_multiplicity
 _atom_site_fract_x
 _atom_site_fract_y
 _atom_site_fract_z
 _atom_site_occupancy
  Mg  Mg0  1  0.56438300  0.56438300  0.30688200  1
  Fe  Fe0  1  0.01404800  0.01404800  0.95800900  1
  Ag  Ag0  1  0.81828400  0.81828400  0.54611100  1
  S  S0  1  0.72210500  0.72210500  0.83399900  1
  S  S1  1  0.29361000  0.29361000  0.11903600  1
loop_
_geom_bond_atom_site_label_1
_geom_bond_atom_site_label_2
_geom_bond_distance
_geom_bond_site_symmetry_2
Mg0 S1 2.557509 1_565
Mg0 S1 2.557510 1_655
Mg0 S1 2.558217 1_555
Fe0 S0 2.228946 1_445
Fe0 S0 2.228953 1_455
Fe0 S0 2.228953 1_545
Fe0 S1 2.408608 1_556
Fe0 S1 2.408912 1_546
Fe0 S1 2.408912 1_456
Ag0 S0 2.559729 1_555
Ag0 Mg0 2.876255 1_565
Ag0 Mg0 2.876255 1_655
Ag0 Mg0 2.878383 1_555
