# generated using pymatgen
data_YbMnGe
_symmetry_space_group_name_H-M   'P 1'
_cell_length_a   7.02403288
_cell_length_b   7.02403288
_cell_length_c   4.02225047
_cell_angle_alpha   90.00000000
_cell_angle_beta   90.00000000
_cell_angle_gamma   119.99999304
_symmetry_Int_Tables_number   1
_chemical_formula_structural   YbMnGe
_chemical_formula_sum   'Yb3 Mn3 Ge3'
_cell_volume   171.85922302
_cell_formula_units_Z   3
loop_
 _symmetry_equiv_pos_site_id
 _symmetry_equiv_pos_as_xyz
  1  'x, y, z'
loop_
 _atom_site_type_symbol
 _atom_site_label
 _atom_site_symmetry_multiplicity
 _atom_site_fract_x
 _atom_site_fract_y
 _atom_site_fract_z
 _atom_site_occupancy
  Yb  Yb0  1  1.00000000  0.59252559  0.00000000  1
  Yb  Yb1  1  0.40747441  0.40747441  0.00000000  1
  Yb  Yb2  1  0.59252559  1.00000000  0.00000000  1
  Mn  Mn0  1  0.75214526  0.75214526  0.50000000  1
  Mn  Mn1  1  0.24785474  1.00000000  0.50000000  1
  Mn  Mn2  1  1.00000000  0.24785474  0.50000000  1
  Ge  Ge0  1  0.66666700  0.33333300  0.50000000  1
  Ge  Ge1  1  0.00000000  0.00000000  0.00000000  1
  Ge  Ge2  1  0.33333300  0.66666700  0.50000000  1
loop_
_geom_bond_atom_site_label_1
_geom_bond_atom_site_label_2
_geom_bond_distance
_geom_bond_site_symmetry_2
Mn0 Yb1 3.147343 1_556
Mn0 Yb1 3.147343 1_555
Mn0 Yb0 3.206934 1_556
Mn0 Yb2 3.206934 1_556
Mn0 Yb2 3.206934 1_555
Mn0 Yb0 3.206934 1_555
Mn1 Yb2 3.147343 1_556
Mn1 Yb2 3.147343 1_555
Mn1 Yb1 3.206934 1_566
Mn1 Yb1 3.206934 1_565
Mn1 Yb0 3.206934 1_455
Mn1 Yb0 3.206934 1_456
Mn2 Yb0 3.147343 1_555
Mn2 Yb0 3.147343 1_556
Mn2 Yb1 3.206934 1_655
Mn2 Yb1 3.206934 1_656
Mn2 Yb2 3.206934 1_545
Mn2 Yb2 3.206934 1_546
Ge0 Mn2 2.692232 1_555
Ge0 Mn1 2.692237 1_545
Ge0 Mn0 2.692239 1_555
Ge0 Yb2 2.928892 1_545
Ge0 Yb2 2.928892 1_546
Ge0 Yb0 2.928893 1_556
Ge0 Yb0 2.928893 1_555
Ge0 Yb1 2.928896 1_556
Ge0 Yb1 2.928896 1_555
Ge1 Mn1 2.659980 1_544
Ge1 Mn2 2.659980 1_455
Ge1 Mn2 2.659980 1_454
Ge1 Mn1 2.659980 1_545
Ge1 Mn0 2.659981 1_445
Ge1 Mn0 2.659981 1_444
Ge1 Yb0 2.862114 1_445
Ge1 Yb2 2.862114 1_445
Ge1 Yb1 2.862114 1_555
Ge2 Mn1 2.692232 1_555
Ge2 Mn2 2.692237 1_455
Ge2 Mn0 2.692239 1_555
Ge2 Yb0 2.928892 1_455
Ge2 Yb0 2.928892 1_456
Ge2 Yb2 2.928893 1_556
Ge2 Yb2 2.928893 1_555
Ge2 Yb1 2.928896 1_556
Ge2 Yb1 2.928896 1_555
