# generated using pymatgen
data_BaSm2CuO5
_symmetry_space_group_name_H-M   'P 1'
_cell_length_a   5.80520200
_cell_length_b   7.38547000
_cell_length_c   12.47526000
_cell_angle_alpha   90.00000000
_cell_angle_beta   90.00000000
_cell_angle_gamma   90.00000000
_symmetry_Int_Tables_number   1
_chemical_formula_structural   BaSm2CuO5
_chemical_formula_sum   'Ba4 Sm8 Cu4 O20'
_cell_volume   534.86610883
_cell_formula_units_Z   4
loop_
 _symmetry_equiv_pos_site_id
 _symmetry_equiv_pos_as_xyz
  1  'x, y, z'
loop_
 _atom_site_type_symbol
 _atom_site_label
 _atom_site_symmetry_multiplicity
 _atom_site_fract_x
 _atom_site_fract_y
 _atom_site_fract_z
 _atom_site_occupancy
  Ba  Ba0  1  0.25000000  0.56843200  0.40615600  1
  Ba  Ba1  1  0.75000000  0.43156800  0.59384400  1
  Ba  Ba2  1  0.75000000  0.06843200  0.09384400  1
  Ba  Ba3  1  0.25000000  0.93156800  0.90615600  1
  Sm  Sm0  1  0.25000000  0.10474700  0.57415600  1
  Sm  Sm1  1  0.75000000  0.89525300  0.42584400  1
  Sm  Sm2  1  0.75000000  0.60474700  0.92584400  1
  Sm  Sm3  1  0.25000000  0.39525300  0.07415600  1
  Sm  Sm4  1  0.25000000  0.38825900  0.78733300  1
  Sm  Sm5  1  0.75000000  0.61174100  0.21266700  1
  Sm  Sm6  1  0.75000000  0.88825900  0.71266700  1
  Sm  Sm7  1  0.25000000  0.11174100  0.28733300  1
  Cu  Cu0  1  0.25000000  0.78130100  0.16095100  1
  Cu  Cu1  1  0.75000000  0.21869900  0.83904900  1
  Cu  Cu2  1  0.75000000  0.28130100  0.33904900  1
  Cu  Cu3  1  0.25000000  0.71869900  0.66095100  1
  O  O0  1  0.25000000  0.42135300  0.59790000  1
  O  O1  1  0.75000000  0.57864700  0.40210000  1
  O  O2  1  0.75000000  0.92135300  0.90210000  1
  O  O3  1  0.25000000  0.07864700  0.09790000  1
  O  O4  1  0.00676400  0.85052900  0.27211900  1
  O  O5  1  0.50676400  0.14947100  0.72788100  1
  O  O6  1  0.99323600  0.35052900  0.22788100  1
  O  O7  1  0.49323600  0.64947100  0.77211900  1
  O  O8  1  0.99323600  0.14947100  0.72788100  1
  O  O9  1  0.49323600  0.85052900  0.27211900  1
  O  O10  1  0.00676400  0.64947100  0.77211900  1
  O  O11  1  0.50676400  0.35052900  0.22788100  1
  O  O12  1  0.49023300  0.66518100  0.06780000  1
  O  O13  1  0.99023300  0.33481900  0.93220000  1
  O  O14  1  0.50976700  0.16518100  0.43220000  1
  O  O15  1  0.00976700  0.83481900  0.56780000  1
  O  O16  1  0.99023300  0.16518100  0.43220000  1
  O  O17  1  0.49023300  0.83481900  0.56780000  1
  O  O18  1  0.00976700  0.66518100  0.06780000  1
  O  O19  1  0.50976700  0.33481900  0.93220000  1
loop_
_geom_bond_atom_site_label_1
_geom_bond_atom_site_label_2
_geom_bond_distance
_geom_bond_site_symmetry_2
Ba0 O0 2.627140 1_555
Ba0 O1 2.904022 1_455
Ba0 O1 2.904022 1_555
Ba0 O9 3.021680 1_555
Ba0 O4 3.021680 1_555
Ba0 O11 3.123777 1_555
Ba0 O6 3.123777 1_455
Ba0 O17 3.143569 1_555
Ba0 O15 3.143569 1_555
Ba0 O14 3.353996 1_555
Ba0 O16 3.353996 1_455
Ba1 O1 2.627140 1_555
Ba1 O0 2.904022 1_555
Ba1 O0 2.904022 1_655
Ba1 O8 3.021680 1_555
Ba1 O5 3.021680 1_555
Ba1 O10 3.123777 1_655
Ba1 O7 3.123777 1_555
Ba1 O16 3.143569 1_555
Ba1 O14 3.143569 1_555
Ba1 O15 3.353996 1_655
Ba1 O17 3.353996 1_555
Ba2 O2 2.627140 1_544
Ba2 O3 2.904022 1_555
Ba2 O3 2.904022 1_655
Ba2 O11 3.021680 1_555
Ba2 O6 3.021680 1_555
Ba2 O4 3.123777 1_645
Ba2 O9 3.123777 1_545
Ba2 O13 3.143569 1_554
Ba2 O19 3.143569 1_554
Ba2 O12 3.353996 1_545
Ba2 O18 3.353996 1_645
Ba3 O3 2.627140 1_566
Ba3 O2 2.904022 1_555
Ba3 O2 2.904022 1_455
Ba3 O7 3.021680 1_555
Ba3 O10 3.021680 1_555
Ba3 O8 3.123777 1_465
Ba3 O5 3.123777 1_565
Ba3 O12 3.143569 1_556
Ba3 O18 3.143569 1_556
Ba3 O19 3.353996 1_565
Ba3 O13 3.353996 1_465
Cu0 O12 2.007692 1_555
Cu0 O18 2.007692 1_555
Cu0 O9 2.044163 1_555
Cu0 O4 2.044163 1_555
Cu0 O3 2.332659 1_565
Cu1 O13 2.007692 1_555
Cu1 O19 2.007692 1_555
Cu1 O8 2.044163 1_555
Cu1 O5 2.044163 1_555
Cu1 O2 2.332659 1_545
Cu2 O16 2.007692 1_555
Cu2 O14 2.007692 1_555
Cu2 O11 2.044163 1_555
Cu2 O6 2.044163 1_555
Cu2 O1 2.332659 1_555
Cu3 O17 2.007692 1_555
Cu3 O15 2.007692 1_555
Cu3 O7 2.044163 1_555
Cu3 O10 2.044163 1_555
Cu3 O0 2.332659 1_555
O0 Sm0 2.356971 1_555
O0 Sm4 2.375832 1_555
O1 Sm1 2.356971 1_555
O1 Sm5 2.375832 1_555
O2 Sm2 2.356971 1_555
O2 Sm6 2.375832 1_555
O3 Sm3 2.356971 1_555
O3 Sm7 2.375832 1_555
O4 Sm7 2.398244 1_565
O4 Sm5 2.425289 1_455
O4 Sm1 2.451264 1_455
O5 Sm6 2.398244 1_545
O5 Sm4 2.425289 1_555
O5 Sm0 2.451264 1_555
O6 Sm5 2.398244 1_555
O6 Sm7 2.425289 1_655
O6 Sm3 2.451264 1_655
O7 Sm4 2.398244 1_555
O7 Sm6 2.425289 1_555
O7 Sm2 2.451264 1_555
O8 Sm6 2.398244 1_545
O8 Sm4 2.425289 1_655
O8 Sm0 2.451264 1_655
O9 Sm7 2.398244 1_565
O9 Sm5 2.425289 1_555
O9 Sm1 2.451264 1_555
O10 Sm4 2.398244 1_555
O10 Sm6 2.425289 1_455
O10 Sm2 2.451264 1_455
O11 Sm5 2.398244 1_555
O11 Sm7 2.425289 1_555
O11 Sm3 2.451264 1_555
O12 Sm2 2.368438 1_554
O12 Sm5 2.386630 1_555
O12 Sm3 2.434219 1_555
O13 Sm3 2.368438 1_656
O13 Sm4 2.386630 1_655
O13 Sm2 2.434219 1_555
O14 Sm0 2.368438 1_555
O14 Sm7 2.386630 1_555
O14 Sm1 2.434219 1_545
O15 Sm1 2.368438 1_455
O15 Sm6 2.386630 1_455
O15 Sm0 2.434219 1_565
O16 Sm0 2.368438 1_655
O16 Sm7 2.386630 1_655
O16 Sm1 2.434219 1_545
O17 Sm1 2.368438 1_555
O17 Sm6 2.386630 1_555
O17 Sm0 2.434219 1_565
O18 Sm2 2.368438 1_454
O18 Sm5 2.386630 1_455
O18 Sm3 2.434219 1_555
O19 Sm3 2.368438 1_556
O19 Sm4 2.386630 1_555
O19 Sm2 2.434219 1_555
