# generated using pymatgen
data_In6WO12
_symmetry_space_group_name_H-M   'P 1'
_cell_length_a   6.26450062
_cell_length_b   6.26450062
_cell_length_c   6.26450118
_cell_angle_alpha   99.11019584
_cell_angle_beta   99.11019581
_cell_angle_gamma   99.11018785
_symmetry_Int_Tables_number   1
_chemical_formula_structural   In6WO12
_chemical_formula_sum   'In6 W1 O12'
_cell_volume   235.40146566
_cell_formula_units_Z   1
loop_
 _symmetry_equiv_pos_site_id
 _symmetry_equiv_pos_as_xyz
  1  'x, y, z'
loop_
 _atom_site_type_symbol
 _atom_site_label
 _atom_site_symmetry_multiplicity
 _atom_site_fract_x
 _atom_site_fract_y
 _atom_site_fract_z
 _atom_site_occupancy
  In  In0  1  0.86035473  0.39523054  0.67719892  1
  In  In1  1  0.67719892  0.86035473  0.39523054  1
  In  In2  1  0.39523054  0.67719892  0.86035473  1
  In  In3  1  0.13964527  0.60476946  0.32280108  1
  In  In4  1  0.32280108  0.13964527  0.60476946  1
  In  In5  1  0.60476946  0.32280108  0.13964527  1
  W  W0  1  -0.00000000  0.00000000  0.00000000  1
  O  O0  1  0.59387176  0.17576364  0.41345919  1
  O  O1  1  0.41345919  0.59387176  0.17576364  1
  O  O2  1  0.17576364  0.41345919  0.59387176  1
  O  O3  1  0.40612824  0.82423636  0.58654081  1
  O  O4  1  0.58654081  0.40612824  0.82423636  1
  O  O5  1  0.82423636  0.58654081  0.40612824  1
  O  O6  1  0.04156306  0.70453366  0.89740834  1
  O  O7  1  0.29546634  0.10259166  0.95843694  1
  O  O8  1  0.10259166  0.95843694  0.29546634  1
  O  O9  1  0.95843694  0.29546634  0.10259166  1
  O  O10  1  0.70453366  0.89740834  0.04156306  1
  O  O11  1  0.89740834  0.04156306  0.70453366  1
loop_
_geom_bond_atom_site_label_1
_geom_bond_atom_site_label_2
_geom_bond_distance
_geom_bond_site_symmetry_2
In0 O4 2.076752 1_555
In0 O2 2.112739 1_655
In0 O6 2.215221 1_655
In0 O5 2.231545 1_555
In0 O0 2.255499 1_555
In0 O11 2.293965 1_555
In1 O5 2.076752 1_555
In1 O0 2.112739 1_565
In1 O11 2.215221 1_565
In1 O3 2.231545 1_555
In1 O1 2.255499 1_555
In1 O10 2.293965 1_555
In2 O3 2.076752 1_555
In2 O1 2.112740 1_556
In2 O10 2.215221 1_556
In2 O4 2.231544 1_555
In2 O2 2.255499 1_555
In2 O6 2.293965 1_555
In3 O1 2.076752 1_555
In3 O5 2.112739 1_455
In3 O9 2.215221 1_455
In3 O2 2.231545 1_555
In3 O3 2.255499 1_555
In3 O8 2.293965 1_555
In4 O2 2.076752 1_555
In4 O3 2.112739 1_545
In4 O8 2.215221 1_545
In4 O0 2.231545 1_555
In4 O4 2.255499 1_555
In4 O7 2.293965 1_555
In5 O0 2.076752 1_555
In5 O4 2.112740 1_554
In5 O7 2.215221 1_554
In5 O1 2.231544 1_555
In5 O5 2.255499 1_555
In5 O9 2.293965 1_555
O6 W0 1.932810 1_566
O7 W0 1.932810 1_556
O8 W0 1.932810 1_565
O9 W0 1.932810 1_655
O10 W0 1.932810 1_665
O11 W0 1.932810 1_656
