# generated using pymatgen
data_MgV4O5F7
_symmetry_space_group_name_H-M   'P 1'
_cell_length_a   5.16685328
_cell_length_b   5.55650680
_cell_length_c   9.01913121
_cell_angle_alpha   74.09739448
_cell_angle_beta   90.32319830
_cell_angle_gamma   61.00153515
_symmetry_Int_Tables_number   1
_chemical_formula_structural   MgV4O5F7
_chemical_formula_sum   'Mg1 V4 O5 F7'
_cell_volume   214.83499190
_cell_formula_units_Z   1
loop_
 _symmetry_equiv_pos_site_id
 _symmetry_equiv_pos_as_xyz
  1  'x, y, z'
loop_
 _atom_site_type_symbol
 _atom_site_label
 _atom_site_symmetry_multiplicity
 _atom_site_fract_x
 _atom_site_fract_y
 _atom_site_fract_z
 _atom_site_occupancy
  Mg  Mg0  1  0.04913700  0.89562200  0.35368000  1
  V  V0  1  0.75581900  0.49483300  0.23650500  1
  V  V1  1  0.45557000  0.03581400  0.52072700  1
  V  V2  1  0.28099000  0.50824300  0.75033800  1
  V  V3  1  0.05331800  0.99895500  0.00344800  1
  O  O0  1  0.97483300  0.21084500  0.13684300  1
  O  O1  1  0.43182700  0.75137700  0.06412900  1
  O  O2  1  0.40880500  0.73922700  0.67285500  1
  O  O3  1  0.46794200  0.23760900  0.62957500  1
  O  O4  1  0.07150300  0.21041700  0.42325400  1
  F  F0  1  0.92840800  0.73990000  0.55638300  1
  F  F1  1  0.96474600  0.73457100  0.19832900  1
  F  F2  1  0.49519100  0.72764400  0.37517300  1
  F  F3  1  0.58478500  0.20589900  0.32714800  1
  F  F4  1  0.59125800  0.23388500  0.92548500  1
  F  F5  1  0.02877500  0.75390800  0.87342500  1
  F  F6  1  0.06959500  0.28375400  0.82413100  1
loop_
_geom_bond_atom_site_label_1
_geom_bond_atom_site_label_2
_geom_bond_distance
_geom_bond_site_symmetry_2
Mg0 O4 2.064782 1_565
Mg0 O0 2.121873 1_465
O0 V3 1.821248 1_645
O0 V0 1.906820 1_555
O1 V3 1.727298 1_555
O1 V0 1.921943 1_555
O2 V2 1.705072 1_555
O2 V1 1.951283 1_565
O3 V1 1.702094 1_555
O3 V2 1.970224 1_555
O4 V1 1.816116 1_555
O4 V0 2.001486 1_455
F0 Mg0 2.037018 1_655
F0 V2 2.119480 1_655
F0 V1 2.140606 1_565
F1 Mg0 2.003162 1_655
F1 V0 2.050721 1_555
F1 V3 2.168598 1_655
F2 Mg0 2.007612 1_555
F2 V0 2.065818 1_555
F2 V1 2.364834 1_565
F3 V1 2.026776 1_555
F3 Mg0 2.131398 1_645
F3 V0 2.165936 1_555
F4 V2 1.916129 1_555
F4 V3 2.086751 1_646
F5 V2 1.978884 1_555
F5 V3 2.070271 1_556
F6 V3 1.963413 1_546
F6 V2 2.016467 1_555
