# generated using pymatgen
data_Na5Zr2Si3Ge2(PO8)3
_symmetry_space_group_name_H-M   'P 1'
_cell_length_a   8.87282973
_cell_length_b   8.87418480
_cell_length_c   22.35789971
_cell_angle_alpha   89.81502745
_cell_angle_beta   90.36583617
_cell_angle_gamma   120.02062905
_symmetry_Int_Tables_number   1
_chemical_formula_structural   Na5Zr2Si3Ge2(PO8)3
_chemical_formula_sum   'Na15 Zr6 Si9 Ge6 P9 O72'
_cell_volume   1524.23904620
_cell_formula_units_Z   3
loop_
 _symmetry_equiv_pos_site_id
 _symmetry_equiv_pos_as_xyz
  1  'x, y, z'
loop_
 _atom_site_type_symbol
 _atom_site_label
 _atom_site_symmetry_multiplicity
 _atom_site_fract_x
 _atom_site_fract_y
 _atom_site_fract_z
 _atom_site_occupancy
  Na  Na0  1  0.00032803  0.63663512  0.24974686  1
  Na  Na1  1  0.36823229  0.99745917  0.75245246  1
  Na  Na2  1  0.02974304  0.69986981  0.58111555  1
  Na  Na3  1  0.66161634  0.96589581  0.58519108  1
  Na  Na4  1  0.29678245  0.96581407  0.08025541  1
  Na  Na5  1  0.03889206  0.33789212  0.08295951  1
  Na  Na6  1  0.96506179  0.66606100  0.91786172  1
  Na  Na7  1  0.96488351  0.29921879  0.41366510  1
  Na  Na8  1  0.33491069  0.02950951  0.41711217  1
  Na  Na9  1  0.99735410  0.99250991  0.49989948  1
  Na  Na10  1  0.99536583  0.00058121  0.99655966  1
  Na  Na11  1  0.66719014  0.32876124  0.83697383  1
  Na  Na12  1  0.66279796  0.33137537  0.32954134  1
  Na  Na13  1  0.34708615  0.66471297  0.16758616  1
  Na  Na14  1  0.33887799  0.65450109  0.67005975  1
  Zr  Zr0  1  0.98976639  0.99479545  0.34817985  1
  Zr  Zr1  1  -0.00010946  0.00277191  0.65196757  1
  Zr  Zr2  1  0.99776241  0.00000095  0.14629507  1
  Zr  Zr3  1  0.66691109  0.33305837  0.69137366  1
  Zr  Zr4  1  0.66617941  0.34118531  0.47791687  1
  Zr  Zr5  1  0.34051798  0.66911257  0.51899781  1
  Si  Si0  1  0.99945921  0.30590334  0.24848511  1
  Si  Si1  1  0.70576015  0.98856036  0.75727296  1
  Si  Si2  1  0.36957298  0.04133190  0.58356275  1
  Si  Si3  1  0.66530741  0.62662365  0.58556536  1
  Si  Si4  1  0.94856373  0.61193504  0.07874403  1
  Si  Si5  1  0.39296433  0.34723406  0.08157858  1
  Si  Si6  1  0.33846392  0.95965129  0.91704982  1
  Si  Si7  1  0.62169330  0.95140365  0.41246318  1
  Si  Si8  1  0.04505224  0.66790951  0.41315443  1
  Ge  Ge0  1  0.00623557  0.00949358  0.85469945  1
  Ge  Ge1  1  0.66932404  0.33570879  0.18270518  1
  Ge  Ge2  1  0.65179058  0.32610211  0.98088261  1
  Ge  Ge3  1  0.33038067  0.66241396  0.01732865  1
  Ge  Ge4  1  0.33012320  0.66412753  0.31361416  1
  Ge  Ge5  1  0.34299194  0.67322761  0.81827490  1
  P  P0  1  0.30899708  0.00482820  0.24936424  1
  P  P1  1  0.69070040  0.69363892  0.24850487  1
  P  P2  1  0.28621716  0.29932180  0.75723352  1
  P  P3  1  0.00695446  0.71034256  0.75726690  1
  P  P4  1  0.95914819  0.33247958  0.58354371  1
  P  P5  1  0.65938569  0.04798749  0.08052577  1
  P  P6  1  0.61819437  0.66679829  0.91763381  1
  P  P7  1  0.04845672  0.37820631  0.91585614  1
  P  P8  1  0.33357555  0.38107357  0.41179829  1
  O  O0  1  0.22490013  0.03302155  0.30533335  1
  O  O1  1  0.81392696  0.77458849  0.30331563  1
  O  O2  1  0.96495035  0.18777566  0.30805832  1
  O  O3  1  0.20137711  0.16787562  0.80973038  1
  O  O4  1  0.97876955  0.80254048  0.81124355  1
  O  O5  1  0.84351935  0.02607425  0.81183377  1
  O  O6  1  0.77993169  0.96095306  0.69371616  1
  O  O7  1  0.18087942  0.22193916  0.69916134  1
  O  O8  1  0.04292475  0.82148218  0.69923259  1
  O  O9  1  0.78061002  0.81344901  0.19440409  1
  O  O10  1  0.03213559  0.21630176  0.19012164  1
  O  O11  1  0.18352077  0.96487406  0.19465317  1
  O  O12  1  0.87255954  0.36281291  0.63769502  1
  O  O13  1  0.49251904  0.12398525  0.64272772  1
  O  O14  1  0.64301094  0.50848574  0.64318104  1
  O  O15  1  0.87034085  0.49327084  0.13995117  1
  O  O16  1  0.62301940  0.12556614  0.13745175  1
  O  O17  1  0.50857268  0.36991923  0.14178915  1
  O  O18  1  0.46770449  0.29118193  0.02453446  1
  O  O19  1  0.82932510  0.52051005  0.01905927  1
  O  O20  1  0.70213525  0.16939103  0.02566394  1
  O  O21  1  0.45693783  0.15077233  0.52254167  1
  O  O22  1  0.70802245  0.54581620  0.52681082  1
  O  O23  1  0.84965553  0.30086361  0.52574915  1
  O  O24  1  0.53311182  0.69899821  0.97311463  1
  O  O25  1  0.15897727  0.45594371  0.97451548  1
  O  O26  1  0.29320562  0.82813674  0.97591241  1
  O  O27  1  0.54824012  0.84771137  0.47528188  1
  O  O28  1  0.29802495  0.45375653  0.46871856  1
  O  O29  1  0.15402779  0.69792374  0.47505958  1
  O  O30  1  0.13618727  0.63191246  0.35512355  1
  O  O31  1  0.48811965  0.85295362  0.35682037  1
  O  O32  1  0.36155293  0.49710525  0.35687158  1
  O  O33  1  0.13673199  0.50405817  0.86211689  1
  O  O34  1  0.36587469  0.86856639  0.85754862  1
  O  O35  1  0.50268150  0.63193483  0.86131805  1
  O  O36  1  0.03742809  0.84618238  0.40883142  1
  O  O37  1  0.81947145  0.98497063  0.41071113  1
  O  O38  1  0.17267537  0.19746085  0.40716078  1
  O  O39  1  0.03098400  0.19501803  0.90963465  1
  O  O40  1  0.15429523  0.97090473  0.90861028  1
  O  O41  1  0.80626021  0.82849333  0.91148946  1
  O  O42  1  0.97195033  0.16787214  0.58900334  1
  O  O43  1  0.17609501  0.01426928  0.58804725  1
  O  O44  1  0.83783567  0.82018974  0.58877812  1
  O  O45  1  0.98061151  0.80943829  0.08563483  1
  O  O46  1  0.82463545  0.03211144  0.08725046  1
  O  O47  1  0.19534365  0.17323903  0.08846451  1
  O  O48  1  0.67833404  0.15791270  0.75303753  1
  O  O49  1  0.46494296  0.30961347  0.75149267  1
  O  O50  1  0.84517474  0.53143143  0.75169341  1
  O  O51  1  0.68417318  0.51647551  0.24164367  1
  O  O52  1  0.82437570  0.32624490  0.23996884  1
  O  O53  1  0.48713426  0.16943436  0.24027501  1
  O  O54  1  0.64357955  0.50405790  0.92316091  1
  O  O55  1  0.86765800  0.36550301  0.92135093  1
  O  O56  1  0.51380747  0.15375195  0.92506408  1
  O  O57  1  0.63620474  0.14226917  0.41550824  1
  O  O58  1  0.49341912  0.35785652  0.41575887  1
  O  O59  1  0.85768233  0.49011547  0.41514779  1
  O  O60  1  0.36165492  0.51528219  0.07261599  1
  O  O61  1  0.14846738  0.63529209  0.07311624  1
  O  O62  1  0.49417932  0.86539017  0.07367298  1
  O  O63  1  0.34892872  0.84747611  0.58145553  1
  O  O64  1  0.49692586  0.65032784  0.58327078  1
  O  O65  1  0.13778565  0.49693780  0.57955744  1
  O  O66  1  0.31570994  0.83334862  0.25538702  1
  O  O67  1  0.51347995  0.68181297  0.25763001  1
  O  O68  1  0.17467674  0.50109231  0.25633563  1
  O  O69  1  0.30163302  0.47919754  0.76486566  1
  O  O70  1  0.17460186  0.69551386  0.76238583  1
  O  O71  1  0.50710411  0.81576886  0.76214164  1
loop_
_geom_bond_atom_site_label_1
_geom_bond_atom_site_label_2
_geom_bond_distance
_geom_bond_site_symmetry_2
Na0 O68 2.391539 1_555
Na0 O52 2.401827 1_455
Na0 O66 2.450067 1_555
Na0 O51 2.457765 1_455
Na0 O30 2.649391 1_555
Na0 O15 2.736900 1_455
Na0 O1 2.780171 1_455
Na0 O11 2.812264 1_555
Na1 O70 2.361239 1_555
Na1 O48 2.382790 1_565
Na1 O49 2.455946 1_565
Na1 O71 2.479352 1_555
Na1 O34 2.605632 1_555
Na1 O13 2.696825 1_565
Na1 O8 2.764716 1_555
Na1 O3 2.897569 1_565
Na2 O43 2.422710 1_565
Na2 O65 2.427258 1_555
Na2 O44 2.427543 1_455
Na2 O63 2.454447 1_555
Na2 O29 2.625190 1_555
Na2 O22 2.748312 1_455
Na2 O8 2.835598 1_555
Na2 O12 2.883735 1_455
Na3 O42 2.421032 1_565
Na3 O64 2.425842 1_555
Na3 O63 2.426717 1_555
Na3 O44 2.478666 1_555
Na3 O6 2.646551 1_555
Na3 O27 2.660792 1_555
Na3 O13 2.831362 1_565
Na3 O23 2.902799 1_565
Na4 O62 2.334414 1_555
Na4 O47 2.427781 1_565
Na4 O45 2.432674 1_455
Na4 O61 2.549206 1_555
Na4 O26 2.629596 1_554
Na4 O11 2.752470 1_555
Na4 O18 2.794317 1_565
Na4 O16 2.807541 1_565
Na5 O61 2.321730 1_555
Na5 O46 2.413590 1_455
Na5 O47 2.470509 1_555
Na5 O60 2.495620 1_555
Na5 O10 2.613181 1_555
Na5 O25 2.647835 1_554
Na5 O15 2.803669 1_455
Na5 O20 2.880578 1_455
Na6 O55 2.357956 1_555
Na6 O40 2.374039 1_655
Na6 O41 2.472213 1_555
Na6 O54 2.473299 1_555
Na6 O19 2.587932 1_556
Na6 O4 2.646059 1_555
Na6 O26 2.829120 1_655
Na6 O33 2.857851 1_655
Na7 O59 2.321372 1_555
Na7 O37 2.417785 1_545
Na7 O38 2.430233 1_655
Na7 O57 2.526510 1_555
Na7 O2 2.562957 1_555
Na7 O23 2.715374 1_555
Na7 O28 2.835731 1_655
Na7 O30 2.872305 1_655
Na8 O36 2.312336 1_545
Na8 O57 2.339560 1_555
Na8 O58 2.523610 1_555
Na8 O38 2.546286 1_555
Na8 O21 2.589313 1_555
Na8 O0 2.682953 1_555
Na8 O29 2.861706 1_545
Na8 O31 2.878914 1_545
Na9 O43 2.468329 1_665
Na9 O44 2.478109 1_555
Na9 O37 2.515328 1_555
Na9 O36 2.539019 1_655
Na9 O42 2.611141 1_565
Na9 O38 2.685661 1_665
Na10 O41 2.485778 1_545
Na10 O39 2.508925 1_655
Na10 O40 2.516909 1_645
Na10 O45 2.572914 1_546
Na10 O46 2.636570 1_556
Na10 O47 2.640380 1_656
Na11 O48 2.449691 1_555
Na11 O56 2.458186 1_555
Na11 O55 2.491949 1_555
Na11 O54 2.554919 1_555
Na11 O50 2.557029 1_555
Na11 O49 2.560256 1_555
Na12 O57 2.480904 1_555
Na12 O52 2.484072 1_555
Na12 O59 2.485061 1_555
Na12 O53 2.493055 1_555
Na12 O51 2.503672 1_555
Na12 O58 2.534356 1_555
Na13 O67 2.448574 1_555
Na13 O68 2.486622 1_555
Na13 O60 2.544984 1_555
Na13 O66 2.571652 1_555
Na13 O62 2.639828 1_555
Na13 O61 2.670338 1_555
Na14 O64 2.412532 1_555
Na14 O71 2.521283 1_555
Na14 O69 2.548633 1_555
Na14 O63 2.586989 1_555
Na14 O65 2.590128 1_555
Na14 O70 2.663107 1_555
Ge0 O5 1.794036 1_455
Ge0 O3 1.887398 1_555
Ge0 O40 1.929557 1_545
Ge0 O39 1.978688 1_555
Ge0 O4 1.984161 1_445
Ge0 O41 2.122322 1_445
Ge1 O17 1.837998 1_555
Ge1 O15 1.888831 1_555
Ge1 O52 1.905601 1_555
Ge1 O16 1.977460 1_555
Ge1 O53 2.018592 1_555
Ge1 O51 2.031518 1_555
Ge2 O18 1.796759 1_556
Ge2 O19 1.859918 1_556
Ge2 O56 1.874771 1_555
Ge2 O20 1.934652 1_556
Ge2 O54 2.065301 1_555
Ge2 O55 2.218521 1_555
Ge3 O26 1.897832 1_554
Ge3 O60 1.912457 1_555
Ge3 O24 1.937668 1_554
Ge3 O25 1.946995 1_554
Ge3 O61 1.963157 1_555
Ge3 O62 2.077371 1_555
Ge4 O31 1.830002 1_555
Ge4 O30 1.852157 1_555
Ge4 O32 1.900240 1_555
Ge4 O68 1.904794 1_555
Ge4 O67 2.001845 1_555
Ge4 O66 2.035596 1_555
Ge5 O71 1.861586 1_555
Ge5 O34 1.863477 1_555
Ge5 O35 1.888875 1_555
Ge5 O33 1.956554 1_555
Ge5 O69 1.975044 1_555
Ge5 O70 2.025607 1_555
O0 P0 1.544671 1_555
O0 Zr0 2.168102 1_445
O1 P1 1.554311 1_555
O1 Zr0 2.049632 1_555
O2 Si0 1.625336 1_555
O2 Zr0 2.037358 1_545
O3 P2 1.558447 1_555
O4 P3 1.550260 1_655
O5 Si1 1.633818 1_545
O6 Si1 1.639477 1_555
O6 Zr1 2.028360 1_665
O7 P2 1.542378 1_555
O7 Zr1 2.083578 1_555
O8 P3 1.562121 1_555
O8 Zr1 2.109335 1_565
O9 P1 1.544419 1_555
O9 Zr2 2.105528 1_565
O10 Si0 1.631332 1_455
O10 Zr2 2.039647 1_455
O11 P0 1.565859 1_565
O11 Zr2 2.114681 1_465
O12 P4 1.532796 1_555
O12 Zr3 2.093644 1_555
O13 Si2 1.632490 1_555
O13 Zr3 2.034310 1_555
O14 Si3 1.607671 1_555
O14 Zr3 1.986475 1_555
O15 Si4 1.653726 1_555
O16 P5 1.559212 1_555
O17 Si5 1.637812 1_555
O18 Si5 1.630576 1_555
O19 Si4 1.639612 1_555
O20 P5 1.548423 1_555
O21 Si2 1.630053 1_555
O21 Zr4 2.042358 1_555
O22 Si3 1.633367 1_555
O22 Zr4 1.990849 1_555
O23 P4 1.551066 1_555
O23 Zr4 2.116630 1_555
O24 P6 1.555743 1_555
O25 P7 1.571646 1_555
O26 Si6 1.668289 1_555
O27 Si7 1.627070 1_555
O27 Zr5 1.988535 1_555
O28 P8 1.532675 1_555
O28 Zr5 2.084619 1_555
O29 Si8 1.627611 1_555
O29 Zr5 2.041906 1_555
O30 Si8 1.647373 1_555
O31 Si7 1.633311 1_555
O32 P8 1.539459 1_555
O33 P7 1.559628 1_555
O34 Si6 1.640137 1_555
O35 P6 1.549281 1_555
O36 Si8 1.619488 1_555
O36 Zr0 2.072721 1_455
O37 Si7 1.627118 1_555
O37 Zr0 2.034620 1_555
O38 P8 1.541242 1_555
O38 Zr0 2.162114 1_445
O39 P7 1.560484 1_555
O40 Si6 1.695607 1_555
O41 P6 1.571013 1_555
O42 P4 1.525227 1_555
O42 Zr1 2.129669 1_655
O43 Si2 1.613779 1_555
O43 Zr1 2.089282 1_555
O44 Si3 1.633217 1_555
O44 Zr1 2.084794 1_665
O45 Si4 1.636757 1_555
O45 Zr2 2.115888 1_565
O46 P5 1.547916 1_555
O46 Zr2 2.143188 1_555
O47 Si5 1.665898 1_555
O47 Zr2 2.104254 1_455
O48 Si1 1.640585 1_545
O48 Zr3 2.113953 1_555
O49 P2 1.548286 1_555
O49 Zr3 2.171919 1_555
O50 P3 1.521617 1_655
O50 Zr3 2.149767 1_555
O51 P1 1.552087 1_555
O52 Si0 1.660952 1_555
O53 P0 1.537930 1_555
O54 P6 1.573424 1_555
O55 P7 1.556508 1_655
O56 Si6 1.654233 1_545
O57 Si7 1.634778 1_545
O57 Zr4 2.162189 1_555
O58 P8 1.533765 1_555
O58 Zr4 2.121627 1_555
O59 Si8 1.622060 1_655
O59 Zr4 2.091598 1_555
O60 Si5 1.659270 1_555
O61 Si4 1.685127 1_455
O62 P5 1.555596 1_565
O63 Si2 1.637177 1_565
O63 Zr5 2.087023 1_555
O64 Si3 1.610094 1_555
O64 Zr5 2.055040 1_555
O65 P4 1.528550 1_455
O65 Zr5 2.161276 1_555
O66 P0 1.557770 1_565
O67 P1 1.537550 1_555
O68 Si0 1.658922 1_455
O69 P2 1.542345 1_555
O70 P3 1.560989 1_555
O71 Si1 1.663400 1_555
