# generated using pymatgen
data_ZrGaNi2
_symmetry_space_group_name_H-M   'P 1'
_cell_length_a   4.28460171
_cell_length_b   4.28460153
_cell_length_c   4.28460125
_cell_angle_alpha   59.99999440
_cell_angle_beta   59.99999577
_cell_angle_gamma   60.00000481
_symmetry_Int_Tables_number   1
_chemical_formula_structural   ZrGaNi2
_chemical_formula_sum   'Zr1 Ga1 Ni2'
_cell_volume   55.61811835
_cell_formula_units_Z   1
loop_
 _symmetry_equiv_pos_site_id
 _symmetry_equiv_pos_as_xyz
  1  'x, y, z'
loop_
 _atom_site_type_symbol
 _atom_site_label
 _atom_site_symmetry_multiplicity
 _atom_site_fract_x
 _atom_site_fract_y
 _atom_site_fract_z
 _atom_site_occupancy
  Zr  Zr0  1  0.50000000  0.50000000  0.50000000  1
  Ga  Ga0  1  -0.00000000  0.00000000  -0.00000000  1
  Ni  Ni0  1  0.75000000  0.75000000  0.75000000  1
  Ni  Ni1  1  0.25000000  0.25000000  0.25000000  1
loop_
_geom_bond_atom_site_label_1
_geom_bond_atom_site_label_2
_geom_bond_distance
_geom_bond_site_symmetry_2
Ga0 Ni0 2.623771 1_445
Ga0 Ni1 2.623771 1_554
Ga0 Ni0 2.623772 1_444
Ga0 Ni1 2.623772 1_555
Ga0 Ni1 2.623772 1_545
Ga0 Ni0 2.623772 1_454
Ga0 Ni0 2.623772 1_544
Ga0 Ni1 2.623772 1_455
Ni0 Zr0 2.623771 1_556
Ni0 Zr0 2.623772 1_555
Ni0 Zr0 2.623772 1_565
Ni0 Zr0 2.623772 1_655
Ni1 Zr0 2.623771 1_554
Ni1 Zr0 2.623772 1_555
Ni1 Zr0 2.623772 1_545
Ni1 Zr0 2.623772 1_455
