# generated using pymatgen
data_Na4Si3(GeO6)2
_symmetry_space_group_name_H-M   'P 1'
_cell_length_a   8.76136121
_cell_length_b   8.76136094
_cell_length_c   21.69817919
_cell_angle_alpha   90.00000000
_cell_angle_beta   90.00000000
_cell_angle_gamma   120.00000107
_symmetry_Int_Tables_number   1
_chemical_formula_structural   Na4Si3(GeO6)2
_chemical_formula_sum   'Na24 Si18 Ge12 O72'
_cell_volume   1442.43773770
_cell_formula_units_Z   6
loop_
 _symmetry_equiv_pos_site_id
 _symmetry_equiv_pos_as_xyz
  1  'x, y, z'
loop_
 _atom_site_type_symbol
 _atom_site_label
 _atom_site_symmetry_multiplicity
 _atom_site_fract_x
 _atom_site_fract_y
 _atom_site_fract_z
 _atom_site_occupancy
  Na  Na0  1  0.63238739  0.00000000  0.25000000  1
  Na  Na1  1  0.36761261  0.36761261  0.25000000  1
  Na  Na2  1  1.00000000  0.63238739  0.25000000  1
  Na  Na3  1  0.63238739  0.63238739  0.75000000  1
  Na  Na4  1  0.00000000  0.36761261  0.75000000  1
  Na  Na5  1  0.36761261  0.00000000  0.75000000  1
  Na  Na6  1  0.29905439  0.33333300  0.58333300  1
  Na  Na7  1  0.03427961  0.70094561  0.58333300  1
  Na  Na8  1  0.66666700  0.96572039  0.58333300  1
  Na  Na9  1  0.29905439  0.96572039  0.08333300  1
  Na  Na10  1  0.66666700  0.70094561  0.08333300  1
  Na  Na11  1  0.03427961  0.33333300  0.08333300  1
  Na  Na12  1  0.96572039  0.66666700  0.91666700  1
  Na  Na13  1  0.70094561  0.03427961  0.91666700  1
  Na  Na14  1  0.33333300  0.29905439  0.91666700  1
  Na  Na15  1  0.96572039  0.29905439  0.41666700  1
  Na  Na16  1  0.33333300  0.03427961  0.41666700  1
  Na  Na17  1  0.70094561  0.66666700  0.41666700  1
  Na  Na18  1  -0.00000000  0.00000000  0.50000000  1
  Na  Na19  1  -0.00000000  0.00000000  -0.00000000  1
  Na  Na20  1  0.66666700  0.33333300  0.83333300  1
  Na  Na21  1  0.66666700  0.33333300  0.33333300  1
  Na  Na22  1  0.33333300  0.66666700  0.16666700  1
  Na  Na23  1  0.33333300  0.66666700  0.66666700  1
  Si  Si0  1  0.28778736  0.00000000  0.25000000  1
  Si  Si1  1  0.71221264  0.71221264  0.25000000  1
  Si  Si2  1  1.00000000  0.28778736  0.25000000  1
  Si  Si3  1  0.28778736  0.28778736  0.75000000  1
  Si  Si4  1  0.00000000  0.71221264  0.75000000  1
  Si  Si5  1  0.71221264  0.00000000  0.75000000  1
  Si  Si6  1  0.95445436  0.33333300  0.58333300  1
  Si  Si7  1  0.37887964  0.04554564  0.58333300  1
  Si  Si8  1  0.66666700  0.62112036  0.58333300  1
  Si  Si9  1  0.95445436  0.62112036  0.08333300  1
  Si  Si10  1  0.66666700  0.04554564  0.08333300  1
  Si  Si11  1  0.37887964  0.33333300  0.08333300  1
  Si  Si12  1  0.62112036  0.66666700  0.91666700  1
  Si  Si13  1  0.04554564  0.37887964  0.91666700  1
  Si  Si14  1  0.33333300  0.95445436  0.91666700  1
  Si  Si15  1  0.62112036  0.95445436  0.41666700  1
  Si  Si16  1  0.33333300  0.37887964  0.41666700  1
  Si  Si17  1  0.04554564  0.66666700  0.41666700  1
  Ge  Ge0  1  -0.00000000  0.00000000  0.35284767  1
  Ge  Ge1  1  -0.00000000  0.00000000  0.85284767  1
  Ge  Ge2  1  -0.00000000  0.00000000  0.64715233  1
  Ge  Ge3  1  -0.00000000  0.00000000  0.14715233  1
  Ge  Ge4  1  0.66666700  0.33333300  0.68618067  1
  Ge  Ge5  1  0.66666700  0.33333300  0.18618067  1
  Ge  Ge6  1  0.66666700  0.33333300  0.98048533  1
  Ge  Ge7  1  0.66666700  0.33333300  0.48048533  1
  Ge  Ge8  1  0.33333300  0.66666700  0.01951467  1
  Ge  Ge9  1  0.33333300  0.66666700  0.51951467  1
  Ge  Ge10  1  0.33333300  0.66666700  0.31381933  1
  Ge  Ge11  1  0.33333300  0.66666700  0.81381933  1
  O  O0  1  0.20423521  0.04221650  0.31057064  1
  O  O1  1  0.83798129  0.79576479  0.31057064  1
  O  O2  1  0.95778350  0.16201871  0.31057064  1
  O  O3  1  0.20423521  0.16201871  0.81057064  1
  O  O4  1  0.95778350  0.79576479  0.81057064  1
  O  O5  1  0.83798129  0.04221650  0.81057064  1
  O  O6  1  0.79576479  0.95778350  0.68942936  1
  O  O7  1  0.16201871  0.20423521  0.68942936  1
  O  O8  1  0.04221650  0.83798129  0.68942936  1
  O  O9  1  0.79576479  0.83798129  0.18942936  1
  O  O10  1  0.04221650  0.20423521  0.18942936  1
  O  O11  1  0.16201871  0.95778350  0.18942936  1
  O  O12  1  0.87090221  0.37554950  0.64390364  1
  O  O13  1  0.50464829  0.12909779  0.64390364  1
  O  O14  1  0.62445050  0.49535171  0.64390364  1
  O  O15  1  0.87090221  0.49535171  0.14390364  1
  O  O16  1  0.62445050  0.12909779  0.14390364  1
  O  O17  1  0.50464829  0.37554950  0.14390364  1
  O  O18  1  0.46243179  0.29111650  0.02276236  1
  O  O19  1  0.82868571  0.53756821  0.02276236  1
  O  O20  1  0.70888350  0.17131429  0.02276236  1
  O  O21  1  0.46243179  0.17131429  0.52276236  1
  O  O22  1  0.70888350  0.53756821  0.52276236  1
  O  O23  1  0.82868571  0.29111650  0.52276236  1
  O  O24  1  0.53756821  0.70888350  0.97723764  1
  O  O25  1  0.17131429  0.46243179  0.97723764  1
  O  O26  1  0.29111650  0.82868571  0.97723764  1
  O  O27  1  0.53756821  0.82868571  0.47723764  1
  O  O28  1  0.29111650  0.46243179  0.47723764  1
  O  O29  1  0.17131429  0.70888350  0.47723764  1
  O  O30  1  0.12909779  0.62445050  0.35609636  1
  O  O31  1  0.49535171  0.87090221  0.35609636  1
  O  O32  1  0.37554950  0.50464829  0.35609636  1
  O  O33  1  0.12909779  0.50464829  0.85609636  1
  O  O34  1  0.37554950  0.87090221  0.85609636  1
  O  O35  1  0.49535171  0.62445050  0.85609636  1
  O  O36  1  0.02549887  0.84251582  0.41029320  1
  O  O37  1  0.81701694  0.97450113  0.41029320  1
  O  O38  1  0.15748418  0.18298306  0.41029320  1
  O  O39  1  0.02549887  0.18298306  0.91029320  1
  O  O40  1  0.15748418  0.97450113  0.91029320  1
  O  O41  1  0.81701694  0.84251582  0.91029320  1
  O  O42  1  0.97450113  0.15748418  0.58970680  1
  O  O43  1  0.18298306  0.02549887  0.58970680  1
  O  O44  1  0.84251582  0.81701694  0.58970680  1
  O  O45  1  0.97450113  0.81701694  0.08970680  1
  O  O46  1  0.84251582  0.02549887  0.08970680  1
  O  O47  1  0.18298306  0.15748418  0.08970680  1
  O  O48  1  0.69216587  0.17584882  0.74362620  1
  O  O49  1  0.48368394  0.30783413  0.74362620  1
  O  O50  1  0.82415118  0.51631606  0.74362620  1
  O  O51  1  0.69216587  0.51631606  0.24362620  1
  O  O52  1  0.82415118  0.30783413  0.24362620  1
  O  O53  1  0.48368394  0.17584882  0.24362620  1
  O  O54  1  0.64116813  0.49081718  0.92303980  1
  O  O55  1  0.84965006  0.35883187  0.92303980  1
  O  O56  1  0.50918282  0.15034994  0.92303980  1
  O  O57  1  0.64116813  0.15034994  0.42303980  1
  O  O58  1  0.50918282  0.35883187  0.42303980  1
  O  O59  1  0.84965006  0.49081718  0.42303980  1
  O  O60  1  0.35883187  0.50918282  0.07696020  1
  O  O61  1  0.15034994  0.64116813  0.07696020  1
  O  O62  1  0.49081718  0.84965006  0.07696020  1
  O  O63  1  0.35883187  0.84965006  0.57696020  1
  O  O64  1  0.49081718  0.64116813  0.57696020  1
  O  O65  1  0.15034994  0.50918282  0.57696020  1
  O  O66  1  0.30783413  0.82415118  0.25637380  1
  O  O67  1  0.51631606  0.69216587  0.25637380  1
  O  O68  1  0.17584882  0.48368394  0.25637380  1
  O  O69  1  0.30783413  0.48368394  0.75637380  1
  O  O70  1  0.17584882  0.69216587  0.75637380  1
  O  O71  1  0.51631606  0.82415118  0.75637380  1
loop_
_geom_bond_atom_site_label_1
_geom_bond_atom_site_label_2
_geom_bond_distance
_geom_bond_site_symmetry_2
Na0 O67 2.363179 1_545
Na0 O52 2.363180 1_555
Na0 O53 2.469306 1_555
Na0 O66 2.469313 1_545
Na0 O16 2.581176 1_555
Na0 O31 2.581178 1_545
Na0 O2 2.796985 1_555
Na0 O9 2.796985 1_545
Na1 O53 2.363187 1_555
Na1 O68 2.363187 1_555
Na1 O67 2.469313 1_555
Na1 O51 2.469313 1_555
Na1 O32 2.581179 1_555
Na1 O17 2.581179 1_555
Na1 O0 2.796985 1_555
Na1 O10 2.796985 1_555
Na2 O51 2.363179 1_555
Na2 O66 2.363180 1_655
Na2 O68 2.469306 1_655
Na2 O52 2.469313 1_555
Na2 O30 2.581176 1_655
Na2 O15 2.581178 1_555
Na2 O11 2.796985 1_655
Na2 O1 2.796985 1_555
Na3 O71 2.363187 1_555
Na3 O50 2.363187 1_555
Na3 O49 2.469313 1_555
Na3 O69 2.469313 1_555
Na3 O14 2.581179 1_555
Na3 O35 2.581179 1_555
Na3 O6 2.796985 1_555
Na3 O4 2.796985 1_555
Na4 O69 2.363179 1_555
Na4 O48 2.363180 1_455
Na4 O50 2.469306 1_455
Na4 O70 2.469313 1_555
Na4 O12 2.581176 1_455
Na4 O33 2.581178 1_555
Na4 O5 2.796985 1_455
Na4 O7 2.796985 1_555
Na5 O49 2.363179 1_555
Na5 O70 2.363180 1_545
Na5 O71 2.469306 1_545
Na5 O48 2.469313 1_555
Na5 O34 2.581176 1_545
Na5 O13 2.581178 1_555
Na5 O8 2.796985 1_545
Na5 O3 2.796985 1_555
Na6 O43 2.363179 1_555
Na6 O64 2.363185 1_555
Na6 O42 2.469313 1_455
Na6 O65 2.469320 1_555
Na6 O28 2.581162 1_555
Na6 O7 2.581178 1_555
Na6 O14 2.796985 1_555
Na6 O21 2.796985 1_555
Na7 O65 2.363171 1_555
Na7 O44 2.363187 1_455
Na7 O63 2.469304 1_555
Na7 O43 2.469313 1_565
Na7 O29 2.581154 1_555
Na7 O8 2.581179 1_555
Na7 O12 2.796985 1_455
Na7 O22 2.796985 1_455
Na8 O42 2.363180 1_565
Na8 O63 2.363187 1_555
Na8 O64 2.469305 1_555
Na8 O44 2.469306 1_555
Na8 O27 2.581158 1_555
Na8 O6 2.581176 1_555
Na8 O23 2.796985 1_565
Na8 O13 2.796985 1_565
Na9 O62 2.363171 1_555
Na9 O47 2.363187 1_565
Na9 O61 2.469304 1_555
Na9 O45 2.469313 1_455
Na9 O26 2.581154 1_554
Na9 O11 2.581179 1_555
Na9 O18 2.796985 1_565
Na9 O16 2.796985 1_565
Na10 O45 2.363179 1_555
Na10 O60 2.363185 1_555
Na10 O46 2.469313 1_565
Na10 O62 2.469320 1_555
Na10 O24 2.581162 1_554
Na10 O9 2.581178 1_555
Na10 O17 2.796985 1_555
Na10 O19 2.796985 1_555
Na11 O46 2.363180 1_455
Na11 O61 2.363187 1_555
Na11 O60 2.469305 1_555
Na11 O47 2.469306 1_555
Na11 O25 2.581158 1_554
Na11 O10 2.581176 1_555
Na11 O20 2.796985 1_455
Na11 O15 2.796985 1_455
Na12 O40 2.363180 1_655
Na12 O55 2.363187 1_555
Na12 O54 2.469305 1_555
Na12 O41 2.469306 1_555
Na12 O19 2.581158 1_556
Na12 O4 2.581176 1_555
Na12 O26 2.796985 1_655
Na12 O33 2.796985 1_655
Na13 O56 2.363171 1_555
Na13 O41 2.363187 1_545
Na13 O55 2.469304 1_555
Na13 O39 2.469313 1_655
Na13 O20 2.581154 1_556
Na13 O5 2.581179 1_555
Na13 O24 2.796985 1_545
Na13 O34 2.796985 1_545
Na14 O39 2.363179 1_555
Na14 O54 2.363185 1_555
Na14 O40 2.469313 1_545
Na14 O56 2.469320 1_555
Na14 O18 2.581162 1_556
Na14 O3 2.581178 1_555
Na14 O35 2.796985 1_555
Na14 O25 2.796985 1_555
Na15 O59 2.363171 1_555
Na15 O38 2.363187 1_655
Na15 O57 2.469304 1_555
Na15 O37 2.469313 1_545
Na15 O23 2.581154 1_555
Na15 O2 2.581179 1_555
Na15 O30 2.796985 1_655
Na15 O28 2.796985 1_655
Na16 O36 2.363180 1_545
Na16 O57 2.363187 1_555
Na16 O58 2.469305 1_555
Na16 O38 2.469306 1_555
Na16 O21 2.581158 1_555
Na16 O0 2.581176 1_555
Na16 O29 2.796985 1_545
Na16 O31 2.796985 1_545
Na17 O37 2.363179 1_555
Na17 O58 2.363185 1_555
Na17 O36 2.469313 1_655
Na17 O59 2.469320 1_555
Na17 O22 2.581162 1_555
Na17 O1 2.581178 1_555
Na17 O32 2.796985 1_555
Na17 O27 2.796985 1_555
Na18 O42 2.459817 1_455
Na18 O36 2.459817 1_545
Na18 O44 2.459817 1_445
Na18 O38 2.459817 1_555
Na18 O43 2.459817 1_555
Na18 O37 2.459817 1_445
Na19 O46 2.459817 1_455
Na19 O40 2.459817 1_544
Na19 O47 2.459817 1_555
Na19 O41 2.459817 1_444
Na19 O45 2.459817 1_445
Na19 O39 2.459817 1_554
Na20 O54 2.459817 1_555
Na20 O48 2.459817 1_555
Na20 O56 2.459817 1_555
Na20 O50 2.459817 1_555
Na20 O49 2.459817 1_555
Na20 O55 2.459817 1_555
Na21 O58 2.459817 1_555
Na21 O52 2.459817 1_555
Na21 O59 2.459817 1_555
Na21 O53 2.459817 1_555
Na21 O57 2.459817 1_555
Na21 O51 2.459817 1_555
Na22 O60 2.459817 1_555
Na22 O66 2.459817 1_555
Na22 O62 2.459817 1_555
Na22 O68 2.459817 1_555
Na22 O61 2.459817 1_555
Na22 O67 2.459817 1_555
Na23 O70 2.459817 1_555
Na23 O64 2.459817 1_555
Na23 O71 2.459817 1_555
Na23 O65 2.459817 1_555
Na23 O69 2.459817 1_555
Na23 O63 2.459817 1_555
Ge0 O1 1.875724 1_445
Ge0 O2 1.875724 1_455
Ge0 O0 1.875724 1_555
Ge0 O36 1.953359 1_545
Ge0 O38 1.953359 1_555
Ge0 O37 1.953359 1_445
Ge1 O4 1.875724 1_445
Ge1 O3 1.875724 1_555
Ge1 O5 1.875724 1_455
Ge1 O40 1.953359 1_545
Ge1 O41 1.953359 1_445
Ge1 O39 1.953359 1_555
Ge2 O7 1.875724 1_555
Ge2 O8 1.875724 1_545
Ge2 O6 1.875724 1_445
Ge2 O42 1.953359 1_455
Ge2 O44 1.953359 1_445
Ge2 O43 1.953359 1_555
Ge3 O10 1.875724 1_555
Ge3 O9 1.875724 1_445
Ge3 O11 1.875724 1_545
Ge3 O46 1.953359 1_455
Ge3 O47 1.953359 1_555
Ge3 O45 1.953359 1_445
Ge4 O13 1.875724 1_555
Ge4 O14 1.875724 1_555
Ge4 O12 1.875724 1_555
Ge4 O48 1.953359 1_555
Ge4 O50 1.953359 1_555
Ge4 O49 1.953359 1_555
Ge5 O16 1.875724 1_555
Ge5 O15 1.875724 1_555
Ge5 O17 1.875724 1_555
Ge5 O52 1.953359 1_555
Ge5 O53 1.953359 1_555
Ge5 O51 1.953359 1_555
Ge6 O19 1.875724 1_556
Ge6 O20 1.875724 1_556
Ge6 O18 1.875724 1_556
Ge6 O54 1.953359 1_555
Ge6 O56 1.953359 1_555
Ge6 O55 1.953359 1_555
Ge7 O22 1.875724 1_555
Ge7 O21 1.875724 1_555
Ge7 O23 1.875724 1_555
Ge7 O58 1.953359 1_555
Ge7 O59 1.953359 1_555
Ge7 O57 1.953359 1_555
Ge8 O25 1.875724 1_554
Ge8 O26 1.875724 1_554
Ge8 O24 1.875724 1_554
Ge8 O60 1.953359 1_555
Ge8 O62 1.953359 1_555
Ge8 O61 1.953359 1_555
Ge9 O28 1.875724 1_555
Ge9 O27 1.875724 1_555
Ge9 O29 1.875724 1_555
Ge9 O64 1.953359 1_555
Ge9 O65 1.953359 1_555
Ge9 O63 1.953359 1_555
Ge10 O31 1.875724 1_555
Ge10 O32 1.875724 1_555
Ge10 O30 1.875724 1_555
Ge10 O66 1.953359 1_555
Ge10 O68 1.953359 1_555
Ge10 O67 1.953359 1_555
Ge11 O34 1.875724 1_555
Ge11 O33 1.875724 1_555
Ge11 O35 1.875724 1_555
Ge11 O70 1.953359 1_555
Ge11 O71 1.953359 1_555
Ge11 O69 1.953359 1_555
O0 Si0 1.634242 1_555
O1 Si1 1.634242 1_555
O2 Si2 1.634242 1_555
O3 Si3 1.634242 1_555
O4 Si4 1.634242 1_655
O5 Si5 1.634242 1_555
O6 Si5 1.634242 1_565
O7 Si3 1.634242 1_555
O8 Si4 1.634242 1_555
O9 Si1 1.634242 1_555
O10 Si2 1.634242 1_455
O11 Si0 1.634242 1_565
O12 Si6 1.634242 1_555
O13 Si7 1.634242 1_555
O14 Si8 1.634242 1_555
O15 Si9 1.634242 1_555
O16 Si10 1.634242 1_555
O17 Si11 1.634242 1_555
O18 Si11 1.634242 1_555
O19 Si9 1.634242 1_555
O20 Si10 1.634242 1_555
O21 Si7 1.634242 1_555
O22 Si8 1.634242 1_555
O23 Si6 1.634242 1_555
O24 Si12 1.634242 1_555
O25 Si13 1.634242 1_555
O26 Si14 1.634242 1_555
O27 Si15 1.634242 1_555
O28 Si16 1.634242 1_555
O29 Si17 1.634242 1_555
O30 Si17 1.634242 1_555
O31 Si15 1.634242 1_555
O32 Si16 1.634242 1_555
O33 Si13 1.634242 1_555
O34 Si14 1.634242 1_555
O35 Si12 1.634242 1_555
O36 Si17 1.641418 1_555
O37 Si15 1.641427 1_555
O38 Si16 1.641423 1_555
O39 Si13 1.641427 1_555
O40 Si14 1.641418 1_555
O41 Si12 1.641423 1_555
O42 Si6 1.641418 1_555
O43 Si7 1.641427 1_555
O44 Si8 1.641423 1_555
O45 Si9 1.641427 1_555
O46 Si10 1.641418 1_555
O47 Si11 1.641423 1_555
O48 Si5 1.641418 1_555
O49 Si3 1.641427 1_555
O50 Si4 1.641423 1_655
O51 Si1 1.641427 1_555
O52 Si2 1.641418 1_555
O53 Si0 1.641423 1_555
O54 Si12 1.641430 1_555
O55 Si13 1.641413 1_655
O56 Si14 1.641420 1_545
O57 Si15 1.641413 1_545
O58 Si16 1.641430 1_555
O59 Si17 1.641420 1_655
O60 Si11 1.641430 1_555
O61 Si9 1.641413 1_455
O62 Si10 1.641420 1_565
O63 Si7 1.641413 1_565
O64 Si8 1.641430 1_555
O65 Si6 1.641420 1_455
O66 Si0 1.641418 1_565
O67 Si1 1.641427 1_555
O68 Si2 1.641423 1_455
O69 Si3 1.641427 1_555
O70 Si4 1.641418 1_555
O71 Si5 1.641423 1_565
