# generated using pymatgen
data_Eu2MgFe2O5
_symmetry_space_group_name_H-M   'P 1'
_cell_length_a   7.03281516
_cell_length_b   3.74612997
_cell_length_c   5.86475399
_cell_angle_alpha   90.03633883
_cell_angle_beta   90.07294600
_cell_angle_gamma   89.94980184
_symmetry_Int_Tables_number   1
_chemical_formula_structural   Eu2MgFe2O5
_chemical_formula_sum   'Eu2 Mg1 Fe2 O5'
_cell_volume   154.51165279
_cell_formula_units_Z   1
loop_
 _symmetry_equiv_pos_site_id
 _symmetry_equiv_pos_as_xyz
  1  'x, y, z'
loop_
 _atom_site_type_symbol
 _atom_site_label
 _atom_site_symmetry_multiplicity
 _atom_site_fract_x
 _atom_site_fract_y
 _atom_site_fract_z
 _atom_site_occupancy
  Eu  Eu0  1  0.00052470  0.99986993  0.99990664  1
  Eu  Eu1  1  0.50071876  0.00166767  0.00020550  1
  Mg  Mg0  1  0.49973363  0.99966206  0.50010626  1
  Fe  Fe0  1  0.19752370  0.50028112  0.50174877  1
  Fe  Fe1  1  0.80223900  0.49950032  0.49853899  1
  O  O0  1  0.24634923  0.49975664  0.99903837  1
  O  O1  1  0.75355895  0.49982994  0.00071318  1
  O  O2  1  0.49985433  0.49965142  0.49941976  1
  O  O3  1  0.21276341  0.00025340  0.49990147  1
  O  O4  1  0.78673329  0.99951550  0.50041404  1
loop_
_geom_bond_atom_site_label_1
_geom_bond_atom_site_label_2
_geom_bond_distance
_geom_bond_site_symmetry_2
Eu0 O0 2.548177 1_555
Eu0 O0 2.549784 1_565
Eu0 O1 2.553202 1_466
Eu0 O1 2.555658 1_456
Eu1 O1 2.578827 1_555
Eu1 O0 2.583810 1_554
Eu1 O1 2.586556 1_545
Eu1 O0 2.596424 1_544
Mg0 O2 1.873033 1_565
Mg0 O2 1.873106 1_555
Mg0 O3 2.018207 1_565
Mg0 O4 2.018414 1_555
Fe0 O3 1.876158 1_565
Fe0 O3 1.876164 1_555
Fe0 O2 2.126296 1_555
Fe1 O4 1.876224 1_555
Fe1 O4 1.876315 1_545
Fe1 O2 2.126628 1_555
