# generated using pymatgen
data_Na10Y4Hf4Si7S5O48
_symmetry_space_group_name_H-M   'P 1'
_cell_length_a   18.49836758
_cell_length_b   9.23712369
_cell_length_c   23.09749309
_cell_angle_alpha   90.01379856
_cell_angle_beta   89.13766613
_cell_angle_gamma   119.76320267
_symmetry_Int_Tables_number   1
_chemical_formula_structural   Na10Y4Hf4Si7S5O48
_chemical_formula_sum   'Na30 Y12 Hf12 Si21 S15 O144'
_cell_volume   3425.56906505
_cell_formula_units_Z   3
loop_
 _symmetry_equiv_pos_site_id
 _symmetry_equiv_pos_as_xyz
  1  'x, y, z'
loop_
 _atom_site_type_symbol
 _atom_site_label
 _atom_site_symmetry_multiplicity
 _atom_site_fract_x
 _atom_site_fract_y
 _atom_site_fract_z
 _atom_site_occupancy
  Na  Na0  1  0.18414551  0.37330720  0.23840496  1
  Na  Na1  1  0.68426357  0.37454896  0.23852228  1
  Na  Na2  1  0.99077872  0.62985195  0.25688627  1
  Na  Na3  1  0.49199267  0.63013038  0.25671396  1
  Na  Na4  1  0.49113295  0.34731013  0.76276604  1
  Na  Na5  1  0.18458376  0.99716704  0.74272462  1
  Na  Na6  1  0.68310374  0.99655725  0.74240653  1
  Na  Na7  1  0.66281932  0.34471648  0.57776438  1
  Na  Na8  1  0.01675413  0.70644651  0.57673742  1
  Na  Na9  1  0.82497455  0.95936971  0.59377298  1
  Na  Na10  1  0.49610705  0.67709169  0.91046639  1
  Na  Na11  1  0.99775278  0.67727387  0.90930479  1
  Na  Na12  1  0.84934815  0.03709783  0.90486485  1
  Na  Na13  1  0.15576206  0.29561152  0.92577734  1
  Na  Na14  1  0.49523665  0.31668623  0.40924106  1
  Na  Na15  1  0.99221539  0.31122439  0.40971938  1
  Na  Na16  1  0.34758606  0.65976385  0.40392389  1
  Na  Na17  1  0.84975448  0.66440818  0.40906564  1
  Na  Na18  1  0.02769194  0.01012911  0.49757576  1
  Na  Na19  1  0.52388630  0.98866693  0.49556190  1
  Na  Na20  1  0.01652404  0.02537640  0.00114994  1
  Na  Na21  1  0.52472110  0.05737505  0.99571653  1
  Na  Na22  1  0.34377287  0.32186677  0.83398571  1
  Na  Na23  1  0.85088315  0.33860873  0.82616614  1
  Na  Na24  1  0.33982598  0.33659328  0.32926341  1
  Na  Na25  1  0.83818971  0.33480505  0.33169316  1
  Na  Na26  1  0.17863144  0.65283411  0.16329660  1
  Na  Na27  1  0.67813730  0.65343954  0.16383151  1
  Na  Na28  1  0.17792199  0.69200251  0.67018713  1
  Na  Na29  1  0.67666479  0.69008118  0.66717150  1
  Y  Y0  1  0.00143342  0.99833553  0.35119979  1
  Y  Y1  1  0.50188320  0.00007706  0.35017174  1
  Y  Y2  1  0.99807073  -0.00046078  0.84762762  1
  Y  Y3  1  0.49605139  0.00158768  0.85396098  1
  Y  Y4  1  0.33292600  0.33058420  0.68526874  1
  Y  Y5  1  0.83599527  0.33788212  0.68681838  1
  Y  Y6  1  0.33392772  0.33774453  0.18256268  1
  Y  Y7  1  0.83367071  0.33755291  0.18281414  1
  Y  Y8  1  0.16126992  0.65504748  0.01944943  1
  Y  Y9  1  0.65990199  0.65053195  0.02036784  1
  Y  Y10  1  0.16548758  0.67293194  0.51839350  1
  Y  Y11  1  0.65996128  0.66966335  0.51886566  1
  Hf  Hf0  1  0.99677275  0.98385862  0.65020559  1
  Hf  Hf1  1  0.49637473  0.97851448  0.64958846  1
  Hf  Hf2  1  0.99833923  0.01455055  0.14819839  1
  Hf  Hf3  1  0.49814721  0.01298759  0.14785319  1
  Hf  Hf4  1  0.32802860  0.31772742  0.98029741  1
  Hf  Hf5  1  0.82466089  0.32322069  0.98036822  1
  Hf  Hf6  1  0.32549816  0.32727246  0.48020882  1
  Hf  Hf7  1  0.82768522  0.34424881  0.48076558  1
  Hf  Hf8  1  0.16440965  0.64988902  0.31426398  1
  Hf  Hf9  1  0.66333918  0.65081604  0.31479392  1
  Hf  Hf10  1  0.16238434  0.67880975  0.81364273  1
  Hf  Hf11  1  0.66454251  0.67838289  0.81459457  1
  Si  Si0  1  0.35073352  0.70943497  0.25099830  1
  Si  Si1  1  0.85098548  0.71000158  0.25116797  1
  Si  Si2  1  0.00000178  0.29923575  0.25403651  1
  Si  Si3  1  0.50017989  0.29943997  0.25374560  1
  Si  Si4  1  0.00134099  0.69908972  0.75344230  1
  Si  Si5  1  0.50041116  0.69950895  0.75477147  1
  Si  Si6  1  0.35109347  0.99170117  0.74872464  1
  Si  Si7  1  0.84706187  0.99106265  0.75166288  1
  Si  Si8  1  0.18201976  0.03686962  0.58834344  1
  Si  Si9  1  0.68359049  0.04323352  0.58759630  1
  Si  Si10  1  0.83449669  0.63462737  0.58256075  1
  Si  Si11  1  0.18147458  0.32665592  0.08655328  1
  Si  Si12  1  0.68109077  0.32601585  0.08876728  1
  Si  Si13  1  0.01760859  0.37283734  0.91731227  1
  Si  Si14  1  0.51513373  0.37167514  0.91613364  1
  Si  Si15  1  0.16764984  0.96543615  0.91690784  1
  Si  Si16  1  0.66828070  0.96431341  0.91882470  1
  Si  Si17  1  0.16753662  0.37052856  0.41804351  1
  Si  Si18  1  0.66697244  0.36820681  0.42021732  1
  Si  Si19  1  0.01582849  0.66039435  0.41863391  1
  Si  Si20  1  0.51350047  0.65978827  0.41550251  1
  S  S0  1  0.14482032  0.99007284  0.24686704  1
  S  S1  1  0.64519325  0.98968337  0.24667098  1
  S  S2  1  0.14496568  0.30342772  0.74880021  1
  S  S3  1  0.64214258  0.29450606  0.74682271  1
  S  S4  1  0.47785906  0.31678127  0.58153893  1
  S  S5  1  0.97867690  0.32270877  0.57966087  1
  S  S6  1  0.33889267  0.63436317  0.58079255  1
  S  S7  1  0.47874221  0.64081183  0.08263012  1
  S  S8  1  0.97860912  0.64047705  0.08196658  1
  S  S9  1  0.33781694  0.04223750  0.08302962  1
  S  S10  1  0.83811697  0.04269288  0.08152316  1
  S  S11  1  0.30940452  0.65458572  0.91677387  1
  S  S12  1  0.81074351  0.65640501  0.91695472  1
  S  S13  1  0.31124668  0.96659050  0.41535832  1
  S  S14  1  0.81023908  0.96515166  0.41621880  1
  O  O0  1  0.10943915  0.02182517  0.30010004  1
  O  O1  1  0.60991692  0.02176707  0.30000554  1
  O  O2  1  0.40289143  0.77763494  0.31019054  1
  O  O3  1  0.90444532  0.77799066  0.30989796  1
  O  O4  1  0.49080723  0.20562923  0.31448395  1
  O  O5  1  0.99156727  0.20467588  0.31437127  1
  O  O6  1  0.11022018  0.20851304  0.80404541  1
  O  O7  1  0.60258098  0.18927732  0.79870029  1
  O  O8  1  0.49186542  0.77980944  0.81406441  1
  O  O9  1  0.99727406  0.78321123  0.81379603  1
  O  O10  1  0.41424040  0.04190728  0.80139186  1
  O  O11  1  0.89567057  0.00999626  0.81117976  1
  O  O12  1  0.40161812  0.97781825  0.69032275  1
  O  O13  1  0.90175090  0.98731665  0.69358316  1
  O  O14  1  0.09098322  0.20859886  0.69945556  1
  O  O15  1  0.59054575  0.20859446  0.69396645  1
  O  O16  1  0.01289619  0.82672109  0.69787021  1
  O  O17  1  0.51276678  0.82679796  0.69881470  1
  O  O18  1  0.40714865  0.82937859  0.19606733  1
  O  O19  1  0.90686021  0.83079262  0.19589941  1
  O  O20  1  0.01477950  0.19835235  0.19933002  1
  O  O21  1  0.51387814  0.19606771  0.19950744  1
  O  O22  1  0.09127128  0.97259132  0.19636917  1
  O  O23  1  0.59154309  0.97229740  0.19638707  1
  O  O24  1  0.43774230  0.33597985  0.63475407  1
  O  O25  1  0.93738311  0.34634625  0.63117748  1
  O  O26  1  0.22981069  0.11822835  0.64744627  1
  O  O27  1  0.73274208  0.11671400  0.64708722  1
  O  O28  1  0.32932307  0.53365653  0.63290997  1
  O  O29  1  0.81878652  0.50718407  0.63403860  1
  O  O30  1  0.44000052  0.54275828  0.13671369  1
  O  O31  1  0.93946035  0.54342844  0.13595116  1
  O  O32  1  0.32857879  0.11954387  0.13542498  1
  O  O33  1  0.82986005  0.12480730  0.13324995  1
  O  O34  1  0.22770953  0.33295713  0.14646156  1
  O  O35  1  0.72603035  0.33202863  0.14924857  1
  O  O36  1  0.23674934  0.31413916  0.02984096  1
  O  O37  1  0.73969972  0.31554670  0.03416752  1
  O  O38  1  0.42872382  0.54705749  0.03131735  1
  O  O39  1  0.92932933  0.54847168  0.03034967  1
  O  O40  1  0.34750231  0.14970196  0.03075370  1
  O  O41  1  0.84791278  0.14652174  0.02813235  1
  O  O42  1  0.23955931  0.15873029  0.53226141  1
  O  O43  1  0.73854754  0.17401456  0.53271054  1
  O  O44  1  0.34713401  0.54656927  0.52744077  1
  O  O45  1  0.85027015  0.54999576  0.52238168  1
  O  O46  1  0.42968371  0.31244955  0.52912755  1
  O  O47  1  0.92924124  0.30737689  0.52651613  1
  O  O48  1  0.27311864  0.67837585  0.97052770  1
  O  O49  1  0.77326393  0.67945412  0.97010750  1
  O  O50  1  0.08009285  0.44551455  0.97110783  1
  O  O51  1  0.57112443  0.46287615  0.97082751  1
  O  O52  1  0.15250637  0.84204469  0.97006011  1
  O  O53  1  0.66376128  0.85271784  0.97270377  1
  O  O54  1  0.27366420  0.87022624  0.46880168  1
  O  O55  1  0.77393187  0.87033593  0.47063565  1
  O  O56  1  0.16100293  0.47227136  0.47172115  1
  O  O57  1  0.65984875  0.45451374  0.47898516  1
  O  O58  1  0.06525367  0.68166462  0.47798751  1
  O  O59  1  0.56965301  0.68435749  0.47008955  1
  O  O60  1  0.06954598  0.64620580  0.36155656  1
  O  O61  1  0.56197610  0.64205434  0.35595076  1
  O  O62  1  0.25965362  0.88382084  0.36412863  1
  O  O63  1  0.75718396  0.87604598  0.36568712  1
  O  O64  1  0.18377903  0.48986517  0.35888326  1
  O  O65  1  0.67873820  0.49383563  0.36378088  1
  O  O66  1  0.06771809  0.49887275  0.86124794  1
  O  O67  1  0.56318095  0.48812922  0.85655556  1
  O  O68  1  0.17848524  0.87839494  0.85662288  1
  O  O69  1  0.68406241  0.87588106  0.85947907  1
  O  O70  1  0.25777129  0.63542472  0.86578645  1
  O  O71  1  0.75964175  0.63518992  0.86529809  1
  O  O72  1  0.99412056  0.81051027  0.41473643  1
  O  O73  1  0.49003923  0.80780771  0.41362085  1
  O  O74  1  0.39591271  0.98736247  0.40996980  1
  O  O75  1  0.89461439  0.98135279  0.41017470  1
  O  O76  1  0.08445213  0.18940842  0.41460931  1
  O  O77  1  0.58392456  0.18707679  0.41445635  1
  O  O78  1  -0.00275577  0.18003374  0.91173201  1
  O  O79  1  0.49670201  0.18213435  0.91440234  1
  O  O80  1  0.08867612  0.99992745  0.91387129  1
  O  O81  1  0.58506571  0.97956563  0.91445567  1
  O  O82  1  0.39635238  0.79095194  0.91124107  1
  O  O83  1  0.89632195  0.80353236  0.91122978  1
  O  O84  1  0.48462740  0.16211462  0.58424934  1
  O  O85  1  0.98264863  0.16528288  0.58529582  1
  O  O86  1  0.08883023  0.02432178  0.58869982  1
  O  O87  1  0.59226994  0.04031482  0.58909018  1
  O  O88  1  0.41905164  0.79947312  0.58425649  1
  O  O89  1  0.92129515  0.81795539  0.59032066  1
  O  O90  1  0.48232672  0.80605818  0.08642498  1
  O  O91  1  0.98320924  0.80708867  0.08534909  1
  O  O92  1  0.41660218  0.03157778  0.08612834  1
  O  O93  1  0.91761243  0.03292502  0.08550849  1
  O  O94  1  0.08855143  0.15241908  0.08855113  1
  O  O95  1  0.58852651  0.15234580  0.08913609  1
  O  O96  1  0.33297353  0.14951032  0.74463204  1
  O  O97  1  0.82567603  0.14246785  0.74894695  1
  O  O98  1  0.22930944  0.32024446  0.74251576  1
  O  O99  1  0.72643765  0.31665674  0.74204894  1
  O  O100  1  0.42592127  0.50809309  0.74625741  1
  O  O101  1  0.92274209  0.51513013  0.74797364  1
  O  O102  1  0.33365872  0.51629160  0.24586580  1
  O  O103  1  0.83482545  0.51780851  0.24544653  1
  O  O104  1  0.42486209  0.34055473  0.24591430  1
  O  O105  1  0.92464785  0.33984573  0.24614191  1
  O  O106  1  0.23071612  0.13289960  0.24069983  1
  O  O107  1  0.73128895  0.13246253  0.24070071  1
  O  O108  1  0.31242530  0.49131591  0.92195881  1
  O  O109  1  0.82186075  0.50396795  0.92258687  1
  O  O110  1  0.42610570  0.38002011  0.92350790  1
  O  O111  1  0.92793523  0.37390180  0.92660944  1
  O  O112  1  0.25242146  0.15351897  0.92362600  1
  O  O113  1  0.75650672  0.14972355  0.92347573  1
  O  O114  1  0.32163411  0.13998868  0.42071499  1
  O  O115  1  0.82147324  0.13739390  0.41985270  1
  O  O116  1  0.25513715  0.36079760  0.42336483  1
  O  O117  1  0.75579894  0.36237309  0.41977817  1
  O  O118  1  0.42358274  0.47643524  0.42237109  1
  O  O119  1  0.92636195  0.47656060  0.42056754  1
  O  O120  1  0.17220013  0.49249356  0.08393840  1
  O  O121  1  0.67206739  0.49148698  0.08523169  1
  O  O122  1  0.06439460  0.66420873  0.07931004  1
  O  O123  1  0.56461487  0.66632391  0.08005750  1
  O  O124  1  0.26509682  0.87260156  0.07692196  1
  O  O125  1  0.76620989  0.87265160  0.07729080  1
  O  O126  1  0.16420477  0.84434932  0.58451486  1
  O  O127  1  0.67645440  0.86183501  0.58073113  1
  O  O128  1  0.26775228  0.66219345  0.57636719  1
  O  O129  1  0.75548759  0.66595895  0.57896678  1
  O  O130  1  0.06340237  0.47125482  0.57649113  1
  O  O131  1  0.56454484  0.46288579  0.57965270  1
  O  O132  1  0.14602017  0.82929141  0.25258046  1
  O  O133  1  0.64673464  0.82954925  0.25227439  1
  O  O134  1  0.25804906  0.69726595  0.25519750  1
  O  O135  1  0.75791499  0.69580935  0.25639437  1
  O  O136  1  0.08917683  0.48519588  0.25521109  1
  O  O137  1  0.58993567  0.48406484  0.25490835  1
  O  O138  1  0.15286682  0.47132036  0.75217043  1
  O  O139  1  0.64449543  0.45855451  0.75137231  1
  O  O140  1  0.09213859  0.69955990  0.75203078  1
  O  O141  1  0.59036193  0.69533664  0.75442522  1
  O  O142  1  0.25980280  0.81972482  0.75617635  1
  O  O143  1  0.75599360  0.81211872  0.75375750  1
loop_
_geom_bond_atom_site_label_1
_geom_bond_atom_site_label_2
_geom_bond_distance
_geom_bond_site_symmetry_2
Na0 O34 2.354695 1_555
Na0 O102 2.410602 1_555
Na0 O136 2.467190 1_555
Na0 O134 2.632088 1_555
Na0 O106 2.752661 1_555
Na0 O20 2.880879 1_555
Na0 O64 2.984654 1_555
Na1 O35 2.292593 1_555
Na1 O103 2.426497 1_555
Na1 O137 2.437987 1_555
Na1 O135 2.614399 1_555
Na1 O107 2.773522 1_555
Na1 O21 2.896550 1_555
Na2 O105 2.342956 1_555
Na2 O132 2.527747 1_655
Na2 O103 2.553815 1_555
Na2 O136 2.740927 1_655
Na2 O60 2.806791 1_655
Na2 O3 2.834113 1_555
Na2 O31 2.944032 1_555
Na3 O104 2.338862 1_555
Na3 O133 2.520645 1_555
Na3 O102 2.590607 1_555
Na3 O61 2.624789 1_555
Na3 O137 2.743976 1_555
Na3 O2 2.875121 1_555
Na3 O30 2.926982 1_555
Na4 O100 2.366257 1_555
Na4 O139 2.501369 1_555
Na4 O67 2.554502 1_555
Na4 O10 2.599342 1_555
Na4 O96 2.608198 1_555
Na4 O141 2.805737 1_555
Na5 O96 2.384446 1_565
Na5 O26 2.410476 1_565
Na5 O140 2.418597 1_555
Na5 O142 2.645120 1_555
Na5 O98 2.671915 1_565
Na5 O68 2.829643 1_555
Na5 O16 2.961852 1_555
Na6 O97 2.297339 1_565
Na6 O27 2.418826 1_565
Na6 O141 2.451303 1_555
Na6 O99 2.651775 1_565
Na6 O143 2.660985 1_555
Na6 O69 2.928729 1_555
Na6 O17 2.930932 1_555
Na7 O87 2.454512 1_555
Na7 O57 2.509451 1_555
Na7 O131 2.542814 1_555
Na7 O129 2.587599 1_555
Na7 O43 2.771267 1_555
Na7 O29 2.842329 1_555
Na7 O84 2.863220 1_555
Na7 O15 2.965934 1_555
Na8 O126 2.379021 1_555
Na8 O89 2.463033 1_455
Na8 O58 2.490331 1_555
Na8 O86 2.568943 1_565
Na8 O130 2.706563 1_555
Na9 O129 2.380914 1_555
Na9 O127 2.453126 1_555
Na9 O85 2.576501 1_565
Na9 O13 2.670708 1_555
Na9 O89 2.682136 1_555
Na9 O27 2.989584 1_565
Na9 O55 2.994312 1_555
Na10 O110 2.399650 1_555
Na10 O8 2.438143 1_555
Na10 O81 2.441816 1_555
Na10 O82 2.537217 1_555
Na10 O67 2.870420 1_555
Na10 O108 2.957104 1_555
Na11 O9 2.415445 1_555
Na11 O111 2.464207 1_555
Na11 O80 2.598278 1_655
Na11 O83 2.655696 1_555
Na11 O66 2.774196 1_655
Na11 O109 2.835897 1_555
Na11 O52 2.876598 1_655
Na12 O11 2.374080 1_555
Na12 O78 2.383248 1_655
Na12 O113 2.442959 1_555
Na12 O83 2.701228 1_545
Na12 O111 2.752356 1_555
Na12 O69 2.870567 1_545
Na12 O41 3.025179 1_556
Na13 O80 2.391703 1_545
Na13 O108 2.542689 1_555
Na13 O78 2.600745 1_555
Na13 O50 2.617708 1_555
Na13 O112 2.692510 1_555
Na13 O36 2.811523 1_556
Na13 O6 2.942781 1_555
Na14 O4 2.402111 1_555
Na14 O118 2.440472 1_555
Na14 O77 2.468892 1_555
Na14 O74 2.660797 1_545
Na14 O114 2.796021 1_555
Na14 O61 2.888634 1_555
Na14 O46 2.998606 1_555
Na15 O119 2.391008 1_555
Na15 O5 2.409765 1_555
Na15 O76 2.470246 1_655
Na15 O75 2.661187 1_545
Na15 O115 2.748021 1_555
Na15 O60 2.901287 1_655
Na15 O47 2.915527 1_555
Na16 O73 2.303067 1_555
Na16 O2 2.397481 1_555
Na16 O116 2.457889 1_555
Na16 O74 2.700650 1_555
Na16 O118 2.721677 1_555
Na16 O64 2.846018 1_555
Na17 O72 2.324319 1_555
Na17 O117 2.457408 1_555
Na17 O3 2.499673 1_555
Na17 O75 2.617059 1_555
Na17 O119 2.746356 1_555
Na17 O45 2.824791 1_555
Na17 O65 2.955421 1_555
Na18 O86 2.377075 1_555
Na18 O76 2.394113 1_555
Na18 O72 2.518700 1_445
Na18 O85 2.826090 1_455
Na18 O89 2.831942 1_445
Na19 O73 2.400144 1_555
Na19 O87 2.444819 1_565
Na19 O77 2.453553 1_565
Na19 O88 2.743921 1_555
Na19 O84 2.898158 1_565
Na20 O94 2.398997 1_555
Na20 O80 2.476063 1_544
Na20 O91 2.638137 1_445
Na20 O78 2.638767 1_554
Na20 O93 2.677407 1_455
Na21 O79 2.397403 1_555
Na21 O95 2.422053 1_556
Na21 O81 2.453229 1_545
Na21 O92 2.796277 1_556
Na21 O90 2.922177 1_546
Na22 O110 2.483081 1_555
Na22 O96 2.555218 1_555
Na22 O100 2.586097 1_555
Na22 O112 2.616845 1_555
Na22 O108 2.789117 1_555
Na22 O98 3.008371 1_555
Na23 O101 2.337675 1_555
Na23 O97 2.421942 1_555
Na23 O111 2.675452 1_555
Na23 O113 2.829022 1_555
Na23 O109 2.890971 1_555
Na23 O99 2.964175 1_555
Na24 O104 2.456362 1_555
Na24 O102 2.583597 1_555
Na24 O118 2.608816 1_555
Na24 O114 2.691995 1_555
Na24 O116 2.733751 1_555
Na24 O106 2.854898 1_555
Na25 O105 2.509119 1_555
Na25 O119 2.562778 1_555
Na25 O117 2.611287 1_555
Na25 O103 2.634312 1_555
Na25 O115 2.643896 1_555
Na25 O107 2.876567 1_555
Na26 O120 2.323334 1_555
Na26 O134 2.515408 1_555
Na26 O136 2.644806 1_555
Na26 O124 2.709552 1_555
Na26 O132 2.865424 1_555
Na26 O122 2.929794 1_555
Na27 O121 2.320453 1_555
Na27 O135 2.534380 1_555
Na27 O137 2.626608 1_555
Na27 O125 2.716355 1_555
Na27 O133 2.838609 1_555
Na27 O123 2.922113 1_555
Na28 O142 2.438459 1_555
Na28 O140 2.473085 1_555
Na28 O126 2.516231 1_555
Na28 O138 2.644493 1_555
Na28 O128 2.806888 1_555
Na29 O143 2.422546 1_555
Na29 O127 2.551697 1_555
Na29 O129 2.561101 1_555
Na29 O141 2.567626 1_555
Na29 O139 2.722845 1_555
Na29 O131 2.931708 1_555
Hf0 O16 1.961716 1_655
Hf0 O13 2.024167 1_555
Hf0 O89 2.035652 1_555
Hf0 O86 2.086459 1_665
Hf0 O14 2.259948 1_665
Hf0 O85 2.360545 1_565
Hf1 O17 1.944675 1_555
Hf1 O12 1.974053 1_555
Hf1 O87 2.084613 1_565
Hf1 O88 2.184791 1_555
Hf1 O15 2.231378 1_565
Hf1 O84 2.361783 1_565
Hf2 O20 1.966473 1_655
Hf2 O19 2.012872 1_545
Hf2 O94 2.031349 1_655
Hf2 O93 2.161546 1_555
Hf2 O22 2.250049 1_645
Hf2 O91 2.310073 1_545
Hf3 O21 1.972043 1_555
Hf3 O18 2.014999 1_545
Hf3 O95 2.021733 1_555
Hf3 O92 2.158593 1_555
Hf3 O23 2.255215 1_545
Hf3 O90 2.282134 1_545
Hf4 O112 1.979432 1_555
Hf4 O36 2.011959 1_556
Hf4 O110 2.058027 1_555
Hf4 O40 2.113171 1_556
Hf4 O108 2.223134 1_555
Hf4 O38 2.343727 1_556
Hf5 O37 1.962107 1_556
Hf5 O113 1.981788 1_555
Hf5 O111 2.109871 1_555
Hf5 O109 2.158791 1_555
Hf5 O41 2.185939 1_556
Hf5 O39 2.340342 1_556
Hf6 O42 1.970441 1_555
Hf6 O116 1.991387 1_555
Hf6 O118 2.102626 1_555
Hf6 O44 2.158897 1_555
Hf6 O114 2.182942 1_555
Hf6 O46 2.310276 1_555
Hf7 O45 1.983264 1_555
Hf7 O43 1.999539 1_555
Hf7 O117 2.014493 1_555
Hf7 O119 2.113867 1_555
Hf7 O115 2.330063 1_555
Hf7 O47 2.336036 1_555
Hf8 O64 1.978166 1_555
Hf8 O136 2.016355 1_555
Hf8 O60 2.038826 1_555
Hf8 O134 2.056642 1_555
Hf8 O62 2.319486 1_555
Hf8 O132 2.338201 1_555
Hf9 O65 1.970940 1_555
Hf9 O137 2.026953 1_555
Hf9 O61 2.054694 1_555
Hf9 O135 2.064050 1_555
Hf9 O63 2.279974 1_555
Hf9 O133 2.328803 1_555
Hf10 O68 1.983916 1_555
Hf10 O140 2.013329 1_555
Hf10 O66 2.022714 1_555
Hf10 O142 2.074503 1_555
Hf10 O138 2.321973 1_555
Hf10 O70 2.343264 1_555
Hf11 O69 1.972217 1_555
Hf11 O141 2.027267 1_555
Hf11 O143 2.053504 1_555
Hf11 O67 2.053794 1_555
Hf11 O71 2.320456 1_555
Hf11 O139 2.379168 1_555
O0 S0 1.480665 1_545
O0 Y0 2.220496 1_545
O1 S1 1.482854 1_545
O1 Y1 2.215725 1_555
O2 Si0 1.622595 1_555
O2 Y1 2.177681 1_565
O3 Si1 1.623535 1_555
O3 Y0 2.167181 1_655
O4 Si3 1.610340 1_555
O4 Y1 2.172239 1_555
O5 Si2 1.608753 1_655
O5 Y0 2.177276 1_645
O6 S2 1.492113 1_555
O6 Y2 2.237300 1_455
O7 S3 1.477863 1_555
O7 Y3 2.247580 1_555
O8 Si5 1.600052 1_555
O8 Y3 2.212613 1_565
O9 Si4 1.614653 1_655
O9 Y2 2.138737 1_565
O10 Si6 1.601265 1_545
O10 Y3 2.125662 1_555
O11 Si7 1.615502 1_545
O11 Y2 2.129759 1_555
O12 Si6 1.670497 1_555
O13 Si7 1.678732 1_555
O14 S2 1.492916 1_555
O15 S3 1.521125 1_555
O16 Si4 1.680906 1_555
O17 Si5 1.682318 1_555
O18 Si0 1.655067 1_555
O19 Si1 1.660978 1_555
O20 Si2 1.667845 1_555
O21 Si3 1.665979 1_555
O22 S0 1.497868 1_555
O23 S1 1.495332 1_555
O24 S4 1.481901 1_555
O24 Y4 2.226939 1_555
O25 S5 1.478224 1_555
O25 Y5 2.226480 1_555
O26 Si8 1.608141 1_555
O26 Y4 2.140995 1_555
O27 Si9 1.612439 1_555
O27 Y5 2.200393 1_555
O28 S6 1.475265 1_555
O28 Y4 2.261254 1_555
O29 Si10 1.592054 1_555
O29 Y5 2.130733 1_555
O30 S7 1.491170 1_555
O30 Y6 2.192499 1_555
O31 S8 1.487167 1_555
O31 Y7 2.204560 1_555
O32 S9 1.455414 1_555
O32 Y6 2.249846 1_555
O33 S10 1.461231 1_555
O33 Y7 2.245264 1_555
O34 Si11 1.623498 1_555
O34 Y6 2.126258 1_555
O35 Si12 1.623192 1_555
O35 Y7 2.124616 1_555
O36 Si11 1.688702 1_555
O37 Si12 1.684658 1_555
O38 S7 1.499249 1_555
O39 S8 1.495899 1_555
O40 S9 1.514228 1_555
O41 S10 1.514838 1_555
O42 Si8 1.687484 1_555
O43 Si9 1.686009 1_555
O44 S6 1.521860 1_555
O45 Si10 1.685844 1_555
O46 S4 1.502766 1_555
O47 S5 1.506065 1_555
O48 S11 1.470234 1_555
O48 Y8 2.256368 1_556
O49 S12 1.467670 1_555
O49 Y9 2.277530 1_556
O50 Si13 1.613390 1_555
O50 Y8 2.100382 1_556
O51 Si14 1.597165 1_555
O51 Y9 2.059199 1_556
O52 Si15 1.599409 1_555
O52 Y8 2.143778 1_556
O53 Si16 1.590666 1_555
O53 Y9 2.138074 1_556
O54 S13 1.469598 1_555
O54 Y10 2.224628 1_555
O55 S14 1.479540 1_555
O55 Y11 2.274224 1_555
O56 Si17 1.594586 1_555
O56 Y10 2.110361 1_555
O57 Si18 1.610541 1_555
O57 Y11 2.189334 1_555
O58 Si19 1.616537 1_555
O58 Y10 2.125101 1_555
O59 Si20 1.589143 1_555
O59 Y11 2.088125 1_555
O60 Si19 1.682975 1_555
O61 Si20 1.682716 1_555
O62 S13 1.484806 1_555
O63 S14 1.494968 1_555
O64 Si17 1.682894 1_555
O65 Si18 1.683645 1_555
O66 Si13 1.668730 1_555
O67 Si14 1.689800 1_555
O68 Si15 1.666293 1_555
O69 Si16 1.689846 1_555
O70 S11 1.482043 1_555
O71 S12 1.485089 1_555
O72 Si19 1.626684 1_655
O72 Y0 2.223579 1_655
O73 Si20 1.627701 1_555
O73 Y1 2.226035 1_565
O74 S13 1.483585 1_555
O74 Y1 2.335417 1_565
O75 S14 1.496512 1_555
O75 Y0 2.322917 1_655
O76 Si17 1.618077 1_555
O76 Y0 2.234719 1_545
O77 Si18 1.622109 1_555
O77 Y1 2.226094 1_555
O78 Si13 1.632657 1_555
O78 Y2 2.235111 1_455
O79 Si14 1.609626 1_555
O79 Y3 2.170223 1_555
O80 Si15 1.644934 1_555
O80 Y2 2.285055 1_465
O81 Si16 1.618520 1_555
O81 Y3 2.259881 1_565
O82 S11 1.473893 1_555
O82 Y3 2.302722 1_565
O83 S12 1.492753 1_555
O83 Y2 2.348083 1_565
O84 S4 1.496188 1_555
O85 S5 1.497791 1_555
O86 Si8 1.669244 1_555
O87 Si9 1.675893 1_555
O88 S6 1.513079 1_555
O89 Si10 1.669385 1_555
O90 S7 1.497199 1_555
O91 S8 1.500674 1_555
O92 S9 1.511438 1_555
O93 S10 1.521480 1_555
O94 Si11 1.672756 1_555
O95 Si12 1.666697 1_555
O96 Si6 1.652970 1_545
O96 Y4 2.163385 1_555
O97 Si7 1.632933 1_545
O97 Y5 2.237157 1_555
O98 S2 1.494008 1_555
O98 Y4 2.274511 1_555
O99 S3 1.470910 1_555
O99 Y5 2.302364 1_555
O100 Si5 1.628728 1_555
O100 Y4 2.214406 1_555
O101 Si4 1.603090 1_655
O101 Y5 2.170144 1_555
O102 Si0 1.654794 1_555
O102 Y6 2.205611 1_555
O103 Si1 1.653098 1_555
O103 Y7 2.197745 1_555
O104 Si3 1.628213 1_555
O104 Y6 2.236542 1_555
O105 Si2 1.625981 1_655
O105 Y7 2.238508 1_555
O106 S0 1.482424 1_545
O106 Y6 2.316472 1_555
O107 S1 1.484238 1_545
O107 Y7 2.307869 1_555
O108 S11 1.541402 1_555
O109 S12 1.526531 1_555
O110 Si14 1.692552 1_555
O111 Si13 1.674316 1_655
O112 Si15 1.674462 1_545
O113 Si16 1.684749 1_545
O114 S13 1.520767 1_545
O115 S14 1.501259 1_545
O116 Si17 1.673234 1_555
O117 Si18 1.670431 1_555
O118 Si20 1.689844 1_555
O119 Si19 1.682893 1_655
O120 Si11 1.625105 1_555
O120 Y8 2.196759 1_555
O121 Si12 1.620045 1_555
O121 Y9 2.189288 1_555
O122 S8 1.490552 1_455
O122 Y8 2.281697 1_555
O123 S7 1.485905 1_555
O123 Y9 2.282769 1_555
O124 S9 1.482447 1_565
O124 Y8 2.394338 1_555
O125 S10 1.474958 1_565
O125 Y9 2.424078 1_555
O126 Si8 1.642513 1_565
O126 Y10 2.207993 1_555
O127 Si9 1.622068 1_565
O127 Y11 2.181783 1_555
O128 S6 1.465701 1_555
O128 Y10 2.375740 1_555
O129 Si10 1.627996 1_555
O129 Y11 2.276993 1_555
O130 S5 1.485253 1_455
O130 Y10 2.295531 1_555
O131 S4 1.497982 1_555
O131 Y11 2.305314 1_555
O132 S0 1.502169 1_555
O133 S1 1.499203 1_555
O134 Si0 1.662904 1_555
O135 Si1 1.662983 1_555
O136 Si2 1.691324 1_555
O137 Si3 1.689943 1_555
O138 S2 1.485861 1_555
O139 S3 1.497919 1_555
O140 Si4 1.677281 1_555
O141 Si5 1.683307 1_555
O142 Si6 1.653156 1_555
O143 Si7 1.674942 1_555
