# generated using pymatgen
data_Na7Al2Si3Ge2(PO8)3
_symmetry_space_group_name_H-M   'P 1'
_cell_length_a   8.69771386
_cell_length_b   8.67989040
_cell_length_c   21.58923572
_cell_angle_alpha   89.78283337
_cell_angle_beta   89.65527659
_cell_angle_gamma   119.95287286
_symmetry_Int_Tables_number   1
_chemical_formula_structural   Na7Al2Si3Ge2(PO8)3
_chemical_formula_sum   'Na21 Al6 Si9 Ge6 P9 O72'
_cell_volume   1412.12157053
_cell_formula_units_Z   3
loop_
 _symmetry_equiv_pos_site_id
 _symmetry_equiv_pos_as_xyz
  1  'x, y, z'
loop_
 _atom_site_type_symbol
 _atom_site_label
 _atom_site_symmetry_multiplicity
 _atom_site_fract_x
 _atom_site_fract_y
 _atom_site_fract_z
 _atom_site_occupancy
  Na  Na0  1  0.63325112  0.00191766  0.25135513  1
  Na  Na1  1  0.36687364  0.36857530  0.24870989  1
  Na  Na2  1  0.99991314  0.62766648  0.24988859  1
  Na  Na3  1  0.63219753  0.63529211  0.74978215  1
  Na  Na4  1  0.99607256  0.36402156  0.74901069  1
  Na  Na5  1  0.37125409  0.00078747  0.74836249  1
  Na  Na6  1  0.03244876  0.69806861  0.58298160  1
  Na  Na7  1  0.66443467  0.96855144  0.58277468  1
  Na  Na8  1  0.66503533  0.69341573  0.08262287  1
  Na  Na9  1  0.03167721  0.33447614  0.08475706  1
  Na  Na10  1  0.96267020  0.66595021  0.91846012  1
  Na  Na11  1  0.70084842  0.03101528  0.91651020  1
  Na  Na12  1  0.33779162  0.30242804  0.91806608  1
  Na  Na13  1  0.96687099  0.30137231  0.41649802  1
  Na  Na14  1  0.33535586  0.03109078  0.41786486  1
  Na  Na15  1  0.99967718  0.99985985  0.50008526  1
  Na  Na16  1  0.00549999  0.99739940  0.00098677  1
  Na  Na17  1  0.66629095  0.33305157  0.83337664  1
  Na  Na18  1  0.67022997  0.33874488  0.33467462  1
  Na  Na19  1  0.32936945  0.66820770  0.16589773  1
  Na  Na20  1  0.33386942  0.66270794  0.66502421  1
  Al  Al0  1  0.99295702  0.99771800  0.85204451  1
  Al  Al1  1  0.66905635  0.32709785  0.68357204  1
  Al  Al2  1  0.67308121  0.33649968  0.18321140  1
  Al  Al3  1  0.66525571  0.34251962  0.98328248  1
  Al  Al4  1  0.32691231  0.66271931  0.31639873  1
  Al  Al5  1  0.34098985  0.66970148  0.81465600  1
  Si  Si0  1  0.99983798  0.29019466  0.24992018  1
  Si  Si1  1  0.71054262  0.00170014  0.75058882  1
  Si  Si2  1  0.96132035  0.33586113  0.58369924  1
  Si  Si3  1  0.37711157  0.04958043  0.58420510  1
  Si  Si4  1  0.96018107  0.62699641  0.08311498  1
  Si  Si5  1  0.37980915  0.32819914  0.08374843  1
  Si  Si6  1  0.62347417  0.66521056  0.91586064  1
  Si  Si7  1  0.61867273  0.94831254  0.41562666  1
  Si  Si8  1  0.03843553  0.66606779  0.41579730  1
  Ge  Ge0  1  0.98788052  0.99280248  0.35465661  1
  Ge  Ge1  1  0.00355923  0.00873102  0.64600785  1
  Ge  Ge2  1  0.01165506  0.00427169  0.14569709  1
  Ge  Ge3  1  0.66852098  0.33023974  0.48082491  1
  Ge  Ge4  1  0.33522498  0.66817936  0.02105413  1
  Ge  Ge5  1  0.33049214  0.67000151  0.51915106  1
  P  P0  1  0.28909161  0.00040616  0.25045066  1
  P  P1  1  0.71115566  0.71135346  0.24975564  1
  P  P2  1  0.28784385  0.28814575  0.75128858  1
  P  P3  1  0.99959985  0.71134934  0.75085356  1
  P  P4  1  0.66129090  0.61454014  0.58425055  1
  P  P5  1  0.66207284  0.04664923  0.08292387  1
  P  P6  1  0.04540482  0.37843385  0.91562998  1
  P  P7  1  0.33411243  0.95500423  0.91584719  1
  P  P8  1  0.33923918  0.38397987  0.41635351  1
  O  O0  1  0.20741418  0.04006415  0.30833014  1
  O  O1  1  0.83588425  0.79248089  0.30603384  1
  O  O2  1  0.96043614  0.15935246  0.31055877  1
  O  O3  1  0.20572187  0.16694502  0.80863459  1
  O  O4  1  0.96783168  0.79743348  0.80800693  1
  O  O5  1  0.83886631  0.04154489  0.80969393  1
  O  O6  1  0.79812198  0.95549670  0.68963933  1
  O  O7  1  0.16681064  0.20618560  0.69396335  1
  O  O8  1  0.04159276  0.83167497  0.69209861  1
  O  O9  1  0.79274959  0.83301411  0.19154603  1
  O  O10  1  0.03904759  0.19893166  0.18954415  1
  O  O11  1  0.16420011  0.95653667  0.19406434  1
  O  O12  1  0.87764223  0.37960284  0.64378767  1
  O  O13  1  0.50085554  0.13053518  0.64416044  1
  O  O14  1  0.63467823  0.50478346  0.64340627  1
  O  O15  1  0.87751128  0.50092191  0.14400439  1
  O  O16  1  0.63312334  0.12713676  0.14189641  1
  O  O17  1  0.50289060  0.37173006  0.14476824  1
  O  O18  1  0.46143366  0.29592008  0.02151353  1
  O  O19  1  0.83715401  0.54217670  0.02259666  1
  O  O20  1  0.70143137  0.16422234  0.02482089  1
  O  O21  1  0.46084482  0.16841074  0.52112309  1
  O  O22  1  0.70525231  0.53691920  0.52664285  1
  O  O23  1  0.83274220  0.29045796  0.52288620  1
  O  O24  1  0.53666625  0.71161063  0.97704328  1
  O  O25  1  0.16324191  0.45839023  0.97410812  1
  O  O26  1  0.29027137  0.83070127  0.97328598  1
  O  O27  1  0.53578035  0.83004520  0.47884828  1
  O  O28  1  0.29364512  0.46160026  0.47341504  1
  O  O29  1  0.16592188  0.71067643  0.47684779  1
  O  O30  1  0.12361025  0.62359312  0.35596836  1
  O  O31  1  0.49551828  0.86603049  0.35526822  1
  O  O32  1  0.36777485  0.49401307  0.35714447  1
  O  O33  1  0.12838451  0.50009553  0.85855532  1
  O  O34  1  0.36607484  0.87040085  0.85807901  1
  O  O35  1  0.49460573  0.62534689  0.85697014  1
  O  O36  1  0.03142185  0.85146707  0.40819281  1
  O  O37  1  0.82223836  0.98162546  0.41153105  1
  O  O38  1  0.17044927  0.19403283  0.41090492  1
  O  O39  1  0.03110025  0.19340249  0.90998541  1
  O  O40  1  0.16869764  0.97773070  0.90920575  1
  O  O41  1  0.82150547  0.84300942  0.91024054  1
  O  O42  1  0.97068897  0.15200702  0.58985534  1
  O  O43  1  0.17268057  0.01348990  0.59134420  1
  O  O44  1  0.83175147  0.80387631  0.58871754  1
  O  O45  1  0.96916961  0.82035638  0.09182806  1
  O  O46  1  0.82944934  0.02346318  0.08874538  1
  O  O47  1  0.17504891  0.15929192  0.08891371  1
  O  O48  1  0.69055687  0.17908710  0.74402296  1
  O  O49  1  0.47538257  0.31200802  0.74366683  1
  O  O50  1  0.83012976  0.52747774  0.74454447  1
  O  O51  1  0.69123944  0.52498825  0.24446387  1
  O  O52  1  0.82074588  0.30578295  0.24379210  1
  O  O53  1  0.47370059  0.16798867  0.24309016  1
  O  O54  1  0.64455630  0.48864997  0.92204759  1
  O  O55  1  0.85752211  0.35400402  0.92310971  1
  O  O56  1  0.50343844  0.13836905  0.92245950  1
  O  O57  1  0.63988749  0.14928111  0.42194358  1
  O  O58  1  0.50237135  0.35897427  0.42229090  1
  O  O59  1  0.84339420  0.48794713  0.42455346  1
  O  O60  1  0.35668264  0.50879263  0.07692020  1
  O  O61  1  0.15644995  0.64351670  0.07487645  1
  O  O62  1  0.49830935  0.85628499  0.07793870  1
  O  O63  1  0.35831998  0.84984763  0.57773372  1
  O  O64  1  0.49891623  0.64077151  0.57808281  1
  O  O65  1  0.15705704  0.51344287  0.57527947  1
  O  O66  1  0.30891572  0.83357274  0.25566520  1
  O  O67  1  0.52663634  0.69481804  0.25672019  1
  O  O68  1  0.17889725  0.48505774  0.25602105  1
  O  O69  1  0.30200606  0.47303679  0.75677708  1
  O  O70  1  0.16470021  0.68842259  0.75748694  1
  O  O71  1  0.51246974  0.82404297  0.75629924  1
loop_
_geom_bond_atom_site_label_1
_geom_bond_atom_site_label_2
_geom_bond_distance
_geom_bond_site_symmetry_2
Na0 O52 2.311071 1_555
Na0 O67 2.346649 1_545
Na0 O66 2.445679 1_545
Na0 O53 2.456427 1_555
Na0 O31 2.528991 1_545
Na0 O16 2.597591 1_555
Na0 O9 2.786553 1_545
Na0 O2 2.788045 1_555
Na1 O68 2.317120 1_555
Na1 O53 2.350536 1_555
Na1 O51 2.445846 1_555
Na1 O67 2.461081 1_555
Na1 O17 2.524123 1_555
Na1 O32 2.583972 1_555
Na1 O0 2.777164 1_555
Na1 O10 2.792035 1_555
Na2 O51 2.373007 1_555
Na2 O66 2.375335 1_655
Na2 O68 2.428726 1_655
Na2 O52 2.430904 1_555
Na2 O15 2.539311 1_555
Na2 O30 2.543761 1_655
Na2 O11 2.742791 1_655
Na2 O1 2.753470 1_555
Na3 O50 2.336563 1_555
Na3 O71 2.343506 1_555
Na3 O49 2.436168 1_555
Na3 O69 2.491667 1_555
Na3 O14 2.569336 1_555
Na3 O35 2.580061 1_555
Na3 O6 2.727300 1_555
Na3 O4 2.835099 1_555
Na4 O48 2.322671 1_555
Na4 O69 2.344414 1_655
Na4 O70 2.448748 1_655
Na4 O50 2.480101 1_555
Na4 O12 2.530777 1_555
Na4 O33 2.647483 1_655
Na4 O7 2.741765 1_655
Na4 O5 2.747649 1_555
Na5 O49 2.383615 1_555
Na5 O70 2.396907 1_545
Na5 O71 2.402841 1_545
Na5 O48 2.412593 1_555
Na5 O13 2.506486 1_555
Na5 O34 2.611718 1_545
Na5 O8 2.775632 1_545
Na5 O3 2.812700 1_555
Na6 O65 2.346190 1_555
Na6 O44 2.346291 1_455
Na6 O43 2.384904 1_565
Na6 O63 2.459309 1_555
Na6 O29 2.539526 1_555
Na6 O8 2.613740 1_555
Na6 O12 2.722486 1_455
Na6 O22 2.759422 1_455
Na7 O42 2.329281 1_565
Na7 O63 2.329659 1_555
Na7 O64 2.468045 1_555
Na7 O44 2.501073 1_555
Na7 O27 2.537506 1_555
Na7 O6 2.617171 1_555
Na7 O23 2.736265 1_565
Na7 O13 2.783242 1_565
Na8 O45 2.312680 1_555
Na8 O60 2.343041 1_555
Na8 O62 2.481819 1_555
Na8 O46 2.486698 1_565
Na8 O24 2.582850 1_554
Na8 O9 2.634574 1_555
Na8 O19 2.756046 1_555
Na8 O17 2.757172 1_555
Na9 O61 2.346201 1_555
Na9 O46 2.375648 1_455
Na9 O47 2.401879 1_555
Na9 O60 2.455620 1_555
Na9 O10 2.561845 1_555
Na9 O25 2.625143 1_554
Na9 O15 2.729319 1_455
Na9 O20 2.815904 1_455
Na10 O55 2.387880 1_555
Na10 O40 2.392434 1_655
Na10 O54 2.403002 1_555
Na10 O41 2.405361 1_555
Na10 O19 2.486267 1_556
Na10 O4 2.630157 1_555
Na10 O26 2.747636 1_655
Na10 O33 2.808237 1_655
Na11 O56 2.329989 1_555
Na11 O41 2.343656 1_545
Na11 O55 2.434619 1_555
Na11 O39 2.491610 1_655
Na11 O5 2.573510 1_555
Na11 O20 2.611421 1_556
Na11 O24 2.725802 1_545
Na11 O34 2.831476 1_545
Na12 O54 2.331592 1_555
Na12 O39 2.351107 1_555
Na12 O40 2.451740 1_545
Na12 O56 2.482320 1_555
Na12 O18 2.497228 1_556
Na12 O3 2.643642 1_555
Na12 O35 2.754845 1_555
Na12 O25 2.764769 1_555
Na13 O59 2.354337 1_555
Na13 O38 2.379820 1_655
Na13 O37 2.411261 1_545
Na13 O57 2.467922 1_555
Na13 O23 2.549741 1_555
Na13 O2 2.589939 1_555
Na13 O30 2.744442 1_655
Na13 O28 2.762244 1_655
Na14 O36 2.314328 1_545
Na14 O57 2.316470 1_555
Na14 O58 2.468682 1_555
Na14 O38 2.471191 1_555
Na14 O21 2.516334 1_555
Na14 O0 2.636921 1_555
Na14 O29 2.717720 1_545
Na14 O31 2.793662 1_545
Na15 O37 2.419874 1_555
Na15 O42 2.430994 1_565
Na15 O43 2.453492 1_665
Na15 O36 2.457434 1_655
Na15 O44 2.479756 1_555
Na15 O38 2.488950 1_665
Na16 O47 2.395283 1_565
Na16 O45 2.406745 1_455
Na16 O41 2.472091 1_454
Na16 O40 2.486152 1_554
Na16 O46 2.509939 1_465
Na16 O39 2.528819 1_564
Na17 O54 2.407214 1_555
Na17 O48 2.418292 1_555
Na17 O50 2.469382 1_555
Na17 O56 2.472466 1_555
Na17 O49 2.506011 1_555
Na17 O55 2.508375 1_555
Na18 O59 2.411906 1_555
Na18 O57 2.420944 1_555
Na18 O58 2.442479 1_555
Na18 O52 2.448031 1_555
Na18 O51 2.473184 1_555
Na18 O53 2.561466 1_555
Na19 O61 2.426187 1_555
Na19 O68 2.427778 1_555
Na19 O62 2.444952 1_555
Na19 O60 2.450318 1_555
Na19 O66 2.473801 1_555
Na19 O67 2.547565 1_555
Na20 O63 2.421206 1_555
Na20 O65 2.421334 1_555
Na20 O64 2.421436 1_555
Na20 O71 2.478453 1_555
Na20 O69 2.494818 1_555
Na20 O70 2.548644 1_555
Al0 O5 1.816081 1_565
Al0 O41 1.889606 1_555
Al0 O4 1.899874 1_555
Al0 O3 1.927389 1_665
Al0 O39 2.004542 1_665
Al0 O40 2.043365 1_655
Al1 O13 1.818976 1_555
Al1 O12 1.841053 1_555
Al1 O48 1.902330 1_555
Al1 O14 1.916639 1_555
Al1 O49 2.071256 1_555
Al1 O50 2.080124 1_555
Al2 O15 1.831275 1_555
Al2 O17 1.854296 1_555
Al2 O16 1.898450 1_555
Al2 O52 1.946976 1_555
Al2 O51 2.052134 1_555
Al2 O53 2.060014 1_555
Al3 O18 1.803179 1_556
Al3 O19 1.843406 1_556
Al3 O54 1.899250 1_555
Al3 O20 1.943557 1_556
Al3 O55 2.073762 1_555
Al3 O56 2.096334 1_555
Al4 O30 1.830803 1_555
Al4 O31 1.846834 1_555
Al4 O32 1.886309 1_555
Al4 O68 1.946157 1_555
Al4 O66 2.040223 1_555
Al4 O67 2.059696 1_555
Al5 O35 1.814833 1_555
Al5 O71 1.890998 1_555
Al5 O34 1.896440 1_555
Al5 O33 1.932585 1_555
Al5 O69 2.008384 1_555
Al5 O70 2.042269 1_555
Ge0 O2 1.841224 1_565
Ge0 O37 1.852288 1_555
Ge0 O36 1.855461 1_655
Ge0 O1 1.899502 1_555
Ge0 O0 2.001569 1_665
Ge0 O38 2.077659 1_665
Ge1 O6 1.856226 1_445
Ge1 O42 1.856275 1_455
Ge1 O43 1.864476 1_555
Ge1 O7 1.904334 1_555
Ge1 O8 1.990341 1_545
Ge1 O44 2.076088 1_445
Ge2 O47 1.841214 1_555
Ge2 O10 1.849475 1_555
Ge2 O45 1.862167 1_445
Ge2 O11 1.893351 1_545
Ge2 O9 1.988602 1_445
Ge2 O46 2.082437 1_455
Ge3 O21 1.852275 1_555
Ge3 O23 1.868086 1_555
Ge3 O59 1.883935 1_555
Ge3 O22 1.934877 1_555
Ge3 O57 1.942526 1_555
Ge3 O58 2.031511 1_555
Ge4 O24 1.852672 1_554
Ge4 O61 1.859525 1_555
Ge4 O60 1.910857 1_555
Ge4 O26 1.936752 1_554
Ge4 O25 1.973048 1_554
Ge4 O62 1.977262 1_555
Ge5 O27 1.835832 1_555
Ge5 O65 1.873260 1_555
Ge5 O29 1.877642 1_555
Ge5 O63 1.932978 1_555
Ge5 O28 1.946342 1_555
Ge5 O64 2.054302 1_555
O0 P0 1.556077 1_555
O1 P1 1.551938 1_555
O2 Si0 1.647962 1_555
O3 P2 1.542345 1_555
O4 P3 1.538250 1_555
O5 Si1 1.621304 1_555
O6 Si1 1.664195 1_565
O7 P2 1.555792 1_555
O8 P3 1.560990 1_455
O9 P1 1.558504 1_555
O10 Si0 1.647754 1_455
O11 P0 1.553471 1_565
O12 Si2 1.620203 1_555
O13 Si3 1.611227 1_555
O14 P4 1.535982 1_555
O15 Si4 1.623140 1_555
O16 P5 1.533292 1_555
O17 Si5 1.625143 1_555
O18 Si5 1.605553 1_555
O19 Si4 1.622202 1_555
O20 P5 1.538975 1_555
O21 Si3 1.635945 1_555
O22 P4 1.550745 1_555
O23 Si2 1.646572 1_555
O24 Si6 1.665144 1_555
O25 P6 1.561386 1_555
O26 P7 1.555825 1_555
O27 Si7 1.635558 1_555
O28 P8 1.547905 1_555
O29 Si8 1.646021 1_555
O30 Si8 1.618012 1_555
O31 Si7 1.617231 1_555
O32 P8 1.535573 1_555
O33 P6 1.540368 1_555
O34 P7 1.542276 1_555
O35 Si6 1.620407 1_555
O36 Si8 1.648178 1_555
O37 Si7 1.647114 1_555
O38 P8 1.572872 1_555
O39 P6 1.553017 1_555
O40 P7 1.554056 1_555
O41 Si6 1.644638 1_555
O42 Si2 1.642974 1_555
O43 Si3 1.650330 1_555
O44 P4 1.574201 1_555
O45 Si4 1.652234 1_555
O46 P5 1.571689 1_555
O47 Si5 1.650059 1_555
O48 Si1 1.639174 1_555
O49 P2 1.545897 1_555
O50 P3 1.547041 1_555
O51 P1 1.543246 1_555
O52 Si0 1.635549 1_555
O53 P0 1.543436 1_555
O54 Si6 1.636905 1_555
O55 P6 1.546618 1_655
O56 P7 1.544701 1_545
O57 Si7 1.666198 1_545
O58 P8 1.544750 1_555
O59 Si8 1.636696 1_655
O60 Si5 1.683095 1_555
O61 Si4 1.648657 1_455
O62 P5 1.556805 1_565
O63 Si3 1.664622 1_565
O64 P4 1.545077 1_555
O65 Si2 1.637387 1_455
O66 P0 1.545223 1_565
O67 P1 1.544609 1_555
O68 Si0 1.636274 1_455
O69 P2 1.552070 1_555
O70 P3 1.552357 1_455
O71 Si1 1.644463 1_565
