# generated using pymatgen
data_Na7In2Si3Sn2(PO8)3
_symmetry_space_group_name_H-M   'P 1'
_cell_length_a   9.13119483
_cell_length_b   9.13423131
_cell_length_c   22.66723911
_cell_angle_alpha   89.80298211
_cell_angle_beta   89.85459568
_cell_angle_gamma   120.01779511
_symmetry_Int_Tables_number   1
_chemical_formula_structural   Na7In2Si3Sn2(PO8)3
_chemical_formula_sum   'Na21 In6 Si9 Sn6 P9 O72'
_cell_volume   1636.97915512
_cell_formula_units_Z   3
loop_
 _symmetry_equiv_pos_site_id
 _symmetry_equiv_pos_as_xyz
  1  'x, y, z'
loop_
 _atom_site_type_symbol
 _atom_site_label
 _atom_site_symmetry_multiplicity
 _atom_site_fract_x
 _atom_site_fract_y
 _atom_site_fract_z
 _atom_site_occupancy
  Na  Na0  1  0.63229801  0.00319343  0.25261999  1
  Na  Na1  1  0.36770547  0.37087981  0.24764159  1
  Na  Na2  1  -0.00000590  0.62350910  0.24998421  1
  Na  Na3  1  0.63150879  0.63511456  0.74988201  1
  Na  Na4  1  0.99352744  0.36296453  0.74845927  1
  Na  Na5  1  0.37507044  0.00200064  0.74730296  1
  Na  Na6  1  0.03387123  0.69603549  0.58254130  1
  Na  Na7  1  0.66368264  0.97072855  0.58250752  1
  Na  Na8  1  0.66544939  0.69024875  0.08198097  1
  Na  Na9  1  0.03218033  0.33663339  0.08595676  1
  Na  Na10  1  0.95901671  0.66478140  0.91957176  1
  Na  Na11  1  0.70185304  0.03133861  0.91612192  1
  Na  Na12  1  0.34038274  0.30362813  0.91863353  1
  Na  Na13  1  0.96482972  0.30245296  0.41624293  1
  Na  Na14  1  0.33599809  0.02842947  0.41873927  1
  Na  Na15  1  0.99926334  0.00008174  0.50009382  1
  Na  Na16  1  0.00733124  0.99611779  0.00162042  1
  Na  Na17  1  0.66626843  0.33318085  0.83334751  1
  Na  Na18  1  0.67371423  0.33984031  0.33516088  1
  Na  Na19  1  0.32625143  0.66588217  0.16556814  1
  Na  Na20  1  0.33398106  0.66297505  0.66434040  1
  In  In0  1  0.99532530  0.99853223  0.85064972  1
  In  In1  1  0.66803705  0.32937673  0.67973914  1
  In  In2  1  0.67039539  0.33547192  0.18088236  1
  In  In3  1  0.66483926  0.33832681  0.98706669  1
  In  In4  1  0.32909872  0.66378496  0.31894028  1
  In  In5  1  0.33860566  0.66895591  0.81591189  1
  Si  Si0  1  0.99980267  0.29166356  0.25019993  1
  Si  Si1  1  0.70601980  0.00200740  0.74940335  1
  Si  Si2  1  0.96736453  0.33555311  0.58272358  1
  Si  Si3  1  0.36843855  0.03673976  0.58305682  1
  Si  Si4  1  0.96963137  0.63610501  0.08338903  1
  Si  Si5  1  0.36720061  0.33138599  0.08331741  1
  Si  Si6  1  0.62868392  0.66493247  0.91672000  1
  Si  Si7  1  0.62791083  0.96069861  0.41668107  1
  Si  Si8  1  0.03268013  0.66554322  0.41666915  1
  Sn  Sn0  1  0.99169477  0.99473573  0.35394206  1
  Sn  Sn1  1  0.00336865  0.00600408  0.64668605  1
  Sn  Sn2  1  0.00713356  0.00268965  0.14747006  1
  Sn  Sn3  1  0.66555164  0.33195620  0.48330944  1
  Sn  Sn4  1  0.33513033  0.66970228  0.01867436  1
  Sn  Sn5  1  0.33304100  0.66728198  0.51648464  1
  P  P0  1  0.28954022  0.00009553  0.25105487  1
  P  P1  1  0.71024263  0.71043168  0.24952381  1
  P  P2  1  0.29281299  0.29243934  0.75049058  1
  P  P3  1  0.99908236  0.70617182  0.74945777  1
  P  P4  1  0.66386380  0.62584282  0.58389480  1
  P  P5  1  0.66462841  0.03384915  0.08356826  1
  P  P6  1  0.04036294  0.37397786  0.91686232  1
  P  P7  1  0.33435919  0.96057800  0.91635575  1
  P  P8  1  0.33696995  0.37297128  0.41635475  1
  O  O0  1  0.20913738  0.03013521  0.30727196  1
  O  O1  1  0.82736135  0.79224706  0.30332009  1
  O  O2  1  0.96755317  0.17181689  0.30893218  1
  O  O3  1  0.22127558  0.18470258  0.80736470  1
  O  O4  1  0.97165226  0.78335739  0.80610895  1
  O  O5  1  0.82050324  0.04075333  0.80856247  1
  O  O6  1  0.79404107  0.96331489  0.69177118  1
  O  O7  1  0.17611391  0.20524553  0.69683997  1
  O  O8  1  0.03267540  0.82188319  0.69423900  1
  O  O9  1  0.79025019  0.82053816  0.19318035  1
  O  O10  1  0.03150724  0.20447249  0.19181203  1
  O  O11  1  0.17312687  0.96508054  0.19721232  1
  O  O12  1  0.89841670  0.38311886  0.64191709  1
  O  O13  1  0.48085083  0.10850978  0.64230981  1
  O  O14  1  0.63481713  0.52602349  0.64178079  1
  O  O15  1  0.89715693  0.51709264  0.14240235  1
  O  O16  1  0.63428329  0.10872620  0.14007996  1
  O  O17  1  0.48416628  0.37331258  0.14228692  1
  O  O18  1  0.44008774  0.29601134  0.02322799  1
  O  O19  1  0.85448257  0.56145532  0.02437147  1
  O  O20  1  0.70271705  0.14576947  0.02799038  1
  O  O21  1  0.45140771  0.15459066  0.52418105  1
  O  O22  1  0.70039142  0.54259623  0.53078793  1
  O  O23  1  0.84234496  0.29606639  0.52551018  1
  O  O24  1  0.54174851  0.70389124  0.97437116  1
  O  O25  1  0.15280451  0.45918214  0.97181349  1
  O  O26  1  0.29823668  0.84045377  0.96979451  1
  O  O27  1  0.54456762  0.84390552  0.47567734  1
  O  O28  1  0.29843223  0.45560565  0.46918230  1
  O  O29  1  0.15656909  0.70547799  0.47421582  1
  O  O30  1  0.10295694  0.61995172  0.35734964  1
  O  O31  1  0.51463243  0.88703339  0.35726346  1
  O  O32  1  0.36808301  0.47299967  0.35836160  1
  O  O33  1  0.11385690  0.48367364  0.86050552  1
  O  O34  1  0.36252694  0.88615661  0.85901066  1
  O  O35  1  0.51280884  0.62617105  0.85796692  1
  O  O36  1  0.03214008  0.84612408  0.41081628  1
  O  O37  1  0.82244951  0.99210892  0.41363890  1
  O  O38  1  0.17398518  0.19323364  0.41204417  1
  O  O39  1  0.03210429  0.20054382  0.91393522  1
  O  O40  1  0.17559928  0.98087206  0.91314701  1
  O  O41  1  0.81667043  0.83692473  0.91541112  1
  O  O42  1  0.96989373  0.15635648  0.58778376  1
  O  O43  1  0.17301702  0.00311321  0.58852324  1
  O  O44  1  0.82863215  0.80445472  0.58781421  1
  O  O45  1  0.97178089  0.81704743  0.09071730  1
  O  O46  1  0.82556821  0.01523039  0.08957804  1
  O  O47  1  0.17227879  0.17070682  0.08805118  1
  O  O48  1  0.68739390  0.17163412  0.74596361  1
  O  O49  1  0.47239944  0.31710104  0.74413636  1
  O  O50  1  0.83646071  0.53177958  0.74442267  1
  O  O51  1  0.69088905  0.53221674  0.24619140  1
  O  O52  1  0.82673300  0.30506131  0.24730014  1
  O  O53  1  0.46527788  0.16212161  0.24571785  1
  O  O54  1  0.64806930  0.49580395  0.91990265  1
  O  O55  1  0.86016179  0.34874117  0.92295153  1
  O  O56  1  0.49759830  0.13441239  0.92238561  1
  O  O57  1  0.64281186  0.14941632  0.42264103  1
  O  O58  1  0.49081127  0.34747694  0.42421911  1
  O  O59  1  0.84641872  0.49508422  0.42498982  1
  O  O60  1  0.35206883  0.50583215  0.07766071  1
  O  O61  1  0.15494635  0.64825264  0.07615636  1
  O  O62  1  0.50976573  0.85400599  0.07763210  1
  O  O63  1  0.35458875  0.84885273  0.57684447  1
  O  O64  1  0.51044857  0.65251706  0.57618794  1
  O  O65  1  0.15377954  0.50596189  0.57465079  1
  O  O66  1  0.30951248  0.84163816  0.25424258  1
  O  O67  1  0.53488112  0.69702227  0.25438775  1
  O  O68  1  0.17266783  0.47822977  0.25274460  1
  O  O69  1  0.30135928  0.46638111  0.75315802  1
  O  O70  1  0.15806079  0.68636784  0.75308418  1
  O  O71  1  0.51787087  0.83019526  0.75086466  1
loop_
_geom_bond_atom_site_label_1
_geom_bond_atom_site_label_2
_geom_bond_distance
_geom_bond_site_symmetry_2
Na0 O52 2.422418 1_555
Na0 O67 2.474686 1_545
Na0 O66 2.552165 1_545
Na0 O53 2.583134 1_555
Na0 O31 2.595305 1_545
Na0 O16 2.720731 1_555
Na1 O68 2.427664 1_555
Na1 O53 2.476279 1_555
Na1 O51 2.555279 1_555
Na1 O67 2.585097 1_555
Na1 O17 2.607200 1_555
Na1 O32 2.679871 1_555
Na2 O51 2.513180 1_455
Na2 O66 2.517032 1_555
Na2 O68 2.518790 1_555
Na2 O52 2.522889 1_455
Na2 O30 2.617137 1_555
Na2 O15 2.624496 1_455
Na2 O11 2.948586 1_555
Na2 O1 2.959074 1_455
Na3 O71 2.470339 1_555
Na3 O50 2.485075 1_555
Na3 O49 2.519264 1_555
Na3 O69 2.611201 1_555
Na3 O14 2.654172 1_555
Na3 O35 2.660910 1_555
Na3 O6 2.904507 1_555
Na3 O4 2.988086 1_555
Na4 O48 2.446443 1_555
Na4 O69 2.479964 1_655
Na4 O70 2.560653 1_655
Na4 O50 2.579825 1_555
Na4 O12 2.605379 1_555
Na4 O33 2.773938 1_655
Na4 O5 2.885031 1_555
Na4 O7 2.937523 1_655
Na5 O48 2.472445 1_555
Na5 O71 2.493302 1_545
Na5 O49 2.553031 1_555
Na5 O70 2.556531 1_545
Na5 O13 2.564294 1_555
Na5 O34 2.720880 1_545
Na6 O43 2.436808 1_565
Na6 O65 2.479563 1_555
Na6 O44 2.522662 1_455
Na6 O63 2.539336 1_555
Na6 O29 2.679508 1_555
Na6 O8 2.786461 1_555
Na6 O12 2.817583 1_455
Na6 O22 2.893491 1_455
Na7 O42 2.442722 1_565
Na7 O63 2.465934 1_555
Na7 O64 2.522193 1_555
Na7 O44 2.622639 1_555
Na7 O27 2.675977 1_555
Na7 O6 2.765863 1_555
Na7 O23 2.876450 1_565
Na7 O13 2.882881 1_565
Na8 O45 2.442903 1_555
Na8 O60 2.493038 1_555
Na8 O62 2.528881 1_555
Na8 O46 2.577093 1_565
Na8 O24 2.719170 1_554
Na8 O9 2.783267 1_555
Na8 O19 2.845961 1_555
Na8 O17 2.855899 1_555
Na9 O47 2.423960 1_555
Na9 O61 2.491957 1_555
Na9 O60 2.536612 1_555
Na9 O46 2.576957 1_455
Na9 O10 2.680908 1_555
Na9 O25 2.809343 1_554
Na9 O15 2.813202 1_455
Na9 O20 2.933337 1_455
Na10 O54 2.461534 1_555
Na10 O41 2.493045 1_555
Na10 O19 2.552779 1_556
Na10 O55 2.558345 1_555
Na10 O40 2.559515 1_655
Na10 O4 2.766827 1_555
Na10 O26 2.919365 1_655
Na10 O33 2.978940 1_655
Na11 O41 2.473035 1_545
Na11 O56 2.478234 1_555
Na11 O55 2.515968 1_555
Na11 O39 2.611594 1_655
Na11 O5 2.649025 1_555
Na11 O20 2.744574 1_556
Na11 O24 2.900795 1_545
Na11 O34 2.992642 1_545
Na12 O54 2.458052 1_555
Na12 O39 2.484377 1_555
Na12 O18 2.554981 1_556
Na12 O40 2.556577 1_545
Na12 O56 2.583976 1_555
Na12 O3 2.752245 1_555
Na12 O35 2.893085 1_555
Na12 O25 2.973545 1_555
Na13 O37 2.458388 1_545
Na13 O59 2.491819 1_555
Na13 O57 2.550489 1_555
Na13 O38 2.560839 1_655
Na13 O23 2.703411 1_555
Na13 O2 2.718564 1_555
Na13 O30 2.844038 1_655
Na13 O28 2.905624 1_655
Na14 O36 2.425973 1_545
Na14 O57 2.445839 1_555
Na14 O58 2.527477 1_555
Na14 O38 2.589484 1_555
Na14 O21 2.639632 1_555
Na14 O0 2.785452 1_555
Na14 O29 2.845337 1_545
Na14 O31 2.894684 1_545
Na15 O37 2.520275 1_545
Na15 O42 2.541705 1_555
Na15 O43 2.551154 1_655
Na15 O36 2.569418 1_645
Na15 O44 2.597782 1_545
Na15 O38 2.604765 1_655
Na16 O47 2.506634 1_565
Na16 O45 2.510418 1_455
Na16 O41 2.543204 1_454
Na16 O40 2.569509 1_554
Na16 O46 2.652489 1_465
Na16 O39 2.652912 1_564
Na17 O54 2.519686 1_555
Na17 O48 2.537904 1_555
Na17 O56 2.627360 1_555
Na17 O50 2.628143 1_555
Na17 O49 2.646623 1_555
Na17 O55 2.654906 1_555
Na18 O59 2.538201 1_555
Na18 O52 2.540446 1_555
Na18 O57 2.553321 1_555
Na18 O51 2.622543 1_555
Na18 O58 2.640030 1_555
Na18 O53 2.705368 1_555
Na19 O61 2.519248 1_555
Na19 O68 2.523302 1_555
Na19 O60 2.554571 1_555
Na19 O62 2.610048 1_555
Na19 O66 2.628102 1_555
Na19 O67 2.691594 1_555
Na20 O71 2.543673 1_555
Na20 O63 2.550850 1_555
Na20 O65 2.563874 1_555
Na20 O64 2.595627 1_555
Na20 O69 2.608346 1_555
Na20 O70 2.646219 1_555
In0 O5 2.056284 1_565
In0 O4 2.125732 1_555
In0 O41 2.135122 1_555
In0 O3 2.139875 1_665
In0 O39 2.230709 1_665
In0 O40 2.240210 1_655
In1 O13 2.068909 1_555
In1 O12 2.087107 1_555
In1 O14 2.143494 1_555
In1 O48 2.145221 1_555
In1 O50 2.262348 1_555
In1 O49 2.262694 1_555
In2 O15 2.084307 1_555
In2 O17 2.090472 1_555
In2 O16 2.141305 1_555
In2 O52 2.187784 1_555
In2 O51 2.267018 1_555
In2 O53 2.275481 1_555
In3 O18 2.056361 1_556
In3 O19 2.087020 1_556
In3 O54 2.148678 1_555
In3 O20 2.161664 1_556
In3 O55 2.262362 1_555
In3 O56 2.266084 1_555
In4 O30 2.084124 1_555
In4 O31 2.084747 1_555
In4 O32 2.138620 1_555
In4 O68 2.184150 1_555
In4 O66 2.257760 1_555
In4 O67 2.275128 1_555
In5 O35 2.053983 1_555
In5 O34 2.125801 1_555
In5 O71 2.140854 1_555
In5 O33 2.144821 1_555
In5 O69 2.225715 1_555
In5 O70 2.245884 1_555
O0 P0 1.561192 1_555
O0 Sn0 2.123806 1_445
O1 P1 1.549965 1_555
O1 Sn0 2.058088 1_555
O2 Si0 1.650122 1_555
O2 Sn0 2.013047 1_545
O3 P2 1.549498 1_555
O4 P3 1.545982 1_555
O5 Si1 1.629869 1_555
O6 Si1 1.661190 1_565
O6 Sn1 2.022759 1_665
O7 P2 1.553335 1_555
O7 Sn1 2.060031 1_555
O8 P3 1.562824 1_455
O8 Sn1 2.121610 1_565
O9 P1 1.558084 1_555
O9 Sn2 2.108262 1_665
O10 Si0 1.644909 1_455
O10 Sn2 2.015033 1_555
O11 P0 1.546247 1_565
O11 Sn2 2.052729 1_565
O12 Si2 1.630596 1_555
O13 Si3 1.620828 1_555
O14 P4 1.539925 1_555
O15 Si4 1.635474 1_555
O16 P5 1.542486 1_555
O17 Si5 1.635724 1_555
O18 Si5 1.617456 1_555
O19 Si4 1.629778 1_555
O20 P5 1.544777 1_555
O21 Si3 1.637926 1_555
O21 Sn3 2.029144 1_555
O22 P4 1.548084 1_555
O22 Sn3 2.089233 1_555
O23 Si2 1.647400 1_555
O23 Sn3 2.040531 1_555
O24 Si6 1.656826 1_555
O24 Sn4 2.015999 1_556
O25 P6 1.557250 1_555
O25 Sn4 2.101810 1_556
O26 P7 1.551363 1_555
O26 Sn4 2.071093 1_556
O27 Si7 1.636548 1_555
O27 Sn5 2.012944 1_555
O28 P8 1.548317 1_555
O28 Sn5 2.095843 1_555
O29 Si8 1.646878 1_555
O29 Sn5 2.050455 1_555
O30 Si8 1.630964 1_555
O31 Si7 1.628977 1_555
O32 P8 1.540676 1_555
O33 P6 1.549286 1_555
O34 P7 1.548289 1_555
O35 Si6 1.629132 1_555
O36 Si8 1.656806 1_555
O36 Sn0 2.032988 1_455
O37 Si7 1.652839 1_555
O37 Sn0 2.042543 1_555
O38 P8 1.573846 1_555
O38 Sn0 2.191012 1_445
O39 P6 1.549501 1_555
O40 P7 1.552579 1_555
O41 Si6 1.648255 1_555
O42 Si2 1.652097 1_555
O42 Sn1 2.042459 1_655
O43 Si3 1.656539 1_555
O43 Sn1 2.041896 1_555
O44 P4 1.574478 1_555
O44 Sn1 2.191932 1_665
O45 Si4 1.651991 1_555
O45 Sn2 2.025814 1_665
O46 P5 1.567815 1_555
O46 Sn2 2.164212 1_655
O47 Si5 1.648574 1_555
O47 Sn2 2.025656 1_555
O48 Si1 1.642733 1_555
O49 P2 1.545814 1_555
O50 P3 1.546264 1_555
O51 P1 1.549172 1_555
O52 Si0 1.646427 1_555
O53 P0 1.549715 1_555
O54 Si6 1.641959 1_555
O55 P6 1.548812 1_655
O56 P7 1.547962 1_545
O57 Si7 1.665906 1_545
O57 Sn3 2.094078 1_555
O58 P8 1.545196 1_555
O58 Sn3 2.143806 1_555
O59 Si8 1.642961 1_655
O59 Sn3 2.051470 1_555
O60 Si5 1.671384 1_555
O60 Sn4 2.066655 1_555
O61 Si4 1.647167 1_455
O61 Sn4 2.026800 1_555
O62 P5 1.547441 1_565
O62 Sn4 2.122085 1_555
O63 Si3 1.663061 1_565
O63 Sn5 2.086093 1_555
O64 P4 1.547500 1_555
O64 Sn5 2.168482 1_555
O65 Si2 1.642949 1_455
O65 Sn5 2.037500 1_555
O66 P0 1.548179 1_565
O67 P1 1.547245 1_555
O68 Si0 1.645824 1_455
O69 P2 1.552655 1_555
O70 P3 1.552433 1_455
O71 Si1 1.648429 1_565
