# generated using pymatgen
data_Na10Ca4Hf4Si5S7O48
_symmetry_space_group_name_H-M   'P 1'
_cell_length_a   18.46350363
_cell_length_b   9.29459654
_cell_length_c   23.11244793
_cell_angle_alpha   89.88647589
_cell_angle_beta   90.42224621
_cell_angle_gamma   120.25911792
_symmetry_Int_Tables_number   1
_chemical_formula_structural   Na10Ca4Hf4Si5S7O48
_chemical_formula_sum   'Na30 Ca12 Hf12 Si15 S21 O144'
_cell_volume   3425.85261670
_cell_formula_units_Z   3
loop_
 _symmetry_equiv_pos_site_id
 _symmetry_equiv_pos_as_xyz
  1  'x, y, z'
loop_
 _atom_site_type_symbol
 _atom_site_label
 _atom_site_symmetry_multiplicity
 _atom_site_fract_x
 _atom_site_fract_y
 _atom_site_fract_z
 _atom_site_occupancy
  Na  Na0  1  0.33198575  0.03411383  0.25255694  1
  Na  Na1  1  0.67220844  0.33348867  0.25491996  1
  Na  Na2  1  0.99760790  0.63780765  0.23839793  1
  Na  Na3  1  0.49854262  0.62715622  0.23693331  1
  Na  Na4  1  0.32669739  0.62078172  0.75574304  1
  Na  Na5  1  0.82678029  0.62071526  0.75416995  1
  Na  Na6  1  0.99724899  0.36844345  0.73745067  1
  Na  Na7  1  0.49744091  0.36870435  0.73735933  1
  Na  Na8  1  0.17210503  0.01323214  0.75379088  1
  Na  Na9  1  0.67332320  0.01399505  0.75290009  1
  Na  Na10  1  0.33425002  0.97137810  0.57082363  1
  Na  Na11  1  0.83462768  0.97265490  0.56993826  1
  Na  Na12  1  0.33511299  0.69787112  0.07062589  1
  Na  Na13  1  0.83275684  0.69468078  0.06980290  1
  Na  Na14  1  0.48371949  0.68118834  0.90823785  1
  Na  Na15  1  0.98390247  0.68160222  0.90700340  1
  Na  Na16  1  0.48766612  0.28980017  0.40554603  1
  Na  Na17  1  0.16489214  0.02588090  0.40485210  1
  Na  Na18  1  0.98219964  0.00650473  0.49514935  1
  Na  Na19  1  0.49585796  0.99803025  0.49493739  1
  Na  Na20  1  0.99214648  0.99450831  0.99262150  1
  Na  Na21  1  0.49087205  0.98811664  0.99591527  1
  Na  Na22  1  0.32525447  0.34657383  0.82882445  1
  Na  Na23  1  0.82580215  0.34692022  0.82766484  1
  Na  Na24  1  0.32747923  0.32148670  0.32147856  1
  Na  Na25  1  0.81563653  0.27668164  0.33301770  1
  Na  Na26  1  0.14966885  0.66219182  0.15791100  1
  Na  Na27  1  0.64661675  0.67183259  0.16152295  1
  Na  Na28  1  0.14214837  0.62484765  0.66029372  1
  Na  Na29  1  0.64517601  0.62834515  0.65845662  1
  Ca  Ca0  1  0.99559710  0.00352468  0.35199707  1
  Ca  Ca1  1  0.49951769  0.99863554  0.35212924  1
  Ca  Ca2  1  0.99843788  0.99969990  0.85164844  1
  Ca  Ca3  1  0.49853769  0.99957535  0.85213971  1
  Ca  Ca4  1  0.33791556  0.34321811  0.68089881  1
  Ca  Ca5  1  0.83789403  0.34330309  0.68013191  1
  Ca  Ca6  1  0.33390806  0.33078674  0.18315729  1
  Ca  Ca7  1  0.83474974  0.32292822  0.18256741  1
  Ca  Ca8  1  0.16546270  0.66881384  0.01823482  1
  Ca  Ca9  1  0.66447123  0.66838583  0.01894686  1
  Ca  Ca10  1  0.16193554  0.65265716  0.51853024  1
  Ca  Ca11  1  0.66623164  0.66262019  0.51772432  1
  Hf  Hf0  1  0.00878255  0.01057265  0.64887250  1
  Hf  Hf1  1  0.51003640  0.01235765  0.64905986  1
  Hf  Hf2  1  0.00623190  0.99485611  0.14807438  1
  Hf  Hf3  1  0.50912146  0.00711660  0.14960806  1
  Hf  Hf4  1  0.33462601  0.34859908  0.98280469  1
  Hf  Hf5  1  0.83515126  0.34782752  0.98218097  1
  Hf  Hf6  1  0.33902918  0.33071449  0.48303401  1
  Hf  Hf7  1  0.83806097  0.32176455  0.48134436  1
  Hf  Hf8  1  0.17046971  0.67795307  0.31751914  1
  Hf  Hf9  1  0.67190414  0.68565857  0.31372032  1
  Hf  Hf10  1  0.16850635  0.65736115  0.81577392  1
  Hf  Hf11  1  0.66869579  0.65790463  0.81583730  1
  Si  Si0  1  0.14771344  0.99148358  0.25640737  1
  Si  Si1  1  0.64986278  0.00102904  0.25266792  1
  Si  Si2  1  0.50427043  0.30268748  0.25367395  1
  Si  Si3  1  0.14832369  0.29978428  0.75209184  1
  Si  Si4  1  0.64877922  0.30042790  0.75235878  1
  Si  Si5  1  0.00382939  0.70643979  0.75377771  1
  Si  Si6  1  0.50408202  0.70704382  0.75378295  1
  Si  Si7  1  0.48481708  0.32159542  0.58715686  1
  Si  Si8  1  0.98318725  0.32073951  0.58825626  1
  Si  Si9  1  0.48309980  0.64505894  0.08762056  1
  Si  Si10  1  0.98284492  0.63712112  0.08829670  1
  Si  Si11  1  0.31614797  0.66396829  0.92231969  1
  Si  Si12  1  0.81614437  0.66488526  0.92251953  1
  Si  Si13  1  0.31578361  0.96986088  0.42365794  1
  Si  Si14  1  0.81568732  0.96748540  0.42271995  1
  S  S0  1  0.34805489  0.70861980  0.24943653  1
  S  S1  1  0.85068790  0.70970537  0.24774675  1
  S  S2  1  0.00664507  0.30281109  0.24937439  1
  S  S3  1  0.34846222  0.98883536  0.74821520  1
  S  S4  1  0.84847559  0.98923771  0.74846789  1
  S  S5  1  0.18390404  0.04273706  0.58256433  1
  S  S6  1  0.68428242  0.04316496  0.58367050  1
  S  S7  1  0.33828965  0.63725196  0.58326490  1
  S  S8  1  0.83832911  0.63801854  0.58377876  1
  S  S9  1  0.33796007  0.04052099  0.08379547  1
  S  S10  1  0.83941549  0.04036931  0.08254399  1
  S  S11  1  0.18287974  0.32326676  0.08351540  1
  S  S12  1  0.68468988  0.32506324  0.08374778  1
  S  S13  1  0.01559078  0.37585190  0.91716957  1
  S  S14  1  0.51558538  0.37603506  0.91700735  1
  S  S15  1  0.17279349  0.96850998  0.91582281  1
  S  S16  1  0.67328865  0.96897432  0.91592391  1
  S  S17  1  0.17260833  0.37552160  0.41635549  1
  S  S18  1  0.67336440  0.37718364  0.41569746  1
  S  S19  1  0.01639216  0.65599824  0.41547095  1
  S  S20  1  0.51612572  0.65617471  0.41649359  1
  O  O0  1  0.10712544  0.00280826  0.31535268  1
  O  O1  1  0.60530103  0.02209336  0.30750857  1
  O  O2  1  0.39928093  0.78399147  0.30100889  1
  O  O3  1  0.90366152  0.78759264  0.29841979  1
  O  O4  1  0.48361435  0.19394438  0.31175815  1
  O  O5  1  0.99540775  0.20659481  0.30162067  1
  O  O6  1  0.10636384  0.18738925  0.80695726  1
  O  O7  1  0.60593235  0.18683832  0.80678711  1
  O  O8  1  0.48396441  0.77422073  0.81185331  1
  O  O9  1  0.98453840  0.77448804  0.81201038  1
  O  O10  1  0.40118456  0.02293649  0.79961716  1
  O  O11  1  0.90096208  0.02319439  0.80003873  1
  O  O12  1  0.38901486  0.96339488  0.69599056  1
  O  O13  1  0.88927377  0.96356042  0.69646519  1
  O  O14  1  0.08600854  0.20662466  0.69384875  1
  O  O15  1  0.58654906  0.20822275  0.69377046  1
  O  O16  1  0.01595709  0.83727524  0.69841765  1
  O  O17  1  0.51591293  0.83777058  0.69831841  1
  O  O18  1  0.38745877  0.81747869  0.19705606  1
  O  O19  1  0.89112588  0.81585428  0.19466920  1
  O  O20  1  0.01251500  0.21362627  0.19695380  1
  O  O21  1  0.51481711  0.19293767  0.19864709  1
  O  O22  1  0.08177018  0.96859802  0.20012828  1
  O  O23  1  0.58712016  0.96851136  0.19384869  1
  O  O24  1  0.44154582  0.32694839  0.64616771  1
  O  O25  1  0.94303882  0.32714351  0.64856084  1
  O  O26  1  0.23122928  0.11935130  0.63595227  1
  O  O27  1  0.72903597  0.11517158  0.63816818  1
  O  O28  1  0.32718182  0.54765631  0.63783518  1
  O  O29  1  0.82804466  0.54969359  0.63864012  1
  O  O30  1  0.43948733  0.55208627  0.14641122  1
  O  O31  1  0.94115196  0.54876022  0.14800191  1
  O  O32  1  0.32788935  0.10969140  0.13801831  1
  O  O33  1  0.82743323  0.11178157  0.13519132  1
  O  O34  1  0.23147948  0.34341817  0.13577279  1
  O  O35  1  0.73130016  0.34412161  0.13737035  1
  O  O36  1  0.22507108  0.29816095  0.03164572  1
  O  O37  1  0.73008233  0.30317231  0.03311334  1
  O  O38  1  0.41620025  0.53000030  0.03082768  1
  O  O39  1  0.91640817  0.52815987  0.03196814  1
  O  O40  1  0.34110760  0.14464504  0.03299287  1
  O  O41  1  0.84544394  0.14333822  0.03064255  1
  O  O42  1  0.22868137  0.15406298  0.53118178  1
  O  O43  1  0.73013222  0.15546646  0.53365631  1
  O  O44  1  0.34223478  0.53760088  0.53311735  1
  O  O45  1  0.84270501  0.54191795  0.53360302  1
  O  O46  1  0.41830692  0.30510150  0.53042866  1
  O  O47  1  0.91555540  0.30294994  0.53337278  1
  O  O48  1  0.27356591  0.66883532  0.98124563  1
  O  O49  1  0.77350756  0.66976331  0.98129990  1
  O  O50  1  0.06477940  0.45547143  0.96824593  1
  O  O51  1  0.56498635  0.45558255  0.96788039  1
  O  O52  1  0.16025818  0.86165873  0.96552822  1
  O  O53  1  0.66102489  0.86224325  0.96547411  1
  O  O54  1  0.26981216  0.87475915  0.48092246  1
  O  O55  1  0.77658429  0.88189196  0.48322952  1
  O  O56  1  0.16120600  0.44879048  0.46818812  1
  O  O57  1  0.66051407  0.45916639  0.46518901  1
  O  O58  1  0.06811526  0.67876932  0.46607470  1
  O  O59  1  0.56515880  0.67491872  0.46817197  1
  O  O60  1  0.05779963  0.63027421  0.36235974  1
  O  O61  1  0.55662045  0.62974701  0.36359842  1
  O  O62  1  0.25274795  0.86463408  0.36478463  1
  O  O63  1  0.75182653  0.85547526  0.36689364  1
  O  O64  1  0.17828953  0.47847816  0.36388930  1
  O  O65  1  0.68135240  0.47412290  0.36109961  1
  O  O66  1  0.05753321  0.48390987  0.86390366  1
  O  O67  1  0.55756505  0.48433622  0.86365691  1
  O  O68  1  0.18097536  0.88601824  0.86150953  1
  O  O69  1  0.68218801  0.88799885  0.86151578  1
  O  O70  1  0.25667645  0.65005638  0.86353925  1
  O  O71  1  0.75673516  0.65081095  0.86386015  1
  O  O72  1  0.00847229  0.80408033  0.40842192  1
  O  O73  1  0.49965000  0.79202487  0.41057411  1
  O  O74  1  0.41102854  0.01065306  0.41982072  1
  O  O75  1  0.90906832  0.00002297  0.41569613  1
  O  O76  1  0.10310405  0.20221665  0.41053069  1
  O  O77  1  0.59945772  0.20806149  0.41198394  1
  O  O78  1  0.00052029  0.20741068  0.91073311  1
  O  O79  1  0.50066108  0.20764755  0.91030681  1
  O  O80  1  0.09946424  0.99034944  0.91149682  1
  O  O81  1  0.59999763  0.99075041  0.91148157  1
  O  O82  1  0.41184369  0.81627410  0.91934171  1
  O  O83  1  0.91206041  0.81683912  0.91944906  1
  O  O84  1  0.48054394  0.13551856  0.58650100  1
  O  O85  1  0.98012983  0.13584028  0.58708586  1
  O  O86  1  0.09921438  0.02855428  0.58485682  1
  O  O87  1  0.59907783  0.02887002  0.58514690  1
  O  O88  1  0.41861391  0.80211472  0.58449433  1
  O  O89  1  0.91833082  0.80513727  0.58577541  1
  O  O90  1  0.48003940  0.82442684  0.08716008  1
  O  O91  1  0.98144361  0.82066757  0.08945958  1
  O  O92  1  0.41794898  0.03445830  0.08500630  1
  O  O93  1  0.92012286  0.03521816  0.08678519  1
  O  O94  1  0.09729167  0.16829897  0.08779653  1
  O  O95  1  0.59975212  0.16993502  0.08552226  1
  O  O96  1  0.32988881  0.12431786  0.74116253  1
  O  O97  1  0.82982956  0.12438646  0.74143192  1
  O  O98  1  0.24204611  0.32931805  0.74504632  1
  O  O99  1  0.74229445  0.32935574  0.74526733  1
  O  O100  1  0.42765688  0.51639150  0.74622513  1
  O  O101  1  0.92716852  0.51606369  0.74656355  1
  O  O102  1  0.33355642  0.54033848  0.24256076  1
  O  O103  1  0.83828385  0.54121775  0.24138105  1
  O  O104  1  0.42810814  0.34110408  0.24613873  1
  O  O105  1  0.93676179  0.33668134  0.24444613  1
  O  O106  1  0.24314900  0.13671778  0.24785862  1
  O  O107  1  0.73996049  0.16817213  0.24659599  1
  O  O108  1  0.32169005  0.48437572  0.92234360  1
  O  O109  1  0.82234823  0.48555295  0.92276488  1
  O  O110  1  0.43175130  0.37095198  0.92070745  1
  O  O111  1  0.93197242  0.37145914  0.92073974  1
  O  O112  1  0.25181243  0.13390783  0.92188304  1
  O  O113  1  0.75222023  0.13514913  0.92236426  1
  O  O114  1  0.31560456  0.15509638  0.42353794  1
  O  O115  1  0.81894813  0.15521446  0.42306800  1
  O  O116  1  0.25304452  0.36989916  0.41992709  1
  O  O117  1  0.75177404  0.36839461  0.42246977  1
  O  O118  1  0.43181196  0.49187723  0.42122840  1
  O  O119  1  0.93135300  0.50290396  0.42058013  1
  O  O120  1  0.17384921  0.46980629  0.07662419  1
  O  O121  1  0.67655798  0.47234813  0.07652314  1
  O  O122  1  0.07537568  0.66882358  0.08091389  1
  O  O123  1  0.57530062  0.67299773  0.08062836  1
  O  O124  1  0.26765350  0.86686792  0.07884858  1
  O  O125  1  0.77032252  0.86697602  0.07745994  1
  O  O126  1  0.17591697  0.87931705  0.57614688  1
  O  O127  1  0.67513056  0.87809701  0.57713479  1
  O  O128  1  0.26855383  0.66972808  0.57695163  1
  O  O129  1  0.76809658  0.67081580  0.57879806  1
  O  O130  1  0.07504559  0.47800921  0.58128385  1
  O  O131  1  0.57643396  0.47889874  0.57995215  1
  O  O132  1  0.14690056  0.80549949  0.25784253  1
  O  O133  1  0.65246110  0.82238979  0.25656792  1
  O  O134  1  0.26429996  0.70261510  0.25635069  1
  O  O135  1  0.76601226  0.69394874  0.25366649  1
  O  O136  1  0.08663130  0.47068755  0.25334975  1
  O  O137  1  0.59522448  0.48345209  0.25833052  1
  O  O138  1  0.15322238  0.48588286  0.75731051  1
  O  O139  1  0.65354803  0.48630774  0.75755393  1
  O  O140  1  0.09481222  0.70637333  0.75878716  1
  O  O141  1  0.59502717  0.70726329  0.75892910  1
  O  O142  1  0.26593677  0.82770141  0.75515233  1
  O  O143  1  0.76603508  0.82778352  0.75527442  1
loop_
_geom_bond_atom_site_label_1
_geom_bond_atom_site_label_2
_geom_bond_distance
_geom_bond_site_symmetry_2
Na0 O106 2.277076 1_555
Na0 O104 2.492380 1_555
Na0 O134 2.680076 1_545
Na0 O32 2.747804 1_555
Na0 O4 2.770725 1_555
Na1 O107 2.429967 1_555
Na1 O137 2.442987 1_555
Na1 O103 2.696893 1_555
Na1 O65 2.746594 1_555
Na1 O1 2.790180 1_555
Na1 O21 2.822766 1_555
Na1 O135 2.894402 1_555
Na1 O35 2.918119 1_555
Na2 O31 2.289520 1_555
Na2 O132 2.425695 1_655
Na2 O105 2.438655 1_555
Na2 O103 2.608710 1_555
Na2 O136 2.792227 1_655
Na2 O22 2.800792 1_655
Na3 O30 2.293122 1_555
Na3 O104 2.307068 1_555
Na3 O133 2.522305 1_555
Na3 O102 2.734159 1_555
Na3 O137 2.757251 1_555
Na3 O23 2.917995 1_555
Na4 O98 2.360628 1_555
Na4 O100 2.508829 1_555
Na4 O142 2.670527 1_555
Na4 O138 2.790427 1_555
Na4 O28 2.811093 1_555
Na4 O8 2.815228 1_555
Na4 O70 2.890914 1_555
Na5 O99 2.355712 1_555
Na5 O101 2.497011 1_555
Na5 O143 2.671855 1_555
Na5 O29 2.754919 1_555
Na5 O139 2.788067 1_555
Na5 O9 2.840534 1_555
Na5 O71 2.931524 1_555
Na6 O25 2.226114 1_555
Na6 O101 2.322846 1_555
Na6 O138 2.551461 1_655
Na6 O140 2.764837 1_655
Na6 O97 2.765117 1_555
Na6 O14 2.911678 1_655
Na7 O24 2.285923 1_555
Na7 O100 2.318166 1_555
Na7 O139 2.554843 1_555
Na7 O96 2.767470 1_555
Na7 O141 2.770548 1_555
Na7 O15 2.906949 1_555
Na8 O140 2.466495 1_545
Na8 O98 2.552960 1_555
Na8 O96 2.572569 1_555
Na8 O6 2.759278 1_555
Na8 O68 2.792974 1_545
Na8 O16 2.797585 1_545
Na8 O26 2.920656 1_555
Na9 O141 2.466760 1_545
Na9 O99 2.546336 1_555
Na9 O97 2.548575 1_555
Na9 O7 2.779495 1_555
Na9 O69 2.806364 1_545
Na9 O17 2.806706 1_545
Na9 O27 2.833652 1_555
Na10 O54 2.330994 1_555
Na10 O84 2.364195 1_565
Na10 O128 2.434277 1_555
Na10 O126 2.603332 1_555
Na10 O88 2.731608 1_555
Na10 O46 2.838990 1_565
Na11 O55 2.222677 1_555
Na11 O85 2.356877 1_565
Na11 O129 2.439222 1_555
Na11 O127 2.621181 1_555
Na11 O89 2.713152 1_555
Na11 O47 2.785107 1_565
Na12 O48 2.300049 1_554
Na12 O90 2.346141 1_555
Na12 O124 2.455845 1_555
Na12 O120 2.649917 1_555
Na12 O92 2.722359 1_565
Na12 O38 2.811109 1_555
Na13 O49 2.268937 1_554
Na13 O125 2.406098 1_555
Na13 O91 2.420342 1_555
Na13 O121 2.571154 1_555
Na13 O93 2.761214 1_565
Na13 O39 2.824909 1_555
Na14 O82 2.255886 1_555
Na14 O8 2.387230 1_555
Na14 O110 2.555540 1_555
Na14 O81 2.581933 1_555
Na14 O108 2.626612 1_555
Na15 O83 2.260448 1_555
Na15 O9 2.355516 1_555
Na15 O111 2.558345 1_555
Na15 O80 2.573999 1_655
Na15 O109 2.624130 1_555
Na16 O74 2.268542 1_555
Na16 O4 2.331576 1_555
Na16 O77 2.536752 1_555
Na16 O118 2.585133 1_555
Na16 O114 2.800306 1_555
Na16 O61 2.914829 1_555
Na17 O0 2.280613 1_555
Na17 O76 2.427425 1_555
Na17 O114 2.447125 1_555
Na17 O72 2.569058 1_545
Na17 O116 2.783097 1_555
Na17 O62 2.865803 1_545
Na18 O75 2.254097 1_555
Na18 O85 2.453422 1_555
Na18 O89 2.660341 1_545
Na18 O76 2.841642 1_655
Na18 O86 2.915134 1_655
Na18 O72 2.956722 1_645
Na19 O74 2.371783 1_565
Na19 O84 2.564218 1_565
Na19 O88 2.654343 1_555
Na19 O77 2.724251 1_565
Na19 O87 2.730303 1_565
Na19 O73 2.761325 1_555
Na20 O83 2.299323 1_555
Na20 O93 2.683488 1_566
Na20 O78 2.683829 1_665
Na20 O91 2.707318 1_556
Na20 O80 2.752365 1_655
Na20 O94 2.829770 1_666
Na21 O82 2.331678 1_555
Na21 O90 2.547351 1_556
Na21 O92 2.620525 1_566
Na21 O95 2.777596 1_566
Na21 O79 2.780044 1_565
Na21 O81 2.806505 1_555
Na22 O98 2.417515 1_555
Na22 O108 2.532731 1_555
Na22 O100 2.596976 1_555
Na22 O112 2.774291 1_555
Na22 O110 2.814052 1_555
Na22 O96 2.928661 1_555
Na23 O99 2.394782 1_555
Na23 O101 2.561756 1_555
Na23 O109 2.567426 1_555
Na23 O113 2.800414 1_555
Na23 O111 2.830461 1_555
Na23 O97 2.903350 1_555
Na24 O106 2.355104 1_555
Na24 O104 2.494465 1_555
Na24 O102 2.689891 1_555
Na24 O114 2.766840 1_555
Na24 O116 2.818160 1_555
Na24 O118 2.899738 1_555
Na25 O107 2.346439 1_555
Na25 O115 2.380856 1_555
Na25 O117 2.728967 1_555
Na25 O105 2.882556 1_555
Na25 O119 2.916710 1_555
Na26 O122 2.258570 1_555
Na26 O132 2.682142 1_555
Na26 O136 2.706093 1_555
Na26 O124 2.751719 1_555
Na26 O120 2.785083 1_555
Na26 O134 2.988000 1_555
Na27 O123 2.282020 1_555
Na27 O133 2.579141 1_555
Na27 O137 2.704382 1_555
Na27 O125 2.856186 1_555
Na27 O121 2.943863 1_555
Na27 O135 2.985499 1_555
Na28 O130 2.237130 1_555
Na28 O138 2.643086 1_555
Na28 O140 2.687705 1_555
Na28 O126 2.877274 1_555
Na28 O128 2.900574 1_555
Na29 O131 2.243161 1_555
Na29 O139 2.683483 1_555
Na29 O141 2.740576 1_555
Na29 O129 2.802164 1_555
Na29 O127 2.816264 1_555
Ca0 O75 2.168647 1_555
Ca0 O5 2.217211 1_555
Ca0 O3 2.233432 1_545
Ca0 O0 2.235447 1_655
Ca0 O76 2.335958 1_655
Ca0 O72 2.371416 1_645
Ca1 O1 2.127310 1_565
Ca1 O4 2.186018 1_565
Ca1 O2 2.248839 1_555
Ca1 O74 2.313405 1_565
Ca1 O77 2.336834 1_565
Ca1 O73 2.346672 1_555
Ca2 O6 2.144942 1_665
Ca2 O9 2.179358 1_555
Ca2 O11 2.252336 1_565
Ca2 O83 2.276459 1_555
Ca2 O80 2.350560 1_655
Ca2 O78 2.351245 1_665
Ca3 O7 2.145962 1_565
Ca3 O8 2.182356 1_555
Ca3 O10 2.260936 1_565
Ca3 O82 2.270455 1_555
Ca3 O79 2.341403 1_565
Ca3 O81 2.348118 1_555
Ca4 O24 2.154754 1_555
Ca4 O100 2.213766 1_555
Ca4 O28 2.238232 1_555
Ca4 O26 2.266380 1_555
Ca4 O98 2.270564 1_555
Ca4 O96 2.406128 1_555
Ca5 O25 2.153830 1_555
Ca5 O101 2.226611 1_555
Ca5 O29 2.230329 1_555
Ca5 O27 2.271726 1_555
Ca5 O99 2.281781 1_555
Ca5 O97 2.419916 1_555
Ca6 O30 2.174534 1_555
Ca6 O104 2.224480 1_555
Ca6 O34 2.232156 1_555
Ca6 O32 2.258405 1_555
Ca6 O106 2.297370 1_555
Ca6 O102 2.387899 1_555
Ca7 O31 2.182700 1_555
Ca7 O33 2.192685 1_555
Ca7 O107 2.194221 1_555
Ca7 O35 2.264343 1_555
Ca7 O105 2.308174 1_555
Ca7 O103 2.417584 1_555
Ca8 O48 2.177038 1_554
Ca8 O52 2.206616 1_554
Ca8 O122 2.213807 1_555
Ca8 O50 2.232717 1_554
Ca8 O124 2.319935 1_555
Ca8 O120 2.354196 1_555
Ca9 O49 2.193172 1_554
Ca9 O123 2.202454 1_555
Ca9 O53 2.209889 1_554
Ca9 O51 2.234937 1_554
Ca9 O125 2.321825 1_555
Ca9 O121 2.352972 1_555
Ca10 O130 2.170899 1_555
Ca10 O54 2.204259 1_555
Ca10 O58 2.218342 1_555
Ca10 O56 2.219742 1_555
Ca10 O128 2.317422 1_555
Ca10 O126 2.395027 1_555
Ca11 O55 2.184753 1_555
Ca11 O57 2.206231 1_555
Ca11 O131 2.214825 1_555
Ca11 O59 2.233885 1_555
Ca11 O129 2.313562 1_555
Ca11 O127 2.366322 1_555
Hf0 O14 1.949683 1_555
Hf0 O16 2.031937 1_545
Hf0 O85 2.068295 1_455
Hf0 O86 2.181531 1_555
Hf0 O89 2.307182 1_445
Hf0 O13 2.309094 1_445
Hf1 O15 1.942102 1_555
Hf1 O17 2.027174 1_545
Hf1 O84 2.075470 1_555
Hf1 O87 2.165416 1_555
Hf1 O12 2.320663 1_545
Hf1 O88 2.354748 1_545
Hf2 O22 1.941480 1_555
Hf2 O91 1.979580 1_455
Hf2 O94 2.158817 1_565
Hf2 O19 2.215316 1_455
Hf2 O20 2.278992 1_565
Hf2 O93 2.289288 1_465
Hf3 O23 1.935428 1_545
Hf3 O21 2.025245 1_555
Hf3 O90 2.081874 1_545
Hf3 O95 2.181671 1_555
Hf3 O18 2.322423 1_545
Hf3 O92 2.349521 1_555
Hf4 O38 1.940788 1_556
Hf4 O108 1.973390 1_555
Hf4 O36 2.159050 1_556
Hf4 O110 2.231617 1_555
Hf4 O40 2.274049 1_556
Hf4 O112 2.281848 1_555
Hf5 O39 1.957605 1_556
Hf5 O109 1.968141 1_555
Hf5 O37 2.131107 1_556
Hf5 O111 2.213817 1_555
Hf5 O113 2.256684 1_555
Hf5 O41 2.292502 1_556
Hf6 O46 1.930197 1_555
Hf6 O114 2.007733 1_555
Hf6 O118 2.158813 1_555
Hf6 O42 2.177156 1_555
Hf6 O44 2.221300 1_555
Hf6 O116 2.308014 1_555
Hf7 O47 1.936444 1_555
Hf7 O115 1.945701 1_555
Hf7 O43 2.178493 1_555
Hf7 O119 2.208508 1_555
Hf7 O117 2.288930 1_555
Hf7 O45 2.341948 1_555
Hf8 O62 1.959175 1_555
Hf8 O132 2.000439 1_555
Hf8 O134 2.164986 1_555
Hf8 O60 2.167695 1_555
Hf8 O64 2.206022 1_555
Hf8 O136 2.297626 1_555
Hf9 O63 1.952633 1_555
Hf9 O133 1.983676 1_555
Hf9 O137 2.115827 1_555
Hf9 O135 2.202676 1_555
Hf9 O61 2.246931 1_555
Hf9 O65 2.330149 1_555
Hf10 O70 1.989504 1_555
Hf10 O138 1.998839 1_555
Hf10 O140 2.095128 1_555
Hf10 O66 2.175339 1_555
Hf10 O142 2.205406 1_555
Hf10 O68 2.280215 1_555
Hf11 O71 1.989903 1_555
Hf11 O139 1.997500 1_555
Hf11 O141 2.095393 1_555
Hf11 O67 2.173601 1_555
Hf11 O143 2.202457 1_555
Hf11 O69 2.284412 1_555
O0 Si0 1.588660 1_545
O1 Si1 1.581308 1_555
O2 S0 1.457748 1_555
O3 S1 1.457823 1_555
O4 Si2 1.607145 1_555
O5 S2 1.453744 1_655
O6 Si3 1.578958 1_555
O7 Si4 1.578175 1_555
O8 Si6 1.604241 1_555
O9 Si5 1.604936 1_655
O10 S3 1.460460 1_545
O11 S4 1.461385 1_545
O12 S3 1.505443 1_555
O13 S4 1.504871 1_555
O14 Si3 1.692151 1_555
O15 Si4 1.696333 1_555
O16 Si5 1.699915 1_555
O17 Si6 1.702308 1_555
O18 S0 1.511604 1_555
O19 S1 1.517262 1_555
O20 S2 1.504406 1_555
O21 Si2 1.704393 1_555
O22 Si0 1.713577 1_555
O23 Si1 1.704999 1_565
O24 Si7 1.599172 1_555
O25 Si8 1.598657 1_555
O26 S5 1.467537 1_555
O27 S6 1.465567 1_555
O28 S7 1.467592 1_555
O29 S8 1.469728 1_555
O30 Si9 1.597394 1_555
O31 Si10 1.595401 1_555
O32 S9 1.464780 1_555
O33 S10 1.457838 1_555
O34 S11 1.454159 1_555
O35 S12 1.462700 1_555
O36 S11 1.515445 1_555
O37 S12 1.516788 1_555
O38 Si9 1.744346 1_555
O39 Si10 1.718994 1_555
O40 S9 1.502830 1_555
O41 S10 1.502454 1_555
O42 S5 1.520514 1_555
O43 S6 1.503822 1_555
O44 S7 1.509978 1_555
O45 S8 1.492464 1_555
O46 Si7 1.742958 1_555
O47 Si8 1.721950 1_555
O48 Si11 1.589617 1_555
O49 Si12 1.587274 1_555
O50 S13 1.440955 1_555
O51 S14 1.438435 1_555
O52 S15 1.458563 1_555
O53 S16 1.455974 1_555
O54 Si13 1.584070 1_555
O55 Si14 1.594252 1_555
O56 S17 1.447302 1_555
O57 S18 1.461176 1_555
O58 S19 1.451043 1_555
O59 S20 1.450005 1_555
O60 S19 1.532226 1_555
O61 S20 1.521086 1_555
O62 Si13 1.731294 1_555
O63 Si14 1.698444 1_555
O64 S17 1.514365 1_555
O65 S18 1.513358 1_555
O66 S13 1.532757 1_555
O67 S14 1.535357 1_555
O68 S15 1.519817 1_555
O69 S16 1.518620 1_555
O70 Si11 1.704036 1_555
O71 Si12 1.700755 1_555
O72 S19 1.464206 1_555
O73 S20 1.446170 1_555
O74 Si13 1.604473 1_545
O75 Si14 1.602780 1_545
O76 S17 1.474671 1_555
O77 S18 1.475600 1_555
O78 S13 1.453241 1_555
O79 S14 1.454346 1_555
O80 S15 1.469419 1_555
O81 S16 1.468531 1_555
O82 Si11 1.615917 1_555
O83 Si12 1.617625 1_555
O84 Si7 1.691219 1_555
O85 Si8 1.691085 1_555
O86 S5 1.502896 1_555
O87 S6 1.511230 1_555
O88 S7 1.502518 1_555
O89 S8 1.511180 1_555
O90 Si9 1.696338 1_555
O91 Si10 1.719439 1_555
O92 S9 1.506113 1_555
O93 S10 1.517284 1_555
O94 S11 1.513088 1_555
O95 S12 1.503951 1_555
O96 S3 1.470875 1_545
O97 S4 1.468705 1_545
O98 Si3 1.619121 1_555
O99 Si4 1.617558 1_555
O100 Si6 1.624597 1_555
O101 Si5 1.623515 1_655
O102 S0 1.456615 1_555
O103 S1 1.471559 1_555
O104 Si2 1.624031 1_555
O105 S2 1.477834 1_655
O106 Si0 1.604061 1_545
O107 Si1 1.611979 1_555
O108 Si11 1.723071 1_555
O109 Si12 1.727373 1_555
O110 S14 1.527640 1_555
O111 S13 1.526565 1_655
O112 S15 1.499643 1_545
O113 S16 1.503591 1_545
O114 Si13 1.723354 1_545
O115 Si14 1.715349 1_545
O116 S17 1.513790 1_555
O117 S18 1.497617 1_555
O118 S20 1.540569 1_555
O119 S19 1.501464 1_655
O120 S11 1.461474 1_555
O121 S12 1.459565 1_555
O122 Si10 1.591057 1_455
O123 Si9 1.596844 1_555
O124 S9 1.479941 1_565
O125 S10 1.471411 1_565
O126 S5 1.457977 1_565
O127 S6 1.464421 1_565
O128 S7 1.469350 1_555
O129 S8 1.477754 1_555
O130 Si8 1.594908 1_455
O131 Si7 1.592931 1_555
O132 Si0 1.721389 1_555
O133 Si1 1.687279 1_565
O134 S0 1.528613 1_555
O135 S1 1.502243 1_555
O136 S2 1.516679 1_555
O137 Si2 1.676026 1_555
O138 Si3 1.690451 1_555
O139 Si4 1.689496 1_555
O140 Si5 1.683306 1_555
O141 Si6 1.681474 1_555
O142 S3 1.514332 1_555
O143 S4 1.514641 1_555
