# generated using pymatgen
data_CsFeF3
_symmetry_space_group_name_H-M   'P 1'
_cell_length_a   6.13446560
_cell_length_b   6.13405353
_cell_length_c   14.80876746
_cell_angle_alpha   90.69612700
_cell_angle_beta   90.69471917
_cell_angle_gamma   119.41452912
_symmetry_Int_Tables_number   1
_chemical_formula_structural   CsFeF3
_chemical_formula_sum   'Cs6 Fe6 F18'
_cell_volume   485.26630085
_cell_formula_units_Z   6
loop_
 _symmetry_equiv_pos_site_id
 _symmetry_equiv_pos_as_xyz
  1  'x, y, z'
loop_
 _atom_site_type_symbol
 _atom_site_label
 _atom_site_symmetry_multiplicity
 _atom_site_fract_x
 _atom_site_fract_y
 _atom_site_fract_z
 _atom_site_occupancy
  Cs  Cs0  1  0.00183039  0.99878945  0.25003583  1
  Cs  Cs1  1  -0.00147642  0.00139293  0.74990963  1
  Cs  Cs2  1  0.33707909  0.66783634  0.09614436  1
  Cs  Cs3  1  0.66870457  0.33777147  0.59590644  1
  Cs  Cs4  1  0.66259577  0.33025842  0.90414107  1
  Cs  Cs5  1  0.33129385  0.66387793  0.40379363  1
  Fe  Fe0  1  -0.00043931  -0.00104540  0.00014210  1
  Fe  Fe1  1  0.33729363  0.66860745  0.65248755  1
  Fe  Fe2  1  0.66797219  0.33664543  0.15255376  1
  Fe  Fe3  1  0.66305313  0.33270772  0.34751477  1
  Fe  Fe4  1  0.33192759  0.66224884  0.84754067  1
  Fe  Fe5  1  0.00028747  0.00084730  0.49985576  1
  F  F0  1  0.34917987  0.17036173  0.08162060  1
  F  F1  1  0.83904325  0.15692141  0.42415610  1
  F  F2  1  0.82830735  0.65164713  0.41849692  1
  F  F3  1  0.33285241  0.16423294  0.42346508  1
  F  F4  1  0.65032427  0.82716536  0.91877695  1
  F  F5  1  0.17174390  0.35037058  0.58124798  1
  F  F6  1  0.52788729  0.05045317  0.25604654  1
  F  F7  1  0.48056586  0.51939715  0.74989424  1
  F  F8  1  0.05032370  0.52742980  0.75585374  1
  F  F9  1  0.94987447  0.47270215  0.24413409  1
  F  F10  1  0.51955664  0.48072951  0.24991753  1
  F  F11  1  0.47258639  0.94977224  0.74429573  1
  F  F12  1  0.83694584  0.66644947  0.07661489  1
  F  F13  1  0.16146312  0.84503480  0.57544706  1
  F  F14  1  0.66717802  0.83779280  0.57629413  1
  F  F15  1  0.16301385  0.33185569  0.92363230  1
  F  F16  1  0.84379304  0.16011384  0.07574724  1
  F  F17  1  0.15523977  0.83763135  0.92433030  1
loop_
_geom_bond_atom_site_label_1
_geom_bond_atom_site_label_2
_geom_bond_distance
_geom_bond_site_symmetry_2
Cs0 F6 3.077640 1_465
Cs0 F9 3.078227 1_465
Cs0 F9 3.083060 1_455
Cs0 F6 3.083861 1_565
Cs0 F16 3.086164 1_465
Cs0 F3 3.087951 1_565
Cs0 F1 3.088676 1_465
Cs0 F12 3.091722 1_455
Cs0 F10 3.099059 1_565
Cs0 F10 3.101007 1_455
Cs0 F2 3.139740 1_455
Cs0 F0 3.139747 1_565
Cs1 F11 3.077997 1_545
Cs1 F8 3.078018 1_545
Cs1 F8 3.083154 1_555
Cs1 F11 3.083157 1_445
Cs1 F13 3.088352 1_545
Cs1 F15 3.089791 1_555
Cs1 F14 3.091251 1_445
Cs1 F17 3.091336 1_545
Cs1 F7 3.099955 1_445
Cs1 F7 3.100224 1_555
Cs1 F5 3.147992 1_555
Cs1 F4 3.148095 1_445
Cs2 F10 3.003262 1_555
Cs2 F9 3.045474 1_455
Cs2 F0 3.057028 1_565
Cs2 F12 3.073993 1_455
Cs2 F12 3.087667 1_555
Cs2 F15 3.091662 1_554
Cs2 F0 3.093635 1_555
Cs2 F6 3.095966 1_565
Cs2 F16 3.105739 1_455
Cs2 F16 3.114004 1_565
Cs2 F4 3.144321 1_554
Cs2 F17 3.152713 1_554
Cs3 F7 3.006394 1_555
Cs3 F11 3.052763 1_545
Cs3 F5 3.059106 1_655
Cs3 F14 3.072519 1_545
Cs3 F14 3.088962 1_555
Cs3 F3 3.090488 1_555
Cs3 F5 3.092372 1_555
Cs3 F8 3.093163 1_655
Cs3 F13 3.102656 1_545
Cs3 F13 3.117285 1_655
Cs3 F2 3.146658 1_555
Cs3 F1 3.150553 1_555
Cs4 F7 3.014237 1_555
Cs4 F8 3.050874 1_655
Cs4 F4 3.060147 1_545
Cs4 F15 3.075056 1_655
Cs4 F15 3.086499 1_555
Cs4 F11 3.088002 1_545
Cs4 F4 3.090793 1_555
Cs4 F12 3.091844 1_556
Cs4 F17 3.102501 1_655
Cs4 F17 3.116725 1_545
Cs4 F0 3.146291 1_556
Cs4 F16 3.149339 1_556
Cs5 F10 3.010727 1_555
Cs5 F6 3.040653 1_565
Cs5 F2 3.059899 1_455
Cs5 F3 3.074793 1_565
Cs5 F3 3.086853 1_555
Cs5 F9 3.089240 1_455
Cs5 F14 3.091314 1_555
Cs5 F2 3.091583 1_555
Cs5 F1 3.105085 1_565
Cs5 F1 3.114630 1_455
Cs5 F5 3.146153 1_555
Cs5 F13 3.148743 1_555
F0 Fe2 1.983201 1_555
F0 Fe0 2.202873 1_555
F1 Fe5 2.020149 1_655
F1 Fe3 2.181711 1_555
F2 Fe3 1.983984 1_555
F2 Fe5 2.199909 1_665
F3 Fe3 2.112676 1_555
F3 Fe5 2.126356 1_555
F4 Fe4 1.983554 1_555
F4 Fe0 2.200248 1_666
F5 Fe1 1.982842 1_555
F5 Fe5 2.201642 1_555
F6 Fe3 2.006382 1_555
F6 Fe2 2.187391 1_555
F7 Fe4 2.115706 1_555
F7 Fe1 2.117163 1_555
F8 Fe4 2.006054 1_555
F8 Fe1 2.189113 1_555
F9 Fe2 2.006070 1_555
F9 Fe3 2.188647 1_555
F10 Fe3 2.115252 1_555
F10 Fe2 2.116651 1_555
F11 Fe1 2.005350 1_555
F11 Fe4 2.189852 1_555
F12 Fe2 2.110815 1_555
F12 Fe0 2.126641 1_665
F13 Fe5 2.017801 1_565
F13 Fe1 2.186999 1_555
F14 Fe1 2.113367 1_555
F14 Fe5 2.129187 1_665
F15 Fe4 2.114667 1_555
F15 Fe0 2.128755 1_556
F16 Fe0 2.017616 1_655
F16 Fe2 2.185544 1_555
F17 Fe0 2.019644 1_566
F17 Fe4 2.184219 1_555
