# generated using pymatgen
data_Na2H2Pd
_symmetry_space_group_name_H-M   'P 1'
_cell_length_a   3.52578055
_cell_length_b   3.52578050
_cell_length_c   6.15442726
_cell_angle_alpha   106.64511459
_cell_angle_beta   106.64510281
_cell_angle_gamma   90.00000796
_symmetry_Int_Tables_number   1
_chemical_formula_structural   Na2H2Pd
_chemical_formula_sum   'Na2 H2 Pd1'
_cell_volume   69.94805318
_cell_formula_units_Z   1
loop_
 _symmetry_equiv_pos_site_id
 _symmetry_equiv_pos_as_xyz
  1  'x, y, z'
loop_
 _atom_site_type_symbol
 _atom_site_label
 _atom_site_symmetry_multiplicity
 _atom_site_fract_x
 _atom_site_fract_y
 _atom_site_fract_z
 _atom_site_occupancy
  Na  Na0  1  0.64034865  0.64034865  0.28069830  1
  Na  Na1  1  0.35965135  0.35965135  0.71930170  1
  H  H0  1  0.85014349  0.85014349  0.70028698  1
  H  H1  1  0.14985651  0.14985651  0.29971202  1
  Pd  Pd0  1  -0.00000000  -0.00000000  0.00000000  1
loop_
_geom_bond_atom_site_label_1
_geom_bond_atom_site_label_2
_geom_bond_distance
_geom_bond_site_symmetry_2
H0 Pd0 1.686439 1_666
H0 Na0 2.360961 1_555
H0 Na1 2.495395 1_555
H0 Na1 2.495398 1_565
H0 Na1 2.495398 1_655
H0 Na1 2.495400 1_665
H1 Pd0 1.686434 1_555
H1 Na1 2.360967 1_555
H1 Na0 2.495393 1_555
H1 Na0 2.495398 1_545
H1 Na0 2.495398 1_455
H1 Na0 2.495403 1_445
