# generated using pymatgen
data_Li3Ni3(PO4)4
_symmetry_space_group_name_H-M   'P 1'
_cell_length_a   7.96221700
_cell_length_b   7.56657000
_cell_length_c   9.91354018
_cell_angle_alpha   87.61893858
_cell_angle_beta   90.00000000
_cell_angle_gamma   90.00000000
_symmetry_Int_Tables_number   1
_chemical_formula_structural   Li3Ni3(PO4)4
_chemical_formula_sum   'Li6 Ni6 P8 O32'
_cell_volume   596.74214430
_cell_formula_units_Z   2
loop_
 _symmetry_equiv_pos_site_id
 _symmetry_equiv_pos_as_xyz
  1  'x, y, z'
loop_
 _atom_site_type_symbol
 _atom_site_label
 _atom_site_symmetry_multiplicity
 _atom_site_fract_x
 _atom_site_fract_y
 _atom_site_fract_z
 _atom_site_occupancy
  Li  Li0  1  0.36982800  0.66898600  0.18054900  1
  Li  Li1  1  0.86982800  0.33101400  0.81945100  1
  Li  Li2  1  0.14049800  0.16483000  0.42662900  1
  Li  Li3  1  0.14132300  0.16713300  0.92556100  1
  Li  Li4  1  0.64049800  0.83517000  0.57337100  1
  Li  Li5  1  0.64132300  0.83286700  0.07443900  1
  Ni  Ni0  1  0.35462400  0.65562700  0.69035100  1
  Ni  Ni1  1  0.85462400  0.34437300  0.30964900  1
  Ni  Ni2  1  0.51168400  0.22138400  0.87512000  1
  Ni  Ni3  1  0.49533200  0.24267900  0.37760200  1
  Ni  Ni4  1  0.99533200  0.75732100  0.62239800  1
  Ni  Ni5  1  0.01168400  0.77861600  0.12488000  1
  P  P0  1  0.80625600  0.94634500  0.35937700  1
  P  P1  1  0.82346700  0.93802500  0.85885800  1
  P  P2  1  0.32346700  0.06197500  0.14114200  1
  P  P3  1  0.30625600  0.05365500  0.64062300  1
  P  P4  1  0.68076400  0.43244700  0.10030100  1
  P  P5  1  0.68085200  0.43035300  0.61492900  1
  P  P6  1  0.18085200  0.56964700  0.38507100  1
  P  P7  1  0.18076400  0.56755300  0.89969900  1
  O  O0  1  0.87905200  0.78844100  0.96599700  1
  O  O1  1  0.86086400  0.79634800  0.46297700  1
  O  O2  1  0.81814600  0.86968100  0.21537300  1
  O  O3  1  0.44026700  0.90709900  0.14851700  1
  O  O4  1  0.81206400  0.84448100  0.72004100  1
  O  O5  1  0.42120100  0.88950800  0.63131800  1
  O  O6  1  0.15086900  0.71361900  0.77763800  1
  O  O7  1  0.13510500  0.72654200  0.28621600  1
  O  O8  1  0.17975000  0.64552400  0.53204100  1
  O  O9  1  0.55558700  0.58729700  0.61156800  1
  O  O10  1  0.19541700  0.66509800  0.03198800  1
  O  O11  1  0.56311600  0.58504300  0.09617900  1
  O  O12  1  0.85874700  0.49297900  0.64725600  1
  O  O13  1  0.36258000  0.51159500  0.84582000  1
  O  O14  1  0.86258000  0.48840500  0.15418000  1
  O  O15  1  0.35874700  0.50702100  0.35274400  1
  O  O16  1  0.05558700  0.41270300  0.38843200  1
  O  O17  1  0.67975000  0.35447600  0.46795900  1
  O  O18  1  0.06311600  0.41495700  0.90382100  1
  O  O19  1  0.63510500  0.27345800  0.71378400  1
  O  O20  1  0.69541700  0.33490200  0.96801200  1
  O  O21  1  0.65086900  0.28638100  0.22236200  1
  O  O22  1  0.36086400  0.20365200  0.53702300  1
  O  O23  1  0.31814600  0.13031900  0.78462700  1
  O  O24  1  0.37905200  0.21155900  0.03400300  1
  O  O25  1  0.94026700  0.09290100  0.85148300  1
  O  O26  1  0.31206400  0.15551900  0.27995900  1
  O  O27  1  0.92120100  0.11049200  0.36868200  1
  O  O28  1  0.62385100  0.99409600  0.39483400  1
  O  O29  1  0.12385100  0.00590400  0.60516600  1
  O  O30  1  0.63875400  0.98132000  0.89756300  1
  O  O31  1  0.13875400  0.01868000  0.10243700  1
loop_
_geom_bond_atom_site_label_1
_geom_bond_atom_site_label_2
_geom_bond_distance
_geom_bond_site_symmetry_2
Li0 O11 1.875012 1_555
Li0 O3 1.901045 1_555
Li0 O10 2.025336 1_555
Li0 O15 2.061532 1_555
Li0 O7 2.194935 1_555
Li1 O18 1.875012 1_655
Li1 O25 1.901045 1_555
Li1 O20 2.025336 1_555
Li1 O12 2.061532 1_555
Li1 O19 2.194935 1_555
Li2 O27 1.888785 1_455
Li2 O26 1.998431 1_555
Li2 O16 2.014731 1_555
Li2 O22 2.095073 1_555
Li2 O29 2.102249 1_555
Li3 O25 1.857900 1_455
Li3 O18 1.979120 1_555
Li3 O23 2.011011 1_555
Li3 O31 2.042833 1_556
Li3 O24 2.209440 1_556
Li4 O5 1.888785 1_555
Li4 O4 1.998431 1_555
Li4 O9 2.014731 1_555
Li4 O1 2.095073 1_555
Li4 O28 2.102249 1_555
Li5 O3 1.857900 1_555
Li5 O11 1.979120 1_555
Li5 O2 2.011011 1_555
Li5 O30 2.042833 1_554
Li5 O0 2.209440 1_554
Ni0 O13 1.851382 1_555
Ni0 O9 1.863119 1_555
Ni0 O6 1.898650 1_555
Ni0 O5 1.915515 1_555
Ni0 O8 2.101810 1_555
Ni1 O14 1.851382 1_555
Ni1 O16 1.863119 1_655
Ni1 O21 1.898650 1_555
Ni1 O27 1.915515 1_555
Ni1 O17 2.101810 1_555
Ni2 O24 1.895243 1_556
Ni2 O19 1.904393 1_555
Ni2 O23 1.924995 1_555
Ni2 O20 1.947224 1_555
Ni2 O30 2.083053 1_545
Ni2 O13 2.502558 1_555
Ni3 O26 1.885288 1_555
Ni3 O22 1.921586 1_555
Ni3 O17 1.933146 1_555
Ni3 O21 1.992284 1_555
Ni3 O28 2.141841 1_545
Ni3 O15 2.281035 1_555
Ni4 O4 1.885288 1_555
Ni4 O1 1.921586 1_555
Ni4 O8 1.933146 1_655
Ni4 O6 1.992284 1_655
Ni4 O29 2.141841 1_665
Ni4 O12 2.281035 1_555
Ni5 O0 1.895243 1_454
Ni5 O7 1.904393 1_555
Ni5 O2 1.924995 1_455
Ni5 O10 1.947224 1_555
Ni5 O31 2.083053 1_565
Ni5 O14 2.502558 1_455
O0 P1 1.582769 1_555
O1 P0 1.560498 1_555
O2 P0 1.565976 1_555
O3 P2 1.495461 1_565
O4 P1 1.576074 1_555
O5 P3 1.548641 1_565
O6 P7 1.622122 1_555
O7 P6 1.551050 1_555
O8 P6 1.588092 1_555
O9 P5 1.550105 1_555
O10 P7 1.535810 1_554
O11 P4 1.486067 1_555
O12 P5 1.531721 1_555
O13 P7 1.605951 1_555
O14 P4 1.605951 1_555
O15 P6 1.531721 1_555
O16 P6 1.550105 1_555
O17 P5 1.588092 1_555
O18 P7 1.486067 1_555
O19 P5 1.551050 1_555
O20 P4 1.535810 1_556
O21 P4 1.622122 1_555
O22 P3 1.560498 1_555
O23 P3 1.565976 1_555
O24 P2 1.582769 1_555
O25 P1 1.495461 1_545
O26 P2 1.576074 1_555
O27 P0 1.548641 1_545
O28 P0 1.540769 1_555
O29 P3 1.540769 1_555
O30 P1 1.558212 1_555
O31 P2 1.558212 1_555
