# generated using pymatgen
data_Na14La6Ta2Si9(SO16)3
_symmetry_space_group_name_H-M   'P 1'
_cell_length_a   19.20707740
_cell_length_b   9.57543717
_cell_length_c   23.26040373
_cell_angle_alpha   90.16309057
_cell_angle_beta   89.47774872
_cell_angle_gamma   119.88517850
_symmetry_Int_Tables_number   1
_chemical_formula_structural   Na14La6Ta2Si9(SO16)3
_chemical_formula_sum   'Na42 La18 Ta6 Si27 S9 O144'
_cell_volume   3708.94361059
_cell_formula_units_Z   3
loop_
 _symmetry_equiv_pos_site_id
 _symmetry_equiv_pos_as_xyz
  1  'x, y, z'
loop_
 _atom_site_type_symbol
 _atom_site_label
 _atom_site_symmetry_multiplicity
 _atom_site_fract_x
 _atom_site_fract_y
 _atom_site_fract_z
 _atom_site_occupancy
  Na  Na0  1  0.81405897  0.00913136  0.23639614  1
  Na  Na1  1  0.68936485  0.36735379  0.23649112  1
  Na  Na2  1  0.50173812  0.62260899  0.23879216  1
  Na  Na3  1  0.31284994  0.61693607  0.73573677  1
  Na  Na4  1  0.99185447  0.35731022  0.74052898  1
  Na  Na5  1  0.18709670  0.01134017  0.73561248  1
  Na  Na6  1  0.15035340  0.32407939  0.58850405  1
  Na  Na7  1  0.66113995  0.33760658  0.59494395  1
  Na  Na8  1  0.01401962  0.69711469  0.59028634  1
  Na  Na9  1  0.50927930  0.67666861  0.58690945  1
  Na  Na10  1  0.32485568  0.97947268  0.59135957  1
  Na  Na11  1  0.83541351  0.98243440  0.59640943  1
  Na  Na12  1  0.15778926  0.98410659  0.09034291  1
  Na  Na13  1  0.65753166  0.97316931  0.08194557  1
  Na  Na14  1  0.33351825  0.68497556  0.09097855  1
  Na  Na15  1  0.82883839  0.68040835  0.08647987  1
  Na  Na16  1  0.00974808  0.34137713  0.08196395  1
  Na  Na17  1  0.51546765  0.34359309  0.08106279  1
  Na  Na18  1  0.49105094  0.67363754  0.91176474  1
  Na  Na19  1  0.97921065  0.64680657  0.90581547  1
  Na  Na20  1  0.36397812  0.06238384  0.91078690  1
  Na  Na21  1  0.85346563  0.05118771  0.90869904  1
  Na  Na22  1  0.15702304  0.29663238  0.91605635  1
  Na  Na23  1  0.66166075  0.28711772  0.92144803  1
  Na  Na24  1  0.48068201  0.31419782  0.41356285  1
  Na  Na25  1  0.98916510  0.30489128  0.41910179  1
  Na  Na26  1  0.15802488  0.03574168  0.42722911  1
  Na  Na27  1  0.65968737  0.01613029  0.42397264  1
  Na  Na28  1  0.35178456  0.65115655  0.42292437  1
  Na  Na29  1  0.86264878  0.66702972  0.41565022  1
  Na  Na30  1  0.00647960  0.00262017  0.50948007  1
  Na  Na31  1  0.50395844  0.98483016  0.50720174  1
  Na  Na32  1  0.00183740  0.02082310  -0.00009845  1
  Na  Na33  1  0.50794288  0.01292247  0.99551639  1
  Na  Na34  1  0.35111853  0.33806381  0.82101119  1
  Na  Na35  1  0.83693028  0.31871701  0.82972915  1
  Na  Na36  1  0.33677699  0.33571288  0.33687713  1
  Na  Na37  1  0.85149677  0.36561118  0.32275551  1
  Na  Na38  1  0.16632270  0.66750005  0.16115374  1
  Na  Na39  1  0.66882271  0.66748040  0.16279069  1
  Na  Na40  1  0.16603063  0.66751589  0.66443649  1
  Na  Na41  1  0.67117124  0.67106944  0.66615477  1
  La  La0  1  0.00111621  0.99693390  0.34172706  1
  La  La1  1  0.50189187  0.00005084  0.34287156  1
  La  La2  1  0.99911052  0.00260435  0.83981134  1
  La  La3  1  0.50120177  0.00669723  0.84029922  1
  La  La4  1  0.33958846  0.33274163  0.68083278  1
  La  La5  1  0.83134529  0.33559157  0.68377284  1
  La  La6  1  0.33101415  0.32069458  0.18294873  1
  La  La7  1  0.84086610  0.34698484  0.18115891  1
  La  La8  1  0.33945837  0.33627245  0.99431847  1
  La  La9  1  0.83589976  0.33125442  0.98959212  1
  La  La10  1  0.33397856  0.33706120  0.49273558  1
  La  La11  1  0.83766989  0.34021919  0.49822037  1
  La  La12  1  0.16311305  0.65745865  0.01660145  1
  La  La13  1  0.66351334  0.66859050  0.01538209  1
  La  La14  1  0.16238883  0.65780916  0.51862895  1
  La  La15  1  0.66365252  0.66954645  0.51827426  1
  La  La16  1  0.66219516  0.66569782  0.30754904  1
  La  La17  1  0.16093815  0.65778231  0.80710068  1
  Ta  Ta0  1  0.99375425  0.98941922  0.65550801  1
  Ta  Ta1  1  0.49723040  0.99141399  0.65142964  1
  Ta  Ta2  1  0.99637213  0.00447665  0.15051379  1
  Ta  Ta3  1  0.50504703  0.01736339  0.14891615  1
  Ta  Ta4  1  0.15483280  0.63774059  0.31353830  1
  Ta  Ta5  1  0.65882895  0.68479054  0.81061112  1
  Si  Si0  1  0.64679907  -0.00159279  0.24763681  1
  Si  Si1  1  0.84983347  0.71111836  0.25152683  1
  Si  Si2  1  0.00412845  0.29870613  0.25361466  1
  Si  Si3  1  0.50048636  0.29873294  0.25179272  1
  Si  Si4  1  0.14624302  0.29447000  0.74878846  1
  Si  Si5  1  0.00194057  0.70184240  0.75167300  1
  Si  Si6  1  0.50282489  0.70938174  0.75357847  1
  Si  Si7  1  0.34917824  0.98837776  0.75176042  1
  Si  Si8  1  0.84314421  0.98484851  0.75375804  1
  Si  Si9  1  0.48844451  0.31632801  0.57908668  1
  Si  Si10  1  0.98708056  0.31821146  0.58699662  1
  Si  Si11  1  0.17069698  0.02356843  0.58560775  1
  Si  Si12  1  0.67472578  0.02693978  0.58276415  1
  Si  Si13  1  0.33769595  0.65296191  0.58668575  1
  Si  Si14  1  0.83784782  0.65420040  0.58036070  1
  Si  Si15  1  0.48639729  0.65442254  0.08977129  1
  Si  Si16  1  0.98899504  0.65962493  0.08071758  1
  Si  Si17  1  0.33825109  0.02055805  0.08148953  1
  Si  Si18  1  0.83661242  0.02326957  0.08758606  1
  Si  Si19  1  0.17643955  0.32393761  0.08490484  1
  Si  Si20  1  0.67627407  0.32905868  0.08487000  1
  Si  Si21  1  0.01144330  0.35470368  0.91801316  1
  Si  Si22  1  0.51964574  0.37831186  0.91220927  1
  Si  Si23  1  0.66836544  0.97376545  0.91482643  1
  Si  Si24  1  0.16954363  0.36687309  0.41395480  1
  Si  Si25  1  0.01594645  0.65896243  0.41401302  1
  Si  Si26  1  0.51026215  0.66425745  0.41590605  1
  S  S0  1  0.15098214  0.97399206  0.25155996  1
  S  S1  1  0.34011708  0.70041329  0.25116138  1
  S  S2  1  0.64816857  0.32304712  0.74944072  1
  S  S3  1  0.32004797  0.66316633  0.91640330  1
  S  S4  1  0.81094246  0.66043961  0.91239794  1
  S  S5  1  0.17040873  0.98054524  0.91724591  1
  S  S6  1  0.30707480  0.95509373  0.40948002  1
  S  S7  1  0.81905931  0.97755123  0.41563182  1
  S  S8  1  0.67035569  0.36035047  0.41624725  1
  O  O0  1  0.11525037  0.98741698  0.30612548  1
  O  O1  1  0.61123772  0.01027403  0.31005839  1
  O  O2  1  0.38503875  0.77265894  0.30471361  1
  O  O3  1  0.88621773  0.77607244  0.31490254  1
  O  O4  1  0.49682335  0.21937541  0.31426707  1
  O  O5  1  0.99891978  0.22019408  0.31529890  1
  O  O6  1  0.11507837  0.21606803  0.81227332  1
  O  O7  1  0.61456579  0.23941429  0.80458123  1
  O  O8  1  0.49636396  0.77521610  0.81573946  1
  O  O9  1  0.00005499  0.77348725  0.81478509  1
  O  O10  1  0.38595030  -0.00227648  0.81518342  1
  O  O11  1  0.88911844  0.00876313  0.81387319  1
  O  O12  1  0.41851962  0.99538184  0.70276793  1
  O  O13  1  0.89900976  0.97073818  0.69949950  1
  O  O14  1  0.07839105  0.16395235  0.70086502  1
  O  O15  1  0.59726574  0.22579375  0.69997611  1
  O  O16  1  0.99714612  0.82245420  0.70060086  1
  O  O17  1  0.51389967  0.84147622  0.70137760  1
  O  O18  1  0.38347916  0.80140394  0.20032721  1
  O  O19  1  0.91860457  0.84382528  0.20253043  1
  O  O20  1  0.01468834  0.18924535  0.20074303  1
  O  O21  1  0.49676226  0.16889719  0.20009714  1
  O  O22  1  0.10129309  0.96364744  0.20125192  1
  O  O23  1  0.58110290  0.99822773  0.19852251  1
  O  O24  1  0.44585969  0.38070686  0.62366006  1
  O  O25  1  0.94333644  0.36163116  0.63787535  1
  O  O26  1  0.23505772  0.11137215  0.63652144  1
  O  O27  1  0.74725303  0.12263572  0.62693591  1
  O  O28  1  0.31640255  0.53140578  0.63977724  1
  O  O29  1  0.81045082  0.50356517  0.62379533  1
  O  O30  1  0.44422524  0.53296533  0.14347142  1
  O  O31  1  0.94847064  0.51505918  0.12699740  1
  O  O32  1  0.31222504  0.11364422  0.12757898  1
  O  O33  1  0.81575544  0.09822334  0.14236335  1
  O  O34  1  0.24540319  0.37073768  0.13241708  1
  O  O35  1  0.73395275  0.35904351  0.13864546  1
  O  O36  1  0.20827322  0.28560716  0.02386376  1
  O  O37  1  0.70844648  0.28501035  0.02598525  1
  O  O38  1  0.43122802  0.58254210  0.03168304  1
  O  O39  1  0.93420452  0.60135558  0.02221620  1
  O  O40  1  0.36205169  0.12625974  0.02123730  1
  O  O41  1  0.85884588  0.13787728  0.03072145  1
  O  O42  1  0.20602435  0.12997586  0.52555826  1
  O  O43  1  0.70299100  0.12098867  0.52012926  1
  O  O44  1  0.35895137  0.58478282  0.52812049  1
  O  O45  1  0.85808157  0.59682922  0.51799656  1
  O  O46  1  0.43568778  0.26721950  0.51928005  1
  O  O47  1  0.93597677  0.28509932  0.52670509  1
  O  O48  1  0.28080354  0.67489013  0.96987420  1
  O  O49  1  0.77872228  0.67217203  0.96937012  1
  O  O50  1  0.05967277  0.43862165  0.97735158  1
  O  O51  1  0.56226999  0.44850175  0.97357147  1
  O  O52  1  0.16906621  0.89418675  0.97030336  1
  O  O53  1  0.66199147  0.88047325  0.97405792  1
  O  O54  1  0.27440054  0.87775077  0.46552704  1
  O  O55  1  0.77885806  0.88326868  0.46802532  1
  O  O56  1  0.16358235  0.45122341  0.47212757  1
  O  O57  1  0.66744305  0.44538308  0.46843905  1
  O  O58  1  0.06529954  0.67893071  0.47166231  1
  O  O59  1  0.56450224  0.68709102  0.47258292  1
  O  O60  1  0.07777631  0.65226687  0.35891353  1
  O  O61  1  0.55773469  0.65374360  0.35829600  1
  O  O62  1  0.25483522  0.85118040  0.36156056  1
  O  O63  1  0.77221056  0.89118142  0.36418780  1
  O  O64  1  0.16982418  0.49569709  0.35969371  1
  O  O65  1  0.67405132  0.45305145  0.36426767  1
  O  O66  1  0.06252956  0.46657549  0.86276833  1
  O  O67  1  0.58245783  0.50801376  0.85986222  1
  O  O68  1  0.17482213  0.89297974  0.86607809  1
  O  O69  1  0.66897047  0.84813650  0.86044399  1
  O  O70  1  0.27238867  0.65617180  0.86579674  1
  O  O71  1  0.75905646  0.66214045  0.86566092  1
  O  O72  1  0.00734448  0.81907086  0.40861978  1
  O  O73  1  0.49501276  0.82088295  0.41661378  1
  O  O74  1  0.38920843  0.97791115  0.40487062  1
  O  O75  1  0.90135134  0.99882870  0.41450555  1
  O  O76  1  0.09018689  0.18885932  0.41023299  1
  O  O77  1  0.59561717  0.19778441  0.41684855  1
  O  O78  1  0.00058788  0.17193443  0.91849116  1
  O  O79  1  0.50962451  0.19822389  0.90820251  1
  O  O80  1  0.09610136  0.99357082  0.91768251  1
  O  O81  1  0.58828704  0.99177836  0.91147022  1
  O  O82  1  0.40226667  0.80751026  0.91541445  1
  O  O83  1  0.89429038  0.79906824  0.90909395  1
  O  O84  1  0.48902359  0.14923858  0.60092494  1
  O  O85  1  0.98683012  0.14639556  0.60027960  1
  O  O86  1  0.08245755  0.01411250  0.59879043  1
  O  O87  1  0.59061172  0.03178452  0.60165052  1
  O  O88  1  0.42694078  0.82505604  0.60044509  1
  O  O89  1  0.92266629  0.82148012  0.59791917  1
  O  O90  1  0.48824668  0.82867882  0.10320531  1
  O  O91  1  0.99147070  0.83086291  0.10196934  1
  O  O92  1  0.42170010  0.01742260  0.09969686  1
  O  O93  1  0.92510131  0.02470623  0.09987903  1
  O  O94  1  0.09111799  0.15171716  0.10243367  1
  O  O95  1  0.58489671  0.16020374  0.09631835  1
  O  O96  1  0.33047670  0.13498347  0.74625351  1
  O  O97  1  0.83550458  0.14337696  0.74467404  1
  O  O98  1  0.23553988  0.31889249  0.74171963  1
  O  O99  1  0.72950784  0.34728793  0.74444796  1
  O  O100  1  0.42348294  0.53880771  0.74429523  1
  O  O101  1  0.93011442  0.51607809  0.74899086  1
  O  O102  1  0.33119717  0.53864731  0.24661243  1
  O  O103  1  0.83132582  0.52710982  0.24600642  1
  O  O104  1  0.42842443  0.34136003  0.24919825  1
  O  O105  1  0.92478020  0.31125008  0.24514811  1
  O  O106  1  0.23215777  0.11452118  0.24768136  1
  O  O107  1  0.73576306  0.15302684  0.24291054  1
  O  O108  1  0.32564071  0.51345282  0.91735180  1
  O  O109  1  0.81305865  0.50642535  0.90962824  1
  O  O110  1  0.43242789  0.37224210  0.90902109  1
  O  O111  1  0.92406203  0.34955995  0.91652887  1
  O  O112  1  0.24313149  0.14492152  0.91659513  1
  O  O113  1  0.75191667  0.14421661  0.90918038  1
  O  O114  1  0.31072373  0.11434959  0.40731757  1
  O  O115  1  0.82357702  0.13728789  0.41778611  1
  O  O116  1  0.25357746  0.36450800  0.40860261  1
  O  O117  1  0.74263149  0.34096159  0.41643091  1
  O  O118  1  0.42369481  0.49257084  0.41814540  1
  O  O119  1  0.93027291  0.49033240  0.41064344  1
  O  O120  1  0.15342701  0.46718193  0.08384992  1
  O  O121  1  0.65656504  0.47472031  0.08257060  1
  O  O122  1  0.08382351  0.70959189  0.07704309  1
  O  O123  1  0.57847966  0.69137664  0.08423238  1
  O  O124  1  0.26706847  0.83281086  0.07972298  1
  O  O125  1  0.76868437  0.83570903  0.08070148  1
  O  O126  1  0.15403627  0.83948513  0.58307642  1
  O  O127  1  0.64975284  0.83650994  0.58398928  1
  O  O128  1  0.27160534  0.70948411  0.58075648  1
  O  O129  1  0.76741276  0.70311977  0.58040700  1
  O  O130  1  0.08045112  0.46242654  0.58474512  1
  O  O131  1  0.58326080  0.45475286  0.57632292  1
  O  O132  1  0.15737944  0.82210003  0.25361859  1
  O  O133  1  0.64389366  0.82577525  0.23925116  1
  O  O134  1  0.25864202  0.68838709  0.25569312  1
  O  O135  1  0.76880159  0.72304773  0.23991875  1
  O  O136  1  0.08869772  0.48662191  0.25700911  1
  O  O137  1  0.58855753  0.46100474  0.24082441  1
  O  O138  1  0.14415279  0.46212365  0.74005238  1
  O  O139  1  0.65085164  0.48247782  0.75010817  1
  O  O140  1  0.09063667  0.71834602  0.73996685  1
  O  O141  1  0.58715666  0.69281601  0.75644294  1
  O  O142  1  0.26931262  0.81370955  0.73995446  1
  O  O143  1  0.75261370  0.81418973  0.76012716  1
loop_
_geom_bond_atom_site_label_1
_geom_bond_atom_site_label_2
_geom_bond_distance
_geom_bond_site_symmetry_2
Na0 O33 2.344030 1_555
Na0 O135 2.427658 1_545
Na0 O107 2.498505 1_555
Na0 O105 2.608969 1_555
Na0 O133 2.836818 1_545
Na1 O103 2.382483 1_555
Na1 O35 2.439459 1_555
Na1 O137 2.507875 1_555
Na1 O107 2.618219 1_555
Na2 O104 2.347886 1_555
Na2 O133 2.438627 1_555
Na2 O30 2.441709 1_555
Na2 O137 2.784025 1_555
Na2 O61 2.950029 1_555
Na2 O102 2.962196 1_555
Na3 O28 2.387465 1_555
Na3 O142 2.413848 1_555
Na3 O98 2.478807 1_555
Na3 O100 2.589863 1_555
Na3 O138 2.813309 1_555
Na4 O101 2.355162 1_555
Na4 O138 2.576444 1_655
Na4 O25 2.578973 1_555
Na4 O97 2.662579 1_555
Na5 O96 2.410108 1_555
Na5 O140 2.476343 1_545
Na5 O26 2.484590 1_555
Na5 O98 2.613054 1_555
Na6 O130 2.310936 1_555
Na6 O86 2.590078 1_555
Na6 O85 2.737919 1_455
Na6 O56 2.927862 1_555
Na6 O42 2.945847 1_555
Na6 O14 2.989505 1_555
Na6 O28 3.046572 1_555
Na7 O131 2.317336 1_555
Na7 O87 2.545667 1_555
Na7 O29 2.586043 1_555
Na7 O15 2.696557 1_555
Na8 O126 2.336360 1_555
Na8 O89 2.569776 1_455
Na8 O86 2.646848 1_565
Na8 O16 2.912824 1_455
Na8 O58 2.955074 1_555
Na8 O25 3.005785 1_455
Na9 O127 2.347105 1_555
Na9 O24 2.607796 1_555
Na9 O88 2.616631 1_555
Na9 O59 2.837493 1_555
Na9 O44 2.917949 1_555
Na10 O128 2.270786 1_555
Na10 O26 2.793504 1_565
Na10 O126 2.868083 1_555
Na11 O129 2.349426 1_555
Na11 O85 2.526833 1_565
Na11 O27 2.722452 1_565
Na11 O13 2.728710 1_555
Na11 O89 2.785745 1_555
Na12 O122 2.303371 1_555
Na12 O94 2.516690 1_565
Na12 O32 2.731597 1_565
Na12 O22 2.758838 1_555
Na12 O91 2.783233 1_455
Na12 O52 2.957298 1_554
Na12 O36 2.979019 1_565
Na13 O123 2.346403 1_555
Na13 O53 2.674321 1_554
Na13 O95 2.782714 1_565
Na13 O90 2.867479 1_555
Na13 O37 2.942091 1_565
Na13 O33 3.014356 1_565
Na13 O125 3.014992 1_555
Na14 O124 2.347347 1_555
Na14 O90 2.596999 1_555
Na14 O18 2.755966 1_555
Na14 O92 2.770022 1_565
Na14 O34 2.785542 1_555
Na14 O38 2.857607 1_555
Na14 O48 2.987073 1_554
Na14 O120 3.026778 1_555
Na15 O125 2.297933 1_555
Na15 O91 2.737841 1_555
Na15 O93 2.883549 1_565
Na15 O49 2.885134 1_554
Na15 O121 2.888965 1_555
Na15 O39 2.892767 1_555
Na15 O35 2.941978 1_555
Na16 O120 2.399548 1_555
Na16 O50 2.605418 1_554
Na16 O93 2.663382 1_455
Na16 O31 2.677035 1_455
Na16 O41 2.835481 1_455
Na17 O121 2.352184 1_555
Na17 O51 2.672470 1_554
Na17 O95 2.708068 1_555
Na17 O92 2.752106 1_555
Na17 O123 2.923027 1_555
Na17 O40 2.982868 1_555
Na18 O8 2.419647 1_555
Na18 O110 2.522467 1_555
Na18 O82 2.594916 1_555
Na18 O81 2.664295 1_555
Na18 O108 2.756925 1_555
Na18 O38 2.969550 1_556
Na19 O9 2.372829 1_655
Na19 O111 2.506020 1_555
Na19 O83 2.675590 1_555
Na19 O109 2.778448 1_555
Na19 O39 2.802945 1_556
Na19 O80 2.952826 1_655
Na19 O66 3.042222 1_655
Na20 O10 2.396261 1_555
Na20 O79 2.427446 1_555
Na20 O110 2.577960 1_555
Na20 O40 2.643431 1_556
Na20 O112 2.802176 1_555
Na20 O82 2.880986 1_545
Na21 O11 2.396580 1_555
Na21 O78 2.475512 1_655
Na21 O111 2.485047 1_555
Na21 O113 2.515729 1_555
Na21 O83 2.886131 1_545
Na21 O41 2.943140 1_556
Na22 O80 2.531381 1_545
Na22 O6 2.545043 1_555
Na22 O78 2.622783 1_555
Na22 O112 2.690834 1_555
Na22 O36 2.723686 1_556
Na22 O108 2.846230 1_555
Na23 O81 2.463363 1_545
Na23 O37 2.603589 1_556
Na23 O109 2.616257 1_555
Na23 O79 2.623883 1_555
Na23 O113 2.703996 1_555
Na23 O7 2.835914 1_555
Na24 O118 2.446738 1_555
Na24 O4 2.551583 1_555
Na24 O46 2.564404 1_555
Na24 O74 2.803858 1_545
Na24 O114 2.849790 1_555
Na24 O77 2.928752 1_555
Na25 O119 2.545361 1_555
Na25 O75 2.553577 1_545
Na25 O5 2.579665 1_555
Na25 O47 2.665935 1_555
Na25 O76 2.679856 1_655
Na25 O115 2.758058 1_555
Na26 O76 2.433125 1_555
Na26 O42 2.468405 1_555
Na26 O72 2.627144 1_545
Na26 O114 2.675864 1_555
Na26 O116 2.775268 1_555
Na26 O0 2.912054 1_545
Na27 O43 2.427223 1_555
Na27 O77 2.589569 1_555
Na27 O117 2.702477 1_555
Na27 O115 2.762061 1_555
Na27 O73 2.764767 1_545
Na27 O1 2.807505 1_555
Na27 O59 2.964824 1_545
Na28 O73 2.401959 1_555
Na28 O116 2.459606 1_555
Na28 O118 2.512425 1_555
Na28 O44 2.551940 1_555
Na28 O74 2.871117 1_555
Na28 O2 2.927060 1_555
Na29 O72 2.414776 1_655
Na29 O45 2.464433 1_555
Na29 O3 2.512046 1_555
Na29 O119 2.597964 1_555
Na29 O117 2.808882 1_555
Na29 O75 2.879924 1_555
Na30 O86 2.520161 1_555
Na30 O85 2.642945 1_455
Na30 O89 2.647484 1_445
Na30 O76 2.862346 1_555
Na30 O72 2.932265 1_545
Na30 O75 2.994436 1_445
Na31 O73 2.579321 1_555
Na31 O88 2.634013 1_555
Na31 O87 2.667208 1_565
Na31 O84 2.780703 1_565
Na31 O77 2.837935 1_565
Na32 O78 2.393984 1_554
Na32 O80 2.721847 1_544
Na32 O93 2.751973 1_455
Na32 O94 2.848714 1_555
Na32 O91 2.939355 1_445
Na32 O83 2.986684 1_444
Na33 O81 2.549178 1_545
Na33 O79 2.690042 1_555
Na33 O82 2.744033 1_545
Na33 O95 2.763740 1_556
Na33 O92 2.935200 1_556
Na33 O90 2.978727 1_546
Na34 O100 2.474445 1_555
Na34 O96 2.487443 1_555
Na34 O110 2.506393 1_555
Na34 O98 2.833730 1_555
Na34 O112 2.963482 1_555
Na34 O108 2.976447 1_555
Na35 O113 2.473303 1_555
Na35 O111 2.555384 1_555
Na35 O97 2.582642 1_555
Na35 O101 2.624876 1_555
Na35 O109 2.771552 1_555
Na35 O99 2.984478 1_555
Na36 O116 2.408525 1_555
Na36 O118 2.481721 1_555
Na36 O114 2.525023 1_555
Na36 O104 2.664803 1_555
Na36 O102 2.903551 1_555
Na36 O106 2.939055 1_555
Na37 O119 2.477213 1_555
Na37 O105 2.487834 1_555
Na37 O103 2.520689 1_555
Na37 O107 2.842315 1_555
Na37 O117 2.933206 1_555
Na37 O115 2.964980 1_555
Na38 O120 2.547322 1_555
Na38 O124 2.595292 1_555
Na38 O132 2.659950 1_555
Na38 O122 2.682990 1_555
Na38 O136 2.753548 1_555
Na38 O134 2.781198 1_555
Na39 O135 2.495671 1_555
Na39 O133 2.526296 1_555
Na39 O121 2.549392 1_555
Na39 O137 2.551899 1_555
Na39 O125 2.606046 1_555
Na39 O123 2.618824 1_555
Na40 O140 2.464059 1_555
Na40 O142 2.502525 1_555
Na40 O138 2.514119 1_555
Na40 O126 2.598037 1_555
Na40 O130 2.610079 1_555
Na40 O128 2.680005 1_555
Na41 O139 2.555511 1_555
Na41 O129 2.619215 1_555
Na41 O143 2.648002 1_555
Na41 O127 2.648116 1_555
Na41 O141 2.707116 1_555
Na41 O131 2.839354 1_555
La0 O5 2.246720 1_465
La0 O3 2.258042 1_455
La0 O72 2.357416 1_555
La0 O0 2.380187 1_555
La0 O76 2.396511 1_565
La0 O75 2.552101 1_455
La1 O1 2.183885 1_555
La1 O4 2.252906 1_555
La1 O73 2.385303 1_545
La1 O2 2.391961 1_545
La1 O74 2.509292 1_545
La1 O77 2.535315 1_555
La2 O11 2.231204 1_555
La2 O6 2.234730 1_655
La2 O9 2.276966 1_645
La2 O78 2.432557 1_655
La2 O83 2.548992 1_545
La2 O80 2.642303 1_645
La3 O8 2.244218 1_545
La3 O10 2.254470 1_555
La3 O7 2.353570 1_555
La3 O79 2.361513 1_555
La3 O81 2.418406 1_545
La3 O82 2.578408 1_545
La4 O24 2.272790 1_555
La4 O26 2.317488 1_555
La4 O100 2.351018 1_555
La4 O28 2.364598 1_555
La4 O96 2.369248 1_555
La4 O98 2.388014 1_555
La5 O25 2.292162 1_555
La5 O27 2.292630 1_555
La5 O29 2.315301 1_555
La5 O97 2.358838 1_555
La5 O101 2.378506 1_555
La5 O99 2.448960 1_555
La6 O32 2.236204 1_555
La6 O34 2.266856 1_555
La6 O30 2.296228 1_555
La6 O104 2.365630 1_555
La6 O106 2.449320 1_555
La6 O102 2.554141 1_555
La7 O31 2.257919 1_555
La7 O35 2.341368 1_555
La7 O105 2.350830 1_555
La7 O33 2.360447 1_555
La7 O103 2.361935 1_555
La7 O107 2.411186 1_555
La8 O38 2.301567 1_556
La8 O40 2.346507 1_556
La8 O36 2.410110 1_556
La8 O110 2.563226 1_555
La8 O108 2.574599 1_555
La8 O112 2.590871 1_555
La9 O41 2.317151 1_556
La9 O111 2.332340 1_555
La9 O37 2.406144 1_556
La9 O39 2.445120 1_556
La9 O113 2.542637 1_555
La9 O109 2.689135 1_555
La10 O44 2.323008 1_555
La10 O118 2.366452 1_555
La10 O42 2.381778 1_555
La10 O46 2.443571 1_555
La10 O116 2.597312 1_555
La10 O114 2.781683 1_555
La11 O47 2.302332 1_555
La11 O45 2.332334 1_555
La11 O43 2.434870 1_555
La11 O119 2.604269 1_555
La11 O115 2.610345 1_555
La11 O117 2.651005 1_555
La12 O50 2.246149 1_554
La12 O122 2.293383 1_555
La12 O120 2.339695 1_555
La12 O124 2.379118 1_555
La12 O48 2.428840 1_554
La12 O52 2.462610 1_554
La13 O51 2.259977 1_554
La13 O53 2.260933 1_554
La13 O123 2.363325 1_555
La13 O121 2.381653 1_555
La13 O125 2.402191 1_555
La13 O49 2.434058 1_554
La14 O56 2.261880 1_555
La14 O58 2.264090 1_555
La14 O130 2.319526 1_555
La14 O126 2.357572 1_555
La14 O128 2.398015 1_555
La14 O54 2.457799 1_555
La15 O59 2.267419 1_555
La15 O131 2.291414 1_555
La15 O127 2.316840 1_555
La15 O129 2.361190 1_555
La15 O55 2.429886 1_555
La15 O57 2.469077 1_555
La16 O61 2.271723 1_555
La16 O137 2.347573 1_555
La16 O133 2.357504 1_555
La16 O135 2.407188 1_555
La16 O63 2.520023 1_555
La16 O65 2.534026 1_555
La17 O66 2.263115 1_555
La17 O140 2.328517 1_555
La17 O138 2.331712 1_555
La17 O142 2.420413 1_555
La17 O68 2.532920 1_555
La17 O70 2.555953 1_555
O0 S0 1.472941 1_555
O1 Si0 1.626631 1_555
O2 S1 1.481394 1_555
O3 Si1 1.621336 1_555
O4 Si3 1.626421 1_555
O5 Si2 1.600756 1_655
O6 Si4 1.626308 1_555
O7 S2 1.476009 1_555
O8 Si6 1.604023 1_555
O9 Si5 1.626366 1_555
O10 Si7 1.624330 1_545
O11 Si8 1.614500 1_545
O12 Si7 1.720674 1_555
O12 Ta1 1.933147 1_555
O13 Si8 1.697429 1_555
O13 Ta0 2.008311 1_555
O14 Si4 1.702470 1_555
O14 Ta0 1.965353 1_445
O15 S2 1.501334 1_555
O15 Ta1 2.394082 1_545
O16 Si5 1.693910 1_655
O16 Ta0 1.942941 1_555
O17 Si6 1.689779 1_555
O17 Ta1 1.996986 1_555
O18 S1 1.487575 1_555
O18 Ta3 2.511929 1_565
O19 Si1 1.722354 1_555
O19 Ta2 1.936310 1_565
O20 Si2 1.688826 1_555
O20 Ta2 1.998622 1_455
O21 Si3 1.703261 1_555
O21 Ta3 1.940309 1_555
O22 S0 1.488449 1_555
O22 Ta2 2.537310 1_465
O23 Si0 1.709224 1_565
O23 Ta3 1.948747 1_565
O24 Si9 1.614726 1_555
O25 Si10 1.614481 1_555
O26 Si11 1.619513 1_555
O27 Si12 1.607655 1_555
O28 Si13 1.603651 1_555
O29 Si14 1.618754 1_555
O30 Si15 1.618630 1_555
O31 Si16 1.612570 1_555
O32 Si17 1.619412 1_555
O33 Si18 1.603447 1_555
O34 Si19 1.615260 1_555
O35 Si20 1.606419 1_555
O36 Si19 1.652074 1_555
O37 Si20 1.636090 1_555
O38 Si15 1.648090 1_555
O39 Si16 1.645333 1_555
O40 Si17 1.653147 1_555
O41 Si18 1.633145 1_555
O42 Si11 1.658738 1_555
O43 Si12 1.653534 1_555
O44 Si13 1.642865 1_555
O45 Si14 1.659834 1_555
O46 Si9 1.652354 1_555
O47 Si10 1.656245 1_555
O48 S3 1.481262 1_555
O49 S4 1.485002 1_555
O50 Si21 1.638315 1_555
O51 Si22 1.620707 1_555
O52 S5 1.480385 1_555
O53 Si23 1.614353 1_555
O54 S6 1.472861 1_555
O55 S7 1.480171 1_555
O56 Si24 1.606091 1_555
O57 S8 1.475947 1_555
O58 Si25 1.604480 1_555
O59 Si26 1.633258 1_555
O60 Si25 1.762012 1_555
O60 Ta4 1.870733 1_555
O61 Si26 1.644887 1_555
O62 S6 1.502788 1_555
O62 Ta4 2.286528 1_555
O63 S7 1.482543 1_555
O64 Si24 1.765436 1_555
O64 Ta4 1.868070 1_555
O65 S8 1.482080 1_555
O66 Si21 1.642855 1_555
O67 Si22 1.723141 1_555
O67 Ta5 1.958424 1_555
O68 S5 1.479891 1_555
O69 Si23 1.747097 1_555
O69 Ta5 1.875673 1_555
O70 S3 1.478569 1_555
O71 S4 1.487042 1_555
O71 Ta5 2.419748 1_555
O72 Si25 1.627067 1_555
O73 Si26 1.665188 1_555
O74 S6 1.483732 1_555
O75 S7 1.489571 1_555
O76 Si24 1.627488 1_555
O77 S8 1.502318 1_555
O78 Si21 1.656161 1_555
O79 Si22 1.639516 1_555
O80 S5 1.493238 1_555
O81 Si23 1.633445 1_555
O82 S3 1.493024 1_555
O83 S4 1.487090 1_555
O84 Si9 1.685370 1_555
O84 Ta1 1.984848 1_545
O85 Si10 1.672480 1_555
O85 Ta0 2.034859 1_545
O86 Si11 1.677022 1_555
O86 Ta0 2.063600 1_445
O87 Si12 1.693189 1_555
O87 Ta1 1.995200 1_545
O88 Si13 1.717064 1_555
O88 Ta1 1.908372 1_555
O89 Si14 1.671675 1_555
O89 Ta0 2.019319 1_555
O90 Si15 1.679653 1_555
O90 Ta3 1.978198 1_565
O91 Si16 1.689166 1_555
O91 Ta2 1.970489 1_565
O92 Si17 1.676207 1_555
O92 Ta3 1.976803 1_555
O93 Si18 1.719352 1_555
O93 Ta2 1.895662 1_555
O94 Si19 1.694068 1_555
O94 Ta2 1.991293 1_455
O95 Si20 1.712175 1_555
O95 Ta3 1.898594 1_555
O96 Si7 1.618793 1_545
O97 Si8 1.610837 1_545
O98 Si4 1.618264 1_555
O99 S2 1.464099 1_555
O100 Si6 1.600091 1_555
O101 Si5 1.620698 1_655
O102 S1 1.474729 1_555
O103 Si1 1.619489 1_555
O104 Si3 1.628076 1_555
O105 Si2 1.601238 1_655
O106 S0 1.468732 1_545
O107 Si0 1.612550 1_555
O108 S3 1.490248 1_555
O109 S4 1.496612 1_555
O110 Si22 1.649360 1_555
O111 Si21 1.655025 1_655
O112 S5 1.495835 1_545
O113 Si23 1.625945 1_545
O114 S6 1.492235 1_545
O115 S7 1.488939 1_545
O116 Si24 1.629079 1_555
O117 S8 1.489481 1_555
O118 Si26 1.656777 1_555
O119 Si25 1.635547 1_655
O120 Si19 1.637644 1_555
O121 Si20 1.618182 1_555
O122 Si16 1.637869 1_455
O123 Si15 1.625521 1_555
O124 Si17 1.629147 1_565
O125 Si18 1.618799 1_565
O126 Si11 1.628051 1_565
O127 Si12 1.638384 1_565
O128 Si13 1.616046 1_555
O129 Si14 1.637409 1_555
O130 Si10 1.629931 1_455
O131 Si9 1.634148 1_555
O132 S0 1.520315 1_555
O132 Ta4 2.233390 1_555
O133 Si0 1.637099 1_565
O134 S1 1.513525 1_555
O134 Ta4 2.238817 1_555
O135 Si1 1.641125 1_555
O136 Si2 1.723756 1_555
O136 Ta4 1.903757 1_555
O137 Si3 1.648035 1_555
O138 Si4 1.638996 1_555
O139 S2 1.501646 1_555
O139 Ta5 2.334421 1_555
O140 Si5 1.650712 1_555
O141 Si6 1.706258 1_555
O141 Ta5 1.904232 1_555
O142 Si7 1.635300 1_555
O143 Si8 1.697331 1_555
O143 Ta5 1.975981 1_555
