# generated using pymatgen
data_MgCo2(WO4)2
_symmetry_space_group_name_H-M   'P 1'
_cell_length_a   4.96933585
_cell_length_b   5.22051455
_cell_length_c   6.00575662
_cell_angle_alpha   93.21456495
_cell_angle_beta   86.01503014
_cell_angle_gamma   92.08417056
_symmetry_Int_Tables_number   1
_chemical_formula_structural   MgCo2(WO4)2
_chemical_formula_sum   'Mg1 Co2 W2 O8'
_cell_volume   155.10055072
_cell_formula_units_Z   1
loop_
 _symmetry_equiv_pos_site_id
 _symmetry_equiv_pos_as_xyz
  1  'x, y, z'
loop_
 _atom_site_type_symbol
 _atom_site_label
 _atom_site_symmetry_multiplicity
 _atom_site_fract_x
 _atom_site_fract_y
 _atom_site_fract_z
 _atom_site_occupancy
  Mg  Mg0  1  0.01016800  0.23144200  0.61468400  1
  Co  Co0  1  0.51645800  0.74716500  0.39087200  1
  Co  Co1  1  0.50680200  0.23559800  0.64618600  1
  W  W0  1  0.99180500  0.74581400  0.85389800  1
  W  W1  1  0.99816500  0.25994900  0.14613300  1
  O  O0  1  0.75657100  0.11351800  0.36729200  1
  O  O1  1  0.23640300  0.39732400  0.35481200  1
  O  O2  1  0.23791900  0.91338100  0.61772100  1
  O  O3  1  0.75956600  0.57624400  0.65275100  1
  O  O4  1  0.79186300  0.08741600  0.88461900  1
  O  O5  1  0.20751900  0.42344200  0.87611700  1
  O  O6  1  0.78866200  0.57193800  0.13157000  1
  O  O7  1  0.19808900  0.94677000  0.08834500  1
loop_
_geom_bond_atom_site_label_1
_geom_bond_atom_site_label_2
_geom_bond_distance
_geom_bond_site_symmetry_2
Mg0 O2 2.044813 1_545
Mg0 O4 2.050197 1_455
Mg0 O0 2.067820 1_455
Mg0 O1 2.070413 1_555
Mg0 O5 2.097070 1_555
Mg0 O3 2.218239 1_455
Co0 O2 2.053692 1_555
Co0 O6 2.174669 1_555
Co0 O0 2.223183 1_565
Co0 O1 2.265372 1_555
Co0 O3 2.286742 1_555
Co1 O0 2.097881 1_555
Co1 O2 2.116644 1_545
Co1 O3 2.139704 1_555
Co1 O5 2.179268 1_555
Co1 O4 2.267489 1_555
Co1 O1 2.481053 1_555
O0 W1 1.901419 1_555
O1 W1 1.878903 1_455
O2 W0 2.023161 1_455
O3 W0 1.890617 1_555
O4 W0 2.065922 1_545
O4 W1 2.080147 1_556
O5 W0 2.043402 1_455
O5 W1 2.072855 1_456
O6 W1 1.973902 1_555
O6 W0 2.119705 1_554
O7 W1 1.946056 1_465
O7 W0 2.022547 1_454
