# generated using pymatgen
data_Nb4SiNi
_symmetry_space_group_name_H-M   'P 1'
_cell_length_a   6.25290300
_cell_length_b   6.25290300
_cell_length_c   4.96940000
_cell_angle_alpha   90.00000000
_cell_angle_beta   90.00000000
_cell_angle_gamma   90.00000000
_symmetry_Int_Tables_number   1
_chemical_formula_structural   Nb4SiNi
_chemical_formula_sum   'Nb8 Si2 Ni2'
_cell_volume   194.29755648
_cell_formula_units_Z   2
loop_
 _symmetry_equiv_pos_site_id
 _symmetry_equiv_pos_as_xyz
  1  'x, y, z'
loop_
 _atom_site_type_symbol
 _atom_site_label
 _atom_site_symmetry_multiplicity
 _atom_site_fract_x
 _atom_site_fract_y
 _atom_site_fract_z
 _atom_site_occupancy
  Nb  Nb0  1  0.33690000  0.15533500  0.50000000  1
  Nb  Nb1  1  0.66310000  0.84466500  0.50000000  1
  Nb  Nb2  1  0.15533500  0.66310000  0.50000000  1
  Nb  Nb3  1  0.84466500  0.33690000  0.50000000  1
  Nb  Nb4  1  0.33690000  0.84466500  0.00000000  1
  Nb  Nb5  1  0.84466500  0.66310000  0.00000000  1
  Nb  Nb6  1  0.15533500  0.33690000  0.00000000  1
  Nb  Nb7  1  0.66310000  0.15533500  0.00000000  1
  Si  Si0  1  0.50000000  0.50000000  0.75000000  1
  Si  Si1  1  0.50000000  0.50000000  0.25000000  1
  Ni  Ni0  1  0.00000000  0.00000000  0.75000000  1
  Ni  Ni1  1  0.00000000  0.00000000  0.25000000  1
loop_
_geom_bond_atom_site_label_1
_geom_bond_atom_site_label_2
_geom_bond_distance
_geom_bond_site_symmetry_2
Nb0 Ni0 2.631468 1_555
Nb0 Ni1 2.631468 1_555
Nb0 Si1 2.688536 1_555
Nb0 Si0 2.688536 1_555
Nb1 Ni1 2.631468 1_665
Nb1 Ni0 2.631468 1_665
Nb1 Si0 2.688536 1_555
Nb1 Si1 2.688536 1_555
Nb2 Ni1 2.631468 1_565
Nb2 Ni0 2.631468 1_565
Nb2 Si0 2.688536 1_555
Nb2 Si1 2.688536 1_555
Nb3 Ni0 2.631468 1_655
Nb3 Ni1 2.631468 1_655
Nb3 Si1 2.688536 1_555
Nb3 Si0 2.688536 1_555
Nb4 Ni0 2.631468 1_564
Nb4 Ni1 2.631468 1_565
Nb4 Si0 2.688536 1_554
Nb4 Si1 2.688536 1_555
Nb5 Ni0 2.631468 1_664
Nb5 Ni1 2.631468 1_665
Nb5 Si0 2.688536 1_554
Nb5 Si1 2.688536 1_555
Nb6 Ni0 2.631468 1_554
Nb6 Ni1 2.631468 1_555
Nb6 Si0 2.688536 1_554
Nb6 Si1 2.688536 1_555
Nb7 Ni0 2.631468 1_654
Nb7 Ni1 2.631468 1_655
Nb7 Si0 2.688536 1_554
Nb7 Si1 2.688536 1_555
Si0 Si1 2.484700 1_555
Si0 Si1 2.484700 1_556
Ni0 Ni1 2.484700 1_555
Ni0 Ni1 2.484700 1_556
