# generated using pymatgen
data_Ba3SrMgNb2O9
_symmetry_space_group_name_H-M   'P 1'
_cell_length_a   6.31332563
_cell_length_b   6.33416854
_cell_length_c   7.73224455
_cell_angle_alpha   87.12765248
_cell_angle_beta   92.68111330
_cell_angle_gamma   121.56303426
_symmetry_Int_Tables_number   1
_chemical_formula_structural   Ba3SrMgNb2O9
_chemical_formula_sum   'Ba3 Sr1 Mg1 Nb2 O9'
_cell_volume   263.05915748
_cell_formula_units_Z   1
loop_
 _symmetry_equiv_pos_site_id
 _symmetry_equiv_pos_as_xyz
  1  'x, y, z'
loop_
 _atom_site_type_symbol
 _atom_site_label
 _atom_site_symmetry_multiplicity
 _atom_site_fract_x
 _atom_site_fract_y
 _atom_site_fract_z
 _atom_site_occupancy
  Ba  Ba0  1  0.93991552  0.06359752  0.00803990  1
  Ba  Ba1  1  0.38332221  0.60814694  0.60917967  1
  Ba  Ba2  1  0.65758584  0.34340183  0.28993587  1
  Sr  Sr0  1  0.01576405  0.98273214  0.48634640  1
  Mg  Mg0  1  0.17365339  0.82841740  0.85197069  1
  Nb  Nb0  1  0.33849935  0.66156594  0.16440930  1
  Nb  Nb1  1  0.65986082  0.34240769  0.84327609  1
  O  O0  1  0.65598666  0.79772689  0.30388564  1
  O  O1  1  0.20587063  0.79559850  0.32794458  1
  O  O2  1  0.19743381  0.34403001  0.30467547  1
  O  O3  1  0.31995810  0.15663864  0.71996819  1
  O  O4  1  0.80515982  0.20748439  0.69708165  1
  O  O5  1  0.84360649  0.68403587  0.72267580  1
  O  O6  1  0.48965113  0.50581309  0.99868460  1
  O  O7  1  0.48419330  0.00427514  0.00636917  1
  O  O8  1  0.99620589  0.51787800  0.00722400  1
loop_
_geom_bond_atom_site_label_1
_geom_bond_atom_site_label_2
_geom_bond_distance
_geom_bond_site_symmetry_2
Ba0 O7 2.698968 1_555
Ba0 O8 2.708161 1_555
Ba0 O4 2.781428 1_554
Ba0 O2 2.845265 1_655
Ba0 O0 2.849463 1_545
Ba0 Mg0 2.915654 1_644
Ba0 O6 3.118116 1_654
Ba0 O5 3.145533 1_544
Ba0 O3 3.154955 1_654
Ba0 O6 3.171904 1_544
Ba1 O3 2.768011 1_555
Ba1 O5 2.790515 1_555
Ba1 O2 2.792963 1_555
Ba1 O0 2.812436 1_555
Ba1 O1 2.880893 1_555
Ba1 Mg0 3.106708 1_555
Ba1 O6 3.164197 1_555
Ba1 O4 3.253865 1_455
Ba1 O4 3.386970 1_565
Ba2 O6 2.817848 1_554
Ba2 O8 2.879572 1_555
Ba2 O0 2.890490 1_555
Ba2 O7 2.899297 1_555
Ba2 O2 2.914734 1_555
Ba2 O1 3.142647 1_545
Ba2 O1 3.143603 1_655
Ba2 O2 3.402732 1_655
Ba2 O4 3.437113 1_555
Ba2 O0 3.447408 1_545
Mg0 O5 2.019764 1_455
Mg0 O3 2.020501 1_565
Mg0 O7 2.034173 1_566
Mg0 O8 2.036546 1_456
Nb0 O1 1.992909 1_555
Nb0 O0 2.001446 1_555
Nb0 O2 2.002845 1_555
Nb0 O6 2.180062 1_554
Nb0 O8 2.186695 1_455
Nb0 O7 2.191033 1_565
Nb1 O4 1.965767 1_555
Nb1 O5 2.041794 1_555
Nb1 O3 2.043578 1_555
Nb1 O8 2.184044 1_556
Nb1 O7 2.186555 1_556
Nb1 O6 2.253853 1_555
O0 Sr0 2.366918 1_655
O1 Sr0 2.473461 1_555
O2 Sr0 2.367861 1_545
O3 Sr0 2.413506 1_545
O4 Sr0 2.977659 1_645
O5 Sr0 2.405563 1_655
