# generated using pymatgen
data_HoInPt
_symmetry_space_group_name_H-M   'P 1'
_cell_length_a   7.60734468
_cell_length_b   7.60734333
_cell_length_c   3.83578625
_cell_angle_alpha   90.00000000
_cell_angle_beta   90.00000000
_cell_angle_gamma   120.00000151
_symmetry_Int_Tables_number   1
_chemical_formula_structural   HoInPt
_chemical_formula_sum   'Ho3 In3 Pt3'
_cell_volume   192.24326522
_cell_formula_units_Z   3
loop_
 _symmetry_equiv_pos_site_id
 _symmetry_equiv_pos_as_xyz
  1  'x, y, z'
loop_
 _atom_site_type_symbol
 _atom_site_label
 _atom_site_symmetry_multiplicity
 _atom_site_fract_x
 _atom_site_fract_y
 _atom_site_fract_z
 _atom_site_occupancy
  Ho  Ho0  1  -0.00000000  0.40626770  0.00000000  1
  Ho  Ho1  1  0.40626770  0.00000000  -0.00000000  1
  Ho  Ho2  1  0.59373230  0.59373230  -0.00000000  1
  In  In0  1  -0.00000000  0.73869883  0.50000000  1
  In  In1  1  0.73869883  0.00000000  0.50000000  1
  In  In2  1  0.26130117  0.26130117  0.50000000  1
  Pt  Pt0  1  -0.00000000  0.00000000  0.00000000  1
  Pt  Pt1  1  0.66666700  0.33333300  0.50000000  1
  Pt  Pt2  1  0.33333300  0.66666700  0.50000000  1
loop_
_geom_bond_atom_site_label_1
_geom_bond_atom_site_label_2
_geom_bond_distance
_geom_bond_site_symmetry_2
Ho0 Pt1 3.001564 1_454
Ho0 Pt1 3.001564 1_455
Ho0 Pt2 3.001566 1_554
Ho0 Pt2 3.001566 1_555
Ho0 Pt0 3.090618 1_555
Ho0 In0 3.173915 1_555
Ho0 In0 3.173915 1_554
Ho0 In1 3.322357 1_455
Ho0 In1 3.322357 1_454
Ho0 In2 3.322358 1_554
Ho0 In2 3.322358 1_555
Ho1 Pt2 3.001564 1_544
Ho1 Pt2 3.001564 1_545
Ho1 Pt1 3.001565 1_555
Ho1 Pt1 3.001565 1_554
Ho1 Pt0 3.090618 1_555
Ho1 In1 3.173916 1_555
Ho1 In1 3.173916 1_554
Ho1 In2 3.322357 1_554
Ho1 In2 3.322357 1_555
Ho1 In0 3.322358 1_544
Ho1 In0 3.322358 1_545
Ho2 Pt1 3.001569 1_554
Ho2 Pt1 3.001569 1_555
Ho2 Pt2 3.001570 1_555
Ho2 Pt2 3.001570 1_554
Ho2 Pt0 3.090618 1_665
Ho2 In2 3.173916 1_554
Ho2 In2 3.173916 1_555
Ho2 In1 3.322357 1_565
Ho2 In1 3.322357 1_564
Ho2 In0 3.322358 1_655
Ho2 In0 3.322358 1_654
In0 Pt0 2.762190 1_565
In0 Pt0 2.762190 1_566
In0 Pt2 2.849558 1_555
In0 Pt1 2.849562 1_455
In1 Pt0 2.762190 1_656
In1 Pt0 2.762190 1_655
In1 Pt1 2.849558 1_555
In1 Pt2 2.849563 1_545
In2 Pt0 2.762190 1_556
In2 Pt0 2.762190 1_555
In2 Pt2 2.849565 1_555
In2 Pt1 2.849566 1_555
