# generated using pymatgen
data_K4MgV2O7
_symmetry_space_group_name_H-M   'P 1'
_cell_length_a   6.35759751
_cell_length_b   6.35759860
_cell_length_c   8.05587271
_cell_angle_alpha   93.70184500
_cell_angle_beta   93.70183948
_cell_angle_gamma   62.14247482
_symmetry_Int_Tables_number   1
_chemical_formula_structural   K4MgV2O7
_chemical_formula_sum   'K4 Mg1 V2 O7'
_cell_volume   287.05742852
_cell_formula_units_Z   1
loop_
 _symmetry_equiv_pos_site_id
 _symmetry_equiv_pos_as_xyz
  1  'x, y, z'
loop_
 _atom_site_type_symbol
 _atom_site_label
 _atom_site_symmetry_multiplicity
 _atom_site_fract_x
 _atom_site_fract_y
 _atom_site_fract_z
 _atom_site_occupancy
  K  K0  1  0.73830141  0.73830141  0.22393989  1
  K  K1  1  0.26169859  0.26169859  0.77606011  1
  K  K2  1  -0.00000000  0.00000000  0.50000000  1
  K  K3  1  -0.00000000  0.00000000  0.00000000  1
  Mg  Mg0  1  0.50000000  0.50000000  0.50000000  1
  V  V0  1  0.61149077  0.61149077  0.83160138  1
  V  V1  1  0.38850923  0.38850923  0.16839862  1
  O  O0  1  0.76744327  0.76744327  0.89461394  1
  O  O1  1  0.77062924  0.36701114  0.67767961  1
  O  O2  1  0.23255673  0.23255673  0.10538606  1
  O  O3  1  0.63298886  0.22937076  0.32232039  1
  O  O4  1  0.36701114  0.77062924  0.67767961  1
  O  O5  1  0.50000000  0.50000000  0.00000000  1
  O  O6  1  0.22937076  0.63298886  0.32232039  1
loop_
_geom_bond_atom_site_label_1
_geom_bond_atom_site_label_2
_geom_bond_distance
_geom_bond_site_symmetry_2
K0 O0 2.695575 1_554
K0 O6 2.935803 1_655
K0 O3 2.935803 1_565
K0 O5 3.047022 1_555
K1 O2 2.695575 1_556
K1 O1 2.935803 1_455
K1 O4 2.935803 1_545
K1 O5 3.047022 1_556
K2 O1 2.505602 1_455
K2 O6 2.505602 1_545
K2 O4 2.505602 1_545
K2 O3 2.505602 1_455
K3 O0 2.609871 1_444
K3 O2 2.609871 1_555
Mg0 O3 2.050054 1_555
Mg0 O4 2.050054 1_555
Mg0 O6 2.050054 1_555
Mg0 O1 2.050054 1_555
O0 V0 1.735648 1_555
O1 V0 1.849463 1_555
O2 V1 1.735648 1_555
O3 V1 1.849463 1_555
O4 V0 1.849463 1_555
O5 V0 1.887606 1_554
O5 V1 1.887606 1_555
O6 V1 1.849463 1_555
