# generated using pymatgen
data_MgMo3W(SeS3)2
_symmetry_space_group_name_H-M   'P 1'
_cell_length_a   6.44689800
_cell_length_b   6.44706553
_cell_length_c   88.48646409
_cell_angle_alpha   90.00493583
_cell_angle_beta   89.99834581
_cell_angle_gamma   119.99926285
_symmetry_Int_Tables_number   1
_chemical_formula_structural   MgMo3W(SeS3)2
_chemical_formula_sum   'Mg8 Mo24 W8 Se16 S48'
_cell_volume   3185.10373162
_cell_formula_units_Z   8
loop_
 _symmetry_equiv_pos_site_id
 _symmetry_equiv_pos_as_xyz
  1  'x, y, z'
loop_
 _atom_site_type_symbol
 _atom_site_label
 _atom_site_symmetry_multiplicity
 _atom_site_fract_x
 _atom_site_fract_y
 _atom_site_fract_z
 _atom_site_occupancy
  Mg  Mg0_0  1  0.49998600  0.00001400  0.18528750  1
  Mg  Mg0_1  1  0.49998600  0.00001400  0.68528750  1
  Mg  Mg0_2  1  0.49998600  0.50001400  0.18528750  1
  Mg  Mg0_3  1  0.49998600  0.50001400  0.68528750  1
  Mg  Mg0_4  1  0.99998600  0.00001400  0.18528750  1
  Mg  Mg0_5  1  0.99998600  0.00001400  0.68528750  1
  Mg  Mg0_6  1  0.99998600  0.50001400  0.18528750  1
  Mg  Mg0_7  1  0.99998600  0.50001400  0.68528750  1
  Mo  Mo0_0  1  0.16672700  0.33347150  0.04670750  1
  Mo  Mo0_1  1  0.16672700  0.33347150  0.54670750  1
  Mo  Mo0_2  1  0.16672700  0.83347150  0.04670750  1
  Mo  Mo0_3  1  0.16672700  0.83347150  0.54670750  1
  Mo  Mo0_4  1  0.66672700  0.33347150  0.04670750  1
  Mo  Mo0_5  1  0.66672700  0.33347150  0.54670750  1
  Mo  Mo0_6  1  0.66672700  0.83347150  0.04670750  1
  Mo  Mo0_7  1  0.66672700  0.83347150  0.54670750  1
  Mo  Mo1_0  1  0.33333200  0.16666700  0.13778650  1
  Mo  Mo1_1  1  0.33333200  0.16666700  0.63778650  1
  Mo  Mo1_2  1  0.33333200  0.66666700  0.13778650  1
  Mo  Mo1_3  1  0.33333200  0.66666700  0.63778650  1
  Mo  Mo1_4  1  0.83333200  0.16666700  0.13778650  1
  Mo  Mo1_5  1  0.83333200  0.16666700  0.63778650  1
  Mo  Mo1_6  1  0.83333200  0.66666700  0.13778650  1
  Mo  Mo1_7  1  0.83333200  0.66666700  0.63778650  1
  Mo  Mo2_0  1  0.33321650  0.16642650  0.32946150  1
  Mo  Mo2_1  1  0.33321650  0.16642650  0.82946150  1
  Mo  Mo2_2  1  0.33321650  0.66642650  0.32946150  1
  Mo  Mo2_3  1  0.33321650  0.66642650  0.82946150  1
  Mo  Mo2_4  1  0.83321650  0.16642650  0.32946150  1
  Mo  Mo2_5  1  0.83321650  0.16642650  0.82946150  1
  Mo  Mo2_6  1  0.83321650  0.66642650  0.32946150  1
  Mo  Mo2_7  1  0.83321650  0.66642650  0.82946150  1
  W  W0_0  1  0.16674350  0.33347250  0.23816550  1
  W  W0_1  1  0.16674350  0.33347250  0.73816550  1
  W  W0_2  1  0.16674350  0.83347250  0.23816550  1
  W  W0_3  1  0.16674350  0.83347250  0.73816550  1
  W  W0_4  1  0.66674350  0.33347250  0.23816550  1
  W  W0_5  1  0.66674350  0.33347250  0.73816550  1
  W  W0_6  1  0.66674350  0.83347250  0.23816550  1
  W  W0_7  1  0.66674350  0.83347250  0.73816550  1
  Se  Se0_0  1  0.16653500  0.33306150  0.34879600  1
  Se  Se0_1  1  0.16653500  0.33306150  0.84879600  1
  Se  Se0_2  1  0.16653500  0.83306150  0.34879600  1
  Se  Se0_3  1  0.16653500  0.83306150  0.84879600  1
  Se  Se0_4  1  0.66653500  0.33306150  0.34879600  1
  Se  Se0_5  1  0.66653500  0.33306150  0.84879600  1
  Se  Se0_6  1  0.66653500  0.83306150  0.34879600  1
  Se  Se0_7  1  0.66653500  0.83306150  0.84879600  1
  Se  Se1_0  1  0.16654100  0.33304700  0.31012900  1
  Se  Se1_1  1  0.16654100  0.33304700  0.81012900  1
  Se  Se1_2  1  0.16654100  0.83304700  0.31012900  1
  Se  Se1_3  1  0.16654100  0.83304700  0.81012900  1
  Se  Se1_4  1  0.66654100  0.33304700  0.31012900  1
  Se  Se1_5  1  0.66654100  0.33304700  0.81012900  1
  Se  Se1_6  1  0.66654100  0.83304700  0.31012900  1
  Se  Se1_7  1  0.66654100  0.83304700  0.81012900  1
  S  S0_0  1  0.16666300  0.33333550  0.15556150  1
  S  S0_1  1  0.16666300  0.33333550  0.65556150  1
  S  S0_2  1  0.16666300  0.83333550  0.15556150  1
  S  S0_3  1  0.16666300  0.83333550  0.65556150  1
  S  S0_4  1  0.66666300  0.33333550  0.15556150  1
  S  S0_5  1  0.66666300  0.33333550  0.65556150  1
  S  S0_6  1  0.66666300  0.83333550  0.15556150  1
  S  S0_7  1  0.66666300  0.83333550  0.65556150  1
  S  S1_0  1  0.33338100  0.16676150  0.02912900  1
  S  S1_1  1  0.33338100  0.16676150  0.52912900  1
  S  S1_2  1  0.33338100  0.66676150  0.02912900  1
  S  S1_3  1  0.33338100  0.66676150  0.52912900  1
  S  S1_4  1  0.83338100  0.16676150  0.02912900  1
  S  S1_5  1  0.83338100  0.16676150  0.52912900  1
  S  S1_6  1  0.83338100  0.66676150  0.02912900  1
  S  S1_7  1  0.83338100  0.66676150  0.52912900  1
  S  S2_0  1  0.33341400  0.16678900  0.22041750  1
  S  S2_1  1  0.33341400  0.16678900  0.72041750  1
  S  S2_2  1  0.33341400  0.66678900  0.22041750  1
  S  S2_3  1  0.33341400  0.66678900  0.72041750  1
  S  S2_4  1  0.83341400  0.16678900  0.22041750  1
  S  S2_5  1  0.83341400  0.16678900  0.72041750  1
  S  S2_6  1  0.83341400  0.66678900  0.22041750  1
  S  S2_7  1  0.83341400  0.66678900  0.72041750  1
  S  S3_0  1  0.33339150  0.16682100  0.06428650  1
  S  S3_1  1  0.33339150  0.16682100  0.56428650  1
  S  S3_2  1  0.33339150  0.66682100  0.06428650  1
  S  S3_3  1  0.33339150  0.66682100  0.56428650  1
  S  S3_4  1  0.83339150  0.16682100  0.06428650  1
  S  S3_5  1  0.83339150  0.16682100  0.56428650  1
  S  S3_6  1  0.83339150  0.66682100  0.06428650  1
  S  S3_7  1  0.83339150  0.66682100  0.56428650  1
  S  S4_0  1  0.33342350  0.16684300  0.25580700  1
  S  S4_1  1  0.33342350  0.16684300  0.75580700  1
  S  S4_2  1  0.33342350  0.66684300  0.25580700  1
  S  S4_3  1  0.33342350  0.66684300  0.75580700  1
  S  S4_4  1  0.83342350  0.16684300  0.25580700  1
  S  S4_5  1  0.83342350  0.16684300  0.75580700  1
  S  S4_6  1  0.83342350  0.66684300  0.25580700  1
  S  S4_7  1  0.83342350  0.66684300  0.75580700  1
  S  S5_0  1  0.16664700  0.33329000  0.12033800  1
  S  S5_1  1  0.16664700  0.33329000  0.62033800  1
  S  S5_2  1  0.16664700  0.83329000  0.12033800  1
  S  S5_3  1  0.16664700  0.83329000  0.62033800  1
  S  S5_4  1  0.66664700  0.33329000  0.12033800  1
  S  S5_5  1  0.66664700  0.33329000  0.62033800  1
  S  S5_6  1  0.66664700  0.83329000  0.12033800  1
  S  S5_7  1  0.66664700  0.83329000  0.62033800  1
loop_
_geom_bond_atom_site_label_1
_geom_bond_atom_site_label_2
_geom_bond_distance
_geom_bond_site_symmetry_2
Mg0_0 S0_2 3.222104 1_545
Mg0_0 S0_6 3.222134 1_545
Mg0_0 S0_4 3.222277 1_555
Mg0_0 Mg0_4 3.223449 1_555
Mg0_0 Mg0_4 3.223449 1_455
Mg0_0 Mg0_6 3.223527 1_555
Mg0_0 Mg0_6 3.223527 1_445
Mg0_0 Mg0_2 3.223533 1_555
Mg0_0 Mg0_2 3.223533 1_545
Mg0_1 S0_3 3.222104 1_545
Mg0_1 S0_7 3.222134 1_545
Mg0_1 S0_5 3.222277 1_555
Mg0_1 Mg0_5 3.223449 1_455
Mg0_1 Mg0_5 3.223449 1_555
Mg0_1 Mg0_7 3.223527 1_555
Mg0_1 Mg0_7 3.223527 1_445
Mg0_1 Mg0_3 3.223533 1_555
Mg0_1 Mg0_3 3.223533 1_545
Mg0_2 S0_0 3.222104 1_555
Mg0_2 S0_4 3.222134 1_555
Mg0_2 S0_6 3.222277 1_555
Mg0_2 Mg0_6 3.223449 1_555
Mg0_2 Mg0_6 3.223449 1_455
Mg0_2 Mg0_4 3.223527 1_565
Mg0_2 Mg0_4 3.223527 1_455
Mg0_3 S0_1 3.222104 1_555
Mg0_3 S0_5 3.222134 1_555
Mg0_3 S0_7 3.222277 1_555
Mg0_3 Mg0_7 3.223449 1_455
Mg0_3 Mg0_7 3.223449 1_555
Mg0_3 Mg0_5 3.223527 1_455
Mg0_3 Mg0_5 3.223527 1_565
Mg0_4 S0_6 3.222104 1_545
Mg0_4 S0_2 3.222134 1_645
Mg0_4 S0_0 3.222277 1_655
Mg0_4 Mg0_6 3.223533 1_555
Mg0_4 Mg0_6 3.223533 1_545
Mg0_5 S0_7 3.222104 1_545
Mg0_5 S0_3 3.222134 1_645
Mg0_5 S0_1 3.222277 1_655
Mg0_5 Mg0_7 3.223533 1_555
Mg0_5 Mg0_7 3.223533 1_545
Mg0_6 S0_4 3.222104 1_555
Mg0_6 S0_0 3.222134 1_655
Mg0_6 S0_2 3.222277 1_655
Mg0_7 S0_5 3.222104 1_555
Mg0_7 S0_1 3.222134 1_655
Mg0_7 S0_3 3.222277 1_655
Mo0_0 S1_2 2.425449 1_555
Mo0_0 S3_0 2.425531 1_555
Mo0_0 S1_4 2.425534 1_455
Mo0_0 S3_2 2.425535 1_555
Mo0_0 S1_0 2.425554 1_555
Mo0_0 S3_4 2.425556 1_455
Mo0_1 S1_3 2.425449 1_555
Mo0_1 S3_1 2.425531 1_555
Mo0_1 S1_5 2.425534 1_455
Mo0_1 S3_3 2.425535 1_555
Mo0_1 S1_1 2.425554 1_555
Mo0_1 S3_5 2.425556 1_455
Mo0_2 S1_0 2.425449 1_565
Mo0_2 S3_2 2.425531 1_555
Mo0_2 S1_6 2.425534 1_455
Mo0_2 S3_0 2.425535 1_565
Mo0_2 S1_2 2.425554 1_555
Mo0_2 S3_6 2.425556 1_455
Mo0_3 S1_1 2.425449 1_565
Mo0_3 S3_3 2.425531 1_555
Mo0_3 S1_7 2.425534 1_455
Mo0_3 S3_1 2.425535 1_565
Mo0_3 S1_3 2.425554 1_555
Mo0_3 S3_7 2.425556 1_455
Mo0_4 S1_6 2.425449 1_555
Mo0_4 S3_4 2.425531 1_555
Mo0_4 S1_0 2.425534 1_555
Mo0_4 S3_6 2.425535 1_555
Mo0_4 S1_4 2.425554 1_555
Mo0_4 S3_0 2.425556 1_555
Mo0_5 S1_7 2.425449 1_555
Mo0_5 S3_5 2.425531 1_555
Mo0_5 S1_1 2.425534 1_555
Mo0_5 S3_7 2.425535 1_555
Mo0_5 S1_5 2.425554 1_555
Mo0_5 S3_1 2.425556 1_555
Mo0_6 S1_4 2.425449 1_565
Mo0_6 S3_6 2.425531 1_555
Mo0_6 S1_2 2.425534 1_555
Mo0_6 S3_4 2.425535 1_565
Mo0_6 S1_6 2.425554 1_555
Mo0_6 S3_2 2.425556 1_555
Mo0_7 S1_5 2.425449 1_565
Mo0_7 S3_7 2.425531 1_555
Mo0_7 S1_3 2.425534 1_555
Mo0_7 S3_5 2.425535 1_565
Mo0_7 S1_7 2.425554 1_555
Mo0_7 S3_3 2.425556 1_555
Mo1_0 S5_4 2.418079 1_555
Mo1_0 S5_0 2.418111 1_555
Mo1_0 S5_2 2.418265 1_545
Mo1_0 S0_0 2.436627 1_555
Mo1_0 S0_4 2.436657 1_555
Mo1_0 S0_2 2.436815 1_545
Mo1_1 S5_5 2.418079 1_555
Mo1_1 S5_1 2.418111 1_555
Mo1_1 S5_3 2.418265 1_545
Mo1_1 S0_1 2.436627 1_555
Mo1_1 S0_5 2.436657 1_555
Mo1_1 S0_3 2.436815 1_545
Mo1_2 S5_6 2.418079 1_555
Mo1_2 S5_2 2.418111 1_555
Mo1_2 S5_0 2.418265 1_555
Mo1_2 S0_2 2.436627 1_555
Mo1_2 S0_6 2.436657 1_555
Mo1_2 S0_0 2.436815 1_555
Mo1_3 S5_7 2.418079 1_555
Mo1_3 S5_3 2.418111 1_555
Mo1_3 S5_1 2.418265 1_555
Mo1_3 S0_3 2.436627 1_555
Mo1_3 S0_7 2.436657 1_555
Mo1_3 S0_1 2.436815 1_555
Mo1_4 S5_0 2.418079 1_655
Mo1_4 S5_4 2.418111 1_555
Mo1_4 S5_6 2.418265 1_545
Mo1_4 S0_4 2.436627 1_555
Mo1_4 S0_0 2.436657 1_655
Mo1_4 S0_6 2.436815 1_545
Mo1_5 S5_1 2.418079 1_655
Mo1_5 S5_5 2.418111 1_555
Mo1_5 S5_7 2.418265 1_545
Mo1_5 S0_5 2.436627 1_555
Mo1_5 S0_1 2.436657 1_655
Mo1_5 S0_7 2.436815 1_545
Mo1_6 S5_2 2.418079 1_655
Mo1_6 S5_6 2.418111 1_555
Mo1_6 S5_4 2.418265 1_555
Mo1_6 S0_6 2.436627 1_555
Mo1_6 S0_2 2.436657 1_655
Mo1_6 S0_4 2.436815 1_555
Mo1_7 S5_3 2.418079 1_655
Mo1_7 S5_7 2.418111 1_555
Mo1_7 S5_5 2.418265 1_555
Mo1_7 S0_7 2.436627 1_555
Mo1_7 S0_3 2.436657 1_655
Mo1_7 S0_5 2.436815 1_555
Mo2_0 Se1_0 2.527771 1_555
Mo2_0 Se0_0 2.527808 1_555
Mo2_0 Se1_4 2.527823 1_555
Mo2_0 Se0_4 2.527876 1_555
Mo2_0 Se1_2 2.527959 1_545
Mo2_0 Se0_2 2.528228 1_545
Mo2_1 Se1_1 2.527771 1_555
Mo2_1 Se0_1 2.527808 1_555
Mo2_1 Se1_5 2.527823 1_555
Mo2_1 Se0_5 2.527876 1_555
Mo2_1 Se1_3 2.527959 1_545
Mo2_1 Se0_3 2.528228 1_545
Mo2_2 Se1_2 2.527771 1_555
Mo2_2 Se0_2 2.527808 1_555
Mo2_2 Se1_6 2.527823 1_555
Mo2_2 Se0_6 2.527876 1_555
Mo2_2 Se1_0 2.527959 1_555
Mo2_2 Se0_0 2.528228 1_555
Mo2_3 Se1_3 2.527771 1_555
Mo2_3 Se0_3 2.527808 1_555
Mo2_3 Se1_7 2.527823 1_555
Mo2_3 Se0_7 2.527876 1_555
Mo2_3 Se1_1 2.527959 1_555
Mo2_3 Se0_1 2.528228 1_555
Mo2_4 Se1_4 2.527771 1_555
Mo2_4 Se0_4 2.527808 1_555
Mo2_4 Se1_0 2.527823 1_655
Mo2_4 Se0_0 2.527876 1_655
Mo2_4 Se1_6 2.527959 1_545
Mo2_4 Se0_6 2.528228 1_545
Mo2_5 Se1_5 2.527771 1_555
Mo2_5 Se0_5 2.527808 1_555
Mo2_5 Se1_1 2.527823 1_655
Mo2_5 Se0_1 2.527876 1_655
Mo2_5 Se1_7 2.527959 1_545
Mo2_5 Se0_7 2.528228 1_545
Mo2_6 Se1_6 2.527771 1_555
Mo2_6 Se0_6 2.527808 1_555
Mo2_6 Se1_2 2.527823 1_655
Mo2_6 Se0_2 2.527876 1_655
Mo2_6 Se1_4 2.527959 1_555
Mo2_6 Se0_4 2.528228 1_555
Mo2_7 Se1_7 2.527771 1_555
Mo2_7 Se0_7 2.527808 1_555
Mo2_7 Se1_3 2.527823 1_655
Mo2_7 Se0_3 2.527876 1_655
Mo2_7 Se1_5 2.527959 1_555
Mo2_7 Se0_5 2.528228 1_555
S2_0 W0_4 2.435109 1_555
S2_0 W0_0 2.435156 1_555
S2_0 W0_2 2.435209 1_545
S2_1 W0_5 2.435109 1_555
S2_1 W0_1 2.435156 1_555
S2_1 W0_3 2.435209 1_545
S2_2 W0_6 2.435109 1_555
S2_2 W0_2 2.435156 1_555
S2_2 W0_0 2.435209 1_555
S2_3 W0_7 2.435109 1_555
S2_3 W0_3 2.435156 1_555
S2_3 W0_1 2.435209 1_555
S2_4 W0_0 2.435109 1_655
S2_4 W0_4 2.435156 1_555
S2_4 W0_6 2.435209 1_545
S2_5 W0_1 2.435109 1_655
S2_5 W0_5 2.435156 1_555
S2_5 W0_7 2.435209 1_545
S2_6 W0_2 2.435109 1_655
S2_6 W0_6 2.435156 1_555
S2_6 W0_4 2.435209 1_555
S2_7 W0_3 2.435109 1_655
S2_7 W0_7 2.435156 1_555
S2_7 W0_5 2.435209 1_555
S4_0 W0_4 2.429041 1_555
S4_0 W0_0 2.429058 1_555
S4_0 W0_2 2.429175 1_545
S4_1 W0_5 2.429041 1_555
S4_1 W0_1 2.429058 1_555
S4_1 W0_3 2.429175 1_545
S4_2 W0_6 2.429041 1_555
S4_2 W0_2 2.429058 1_555
S4_2 W0_0 2.429175 1_555
S4_3 W0_7 2.429041 1_555
S4_3 W0_3 2.429058 1_555
S4_3 W0_1 2.429175 1_555
S4_4 W0_0 2.429041 1_655
S4_4 W0_4 2.429058 1_555
S4_4 W0_6 2.429175 1_545
S4_5 W0_1 2.429041 1_655
S4_5 W0_5 2.429058 1_555
S4_5 W0_7 2.429175 1_545
S4_6 W0_2 2.429041 1_655
S4_6 W0_6 2.429058 1_555
S4_6 W0_4 2.429175 1_555
S4_7 W0_3 2.429041 1_655
S4_7 W0_7 2.429058 1_555
S4_7 W0_5 2.429175 1_555
