# generated using pymatgen
data_Na5Hf2Ti2Si3(PO8)3
_symmetry_space_group_name_H-M   'P 1'
_cell_length_a   8.93652268
_cell_length_b   8.92033235
_cell_length_c   22.45986138
_cell_angle_alpha   90.10448028
_cell_angle_beta   89.85767035
_cell_angle_gamma   119.89026691
_symmetry_Int_Tables_number   1
_chemical_formula_structural   Na5Hf2Ti2Si3(PO8)3
_chemical_formula_sum   'Na15 Hf6 Ti6 Si9 P9 O72'
_cell_volume   1552.26197277
_cell_formula_units_Z   3
loop_
 _symmetry_equiv_pos_site_id
 _symmetry_equiv_pos_as_xyz
  1  'x, y, z'
loop_
 _atom_site_type_symbol
 _atom_site_label
 _atom_site_symmetry_multiplicity
 _atom_site_fract_x
 _atom_site_fract_y
 _atom_site_fract_z
 _atom_site_occupancy
  Na  Na0  1  0.00159059  0.62912248  0.24990213  1
  Na  Na1  1  0.36829715  0.00237200  0.74848507  1
  Na  Na2  1  0.03402480  0.70186651  0.58256979  1
  Na  Na3  1  0.66343906  0.96534445  0.58464802  1
  Na  Na4  1  0.29796689  0.97112621  0.08214599  1
  Na  Na5  1  0.03055325  0.33663868  0.08723461  1
  Na  Na6  1  0.97451210  0.66977082  0.91922416  1
  Na  Na7  1  0.96609823  0.30277452  0.41663348  1
  Na  Na8  1  0.33660256  0.03386875  0.41681835  1
  Na  Na9  1  0.00199762  0.99830207  0.50017356  1
  Na  Na10  1  0.99531743  0.99773918  0.00074811  1
  Na  Na11  1  0.66658331  0.32725567  0.83020257  1
  Na  Na12  1  0.66224630  0.33287487  0.33609716  1
  Na  Na13  1  0.34973451  0.65975484  0.16754643  1
  Na  Na14  1  0.33320263  0.64391380  0.66400662  1
  Hf  Hf0  1  0.99888601  0.00668101  0.85159100  1
  Hf  Hf1  1  0.66493382  0.33176375  0.18926914  1
  Hf  Hf2  1  0.65640756  0.32868479  0.98032385  1
  Hf  Hf3  1  0.33551895  0.66766292  0.01978532  1
  Hf  Hf4  1  0.33576376  0.66482815  0.31357419  1
  Hf  Hf5  1  0.33908812  0.66909713  0.81022371  1
  Ti  Ti0  1  0.98718019  0.99415790  0.35490489  1
  Ti  Ti1  1  0.99711679  0.99951887  0.64588028  1
  Ti  Ti2  1  0.00195257  0.00278976  0.14742421  1
  Ti  Ti3  1  0.66441978  0.33278505  0.68395460  1
  Ti  Ti4  1  0.66676762  0.34138872  0.48166821  1
  Ti  Ti5  1  0.34302965  0.67657618  0.51904709  1
  Si  Si0  1  0.00017589  0.28417472  0.25098095  1
  Si  Si1  1  0.71078260  0.00702508  0.74620623  1
  Si  Si2  1  0.37477445  0.04830451  0.58257987  1
  Si  Si3  1  0.66047809  0.61898565  0.58437375  1
  Si  Si4  1  0.95574876  0.63106913  0.08406954  1
  Si  Si5  1  0.37109264  0.33263543  0.08616726  1
  Si  Si6  1  0.33569412  0.96344562  0.91495801  1
  Si  Si7  1  0.62716755  0.95975628  0.41799049  1
  Si  Si8  1  0.03902833  0.66730599  0.41806307  1
  P  P0  1  0.28397611  0.00177623  0.25200282  1
  P  P1  1  0.71697493  0.71963001  0.25005375  1
  P  P2  1  0.28952323  0.28670963  0.74611231  1
  P  P3  1  0.99175356  0.70443873  0.74791407  1
  P  P4  1  0.95607266  0.33376338  0.58265164  1
  P  P5  1  0.67083313  0.04181089  0.08456996  1
  P  P6  1  0.62656412  0.66699640  0.91535149  1
  P  P7  1  0.04260154  0.37563434  0.91671947  1
  P  P8  1  0.33671776  0.37921483  0.41904793  1
  O  O0  1  0.19566794  0.01783474  0.30867090  1
  O  O1  1  0.82877086  0.80515514  0.30652969  1
  O  O2  1  0.98408704  0.16922562  0.31058066  1
  O  O3  1  0.20971900  0.17513406  0.80241048  1
  O  O4  1  0.97399366  0.79078605  0.80504749  1
  O  O5  1  0.82535252  0.02920994  0.80468803  1
  O  O6  1  0.80868614  0.98145281  0.68784955  1
  O  O7  1  0.17309051  0.19100151  0.69221642  1
  O  O8  1  0.02523172  0.82510797  0.69321903  1
  O  O9  1  0.80796243  0.82631246  0.19402087  1
  O  O10  1  0.01648685  0.18761452  0.19084081  1
  O  O11  1  0.17485752  0.97617896  0.19464928  1
  O  O12  1  0.86505300  0.36231624  0.63686126  1
  O  O13  1  0.50130004  0.13352311  0.64076098  1
  O  O14  1  0.63996454  0.49750189  0.64155895  1
  O  O15  1  0.87257018  0.50261243  0.14147819  1
  O  O16  1  0.63564741  0.12404228  0.13884814  1
  O  O17  1  0.48929900  0.35823711  0.14343202  1
  O  O18  1  0.45605809  0.28944606  0.02877869  1
  O  O19  1  0.84558069  0.54086405  0.02396870  1
  O  O20  1  0.70332247  0.15894333  0.02945746  1
  O  O21  1  0.47146150  0.16433088  0.52367869  1
  O  O22  1  0.70090532  0.52841475  0.52728985  1
  O  O23  1  0.84216380  0.29876709  0.52637807  1
  O  O24  1  0.53907812  0.68721756  0.97144636  1
  O  O25  1  0.14740279  0.45695711  0.97428050  1
  O  O26  1  0.30685946  0.84536735  0.97447016  1
  O  O27  1  0.53498243  0.83956212  0.47733158  1
  O  O28  1  0.30490509  0.46996539  0.47228725  1
  O  O29  1  0.16890881  0.69841031  0.47510712  1
  O  O30  1  0.12105810  0.62593780  0.35894674  1
  O  O31  1  0.49887645  0.87064507  0.36217522  1
  O  O32  1  0.36318237  0.48541821  0.36212663  1
  O  O33  1  0.13555340  0.49072240  0.86290765  1
  O  O34  1  0.35275547  0.86493818  0.85587222  1
  O  O35  1  0.51493496  0.64245151  0.86000734  1
  O  O36  1  0.03331042  0.84726676  0.41008688  1
  O  O37  1  0.82147795  0.98381457  0.41061082  1
  O  O38  1  0.17234580  0.19753894  0.41284899  1
  O  O39  1  0.02211806  0.19351772  0.91172898  1
  O  O40  1  0.15725189  0.97196801  0.91112372  1
  O  O41  1  0.80790041  0.82758528  0.91068082  1
  O  O42  1  0.97079394  0.16784913  0.58923829  1
  O  O43  1  0.17804051  0.01592312  0.59003098  1
  O  O44  1  0.83547471  0.81154873  0.59027379  1
  O  O45  1  0.98431327  0.82574677  0.09273654  1
  O  O46  1  0.83476348  0.02661475  0.09087831  1
  O  O47  1  0.17738956  0.15841942  0.09256177  1
  O  O48  1  0.68358280  0.17519806  0.74058171  1
  O  O49  1  0.46931857  0.30210768  0.74080276  1
  O  O50  1  0.83173948  0.52379933  0.74159509  1
  O  O51  1  0.70330417  0.53963606  0.24699491  1
  O  O52  1  0.83188188  0.31171557  0.24970466  1
  O  O53  1  0.46600524  0.16087570  0.24787580  1
  O  O54  1  0.65108443  0.50769228  0.92014774  1
  O  O55  1  0.86595721  0.36564645  0.92104721  1
  O  O56  1  0.50777520  0.15195054  0.91861651  1
  O  O57  1  0.64639045  0.15113616  0.42472541  1
  O  O58  1  0.49547588  0.35356233  0.42446847  1
  O  O59  1  0.85134500  0.49141942  0.42671258  1
  O  O60  1  0.34243034  0.49739640  0.07945678  1
  O  O61  1  0.15009389  0.65228306  0.07919558  1
  O  O62  1  0.50717322  0.86474978  0.07743298  1
  O  O63  1  0.35600087  0.85351181  0.57676134  1
  O  O64  1  0.49396792  0.64581534  0.57676992  1
  O  O65  1  0.13377300  0.49898697  0.57692488  1
  O  O66  1  0.29821238  0.83465197  0.25472150  1
  O  O67  1  0.53731680  0.69941937  0.25450266  1
  O  O68  1  0.16940969  0.47879197  0.25264682  1
  O  O69  1  0.30438153  0.46541957  0.75224494  1
  O  O70  1  0.15926399  0.69198358  0.75261343  1
  O  O71  1  0.51668265  0.83424847  0.74992129  1
loop_
_geom_bond_atom_site_label_1
_geom_bond_atom_site_label_2
_geom_bond_distance
_geom_bond_site_symmetry_2
Na0 O66 2.357233 1_555
Na0 O51 2.372132 1_455
Na0 O52 2.457022 1_455
Na0 O68 2.460984 1_555
Na0 O30 2.679986 1_555
Na0 O15 2.690752 1_455
Na1 O49 2.364064 1_555
Na1 O71 2.447671 1_545
Na1 O70 2.451389 1_545
Na1 O48 2.452768 1_555
Na1 O34 2.679353 1_545
Na1 O13 2.691721 1_555
Na1 O3 2.830462 1_555
Na1 O8 2.936039 1_545
Na2 O65 2.385863 1_555
Na2 O44 2.421495 1_455
Na2 O43 2.436925 1_565
Na2 O63 2.499089 1_555
Na2 O29 2.702164 1_555
Na2 O8 2.732394 1_555
Na2 O22 2.866741 1_455
Na2 O12 2.896047 1_455
Na3 O63 2.417642 1_555
Na3 O42 2.423546 1_565
Na3 O64 2.479171 1_555
Na3 O44 2.522988 1_555
Na3 O6 2.627913 1_555
Na3 O27 2.665796 1_555
Na3 O13 2.844117 1_565
Na3 O23 2.894660 1_565
Na4 O47 2.408057 1_565
Na4 O45 2.443338 1_455
Na4 O61 2.468560 1_555
Na4 O62 2.484711 1_555
Na4 O26 2.681671 1_554
Na4 O18 2.738833 1_565
Na4 O11 2.762673 1_555
Na4 O16 2.915318 1_565
Na5 O60 2.422776 1_555
Na5 O46 2.427666 1_455
Na5 O61 2.470769 1_555
Na5 O47 2.518779 1_555
Na5 O10 2.653503 1_555
Na5 O25 2.749203 1_554
Na5 O15 2.781671 1_455
Na5 O20 2.852974 1_455
Na6 O40 2.362089 1_655
Na6 O55 2.383214 1_555
Na6 O54 2.505907 1_555
Na6 O41 2.515355 1_555
Na6 O19 2.619196 1_556
Na6 O4 2.785064 1_555
Na6 O26 2.861594 1_655
Na6 O33 2.914877 1_655
Na7 O59 2.377399 1_555
Na7 O38 2.451328 1_655
Na7 O37 2.473543 1_545
Na7 O57 2.484370 1_555
Na7 O23 2.692713 1_555
Na7 O2 2.701344 1_555
Na7 O30 2.816452 1_655
Na7 O28 2.909538 1_655
Na8 O36 2.375766 1_545
Na8 O57 2.430103 1_555
Na8 O58 2.478282 1_555
Na8 O38 2.536005 1_555
Na8 O21 2.678324 1_555
Na8 O0 2.709433 1_555
Na8 O31 2.796111 1_545
Na8 O29 2.906746 1_545
Na9 O43 2.518119 1_565
Na9 O36 2.519993 1_555
Na9 O37 2.544201 1_455
Na9 O44 2.571257 1_455
Na9 O38 2.573733 1_565
Na9 O42 2.602542 1_465
Na10 O45 2.547991 1_555
Na10 O40 2.552337 1_654
Na10 O46 2.564144 1_565
Na10 O47 2.575979 1_665
Na10 O41 2.583214 1_554
Na10 O39 2.588090 1_664
Na11 O48 2.471531 1_555
Na11 O56 2.487602 1_555
Na11 O50 2.575229 1_555
Na11 O49 2.609883 1_555
Na11 O55 2.619581 1_555
Na11 O54 2.626752 1_555
Na12 O52 2.523486 1_555
Na12 O57 2.528258 1_555
Na12 O58 2.540223 1_555
Na12 O59 2.573425 1_555
Na12 O53 2.584581 1_555
Na12 O51 2.622325 1_555
Na13 O60 2.431495 1_555
Na13 O67 2.484388 1_555
Na13 O68 2.501829 1_555
Na13 O62 2.618167 1_555
Na13 O61 2.650218 1_555
Na13 O66 2.679532 1_555
Na14 O64 2.421806 1_555
Na14 O69 2.475758 1_555
Na14 O65 2.526781 1_555
Na14 O71 2.554171 1_555
Na14 O63 2.647386 1_555
Na14 O70 2.684468 1_555
Hf0 O5 1.968389 1_555
Hf0 O3 2.049856 1_655
Hf0 O39 2.072074 1_655
Hf0 O40 2.081899 1_645
Hf0 O4 2.101906 1_545
Hf0 O41 2.122606 1_545
Hf1 O17 1.989347 1_555
Hf1 O15 2.023711 1_555
Hf1 O16 2.072395 1_555
Hf1 O52 2.092173 1_555
Hf1 O53 2.124016 1_555
Hf1 O51 2.143977 1_555
Hf2 O18 1.969675 1_556
Hf2 O56 2.021046 1_555
Hf2 O19 2.052701 1_556
Hf2 O20 2.080220 1_556
Hf2 O54 2.112494 1_555
Hf2 O55 2.182160 1_555
Hf3 O26 2.006510 1_554
Hf3 O24 2.047663 1_554
Hf3 O60 2.051383 1_555
Hf3 O25 2.062935 1_554
Hf3 O61 2.075629 1_555
Hf3 O62 2.105710 1_555
Hf4 O31 2.005072 1_555
Hf4 O30 2.041686 1_555
Hf4 O32 2.051581 1_555
Hf4 O68 2.092735 1_555
Hf4 O67 2.129646 1_555
Hf4 O66 2.161224 1_555
Hf5 O34 1.974689 1_555
Hf5 O35 2.039161 1_555
Hf5 O71 2.046893 1_555
Hf5 O33 2.086128 1_555
Hf5 O69 2.127126 1_555
Hf5 O70 2.153287 1_555
O0 P0 1.539556 1_555
O0 Ti0 2.047739 1_445
O1 P1 1.559555 1_555
O1 Ti0 1.910275 1_555
O2 Si0 1.649560 1_655
O2 Ti0 1.865325 1_545
O3 P2 1.546190 1_555
O4 P3 1.543476 1_555
O5 Si1 1.617559 1_555
O6 Si1 1.651525 1_565
O6 Ti1 1.863405 1_555
O7 P2 1.547236 1_555
O7 Ti1 1.948875 1_445
O8 P3 1.561815 1_455
O8 Ti1 2.002760 1_455
O9 P1 1.542282 1_555
O9 Ti2 1.963623 1_665
O10 Si0 1.645473 1_555
O10 Ti2 1.862066 1_555
O11 P0 1.563848 1_565
O11 Ti2 1.985836 1_565
O12 P4 1.552202 1_555
O12 Ti3 1.980835 1_555
O13 Si2 1.646499 1_555
O13 Ti3 1.908874 1_555
O14 Si3 1.632016 1_555
O14 Ti3 1.854605 1_555
O15 Si4 1.637006 1_555
O16 P5 1.532258 1_555
O17 Si5 1.608564 1_555
O18 Si5 1.634383 1_555
O19 Si4 1.628476 1_555
O20 P5 1.552031 1_555
O21 Si2 1.635813 1_555
O21 Ti4 1.918559 1_555
O22 Si3 1.646776 1_555
O22 Ti4 1.847802 1_555
O23 P4 1.555422 1_555
O23 Ti4 2.052544 1_555
O24 P6 1.538154 1_555
O25 P7 1.549257 1_555
O26 Si6 1.641748 1_555
O27 Si7 1.650447 1_555
O27 Ti5 1.856195 1_555
O28 P8 1.546004 1_555
O28 Ti5 1.996172 1_555
O29 Si8 1.658541 1_555
O29 Ti5 1.934816 1_555
O30 Si8 1.643000 1_555
O31 Si7 1.616475 1_555
O32 P8 1.538657 1_555
O33 P7 1.534365 1_555
O34 Si6 1.638522 1_555
O35 P6 1.541323 1_555
O36 Si8 1.641516 1_555
O36 Ti0 1.992430 1_455
O37 Si7 1.648059 1_555
O37 Ti0 1.903076 1_555
O38 P8 1.559175 1_555
O38 Ti0 2.175601 1_445
O39 P7 1.545398 1_555
O40 Si6 1.636352 1_555
O41 P6 1.541155 1_555
O42 P4 1.557105 1_555
O42 Ti1 2.070977 1_545
O43 Si2 1.641640 1_555
O43 Ti1 1.990923 1_445
O44 Si3 1.654278 1_555
O44 Ti1 2.011266 1_555
O45 Si4 1.635844 1_555
O45 Ti2 1.942527 1_665
O46 P5 1.543892 1_555
O46 Ti2 2.053605 1_655
O47 Si5 1.658489 1_555
O47 Ti2 1.931565 1_555
O48 Si1 1.640060 1_555
O48 Ti3 1.967360 1_555
O49 P2 1.547211 1_555
O49 Ti3 2.063897 1_555
O50 P3 1.537878 1_555
O50 Ti3 2.068171 1_555
O51 P1 1.549758 1_555
O52 Si0 1.640604 1_655
O53 P0 1.538731 1_555
O54 P6 1.545970 1_555
O55 P7 1.538964 1_655
O56 Si6 1.619252 1_545
O57 Si7 1.635152 1_545
O57 Ti4 2.057727 1_555
O58 P8 1.550663 1_555
O58 Ti4 2.044847 1_555
O59 Si8 1.639883 1_655
O59 Ti4 1.957314 1_555
O60 Si5 1.620066 1_555
O61 Si4 1.654003 1_455
O62 P5 1.535345 1_565
O63 Si2 1.665311 1_565
O63 Ti5 1.998939 1_555
O64 Si3 1.630034 1_555
O64 Ti5 1.988563 1_555
O65 P4 1.541924 1_455
O65 Ti5 2.176973 1_555
O66 P0 1.559428 1_565
O67 P1 1.526747 1_555
O68 Si0 1.638820 1_555
O69 P2 1.538259 1_555
O70 P3 1.559157 1_455
O71 Si1 1.651165 1_565
