# generated using pymatgen
data_U2Co3O8
_symmetry_space_group_name_H-M   'P 1'
_cell_length_a   5.15873548
_cell_length_b   6.14342751
_cell_length_c   10.39852682
_cell_angle_alpha   90.00000000
_cell_angle_beta   90.00000000
_cell_angle_gamma   90.00000000
_symmetry_Int_Tables_number   1
_chemical_formula_structural   U2Co3O8
_chemical_formula_sum   'U4 Co6 O16'
_cell_volume   329.55341314
_cell_formula_units_Z   2
loop_
 _symmetry_equiv_pos_site_id
 _symmetry_equiv_pos_as_xyz
  1  'x, y, z'
loop_
 _atom_site_type_symbol
 _atom_site_label
 _atom_site_symmetry_multiplicity
 _atom_site_fract_x
 _atom_site_fract_y
 _atom_site_fract_z
 _atom_site_occupancy
  O  O0  1  0.68178262  0.49999950  0.40271726  1
  O  O1  1  0.18178225  0.00000000  0.09728268  1
  O  O2  1  0.31821811  0.49999950  0.59728263  1
  O  O3  1  0.81821847  0.00000000  0.90271721  1
  O  O4  1  0.79769857  0.49999950  0.91200122  1
  O  O5  1  0.29769820  0.00000000  0.58799862  1
  O  O6  1  0.20230216  0.49999950  0.08799867  1
  O  O7  1  0.70230058  0.00000000  0.41200127  1
  O  O8  1  0.29429104  0.23283640  0.84907485  1
  O  O9  1  0.79429141  0.26716475  0.65092499  1
  O  O10  1  0.79429141  0.73283589  0.65092499  1
  O  O11  1  0.29429104  0.76716424  0.84907485  1
  O  O12  1  0.20570738  0.73283589  0.34907490  1
  O  O13  1  0.70570774  0.23283640  0.15092504  1
  O  O14  1  0.20570738  0.26716475  0.34907490  1
  O  O15  1  0.70570774  0.76716424  0.15092504  1
  Co  Co0  1  0.50000036  0.00000000  0.00000000  1
  Co  Co1  1  0.00000000  0.49999950  0.49999995  1
  Co  Co2  1  0.50000036  0.23769059  0.49999995  1
  Co  Co3  1  0.00000000  0.26230890  0.00000000  1
  Co  Co4  1  0.50000036  0.76231005  0.49999995  1
  Co  Co5  1  0.00000000  0.73769009  0.00000000  1
  U  U0  1  0.45775887  0.49999950  0.23339740  1
  U  U1  1  0.95775924  0.00000000  0.26660254  1
  U  U2  1  0.54223991  0.49999950  0.76660249  1
  U  U3  1  0.04223955  0.00000000  0.73339735  1
loop_
_geom_bond_atom_site_label_1
_geom_bond_atom_site_label_2
_geom_bond_distance
_geom_bond_site_symmetry_2
O0 U0 2.106081 1_555
O1 U1 2.106079 1_455
O2 U2 2.106076 1_555
O3 U3 2.106074 1_655
O4 U2 2.005655 1_555
O5 U3 2.005655 1_555
O6 U0 2.005648 1_555
O7 U1 2.005655 1_555
O8 U2 2.250649 1_555
O8 U3 2.276771 1_555
O9 U3 2.250655 1_655
O9 U2 2.276765 1_555
O10 U3 2.250652 1_665
O10 U2 2.276771 1_555
O11 U2 2.250657 1_555
O11 U3 2.276769 1_565
O12 U1 2.250652 1_465
O12 U0 2.276771 1_555
O13 U0 2.250649 1_555
O13 U1 2.276771 1_555
O14 U1 2.250655 1_455
O14 U0 2.276765 1_555
O15 U0 2.250657 1_555
O15 U1 2.276769 1_565
Co0 O1 1.928260 1_555
Co0 O3 1.928261 1_554
Co0 O15 2.373859 1_545
Co0 O13 2.373861 1_555
Co0 O11 2.373864 1_544
Co0 O8 2.373867 1_554
Co1 O0 1.928257 1_455
Co1 O2 1.928260 1_555
Co1 O14 2.373855 1_555
Co1 O9 2.373858 1_455
Co1 O12 2.373861 1_555
Co1 O10 2.373864 1_455
Co2 O7 2.014632 1_555
Co2 O5 2.014637 1_555
Co2 O2 2.121223 1_555
Co2 O0 2.121223 1_555
Co2 O9 2.191036 1_555
Co2 O14 2.191043 1_555
Co3 O4 2.014636 1_454
Co3 O6 2.014638 1_555
Co3 O3 2.121222 1_454
Co3 O1 2.121223 1_555
Co3 O8 2.191035 1_554
Co3 O13 2.191039 1_455
Co4 O7 2.014629 1_565
Co4 O5 2.014635 1_565
Co4 O2 2.121231 1_555
Co4 O0 2.121231 1_555
Co4 O10 2.191036 1_555
Co4 O12 2.191043 1_555
Co5 O4 2.014636 1_454
Co5 O6 2.014637 1_555
Co5 O3 2.121227 1_464
Co5 O1 2.121228 1_565
Co5 O11 2.191036 1_554
Co5 O15 2.191040 1_455
