# generated using pymatgen
data_Ba2Nd2Mg(Fe2O5)2
_symmetry_space_group_name_H-M   'P 1'
_cell_length_a   3.82131140
_cell_length_b   10.08299451
_cell_length_c   7.91542549
_cell_angle_alpha   94.99222762
_cell_angle_beta   90.00000000
_cell_angle_gamma   90.00000000
_symmetry_Int_Tables_number   1
_chemical_formula_structural   Ba2Nd2Mg(Fe2O5)2
_chemical_formula_sum   'Ba2 Nd2 Mg1 Fe4 O10'
_cell_volume   303.82646598
_cell_formula_units_Z   1
loop_
 _symmetry_equiv_pos_site_id
 _symmetry_equiv_pos_as_xyz
  1  'x, y, z'
loop_
 _atom_site_type_symbol
 _atom_site_label
 _atom_site_symmetry_multiplicity
 _atom_site_fract_x
 _atom_site_fract_y
 _atom_site_fract_z
 _atom_site_occupancy
  Ba  Ba0  1  0.00000000  0.06652956  0.00641482  1
  Ba  Ba1  1  0.00000000  0.00479286  0.51162120  1
  Nd  Nd0  1  0.00000000  0.41755446  0.00480176  1
  Nd  Nd1  1  0.00000000  0.52810967  0.49453510  1
  Mg  Mg0  1  0.00000000  0.73111792  -0.00109145  1
  Fe  Fe0  1  0.50000000  0.26678665  0.32375426  1
  Fe  Fe1  1  0.50000000  0.27015440  0.70786381  1
  Fe  Fe2  1  0.50000000  0.70374939  0.25154041  1
  Fe  Fe3  1  0.50000000  0.75648315  0.74382554  1
  O  O0  1  0.00000000  0.62460698  0.78510271  1
  O  O1  1  0.50000000  0.29984443  0.97667900  1
  O  O2  1  0.00000000  0.62155075  0.19716604  1
  O  O3  1  0.00000000  0.22653924  0.72819364  1
  O  O4  1  0.50000000  0.07285497  0.26762338  1
  O  O5  1  0.00000000  0.33393743  0.26614667  1
  O  O6  1  0.50000000  0.78754356  0.03194219  1
  O  O7  1  0.50000000  0.68692106  0.48866788  1
  O  O8  1  0.50000000  0.94936753  0.74059575  1
  O  O9  1  0.50000000  0.40155600  0.53621929  1
loop_
_geom_bond_atom_site_label_1
_geom_bond_atom_site_label_2
_geom_bond_distance
_geom_bond_site_symmetry_2
Ba0 O4 2.811867 1_455
Ba0 O4 2.811867 1_555
Ba0 O3 2.840989 1_554
Ba0 O8 3.006774 1_544
Ba0 O8 3.006774 1_444
Ba0 O1 3.055600 1_554
Ba0 O1 3.055600 1_454
Ba0 O5 3.245275 1_555
Ba0 Mg0 3.377302 1_545
Ba0 O6 3.421024 1_445
Ba0 O6 3.421024 1_545
Ba1 O3 2.696428 1_555
Ba1 O8 2.724722 1_445
Ba1 O8 2.724722 1_545
Ba1 O4 2.842947 1_455
Ba1 O4 2.842947 1_555
Nd0 O1 2.250074 1_554
Nd0 O1 2.250074 1_454
Nd0 O5 2.300808 1_555
Nd0 O2 2.450342 1_555
Nd0 O3 2.787357 1_554
Nd0 O0 2.830999 1_554
Nd1 O9 2.336884 1_555
Nd1 O9 2.336884 1_455
Nd1 O0 2.418070 1_555
Nd1 O7 2.495966 1_455
Nd1 O7 2.495966 1_555
Nd1 O5 2.546614 1_555
Nd1 O2 2.610370 1_555
Mg0 O0 1.923835 1_554
Mg0 O2 1.996226 1_555
Mg0 O6 2.004190 1_455
Mg0 O6 2.004190 1_555
Fe0 O4 1.967189 1_555
Fe0 O9 2.068116 1_555
Fe0 O5 2.090623 1_555
Fe0 O5 2.090623 1_655
Fe1 O3 1.970334 1_555
Fe1 O3 1.970334 1_655
Fe1 O9 1.978537 1_555
Fe1 O1 2.122789 1_555
Fe2 O7 1.899268 1_555
Fe2 O6 1.997707 1_555
Fe2 O2 2.112034 1_555
Fe2 O2 2.112034 1_655
Fe3 O8 1.947243 1_555
Fe3 O7 2.079548 1_555
Fe3 O6 2.274809 1_556
Fe3 O0 2.366662 1_655
Fe3 O0 2.366662 1_555
