# generated using pymatgen
data_MgNb4(NiO6)2
_symmetry_space_group_name_H-M   'P 1'
_cell_length_a   4.87031344
_cell_length_b   4.97392105
_cell_length_c   9.03418800
_cell_angle_alpha   90.00003055
_cell_angle_beta   89.99996920
_cell_angle_gamma   90.03237168
_symmetry_Int_Tables_number   1
_chemical_formula_structural   MgNb4(NiO6)2
_chemical_formula_sum   'Mg1 Nb4 Ni2 O12'
_cell_volume   218.84914505
_cell_formula_units_Z   1
loop_
 _symmetry_equiv_pos_site_id
 _symmetry_equiv_pos_as_xyz
  1  'x, y, z'
loop_
 _atom_site_type_symbol
 _atom_site_label
 _atom_site_symmetry_multiplicity
 _atom_site_fract_x
 _atom_site_fract_y
 _atom_site_fract_z
 _atom_site_occupancy
  Mg  Mg0  1  0.50000000  0.00000000  0.67026300  1
  Nb  Nb0  1  0.00000000  0.00000000  0.02096900  1
  Nb  Nb1  1  0.00000000  0.00000000  0.31990200  1
  Nb  Nb2  1  0.50000100  0.49999900  0.85229000  1
  Nb  Nb3  1  0.49999900  0.50000100  0.48837700  1
  Ni  Ni0  1  0.00000000  0.00000000  0.67012900  1
  Ni  Ni1  1  0.50000000  0.50000000  0.17046100  1
  O  O0  1  0.24219300  0.82195400  0.83136400  1
  O  O1  1  0.22776600  0.79616300  0.17050600  1
  O  O2  1  0.24241500  0.82183800  0.50918000  1
  O  O3  1  0.27298200  0.30890300  0.99589700  1
  O  O4  1  0.27286700  0.30942400  0.34445300  1
  O  O5  1  0.29235700  0.33230700  0.67026400  1
  O  O6  1  0.72701800  0.69109700  0.99589700  1
  O  O7  1  0.72713300  0.69057600  0.34445300  1
  O  O8  1  0.70764300  0.66769300  0.67026400  1
  O  O9  1  0.75780800  0.17804300  0.83136300  1
  O  O10  1  0.77223400  0.20383700  0.17050600  1
  O  O11  1  0.75758200  0.17816300  0.50917900  1
loop_
_geom_bond_atom_site_label_1
_geom_bond_atom_site_label_2
_geom_bond_distance
_geom_bond_site_symmetry_2
Mg0 O5 1.938186 1_555
Mg0 O8 1.938186 1_545
Mg0 O11 2.115564 1_555
Mg0 O2 2.115565 1_545
Mg0 O9 2.116067 1_555
Mg0 O0 2.116076 1_545
Nb0 O10 2.021084 1_455
Nb0 O1 2.021085 1_545
Nb0 O6 2.043843 1_444
Nb0 O3 2.043843 1_554
Nb0 O0 2.260733 1_544
Nb0 O9 2.260733 1_454
Nb1 O1 2.020233 1_545
Nb1 O10 2.020234 1_455
Nb1 O4 2.044911 1_555
Nb1 O7 2.044911 1_445
Nb1 O2 2.259288 1_545
Nb1 O11 2.259289 1_455
Nb2 O6 1.951384 1_555
Nb2 O3 1.951385 1_555
Nb2 O0 2.044253 1_555
Nb2 O9 2.044255 1_555
Nb2 O8 2.102782 1_555
Nb2 O5 2.102783 1_555
Nb3 O4 1.952347 1_555
Nb3 O7 1.952348 1_555
Nb3 O2 2.043020 1_555
Nb3 O11 2.043021 1_555
Nb3 O5 2.101800 1_555
Nb3 O8 2.101801 1_555
Ni0 O2 2.072344 1_545
Ni0 O11 2.072363 1_455
Ni0 O9 2.073280 1_455
Ni0 O0 2.073298 1_545
Ni0 O5 2.180991 1_555
Ni0 O8 2.180991 1_445
Ni1 O1 1.982454 1_555
Ni1 O10 1.982454 1_555
Ni1 O4 2.142858 1_555
Ni1 O7 2.142858 1_555
Ni1 O6 2.147508 1_554
Ni1 O3 2.147508 1_554
