# generated using pymatgen
data_Na8HfZn3(PO4)6
_symmetry_space_group_name_H-M   'P 1'
_cell_length_a   9.11655837
_cell_length_b   9.11655805
_cell_length_c   22.12700228
_cell_angle_alpha   90.00000000
_cell_angle_beta   90.00000000
_cell_angle_gamma   120.00000120
_symmetry_Int_Tables_number   1
_chemical_formula_structural   Na8HfZn3(PO4)6
_chemical_formula_sum   'Na24 Hf3 Zn9 P18 O72'
_cell_volume   1592.63048947
_cell_formula_units_Z   3
loop_
 _symmetry_equiv_pos_site_id
 _symmetry_equiv_pos_as_xyz
  1  'x, y, z'
loop_
 _atom_site_type_symbol
 _atom_site_label
 _atom_site_symmetry_multiplicity
 _atom_site_fract_x
 _atom_site_fract_y
 _atom_site_fract_z
 _atom_site_occupancy
  Na  Na0  1  0.63195967  0.99892465  0.25138243  1
  Na  Na1  1  0.36696498  0.36804033  0.25138243  1
  Na  Na2  1  0.00107535  0.63303502  0.25138243  1
  Na  Na3  1  0.64531351  0.63067787  0.74211254  1
  Na  Na4  1  0.98536436  0.35468649  0.74211254  1
  Na  Na5  1  0.36932213  0.01463564  0.74211254  1
  Na  Na6  1  0.29483420  0.33503397  0.58097451  1
  Na  Na7  1  0.04020077  0.70516580  0.58097451  1
  Na  Na8  1  0.66496603  0.95979923  0.58097451  1
  Na  Na9  1  0.29371332  0.96212207  0.09167275  1
  Na  Na10  1  0.66840975  0.70628668  0.09167275  1
  Na  Na11  1  0.03787793  0.33159025  0.09167275  1
  Na  Na12  1  0.97369449  0.68173874  0.91511849  1
  Na  Na13  1  0.70804324  0.02630551  0.91511849  1
  Na  Na14  1  0.31826126  0.29195676  0.91511849  1
  Na  Na15  1  0.97871897  0.29642785  0.40817251  1
  Na  Na16  1  0.31770789  0.02128103  0.40817251  1
  Na  Na17  1  0.70357215  0.68229211  0.40817251  1
  Na  Na18  1  -0.00000000  -0.00000000  0.49648428  1
  Na  Na19  1  -0.00000000  -0.00000000  0.00601551  1
  Na  Na20  1  0.66666700  0.33333300  0.82567462  1
  Na  Na21  1  0.66666700  0.33333300  0.32379364  1
  Na  Na22  1  0.33333300  0.66666700  0.17254357  1
  Na  Na23  1  0.33333300  0.66666700  0.65554938  1
  Hf  Hf0  1  0.66666700  0.33333300  0.98338541  1
  Hf  Hf1  1  0.66666700  0.33333300  0.48269167  1
  Hf  Hf2  1  0.33333300  0.66666700  0.81569869  1
  Zn  Zn0  1  -0.00000000  -0.00000000  0.34078678  1
  Zn  Zn1  1  -0.00000000  -0.00000000  0.84313676  1
  Zn  Zn2  1  -0.00000000  -0.00000000  0.65138389  1
  Zn  Zn3  1  -0.00000000  -0.00000000  0.16068278  1
  Zn  Zn4  1  0.66666700  0.33333300  0.67637301  1
  Zn  Zn5  1  0.66666700  0.33333300  0.18246024  1
  Zn  Zn6  1  0.33333300  0.66666700  0.01762221  1
  Zn  Zn7  1  0.33333300  0.66666700  0.50902593  1
  Zn  Zn8  1  0.33333300  0.66666700  0.31837778  1
  P  P0  1  0.29843507  0.99952351  0.24971668  1
  P  P1  1  0.70108844  0.70156493  0.24971668  1
  P  P2  1  0.00047649  0.29891156  0.24971668  1
  P  P3  1  0.29552503  0.29561605  0.75104480  1
  P  P4  1  0.00009103  0.70447497  0.75104480  1
  P  P5  1  0.70438395  -0.00009103  0.75104480  1
  P  P6  1  0.96483213  0.33376524  0.58596624  1
  P  P7  1  0.36893411  0.03516787  0.58596624  1
  P  P8  1  0.66623476  0.63106589  0.58596624  1
  P  P9  1  0.96487627  0.62941981  0.08412151  1
  P  P10  1  0.66454454  0.03512373  0.08412151  1
  P  P11  1  0.37058019  0.33545546  0.08412151  1
  P  P12  1  0.62971419  0.66807099  0.91860900  1
  P  P13  1  0.03835580  0.37028581  0.91860900  1
  P  P14  1  0.33192901  0.96164420  0.91860900  1
  P  P15  1  0.62935914  0.96220057  0.41787571  1
  P  P16  1  0.33284042  0.37064086  0.41787571  1
  P  P17  1  0.03779943  0.66715958  0.41787571  1
  O  O0  1  0.21631519  0.02802835  0.30667470  1
  O  O1  1  0.81171316  0.78368481  0.30667470  1
  O  O2  1  0.97197165  0.18828684  0.30667470  1
  O  O3  1  0.21771653  0.19056460  0.80911218  1
  O  O4  1  0.97284807  0.78228347  0.80911218  1
  O  O5  1  0.80943540  0.02715193  0.80911218  1
  O  O6  1  0.77893684  0.96221793  0.69494569  1
  O  O7  1  0.18328110  0.22106316  0.69494569  1
  O  O8  1  0.03778207  0.81671890  0.69494569  1
  O  O9  1  0.78114487  0.81069462  0.19195351  1
  O  O10  1  0.02954975  0.21885513  0.19195351  1
  O  O11  1  0.18930538  0.97045025  0.19195351  1
  O  O12  1  0.88465587  0.36140344  0.64345448  1
  O  O13  1  0.47674857  0.11534413  0.64345448  1
  O  O14  1  0.63859656  0.52325143  0.64345448  1
  O  O15  1  0.88002550  0.51805122  0.13900591  1
  O  O16  1  0.63802673  0.11997450  0.13900591  1
  O  O17  1  0.48194878  0.36197327  0.13900591  1
  O  O18  1  0.46354594  0.31384669  0.02559352  1
  O  O19  1  0.85030175  0.53645406  0.02559352  1
  O  O20  1  0.68615331  0.14969825  0.02559352  1
  O  O21  1  0.46540146  0.15196882  0.53055003  1
  O  O22  1  0.68656836  0.53459854  0.53055003  1
  O  O23  1  0.84803118  0.31343164  0.53055003  1
  O  O24  1  0.54683276  0.69339683  0.97388352  1
  O  O25  1  0.14656307  0.45316724  0.97388352  1
  O  O26  1  0.30660317  0.85343693  0.97388352  1
  O  O27  1  0.55128780  0.85678358  0.47595192  1
  O  O28  1  0.30549478  0.44871220  0.47595192  1
  O  O29  1  0.14321642  0.69450522  0.47595192  1
  O  O30  1  0.11187961  0.62885263  0.36185461  1
  O  O31  1  0.51697202  0.88812039  0.36185461  1
  O  O32  1  0.37114737  0.48302798  0.36185461  1
  O  O33  1  0.12397828  0.48538719  0.86139010  1
  O  O34  1  0.36140791  0.87602172  0.86139010  1
  O  O35  1  0.51461281  0.63859209  0.86139010  1
  O  O36  1  0.01199124  0.82212879  0.41298826  1
  O  O37  1  0.81013755  0.98800876  0.41298826  1
  O  O38  1  0.17787121  0.18986245  0.41298826  1
  O  O39  1  0.01273631  0.19063161  0.91112655  1
  O  O40  1  0.17789530  0.98726369  0.91112655  1
  O  O41  1  0.80936839  0.82210470  0.91112655  1
  O  O42  1  0.97444400  0.16889456  0.58646462  1
  O  O43  1  0.19445056  0.02555600  0.58646462  1
  O  O44  1  0.83110544  0.80554944  0.58646462  1
  O  O45  1  0.97565780  0.80413844  0.08380690  1
  O  O46  1  0.82848064  0.02434220  0.08380690  1
  O  O47  1  0.19586156  0.17151936  0.08380690  1
  O  O48  1  0.67866002  0.15522636  0.74660064  1
  O  O49  1  0.47656734  0.32133998  0.74660064  1
  O  O50  1  0.84477364  0.52343266  0.74660064  1
  O  O51  1  0.68400055  0.52315556  0.24599126  1
  O  O52  1  0.83915600  0.31599945  0.24599126  1
  O  O53  1  0.47684444  0.16084400  0.24599126  1
  O  O54  1  0.64210552  0.50098913  0.92027008  1
  O  O55  1  0.85888461  0.35789448  0.92027008  1
  O  O56  1  0.49901087  0.14111539  0.92027008  1
  O  O57  1  0.64841157  0.14507484  0.42498047  1
  O  O58  1  0.49666426  0.35158843  0.42498047  1
  O  O59  1  0.85492516  0.50333574  0.42498047  1
  O  O60  1  0.35267339  0.49451860  0.07759793  1
  O  O61  1  0.14184422  0.64732661  0.07759793  1
  O  O62  1  0.50548140  0.85815578  0.07759793  1
  O  O63  1  0.35121883  0.85804922  0.57966106  1
  O  O64  1  0.50682939  0.64878117  0.57966106  1
  O  O65  1  0.14195078  0.49317061  0.57966106  1
  O  O66  1  0.31547294  0.83824635  0.25426594  1
  O  O67  1  0.52277241  0.68452706  0.25426594  1
  O  O68  1  0.16175365  0.47722759  0.25426594  1
  O  O69  1  0.31451393  0.47846480  0.75788023  1
  O  O70  1  0.16394987  0.68548607  0.75788023  1
  O  O71  1  0.52153520  0.83605013  0.75788023  1
loop_
_geom_bond_atom_site_label_1
_geom_bond_atom_site_label_2
_geom_bond_distance
_geom_bond_site_symmetry_2
Na0 O66 2.499630 1_555
Na0 O53 2.506075 1_565
Na0 O67 2.521325 1_555
Na0 O52 2.545157 1_565
Na0 O31 2.652465 1_555
Na0 O16 2.709764 1_565
Na0 O2 2.955378 1_565
Na0 O9 2.976154 1_555
Na1 O67 2.499630 1_555
Na1 O51 2.506083 1_555
Na1 O68 2.521334 1_555
Na1 O53 2.545164 1_555
Na1 O32 2.652467 1_555
Na1 O17 2.709767 1_555
Na1 O0 2.955378 1_555
Na1 O10 2.976154 1_555
Na2 O68 2.499622 1_555
Na2 O52 2.506083 1_455
Na2 O66 2.521327 1_555
Na2 O51 2.545155 1_455
Na2 O30 2.652463 1_555
Na2 O15 2.709765 1_455
Na2 O1 2.955378 1_455
Na2 O11 2.976154 1_555
Na3 O14 2.380849 1_555
Na3 O49 2.447660 1_555
Na3 O50 2.459709 1_555
Na3 O69 2.637661 1_555
Na3 O71 2.648263 1_555
Na3 O6 2.833155 1_555
Na3 O35 2.911462 1_555
Na3 O4 2.982817 1_555
Na4 O12 2.380846 1_555
Na4 O50 2.447653 1_555
Na4 O48 2.459702 1_555
Na4 O70 2.637660 1_655
Na4 O69 2.648255 1_655
Na4 O7 2.833155 1_655
Na4 O33 2.911460 1_655
Na4 O5 2.982817 1_555
Na5 O13 2.380848 1_555
Na5 O48 2.447661 1_555
Na5 O49 2.459700 1_555
Na5 O71 2.637653 1_545
Na5 O70 2.648256 1_545
Na5 O8 2.833155 1_545
Na5 O34 2.911458 1_545
Na5 O3 2.982817 1_555
Na6 O65 2.455845 1_555
Na6 O43 2.496082 1_555
Na6 O28 2.526453 1_555
Na6 O64 2.527713 1_555
Na6 O42 2.533031 1_455
Na6 O7 2.723386 1_555
Na7 O63 2.455829 1_555
Na7 O44 2.496090 1_455
Na7 O29 2.526446 1_555
Na7 O65 2.527700 1_555
Na7 O43 2.533031 1_565
Na7 O8 2.723388 1_555
Na8 O64 2.455830 1_555
Na8 O42 2.496084 1_565
Na8 O27 2.526450 1_555
Na8 O63 2.527717 1_555
Na8 O44 2.533023 1_555
Na8 O6 2.723384 1_555
Na9 O11 2.430557 1_555
Na9 O47 2.484602 1_565
Na9 O61 2.505307 1_555
Na9 O45 2.517145 1_455
Na9 O62 2.559764 1_555
Na9 O26 2.811568 1_554
Na9 O16 2.916110 1_565
Na10 O9 2.430555 1_555
Na10 O45 2.484593 1_555
Na10 O62 2.505323 1_555
Na10 O46 2.517145 1_565
Na10 O60 2.559778 1_555
Na10 O24 2.811575 1_554
Na10 O17 2.916110 1_555
Na11 O10 2.430553 1_555
Na11 O46 2.484595 1_455
Na11 O60 2.505308 1_555
Na11 O47 2.517137 1_555
Na11 O61 2.559781 1_555
Na11 O25 2.811572 1_554
Na11 O15 2.916110 1_455
Na12 O41 2.409693 1_555
Na12 O40 2.458918 1_655
Na12 O4 2.519757 1_555
Na12 O55 2.595134 1_555
Na12 O54 2.623977 1_555
Na12 O19 2.739575 1_556
Na12 O26 2.932812 1_655
Na12 O33 2.991192 1_655
Na13 O39 2.409701 1_655
Na13 O41 2.458925 1_545
Na13 O5 2.519761 1_555
Na13 O56 2.595117 1_555
Na13 O55 2.623975 1_555
Na13 O20 2.739569 1_556
Na13 O24 2.932811 1_545
Na13 O34 2.991192 1_545
Na14 O40 2.409701 1_545
Na14 O39 2.458917 1_555
Na14 O3 2.519759 1_555
Na14 O54 2.595131 1_555
Na14 O56 2.623992 1_555
Na14 O18 2.739578 1_556
Na14 O25 2.932812 1_555
Na14 O35 2.991192 1_555
Na15 O37 2.440871 1_545
Na15 O2 2.441085 1_555
Na15 O38 2.452628 1_655
Na15 O57 2.637222 1_555
Na15 O59 2.664374 1_555
Na15 O30 2.833625 1_655
Na15 O28 2.985910 1_655
Na15 O23 2.993434 1_555
Na16 O38 2.440863 1_555
Na16 O0 2.441081 1_555
Na16 O36 2.452621 1_545
Na16 O58 2.637223 1_555
Na16 O57 2.664391 1_555
Na16 O31 2.833625 1_545
Na16 O29 2.985910 1_545
Na16 O21 2.993439 1_555
Na17 O36 2.440871 1_655
Na17 O1 2.441083 1_555
Na17 O37 2.452619 1_555
Na17 O59 2.637238 1_555
Na17 O58 2.664388 1_555
Na17 O32 2.833625 1_555
Na17 O27 2.985910 1_555
Na17 O22 2.993442 1_555
Na18 O38 2.496405 1_555
Na18 O36 2.496405 1_545
Na18 O37 2.496405 1_445
Na18 O44 2.597665 1_445
Na18 O42 2.597665 1_455
Na18 O43 2.597665 1_555
Na19 O45 2.409179 1_445
Na19 O47 2.409179 1_555
Na19 O46 2.409179 1_455
Na19 O39 2.690791 1_554
Na19 O41 2.690791 1_444
Na19 O40 2.690791 1_544
Na20 O50 2.426375 1_555
Na20 O48 2.426375 1_555
Na20 O49 2.426375 1_555
Na20 O56 2.666394 1_555
Na20 O54 2.666394 1_555
Na20 O55 2.666394 1_555
Na21 O53 2.389543 1_555
Na21 O52 2.389543 1_555
Na21 O51 2.389543 1_555
Na21 O57 2.774992 1_555
Na21 O59 2.774992 1_555
Na21 O58 2.774993 1_555
Na22 O68 2.449042 1_555
Na22 O66 2.449042 1_555
Na22 O67 2.449042 1_555
Na22 O62 2.680381 1_555
Na22 O61 2.680381 1_555
Na22 O60 2.680381 1_555
Na23 O63 2.367675 1_555
Na23 O65 2.367675 1_555
Na23 O64 2.367675 1_555
Na23 O69 2.793892 1_555
Na23 O71 2.793892 1_555
Na23 O70 2.793892 1_555
Hf0 O19 2.000968 1_556
Hf0 O20 2.000968 1_556
Hf0 O18 2.000968 1_556
Hf0 O56 2.163075 1_555
Hf0 O54 2.163075 1_555
Hf0 O55 2.163075 1_555
Hf1 O22 2.046482 1_555
Hf1 O21 2.046482 1_555
Hf1 O23 2.046482 1_555
Hf1 O57 2.078053 1_555
Hf1 O59 2.078053 1_555
Hf1 O58 2.078053 1_555
Hf2 O34 2.059585 1_555
Hf2 O33 2.059586 1_555
Hf2 O35 2.059586 1_555
Hf2 O69 2.077408 1_555
Hf2 O71 2.077408 1_555
Hf2 O70 2.077408 1_555
O0 P0 1.552720 1_545
O0 Zn0 2.005016 1_555
O1 P1 1.552720 1_555
O1 Zn0 2.005016 1_665
O2 P2 1.552720 1_655
O2 Zn0 2.005016 1_655
O3 P3 1.546573 1_555
O3 Zn1 2.018984 1_555
O4 P4 1.546573 1_655
O4 Zn1 2.018984 1_665
O5 P5 1.546573 1_555
O5 Zn1 2.018984 1_655
O6 P5 1.534404 1_565
O6 Zn2 2.101223 1_665
O7 P3 1.534404 1_555
O7 Zn2 2.101223 1_555
O8 P4 1.534404 1_555
O8 Zn2 2.101223 1_565
O9 P1 1.558834 1_555
O9 Zn3 1.998672 1_665
O10 P2 1.558834 1_555
O10 Zn3 1.998672 1_555
O11 P0 1.558834 1_555
O11 Zn3 1.998672 1_565
O12 P6 1.549196 1_555
O12 Zn4 2.009196 1_555
O13 P7 1.549196 1_555
O13 Zn4 2.009196 1_555
O14 P8 1.549196 1_555
O14 Zn4 2.009196 1_555
O15 P9 1.522714 1_555
O15 Zn5 2.065965 1_555
O16 P10 1.522714 1_555
O16 Zn5 2.065965 1_555
O17 P11 1.522714 1_555
O17 Zn5 2.065965 1_555
O18 P11 1.612831 1_555
O19 P9 1.612831 1_555
O20 P10 1.612831 1_555
O21 P7 1.573015 1_555
O22 P8 1.573015 1_555
O23 P6 1.573015 1_555
O24 P12 1.514780 1_555
O24 Zn6 2.076086 1_556
O25 P13 1.514780 1_555
O25 Zn6 2.076086 1_556
O26 P14 1.514780 1_555
O26 Zn6 2.076086 1_556
O27 P15 1.548393 1_555
O27 Zn7 2.010936 1_555
O28 P16 1.548393 1_555
O28 Zn7 2.010936 1_555
O29 P17 1.548393 1_555
O29 Zn7 2.010936 1_555
O30 P17 1.533126 1_555
O30 Zn8 2.103390 1_555
O31 P15 1.533126 1_555
O31 Zn8 2.103390 1_555
O32 P16 1.533126 1_555
O32 Zn8 2.103390 1_555
O33 P13 1.579328 1_555
O34 P14 1.579328 1_555
O35 P12 1.579328 1_555
O36 P17 1.547714 1_555
O36 Zn0 2.317553 1_565
O37 P15 1.547723 1_555
O37 Zn0 2.317553 1_665
O38 P16 1.547720 1_555
O38 Zn0 2.317553 1_555
O39 P13 1.543344 1_555
O39 Zn1 2.257267 1_555
O40 P14 1.543335 1_555
O40 Zn1 2.257267 1_565
O41 P12 1.543340 1_555
O41 Zn1 2.257267 1_665
O42 P6 1.548766 1_555
O42 Zn2 2.201646 1_655
O43 P7 1.548775 1_555
O43 Zn2 2.201646 1_555
O44 P8 1.548771 1_555
O44 Zn2 2.201646 1_665
O45 P9 1.546048 1_555
O45 Zn3 2.394748 1_665
O46 P10 1.546039 1_555
O46 Zn3 2.394748 1_655
O47 P11 1.546044 1_555
O47 Zn3 2.394748 1_555
O48 P5 1.549733 1_555
O48 Zn4 2.289244 1_555
O49 P3 1.549742 1_555
O49 Zn4 2.289244 1_555
O50 P4 1.549738 1_655
O50 Zn4 2.289244 1_555
O51 P1 1.556638 1_555
O51 Zn5 2.173102 1_555
O52 P2 1.556629 1_655
O52 Zn5 2.173102 1_555
O53 P0 1.556634 1_545
O53 Zn5 2.173102 1_555
O54 P12 1.583148 1_555
O55 P13 1.583130 1_655
O56 P14 1.583138 1_545
O57 P15 1.595245 1_545
O58 P16 1.595264 1_555
O59 P17 1.595253 1_655
O60 P11 1.545001 1_555
O60 Zn6 2.128842 1_555
O61 P9 1.544983 1_455
O61 Zn6 2.128842 1_555
O62 P10 1.544991 1_565
O62 Zn6 2.128842 1_555
O63 P7 1.546630 1_565
O63 Zn7 2.286707 1_555
O64 P8 1.546648 1_555
O64 Zn7 2.286707 1_555
O65 P6 1.546637 1_455
O65 Zn7 2.286707 1_555
O66 P0 1.557047 1_555
O66 Zn8 2.177245 1_555
O67 P1 1.557056 1_555
O67 Zn8 2.177245 1_555
O68 P2 1.557052 1_555
O68 Zn8 2.177245 1_555
O69 P3 1.594678 1_555
O70 P4 1.594669 1_555
O71 P5 1.594675 1_565
