# generated using pymatgen
data_Na4Mg(FeO3)2
_symmetry_space_group_name_H-M   'P 1'
_cell_length_a   5.71153753
_cell_length_b   6.68168462
_cell_length_c   5.51817095
_cell_angle_alpha   93.64610533
_cell_angle_beta   106.14646762
_cell_angle_gamma   53.99040749
_symmetry_Int_Tables_number   1
_chemical_formula_structural   Na4Mg(FeO3)2
_chemical_formula_sum   'Na4 Mg1 Fe2 O6'
_cell_volume   162.27102622
_cell_formula_units_Z   1
loop_
 _symmetry_equiv_pos_site_id
 _symmetry_equiv_pos_as_xyz
  1  'x, y, z'
loop_
 _atom_site_type_symbol
 _atom_site_label
 _atom_site_symmetry_multiplicity
 _atom_site_fract_x
 _atom_site_fract_y
 _atom_site_fract_z
 _atom_site_occupancy
  Na  Na0  1  0.67481806  0.60591327  0.29823696  1
  Na  Na1  1  0.22491093  0.17076621  0.58504867  1
  Na  Na2  1  0.74007425  0.81593781  0.92853433  1
  Na  Na3  1  0.35073467  0.38341938  0.05576342  1
  Mg  Mg0  1  0.38779190  0.53673487  0.62800031  1
  Fe  Fe0  1  0.83690509  0.96206183  0.47365932  1
  Fe  Fe1  1  0.09516306  0.00839881  0.06728424  1
  O  O0  1  0.32711043  0.81651147  0.82358945  1
  O  O1  1  0.17244849  0.72714355  0.27073058  1
  O  O2  1  0.99336497  0.61910084  0.63567263  1
  O  O3  1  0.69611035  0.17113961  0.75760459  1
  O  O4  1  0.43733081  0.04210440  0.24328232  1
  O  O5  1  0.83583399  0.21192097  0.29069320  1
loop_
_geom_bond_atom_site_label_1
_geom_bond_atom_site_label_2
_geom_bond_distance
_geom_bond_site_symmetry_2
Na0 O5 2.222240 1_555
Na0 O2 2.251335 1_555
Na0 O4 2.379350 1_565
Na0 O1 2.439793 1_555
Na0 O0 2.659697 1_554
Na1 O5 2.232254 1_455
Na1 O4 2.368062 1_555
Na1 O0 2.453667 1_545
Na1 O2 2.498309 1_455
Na1 O3 2.594596 1_555
Na2 O0 2.264640 1_555
Na2 O2 2.286272 1_555
Na2 O1 2.417084 1_656
Na2 O3 2.457180 1_565
Na2 O4 2.560110 1_566
Na3 O5 2.264573 1_555
Na3 O4 2.281556 1_555
Na3 O1 2.300893 1_555
Na3 O2 2.464335 1_454
Na3 O3 2.613128 1_554
Mg0 O0 1.992282 1_555
Mg0 O2 1.992982 1_455
Mg0 O3 2.010812 1_555
Mg0 O1 2.036790 1_555
Fe0 O5 2.001377 1_565
Fe0 O4 2.036701 1_565
Fe0 O3 2.038322 1_565
Fe0 O2 2.063348 1_555
Fe0 O1 2.196247 1_655
Fe0 O0 2.558061 1_655
Fe1 O0 1.995392 1_544
Fe1 O5 1.999230 1_455
Fe1 O1 2.001028 1_545
Fe1 O4 2.060896 1_555
Fe1 O3 2.110284 1_454
