# generated using pymatgen
data_Na6Hf3MgGe2(PO6)4
_symmetry_space_group_name_H-M   'P 1'
_cell_length_a   9.16606846
_cell_length_b   9.16683616
_cell_length_c   22.70390875
_cell_angle_alpha   89.58222825
_cell_angle_beta   90.12561713
_cell_angle_gamma   119.84176357
_symmetry_Int_Tables_number   1
_chemical_formula_structural   Na6Hf3MgGe2(PO6)4
_chemical_formula_sum   'Na18 Hf9 Mg3 Ge6 P12 O72'
_cell_volume   1654.67217767
_cell_formula_units_Z   3
loop_
 _symmetry_equiv_pos_site_id
 _symmetry_equiv_pos_as_xyz
  1  'x, y, z'
loop_
 _atom_site_type_symbol
 _atom_site_label
 _atom_site_symmetry_multiplicity
 _atom_site_fract_x
 _atom_site_fract_y
 _atom_site_fract_z
 _atom_site_occupancy
  Na  Na0  1  0.00261169  0.99394516  0.49798775  1
  Na  Na1  1  0.99988474  0.99692303  0.99813235  1
  Na  Na2  1  0.64633967  0.29757168  0.82994112  1
  Na  Na3  1  0.64852786  0.33156195  0.32248497  1
  Na  Na4  1  0.32907361  0.66589332  0.16347988  1
  Na  Na5  1  0.32152311  0.66340479  0.66462908  1
  Na  Na6  1  0.64375323  0.01266778  0.24241096  1
  Na  Na7  1  0.98543550  0.62173458  0.23874849  1
  Na  Na8  1  0.63237068  0.61725920  0.74075912  1
  Na  Na9  1  0.98962040  0.36696740  0.74425586  1
  Na  Na10  1  0.66558164  0.97401452  0.58816782  1
  Na  Na11  1  0.66543668  0.68473647  0.07924417  1
  Na  Na12  1  0.02352326  0.33900059  0.08690533  1
  Na  Na13  1  0.96845408  0.66667133  0.91944169  1
  Na  Na14  1  0.33565088  0.30502791  0.91754773  1
  Na  Na15  1  0.96531423  0.28548286  0.40726621  1
  Na  Na16  1  0.32787345  0.03114962  0.40853700  1
  Na  Na17  1  0.71549079  0.68402066  0.41427980  1
  Hf  Hf0  1  0.99809590  0.00077666  0.85207236  1
  Hf  Hf1  1  0.00916417  0.99977333  0.64510101  1
  Hf  Hf2  1  0.00818035  0.00565189  0.15024855  1
  Hf  Hf3  1  0.66427946  0.32955920  0.98203329  1
  Hf  Hf4  1  0.66797221  0.33567663  0.48362933  1
  Hf  Hf5  1  0.33500330  0.67283244  0.02077398  1
  Hf  Hf6  1  0.33098167  0.66207697  0.52222874  1
  Hf  Hf7  1  0.33327441  0.66293822  0.31157777  1
  Hf  Hf8  1  0.33571550  0.67363535  0.81040401  1
  Mg  Mg0  1  0.00207114  0.99972427  0.34918581  1
  Mg  Mg1  1  0.65671769  0.32317686  0.68401811  1
  Mg  Mg2  1  0.65609818  0.32854583  0.18369456  1
  Ge  Ge0  1  0.66802589  0.62863414  0.58774206  1
  Ge  Ge1  1  0.96292338  0.62978802  0.08822567  1
  Ge  Ge2  1  0.62667073  0.66922793  0.91690144  1
  Ge  Ge3  1  0.03985760  0.37389441  0.91630666  1
  Ge  Ge4  1  0.33776853  0.96187556  0.91449371  1
  Ge  Ge5  1  0.63206856  0.96422330  0.41582030  1
  P  P0  1  0.29508597  0.00044105  0.25506493  1
  P  P1  1  0.70636565  0.70577936  0.25262565  1
  P  P2  1  0.99819256  0.29476683  0.25320009  1
  P  P3  1  0.29435380  0.29286135  0.75049899  1
  P  P4  1  0.00090747  0.70498646  0.75012606  1
  P  P5  1  0.70746007  0.99887497  0.74574429  1
  P  P6  1  0.95957222  0.33450677  0.58726957  1
  P  P7  1  0.37623266  0.04233539  0.58253367  1
  P  P8  1  0.66659268  0.03926120  0.08993875  1
  P  P9  1  0.37387012  0.33352443  0.08467737  1
  P  P10  1  0.33586622  0.37639763  0.41736316  1
  P  P11  1  0.04199541  0.66316635  0.41573173  1
  O  O0  1  0.21569539  0.01243401  0.31257945  1
  O  O1  1  0.80665900  0.78950628  0.30875414  1
  O  O2  1  0.98968528  0.19402039  0.30850972  1
  O  O3  1  0.20326739  0.19775799  0.80805098  1
  O  O4  1  0.99484883  0.79904754  0.80616480  1
  O  O5  1  0.81928807  0.01054256  0.79951524  1
  O  O6  1  0.79756984  0.98327100  0.68968119  1
  O  O7  1  0.17747899  0.19344918  0.69826534  1
  O  O8  1  0.00942769  0.81590523  0.69622646  1
  O  O9  1  0.80027411  0.82320488  0.19795265  1
  O  O10  1  0.01296664  0.20518127  0.19678007  1
  O  O11  1  0.17588564  0.98324104  0.20233840  1
  O  O12  1  0.87988010  0.35187191  0.64342147  1
  O  O13  1  0.49586362  0.12343684  0.63354437  1
  O  O14  1  0.64549221  0.51800859  0.65069305  1
  O  O15  1  0.87577257  0.50457091  0.14940877  1
  O  O16  1  0.64533671  0.11237068  0.14695712  1
  O  O17  1  0.48785414  0.35400648  0.13563362  1
  O  O18  1  0.44564237  0.31046488  0.02544878  1
  O  O19  1  0.83674589  0.53889774  0.02498188  1
  O  O20  1  0.68455311  0.15423800  0.03630150  1
  O  O21  1  0.45835752  0.14439855  0.52397727  1
  O  O22  1  0.68513409  0.53511447  0.52173221  1
  O  O23  1  0.84226775  0.30829584  0.53204704  1
  O  O24  1  0.54302126  0.69681422  0.98177916  1
  O  O25  1  0.16687751  0.46397633  0.97865114  1
  O  O26  1  0.29286525  0.82980878  0.97530301  1
  O  O27  1  0.52660419  0.83838420  0.47692078  1
  O  O28  1  0.31317965  0.46497832  0.47142778  1
  O  O29  1  0.15364057  0.67873876  0.46862767  1
  O  O30  1  0.12345966  0.63546460  0.35935371  1
  O  O31  1  0.49870859  0.86589939  0.35462415  1
  O  O32  1  0.35587190  0.48908438  0.36235108  1
  O  O33  1  0.13102262  0.50086443  0.85356828  1
  O  O34  1  0.36733529  0.87160381  0.85212442  1
  O  O35  1  0.50030645  0.63343163  0.85456168  1
  O  O36  1  0.02455239  0.82124934  0.41203633  1
  O  O37  1  0.83131728  0.98493552  0.41432889  1
  O  O38  1  0.18422997  0.19855254  0.41253653  1
  O  O39  1  0.02707205  0.17896297  0.91151539  1
  O  O40  1  0.15795846  0.98167305  0.91047155  1
  O  O41  1  0.83146024  0.83588758  0.91120821  1
  O  O42  1  0.97796239  0.17384342  0.58869419  1
  O  O43  1  0.20201202  0.03046152  0.58904411  1
  O  O44  1  0.84440057  0.83799532  0.58536206  1
  O  O45  1  0.97462067  0.82950009  0.09058048  1
  O  O46  1  0.83545987  0.03137199  0.09120313  1
  O  O47  1  0.18885575  0.18219254  0.09187320  1
  O  O48  1  0.69242384  0.15781997  0.74491241  1
  O  O49  1  0.47059294  0.31466337  0.74832397  1
  O  O50  1  0.84386225  0.52884109  0.74979563  1
  O  O51  1  0.68548368  0.53061139  0.24583138  1
  O  O52  1  0.83919112  0.31262842  0.25066014  1
  O  O53  1  0.47514860  0.14626130  0.24717489  1
  O  O54  1  0.64085417  0.48623683  0.92166686  1
  O  O55  1  0.84539292  0.36040036  0.92309701  1
  O  O56  1  0.50454902  0.16321773  0.92111539  1
  O  O57  1  0.64590166  0.16419286  0.41838954  1
  O  O58  1  0.50176870  0.36759818  0.42095090  1
  O  O59  1  0.86429623  0.50240742  0.42202453  1
  O  O60  1  0.35630418  0.49510365  0.08150481  1
  O  O61  1  0.16168227  0.64491419  0.08350133  1
  O  O62  1  0.52081576  0.85553677  0.08198190  1
  O  O63  1  0.34658609  0.86061309  0.57477872  1
  O  O64  1  0.49373223  0.66512631  0.58251990  1
  O  O65  1  0.13446148  0.49066142  0.57701843  1
  O  O66  1  0.29911804  0.82818267  0.25333362  1
  O  O67  1  0.52945154  0.69815216  0.25389539  1
  O  O68  1  0.15743558  0.47713630  0.25353018  1
  O  O69  1  0.30406226  0.46981729  0.74952576  1
  O  O70  1  0.16066746  0.68535856  0.74839078  1
  O  O71  1  0.53571246  0.83139398  0.74884116  1
loop_
_geom_bond_atom_site_label_1
_geom_bond_atom_site_label_2
_geom_bond_distance
_geom_bond_site_symmetry_2
Na0 O37 2.437178 1_455
Na0 O44 2.447437 1_455
Na0 O36 2.591964 1_555
Na0 O38 2.628074 1_565
Na0 O43 2.666668 1_565
Na0 O42 2.726543 1_465
Na1 O41 2.493652 1_555
Na1 O39 2.500898 1_665
Na1 O40 2.509630 1_655
Na1 O45 2.532988 1_556
Na1 O46 2.708058 1_566
Na1 O47 2.742824 1_666
Na2 O56 2.423330 1_555
Na2 O48 2.474785 1_555
Na2 O49 2.507417 1_555
Na2 O55 2.662503 1_555
Na2 O50 2.687312 1_555
Na2 O54 2.733137 1_555
Na3 O53 2.382923 1_555
Na3 O51 2.411230 1_555
Na3 O52 2.462119 1_555
Na3 O57 2.647707 1_555
Na3 O58 2.717100 1_555
Na3 O59 2.901892 1_555
Na4 O61 2.321113 1_555
Na4 O60 2.531942 1_555
Na4 O62 2.541922 1_555
Na4 O68 2.627235 1_555
Na4 O66 2.627460 1_555
Na4 O67 2.669560 1_555
Na5 O64 2.440240 1_555
Na5 O70 2.478730 1_555
Na5 O69 2.561013 1_555
Na5 O65 2.594768 1_555
Na5 O71 2.626595 1_555
Na5 O63 2.649002 1_555
Na6 O16 2.343125 1_555
Na6 O53 2.405412 1_555
Na6 O52 2.430804 1_555
Na6 O67 2.542059 1_545
Na6 O66 2.753377 1_545
Na6 O31 2.872811 1_545
Na6 O9 2.933470 1_545
Na7 O15 2.286168 1_555
Na7 O51 2.448893 1_555
Na7 O52 2.471681 1_555
Na7 O68 2.534975 1_655
Na7 O66 2.558866 1_655
Na8 O14 2.271730 1_555
Na8 O49 2.413137 1_555
Na8 O50 2.452859 1_555
Na8 O71 2.531503 1_555
Na8 O69 2.621665 1_555
Na8 O35 2.891547 1_555
Na9 O48 2.428750 1_555
Na9 O50 2.445225 1_555
Na9 O12 2.475481 1_555
Na9 O70 2.536668 1_655
Na9 O69 2.550694 1_655
Na9 O33 2.791582 1_655
Na10 O64 2.465924 1_555
Na10 O44 2.506152 1_555
Na10 O42 2.516827 1_565
Na10 O6 2.582863 1_555
Na10 O63 2.588082 1_555
Na10 O13 2.739668 1_565
Na10 O27 2.829026 1_555
Na10 O23 2.940994 1_565
Na11 O45 2.473419 1_555
Na11 O60 2.480045 1_555
Na11 O24 2.505417 1_554
Na11 O62 2.505962 1_555
Na11 O46 2.771587 1_565
Na11 O19 2.809320 1_555
Na11 O17 2.919137 1_555
Na11 O9 2.979347 1_555
Na12 O61 2.436509 1_555
Na12 O46 2.468241 1_455
Na12 O47 2.557408 1_555
Na12 O60 2.649923 1_555
Na12 O25 2.748591 1_554
Na12 O10 2.752348 1_555
Na12 O15 2.870007 1_455
Na12 O20 2.935600 1_455
Na13 O41 2.439485 1_555
Na13 O55 2.450879 1_555
Na13 O40 2.529424 1_655
Na13 O54 2.609921 1_555
Na13 O19 2.671235 1_556
Na13 O4 2.794707 1_555
Na13 O26 2.876214 1_655
Na14 O54 2.443462 1_555
Na14 O56 2.468587 1_555
Na14 O39 2.470225 1_555
Na14 O40 2.581827 1_545
Na14 O18 2.638423 1_556
Na14 O3 2.730294 1_555
Na14 O25 2.953453 1_555
Na14 O35 2.968235 1_555
Na15 O37 2.398213 1_545
Na15 O2 2.448700 1_555
Na15 O38 2.502932 1_655
Na15 O57 2.575123 1_555
Na15 O59 2.601406 1_555
Na16 O0 2.377627 1_555
Na16 O38 2.471844 1_555
Na16 O36 2.472488 1_545
Na16 O57 2.549120 1_555
Na16 O58 2.692664 1_555
Na16 O21 2.857936 1_555
Na16 O31 2.939569 1_545
Na17 O37 2.412805 1_555
Na17 O36 2.462393 1_655
Na17 O1 2.558170 1_555
Na17 O58 2.571748 1_555
Na17 O59 2.630111 1_555
Na17 O22 2.732886 1_555
Hf0 O41 2.025337 1_545
Hf0 O39 2.039306 1_655
Hf0 O40 2.044324 1_645
Hf0 O5 2.062513 1_555
Hf0 O3 2.097267 1_655
Hf0 O4 2.116610 1_545
Hf1 O44 2.027573 1_455
Hf1 O8 2.040520 1_555
Hf1 O7 2.070338 1_565
Hf1 O43 2.081658 1_565
Hf1 O6 2.126810 1_455
Hf1 O42 2.165828 1_465
Hf2 O45 2.018168 1_445
Hf2 O11 2.026474 1_545
Hf2 O10 2.100371 1_555
Hf2 O9 2.100597 1_445
Hf2 O47 2.104572 1_555
Hf2 O46 2.171792 1_455
Hf3 O19 2.033173 1_556
Hf3 O55 2.040455 1_555
Hf3 O56 2.044906 1_555
Hf3 O54 2.064998 1_555
Hf3 O20 2.098297 1_556
Hf3 O18 2.162286 1_556
Hf4 O22 1.962584 1_555
Hf4 O23 2.052093 1_555
Hf4 O21 2.058322 1_555
Hf4 O57 2.102878 1_555
Hf4 O59 2.184763 1_555
Hf4 O58 2.204451 1_555
Hf5 O26 1.953289 1_554
Hf5 O25 2.009701 1_554
Hf5 O24 2.013724 1_554
Hf5 O61 2.053673 1_555
Hf5 O62 2.195832 1_555
Hf5 O60 2.208222 1_555
Hf6 O27 1.996278 1_555
Hf6 O64 2.012471 1_555
Hf6 O28 2.087460 1_555
Hf6 O29 2.093400 1_555
Hf6 O65 2.103718 1_555
Hf6 O63 2.127906 1_555
Hf7 O31 1.982007 1_555
Hf7 O32 2.052382 1_555
Hf7 O30 2.112285 1_555
Hf7 O67 2.116414 1_555
Hf7 O68 2.127667 1_555
Hf7 O66 2.140596 1_555
Hf8 O34 1.942919 1_555
Hf8 O35 1.989543 1_555
Hf8 O33 2.004267 1_555
Hf8 O70 2.174343 1_555
Hf8 O71 2.179202 1_555
Hf8 O69 2.231993 1_555
Mg0 O2 2.052996 1_465
Mg0 O0 2.077770 1_565
Mg0 O1 2.085149 1_455
Mg0 O37 2.109871 1_455
Mg0 O36 2.248444 1_555
Mg0 O38 2.275433 1_565
Mg1 O14 1.983846 1_555
Mg1 O13 2.043544 1_555
Mg1 O12 2.138255 1_555
Mg1 O48 2.185716 1_555
Mg1 O49 2.219229 1_555
Mg1 O50 2.353387 1_555
Mg2 O17 1.992592 1_555
Mg2 O15 2.004761 1_555
Mg2 O16 2.112236 1_555
Mg2 O53 2.199422 1_555
Mg2 O51 2.243590 1_555
Mg2 O52 2.319186 1_555
Ge0 O14 1.698660 1_555
Ge0 O22 1.777392 1_555
Ge0 O64 1.791284 1_555
Ge0 O44 1.791878 1_555
Ge1 O15 1.718818 1_555
Ge1 O61 1.760414 1_655
Ge1 O19 1.773334 1_555
Ge1 O45 1.781003 1_555
Ge2 O41 1.737363 1_555
Ge2 O24 1.739208 1_555
Ge2 O54 1.748362 1_555
Ge2 O35 1.753230 1_555
Ge3 O55 1.731411 1_455
Ge3 O39 1.735789 1_555
Ge3 O25 1.758966 1_555
Ge3 O33 1.759261 1_555
Ge4 O56 1.720791 1_565
Ge4 O34 1.733582 1_555
Ge4 O26 1.738776 1_555
Ge4 O40 1.747699 1_555
Ge5 O37 1.740043 1_555
Ge5 O27 1.749943 1_555
Ge5 O57 1.774797 1_565
Ge5 O31 1.775202 1_555
O0 P0 1.527297 1_555
O1 P1 1.537870 1_555
O2 P2 1.532228 1_555
O3 P3 1.558278 1_555
O4 P4 1.558606 1_655
O5 P5 1.561986 1_545
O6 P5 1.564497 1_555
O7 P3 1.556628 1_555
O8 P4 1.562272 1_555
O9 P1 1.582244 1_555
O10 P2 1.568553 1_455
O11 P0 1.573927 1_565
O12 P6 1.518870 1_555
O13 P7 1.513963 1_555
O16 P8 1.518764 1_555
O17 P9 1.505956 1_555
O18 P9 1.559541 1_555
O20 P8 1.558980 1_555
O21 P7 1.579491 1_555
O23 P6 1.589697 1_555
O28 P10 1.546931 1_555
O29 P11 1.536754 1_555
O30 P11 1.567833 1_555
O32 P10 1.566629 1_555
O36 P11 1.536653 1_555
O38 P10 1.532484 1_555
O42 P6 1.563610 1_555
O43 P7 1.552952 1_555
O46 P8 1.585265 1_555
O47 P9 1.575962 1_555
O48 P5 1.530263 1_545
O49 P3 1.526717 1_555
O50 P4 1.538293 1_655
O51 P1 1.528537 1_555
O52 P2 1.546345 1_555
O53 P0 1.531370 1_555
O58 P10 1.564297 1_555
O59 P11 1.566592 1_655
O60 P9 1.568666 1_555
O62 P8 1.555076 1_565
O63 P7 1.559922 1_565
O65 P6 1.544685 1_455
O66 P0 1.598545 1_565
O67 P1 1.588291 1_555
O68 P2 1.580193 1_455
O69 P3 1.579724 1_555
O70 P4 1.562332 1_555
O71 P5 1.560079 1_555
