# generated using pymatgen
data_MgMn5Cr(PO4)6
_symmetry_space_group_name_H-M   'P 1'
_cell_length_a   9.27051900
_cell_length_b   8.72100115
_cell_length_c   8.77430530
_cell_angle_alpha   59.43501619
_cell_angle_beta   57.54903788
_cell_angle_gamma   58.28860344
_symmetry_Int_Tables_number   1
_chemical_formula_structural   MgMn5Cr(PO4)6
_chemical_formula_sum   'Mg1 Mn5 Cr1 P6 O24'
_cell_volume   483.24237877
_cell_formula_units_Z   1
loop_
 _symmetry_equiv_pos_site_id
 _symmetry_equiv_pos_as_xyz
  1  'x, y, z'
loop_
 _atom_site_type_symbol
 _atom_site_label
 _atom_site_symmetry_multiplicity
 _atom_site_fract_x
 _atom_site_fract_y
 _atom_site_fract_z
 _atom_site_occupancy
  Mg  Mg0  1  0.64013800  0.14026200  0.11041600  1
  Mn  Mn0  1  0.03218400  0.98370600  0.99477400  1
  Mn  Mn1  1  0.06266500  0.64866200  0.63664600  1
  Mn  Mn2  1  0.48871300  0.49515800  0.50766500  1
  Mn  Mn3  1  0.46709500  0.85012900  0.84098200  1
  Mn  Mn4  1  0.89445800  0.37240700  0.35154500  1
  Cr  Cr0  1  0.26783100  0.23126800  0.26438000  1
  P  P0  1  0.26521000  0.23787700  0.55731400  1
  P  P1  1  0.26905900  0.93779200  0.24926500  1
  P  P2  1  0.26245800  0.53730300  0.95591500  1
  P  P3  1  0.76313400  0.46557600  0.02518800  1
  P  P4  1  0.76198000  0.04391300  0.73990700  1
  P  P5  1  0.77506400  0.74475700  0.44188000  1
  O  O0  1  0.10227200  0.12410100  0.29059900  1
  O  O1  1  0.09546800  0.48216500  0.14231500  1
  O  O2  1  0.10475700  0.26444000  0.52099100  1
  O  O3  1  0.26985100  0.07171900  0.74405600  1
  O  O4  1  0.43106000  0.20156000  0.37002900  1
  O  O5  1  0.25841400  0.40958400  0.57360600  1
  O  O6  1  0.27166100  0.92044900  0.08250200  1
  O  O7  1  0.26488000  0.75132500  0.41733500  1
  O  O8  1  0.59862600  0.59718400  0.96114700  1
  O  O9  1  0.27710600  0.54602000  0.77062500  1
  O  O10  1  0.81638900  0.26200200  0.03039600  1
  O  O11  1  0.58731800  0.00541400  0.82525600  1
  O  O12  1  0.42815000  0.98188500  0.21735400  1
  O  O13  1  0.24695800  0.72498000  0.94572200  1
  O  O14  1  0.70598600  0.46198100  0.22963700  1
  O  O15  1  0.42515100  0.35871100  0.01279400  1
  O  O16  1  0.72708400  0.24550300  0.57653000  1
  O  O17  1  0.80385400  0.05724800  0.87935000  1
  O  O18  1  0.73019800  0.59212200  0.44100000  1
  O  O19  1  0.59552400  0.83631900  0.58755700  1
  O  O20  1  0.80484300  0.89899200  0.24264600  1
  O  O21  1  0.94122800  0.65436800  0.49190400  1
  O  O22  1  0.92890600  0.53137000  0.89546200  1
  O  O23  1  0.93121000  0.90206700  0.63781500  1
loop_
_geom_bond_atom_site_label_1
_geom_bond_atom_site_label_2
_geom_bond_distance
_geom_bond_site_symmetry_2
Mg0 O17 1.993390 1_554
Mg0 O10 2.030849 1_555
Mg0 O20 2.036085 1_545
Mg0 O15 2.125108 1_555
Mg0 O4 2.154656 1_555
Mg0 O12 2.491375 1_545
Mn0 O13 2.141448 1_555
Mn0 O20 2.191237 1_456
Mn0 O10 2.233026 1_466
Mn0 O3 2.267632 1_565
Mn0 O6 2.437231 1_556
Mn0 O17 2.475961 1_465
Mn1 O23 1.883468 1_455
Mn1 O22 1.920953 1_455
Mn1 O5 2.016023 1_555
Mn1 O7 2.039561 1_555
Mn1 O21 2.072191 1_455
Mn1 O9 2.387946 1_555
Mn2 O9 2.153460 1_555
Mn2 O14 2.219012 1_555
Mn2 O7 2.239556 1_555
Mn2 O16 2.241812 1_555
Mn2 O5 2.315198 1_555
Mn2 O18 2.480078 1_555
Mn3 O8 1.910794 1_555
Mn3 O19 1.912342 1_555
Mn3 O3 2.020869 1_565
Mn3 O6 2.045197 1_556
Mn3 O11 2.080106 1_565
Mn3 O13 2.347198 1_555
Mn4 O18 1.945751 1_555
Mn4 O16 1.955923 1_555
Mn4 O1 2.043465 1_655
Mn4 O0 2.091202 1_655
Mn4 O14 2.127952 1_555
Mn4 O2 2.579724 1_655
Cr0 O12 1.991393 1_545
Cr0 O2 1.997141 1_555
Cr0 O15 1.997285 1_555
Cr0 O4 2.016240 1_555
Cr0 O0 2.047557 1_555
Cr0 O1 2.065339 1_555
O0 P1 1.587031 1_545
O1 P2 1.602597 1_554
O2 P0 1.561812 1_555
O3 P0 1.543296 1_555
O4 P0 1.571832 1_555
O5 P0 1.541312 1_555
O6 P1 1.532274 1_555
O7 P1 1.544878 1_555
O8 P3 1.543533 1_556
O9 P2 1.521724 1_555
O10 P3 1.554997 1_555
O11 P4 1.519833 1_555
O12 P1 1.563655 1_555
O13 P2 1.524862 1_555
O14 P3 1.562074 1_555
O15 P2 1.580310 1_554
O16 P4 1.608433 1_555
O17 P4 1.537234 1_555
O18 P5 1.594025 1_555
O19 P5 1.549023 1_555
O20 P5 1.556433 1_555
O21 P5 1.511325 1_555
O22 P3 1.540174 1_556
O23 P4 1.540314 1_565
