# generated using pymatgen
data_MgMnTl(VS2)4
_symmetry_space_group_name_H-M   'P 1'
_cell_length_a   3.46080966
_cell_length_b   9.00328528
_cell_length_c   9.32848089
_cell_angle_alpha   104.63110982
_cell_angle_beta   100.67630869
_cell_angle_gamma   89.93583078
_symmetry_Int_Tables_number   1
_chemical_formula_structural   MgMnTl(VS2)4
_chemical_formula_sum   'Mg1 Mn1 Tl1 V4 S8'
_cell_volume   276.04993096
_cell_formula_units_Z   1
loop_
 _symmetry_equiv_pos_site_id
 _symmetry_equiv_pos_as_xyz
  1  'x, y, z'
loop_
 _atom_site_type_symbol
 _atom_site_label
 _atom_site_symmetry_multiplicity
 _atom_site_fract_x
 _atom_site_fract_y
 _atom_site_fract_z
 _atom_site_occupancy
  Mg  Mg0  1  0.95670800  0.17214000  0.91302900  1
  Mn  Mn0  1  0.00267400  0.51784500  0.00561700  1
  Tl  Tl0  1  0.52482100  0.94570000  0.04694800  1
  V  V0  1  0.70233500  0.82452200  0.40625200  1
  V  V1  1  0.28845700  0.17442800  0.57724900  1
  V  V2  1  0.66386800  0.49972400  0.32618800  1
  V  V3  1  0.33463300  0.51689200  0.66759300  1
  S  S0  1  0.82565200  0.01560400  0.65115100  1
  S  S1  1  0.16963400  0.98564200  0.34070400  1
  S  S2  1  0.75500000  0.34237500  0.50922600  1
  S  S3  1  0.24036700  0.66242200  0.48127500  1
  S  S4  1  0.90830600  0.66045200  0.81732100  1
  S  S5  1  0.08800600  0.34572300  0.17459700  1
  S  S6  1  0.57685300  0.66790000  0.15484500  1
  S  S7  1  0.42102000  0.34050700  0.84229200  1
loop_
_geom_bond_atom_site_label_1
_geom_bond_atom_site_label_2
_geom_bond_distance
_geom_bond_site_symmetry_2
Mg0 S0 2.451815 1_555
Mg0 S7 2.493191 1_555
Mg0 S7 2.493796 1_655
Mg0 S5 2.503389 1_656
Mg0 Tl0 3.152200 1_546
Mg0 Tl0 3.154399 1_646
Mn0 S6 2.395900 1_455
Mn0 S6 2.396387 1_555
Mn0 S4 2.401317 1_454
Mn0 S5 2.456427 1_555
Mn0 S7 2.559274 1_554
Mn0 S7 2.562138 1_454
S0 V1 2.448166 1_555
S0 V1 2.449006 1_655
S0 V0 2.452708 1_545
S1 V1 2.387003 1_565
S1 V0 2.429271 1_555
S1 V0 2.431738 1_455
S1 Tl0 3.139529 1_455
S1 Tl0 3.146241 1_555
S2 V2 2.458313 1_555
S2 V1 2.478277 1_655
S2 V1 2.483108 1_555
S2 V3 2.527107 1_555
S2 V3 2.532121 1_655
S3 V3 2.404883 1_555
S3 V2 2.466943 1_455
S3 V2 2.469232 1_555
S3 V0 2.472173 1_555
S3 V0 2.472639 1_455
S4 V3 2.372641 1_555
S4 V3 2.376057 1_655
S5 V2 2.418838 1_455
S5 V2 2.421866 1_555
S6 V0 2.372867 1_555
S6 V2 2.445680 1_555
S6 Tl0 2.916276 1_555
S7 V1 2.504569 1_555
S7 V3 2.528429 1_555
