# generated using pymatgen
data_MgFe4(OF)4
_symmetry_space_group_name_H-M   'P 1'
_cell_length_a   5.33014520
_cell_length_b   9.78435318
_cell_length_c   2.95637100
_cell_angle_alpha   90.00000000
_cell_angle_beta   90.00000000
_cell_angle_gamma   95.69961044
_symmetry_Int_Tables_number   1
_chemical_formula_structural   MgFe4(OF)4
_chemical_formula_sum   'Mg1 Fe4 O4 F4'
_cell_volume   153.41849699
_cell_formula_units_Z   1
loop_
 _symmetry_equiv_pos_site_id
 _symmetry_equiv_pos_as_xyz
  1  'x, y, z'
loop_
 _atom_site_type_symbol
 _atom_site_label
 _atom_site_symmetry_multiplicity
 _atom_site_fract_x
 _atom_site_fract_y
 _atom_site_fract_z
 _atom_site_occupancy
  Mg  Mg0  1  0.50000000  0.50000000  0.51473700  1
  Fe  Fe0  1  0.00000000  0.00000000  0.01013000  1
  Fe  Fe1  1  0.00000000  0.50000000  0.01472200  1
  Fe  Fe2  1  0.59957700  0.22122600  0.51278700  1
  Fe  Fe3  1  0.40042300  0.77877400  0.51278700  1
  O  O0  1  0.13710600  0.89531400  0.51038100  1
  O  O1  1  0.34460100  0.62407700  0.01409000  1
  O  O2  1  0.65539900  0.37592300  0.01409000  1
  O  O3  1  0.86289400  0.10468600  0.51038100  1
  F  F0  1  0.17764200  0.38466200  0.51469100  1
  F  F1  1  0.35749000  0.13293000  0.01159000  1
  F  F2  1  0.64251000  0.86707000  0.01159000  1
  F  F3  1  0.82235800  0.61533800  0.51469100  1
loop_
_geom_bond_atom_site_label_1
_geom_bond_atom_site_label_2
_geom_bond_distance
_geom_bond_site_symmetry_2
Mg0 O2 2.130498 1_556
Mg0 O1 2.130498 1_556
Mg0 O2 2.133150 1_555
Mg0 O1 2.133150 1_555
Fe0 O0 1.978570 1_544
Fe0 O3 1.978570 1_454
Fe0 O0 1.979679 1_545
Fe0 O3 1.979679 1_455
Fe1 O1 2.098728 1_555
Fe1 O2 2.098728 1_455
Fe2 O3 1.894203 1_555
Fe2 O2 2.112759 1_555
Fe2 O2 2.118143 1_556
Fe3 O0 1.894203 1_555
Fe3 O1 2.112759 1_555
Fe3 O1 2.118143 1_556
F0 Mg0 1.959758 1_555
F0 Fe1 2.137070 1_555
F0 Fe1 2.137197 1_556
F1 Fe2 2.089149 1_554
F1 Fe2 2.094151 1_555
F1 Fe0 2.197780 1_555
F2 Fe3 2.089149 1_554
F2 Fe3 2.094151 1_555
F2 Fe0 2.197780 1_665
F3 Mg0 1.959758 1_555
F3 Fe1 2.137070 1_655
F3 Fe1 2.137197 1_656
