# generated using pymatgen
data_MgMn6(O2F)4
_symmetry_space_group_name_H-M   'P 1'
_cell_length_a   5.15014610
_cell_length_b   7.63692710
_cell_length_c   5.70004227
_cell_angle_alpha   96.25041903
_cell_angle_beta   89.72191643
_cell_angle_gamma   89.61169879
_symmetry_Int_Tables_number   1
_chemical_formula_structural   MgMn6(O2F)4
_chemical_formula_sum   'Mg1 Mn6 O8 F4'
_cell_volume   222.84868558
_cell_formula_units_Z   1
loop_
 _symmetry_equiv_pos_site_id
 _symmetry_equiv_pos_as_xyz
  1  'x, y, z'
loop_
 _atom_site_type_symbol
 _atom_site_label
 _atom_site_symmetry_multiplicity
 _atom_site_fract_x
 _atom_site_fract_y
 _atom_site_fract_z
 _atom_site_occupancy
  Mg  Mg0  1  0.50000500  0.49783000  0.49753600  1
  Mn  Mn0  1  0.50000900  0.99782400  0.49751400  1
  Mn  Mn1  1  0.55062800  0.67386200  0.10529100  1
  Mn  Mn2  1  0.44940500  0.32172800  0.88967400  1
  Mn  Mn3  1  0.00133800  0.70333800  0.64187300  1
  Mn  Mn4  1  0.99859700  0.29229800  0.35306100  1
  Mn  Mn5  1  0.00005500  0.99782800  0.99747700  1
  O  O0  1  0.84220800  0.77336400  0.93155400  1
  O  O1  1  0.81065900  0.07666100  0.30973600  1
  O  O2  1  0.64824900  0.74706800  0.43712400  1
  O  O3  1  0.63654000  0.43445400  0.16243200  1
  O  O4  1  0.36344300  0.56110400  0.83257900  1
  O  O5  1  0.35180100  0.24856000  0.55782100  1
  O  O6  1  0.15771600  0.22231700  0.06339800  1
  O  O7  1  0.18943000  0.91892700  0.68530100  1
  F  F0  1  0.83901300  0.43649300  0.63620400  1
  F  F1  1  0.67333600  0.10703900  0.83188900  1
  F  F2  1  0.32660400  0.88853800  0.16321700  1
  F  F3  1  0.16096200  0.55910400  0.35869900  1
loop_
_geom_bond_atom_site_label_1
_geom_bond_atom_site_label_2
_geom_bond_distance
_geom_bond_site_symmetry_2
Mg0 O4 2.038809 1_555
Mg0 O3 2.039182 1_555
Mg0 O5 2.117584 1_555
Mg0 O2 2.117622 1_555
Mn0 O5 2.049818 1_565
Mn0 O2 2.050048 1_555
Mn0 O7 2.050403 1_555
Mn0 O1 2.050497 1_565
Mn1 O3 1.940307 1_555
Mn1 O4 1.954888 1_554
Mn1 O2 1.981348 1_555
Mn1 O0 1.994512 1_554
Mn2 O4 1.940059 1_555
Mn2 O3 1.954869 1_556
Mn2 O5 1.981378 1_555
Mn2 O6 1.994589 1_556
Mn3 O0 1.863526 1_455
Mn3 O7 1.909349 1_555
Mn3 O2 2.208537 1_455
Mn3 O4 2.467528 1_555
Mn4 O6 1.863350 1_655
Mn4 O1 1.909232 1_555
Mn4 O5 2.209073 1_655
Mn4 O3 2.466838 1_555
Mn5 O6 1.902956 1_566
Mn5 O0 1.903205 1_455
Mn5 O7 2.054835 1_555
Mn5 O1 2.055178 1_466
F0 Mg0 1.993845 1_555
F0 Mn4 2.020090 1_555
F0 Mn3 2.204969 1_655
F1 Mn2 1.994944 1_555
F1 Mn5 2.141403 1_645
F1 Mn0 2.192171 1_545
F2 Mn1 1.995197 1_555
F2 Mn5 2.141399 1_554
F2 Mn0 2.192125 1_555
F3 Mg0 1.994283 1_555
F3 Mn3 2.020439 1_555
F3 Mn4 2.204788 1_455
