# generated using pymatgen
data_Na14La3Nb5(SiO4)12
_symmetry_space_group_name_H-M   'P 1'
_cell_length_a   18.80101962
_cell_length_b   9.38522077
_cell_length_c   22.49807957
_cell_angle_alpha   90.03589994
_cell_angle_beta   89.93438699
_cell_angle_gamma   119.91120371
_symmetry_Int_Tables_number   1
_chemical_formula_structural   Na14La3Nb5(SiO4)12
_chemical_formula_sum   'Na42 La9 Nb15 Si36 O144'
_cell_volume   3441.03895387
_cell_formula_units_Z   3
loop_
 _symmetry_equiv_pos_site_id
 _symmetry_equiv_pos_as_xyz
  1  'x, y, z'
loop_
 _atom_site_type_symbol
 _atom_site_label
 _atom_site_symmetry_multiplicity
 _atom_site_fract_x
 _atom_site_fract_y
 _atom_site_fract_z
 _atom_site_occupancy
  Na  Na0  1  0.31809913  0.01159571  0.24713534  1
  Na  Na1  1  0.81905710  0.00910794  0.24532658  1
  Na  Na2  1  0.18483880  0.36187657  0.24558990  1
  Na  Na3  1  0.68803271  0.36312558  0.24738292  1
  Na  Na4  1  0.99590991  0.62200216  0.24787248  1
  Na  Na5  1  0.49253594  0.63041040  0.24552672  1
  Na  Na6  1  0.31585642  0.62351807  0.74761671  1
  Na  Na7  1  0.81550987  0.62315796  0.74810741  1
  Na  Na8  1  0.99533108  0.36844529  0.74848521  1
  Na  Na9  1  0.49498188  0.36772294  0.74803758  1
  Na  Na10  1  0.18971795  0.00854786  0.74802793  1
  Na  Na11  1  0.68890564  0.00803580  0.74787743  1
  Na  Na12  1  0.15546024  0.34782857  0.57910448  1
  Na  Na13  1  0.65339527  0.34669831  0.57891288  1
  Na  Na14  1  0.01879643  0.69338907  0.57933244  1
  Na  Na15  1  0.51890813  0.69039134  0.57869224  1
  Na  Na16  1  0.32465145  0.95804223  0.57763750  1
  Na  Na17  1  0.82877321  0.96408161  0.58085665  1
  Na  Na18  1  0.15502949  0.96125936  0.07840524  1
  Na  Na19  1  0.65499943  0.96128745  0.07885341  1
  Na  Na20  1  0.32620549  0.69160309  0.07927885  1
  Na  Na21  1  0.82626026  0.69292149  0.07882435  1
  Na  Na22  1  0.01839256  0.34569794  0.07813567  1
  Na  Na23  1  0.51886595  0.34575090  0.07845621  1
  Na  Na24  1  0.34859781  0.02781539  0.91798365  1
  Na  Na25  1  0.84844125  0.02777208  0.91807862  1
  Na  Na26  1  0.48549269  0.29518090  0.41428721  1
  Na  Na27  1  0.66165101  0.02695546  0.41324123  1
  Na  Na28  1  0.35079372  0.67563729  0.41429652  1
  Na  Na29  1  0.84934380  0.67399141  0.41564838  1
  Na  Na30  1  0.00739597  0.01397368  0.49754896  1
  Na  Na31  1  0.49933504  0.99961575  0.49436756  1
  Na  Na32  1  0.00666512  0.99987104  0.99828460  1
  Na  Na33  1  0.50681811  0.00018195  0.99857626  1
  Na  Na34  1  0.33282611  0.34111737  0.83692521  1
  Na  Na35  1  0.83269959  0.34128041  0.83722720  1
  Na  Na36  1  0.32900259  0.32779743  0.33197402  1
  Na  Na37  1  0.83721991  0.32974209  0.33263455  1
  Na  Na38  1  0.16742234  0.66729400  0.15848384  1
  Na  Na39  1  0.66649475  0.66730739  0.15865037  1
  Na  Na40  1  0.16762270  0.66784429  0.65884171  1
  Na  Na41  1  0.66616522  0.66588228  0.66049100  1
  La  La0  1  0.49893557  0.99900546  0.34177995  1
  La  La1  1  0.33288066  0.33291063  0.68529499  1
  La  La2  1  0.83332625  0.33296332  0.68698498  1
  La  La3  1  0.32984083  0.32794291  0.17644399  1
  La  La4  1  0.83661742  0.33871414  0.18017688  1
  La  La5  1  0.16403720  0.66300394  0.99999067  1
  La  La6  1  0.66410674  0.66312299  0.00114356  1
  La  La7  1  0.15859476  0.65590744  0.50287396  1
  La  La8  1  0.67229150  0.67653349  0.50721295  1
  Nb  Nb0  1  0.00284656  0.00450490  0.35253734  1
  Nb  Nb1  1  0.00178451  0.00027863  0.85329986  1
  Nb  Nb2  1  0.50184086  0.00016827  0.85318014  1
  Nb  Nb3  1  0.00036913  0.99982798  0.64579870  1
  Nb  Nb4  1  0.49956956  0.99983950  0.64492419  1
  Nb  Nb5  1  0.99990040  0.00002591  0.14502230  1
  Nb  Nb6  1  0.49965635  0.00004306  0.14752634  1
  Nb  Nb7  1  0.33375532  0.33767425  0.98034588  1
  Nb  Nb8  1  0.83390021  0.33733015  0.98060136  1
  Nb  Nb9  1  0.33015407  0.32730682  0.48117548  1
  Nb  Nb10  1  0.83704979  0.33675973  0.48092298  1
  Nb  Nb11  1  0.16656189  0.66830860  0.31679566  1
  Nb  Nb12  1  0.66651487  0.66601259  0.31519702  1
  Nb  Nb13  1  0.16633419  0.66493336  0.81736728  1
  Nb  Nb14  1  0.66616858  0.66481268  0.81747837  1
  Si  Si0  1  0.14006881  0.98310336  0.25078133  1
  Si  Si1  1  0.64923946  0.98710462  0.25098061  1
  Si  Si2  1  0.34257176  0.70093693  0.25068362  1
  Si  Si3  1  0.85353961  0.71935576  0.25249132  1
  Si  Si4  1  0.00735072  0.29535720  0.25140741  1
  Si  Si5  1  0.50679408  0.31326989  0.25092109  1
  Si  Si6  1  0.13925612  0.29544987  0.75147572  1
  Si  Si7  1  0.63889504  0.29504056  0.75131443  1
  Si  Si8  1  0.00808835  0.72103235  0.75170642  1
  Si  Si9  1  0.50787706  0.72091530  0.75132146  1
  Si  Si10  1  0.35248731  0.98386896  0.75239389  1
  Si  Si11  1  0.85238514  0.98318248  0.75241023  1
  Si  Si12  1  0.48183718  0.32509618  0.58447611  1
  Si  Si13  1  0.98191935  0.32375732  0.58598135  1
  Si  Si14  1  0.17959343  0.03345896  0.58564546  1
  Si  Si15  1  0.68105073  0.03988831  0.58454817  1
  Si  Si16  1  0.33649412  0.63865149  0.58380369  1
  Si  Si17  1  0.83910426  0.64044561  0.58563193  1
  Si  Si18  1  0.48275572  0.64072707  0.08397595  1
  Si  Si19  1  0.98435451  0.64178296  0.08388805  1
  Si  Si20  1  0.33664307  0.03011155  0.08310352  1
  Si  Si21  1  0.83718426  0.03384532  0.08262855  1
  Si  Si22  1  0.17839118  0.32497476  0.08271639  1
  Si  Si23  1  0.68048776  0.32542399  0.08466818  1
  Si  Si24  1  0.32092967  0.66477771  0.91571041  1
  Si  Si25  1  0.82079868  0.66451730  0.91579344  1
  Si  Si26  1  0.01050731  0.35804561  0.91631472  1
  Si  Si27  1  0.51066642  0.35816035  0.91649102  1
  Si  Si28  1  0.16871012  0.97931401  0.91680832  1
  Si  Si29  1  0.66870589  0.97929358  0.91685269  1
  Si  Si30  1  0.31506708  0.97577429  0.41934878  1
  Si  Si31  1  0.82178650  0.97943215  0.41484405  1
  Si  Si32  1  0.16884619  0.35961184  0.41667751  1
  Si  Si33  1  0.67258853  0.36553380  0.41856272  1
  Si  Si34  1  0.01153639  0.66485286  0.41624525  1
  Si  Si35  1  0.51023576  0.65400407  0.41858624  1
  O  O0  1  0.08363260  0.98904258  0.30412801  1
  O  O1  1  0.61904161  0.01945561  0.31352567  1
  O  O2  1  0.38923792  0.75981941  0.31313035  1
  O  O3  1  0.91043397  0.82569471  0.30728708  1
  O  O4  1  0.49091621  0.22136246  0.31357014  1
  O  O5  1  0.00268862  0.17345462  0.30395012  1
  O  O6  1  0.08273466  0.17741552  0.80452172  1
  O  O7  1  0.58267189  0.17754565  0.80456328  1
  O  O8  1  0.50327281  0.83240728  0.80421996  1
  O  O9  1  0.00314333  0.83260439  0.80424799  1
  O  O10  1  0.40960034  0.99291699  0.80723798  1
  O  O11  1  0.90964470  0.99252205  0.80714488  1
  O  O12  1  0.40183030  0.96857644  0.69191052  1
  O  O13  1  0.90173700  0.96860215  0.69175735  1
  O  O14  1  0.08370331  0.19908694  0.69045369  1
  O  O15  1  0.58363868  0.19925506  0.69030960  1
  O  O16  1  0.01629701  0.83280175  0.69058127  1
  O  O17  1  0.51639360  0.83304505  0.69027969  1
  O  O18  1  0.40288112  0.83414240  0.19582050  1
  O  O19  1  0.90214270  0.83347815  0.19174499  1
  O  O20  1  0.01566180  0.19861499  0.19038882  1
  O  O21  1  0.51376668  0.19451715  0.19570342  1
  O  O22  1  0.08423591  0.96962512  0.18989929  1
  O  O23  1  0.58301094  0.97200179  0.19593022  1
  O  O24  1  0.44947290  0.35761863  0.64684749  1
  O  O25  1  0.94919726  0.35517850  0.64811537  1
  O  O26  1  0.22767342  0.09727987  0.64816870  1
  O  O27  1  0.72989475  0.10440597  0.64653432  1
  O  O28  1  0.32085228  0.54210430  0.64632161  1
  O  O29  1  0.82317091  0.54226125  0.64748289  1
  O  O30  1  0.45049549  0.54710908  0.14636841  1
  O  O31  1  0.95723838  0.55172940  0.14785159  1
  O  O32  1  0.31896626  0.08542971  0.14705079  1
  O  O33  1  0.82294665  0.10082030  0.14483529  1
  O  O34  1  0.22312653  0.35858791  0.14622948  1
  O  O35  1  0.72753708  0.35991809  0.14769417  1
  O  O36  1  0.23986623  0.30973166  0.03033627  1
  O  O37  1  0.74011988  0.30956918  0.03091900  1
  O  O38  1  0.41572018  0.52024075  0.03022686  1
  O  O39  1  0.91579694  0.51911677  0.03135598  1
  O  O40  1  0.34583535  0.16350570  0.02865848  1
  O  O41  1  0.84594354  0.16355049  0.02704254  1
  O  O42  1  0.23889828  0.16984922  0.53203680  1
  O  O43  1  0.73796462  0.16602294  0.52801382  1
  O  O44  1  0.34564240  0.52673816  0.52797605  1
  O  O45  1  0.84641089  0.52709654  0.52937561  1
  O  O46  1  0.41607132  0.30687083  0.52915385  1
  O  O47  1  0.91699128  0.31294688  0.53085587  1
  O  O48  1  0.29736505  0.72309952  0.97598112  1
  O  O49  1  0.79691358  0.72309909  0.97603229  1
  O  O50  1  0.05551197  0.40396839  0.97922929  1
  O  O51  1  0.55594928  0.40487893  0.97935601  1
  O  O52  1  0.14801877  0.88899923  0.97978991  1
  O  O53  1  0.64808996  0.88833007  0.97985414  1
  O  O54  1  0.28213038  0.87443420  0.48009427  1
  O  O55  1  0.80152007  0.88059769  0.47680309  1
  O  O56  1  0.14624190  0.40188194  0.48035802  1
  O  O57  1  0.65814063  0.43285796  0.48030484  1
  O  O58  1  0.05441468  0.70856582  0.48005353  1
  O  O59  1  0.55978824  0.68774999  0.47973096  1
  O  O60  1  0.07037378  0.64381626  0.36402532  1
  O  O61  1  0.57149208  0.64244606  0.36312305  1
  O  O62  1  0.25071536  0.85654913  0.36315032  1
  O  O63  1  0.74966370  0.86172605  0.36331335  1
  O  O64  1  0.17969639  0.50303544  0.36513253  1
  O  O65  1  0.68041473  0.49994495  0.36326693  1
  O  O66  1  0.07138741  0.49803586  0.86401989  1
  O  O67  1  0.57137128  0.49806420  0.86410473  1
  O  O68  1  0.18005930  0.85683096  0.86499235  1
  O  O69  1  0.68016382  0.85712065  0.86496484  1
  O  O70  1  0.25065390  0.64202180  0.86274834  1
  O  O71  1  0.75070347  0.64228708  0.86275573  1
  O  O72  1  0.99082855  0.81214832  0.40194178  1
  O  O73  1  0.49167351  0.80349461  0.41275289  1
  O  O74  1  0.40843956  0.01361615  0.41294629  1
  O  O75  1  0.91245861  0.00566607  0.39934291  1
  O  O76  1  0.09363278  0.17536506  0.40028994  1
  O  O77  1  0.59729264  0.17977527  0.41290296  1
  O  O78  1  0.99168650  0.17043601  0.90196869  1
  O  O79  1  0.49179249  0.17050217  0.90210786  1
  O  O80  1  0.09231507  0.00936470  0.90082087  1
  O  O81  1  0.59232969  0.00928790  0.90097348  1
  O  O82  1  0.41163793  0.82039419  0.90012473  1
  O  O83  1  0.91144749  0.82057271  0.90024905  1
  O  O84  1  0.47811491  0.14291162  0.58674539  1
  O  O85  1  0.97729941  0.14149950  0.58644154  1
  O  O86  1  0.09318874  0.04338101  0.58699773  1
  O  O87  1  0.59359238  0.04576397  0.58653052  1
  O  O88  1  0.42745907  0.81387695  0.58699736  1
  O  O89  1  0.92963870  0.81449868  0.58707761  1
  O  O90  1  0.47932401  0.81585789  0.08684451  1
  O  O91  1  0.97847933  0.81380798  0.08543898  1
  O  O92  1  0.42856349  0.03966468  0.08742527  1
  O  O93  1  0.92788509  0.03940758  0.08644903  1
  O  O94  1  0.09199705  0.14211449  0.08511842  1
  O  O95  1  0.59320863  0.14342105  0.08784842  1
  O  O96  1  0.34178792  0.14483310  0.75622223  1
  O  O97  1  0.84168263  0.14410178  0.75667794  1
  O  O98  1  0.22956947  0.31475539  0.75625253  1
  O  O99  1  0.72920970  0.31446843  0.75663841  1
  O  O100  1  0.42722110  0.54001121  0.75605271  1
  O  O101  1  0.92751212  0.54049638  0.75660987  1
  O  O102  1  0.32395462  0.51453344  0.24400735  1
  O  O103  1  0.84266475  0.53680991  0.25598008  1
  O  O104  1  0.43161652  0.34946037  0.24460592  1
  O  O105  1  0.92719247  0.31598021  0.25535303  1
  O  O106  1  0.23102206  0.14207725  0.25473373  1
  O  O107  1  0.74210817  0.13824708  0.24511225  1
  O  O108  1  0.32287490  0.49197798  0.92186883  1
  O  O109  1  0.82296549  0.49221819  0.92198217  1
  O  O110  1  0.42036396  0.34829939  0.91968323  1
  O  O111  1  0.92036054  0.34883801  0.91950019  1
  O  O112  1  0.25822588  0.15129753  0.91896133  1
  O  O113  1  0.75808435  0.15149070  0.91906450  1
  O  O114  1  0.31498971  0.15238998  0.42191688  1
  O  O115  1  0.81783066  0.15087849  0.42034342  1
  O  O116  1  0.25978626  0.37108567  0.41954642  1
  O  O117  1  0.76224143  0.37092587  0.41987494  1
  O  O118  1  0.42423972  0.47349387  0.41964227  1
  O  O119  1  0.92197111  0.49057775  0.42060490  1
  O  O120  1  0.16163730  0.47623255  0.07344567  1
  O  O121  1  0.66319342  0.47618311  0.07517693  1
  O  O122  1  0.07665419  0.67622323  0.07441339  1
  O  O123  1  0.57521808  0.67441149  0.07550920  1
  O  O124  1  0.26164897  0.84469738  0.07386329  1
  O  O125  1  0.76136569  0.84795032  0.07547911  1
  O  O126  1  0.16126784  0.84709833  0.57784758  1
  O  O127  1  0.66237971  0.85250420  0.57908431  1
  O  O128  1  0.26070114  0.67266385  0.57611242  1
  O  O129  1  0.76471008  0.67981646  0.58089734  1
  O  O130  1  0.07488283  0.47389631  0.57966441  1
  O  O131  1  0.57522144  0.47459986  0.57761869  1
  O  O132  1  0.14235726  0.80888526  0.25687183  1
  O  O133  1  0.64671315  0.80656453  0.25265381  1
  O  O134  1  0.25597234  0.71057152  0.25254911  1
  O  O135  1  0.76324587  0.71118937  0.25792941  1
  O  O136  1  0.09300431  0.47483676  0.25815144  1
  O  O137  1  0.59859224  0.48537482  0.25285647  1
  O  O138  1  0.14391865  0.47719626  0.75644009  1
  O  O139  1  0.64392302  0.47726738  0.75645187  1
  O  O140  1  0.09405426  0.71198023  0.75753309  1
  O  O141  1  0.59392538  0.71170375  0.75751977  1
  O  O142  1  0.26124919  0.81155389  0.75666625  1
  O  O143  1  0.76113331  0.81132199  0.75646666  1
loop_
_geom_bond_atom_site_label_1
_geom_bond_atom_site_label_2
_geom_bond_distance
_geom_bond_site_symmetry_2
Na0 O32 2.353985 1_555
Na0 O134 2.463702 1_545
Na0 O106 2.491512 1_555
Na0 O104 2.804217 1_555
Na0 O132 2.883466 1_545
Na1 O107 2.304495 1_555
Na1 O33 2.407696 1_555
Na1 O135 2.464453 1_545
Na1 O105 2.576742 1_555
Na1 O133 2.827739 1_545
Na2 O102 2.271013 1_555
Na2 O34 2.352577 1_555
Na2 O136 2.451311 1_555
Na2 O106 2.615142 1_555
Na2 O134 2.856183 1_555
Na3 O35 2.366668 1_555
Na3 O137 2.466318 1_555
Na3 O103 2.534008 1_555
Na3 O107 2.762300 1_555
Na3 O135 2.849535 1_555
Na3 O65 2.940250 1_555
Na4 O31 2.356057 1_555
Na4 O132 2.425461 1_655
Na4 O105 2.499161 1_555
Na4 O103 2.583640 1_555
Na4 O136 2.794529 1_655
Na4 O60 2.924493 1_655
Na5 O104 2.291924 1_555
Na5 O30 2.366075 1_555
Na5 O133 2.526398 1_555
Na5 O102 2.791443 1_555
Na5 O137 2.926406 1_555
Na5 O23 2.996308 1_555
Na5 O61 3.009559 1_555
Na6 O28 2.419741 1_555
Na6 O142 2.452735 1_555
Na6 O98 2.525545 1_555
Na6 O100 2.582976 1_555
Na6 O138 2.818966 1_555
Na6 O70 2.906329 1_555
Na7 O29 2.414208 1_555
Na7 O143 2.449256 1_555
Na7 O99 2.524814 1_555
Na7 O101 2.589020 1_555
Na7 O139 2.812618 1_555
Na7 O71 2.894876 1_555
Na8 O25 2.400707 1_555
Na8 O138 2.456671 1_655
Na8 O101 2.513771 1_555
Na8 O97 2.597177 1_555
Na8 O140 2.813087 1_655
Na8 O66 2.924113 1_655
Na9 O24 2.418092 1_555
Na9 O139 2.462513 1_555
Na9 O100 2.514684 1_555
Na9 O96 2.587631 1_555
Na9 O141 2.817596 1_555
Na9 O67 2.937744 1_555
Na10 O26 2.378262 1_555
Na10 O140 2.456602 1_545
Na10 O96 2.489593 1_555
Na10 O98 2.589731 1_555
Na10 O142 2.783054 1_545
Na10 O68 2.954800 1_545
Na11 O27 2.431843 1_555
Na11 O141 2.453054 1_545
Na11 O97 2.502644 1_555
Na11 O99 2.590422 1_555
Na11 O143 2.791275 1_545
Na11 O69 2.957004 1_545
Na12 O56 2.304974 1_555
Na12 O130 2.341506 1_555
Na12 O86 2.496065 1_555
Na12 O128 2.682869 1_555
Na12 O14 2.857088 1_555
Na13 O131 2.315512 1_555
Na13 O57 2.348060 1_555
Na13 O87 2.470537 1_555
Na13 O129 2.762398 1_555
Na13 O84 2.874406 1_555
Na14 O58 2.315055 1_555
Na14 O126 2.324483 1_555
Na14 O89 2.455894 1_455
Na14 O130 2.742619 1_555
Na14 O86 2.862432 1_565
Na15 O127 2.344783 1_555
Na15 O59 2.358683 1_555
Na15 O88 2.514044 1_555
Na15 O131 2.713212 1_555
Na15 O17 2.855869 1_555
Na15 O87 2.907895 1_565
Na16 O128 2.325651 1_555
Na16 O54 2.333892 1_555
Na16 O84 2.526940 1_565
Na16 O126 2.707423 1_555
Na16 O88 2.867155 1_555
Na16 O12 2.930886 1_555
Na17 O129 2.315952 1_555
Na17 O85 2.439144 1_565
Na17 O55 2.440657 1_555
Na17 O127 2.760059 1_555
Na17 O89 2.870999 1_555
Na18 O52 2.304206 1_554
Na18 O122 2.324730 1_555
Na18 O94 2.512694 1_565
Na18 O124 2.722469 1_555
Na19 O53 2.314432 1_554
Na19 O123 2.340277 1_555
Na19 O95 2.508388 1_565
Na19 O125 2.693955 1_555
Na19 O90 2.882227 1_555
Na20 O124 2.300485 1_555
Na20 O48 2.438436 1_554
Na20 O90 2.515764 1_555
Na20 O120 2.727528 1_555
Na20 O92 2.852798 1_565
Na20 O18 2.970421 1_555
Na21 O125 2.319917 1_555
Na21 O49 2.427439 1_554
Na21 O91 2.502442 1_555
Na21 O121 2.706387 1_555
Na21 O93 2.838683 1_565
Na21 O19 2.890820 1_555
Na22 O50 2.314084 1_554
Na22 O120 2.339667 1_555
Na22 O93 2.513054 1_455
Na22 O122 2.727805 1_555
Na22 O20 2.866984 1_555
Na22 O94 2.868486 1_555
Na23 O51 2.318863 1_554
Na23 O121 2.356678 1_555
Na23 O92 2.512241 1_555
Na23 O123 2.717022 1_555
Na23 O95 2.872685 1_555
Na24 O79 2.360441 1_555
Na24 O112 2.488798 1_555
Na24 O110 2.611791 1_555
Na24 O82 2.766728 1_545
Na24 O40 2.808221 1_556
Na24 O10 2.828010 1_545
Na24 O48 2.839635 1_545
Na24 O68 2.995354 1_545
Na25 O78 2.362054 1_555
Na25 O113 2.490330 1_555
Na25 O111 2.616424 1_555
Na25 O83 2.764228 1_545
Na25 O41 2.773323 1_556
Na25 O11 2.834532 1_545
Na25 O49 2.837944 1_545
Na25 O69 2.992548 1_545
Na26 O74 2.294497 1_555
Na26 O4 2.385962 1_555
Na26 O118 2.462287 1_555
Na26 O114 2.795726 1_555
Na26 O77 2.804039 1_555
Na27 O77 2.291735 1_555
Na27 O1 2.372189 1_555
Na27 O115 2.568112 1_555
Na27 O73 2.815518 1_545
Na27 O117 2.816315 1_555
Na27 O43 2.926822 1_555
Na27 O63 2.992872 1_545
Na28 O73 2.299282 1_555
Na28 O2 2.399162 1_555
Na28 O116 2.496768 1_555
Na28 O74 2.794392 1_565
Na28 O118 2.851982 1_555
Na29 O72 2.326161 1_555
Na29 O117 2.477022 1_555
Na29 O119 2.680455 1_555
Na29 O75 2.747545 1_565
Na29 O3 2.767094 1_555
Na29 O55 2.862507 1_555
Na29 O45 2.894587 1_555
Na29 O65 2.996063 1_555
Na30 O86 2.508093 1_555
Na30 O85 2.534192 1_455
Na30 O89 2.639615 1_445
Na30 O76 2.694029 1_555
Na30 O72 2.778423 1_445
Na30 O75 2.818456 1_455
Na31 O77 2.549596 1_565
Na31 O73 2.551899 1_555
Na31 O74 2.554347 1_565
Na31 O84 2.610931 1_565
Na31 O88 2.618523 1_555
Na31 O87 2.620920 1_565
Na32 O94 2.457741 1_566
Na32 O91 2.500793 1_456
Na32 O93 2.608895 1_466
Na32 O80 2.694110 1_565
Na32 O78 2.791546 1_465
Na32 O83 2.810906 1_455
Na33 O95 2.511111 1_556
Na33 O90 2.512693 1_546
Na33 O92 2.614139 1_556
Na33 O81 2.696110 1_555
Na33 O79 2.793122 1_555
Na33 O82 2.819310 1_545
Na34 O108 2.439636 1_555
Na34 O112 2.460407 1_555
Na34 O110 2.464972 1_555
Na34 O100 2.576337 1_555
Na34 O98 2.579267 1_555
Na34 O96 2.650147 1_555
Na35 O109 2.435273 1_555
Na35 O113 2.456989 1_555
Na35 O111 2.457172 1_555
Na35 O101 2.576018 1_555
Na35 O99 2.579854 1_555
Na35 O97 2.654053 1_555
Na36 O106 2.500534 1_555
Na36 O116 2.502132 1_555
Na36 O114 2.538629 1_555
Na36 O118 2.555186 1_555
Na36 O102 2.677292 1_555
Na36 O104 2.688419 1_555
Na37 O105 2.472249 1_555
Na37 O115 2.497375 1_555
Na37 O119 2.517794 1_555
Na37 O117 2.554416 1_555
Na37 O103 2.562568 1_555
Na37 O107 2.665225 1_555
Na38 O124 2.567016 1_555
Na38 O122 2.578174 1_555
Na38 O120 2.586352 1_555
Na38 O134 2.597675 1_555
Na38 O132 2.739743 1_555
Na38 O136 2.779507 1_555
Na39 O125 2.556874 1_555
Na39 O123 2.563177 1_555
Na39 O121 2.575506 1_555
Na39 O133 2.607443 1_555
Na39 O137 2.619492 1_555
Na39 O135 2.779996 1_555
Na40 O130 2.522775 1_555
Na40 O126 2.523846 1_555
Na40 O128 2.538187 1_555
Na40 O142 2.720083 1_555
Na40 O138 2.725612 1_555
Na40 O140 2.752810 1_555
Na41 O129 2.531292 1_555
Na41 O127 2.560427 1_555
Na41 O131 2.562114 1_555
Na41 O139 2.689593 1_555
Na41 O143 2.699653 1_555
Na41 O141 2.714675 1_555
La0 O2 2.256580 1_555
La0 O4 2.257484 1_565
La0 O1 2.259342 1_565
La0 O73 2.385055 1_555
La0 O74 2.388164 1_565
La0 O77 2.394333 1_565
La1 O24 2.257442 1_555
La1 O28 2.262751 1_555
La1 O26 2.267077 1_555
La1 O96 2.447262 1_555
La1 O98 2.452237 1_555
La1 O100 2.454065 1_555
La2 O27 2.247782 1_555
La2 O29 2.249755 1_555
La2 O25 2.257636 1_555
La2 O97 2.430377 1_555
La2 O101 2.438410 1_555
La2 O99 2.443783 1_555
La3 O34 2.269153 1_555
La3 O30 2.275814 1_555
La3 O32 2.278990 1_555
La3 O102 2.361995 1_555
La3 O104 2.382189 1_555
La3 O106 2.522153 1_555
La4 O33 2.260330 1_555
La4 O31 2.268268 1_555
La4 O35 2.278196 1_555
La4 O107 2.344089 1_555
La4 O103 2.482657 1_555
La4 O105 2.485030 1_555
La5 O50 2.311993 1_555
La5 O52 2.331209 1_555
La5 O48 2.341091 1_555
La5 O122 2.390545 1_556
La5 O120 2.393808 1_556
La5 O124 2.433186 1_556
La6 O51 2.309771 1_554
La6 O53 2.328914 1_554
La6 O49 2.337950 1_554
La6 O123 2.402767 1_555
La6 O121 2.413767 1_555
La6 O125 2.447360 1_555
La7 O54 2.260820 1_555
La7 O58 2.304852 1_555
La7 O56 2.332586 1_555
La7 O130 2.386625 1_555
La7 O126 2.444160 1_555
La7 O128 2.476050 1_555
La8 O57 2.249272 1_555
La8 O59 2.256652 1_555
La8 O55 2.322984 1_555
La8 O127 2.383221 1_555
La8 O129 2.391940 1_555
La8 O131 2.445229 1_555
Nb0 O5 1.927697 1_555
Nb0 O0 1.931322 1_545
Nb0 O76 1.977713 1_555
Nb0 O3 1.991334 1_445
Nb0 O75 2.002816 1_455
Nb0 O72 2.034886 1_445
Nb1 O9 1.932042 1_545
Nb1 O6 1.938945 1_555
Nb1 O80 1.976524 1_555
Nb1 O11 1.990670 1_445
Nb1 O83 1.996545 1_445
Nb1 O78 2.021132 1_455
Nb2 O8 1.932110 1_545
Nb2 O7 1.937153 1_555
Nb2 O81 1.979071 1_555
Nb2 O10 1.991682 1_545
Nb2 O82 1.995680 1_545
Nb2 O79 2.025220 1_555
Nb3 O16 2.008212 1_555
Nb3 O14 2.010085 1_565
Nb3 O13 2.011901 1_455
Nb3 O89 2.057530 1_455
Nb3 O86 2.060714 1_565
Nb3 O85 2.077996 1_465
Nb4 O12 2.009611 1_555
Nb4 O17 2.021964 1_555
Nb4 O15 2.023532 1_565
Nb4 O84 2.054886 1_565
Nb4 O88 2.055220 1_555
Nb4 O87 2.066900 1_565
Nb5 O20 2.012662 1_655
Nb5 O19 2.014627 1_545
Nb5 O22 2.017451 1_645
Nb5 O93 2.051868 1_555
Nb5 O94 2.070477 1_655
Nb5 O91 2.076038 1_545
Nb6 O18 2.021774 1_545
Nb6 O21 2.022812 1_555
Nb6 O23 2.031434 1_545
Nb6 O92 2.062432 1_555
Nb6 O90 2.082620 1_545
Nb6 O95 2.084099 1_555
Nb7 O38 1.984487 1_556
Nb7 O36 1.995948 1_556
Nb7 O108 2.041658 1_555
Nb7 O40 2.068336 1_556
Nb7 O110 2.087392 1_555
Nb7 O112 2.123119 1_555
Nb8 O39 1.991777 1_556
Nb8 O37 1.998956 1_556
Nb8 O41 2.043028 1_556
Nb8 O109 2.048351 1_555
Nb8 O111 2.088951 1_555
Nb8 O113 2.124293 1_555
Nb9 O42 1.976320 1_555
Nb9 O114 2.021145 1_555
Nb9 O46 2.030879 1_555
Nb9 O44 2.037496 1_555
Nb9 O116 2.094905 1_555
Nb9 O118 2.122326 1_555
Nb10 O47 1.977396 1_555
Nb10 O45 2.023556 1_555
Nb10 O119 2.042924 1_555
Nb10 O43 2.044760 1_555
Nb10 O115 2.097858 1_555
Nb10 O117 2.102891 1_555
Nb11 O62 1.981371 1_555
Nb11 O60 2.008399 1_555
Nb11 O64 2.008565 1_555
Nb11 O132 2.089914 1_555
Nb11 O134 2.098224 1_555
Nb11 O136 2.108830 1_555
Nb12 O61 2.001252 1_555
Nb12 O65 2.018921 1_555
Nb12 O63 2.031560 1_555
Nb12 O137 2.077017 1_555
Nb12 O133 2.086119 1_555
Nb12 O135 2.091298 1_555
Nb13 O70 1.986396 1_555
Nb13 O66 1.987684 1_555
Nb13 O68 1.998241 1_555
Nb13 O138 2.102088 1_555
Nb13 O140 2.111198 1_555
Nb13 O142 2.119149 1_555
Nb14 O67 1.985479 1_555
Nb14 O71 1.986814 1_555
Nb14 O69 1.998177 1_555
Nb14 O139 2.102911 1_555
Nb14 O141 2.111695 1_555
Nb14 O143 2.123900 1_555
O0 Si0 1.620312 1_555
O1 Si1 1.601291 1_545
O2 Si2 1.602280 1_555
O3 Si3 1.611466 1_555
O4 Si5 1.601107 1_555
O5 Si4 1.617231 1_555
O6 Si6 1.614133 1_555
O7 Si7 1.613938 1_555
O8 Si9 1.614717 1_555
O9 Si8 1.611749 1_555
O10 Si10 1.610796 1_555
O11 Si11 1.609912 1_555
O12 Si10 1.691905 1_555
O13 Si11 1.692694 1_555
O14 Si6 1.689161 1_555
O15 Si7 1.685660 1_555
O16 Si8 1.689738 1_555
O17 Si9 1.688898 1_555
O18 Si2 1.719628 1_555
O19 Si3 1.694953 1_555
O20 Si4 1.694935 1_555
O21 Si5 1.716460 1_555
O22 Si0 1.692545 1_555
O23 Si1 1.712241 1_555
O24 Si12 1.617165 1_555
O25 Si13 1.611833 1_555
O26 Si14 1.617541 1_555
O27 Si15 1.613100 1_555
O28 Si16 1.618876 1_555
O29 Si17 1.612628 1_555
O30 Si18 1.605733 1_555
O31 Si19 1.617168 1_555
O32 Si20 1.618602 1_555
O33 Si21 1.609750 1_555
O34 Si22 1.608200 1_555
O35 Si23 1.616972 1_555
O36 Si22 1.704889 1_555
O37 Si23 1.704245 1_555
O38 Si18 1.705829 1_555
O39 Si19 1.704539 1_555
O40 Si20 1.698017 1_555
O41 Si21 1.695411 1_555
O42 Si14 1.706411 1_555
O43 Si15 1.702819 1_555
O44 Si16 1.699521 1_555
O45 Si17 1.701795 1_555
O46 Si12 1.702814 1_555
O47 Si13 1.708323 1_555
O48 Si24 1.604402 1_555
O49 Si25 1.607661 1_555
O50 Si26 1.594834 1_555
O51 Si27 1.595971 1_555
O52 Si28 1.596552 1_555
O53 Si29 1.599488 1_555
O54 Si30 1.602533 1_555
O55 Si31 1.611407 1_555
O56 Si32 1.598946 1_555
O57 Si33 1.603675 1_555
O58 Si34 1.597220 1_555
O59 Si35 1.602734 1_555
O60 Si34 1.690408 1_555
O61 Si35 1.736753 1_555
O62 Si30 1.722217 1_555
O63 Si31 1.706220 1_555
O64 Si32 1.710520 1_555
O65 Si33 1.725418 1_555
O66 Si26 1.708681 1_555
O67 Si27 1.708807 1_555
O68 Si28 1.722881 1_555
O69 Si29 1.722789 1_555
O70 Si24 1.712593 1_555
O71 Si25 1.712659 1_555
O72 Si34 1.644314 1_655
O73 Si35 1.611237 1_555
O74 Si30 1.614417 1_545
O75 Si31 1.633552 1_545
O76 Si32 1.639336 1_555
O77 Si33 1.611955 1_555
O78 Si26 1.645548 1_655
O79 Si27 1.645833 1_555
O80 Si28 1.636214 1_545
O81 Si29 1.635013 1_545
O82 Si24 1.636960 1_555
O83 Si25 1.637637 1_555
O84 Si12 1.676851 1_555
O85 Si13 1.668954 1_555
O86 Si14 1.673122 1_555
O87 Si15 1.673031 1_555
O88 Si16 1.682170 1_555
O89 Si17 1.671461 1_555
O90 Si18 1.677947 1_555
O91 Si19 1.672658 1_555
O92 Si20 1.688195 1_555
O93 Si21 1.682142 1_555
O94 Si22 1.675219 1_555
O95 Si23 1.679283 1_555
O96 Si10 1.622627 1_545
O97 Si11 1.622792 1_545
O98 Si6 1.618979 1_555
O99 Si7 1.619410 1_555
O100 Si9 1.620376 1_555
O101 Si8 1.618007 1_655
O102 Si2 1.610809 1_555
O103 Si3 1.622935 1_555
O104 Si5 1.616354 1_555
O105 Si4 1.614665 1_655
O106 Si0 1.616731 1_545
O107 Si1 1.614871 1_545
O108 Si24 1.646237 1_555
O109 Si25 1.643758 1_555
O110 Si27 1.655053 1_555
O111 Si26 1.654928 1_655
O112 Si28 1.652571 1_545
O113 Si29 1.652184 1_545
O114 Si30 1.659273 1_545
O115 Si31 1.651968 1_545
O116 Si32 1.660026 1_555
O117 Si33 1.661206 1_555
O118 Si35 1.659201 1_555
O119 Si34 1.665355 1_655
O120 Si22 1.613824 1_555
O121 Si23 1.616368 1_555
O122 Si19 1.612797 1_455
O123 Si18 1.615377 1_555
O124 Si20 1.616355 1_565
O125 Si21 1.619128 1_565
O126 Si14 1.614736 1_565
O127 Si15 1.617188 1_565
O128 Si16 1.617625 1_555
O129 Si17 1.618650 1_555
O130 Si13 1.613704 1_455
O131 Si12 1.617988 1_555
O132 Si0 1.662695 1_555
O133 Si1 1.671678 1_555
O134 Si2 1.675560 1_555
O135 Si3 1.665086 1_555
O136 Si4 1.657902 1_555
O137 Si5 1.676144 1_555
O138 Si6 1.667433 1_555
O139 Si7 1.669058 1_555
O140 Si8 1.665562 1_555
O141 Si9 1.668593 1_555
O142 Si10 1.673398 1_555
O143 Si11 1.671331 1_555
