# generated using pymatgen
data_La2(SO4)3
_symmetry_space_group_name_H-M   'P 1'
_cell_length_a   9.68423354
_cell_length_b   9.68423316
_cell_length_c   24.60576719
_cell_angle_alpha   90.00000000
_cell_angle_beta   90.00000000
_cell_angle_gamma   120.00000131
_symmetry_Int_Tables_number   1
_chemical_formula_structural   La2(SO4)3
_chemical_formula_sum   'La12 S18 O72'
_cell_volume   1998.47181481
_cell_formula_units_Z   6
loop_
 _symmetry_equiv_pos_site_id
 _symmetry_equiv_pos_as_xyz
  1  'x, y, z'
loop_
 _atom_site_type_symbol
 _atom_site_label
 _atom_site_symmetry_multiplicity
 _atom_site_fract_x
 _atom_site_fract_y
 _atom_site_fract_z
 _atom_site_occupancy
  La  La0  1  -0.00000000  -0.00000000  0.35505660  1
  La  La1  1  -0.00000000  -0.00000000  0.85505660  1
  La  La2  1  -0.00000000  -0.00000000  0.64494340  1
  La  La3  1  -0.00000000  -0.00000000  0.14494340  1
  La  La4  1  0.66666700  0.33333300  0.68838960  1
  La  La5  1  0.66666700  0.33333300  0.18838960  1
  La  La6  1  0.66666700  0.33333300  0.97827640  1
  La  La7  1  0.66666700  0.33333300  0.47827640  1
  La  La8  1  0.33333300  0.66666700  0.02172360  1
  La  La9  1  0.33333300  0.66666700  0.52172360  1
  La  La10  1  0.33333300  0.66666700  0.31161040  1
  La  La11  1  0.33333300  0.66666700  0.81161040  1
  S  S0  1  0.29211807  -0.00000000  0.25000000  1
  S  S1  1  0.70788193  0.70788193  0.25000000  1
  S  S2  1  1.00000000  0.29211807  0.25000000  1
  S  S3  1  0.29211807  0.29211807  0.75000000  1
  S  S4  1  0.00000000  0.70788193  0.75000000  1
  S  S5  1  0.70788193  -0.00000000  0.75000000  1
  S  S6  1  0.95878507  0.33333300  0.58333300  1
  S  S7  1  0.37454893  0.04121493  0.58333300  1
  S  S8  1  0.66666700  0.62545107  0.58333300  1
  S  S9  1  0.95878507  0.62545107  0.08333300  1
  S  S10  1  0.66666700  0.04121493  0.08333300  1
  S  S11  1  0.37454893  0.33333300  0.08333300  1
  S  S12  1  0.62545107  0.66666700  0.91666700  1
  S  S13  1  0.04121493  0.37454893  0.91666700  1
  S  S14  1  0.33333300  0.95878507  0.91666700  1
  S  S15  1  0.62545107  0.95878507  0.41666700  1
  S  S16  1  0.33333300  0.37454893  0.41666700  1
  S  S17  1  0.04121493  0.66666700  0.41666700  1
  O  O0  1  0.21561788  0.02386541  0.29873816  1
  O  O1  1  0.80824752  0.78438212  0.29873816  1
  O  O2  1  0.97613459  0.19175248  0.29873816  1
  O  O3  1  0.21561788  0.19175248  0.79873816  1
  O  O4  1  0.97613459  0.78438212  0.79873816  1
  O  O5  1  0.80824752  0.02386541  0.79873816  1
  O  O6  1  0.78438212  0.97613459  0.70126184  1
  O  O7  1  0.19175248  0.21561788  0.70126184  1
  O  O8  1  0.02386541  0.80824752  0.70126184  1
  O  O9  1  0.78438212  0.80824752  0.20126184  1
  O  O10  1  0.02386541  0.21561788  0.20126184  1
  O  O11  1  0.19175248  0.97613459  0.20126184  1
  O  O12  1  0.88228488  0.35719841  0.63207116  1
  O  O13  1  0.47491452  0.11771512  0.63207116  1
  O  O14  1  0.64280159  0.52508548  0.63207116  1
  O  O15  1  0.88228488  0.52508548  0.13207116  1
  O  O16  1  0.64280159  0.11771512  0.13207116  1
  O  O17  1  0.47491452  0.35719841  0.13207116  1
  O  O18  1  0.45104912  0.30946759  0.03459484  1
  O  O19  1  0.85841948  0.54895088  0.03459484  1
  O  O20  1  0.69053241  0.14158052  0.03459484  1
  O  O21  1  0.45104912  0.14158052  0.53459484  1
  O  O22  1  0.69053241  0.54895088  0.53459484  1
  O  O23  1  0.85841948  0.30946759  0.53459484  1
  O  O24  1  0.54895088  0.69053241  0.96540516  1
  O  O25  1  0.14158052  0.45104912  0.96540516  1
  O  O26  1  0.30946759  0.85841948  0.96540516  1
  O  O27  1  0.54895088  0.85841948  0.46540516  1
  O  O28  1  0.30946759  0.45104912  0.46540516  1
  O  O29  1  0.14158052  0.69053241  0.46540516  1
  O  O30  1  0.11771512  0.64280159  0.36792884  1
  O  O31  1  0.52508548  0.88228488  0.36792884  1
  O  O32  1  0.35719841  0.47491452  0.36792884  1
  O  O33  1  0.11771512  0.47491452  0.86792884  1
  O  O34  1  0.35719841  0.88228488  0.86792884  1
  O  O35  1  0.52508548  0.64280159  0.86792884  1
  O  O36  1  0.02355588  0.80901636  0.40901112  1
  O  O37  1  0.78546048  0.97644412  0.40901112  1
  O  O38  1  0.19098364  0.21453952  0.40901112  1
  O  O39  1  0.02355588  0.21453952  0.90901112  1
  O  O40  1  0.19098364  0.97644412  0.90901112  1
  O  O41  1  0.78546048  0.80901636  0.90901112  1
  O  O42  1  0.97644412  0.19098364  0.59098888  1
  O  O43  1  0.21453952  0.02355588  0.59098888  1
  O  O44  1  0.80901636  0.78546048  0.59098888  1
  O  O45  1  0.97644412  0.78546048  0.09098888  1
  O  O46  1  0.80901636  0.02355588  0.09098888  1
  O  O47  1  0.21453952  0.19098364  0.09098888  1
  O  O48  1  0.69022288  0.14234936  0.74234412  1
  O  O49  1  0.45212748  0.30977712  0.74234412  1
  O  O50  1  0.85765064  0.54787252  0.74234412  1
  O  O51  1  0.69022288  0.54787252  0.24234412  1
  O  O52  1  0.85765064  0.30977712  0.24234412  1
  O  O53  1  0.45212748  0.14234936  0.24234412  1
  O  O54  1  0.64311112  0.52431664  0.92432188  1
  O  O55  1  0.88120652  0.35688888  0.92432188  1
  O  O56  1  0.47568336  0.11879348  0.92432188  1
  O  O57  1  0.64311112  0.11879348  0.42432188  1
  O  O58  1  0.47568336  0.35688888  0.42432188  1
  O  O59  1  0.88120652  0.52431664  0.42432188  1
  O  O60  1  0.35688888  0.47568336  0.07567812  1
  O  O61  1  0.11879348  0.64311112  0.07567812  1
  O  O62  1  0.52431664  0.88120652  0.07567812  1
  O  O63  1  0.35688888  0.88120652  0.57567812  1
  O  O64  1  0.52431664  0.64311112  0.57567812  1
  O  O65  1  0.11879348  0.47568336  0.57567812  1
  O  O66  1  0.30977712  0.85765064  0.25765588  1
  O  O67  1  0.54787252  0.69022288  0.25765588  1
  O  O68  1  0.14234936  0.45212748  0.25765588  1
  O  O69  1  0.30977712  0.45212748  0.75765588  1
  O  O70  1  0.14234936  0.69022288  0.75765588  1
  O  O71  1  0.54787252  0.85765064  0.75765588  1
loop_
_geom_bond_atom_site_label_1
_geom_bond_atom_site_label_2
_geom_bond_distance
_geom_bond_site_symmetry_2
La0 O38 2.378491 1_555
La0 O36 2.378491 1_545
La0 O37 2.378491 1_445
La0 O1 2.418942 1_445
La0 O0 2.418942 1_555
La0 O2 2.418942 1_455
La1 O39 2.378491 1_555
La1 O41 2.378491 1_445
La1 O40 2.378491 1_545
La1 O4 2.418942 1_445
La1 O3 2.418942 1_555
La1 O5 2.418942 1_455
La2 O44 2.378491 1_445
La2 O42 2.378491 1_455
La2 O43 2.378491 1_555
La2 O7 2.418942 1_555
La2 O6 2.418942 1_445
La2 O8 2.418942 1_545
La3 O45 2.378491 1_445
La3 O47 2.378491 1_555
La3 O46 2.378491 1_455
La3 O10 2.418942 1_555
La3 O9 2.418942 1_445
La3 O11 2.418942 1_545
La4 O50 2.378491 1_555
La4 O48 2.378491 1_555
La4 O49 2.378491 1_555
La4 O13 2.418942 1_555
La4 O12 2.418942 1_555
La4 O14 2.418942 1_555
La5 O51 2.378491 1_555
La5 O53 2.378491 1_555
La5 O52 2.378491 1_555
La5 O16 2.418942 1_555
La5 O15 2.418942 1_555
La5 O17 2.418942 1_555
La6 O56 2.378491 1_555
La6 O54 2.378491 1_555
La6 O55 2.378491 1_555
La6 O19 2.418942 1_556
La6 O18 2.418942 1_556
La6 O20 2.418942 1_556
La7 O57 2.378491 1_555
La7 O59 2.378491 1_555
La7 O58 2.378491 1_555
La7 O22 2.418942 1_555
La7 O21 2.418942 1_555
La7 O23 2.418942 1_555
La8 O62 2.378491 1_555
La8 O60 2.378491 1_555
La8 O61 2.378491 1_555
La8 O25 2.418942 1_554
La8 O24 2.418942 1_554
La8 O26 2.418942 1_554
La9 O63 2.378491 1_555
La9 O65 2.378491 1_555
La9 O64 2.378491 1_555
La9 O28 2.418942 1_555
La9 O27 2.418942 1_555
La9 O29 2.418942 1_555
La10 O68 2.378491 1_555
La10 O66 2.378491 1_555
La10 O67 2.378491 1_555
La10 O31 2.418942 1_555
La10 O30 2.418942 1_555
La10 O32 2.418942 1_555
La11 O69 2.378491 1_555
La11 O71 2.378491 1_555
La11 O70 2.378491 1_555
La11 O34 2.418942 1_555
La11 O33 2.418942 1_555
La11 O35 2.418942 1_555
O0 S0 1.487167 1_555
O1 S1 1.487167 1_555
O2 S2 1.487167 1_555
O3 S3 1.487167 1_555
O4 S4 1.487167 1_655
O5 S5 1.487167 1_555
O6 S5 1.487167 1_565
O7 S3 1.487167 1_555
O8 S4 1.487167 1_555
O9 S1 1.487167 1_555
O10 S2 1.487167 1_455
O11 S0 1.487167 1_565
O12 S6 1.487167 1_555
O13 S7 1.487167 1_555
O14 S8 1.487167 1_555
O15 S9 1.487167 1_555
O16 S10 1.487167 1_555
O17 S11 1.487167 1_555
O18 S11 1.487167 1_555
O19 S9 1.487167 1_555
O20 S10 1.487167 1_555
O21 S7 1.487167 1_555
O22 S8 1.487167 1_555
O23 S6 1.487167 1_555
O24 S12 1.487167 1_555
O25 S13 1.487167 1_555
O26 S14 1.487167 1_555
O27 S15 1.487167 1_555
O28 S16 1.487167 1_555
O29 S17 1.487167 1_555
O30 S17 1.487167 1_555
O31 S15 1.487167 1_555
O32 S16 1.487167 1_555
O33 S13 1.487167 1_555
O34 S14 1.487167 1_555
O35 S12 1.487167 1_555
O36 S17 1.483532 1_555
O37 S15 1.483542 1_555
O38 S16 1.483538 1_555
O39 S13 1.483542 1_555
O40 S14 1.483532 1_555
O41 S12 1.483538 1_555
O42 S6 1.483532 1_555
O43 S7 1.483542 1_555
O44 S8 1.483538 1_555
O45 S9 1.483542 1_555
O46 S10 1.483532 1_555
O47 S11 1.483538 1_555
O48 S5 1.483532 1_555
O49 S3 1.483542 1_555
O50 S4 1.483538 1_655
O51 S1 1.483542 1_555
O52 S2 1.483532 1_555
O53 S0 1.483538 1_555
O54 S12 1.483544 1_555
O55 S13 1.483525 1_655
O56 S14 1.483533 1_545
O57 S15 1.483525 1_545
O58 S16 1.483544 1_555
O59 S17 1.483533 1_655
O60 S11 1.483544 1_555
O61 S9 1.483525 1_455
O62 S10 1.483533 1_565
O63 S7 1.483525 1_565
O64 S8 1.483544 1_555
O65 S6 1.483533 1_455
O66 S0 1.483532 1_565
O67 S1 1.483542 1_555
O68 S2 1.483538 1_455
O69 S3 1.483542 1_555
O70 S4 1.483532 1_555
O71 S5 1.483538 1_565
