# generated using pymatgen
data_Tl6SBr4
_symmetry_space_group_name_H-M   'P 1'
_cell_length_a   9.00879800
_cell_length_b   9.00879800
_cell_length_c   9.56734100
_cell_angle_alpha   90.00000000
_cell_angle_beta   90.00000000
_cell_angle_gamma   90.00000000
_symmetry_Int_Tables_number   1
_chemical_formula_structural   Tl6SBr4
_chemical_formula_sum   'Tl12 S2 Br8'
_cell_volume   776.47048395
_cell_formula_units_Z   2
loop_
 _symmetry_equiv_pos_site_id
 _symmetry_equiv_pos_as_xyz
  1  'x, y, z'
loop_
 _atom_site_type_symbol
 _atom_site_label
 _atom_site_symmetry_multiplicity
 _atom_site_fract_x
 _atom_site_fract_y
 _atom_site_fract_z
 _atom_site_occupancy
  Tl  Tl0  1  0.68681800  0.89418400  0.50000000  1
  Tl  Tl1  1  0.31318200  0.10581600  0.50000000  1
  Tl  Tl2  1  0.60581600  0.81318200  0.00000000  1
  Tl  Tl3  1  0.10581600  0.68681800  0.50000000  1
  Tl  Tl4  1  0.89418400  0.31318200  0.50000000  1
  Tl  Tl5  1  0.18681800  0.60581600  0.00000000  1
  Tl  Tl6  1  0.81318200  0.39418400  0.00000000  1
  Tl  Tl7  1  0.39418400  0.18681800  0.00000000  1
  Tl  Tl8  1  0.00000000  0.00000000  0.80040200  1
  Tl  Tl9  1  0.50000000  0.50000000  0.69959800  1
  Tl  Tl10  1  0.00000000  0.00000000  0.19959800  1
  Tl  Tl11  1  0.50000000  0.50000000  0.30040200  1
  S  S0  1  0.00000000  0.00000000  0.50000000  1
  S  S1  1  0.50000000  0.50000000  0.00000000  1
  Br  Br0  1  0.16993100  0.33006900  0.75000000  1
  Br  Br1  1  0.66993100  0.16993100  0.75000000  1
  Br  Br2  1  0.33006900  0.83006900  0.75000000  1
  Br  Br3  1  0.83006900  0.66993100  0.75000000  1
  Br  Br4  1  0.83006900  0.66993100  0.25000000  1
  Br  Br5  1  0.33006900  0.83006900  0.25000000  1
  Br  Br6  1  0.66993100  0.16993100  0.25000000  1
  Br  Br7  1  0.16993100  0.33006900  0.25000000  1
loop_
_geom_bond_atom_site_label_1
_geom_bond_atom_site_label_2
_geom_bond_distance
_geom_bond_site_symmetry_2
S0 Tl8 2.874048 1_555
S0 Tl10 2.874048 1_555
S0 Tl1 2.978086 1_555
S0 Tl4 2.978086 1_455
S0 Tl3 2.978086 1_545
S0 Tl0 2.978086 1_445
S1 Tl11 2.874048 1_555
S1 Tl9 2.874048 1_554
S1 Tl2 2.978086 1_555
S1 Tl6 2.978086 1_555
S1 Tl7 2.978086 1_555
S1 Tl5 2.978086 1_555
Br0 Tl8 3.379047 1_555
Br0 Tl9 3.379047 1_555
Br0 Tl1 3.386403 1_555
Br0 Tl7 3.386403 1_556
Br0 Tl5 3.451813 1_556
Br0 Tl4 3.451813 1_455
Br1 Tl9 3.379047 1_555
Br1 Tl8 3.379047 1_655
Br1 Tl4 3.386403 1_555
Br1 Tl6 3.386403 1_556
Br1 Tl7 3.451813 1_556
Br1 Tl0 3.451813 1_545
Br2 Tl8 3.379047 1_565
Br2 Tl9 3.379047 1_555
Br2 Tl5 3.386403 1_556
Br2 Tl3 3.386403 1_555
Br2 Tl1 3.451813 1_565
Br2 Tl2 3.451813 1_556
Br3 Tl9 3.379047 1_555
Br3 Tl8 3.379047 1_665
Br3 Tl2 3.386403 1_556
Br3 Tl0 3.386403 1_555
Br3 Tl6 3.451813 1_556
Br3 Tl3 3.451813 1_655
Br4 Tl11 3.379047 1_555
Br4 Tl10 3.379047 1_665
Br4 Tl2 3.386403 1_555
Br4 Tl0 3.386403 1_555
Br4 Tl6 3.451813 1_555
Br4 Tl3 3.451813 1_655
Br5 Tl11 3.379047 1_555
Br5 Tl10 3.379047 1_565
Br5 Tl5 3.386403 1_555
Br5 Tl3 3.386403 1_555
Br5 Tl1 3.451813 1_565
Br5 Tl2 3.451813 1_555
Br6 Tl11 3.379047 1_555
Br6 Tl10 3.379047 1_655
Br6 Tl4 3.386403 1_555
Br6 Tl6 3.386403 1_555
Br6 Tl7 3.451813 1_555
Br6 Tl0 3.451813 1_545
Br7 Tl10 3.379047 1_555
Br7 Tl11 3.379047 1_555
Br7 Tl1 3.386403 1_555
Br7 Tl7 3.386403 1_555
Br7 Tl5 3.451813 1_555
Br7 Tl4 3.451813 1_455
