# generated using pymatgen
data_MgMn5NiO12
_symmetry_space_group_name_H-M   'P 1'
_cell_length_a   5.11738499
_cell_length_b   5.10429667
_cell_length_c   10.08335076
_cell_angle_alpha   83.57952486
_cell_angle_beta   91.55786333
_cell_angle_gamma   121.01335834
_symmetry_Int_Tables_number   1
_chemical_formula_structural   MgMn5NiO12
_chemical_formula_sum   'Mg1 Mn5 Ni1 O12'
_cell_volume   224.17324008
_cell_formula_units_Z   1
loop_
 _symmetry_equiv_pos_site_id
 _symmetry_equiv_pos_as_xyz
  1  'x, y, z'
loop_
 _atom_site_type_symbol
 _atom_site_label
 _atom_site_symmetry_multiplicity
 _atom_site_fract_x
 _atom_site_fract_y
 _atom_site_fract_z
 _atom_site_occupancy
  Mg  Mg0  1  0.68849574  0.09519790  0.75884238  1
  Mn  Mn0  1  0.17608382  0.81471610  0.49873987  1
  Mn  Mn1  1  0.32341131  0.69585662  0.00636733  1
  Mn  Mn2  1  0.50385144  0.47751717  0.49485441  1
  Mn  Mn3  1  0.65466522  0.35891639  0.00634008  1
  Mn  Mn4  1  0.84007933  0.14673786  0.48595039  1
  Ni  Ni0  1  0.99034684  0.02779045  0.00565603  1
  O  O0  1  0.98344041  0.67433170  0.09637822  1
  O  O1  1  0.36856216  0.05517770  0.89461682  1
  O  O2  1  0.17913487  0.51399668  0.39976245  1
  O  O3  1  0.50683904  0.82600513  0.60640999  1
  O  O4  1  0.31364980  0.33479942  0.09659154  1
  O  O5  1  0.15831325  0.12029947  0.59349382  1
  O  O6  1  0.67144472  0.73805200  0.90423644  1
  O  O7  1  0.85133566  0.83432510  0.40086286  1
  O  O8  1  0.51005865  0.13851315  0.39319334  1
  O  O9  1  0.83152880  0.43598106  0.59919316  1
  O  O10  1  0.98829848  0.37089925  0.90420954  1
  O  O11  1  0.62296047  0.00338685  0.10430132  1
loop_
_geom_bond_atom_site_label_1
_geom_bond_atom_site_label_2
_geom_bond_distance
_geom_bond_site_symmetry_2
Mg0 O3 2.047684 1_545
Mg0 O9 2.068510 1_555
Mg0 O1 2.076355 1_555
Mg0 O10 2.144046 1_555
Mg0 O6 2.173825 1_545
Mn0 O8 1.892073 1_565
Mn0 O2 1.928875 1_555
Mn0 O7 1.950888 1_455
Mn0 O5 1.959148 1_565
Mn0 O3 1.964811 1_555
Mn0 O9 2.004689 1_455
Mn1 O11 1.890450 1_565
Mn1 O0 1.931109 1_455
Mn1 O4 1.938873 1_555
Mn1 O1 1.949929 1_564
Mn1 O6 1.983380 1_554
Mn1 O10 2.026847 1_454
Mn2 O7 1.935343 1_555
Mn2 O5 1.951463 1_555
Mn2 O2 1.976760 1_555
Mn2 O9 2.045531 1_555
Mn2 O8 2.121586 1_555
Mn2 O3 2.201850 1_555
Mn3 O11 1.897281 1_555
Mn3 O0 1.923419 1_555
Mn3 O4 1.930970 1_555
Mn3 O1 1.943760 1_554
Mn3 O10 1.988252 1_554
Mn3 O6 2.049486 1_554
Mn4 O8 1.891713 1_555
Mn4 O2 1.909403 1_655
Mn4 O7 1.919806 1_545
Mn4 O3 1.963317 1_545
Mn4 O9 1.982877 1_555
Mn4 O5 1.985936 1_655
Ni0 O4 1.897610 1_655
Ni0 O6 1.912245 1_544
Ni0 O0 1.913114 1_545
Ni0 O10 1.931659 1_554
Ni0 O11 2.090971 1_555
Ni0 O1 2.196184 1_654
