# generated using pymatgen
data_Na5La3Si3Sn(SO8)3
_symmetry_space_group_name_H-M   'P 1'
_cell_length_a   9.54343307
_cell_length_b   9.49756631
_cell_length_c   23.65662088
_cell_angle_alpha   91.21515992
_cell_angle_beta   89.74480531
_cell_angle_gamma   119.74443956
_symmetry_Int_Tables_number   1
_chemical_formula_structural   Na5La3Si3Sn(SO8)3
_chemical_formula_sum   'Na15 La9 Si9 Sn3 S9 O72'
_cell_volume   1861.24978824
_cell_formula_units_Z   3
loop_
 _symmetry_equiv_pos_site_id
 _symmetry_equiv_pos_as_xyz
  1  'x, y, z'
loop_
 _atom_site_type_symbol
 _atom_site_label
 _atom_site_symmetry_multiplicity
 _atom_site_fract_x
 _atom_site_fract_y
 _atom_site_fract_z
 _atom_site_occupancy
  Na  Na0  1  0.65765667  0.01633644  0.26491820  1
  Na  Na1  1  0.99545784  0.61992233  0.24908828  1
  Na  Na2  1  0.63456429  0.65461452  0.74771884  1
  Na  Na3  1  0.35713858  0.00464550  0.76873777  1
  Na  Na4  1  0.66706737  0.94435247  0.58095861  1
  Na  Na5  1  0.97664648  0.68640952  0.92452545  1
  Na  Na6  1  0.68097461  0.99926395  0.90900588  1
  Na  Na7  1  0.95261654  0.31234181  0.40801222  1
  Na  Na8  1  0.69351071  0.68329803  0.43748338  1
  Na  Na9  1  0.99801390  0.95251772  0.50300698  1
  Na  Na10  1  0.00811409  0.96586697  0.99612003  1
  Na  Na11  1  0.63090079  0.31862983  0.83555528  1
  Na  Na12  1  0.67349339  0.31559755  0.34117581  1
  Na  Na13  1  0.25688444  0.59961689  0.16054739  1
  Na  Na14  1  0.33714824  0.61474848  0.67599008  1
  La  La0  1  0.00084719  0.00511125  0.35243846  1
  La  La1  1  0.00906167  0.01798663  0.84896185  1
  La  La2  1  0.00191143  0.00996678  0.65420517  1
  La  La3  1  0.99919981  0.00020880  0.14186182  1
  La  La4  1  0.66733853  0.34303746  0.68742774  1
  La  La5  1  0.67744985  0.34141923  0.17962335  1
  La  La6  1  0.33259127  0.66892730  0.01824037  1
  La  La7  1  0.33072548  0.66907003  0.51667540  1
  La  La8  1  0.31810276  0.66421814  0.32487996  1
  Si  Si0  1  -0.00018023  0.30755660  0.25448630  1
  Si  Si1  1  0.30751220  0.32028780  0.75324773  1
  Si  Si2  1  0.67826475  0.99227589  0.75438724  1
  Si  Si3  1  0.67459280  0.64113460  0.58300489  1
  Si  Si4  1  0.95697645  0.63067634  0.07999474  1
  Si  Si5  1  0.63794598  0.66017506  0.91588520  1
  Si  Si6  1  0.34840460  0.97233299  0.91674148  1
  Si  Si7  1  0.64127069  0.98616976  0.41907360  1
  Si  Si8  1  0.00620441  0.65519411  0.41692788  1
  Sn  Sn0  1  0.66121458  0.34300946  0.97779294  1
  Sn  Sn1  1  0.67340575  0.34529167  0.48381058  1
  Sn  Sn2  1  0.36689995  0.67946812  0.81980618  1
  S  S0  1  0.30724509  0.99252805  0.24911484  1
  S  S1  1  0.68965077  0.70021209  0.25161838  1
  S  S2  1  0.02555813  0.70082138  0.75662551  1
  S  S3  1  0.95239304  0.32016926  0.57684845  1
  S  S4  1  0.37523958  0.05609021  0.57844300  1
  S  S5  1  0.67823151  0.04519590  0.07625466  1
  S  S6  1  0.36764495  0.32117886  0.07663717  1
  S  S7  1  0.01858922  0.37945658  0.91595156  1
  S  S8  1  0.35434575  0.36050603  0.41963834  1
  O  O0  1  0.22636712  0.99855744  0.30192052  1
  O  O1  1  0.77820743  0.77520380  0.30575629  1
  O  O2  1  0.99829310  0.22829169  0.31620577  1
  O  O3  1  0.23542476  0.18313713  0.80181261  1
  O  O4  1  0.99655584  0.76819054  0.80977386  1
  O  O5  1  0.77584804  0.00274560  0.81220446  1
  O  O6  1  0.77383895  0.97298875  0.69842393  1
  O  O7  1  0.20479375  0.24117452  0.69434030  1
  O  O8  1  0.04412601  0.80804488  0.70849062  1
  O  O9  1  0.78865171  0.79685611  0.20362987  1
  O  O10  1  0.99365123  0.18653753  0.20263236  1
  O  O11  1  0.21265189  0.98848454  0.19907706  1
  O  O12  1  0.86462012  0.32620124  0.62703761  1
  O  O13  1  0.44884771  0.13290228  0.63320001  1
  O  O14  1  0.68268016  0.55576857  0.64080531  1
  O  O15  1  0.87229616  0.55839884  0.14184112  1
  O  O16  1  0.68146839  0.12521249  0.13151490  1
  O  O17  1  0.44746310  0.31007528  0.12841366  1
  O  O18  1  0.45909140  0.31920288  0.02468831  1
  O  O19  1  0.83905950  0.51394394  0.02501326  1
  O  O20  1  0.66601830  0.13810119  0.02768292  1
  O  O21  1  0.47572932  0.15691358  0.53013747  1
  O  O22  1  0.67271328  0.53380047  0.52386172  1
  O  O23  1  0.86298980  0.31951572  0.52375373  1
  O  O24  1  0.53863692  0.68387196  0.96634952  1
  O  O25  1  0.10226510  0.44679567  0.96928715  1
  O  O26  1  0.31125966  0.85099828  0.96792477  1
  O  O27  1  0.55569843  0.85317118  0.46918517  1
  O  O28  1  0.33461556  0.43866291  0.47111084  1
  O  O29  1  0.12606489  0.65999814  0.46654531  1
  O  O30  1  0.07499027  0.62898361  0.35552269  1
  O  O31  1  0.54611875  0.91189243  0.35807160  1
  O  O32  1  0.37481387  0.46107051  0.36951994  1
  O  O33  1  0.11271408  0.47559778  0.86655730  1
  O  O34  1  0.38481197  0.88657793  0.85814215  1
  O  O35  1  0.54242200  0.64674718  0.85448596  1
  O  O36  1  0.97235685  0.80848511  0.41918742  1
  O  O37  1  0.83120120  0.02733266  0.41685298  1
  O  O38  1  0.21500993  0.19546103  0.41431217  1
  O  O39  1  0.97453987  0.20585949  0.91162810  1
  O  O40  1  0.19202097  0.99578915  0.90948949  1
  O  O41  1  0.82364398  0.81673549  0.91498733  1
  O  O42  1  0.95392888  0.16385095  0.57500480  1
  O  O43  1  0.21055018  0.03185126  0.57301092  1
  O  O44  1  0.83330691  0.82473760  0.57793328  1
  O  O45  1  0.97576330  0.81108691  0.07301402  1
  O  O46  1  0.82945019  0.03742077  0.07000005  1
  O  O47  1  0.20277096  0.17841799  0.07155522  1
  O  O48  1  0.63379852  0.13852925  0.75131967  1
  O  O49  1  0.50132758  0.37561163  0.74933770  1
  O  O50  1  0.88751578  0.53560021  0.74794118  1
  O  O51  1  0.66399742  0.53234043  0.24904752  1
  O  O52  1  0.83061259  0.32084038  0.25351719  1
  O  O53  1  0.47530104  0.13309104  0.24879649  1
  O  O54  1  0.65464372  0.49288684  0.91895037  1
  O  O55  1  0.85978491  0.38267076  0.91481076  1
  O  O56  1  0.52811330  0.14778839  0.92359415  1
  O  O57  1  0.64977325  0.16502842  0.43006326  1
  O  O58  1  0.50625286  0.35039852  0.42256669  1
  O  O59  1  0.82581367  0.48651232  0.42249094  1
  O  O60  1  0.35931071  0.47218859  0.08031547  1
  O  O61  1  0.12979714  0.63463502  0.08116005  1
  O  O62  1  0.53705499  0.88068498  0.07810321  1
  O  O63  1  0.37362292  0.89816594  0.57591354  1
  O  O64  1  0.51192250  0.66196000  0.58305477  1
  O  O65  1  0.11771612  0.45934703  0.57739024  1
  O  O66  1  0.31824800  0.83977468  0.24743994  1
  O  O67  1  0.53398083  0.70013182  0.25108131  1
  O  O68  1  0.15523362  0.49336916  0.24897244  1
  O  O69  1  0.29996414  0.49052112  0.76493085  1
  O  O70  1  0.18028816  0.69780469  0.76055900  1
  O  O71  1  0.50145756  0.81473640  0.75329936  1
loop_
_geom_bond_atom_site_label_1
_geom_bond_atom_site_label_2
_geom_bond_distance
_geom_bond_site_symmetry_2
Na0 O31 2.448962 1_545
Na0 O53 2.518418 1_555
Na0 O52 2.540391 1_555
Na0 O67 2.638908 1_545
Na0 O66 2.840376 1_545
Na1 O68 2.363919 1_655
Na1 O52 2.476213 1_555
Na1 O30 2.620350 1_655
Na1 O15 2.728014 1_555
Na1 O66 2.733309 1_655
Na1 O51 2.843816 1_555
Na2 O49 2.302287 1_555
Na2 O71 2.418819 1_555
Na2 O35 2.661067 1_555
Na2 O14 2.793888 1_555
Na2 O69 2.805109 1_555
Na2 O6 2.901306 1_555
Na3 O48 2.332162 1_555
Na3 O34 2.489951 1_545
Na3 O70 2.545048 1_545
Na3 O3 2.593226 1_555
Na3 O71 2.777794 1_545
Na3 O8 2.971817 1_545
Na4 O64 2.335093 1_555
Na4 O44 2.365722 1_555
Na4 O42 2.491286 1_565
Na4 O63 2.613636 1_555
Na4 O27 2.808184 1_555
Na4 O6 2.924441 1_555
Na5 O41 2.350164 1_555
Na5 O55 2.529890 1_555
Na5 O40 2.651447 1_655
Na5 O54 2.688468 1_555
Na5 O4 2.819049 1_555
Na5 O19 2.839270 1_556
Na5 O26 2.950102 1_655
Na6 O5 2.453566 1_565
Na6 O39 2.498934 1_565
Na6 O56 2.500781 1_565
Na6 O41 2.689492 1_555
Na6 O34 2.748814 1_555
Na6 O24 2.962539 1_555
Na7 O37 2.371335 1_555
Na7 O2 2.409859 1_555
Na7 O59 2.505334 1_555
Na7 O57 2.566677 1_555
Na7 O23 2.874413 1_555
Na7 O30 2.934329 1_655
Na8 O36 2.356844 1_555
Na8 O22 2.463896 1_555
Na8 O27 2.634501 1_555
Na8 O59 2.742733 1_555
Na8 O58 2.768841 1_555
Na8 O37 2.905669 1_565
Na9 O44 2.293234 1_555
Na9 O36 2.328095 1_555
Na9 O43 2.425877 1_665
Na9 O42 2.791627 1_565
Na9 O37 2.899296 1_565
Na10 O45 2.285463 1_456
Na10 O41 2.495959 1_455
Na10 O40 2.618945 1_555
Na10 O47 2.620386 1_566
Na10 O46 2.737989 1_466
Na11 O54 2.485143 1_555
Na11 O56 2.545279 1_555
Na11 O49 2.591401 1_555
Na11 O48 2.607581 1_555
Na11 O55 2.706734 1_555
Na12 O59 2.449403 1_555
Na12 O57 2.513964 1_555
Na12 O52 2.540414 1_555
Na12 O58 2.614000 1_555
Na12 O53 2.825058 1_555
Na13 O68 2.331363 1_555
Na13 O61 2.357048 1_555
Na13 O60 2.661318 1_555
Na13 O66 2.873568 1_555
Na14 O69 2.372374 1_555
Na14 O71 2.516786 1_555
Na14 O64 2.661521 1_555
Na14 O70 2.818474 1_555
Na14 O65 2.972393 1_555
La0 O37 2.300262 1_455
La0 O2 2.314478 1_455
La0 O36 2.381639 1_445
La0 O1 2.411859 1_445
La0 O38 2.415815 1_555
La0 O0 2.484165 1_545
La1 O3 2.249818 1_555
La1 O5 2.328704 1_455
La1 O40 2.354524 1_545
La1 O39 2.440673 1_455
La1 O41 2.443401 1_445
La1 O4 2.475674 1_445
La2 O7 2.276285 1_555
La2 O6 2.278585 1_445
La2 O44 2.453979 1_445
La2 O8 2.522902 1_545
La2 O42 2.577603 1_455
La2 O43 2.696185 1_555
La3 O10 2.277213 1_555
La3 O45 2.325846 1_545
La3 O9 2.479031 1_545
La3 O47 2.496635 1_655
La3 O11 2.500016 1_645
La3 O46 2.501488 1_555
La4 O14 2.262646 1_555
La4 O49 2.279743 1_555
La4 O48 2.379693 1_555
La4 O13 2.400541 1_555
La4 O12 2.424117 1_555
La4 O50 2.431440 1_555
La5 O15 2.182744 1_555
La5 O16 2.343490 1_555
La5 O52 2.356114 1_555
La5 O17 2.394515 1_555
La5 O51 2.470745 1_555
La5 O53 2.576065 1_555
La6 O26 2.210714 1_554
La6 O24 2.258907 1_554
La6 O61 2.331661 1_555
La6 O62 2.422321 1_555
La6 O25 2.437461 1_554
La6 O60 2.511058 1_555
La7 O29 2.253435 1_555
La7 O27 2.294758 1_555
La7 O64 2.367545 1_555
La7 O63 2.420267 1_555
La7 O28 2.435601 1_555
La7 O65 2.498088 1_555
La8 O30 2.290276 1_555
La8 O68 2.381634 1_555
La8 O31 2.396419 1_555
La8 O32 2.501679 1_555
La8 O66 2.502687 1_555
La8 O67 2.589340 1_555
O0 S0 1.480467 1_555
O1 S1 1.495143 1_555
O2 Si0 1.653578 1_655
O3 Si1 1.630094 1_555
O4 S2 1.485039 1_655
O5 Si2 1.631450 1_545
O6 Si2 1.662214 1_555
O7 Si1 1.644508 1_555
O8 S2 1.494472 1_555
O9 S1 1.482593 1_555
O10 Si0 1.644087 1_655
O11 S0 1.480141 1_555
O12 S3 1.466464 1_555
O13 S4 1.470771 1_555
O14 Si3 1.625742 1_555
O15 Si4 1.657260 1_555
O16 S5 1.490766 1_555
O17 S6 1.478222 1_555
O18 S6 1.509298 1_555
O18 Sn0 2.135769 1_554
O19 Si4 1.703288 1_555
O19 Sn0 1.992487 1_554
O20 S5 1.502903 1_555
O20 Sn0 2.317087 1_554
O21 S4 1.505973 1_555
O21 Sn1 2.162554 1_555
O22 Si3 1.708411 1_555
O22 Sn1 2.010704 1_555
O23 S3 1.519741 1_555
O23 Sn1 2.165837 1_555
O24 Si5 1.601329 1_555
O25 S7 1.451444 1_555
O26 Si6 1.603046 1_555
O27 Si7 1.642907 1_555
O28 S8 1.472237 1_555
O29 Si8 1.626717 1_555
O30 Si8 1.655711 1_555
O31 Si7 1.654585 1_555
O32 S8 1.488950 1_555
O33 S7 1.492677 1_555
O33 Sn2 2.502619 1_555
O34 Si6 1.713014 1_555
O34 Sn2 2.076777 1_555
O35 Si5 1.686907 1_555
O35 Sn2 2.028581 1_555
O36 Si8 1.640126 1_655
O37 Si7 1.654677 1_545
O38 S8 1.471755 1_555
O39 S7 1.486958 1_655
O40 Si6 1.624881 1_555
O41 Si5 1.654800 1_555
O42 S3 1.491685 1_555
O43 S4 1.476915 1_555
O44 Si3 1.654036 1_555
O45 Si4 1.643859 1_555
O46 S5 1.487748 1_555
O47 S6 1.485429 1_555
O48 Si2 1.644463 1_545
O49 Si1 1.655919 1_555
O50 S2 1.475669 1_655
O51 S1 1.488073 1_555
O52 Si0 1.681275 1_655
O53 S0 1.493429 1_545
O54 Si5 1.676679 1_555
O54 Sn0 2.035019 1_555
O55 S7 1.531281 1_655
O55 Sn0 2.289837 1_555
O56 Si6 1.702854 1_545
O56 Sn0 2.066867 1_555
O57 Si7 1.674668 1_545
O57 Sn1 2.031198 1_555
O58 S8 1.501651 1_555
O58 Sn1 2.178643 1_555
O59 Si8 1.678656 1_655
O59 Sn1 2.036362 1_555
O60 S6 1.476054 1_555
O61 Si4 1.631320 1_455
O62 S5 1.473758 1_565
O63 S4 1.492229 1_565
O64 Si3 1.659466 1_555
O65 S3 1.472003 1_455
O66 S0 1.505344 1_555
O67 S1 1.485358 1_555
O68 Si0 1.655917 1_555
O69 Si1 1.670946 1_555
O69 Sn2 2.021078 1_555
O70 S2 1.494426 1_555
O70 Sn2 2.346654 1_555
O71 Si2 1.693048 1_555
O71 Sn2 2.050759 1_555
