# generated using pymatgen
data_Ba5CrN5
_symmetry_space_group_name_H-M   'P 1'
_cell_length_a   7.94728499
_cell_length_b   7.94728702
_cell_length_c   9.48464346
_cell_angle_alpha   76.21473882
_cell_angle_beta   76.21477560
_cell_angle_gamma   96.07790436
_symmetry_Int_Tables_number   1
_chemical_formula_structural   Ba5CrN5
_chemical_formula_sum   'Ba10 Cr2 N10'
_cell_volume   556.56562832
_cell_formula_units_Z   2
loop_
 _symmetry_equiv_pos_site_id
 _symmetry_equiv_pos_as_xyz
  1  'x, y, z'
loop_
 _atom_site_type_symbol
 _atom_site_label
 _atom_site_symmetry_multiplicity
 _atom_site_fract_x
 _atom_site_fract_y
 _atom_site_fract_z
 _atom_site_occupancy
  Ba  Ba0  1  0.38849222  0.38849241  0.38334650  1
  Ba  Ba1  1  0.61150748  0.61150754  0.61665392  1
  Ba  Ba2  1  0.66374373  0.66374432  0.00719918  1
  Ba  Ba3  1  0.33625546  0.33625603  0.99280212  1
  Ba  Ba4  1  0.92521643  0.92521525  0.20142382  1
  Ba  Ba5  1  0.07478449  0.07478391  0.79857610  1
  Ba  Ba6  1  0.56333960  0.09381761  0.75711600  1
  Ba  Ba7  1  0.90618262  0.43666040  0.24288399  1
  Ba  Ba8  1  0.43665946  0.90618228  0.24288380  1
  Ba  Ba9  1  0.09381734  0.56334060  0.75711625  1
  Cr  Cr0  1  0.75755589  0.24244428  -0.00000001  1
  Cr  Cr1  1  0.24244410  0.75755584  0.00000017  1
  N  N0  1  0.65097731  0.65097746  0.31181788  1
  N  N1  1  0.34902225  0.34902277  0.68818231  1
  N  N2  1  0.71733916  0.02494743  0.99182339  1
  N  N3  1  0.97505209  0.28266074  0.00817660  1
  N  N4  1  0.28265912  0.97504794  0.00817649  1
  N  N5  1  0.02495271  0.71734113  0.99182343  1
  N  N6  1  0.38640562  0.73027201  0.83963595  1
  N  N7  1  0.26972835  0.61359471  0.16036379  1
  N  N8  1  0.61359325  0.26972847  0.16036557  1
  N  N9  1  0.73027133  0.38640686  0.83963375  1
loop_
_geom_bond_atom_site_label_1
_geom_bond_atom_site_label_2
_geom_bond_distance
_geom_bond_site_symmetry_2
Ba0 N0 2.625457 1_555
Ba0 N1 2.769641 1_555
Ba0 N8 2.840731 1_555
Ba0 N7 2.840746 1_555
Ba1 N1 2.625457 1_555
Ba1 N0 2.769643 1_555
Ba1 N9 2.840721 1_555
Ba1 N6 2.840744 1_555
Ba2 N2 2.820447 1_564
Ba2 N5 2.820493 1_654
Ba2 N0 2.843674 1_555
Ba2 N6 3.029690 1_554
Ba2 N9 3.029701 1_554
Ba2 N7 3.060474 1_555
Ba2 N8 3.060480 1_555
Ba3 N3 2.820451 1_456
Ba3 N4 2.820490 1_546
Ba3 N1 2.843684 1_555
Ba3 N7 3.029685 1_556
Ba3 N8 3.029689 1_556
Ba3 N6 3.060481 1_555
Ba3 N9 3.060484 1_555
Ba4 N0 2.723127 1_555
Ba4 N5 2.898460 1_654
Ba4 N2 2.898473 1_564
Ba4 N4 2.918969 1_655
Ba4 N3 2.918984 1_565
Ba5 N1 2.723125 1_555
Ba5 N4 2.898461 1_546
Ba5 N3 2.898472 1_456
Ba5 N5 2.918971 1_545
Ba5 N2 2.918983 1_455
Ba6 N4 2.736525 1_546
Ba6 N2 2.759100 1_555
Ba6 N1 2.841184 1_555
Ba6 N6 2.911159 1_545
Ba6 N9 2.913486 1_555
Ba7 N5 2.736527 1_654
Ba7 N3 2.759102 1_555
Ba7 N0 2.841184 1_555
Ba7 N7 2.911161 1_655
Ba7 N8 2.913491 1_555
Ba8 N2 2.736519 1_564
Ba8 N4 2.759102 1_555
Ba8 N0 2.841186 1_555
Ba8 N8 2.911164 1_565
Ba8 N7 2.913485 1_555
Ba9 N3 2.736519 1_456
Ba9 N5 2.759102 1_555
Ba9 N1 2.841186 1_555
Ba9 N9 2.911163 1_455
Ba9 N6 2.913489 1_555
Cr0 N8 1.746388 1_555
Cr0 N9 1.746393 1_554
Cr0 N3 1.747742 1_555
Cr0 N2 1.747747 1_554
Cr1 N7 1.746368 1_555
Cr1 N6 1.746373 1_554
Cr1 N5 1.747703 1_554
Cr1 N4 1.747708 1_555
