# generated using pymatgen
data_Ba2MgMnWO6
_symmetry_space_group_name_H-M   'P 1'
_cell_length_a   6.55666191
_cell_length_b   6.53634063
_cell_length_c   5.94555151
_cell_angle_alpha   63.55260220
_cell_angle_beta   63.06869141
_cell_angle_gamma   52.69089824
_symmetry_Int_Tables_number   1
_chemical_formula_structural   Ba2MgMnWO6
_chemical_formula_sum   'Ba2 Mg1 Mn1 W1 O6'
_cell_volume   175.36473262
_cell_formula_units_Z   1
loop_
 _symmetry_equiv_pos_site_id
 _symmetry_equiv_pos_as_xyz
  1  'x, y, z'
loop_
 _atom_site_type_symbol
 _atom_site_label
 _atom_site_symmetry_multiplicity
 _atom_site_fract_x
 _atom_site_fract_y
 _atom_site_fract_z
 _atom_site_occupancy
  Ba  Ba0  1  0.18977200  0.18909200  0.31300800  1
  Ba  Ba1  1  0.81016300  0.81091600  0.68703100  1
  Mg  Mg0  1  0.50004700  0.49992800  0.99999300  1
  Mn  Mn0  1  0.99992900  0.00005800  0.99996700  1
  W  W0  1  0.50004000  0.50000300  0.49998500  1
  O  O0  1  0.26094000  0.74095800  0.76128900  1
  O  O1  1  0.25576500  0.74431800  0.23825400  1
  O  O2  1  0.74430600  0.25562200  0.76179200  1
  O  O3  1  0.29356100  0.29572300  0.70399800  1
  O  O4  1  0.73903900  0.25908900  0.23871300  1
  O  O5  1  0.70643700  0.70429400  0.29596800  1
loop_
_geom_bond_atom_site_label_1
_geom_bond_atom_site_label_2
_geom_bond_distance
_geom_bond_site_symmetry_2
Ba0 O2 2.876444 1_455
Ba0 O1 2.878957 1_545
Ba0 O0 2.901202 1_545
Ba0 O5 2.905792 1_455
Ba0 O5 2.913699 1_545
Ba0 O4 2.915764 1_455
Ba0 O3 3.131142 1_555
Ba0 Mg0 3.153242 1_554
Ba0 O3 3.186647 1_554
Ba1 O1 2.876848 1_655
Ba1 O2 2.879015 1_565
Ba1 O4 2.901460 1_565
Ba1 O3 2.905925 1_655
Ba1 O3 2.913524 1_565
Ba1 O0 2.916064 1_655
Ba1 O5 3.131225 1_555
Ba1 Mg0 3.153205 1_555
Ba1 O5 3.186317 1_556
Mg0 O2 1.995070 1_555
Mg0 O4 1.995548 1_556
Mg0 O1 1.995666 1_556
Mg0 O0 1.995950 1_555
Mn0 O4 2.058649 1_556
Mn0 O0 2.058673 1_645
Mn0 O2 2.062456 1_555
Mn0 O1 2.063815 1_646
O0 W0 2.081363 1_555
O1 W0 2.116738 1_555
O2 W0 2.117022 1_555
O3 W0 2.085211 1_555
O4 W0 2.081081 1_555
O5 W0 2.084850 1_555
