# generated using pymatgen
data_Pd5Pb3
_symmetry_space_group_name_H-M   'P 1'
_cell_length_a   7.32414557
_cell_length_b   7.32414557
_cell_length_c   7.39319858
_cell_angle_alpha   63.93289762
_cell_angle_beta   63.93289762
_cell_angle_gamma   64.02422305
_symmetry_Int_Tables_number   1
_chemical_formula_structural   Pd5Pb3
_chemical_formula_sum   'Pd10 Pb6'
_cell_volume   304.91973856
_cell_formula_units_Z   2
loop_
 _symmetry_equiv_pos_site_id
 _symmetry_equiv_pos_as_xyz
  1  'x, y, z'
loop_
 _atom_site_type_symbol
 _atom_site_label
 _atom_site_symmetry_multiplicity
 _atom_site_fract_x
 _atom_site_fract_y
 _atom_site_fract_z
 _atom_site_occupancy
  Pd  Pd0  1  0.37883835  0.96370388  0.65768152  1
  Pd  Pd1  1  0.03629612  0.62116165  0.34231848  1
  Pd  Pd2  1  0.79506282  0.04741795  0.40742899  1
  Pd  Pd3  1  0.95258205  0.20493718  0.59257101  1
  Pd  Pd4  1  0.44770852  0.71101423  0.09151622  1
  Pd  Pd5  1  0.28898577  0.55229148  0.90848378  1
  Pd  Pd6  1  0.62243087  0.87860590  0.24895941  1
  Pd  Pd7  1  0.12139410  0.37756913  0.75104059  1
  Pd  Pd8  1  0.20688827  0.13543673  0.16019939  1
  Pd  Pd9  1  0.86456327  0.79311173  0.83980061  1
  Pb  Pb0  1  0.40996789  0.29452210  0.28784459  1
  Pb  Pb1  1  0.70547790  0.59003211  0.71215541  1
  Pb  Pb2  1  0.01173664  0.98826336  0.00000000  1
  Pb  Pb3  1  0.23309646  0.76690354  0.50000000  1
  Pb  Pb4  1  0.83431259  0.46334263  0.21125738  1
  Pb  Pb5  1  0.53665737  0.16568741  0.78874262  1
loop_
_geom_bond_atom_site_label_1
_geom_bond_atom_site_label_2
_geom_bond_distance
_geom_bond_site_symmetry_2
Pd0 Pd6 2.940355 1_555
Pd0 Pd5 2.950460 1_555
Pd0 Pd2 2.962400 1_565
Pd0 Pd3 2.973459 1_465
Pd0 Pd7 2.984665 1_565
Pd0 Pd4 3.058499 1_556
Pd1 Pd7 2.940355 1_555
Pd1 Pd4 2.950460 1_555
Pd1 Pd3 2.962400 1_455
Pd1 Pd2 2.973459 1_465
Pd1 Pd6 2.984665 1_455
Pd1 Pd5 3.058499 1_554
Pd2 Pd6 2.905917 1_545
Pd2 Pd3 2.911570 1_555
Pd2 Pd8 2.945657 1_655
Pd2 Pd9 3.051808 1_545
Pd3 Pd7 2.905917 1_655
Pd3 Pd9 2.945657 1_545
Pd3 Pd8 3.051808 1_655
Pd4 Pd6 2.905161 1_555
Pd4 Pd5 2.912532 1_554
Pd4 Pd9 2.962695 1_554
Pd4 Pd8 2.971374 1_565
Pd5 Pd7 2.905161 1_555
Pd5 Pd8 2.962695 1_556
Pd5 Pd9 2.971374 1_455
Pd6 Pd9 2.943632 1_554
Pd6 Pd8 2.981153 1_565
Pd7 Pd8 2.943632 1_556
Pd7 Pd9 2.981153 1_455
Pb0 Pd0 2.740918 1_545
Pb0 Pd1 2.741970 1_555
Pb0 Pd4 2.825459 1_555
Pb0 Pd6 2.829796 1_545
Pb0 Pd8 2.859821 1_555
Pb0 Pd5 2.877653 1_554
Pb0 Pd2 2.885488 1_555
Pb0 Pd3 3.274424 1_455
Pb0 Pd7 3.302690 1_555
Pb1 Pd1 2.740918 1_655
Pb1 Pd0 2.741970 1_555
Pb1 Pd5 2.825459 1_555
Pb1 Pd7 2.829796 1_655
Pb1 Pd9 2.859821 1_555
Pb1 Pd4 2.877653 1_556
Pb1 Pd3 2.885488 1_555
Pb1 Pd2 3.274424 1_565
Pb1 Pd6 3.302690 1_555
Pb2 Pd1 2.768171 1_555
Pb2 Pd0 2.768171 1_554
Pb2 Pd3 2.850100 1_464
Pb2 Pd2 2.850100 1_465
Pb2 Pd7 2.873583 1_564
Pb2 Pd6 2.873583 1_455
Pb2 Pd8 2.926947 1_565
Pb2 Pd9 2.926947 1_454
Pb2 Pd5 3.128673 1_554
Pb2 Pd4 3.128673 1_555
Pb3 Pd8 2.764819 1_565
Pb3 Pd9 2.764819 1_455
Pb3 Pd5 2.847739 1_555
Pb3 Pd4 2.847739 1_555
Pb3 Pd6 2.881528 1_555
Pb3 Pd7 2.881528 1_555
Pb3 Pd0 2.914484 1_555
Pb3 Pd1 2.914484 1_555
Pb3 Pd3 3.146770 1_465
Pb3 Pd2 3.146770 1_465
Pb4 Pd8 2.739949 1_655
Pb4 Pd9 2.743943 1_554
Pb4 Pd6 2.822539 1_555
Pb4 Pd2 2.825568 1_555
Pb4 Pd1 2.864517 1_655
Pb4 Pd3 2.881098 1_555
Pb4 Pd4 2.895547 1_555
Pb4 Pd5 3.254577 1_654
Pb4 Pd7 3.290377 1_654
Pb5 Pd9 2.739949 1_545
Pb5 Pd8 2.743943 1_556
Pb5 Pd7 2.822539 1_555
Pb5 Pd3 2.825568 1_555
Pb5 Pd0 2.864517 1_545
Pb5 Pd2 2.881098 1_555
Pb5 Pd5 2.895547 1_555
Pb5 Pd4 3.254577 1_546
Pb5 Pd6 3.290377 1_546
