# generated using pymatgen
data_MgTe2Mo2W2(Se2S)2
_symmetry_space_group_name_H-M   'P 1'
_cell_length_a   6.67542800
_cell_length_b   6.67551305
_cell_length_c   76.21839400
_cell_angle_alpha   90.00027184
_cell_angle_beta   89.99999399
_cell_angle_gamma   119.99814401
_symmetry_Int_Tables_number   1
_chemical_formula_structural   MgTe2Mo2W2(Se2S)2
_chemical_formula_sum   'Mg8 Te16 Mo16 W16 Se32 S16'
_cell_volume   2941.45570113
_cell_formula_units_Z   8
loop_
 _symmetry_equiv_pos_site_id
 _symmetry_equiv_pos_as_xyz
  1  'x, y, z'
loop_
 _atom_site_type_symbol
 _atom_site_label
 _atom_site_symmetry_multiplicity
 _atom_site_fract_x
 _atom_site_fract_y
 _atom_site_fract_z
 _atom_site_occupancy
  Mg  Mg0_0  1  0.15702950  0.36416500  0.43054400  1
  Mg  Mg0_1  1  0.15702950  0.36416500  0.93054400  1
  Mg  Mg0_2  1  0.15702950  0.86416500  0.43054400  1
  Mg  Mg0_3  1  0.15702950  0.86416500  0.93054400  1
  Mg  Mg0_4  1  0.65702950  0.36416500  0.43054400  1
  Mg  Mg0_5  1  0.65702950  0.36416500  0.93054400  1
  Mg  Mg0_6  1  0.65702950  0.86416500  0.43054400  1
  Mg  Mg0_7  1  0.65702950  0.86416500  0.93054400  1
  Te  Te0_0  1  0.33332300  0.16664550  0.02203850  1
  Te  Te0_1  1  0.33332300  0.16664550  0.52203850  1
  Te  Te0_2  1  0.33332300  0.66664550  0.02203850  1
  Te  Te0_3  1  0.33332300  0.66664550  0.52203850  1
  Te  Te0_4  1  0.83332300  0.16664550  0.02203850  1
  Te  Te0_5  1  0.83332300  0.16664550  0.52203850  1
  Te  Te0_6  1  0.83332300  0.66664550  0.02203850  1
  Te  Te0_7  1  0.83332300  0.66664550  0.52203850  1
  Te  Te1_0  1  0.33332350  0.16664750  0.07183750  1
  Te  Te1_1  1  0.33332350  0.16664750  0.57183750  1
  Te  Te1_2  1  0.33332350  0.66664750  0.07183750  1
  Te  Te1_3  1  0.33332350  0.66664750  0.57183750  1
  Te  Te1_4  1  0.83332350  0.16664750  0.07183750  1
  Te  Te1_5  1  0.83332350  0.16664750  0.57183750  1
  Te  Te1_6  1  0.83332350  0.66664750  0.07183750  1
  Te  Te1_7  1  0.83332350  0.66664750  0.57183750  1
  Mo  Mo0_0  1  0.16665450  0.33330900  0.04692650  1
  Mo  Mo0_1  1  0.16665450  0.33330900  0.54692650  1
  Mo  Mo0_2  1  0.16665450  0.83330900  0.04692650  1
  Mo  Mo0_3  1  0.16665450  0.83330900  0.54692650  1
  Mo  Mo0_4  1  0.66665450  0.33330900  0.04692650  1
  Mo  Mo0_5  1  0.66665450  0.33330900  0.54692650  1
  Mo  Mo0_6  1  0.66665450  0.83330900  0.04692650  1
  Mo  Mo0_7  1  0.66665450  0.83330900  0.54692650  1
  Mo  Mo1_0  1  0.16665600  0.33331250  0.23483600  1
  Mo  Mo1_1  1  0.16665600  0.33331250  0.73483600  1
  Mo  Mo1_2  1  0.16665600  0.83331250  0.23483600  1
  Mo  Mo1_3  1  0.16665600  0.83331250  0.73483600  1
  Mo  Mo1_4  1  0.66665600  0.33331250  0.23483600  1
  Mo  Mo1_5  1  0.66665600  0.33331250  0.73483600  1
  Mo  Mo1_6  1  0.66665600  0.83331250  0.23483600  1
  Mo  Mo1_7  1  0.66665600  0.83331250  0.73483600  1
  W  W0_0  1  0.33334150  0.16668350  0.14092300  1
  W  W0_1  1  0.33334150  0.16668350  0.64092300  1
  W  W0_2  1  0.33334150  0.66668350  0.14092300  1
  W  W0_3  1  0.33334150  0.66668350  0.64092300  1
  W  W0_4  1  0.83334150  0.16668350  0.14092300  1
  W  W0_5  1  0.83334150  0.16668350  0.64092300  1
  W  W0_6  1  0.83334150  0.66668350  0.14092300  1
  W  W0_7  1  0.83334150  0.66668350  0.64092300  1
  W  W1_0  1  0.33334100  0.16668650  0.32877200  1
  W  W1_1  1  0.33334100  0.16668650  0.82877200  1
  W  W1_2  1  0.33334100  0.66668650  0.32877200  1
  W  W1_3  1  0.33334100  0.66668650  0.82877200  1
  W  W1_4  1  0.83334100  0.16668650  0.32877200  1
  W  W1_5  1  0.83334100  0.16668650  0.82877200  1
  W  W1_6  1  0.83334100  0.66668650  0.32877200  1
  W  W1_7  1  0.83334100  0.66668650  0.82877200  1
  Se  Se0_0  1  0.16667650  0.33335350  0.16290500  1
  Se  Se0_1  1  0.16667650  0.33335350  0.66290500  1
  Se  Se0_2  1  0.16667650  0.83335350  0.16290500  1
  Se  Se0_3  1  0.16667650  0.83335350  0.66290500  1
  Se  Se0_4  1  0.66667650  0.33335350  0.16290500  1
  Se  Se0_5  1  0.66667650  0.33335350  0.66290500  1
  Se  Se0_6  1  0.66667650  0.83335350  0.16290500  1
  Se  Se0_7  1  0.66667650  0.83335350  0.66290500  1
  Se  Se1_0  1  0.33332350  0.16664700  0.21294100  1
  Se  Se1_1  1  0.33332350  0.16664700  0.71294100  1
  Se  Se1_2  1  0.33332350  0.66664700  0.21294100  1
  Se  Se1_3  1  0.33332350  0.66664700  0.71294100  1
  Se  Se1_4  1  0.83332350  0.16664700  0.21294100  1
  Se  Se1_5  1  0.83332350  0.16664700  0.71294100  1
  Se  Se1_6  1  0.83332350  0.66664700  0.21294100  1
  Se  Se1_7  1  0.83332350  0.66664700  0.71294100  1
  Se  Se2_0  1  0.33332450  0.16664900  0.25673200  1
  Se  Se2_1  1  0.33332450  0.16664900  0.75673200  1
  Se  Se2_2  1  0.33332450  0.66664900  0.25673200  1
  Se  Se2_3  1  0.33332450  0.66664900  0.75673200  1
  Se  Se2_4  1  0.83332450  0.16664900  0.25673200  1
  Se  Se2_5  1  0.83332450  0.16664900  0.75673200  1
  Se  Se2_6  1  0.83332450  0.66664900  0.25673200  1
  Se  Se2_7  1  0.83332450  0.66664900  0.75673200  1
  Se  Se3_0  1  0.16667300  0.33334700  0.11893100  1
  Se  Se3_1  1  0.16667300  0.33334700  0.61893100  1
  Se  Se3_2  1  0.16667300  0.83334700  0.11893100  1
  Se  Se3_3  1  0.16667300  0.83334700  0.61893100  1
  Se  Se3_4  1  0.66667300  0.33334700  0.11893100  1
  Se  Se3_5  1  0.66667300  0.33334700  0.61893100  1
  Se  Se3_6  1  0.66667300  0.83334700  0.11893100  1
  Se  Se3_7  1  0.66667300  0.83334700  0.61893100  1
  S  S0_0  1  0.16668200  0.33336200  0.34875000  1
  S  S0_1  1  0.16668200  0.33336200  0.84875000  1
  S  S0_2  1  0.16668200  0.83336200  0.34875000  1
  S  S0_3  1  0.16668200  0.83336200  0.84875000  1
  S  S0_4  1  0.66668200  0.33336200  0.34875000  1
  S  S0_5  1  0.66668200  0.33336200  0.84875000  1
  S  S0_6  1  0.66668200  0.83336200  0.34875000  1
  S  S0_7  1  0.66668200  0.83336200  0.84875000  1
  S  S1_0  1  0.16667950  0.33335700  0.30878350  1
  S  S1_1  1  0.16667950  0.33335700  0.80878350  1
  S  S1_2  1  0.16667950  0.83335700  0.30878350  1
  S  S1_3  1  0.16667950  0.83335700  0.80878350  1
  S  S1_4  1  0.66667950  0.33335700  0.30878350  1
  S  S1_5  1  0.66667950  0.33335700  0.80878350  1
  S  S1_6  1  0.66667950  0.83335700  0.30878350  1
  S  S1_7  1  0.66667950  0.83335700  0.80878350  1
loop_
_geom_bond_atom_site_label_1
_geom_bond_atom_site_label_2
_geom_bond_distance
_geom_bond_site_symmetry_2
Mg0_0 Mg0_4 3.337714 1_455
Mg0_0 Mg0_4 3.337714 1_555
Mg0_0 Mg0_2 3.337757 1_555
Mg0_0 Mg0_2 3.337757 1_545
Mg0_0 Mg0_6 3.337829 1_445
Mg0_0 Mg0_6 3.337829 1_555
Mg0_1 Mg0_5 3.337714 1_555
Mg0_1 Mg0_5 3.337714 1_455
Mg0_1 Mg0_3 3.337757 1_545
Mg0_1 Mg0_3 3.337757 1_555
Mg0_1 Mg0_7 3.337829 1_555
Mg0_1 Mg0_7 3.337829 1_445
Mg0_2 Mg0_6 3.337714 1_455
Mg0_2 Mg0_6 3.337714 1_555
Mg0_2 Mg0_4 3.337829 1_455
Mg0_2 Mg0_4 3.337829 1_565
Mg0_3 Mg0_7 3.337714 1_455
Mg0_3 Mg0_7 3.337714 1_555
Mg0_3 Mg0_5 3.337829 1_565
Mg0_3 Mg0_5 3.337829 1_455
Mg0_4 Mg0_6 3.337757 1_555
Mg0_4 Mg0_6 3.337757 1_545
Mg0_5 Mg0_7 3.337757 1_545
Mg0_5 Mg0_7 3.337757 1_555
Mo0_0 Te0_0 2.704014 1_555
Mo0_0 Te0_4 2.704042 1_455
Mo0_0 Te0_2 2.704091 1_555
Mo0_0 Te1_0 2.705245 1_555
Mo0_0 Te1_4 2.705277 1_455
Mo0_0 Te1_2 2.705314 1_555
Mo0_1 Te0_1 2.704014 1_555
Mo0_1 Te0_5 2.704042 1_455
Mo0_1 Te0_3 2.704091 1_555
Mo0_1 Te1_1 2.705245 1_555
Mo0_1 Te1_5 2.705277 1_455
Mo0_1 Te1_3 2.705314 1_555
Mo0_2 Te0_2 2.704014 1_555
Mo0_2 Te0_6 2.704042 1_455
Mo0_2 Te0_0 2.704091 1_565
Mo0_2 Te1_2 2.705245 1_555
Mo0_2 Te1_6 2.705277 1_455
Mo0_2 Te1_0 2.705314 1_565
Mo0_3 Te0_3 2.704014 1_555
Mo0_3 Te0_7 2.704042 1_455
Mo0_3 Te0_1 2.704091 1_565
Mo0_3 Te1_3 2.705245 1_555
Mo0_3 Te1_7 2.705277 1_455
Mo0_3 Te1_1 2.705314 1_565
Mo0_4 Te0_4 2.704014 1_555
Mo0_4 Te0_0 2.704042 1_555
Mo0_4 Te0_6 2.704091 1_555
Mo0_4 Te1_4 2.705245 1_555
Mo0_4 Te1_0 2.705277 1_555
Mo0_4 Te1_6 2.705314 1_555
Mo0_5 Te0_5 2.704014 1_555
Mo0_5 Te0_1 2.704042 1_555
Mo0_5 Te0_7 2.704091 1_555
Mo0_5 Te1_5 2.705245 1_555
Mo0_5 Te1_1 2.705277 1_555
Mo0_5 Te1_7 2.705314 1_555
Mo0_6 Te0_6 2.704014 1_555
Mo0_6 Te0_2 2.704042 1_555
Mo0_6 Te0_4 2.704091 1_565
Mo0_6 Te1_6 2.705245 1_555
Mo0_6 Te1_2 2.705277 1_555
Mo0_6 Te1_4 2.705314 1_565
Mo0_7 Te0_7 2.704014 1_555
Mo0_7 Te0_3 2.704042 1_555
Mo0_7 Te0_5 2.704091 1_565
Mo0_7 Te1_7 2.705245 1_555
Mo0_7 Te1_3 2.705277 1_555
Mo0_7 Te1_5 2.705314 1_565
Mo1_0 Se1_0 2.549176 1_555
Mo1_0 Se1_4 2.549205 1_455
Mo1_0 Se2_0 2.549228 1_555
Mo1_0 Se1_2 2.549243 1_555
Mo1_0 Se2_4 2.549257 1_455
Mo1_0 Se2_2 2.549288 1_555
Mo1_1 Se1_1 2.549176 1_555
Mo1_1 Se1_5 2.549205 1_455
Mo1_1 Se2_1 2.549228 1_555
Mo1_1 Se1_3 2.549243 1_555
Mo1_1 Se2_5 2.549257 1_455
Mo1_1 Se2_3 2.549288 1_555
Mo1_2 Se1_2 2.549176 1_555
Mo1_2 Se1_6 2.549205 1_455
Mo1_2 Se2_2 2.549228 1_555
Mo1_2 Se1_0 2.549243 1_565
Mo1_2 Se2_6 2.549257 1_455
Mo1_2 Se2_0 2.549288 1_565
Mo1_3 Se1_3 2.549176 1_555
Mo1_3 Se1_7 2.549205 1_455
Mo1_3 Se2_3 2.549228 1_555
Mo1_3 Se1_1 2.549243 1_565
Mo1_3 Se2_7 2.549257 1_455
Mo1_3 Se2_1 2.549288 1_565
Mo1_4 Se1_4 2.549176 1_555
Mo1_4 Se1_0 2.549205 1_555
Mo1_4 Se2_4 2.549228 1_555
Mo1_4 Se1_6 2.549243 1_555
Mo1_4 Se2_0 2.549257 1_555
Mo1_4 Se2_6 2.549288 1_555
Mo1_5 Se1_5 2.549176 1_555
Mo1_5 Se1_1 2.549205 1_555
Mo1_5 Se2_5 2.549228 1_555
Mo1_5 Se1_7 2.549243 1_555
Mo1_5 Se2_1 2.549257 1_555
Mo1_5 Se2_7 2.549288 1_555
Mo1_6 Se1_6 2.549176 1_555
Mo1_6 Se1_2 2.549205 1_555
Mo1_6 Se2_6 2.549228 1_555
Mo1_6 Se1_4 2.549243 1_565
Mo1_6 Se2_2 2.549257 1_555
Mo1_6 Se2_4 2.549288 1_565
Mo1_7 Se1_7 2.549176 1_555
Mo1_7 Se1_3 2.549205 1_555
Mo1_7 Se2_7 2.549228 1_555
Mo1_7 Se1_5 2.549243 1_565
Mo1_7 Se2_3 2.549257 1_555
Mo1_7 Se2_5 2.549288 1_565
Se0_0 W0_0 2.553530 1_555
Se0_0 W0_4 2.553562 1_455
Se0_0 W0_2 2.553569 1_555
Se0_1 W0_1 2.553530 1_555
Se0_1 W0_5 2.553562 1_455
Se0_1 W0_3 2.553569 1_555
Se0_2 W0_2 2.553530 1_555
Se0_2 W0_6 2.553562 1_455
Se0_2 W0_0 2.553569 1_565
Se0_3 W0_3 2.553530 1_555
Se0_3 W0_7 2.553562 1_455
Se0_3 W0_1 2.553569 1_565
Se0_4 W0_4 2.553530 1_555
Se0_4 W0_0 2.553562 1_555
Se0_4 W0_6 2.553569 1_555
Se0_5 W0_5 2.553530 1_555
Se0_5 W0_1 2.553562 1_555
Se0_5 W0_7 2.553569 1_555
Se0_6 W0_6 2.553530 1_555
Se0_6 W0_2 2.553562 1_555
Se0_6 W0_4 2.553569 1_565
Se0_7 W0_7 2.553530 1_555
Se0_7 W0_3 2.553562 1_555
Se0_7 W0_5 2.553569 1_565
Se3_0 W0_0 2.554024 1_555
Se3_0 W0_4 2.554054 1_455
Se3_0 W0_2 2.554084 1_555
Se3_1 W0_1 2.554024 1_555
Se3_1 W0_5 2.554054 1_455
Se3_1 W0_3 2.554084 1_555
Se3_2 W0_2 2.554024 1_555
Se3_2 W0_6 2.554054 1_455
Se3_2 W0_0 2.554084 1_565
Se3_3 W0_3 2.554024 1_555
Se3_3 W0_7 2.554054 1_455
Se3_3 W0_1 2.554084 1_565
Se3_4 W0_4 2.554024 1_555
Se3_4 W0_0 2.554054 1_555
Se3_4 W0_6 2.554084 1_555
Se3_5 W0_5 2.554024 1_555
Se3_5 W0_1 2.554054 1_555
Se3_5 W0_7 2.554084 1_555
Se3_6 W0_6 2.554024 1_555
Se3_6 W0_2 2.554054 1_555
Se3_6 W0_4 2.554084 1_565
Se3_7 W0_7 2.554024 1_555
Se3_7 W0_3 2.554054 1_555
Se3_7 W0_5 2.554084 1_565
S0_0 W1_0 2.456017 1_555
S0_0 W1_2 2.456034 1_555
S0_0 W1_4 2.456080 1_455
S0_1 W1_1 2.456017 1_555
S0_1 W1_3 2.456034 1_555
S0_1 W1_5 2.456080 1_455
S0_2 W1_2 2.456017 1_555
S0_2 W1_0 2.456034 1_565
S0_2 W1_6 2.456080 1_455
S0_3 W1_3 2.456017 1_555
S0_3 W1_1 2.456034 1_565
S0_3 W1_7 2.456080 1_455
S0_4 W1_4 2.456017 1_555
S0_4 W1_6 2.456034 1_555
S0_4 W1_0 2.456080 1_555
S0_5 W1_5 2.456017 1_555
S0_5 W1_7 2.456034 1_555
S0_5 W1_1 2.456080 1_555
S0_6 W1_6 2.456017 1_555
S0_6 W1_4 2.456034 1_565
S0_6 W1_2 2.456080 1_555
S0_7 W1_7 2.456017 1_555
S0_7 W1_5 2.456034 1_565
S0_7 W1_3 2.456080 1_555
S1_0 W1_0 2.456509 1_555
S1_0 W1_2 2.456540 1_555
S1_0 W1_4 2.456571 1_455
S1_1 W1_1 2.456509 1_555
S1_1 W1_3 2.456540 1_555
S1_1 W1_5 2.456571 1_455
S1_2 W1_2 2.456509 1_555
S1_2 W1_0 2.456540 1_565
S1_2 W1_6 2.456571 1_455
S1_3 W1_3 2.456509 1_555
S1_3 W1_1 2.456540 1_565
S1_3 W1_7 2.456571 1_455
S1_4 W1_4 2.456509 1_555
S1_4 W1_6 2.456540 1_555
S1_4 W1_0 2.456571 1_555
S1_5 W1_5 2.456509 1_555
S1_5 W1_7 2.456540 1_555
S1_5 W1_1 2.456571 1_555
S1_6 W1_6 2.456509 1_555
S1_6 W1_4 2.456540 1_565
S1_6 W1_2 2.456571 1_555
S1_7 W1_7 2.456509 1_555
S1_7 W1_5 2.456540 1_565
S1_7 W1_3 2.456571 1_555
