# generated using pymatgen
data_YbIn2Pd
_symmetry_space_group_name_H-M   'P 1'
_cell_length_a   4.45682038
_cell_length_b   5.65798078
_cell_length_c   7.40016564
_cell_angle_alpha   90.00000000
_cell_angle_beta   90.00000000
_cell_angle_gamma   113.19442446
_symmetry_Int_Tables_number   1
_chemical_formula_structural   YbIn2Pd
_chemical_formula_sum   'Yb2 In4 Pd2'
_cell_volume   171.52428418
_cell_formula_units_Z   2
loop_
 _symmetry_equiv_pos_site_id
 _symmetry_equiv_pos_as_xyz
  1  'x, y, z'
loop_
 _atom_site_type_symbol
 _atom_site_label
 _atom_site_symmetry_multiplicity
 _atom_site_fract_x
 _atom_site_fract_y
 _atom_site_fract_z
 _atom_site_occupancy
  Yb  Yb0  1  0.92618636  0.85237272  0.25000000  1
  Yb  Yb1  1  0.07381364  0.14762728  0.75000000  1
  In  In0  1  0.36269619  0.72539238  0.54812372  1
  In  In1  1  0.63730381  0.27460762  0.45187628  1
  In  In2  1  0.36269619  0.72539238  0.95187628  1
  In  In3  1  0.63730381  0.27460762  0.04812372  1
  Pd  Pd0  1  0.79258785  0.58517570  0.75000000  1
  Pd  Pd1  1  0.20741215  0.41482430  0.25000000  1
loop_
_geom_bond_atom_site_label_1
_geom_bond_atom_site_label_2
_geom_bond_distance
_geom_bond_site_symmetry_2
In0 Pd1 2.734211 1_555
In0 Pd0 2.780173 1_555
In0 Pd0 2.780174 1_455
In0 In1 2.943750 1_565
In0 In2 2.987836 1_555
In0 Yb0 3.204541 1_455
In0 Yb0 3.204541 1_555
In0 In1 3.311983 1_555
In0 In1 3.311983 1_455
In0 Yb1 3.355651 1_555
In0 Yb1 3.466928 1_565
In0 Yb1 3.466929 1_665
In1 Pd0 2.734211 1_555
In1 Pd1 2.780173 1_555
In1 Pd1 2.780174 1_655
In1 In3 2.987836 1_555
In1 Yb1 3.204541 1_655
In1 Yb1 3.204541 1_555
In1 Yb0 3.355651 1_555
In1 Yb0 3.466928 1_545
In1 Yb0 3.466929 1_445
In2 Pd1 2.734211 1_556
In2 Pd0 2.780173 1_555
In2 Pd0 2.780174 1_455
In2 In3 2.943750 1_566
In2 Yb0 3.204541 1_456
In2 Yb0 3.204541 1_556
In2 In3 3.311983 1_556
In2 In3 3.311983 1_456
In2 Yb1 3.355651 1_555
In2 Yb1 3.466928 1_565
In2 Yb1 3.466929 1_665
In3 Pd0 2.734211 1_554
In3 Pd1 2.780173 1_555
In3 Pd1 2.780174 1_655
In3 Yb1 3.204541 1_654
In3 Yb1 3.204541 1_554
In3 Yb0 3.355651 1_555
In3 Yb0 3.466928 1_545
In3 Yb0 3.466929 1_445
Pd0 Yb1 2.925123 1_665
Pd0 Yb1 3.184951 1_655
Pd0 Yb1 3.184951 1_555
Pd1 Yb0 2.925123 1_445
Pd1 Yb0 3.184951 1_455
Pd1 Yb0 3.184951 1_555
