# generated using pymatgen
data_PuGa2
_symmetry_space_group_name_H-M   'P 1'
_cell_length_a   9.03732602
_cell_length_b   9.03732540
_cell_length_c   6.84313018
_cell_angle_alpha   90.00000000
_cell_angle_beta   90.00000000
_cell_angle_gamma   119.99999488
_symmetry_Int_Tables_number   1
_chemical_formula_structural   PuGa2
_chemical_formula_sum   'Pu8 Ga16'
_cell_volume   484.02224909
_cell_formula_units_Z   8
loop_
 _symmetry_equiv_pos_site_id
 _symmetry_equiv_pos_as_xyz
  1  'x, y, z'
loop_
 _atom_site_type_symbol
 _atom_site_label
 _atom_site_symmetry_multiplicity
 _atom_site_fract_x
 _atom_site_fract_y
 _atom_site_fract_z
 _atom_site_occupancy
  Pu  Pu0_0  1  0.00000000  0.00000000  0.00000000  1
  Pu  Pu0_1  1  0.00000000  0.00000000  0.50000000  1
  Pu  Pu0_2  1  0.00000000  0.50000000  0.00000000  1
  Pu  Pu0_3  1  0.00000000  0.50000000  0.50000000  1
  Pu  Pu0_4  1  0.50000000  0.00000000  0.00000000  1
  Pu  Pu0_5  1  0.50000000  0.00000000  0.50000000  1
  Pu  Pu0_6  1  0.50000000  0.50000000  0.00000000  1
  Pu  Pu0_7  1  0.50000000  0.50000000  0.50000000  1
  Ga  Ga0_0  1  0.16666650  0.33333350  0.25000000  1
  Ga  Ga0_1  1  0.16666650  0.33333350  0.75000000  1
  Ga  Ga0_2  1  0.16666650  0.83333350  0.25000000  1
  Ga  Ga0_3  1  0.16666650  0.83333350  0.75000000  1
  Ga  Ga0_4  1  0.66666650  0.33333350  0.25000000  1
  Ga  Ga0_5  1  0.66666650  0.33333350  0.75000000  1
  Ga  Ga0_6  1  0.66666650  0.83333350  0.25000000  1
  Ga  Ga0_7  1  0.66666650  0.83333350  0.75000000  1
  Ga  Ga1_0  1  0.33333350  0.16666650  0.25000000  1
  Ga  Ga1_1  1  0.33333350  0.16666650  0.75000000  1
  Ga  Ga1_2  1  0.33333350  0.66666650  0.25000000  1
  Ga  Ga1_3  1  0.33333350  0.66666650  0.75000000  1
  Ga  Ga1_4  1  0.83333350  0.16666650  0.25000000  1
  Ga  Ga1_5  1  0.83333350  0.16666650  0.75000000  1
  Ga  Ga1_6  1  0.83333350  0.66666650  0.25000000  1
  Ga  Ga1_7  1  0.83333350  0.66666650  0.75000000  1
loop_
_geom_bond_atom_site_label_1
_geom_bond_atom_site_label_2
_geom_bond_distance
_geom_bond_site_symmetry_2
Pu0_0 Pu0_1 3.421565 1_555
Pu0_0 Pu0_1 3.421565 1_554
Pu0_2 Pu0_3 3.421565 1_555
Pu0_2 Pu0_3 3.421565 1_554
Pu0_4 Pu0_5 3.421565 1_555
Pu0_4 Pu0_5 3.421565 1_554
Pu0_6 Pu0_7 3.421565 1_554
Pu0_6 Pu0_7 3.421565 1_555
Ga0_0 Ga1_2 2.608849 1_555
Ga0_0 Ga1_4 2.608849 1_455
Ga0_0 Ga1_0 2.608856 1_555
Ga0_0 Pu0_2 3.119754 1_555
Ga0_0 Pu0_3 3.119754 1_555
Ga0_0 Pu0_0 3.119758 1_555
Ga0_0 Pu0_1 3.119758 1_555
Ga0_0 Pu0_7 3.119758 1_555
Ga0_0 Pu0_6 3.119758 1_555
Ga0_1 Ga1_3 2.608849 1_555
Ga0_1 Ga1_5 2.608849 1_455
Ga0_1 Ga1_1 2.608856 1_555
Ga0_1 Pu0_3 3.119754 1_555
Ga0_1 Pu0_2 3.119754 1_556
Ga0_1 Pu0_0 3.119758 1_556
Ga0_1 Pu0_1 3.119758 1_555
Ga0_1 Pu0_7 3.119758 1_555
Ga0_1 Pu0_6 3.119758 1_556
Ga0_2 Ga1_0 2.608849 1_565
Ga0_2 Ga1_6 2.608849 1_455
Ga0_2 Ga1_2 2.608856 1_555
Ga0_2 Pu0_0 3.119754 1_565
Ga0_2 Pu0_1 3.119754 1_565
Ga0_2 Pu0_2 3.119758 1_555
Ga0_2 Pu0_3 3.119758 1_555
Ga0_2 Pu0_5 3.119758 1_565
Ga0_2 Pu0_4 3.119758 1_565
Ga0_3 Ga1_1 2.608849 1_565
Ga0_3 Ga1_7 2.608849 1_455
Ga0_3 Ga1_3 2.608856 1_555
Ga0_3 Pu0_1 3.119754 1_565
Ga0_3 Pu0_0 3.119754 1_566
Ga0_3 Pu0_2 3.119758 1_556
Ga0_3 Pu0_3 3.119758 1_555
Ga0_3 Pu0_5 3.119758 1_565
Ga0_3 Pu0_4 3.119758 1_566
Ga0_4 Ga1_6 2.608849 1_555
Ga0_4 Ga1_0 2.608849 1_555
Ga0_4 Ga1_4 2.608856 1_555
Ga0_4 Pu0_6 3.119754 1_555
Ga0_4 Pu0_7 3.119754 1_555
Ga0_4 Pu0_5 3.119758 1_555
Ga0_4 Pu0_4 3.119758 1_555
Ga0_4 Pu0_3 3.119758 1_655
Ga0_4 Pu0_2 3.119758 1_655
Ga0_5 Ga1_7 2.608849 1_555
Ga0_5 Ga1_1 2.608849 1_555
Ga0_5 Ga1_5 2.608856 1_555
Ga0_5 Pu0_7 3.119754 1_555
Ga0_5 Pu0_6 3.119754 1_556
Ga0_5 Pu0_5 3.119758 1_555
Ga0_5 Pu0_4 3.119758 1_556
Ga0_5 Pu0_3 3.119758 1_655
Ga0_5 Pu0_2 3.119758 1_656
Ga0_6 Ga1_4 2.608849 1_565
Ga0_6 Ga1_2 2.608849 1_555
Ga0_6 Ga1_6 2.608856 1_555
Ga0_6 Pu0_5 3.119754 1_565
Ga0_6 Pu0_4 3.119754 1_565
Ga0_6 Pu0_7 3.119758 1_555
Ga0_6 Pu0_6 3.119758 1_555
Ga0_6 Pu0_0 3.119758 1_665
Ga0_6 Pu0_1 3.119758 1_665
Ga0_7 Ga1_5 2.608849 1_565
Ga0_7 Ga1_3 2.608849 1_555
Ga0_7 Ga1_7 2.608856 1_555
Ga0_7 Pu0_4 3.119754 1_566
Ga0_7 Pu0_5 3.119754 1_565
Ga0_7 Pu0_7 3.119758 1_555
Ga0_7 Pu0_6 3.119758 1_556
Ga0_7 Pu0_1 3.119758 1_665
Ga0_7 Pu0_0 3.119758 1_666
Ga1_0 Pu0_5 3.119754 1_555
Ga1_0 Pu0_4 3.119754 1_555
Ga1_0 Pu0_6 3.119758 1_555
Ga1_0 Pu0_7 3.119758 1_555
Ga1_0 Pu0_0 3.119758 1_555
Ga1_0 Pu0_1 3.119758 1_555
Ga1_1 Pu0_4 3.119754 1_556
Ga1_1 Pu0_5 3.119754 1_555
Ga1_1 Pu0_6 3.119758 1_556
Ga1_1 Pu0_7 3.119758 1_555
Ga1_1 Pu0_0 3.119758 1_556
Ga1_1 Pu0_1 3.119758 1_555
Ga1_2 Pu0_6 3.119754 1_555
Ga1_2 Pu0_7 3.119754 1_555
Ga1_2 Pu0_5 3.119758 1_565
Ga1_2 Pu0_4 3.119758 1_565
Ga1_2 Pu0_2 3.119758 1_555
Ga1_2 Pu0_3 3.119758 1_555
Ga1_3 Pu0_7 3.119754 1_555
Ga1_3 Pu0_6 3.119754 1_556
Ga1_3 Pu0_5 3.119758 1_565
Ga1_3 Pu0_4 3.119758 1_566
Ga1_3 Pu0_2 3.119758 1_556
Ga1_3 Pu0_3 3.119758 1_555
Ga1_4 Pu0_1 3.119754 1_655
Ga1_4 Pu0_0 3.119754 1_655
Ga1_4 Pu0_2 3.119758 1_655
Ga1_4 Pu0_3 3.119758 1_655
Ga1_4 Pu0_4 3.119758 1_555
Ga1_4 Pu0_5 3.119758 1_555
Ga1_5 Pu0_1 3.119754 1_655
Ga1_5 Pu0_0 3.119754 1_656
Ga1_5 Pu0_2 3.119758 1_656
Ga1_5 Pu0_3 3.119758 1_655
Ga1_5 Pu0_5 3.119758 1_555
Ga1_5 Pu0_4 3.119758 1_556
Ga1_6 Pu0_2 3.119754 1_655
Ga1_6 Pu0_3 3.119754 1_655
Ga1_6 Pu0_1 3.119758 1_665
Ga1_6 Pu0_0 3.119758 1_665
Ga1_6 Pu0_6 3.119758 1_555
Ga1_6 Pu0_7 3.119758 1_555
Ga1_7 Pu0_2 3.119754 1_656
Ga1_7 Pu0_3 3.119754 1_655
Ga1_7 Pu0_1 3.119758 1_665
Ga1_7 Pu0_0 3.119758 1_666
Ga1_7 Pu0_7 3.119758 1_555
Ga1_7 Pu0_6 3.119758 1_556
