# generated using pymatgen
data_MgCu6OF11
_symmetry_space_group_name_H-M   'P 1'
_cell_length_a   5.67316726
_cell_length_b   4.73132073
_cell_length_c   8.76310604
_cell_angle_alpha   89.89879462
_cell_angle_beta   90.63086944
_cell_angle_gamma   94.42081351
_symmetry_Int_Tables_number   1
_chemical_formula_structural   MgCu6OF11
_chemical_formula_sum   'Mg1 Cu6 O1 F11'
_cell_volume   234.50143387
_cell_formula_units_Z   1
loop_
 _symmetry_equiv_pos_site_id
 _symmetry_equiv_pos_as_xyz
  1  'x, y, z'
loop_
 _atom_site_type_symbol
 _atom_site_label
 _atom_site_symmetry_multiplicity
 _atom_site_fract_x
 _atom_site_fract_y
 _atom_site_fract_z
 _atom_site_occupancy
  Mg  Mg0  1  0.99015100  0.31790400  0.24597500  1
  Cu  Cu0  1  0.99813100  0.97233300  0.97148200  1
  Cu  Cu1  1  0.49567100  0.55195300  0.02979800  1
  Cu  Cu2  1  0.36848000  0.96168600  0.31360400  1
  Cu  Cu3  1  0.69791200  0.64971200  0.40639400  1
  Cu  Cu4  1  0.18065300  0.49384600  0.66692800  1
  Cu  Cu5  1  0.66588700  0.00608600  0.67929500  1
  O  O0  1  0.51421800  0.67120000  0.23286100  1
  F  F0  1  0.23795200  0.20193500  0.09712900  1
  F  F1  1  0.01619000  0.73433000  0.25789400  1
  F  F2  1  0.78547700  0.23123300  0.06876500  1
  F  F3  1  0.21063500  0.25205600  0.41092100  1
  F  F4  1  0.72614500  0.21241000  0.38785600  1
  F  F5  1  0.41429600  0.76835400  0.57252100  1
  F  F6  1  0.89458600  0.71570000  0.58915700  1
  F  F7  1  0.44429000  0.27572800  0.73976200  1
  F  F8  1  0.21477600  0.70715800  0.90556800  1
  F  F9  1  0.94820800  0.21897000  0.74862200  1
  F  F10  1  0.72133700  0.75184700  0.89422100  1
loop_
_geom_bond_atom_site_label_1
_geom_bond_atom_site_label_2
_geom_bond_distance
_geom_bond_site_symmetry_2
Cu0 F8 1.916830 1_655
Cu0 F10 1.933655 1_555
Cu0 F2 1.984148 1_566
Cu0 F0 1.996720 1_666
Cu0 F9 2.299267 1_565
Cu1 O0 1.867123 1_555
Cu1 F10 1.946246 1_554
Cu1 F8 2.098378 1_554
Cu1 F0 2.206941 1_555
Cu1 F2 2.343658 1_555
Cu2 O0 1.806836 1_555
Cu2 F3 1.904517 1_565
Cu2 F1 2.244725 1_555
Cu2 F0 2.351642 1_565
Cu2 F4 2.355925 1_565
Cu2 F5 2.463449 1_555
Cu3 O0 1.841126 1_555
Cu3 F6 1.953497 1_555
Cu3 F4 2.094211 1_555
Cu3 F1 2.247784 1_655
Cu3 F5 2.284076 1_555
Cu4 F9 1.922486 1_455
Cu4 F5 1.970574 1_555
Cu4 F7 1.980897 1_555
Cu4 F6 2.106137 1_455
Cu4 F8 2.323297 1_555
Cu4 F3 2.533381 1_555
Cu5 F9 1.918570 1_555
Cu5 F7 1.937290 1_555
Cu5 F5 1.976025 1_545
Cu5 F6 2.120408 1_545
Cu5 F10 2.265049 1_545
F0 Mg0 2.034831 1_455
F1 Mg0 1.967261 1_455
F2 Mg0 1.953738 1_555
F3 Mg0 1.941555 1_455
F4 Mg0 1.990425 1_555
