# generated using pymatgen
data_Bi(BO2)3
_symmetry_space_group_name_H-M   'P 1'
_cell_length_a   4.35472035
_cell_length_b   4.35782594
_cell_length_c   6.52786236
_cell_angle_alpha   77.90492470
_cell_angle_beta   77.69264664
_cell_angle_gamma   70.63737784
_symmetry_Int_Tables_number   1
_chemical_formula_structural   Bi(BO2)3
_chemical_formula_sum   'Bi1 B3 O6'
_cell_volume   112.88405433
_cell_formula_units_Z   1
loop_
 _symmetry_equiv_pos_site_id
 _symmetry_equiv_pos_as_xyz
  1  'x, y, z'
loop_
 _atom_site_type_symbol
 _atom_site_label
 _atom_site_symmetry_multiplicity
 _atom_site_fract_x
 _atom_site_fract_y
 _atom_site_fract_z
 _atom_site_occupancy
  Bi  Bi0  1  0.91857271  0.04868801  0.04072588  1
  B  B0  1  0.62353185  0.34051710  0.54211846  1
  B  B1  1  0.22105430  0.24564346  0.34639003  1
  B  B2  1  0.71999798  0.74384109  0.73686362  1
  O  O0  1  0.30963794  0.35988825  0.49314393  1
  O  O1  1  0.60385648  0.65439805  0.59133630  1
  O  O2  1  0.70830123  0.07247252  0.72509703  1
  O  O3  1  0.89269754  0.25502379  0.35858794  1
  O  O4  1  0.40743182  0.13977975  0.16317826  1
  O  O5  1  0.82931715  0.55834799  0.91866055  1
loop_
_geom_bond_atom_site_label_1
_geom_bond_atom_site_label_2
_geom_bond_distance
_geom_bond_site_symmetry_2
Bi0 O5 2.129987 1_554
Bi0 O4 2.130639 1_555
Bi0 O3 2.396183 1_555
Bi0 O2 2.397132 1_554
Bi0 O4 2.597559 1_655
Bi0 O5 2.597747 1_544
B0 O1 1.440926 1_555
B0 O0 1.440930 1_555
B0 O2 1.498262 1_555
B0 O3 1.498962 1_555
B1 O0 1.341335 1_555
B1 O4 1.367866 1_555
B1 O3 1.402390 1_455
B2 O1 1.341980 1_555
B2 O5 1.368240 1_555
B2 O2 1.402376 1_565
