# generated using pymatgen
data_MgTiZn(BiO3)2
_symmetry_space_group_name_H-M   'P 1'
_cell_length_a   3.86670853
_cell_length_b   3.72659450
_cell_length_c   12.80200478
_cell_angle_alpha   90.00000000
_cell_angle_beta   90.00000000
_cell_angle_gamma   90.00000000
_symmetry_Int_Tables_number   1
_chemical_formula_structural   MgTiZn(BiO3)2
_chemical_formula_sum   'Mg1 Ti1 Zn1 Bi2 O6'
_cell_volume   184.47246887
_cell_formula_units_Z   1
loop_
 _symmetry_equiv_pos_site_id
 _symmetry_equiv_pos_as_xyz
  1  'x, y, z'
loop_
 _atom_site_type_symbol
 _atom_site_label
 _atom_site_symmetry_multiplicity
 _atom_site_fract_x
 _atom_site_fract_y
 _atom_site_fract_z
 _atom_site_occupancy
  Mg  Mg0  1  0.50000000  0.00000000  0.13278602  1
  Ti  Ti0  1  0.50000000  0.50000000  0.73638350  1
  Zn  Zn0  1  0.50000000  0.50000000  0.32787443  1
  Bi  Bi0  1  0.00000000  0.00000000  0.48660138  1
  Bi  Bi1  1  0.00000000  0.00000000  0.91361530  1
  O  O0  1  0.50000000  0.50000000  0.60328641  1
  O  O1  1  0.00000000  0.50000000  0.39245852  1
  O  O2  1  0.50000000  0.00000000  0.78285552  1
  O  O3  1  0.50000000  0.00000000  0.39540612  1
  O  O4  1  0.50000000  0.50000000  0.17342576  1
  O  O5  1  0.00000000  0.50000000  0.79600704  1
loop_
_geom_bond_atom_site_label_1
_geom_bond_atom_site_label_2
_geom_bond_distance
_geom_bond_site_symmetry_2
Mg0 O4 1.934569 1_555
Mg0 O4 1.934569 1_545
Bi0 O1 2.219105 1_545
Bi0 O1 2.219105 1_555
Bi0 O3 2.258511 1_455
Bi0 O3 2.258511 1_555
Bi1 O5 2.395574 1_555
Bi1 O5 2.395574 1_545
Bi1 O2 2.557360 1_455
Bi1 O2 2.557360 1_555
Bi1 Mg0 3.407420 1_456
Bi1 Mg0 3.407420 1_556
O0 Ti0 1.703910 1_555
O1 Zn0 2.102728 1_555
O1 Zn0 2.102728 1_455
O2 Ti0 1.955971 1_555
O2 Ti0 1.955971 1_545
O3 Zn0 2.054095 1_545
O3 Zn0 2.054095 1_555
O4 Zn0 1.977253 1_555
O5 Ti0 2.078578 1_555
O5 Ti0 2.078578 1_455
