# generated using pymatgen
data_MgMn2Te2(MoO6)2
_symmetry_space_group_name_H-M   'P 1'
_cell_length_a   5.27209498
_cell_length_b   5.27209498
_cell_length_c   10.94227218
_cell_angle_alpha   89.33159453
_cell_angle_beta   90.66840547
_cell_angle_gamma   94.37855410
_symmetry_Int_Tables_number   1
_chemical_formula_structural   MgMn2Te2(MoO6)2
_chemical_formula_sum   'Mg1 Mn2 Te2 Mo2 O12'
_cell_volume   303.21428843
_cell_formula_units_Z   1
loop_
 _symmetry_equiv_pos_site_id
 _symmetry_equiv_pos_as_xyz
  1  'x, y, z'
loop_
 _atom_site_type_symbol
 _atom_site_label
 _atom_site_symmetry_multiplicity
 _atom_site_fract_x
 _atom_site_fract_y
 _atom_site_fract_z
 _atom_site_occupancy
  Mg  Mg0  1  0.37950141  0.12049859  0.51643956  1
  Mn  Mn0  1  0.00394628  0.02717301  0.99469812  1
  Mn  Mn1  1  0.47282699  0.49605372  0.99469812  1
  Te  Te0  1  0.98019737  0.51980263  0.77960896  1
  Te  Te1  1  0.53551262  0.96448738  0.19830012  1
  Mo  Mo0  1  0.47605079  0.02394921  0.76604207  1
  Mo  Mo1  1  0.03904545  0.46095455  0.27673115  1
  O  O0  1  0.25954690  0.87440406  0.64270413  1
  O  O1  1  0.23770243  0.26229757  0.37504687  1
  O  O2  1  0.62559594  0.24045310  0.64270413  1
  O  O3  1  0.83586119  0.66413881  0.34893405  1
  O  O4  1  0.25242152  0.24757848  0.84078014  1
  O  O5  1  0.25437077  0.66619416  0.16597248  1
  O  O6  1  0.71618910  0.78381090  0.80341369  1
  O  O7  1  0.83380584  0.24562923  0.16597248  1
  O  O8  1  0.77179312  0.30722362  0.89297265  1
  O  O9  1  0.70667534  0.79332466  0.07462812  1
  O  O10  1  0.19277638  0.72820688  0.89297265  1
  O  O11  1  0.33868055  0.16131945  0.09166753  1
loop_
_geom_bond_atom_site_label_1
_geom_bond_atom_site_label_2
_geom_bond_distance
_geom_bond_site_symmetry_2
Mg0 O1 1.882234 1_555
Mg0 O2 1.960978 1_555
Mg0 O0 1.960978 1_545
Mn0 O9 2.110203 1_446
Mn0 O11 2.126883 1_556
Mn0 O10 2.240716 1_545
Mn0 O8 2.263346 1_455
Mn0 O4 2.382490 1_555
Mn0 O7 2.427088 1_456
Mn1 O9 2.110203 1_556
Mn1 O11 2.126883 1_556
Mn1 O8 2.240716 1_555
Mn1 O10 2.263346 1_555
Mn1 O4 2.382490 1_555
Mn1 O5 2.427088 1_556
Mo0 O6 1.895648 1_545
Mo0 O2 1.896667 1_555
Mo0 O0 1.896667 1_545
Mo0 O4 1.925123 1_555
Mo0 O8 2.496563 1_555
Mo0 O10 2.496563 1_545
Mo1 O3 1.770274 1_455
Mo1 O1 1.861744 1_555
Mo1 O5 1.934503 1_555
Mo1 O7 1.934503 1_455
O4 Te0 2.199378 1_455
O5 Te1 2.107145 1_555
O6 Te0 2.062819 1_555
O7 Te1 2.107145 1_545
O8 Te0 1.952774 1_555
O9 Te1 1.908196 1_555
O10 Te0 1.952774 1_455
O11 Te1 1.903437 1_545
