# generated using pymatgen
data_MgCr2(IrO6)2
_symmetry_space_group_name_H-M   'P 1'
_cell_length_a   5.01516842
_cell_length_b   5.22188602
_cell_length_c   7.27310348
_cell_angle_alpha   89.94583320
_cell_angle_beta   89.71373497
_cell_angle_gamma   90.04795207
_symmetry_Int_Tables_number   1
_chemical_formula_structural   MgCr2(IrO6)2
_chemical_formula_sum   'Mg1 Cr2 Ir2 O12'
_cell_volume   190.47014304
_cell_formula_units_Z   1
loop_
 _symmetry_equiv_pos_site_id
 _symmetry_equiv_pos_as_xyz
  1  'x, y, z'
loop_
 _atom_site_type_symbol
 _atom_site_label
 _atom_site_symmetry_multiplicity
 _atom_site_fract_x
 _atom_site_fract_y
 _atom_site_fract_z
 _atom_site_occupancy
  Mg  Mg0  1  0.97799200  0.07195300  0.75021700  1
  Cr  Cr0  1  0.99670600  0.51061100  0.00364900  1
  Cr  Cr1  1  0.49692000  0.99703800  0.49594800  1
  Ir  Ir0  1  0.00275500  0.50243200  0.49255400  1
  Ir  Ir1  1  0.49387100  0.00099400  0.00783600  1
  O  O0  1  0.11141500  0.46195500  0.74728900  1
  O  O1  1  0.18118900  0.18889700  0.05488700  1
  O  O2  1  0.18422500  0.19091500  0.44104900  1
  O  O3  1  0.31919500  0.69577200  0.06263900  1
  O  O4  1  0.31652400  0.68558900  0.43956800  1
  O  O5  1  0.36850300  0.97189600  0.74954000  1
  O  O6  1  0.61549100  0.02803500  0.25040800  1
  O  O7  1  0.69900200  0.29955500  0.56300500  1
  O  O8  1  0.68784600  0.29703100  0.93641000  1
  O  O9  1  0.82106100  0.82454000  0.93869200  1
  O  O10  1  0.82654100  0.81633500  0.56223400  1
  O  O11  1  0.87576400  0.53145100  0.25407700  1
loop_
_geom_bond_atom_site_label_1
_geom_bond_atom_site_label_2
_geom_bond_distance
_geom_bond_site_symmetry_2
Mg0 O5 2.027381 1_645
Mg0 O9 2.037608 1_545
Mg0 O10 2.059139 1_545
Mg0 O0 2.143179 1_655
Mg0 O7 2.289764 1_555
Mg0 O8 2.306264 1_555
Mg0 O1 2.519066 1_656
Mg0 O2 2.546557 1_655
Cr0 O11 1.920063 1_555
Cr0 O9 1.921350 1_554
Cr0 O3 1.933864 1_655
Cr0 O1 1.954994 1_655
Cr0 O0 1.965302 1_654
Cr0 O8 1.971825 1_554
Cr1 O6 1.886189 1_565
Cr1 O4 1.906353 1_555
Cr1 O2 1.910981 1_565
Cr1 O7 1.940153 1_565
Cr1 O5 1.954830 1_555
Cr1 O10 1.966036 1_555
Ir0 O11 1.856788 1_455
Ir0 O4 1.878887 1_555
Ir0 O2 1.901318 1_555
Ir0 O7 1.921982 1_455
Ir0 O10 1.929824 1_455
Ir0 O0 1.945182 1_555
Ir1 O3 1.859995 1_545
Ir1 O6 1.875002 1_555
Ir1 O1 1.880645 1_555
Ir1 O8 1.896543 1_554
Ir1 O9 1.946709 1_544
Ir1 O5 1.989918 1_544
