# generated using pymatgen
data_Mg(CuO)8
_symmetry_space_group_name_H-M   'P 1'
_cell_length_a   5.88981017
_cell_length_b   2.87984700
_cell_length_c   12.38497104
_cell_angle_alpha   90.00000000
_cell_angle_beta   94.11173596
_cell_angle_gamma   90.00000000
_symmetry_Int_Tables_number   1
_chemical_formula_structural   Mg(CuO)8
_chemical_formula_sum   'Mg1 Cu8 O8'
_cell_volume   209.53011152
_cell_formula_units_Z   1
loop_
 _symmetry_equiv_pos_site_id
 _symmetry_equiv_pos_as_xyz
  1  'x, y, z'
loop_
 _atom_site_type_symbol
 _atom_site_label
 _atom_site_symmetry_multiplicity
 _atom_site_fract_x
 _atom_site_fract_y
 _atom_site_fract_z
 _atom_site_occupancy
  Mg  Mg0  1  0.61176800  0.25000000  0.56234700  1
  Cu  Cu0  1  0.12375000  0.25000000  0.24961600  1
  Cu  Cu1  1  0.38378900  0.75000000  0.75424200  1
  Cu  Cu2  1  0.59143800  0.25000000  0.25437100  1
  Cu  Cu3  1  0.90270400  0.75000000  0.75583900  1
  Cu  Cu4  1  0.12505100  0.25000000  0.59057200  1
  Cu  Cu5  1  0.33664500  0.75000000  0.09437100  1
  Cu  Cu6  1  0.66632000  0.25000000  0.90943400  1
  Cu  Cu7  1  0.88279800  0.75000000  0.39616900  1
  O  O0  1  0.12942500  0.25000000  0.10242100  1
  O  O1  1  0.09710600  0.25000000  0.39633400  1
  O  O2  1  0.45148400  0.75000000  0.90098400  1
  O  O3  1  0.38089200  0.75000000  0.60195800  1
  O  O4  1  0.66021200  0.25000000  0.40299200  1
  O  O5  1  0.54990500  0.25000000  0.10622200  1
  O  O6  1  0.86731800  0.75000000  0.60403600  1
  O  O7  1  0.87481200  0.75000000  0.90142500  1
loop_
_geom_bond_atom_site_label_1
_geom_bond_atom_site_label_2
_geom_bond_distance
_geom_bond_site_symmetry_2
Mg0 O4 2.014271 1_555
Mg0 O3 2.063689 1_555
Mg0 O3 2.063689 1_545
Mg0 O6 2.119898 1_555
Mg0 O6 2.119898 1_545
Cu0 O0 1.825707 1_555
Cu0 O1 1.835038 1_555
Cu1 O2 1.832480 1_555
Cu1 O3 1.884886 1_555
Cu2 O5 1.833588 1_555
Cu2 O4 1.856128 1_555
Cu3 O7 1.822239 1_555
Cu3 O6 1.876681 1_555
Cu4 O3 2.081683 1_545
Cu4 O3 2.081683 1_555
Cu4 O6 2.107559 1_445
Cu4 O6 2.107559 1_455
Cu4 O1 2.399453 1_555
Cu5 O0 1.894824 1_555
Cu5 O0 1.894824 1_565
Cu5 O5 1.909496 1_555
Cu5 O5 1.909496 1_565
Cu5 O2 2.535009 1_554
Cu6 O7 1.899636 1_545
Cu6 O7 1.899636 1_555
Cu6 O2 1.914794 1_545
Cu6 O2 1.914794 1_555
Cu6 O5 2.578718 1_556
Cu7 O1 1.914745 1_655
Cu7 O1 1.914745 1_665
Cu7 O4 1.953228 1_555
Cu7 O4 1.953228 1_565
Cu7 O6 2.582566 1_555
