# generated using pymatgen
data_AsPd3Pb2
_symmetry_space_group_name_H-M   'P 1'
_cell_length_a   5.85288993
_cell_length_b   6.92763991
_cell_length_c   6.92764013
_cell_angle_alpha   120.51744560
_cell_angle_beta   90.00000000
_cell_angle_gamma   90.00000000
_symmetry_Int_Tables_number   1
_chemical_formula_structural   AsPd3Pb2
_chemical_formula_sum   'As2 Pd6 Pb4'
_cell_volume   241.98221640
_cell_formula_units_Z   2
loop_
 _symmetry_equiv_pos_site_id
 _symmetry_equiv_pos_as_xyz
  1  'x, y, z'
loop_
 _atom_site_type_symbol
 _atom_site_label
 _atom_site_symmetry_multiplicity
 _atom_site_fract_x
 _atom_site_fract_y
 _atom_site_fract_z
 _atom_site_occupancy
  As  As0  1  0.70454217  0.70525195  0.70525195  1
  As  As1  1  0.20454217  0.29474805  0.29474805  1
  Pd  Pd0  1  0.99770464  0.66711568  0.42501684  1
  Pd  Pd1  1  0.49770464  0.33288432  0.57498316  1
  Pd  Pd2  1  0.02034622  0.94798364  0.94798364  1
  Pd  Pd3  1  0.52034622  0.05201636  0.05201636  1
  Pd  Pd4  1  0.99770464  0.42501684  0.66711568  1
  Pd  Pd5  1  0.49770464  0.57498316  0.33288432  1
  Pb  Pb0  1  0.30985167  0.01323608  0.65680541  1
  Pb  Pb1  1  0.80985167  0.98676392  0.34319459  1
  Pb  Pb2  1  0.80985167  0.34319459  0.98676392  1
  Pb  Pb3  1  0.30985167  0.65680541  0.01323608  1
loop_
_geom_bond_atom_site_label_1
_geom_bond_atom_site_label_2
_geom_bond_distance
_geom_bond_site_symmetry_2
As0 Pd2 2.489976 1_655
As0 Pd4 2.502387 1_555
As0 Pd0 2.502387 1_555
As0 Pd1 2.563228 1_555
As0 Pd5 2.563228 1_555
As0 Pd3 2.615926 1_566
As1 Pd3 2.489976 1_555
As1 Pd5 2.502387 1_555
As1 Pd1 2.502387 1_555
As1 Pd0 2.563228 1_455
As1 Pd4 2.563228 1_455
As1 Pd2 2.615926 1_544
Pb0 Pd1 2.776428 1_555
Pb0 Pd0 2.784838 1_445
Pb0 Pd2 2.840875 1_545
Pb0 Pd3 2.887726 1_556
Pb0 Pd5 2.922816 1_545
Pb1 Pd0 2.776428 1_555
Pb1 Pd1 2.784838 1_565
Pb1 Pd3 2.840875 1_565
Pb1 Pd2 2.887726 1_654
Pb1 Pd4 2.922816 1_565
Pb2 Pd4 2.776428 1_555
Pb2 Pd5 2.784838 1_556
Pb2 Pd3 2.840875 1_556
Pb2 Pd2 2.887726 1_645
Pb2 Pd0 2.922816 1_556
Pb3 Pd5 2.776428 1_555
Pb3 Pd4 2.784838 1_454
Pb3 Pd2 2.840875 1_554
Pb3 Pd3 2.887726 1_565
Pb3 Pd1 2.922816 1_554
