# generated using pymatgen
data_Na6Nb2Ga2Si5SO24
_symmetry_space_group_name_H-M   'P 1'
_cell_length_a   8.99190604
_cell_length_b   8.98666865
_cell_length_c   22.40851884
_cell_angle_alpha   90.40670803
_cell_angle_beta   89.50887439
_cell_angle_gamma   120.11603953
_symmetry_Int_Tables_number   1
_chemical_formula_structural   Na6Nb2Ga2Si5SO24
_chemical_formula_sum   'Na18 Nb6 Ga6 Si15 S3 O72'
_cell_volume   1566.27148270
_cell_formula_units_Z   3
loop_
 _symmetry_equiv_pos_site_id
 _symmetry_equiv_pos_as_xyz
  1  'x, y, z'
loop_
 _atom_site_type_symbol
 _atom_site_label
 _atom_site_symmetry_multiplicity
 _atom_site_fract_x
 _atom_site_fract_y
 _atom_site_fract_z
 _atom_site_occupancy
  Na  Na0  1  0.63833873  0.01066838  0.24815095  1
  Na  Na1  1  0.36764572  0.35828398  0.25080527  1
  Na  Na2  1  0.99333891  0.62949295  0.24829659  1
  Na  Na3  1  0.99546370  0.36133222  0.74984259  1
  Na  Na4  1  0.29916271  0.34044089  0.58066433  1
  Na  Na5  1  0.66274388  0.96247791  0.58093474  1
  Na  Na6  1  0.66439700  0.70020701  0.07795685  1
  Na  Na7  1  0.02675001  0.33604827  0.08107489  1
  Na  Na8  1  0.95901991  0.66528771  0.91438024  1
  Na  Na9  1  0.70929379  0.03557867  0.91809872  1
  Na  Na10  1  0.33025483  0.30132001  0.91491763  1
  Na  Na11  1  0.70021791  0.67259333  0.41660780  1
  Na  Na12  1  0.00644196  0.00763186  0.49494372  1
  Na  Na13  1  0.99525750  0.99692036  0.99678706  1
  Na  Na14  1  0.66457908  0.33761041  0.83271290  1
  Na  Na15  1  0.66228080  0.32335849  0.33182244  1
  Na  Na16  1  0.33029341  0.68039465  0.16191943  1
  Na  Na17  1  0.33136645  0.67371627  0.66216226  1
  Nb  Nb0  1  0.99758686  0.99314141  0.64635766  1
  Nb  Nb1  1  0.99415235  0.99228506  0.14781043  1
  Nb  Nb2  1  0.66482876  0.33436455  0.68729203  1
  Nb  Nb3  1  0.65578681  0.32058295  0.47987868  1
  Nb  Nb4  1  0.34336012  0.67048131  0.31370130  1
  Nb  Nb5  1  0.33533493  0.65446932  0.80967819  1
  Ga  Ga0  1  0.00398348  0.02007332  0.35069025  1
  Ga  Ga1  1  0.98614677  0.00018528  0.84747412  1
  Ga  Ga2  1  0.67998596  0.32791294  0.18629332  1
  Ga  Ga3  1  0.69776307  0.35122952  0.98273751  1
  Ga  Ga4  1  0.33468248  0.67491303  0.01766613  1
  Ga  Ga5  1  0.34112739  0.66242860  0.52105780  1
  Si  Si0  1  0.29055557  0.00528132  0.25207054  1
  Si  Si1  1  0.71482279  0.70580989  0.25315978  1
  Si  Si2  1  0.99756888  0.28974065  0.25056363  1
  Si  Si3  1  0.28656711  0.27623083  0.75249238  1
  Si  Si4  1  0.00086182  0.71508365  0.75385158  1
  Si  Si5  1  0.70818790  0.99938343  0.75143727  1
  Si  Si6  1  0.96361061  0.34260730  0.58228162  1
  Si  Si7  1  0.37098058  0.03189969  0.58362226  1
  Si  Si8  1  0.66796442  0.62349511  0.58163719  1
  Si  Si9  1  0.96292506  0.62298851  0.08318616  1
  Si  Si10  1  0.65611928  0.04221125  0.08199778  1
  Si  Si11  1  0.62598021  0.66463218  0.92021646  1
  Si  Si12  1  0.04450316  0.37338312  0.91923204  1
  Si  Si13  1  0.63105081  0.95769257  0.41909792  1
  Si  Si14  1  0.32360729  0.36748964  0.41915447  1
  S  S0  1  0.37840174  0.33095476  0.08297559  1
  S  S1  1  0.33366834  0.95684918  0.91754572  1
  S  S2  1  0.04572589  0.66899191  0.41783178  1
  O  O0  1  0.19823709  0.03721960  0.30783790  1
  O  O1  1  0.83436606  0.79236867  0.31018961  1
  O  O2  1  0.95471359  0.16326284  0.30567578  1
  O  O3  1  0.20258400  0.16997798  0.81264196  1
  O  O4  1  0.97001734  0.79759796  0.81324089  1
  O  O5  1  0.82719038  0.04442063  0.80990403  1
  O  O6  1  0.79751000  0.96859741  0.69173586  1
  O  O7  1  0.16562637  0.20016795  0.69272877  1
  O  O8  1  0.02939834  0.83542960  0.69439557  1
  O  O9  1  0.79609298  0.83306419  0.19306247  1
  O  O10  1  0.03974492  0.20696470  0.19027028  1
  O  O11  1  0.16151510  0.96615129  0.19307587  1
  O  O12  1  0.86740090  0.36181013  0.64214639  1
  O  O13  1  0.50118389  0.13401595  0.63935699  1
  O  O14  1  0.63708998  0.49690232  0.63861416  1
  O  O15  1  0.87412161  0.50666481  0.14250256  1
  O  O16  1  0.63407986  0.12666578  0.14332331  1
  O  O17  1  0.48193085  0.35880994  0.13726688  1
  O  O18  1  0.45458442  0.30386458  0.02834044  1
  O  O19  1  0.83764502  0.55299616  0.02459107  1
  O  O20  1  0.70028385  0.16560220  0.02289867  1
  O  O21  1  0.46423346  0.16715064  0.52652536  1
  O  O22  1  0.69943832  0.53441543  0.52256310  1
  O  O23  1  0.82703530  0.30061158  0.52695063  1
  O  O24  1  0.53735606  0.70360490  0.97731734  1
  O  O25  1  0.16759102  0.46534879  0.97668911  1
  O  O26  1  0.30150486  0.84777746  0.97094632  1
  O  O27  1  0.53650191  0.83589712  0.47609509  1
  O  O28  1  0.30384593  0.46322432  0.47725782  1
  O  O29  1  0.15202829  0.69119570  0.47042873  1
  O  O30  1  0.12531610  0.64101641  0.36189082  1
  O  O31  1  0.50360321  0.86635185  0.35896265  1
  O  O32  1  0.36122975  0.49965711  0.35966347  1
  O  O33  1  0.13495685  0.50067807  0.86001579  1
  O  O34  1  0.36384282  0.87662523  0.86381265  1
  O  O35  1  0.49667623  0.63689383  0.86199812  1
  O  O36  1  0.02186252  0.81729620  0.41186994  1
  O  O37  1  0.81292639  0.96401695  0.40966216  1
  O  O38  1  0.16109179  0.17868312  0.41049380  1
  O  O39  1  0.02741498  0.18342234  0.91190661  1
  O  O40  1  0.17903686  0.97467750  0.91262752  1
  O  O41  1  0.81711538  0.83535530  0.91169992  1
  O  O42  1  0.97344061  0.16390458  0.58939684  1
  O  O43  1  0.19090783  0.03328705  0.58968099  1
  O  O44  1  0.83691437  0.81573429  0.58875471  1
  O  O45  1  0.97671014  0.81557804  0.09037302  1
  O  O46  1  0.83853287  0.02749858  0.08937638  1
  O  O47  1  0.19985223  0.17688511  0.08774242  1
  O  O48  1  0.69406786  0.17243170  0.74257992  1
  O  O49  1  0.48034131  0.31012211  0.74370648  1
  O  O50  1  0.83611553  0.52000134  0.74362375  1
  O  O51  1  0.68169466  0.51386333  0.24086108  1
  O  O52  1  0.83160968  0.31510510  0.24462986  1
  O  O53  1  0.48089067  0.17184176  0.24220271  1
  O  O54  1  0.63238136  0.48374814  0.92376161  1
  O  O55  1  0.85233889  0.35620678  0.92068724  1
  O  O56  1  0.48910988  0.13025657  0.92284119  1
  O  O57  1  0.64590710  0.14853003  0.42230785  1
  O  O58  1  0.51156335  0.36928187  0.42180110  1
  O  O59  1  0.87076206  0.50978664  0.42079094  1
  O  O60  1  0.35733813  0.48565028  0.07921918  1
  O  O61  1  0.15002724  0.63615916  0.07542904  1
  O  O62  1  0.49848862  0.84252325  0.07669321  1
  O  O63  1  0.36273860  0.85108202  0.57531964  1
  O  O64  1  0.49809546  0.64225703  0.57951391  1
  O  O65  1  0.15414931  0.50608201  0.57664020  1
  O  O66  1  0.30480679  0.82783231  0.25686294  1
  O  O67  1  0.52277402  0.69367473  0.25619457  1
  O  O68  1  0.17157634  0.48227439  0.25727243  1
  O  O69  1  0.30161776  0.47028305  0.75660687  1
  O  O70  1  0.16880346  0.68678677  0.75826686  1
  O  O71  1  0.51713260  0.83002172  0.75861668  1
loop_
_geom_bond_atom_site_label_1
_geom_bond_atom_site_label_2
_geom_bond_distance
_geom_bond_site_symmetry_2
Na0 O52 2.396012 1_555
Na0 O53 2.486725 1_555
Na0 O67 2.502193 1_545
Na0 O16 2.585043 1_555
Na0 O66 2.604199 1_545
Na0 O31 2.780846 1_545
Na0 O2 2.785330 1_555
Na0 O9 2.880534 1_545
Na1 O53 2.363370 1_555
Na1 O51 2.451620 1_555
Na1 O68 2.517057 1_555
Na1 O67 2.612181 1_555
Na1 O17 2.734892 1_555
Na1 O32 2.755904 1_555
Na1 O0 2.808400 1_555
Na1 O10 2.898538 1_555
Na2 O52 2.445316 1_555
Na2 O51 2.458397 1_555
Na2 O66 2.460199 1_655
Na2 O68 2.548830 1_655
Na2 O15 2.608969 1_555
Na2 O30 2.797003 1_655
Na2 O1 2.854166 1_555
Na2 O11 2.898478 1_655
Na3 O48 2.374846 1_555
Na3 O69 2.420814 1_655
Na3 O50 2.482374 1_555
Na3 O70 2.538063 1_655
Na3 O12 2.683815 1_555
Na3 O33 2.769381 1_655
Na3 O5 2.811937 1_555
Na3 O7 2.870672 1_655
Na4 O64 2.385065 1_555
Na4 O65 2.424037 1_555
Na4 O43 2.432237 1_555
Na4 O42 2.542667 1_455
Na4 O28 2.564497 1_555
Na4 O7 2.794867 1_555
Na4 O21 2.891720 1_555
Na4 O14 2.941210 1_555
Na5 O63 2.364144 1_555
Na5 O42 2.459073 1_565
Na5 O64 2.489632 1_555
Na5 O44 2.510588 1_555
Na5 O27 2.610318 1_555
Na5 O6 2.760253 1_555
Na5 O13 2.895993 1_565
Na5 O23 2.897622 1_565
Na6 O62 2.403743 1_555
Na6 O60 2.449284 1_555
Na6 O45 2.475140 1_555
Na6 O24 2.543987 1_554
Na6 O46 2.557898 1_565
Na6 O19 2.760576 1_555
Na6 O9 2.840893 1_555
Na6 O17 2.973245 1_555
Na7 O61 2.349662 1_555
Na7 O46 2.424908 1_455
Na7 O60 2.575629 1_555
Na7 O47 2.594639 1_555
Na7 O25 2.633752 1_554
Na7 O10 2.743702 1_555
Na7 O15 2.859817 1_455
Na7 O20 2.861498 1_455
Na8 O41 2.434583 1_555
Na8 O55 2.446368 1_555
Na8 O40 2.475143 1_655
Na8 O4 2.544893 1_555
Na8 O54 2.553065 1_555
Na8 O19 2.681914 1_556
Na8 O33 2.909462 1_655
Na8 O26 2.957933 1_655
Na9 O41 2.437772 1_545
Na9 O39 2.479715 1_655
Na9 O55 2.497977 1_555
Na9 O56 2.518072 1_555
Na9 O5 2.623436 1_555
Na9 O20 2.634335 1_556
Na9 O24 2.905853 1_545
Na9 O34 2.959146 1_545
Na10 O54 2.375415 1_555
Na10 O39 2.376824 1_555
Na10 O40 2.542029 1_545
Na10 O3 2.571104 1_555
Na10 O56 2.578167 1_555
Na10 O18 2.780739 1_556
Na10 O35 2.869091 1_555
Na10 O25 2.885868 1_555
Na11 O37 2.291223 1_555
Na11 O58 2.383692 1_555
Na11 O36 2.507911 1_655
Na11 O59 2.599431 1_555
Na11 O1 2.642819 1_555
Na11 O22 2.685546 1_555
Na11 O27 2.864330 1_555
Na11 O32 2.935900 1_555
Na12 O38 2.393521 1_555
Na12 O37 2.489074 1_445
Na12 O36 2.568806 1_545
Na12 O42 2.627804 1_455
Na12 O43 2.642138 1_555
Na12 O44 2.659941 1_445
Na13 O41 2.447151 1_555
Na13 O39 2.461699 1_665
Na13 O40 2.569063 1_655
Na13 O46 2.587790 1_566
Na13 O45 2.617503 1_556
Na13 O47 2.680670 1_666
Na14 O54 2.510903 1_555
Na14 O49 2.534270 1_555
Na14 O50 2.551034 1_555
Na14 O55 2.556151 1_555
Na14 O48 2.587738 1_555
Na14 O56 2.662542 1_555
Na15 O52 2.490302 1_555
Na15 O53 2.517153 1_555
Na15 O57 2.531686 1_555
Na15 O58 2.564179 1_555
Na15 O51 2.619097 1_555
Na15 O59 2.675952 1_555
Na16 O62 2.415822 1_555
Na16 O61 2.436815 1_555
Na16 O66 2.567265 1_555
Na16 O60 2.632419 1_555
Na16 O68 2.687784 1_555
Na16 O67 2.706392 1_555
Na17 O63 2.447563 1_555
Na17 O65 2.466536 1_555
Na17 O64 2.475453 1_555
Na17 O70 2.627372 1_555
Na17 O71 2.664427 1_555
Na17 O69 2.728973 1_555
Nb0 O8 1.919143 1_655
Nb0 O6 1.973049 1_555
Nb0 O44 1.996639 1_555
Nb0 O7 2.000669 1_665
Nb0 O43 2.025894 1_665
Nb0 O42 2.097200 1_565
Nb1 O9 1.918276 1_555
Nb1 O11 1.932099 1_655
Nb1 O45 1.981784 1_555
Nb1 O10 1.995571 1_665
Nb1 O46 2.062637 1_565
Nb1 O47 2.212435 1_665
Nb2 O14 1.943839 1_555
Nb2 O13 1.975282 1_555
Nb2 O12 1.980725 1_555
Nb2 O49 2.000697 1_555
Nb2 O48 2.033934 1_555
Nb2 O50 2.042962 1_555
Nb3 O21 1.888624 1_555
Nb3 O23 1.955466 1_555
Nb3 O57 1.974507 1_555
Nb3 O22 1.996268 1_555
Nb3 O58 2.042944 1_555
Nb3 O59 2.251809 1_555
Nb4 O31 1.912528 1_555
Nb4 O32 1.927713 1_555
Nb4 O67 1.984295 1_555
Nb4 O68 2.055962 1_555
Nb4 O66 2.065680 1_555
Nb4 O30 2.127690 1_555
Nb5 O69 1.928894 1_555
Nb5 O35 1.940606 1_555
Nb5 O71 1.968747 1_555
Nb5 O33 1.979209 1_555
Nb5 O70 2.030918 1_555
Nb5 O34 2.231686 1_555
Ga0 O2 1.862200 1_455
Ga0 O0 1.923562 1_555
Ga0 O38 1.951400 1_555
Ga0 O37 2.013338 1_445
Ga0 O1 2.050036 1_445
Ga0 O36 2.357821 1_545
Ga1 O5 1.872254 1_555
Ga1 O4 1.908177 1_545
Ga1 O3 1.932868 1_655
Ga1 O39 2.072725 1_655
Ga1 O41 2.075833 1_545
Ga1 O40 2.374780 1_645
Ga2 O16 1.897713 1_555
Ga2 O15 1.941567 1_555
Ga2 O52 1.941932 1_555
Ga2 O53 2.051474 1_555
Ga2 O51 2.057540 1_555
Ga2 O17 2.233766 1_555
Ga3 O19 1.859257 1_556
Ga3 O20 1.911238 1_556
Ga3 O55 1.942328 1_555
Ga3 O54 2.061228 1_555
Ga3 O18 2.245149 1_556
Ga3 O56 2.351917 1_555
Ga4 O24 1.925803 1_554
Ga4 O25 1.951137 1_554
Ga4 O61 1.985677 1_555
Ga4 O62 1.991637 1_555
Ga4 O26 2.022832 1_554
Ga4 O60 2.285322 1_555
Ga5 O28 1.912833 1_555
Ga5 O27 1.943021 1_555
Ga5 O65 1.992628 1_555
Ga5 O64 2.008166 1_555
Ga5 O63 2.008652 1_555
Ga5 O29 2.173375 1_555
O0 Si0 1.596670 1_555
O1 Si1 1.601269 1_555
O2 Si2 1.593049 1_555
O3 Si3 1.604987 1_555
O4 Si4 1.607462 1_655
O5 Si5 1.614694 1_545
O6 Si5 1.646424 1_555
O7 Si3 1.646019 1_555
O8 Si4 1.657315 1_555
O9 Si1 1.679812 1_555
O10 Si2 1.668131 1_455
O11 Si0 1.681630 1_565
O12 Si6 1.644505 1_555
O13 Si7 1.644178 1_555
O14 Si8 1.642881 1_555
O15 Si9 1.631266 1_555
O16 Si10 1.623338 1_555
O17 S0 1.480070 1_555
O18 S0 1.475185 1_555
O19 Si9 1.640512 1_555
O20 Si10 1.646532 1_555
O21 Si7 1.672838 1_555
O22 Si8 1.636819 1_555
O23 Si6 1.655980 1_555
O24 Si11 1.628248 1_555
O25 Si12 1.630078 1_555
O26 S1 1.484109 1_555
O27 Si13 1.618494 1_555
O28 Si14 1.612614 1_555
O29 S2 1.472143 1_555
O30 S2 1.519040 1_555
O31 Si13 1.694035 1_555
O32 Si14 1.707009 1_555
O33 Si12 1.673415 1_555
O34 S1 1.490489 1_555
O35 Si11 1.687149 1_555
O36 S2 1.459502 1_555
O37 Si13 1.619712 1_555
O38 Si14 1.601271 1_555
O39 Si12 1.642566 1_555
O40 S1 1.482412 1_555
O41 Si11 1.642122 1_555
O42 Si6 1.660906 1_555
O43 Si7 1.629986 1_555
O44 Si8 1.638425 1_555
O45 Si9 1.678647 1_555
O46 Si10 1.719830 1_555
O47 S0 1.508150 1_555
O48 Si5 1.636121 1_545
O49 Si3 1.621699 1_555
O50 Si4 1.647563 1_655
O51 Si1 1.618392 1_555
O52 Si2 1.625345 1_555
O53 Si0 1.626646 1_555
O54 Si11 1.657656 1_555
O55 Si12 1.655916 1_655
O56 S1 1.486810 1_545
O57 Si13 1.653097 1_545
O58 Si14 1.683611 1_555
O59 S2 1.505749 1_655
O60 S0 1.497255 1_555
O61 Si9 1.634063 1_455
O62 Si10 1.640386 1_565
O63 Si7 1.598643 1_565
O64 Si8 1.619748 1_555
O65 Si6 1.607086 1_455
O66 Si0 1.666937 1_565
O67 Si1 1.675636 1_555
O68 Si2 1.657738 1_455
O69 Si3 1.681975 1_555
O70 Si4 1.656256 1_555
O71 Si5 1.633576 1_555
