# generated using pymatgen
data_MgV4O8
_symmetry_space_group_name_H-M   'P 1'
_cell_length_a   5.19142862
_cell_length_b   5.66970820
_cell_length_c   5.66971282
_cell_angle_alpha   61.07641140
_cell_angle_beta   83.34203761
_cell_angle_gamma   83.34203228
_symmetry_Int_Tables_number   1
_chemical_formula_structural   MgV4O8
_chemical_formula_sum   'Mg1 V4 O8'
_cell_volume   144.73629132
_cell_formula_units_Z   1
loop_
 _symmetry_equiv_pos_site_id
 _symmetry_equiv_pos_as_xyz
  1  'x, y, z'
loop_
 _atom_site_type_symbol
 _atom_site_label
 _atom_site_symmetry_multiplicity
 _atom_site_fract_x
 _atom_site_fract_y
 _atom_site_fract_z
 _atom_site_occupancy
  Mg  Mg0  1  0.49999723  0.50822448  0.49178530  1
  V  V0  1  -0.00000254  0.74934252  0.25065231  1
  V  V1  1  -0.00000266  0.26711640  0.73287789  1
  V  V2  1  0.42214000  0.21826007  0.20173508  1
  V  V3  1  0.57786324  0.79826525  0.78174267  1
  O  O0  1  0.17412316  0.11120337  0.09472455  1
  O  O1  1  0.64813294  0.88522886  0.39387759  1
  O  O2  1  0.64814287  0.41035414  0.86870805  1
  O  O3  1  0.85233609  0.40548041  0.38902196  1
  O  O4  1  0.14764918  0.61097403  0.59451737  1
  O  O5  1  0.35186757  0.60613166  0.11476400  1
  O  O6  1  0.35185868  0.13128621  0.58965368  1
  O  O7  1  0.82589424  0.90527561  0.88879656  1
loop_
_geom_bond_atom_site_label_1
_geom_bond_atom_site_label_2
_geom_bond_distance
_geom_bond_site_symmetry_2
Mg0 O4 1.964341 1_555
Mg0 O3 1.964348 1_555
Mg0 O2 2.145105 1_555
Mg0 O6 2.145171 1_555
Mg0 O1 2.145447 1_555
Mg0 O5 2.145523 1_555
O0 V2 1.764351 1_555
O0 V1 2.073167 1_554
O0 V0 2.073224 1_545
O1 V2 1.980276 1_565
O1 V3 2.004753 1_555
O1 V0 2.127112 1_655
O2 V2 1.980248 1_556
O2 V3 2.005003 1_555
O2 V1 2.126962 1_655
O3 V1 1.931730 1_655
O3 V0 1.931755 1_655
O4 V1 1.931717 1_555
O4 V0 1.931748 1_555
O5 V3 1.980242 1_554
O5 V2 2.004776 1_555
O5 V0 2.127102 1_555
O6 V3 1.980226 1_545
O6 V2 2.005033 1_555
O6 V1 2.126954 1_555
O7 V3 1.764401 1_555
O7 V1 2.073075 1_665
O7 V0 2.073139 1_656
