# generated using pymatgen
data_Na4YNb(SiO4)3
_symmetry_space_group_name_H-M   'P 1'
_cell_length_a   9.38549221
_cell_length_b   9.38549186
_cell_length_c   22.81672484
_cell_angle_alpha   90.00000000
_cell_angle_beta   90.00000000
_cell_angle_gamma   120.00000120
_symmetry_Int_Tables_number   1
_chemical_formula_structural   Na4YNb(SiO4)3
_chemical_formula_sum   'Na24 Y6 Nb6 Si18 O72'
_cell_volume   1740.59616546
_cell_formula_units_Z   6
loop_
 _symmetry_equiv_pos_site_id
 _symmetry_equiv_pos_as_xyz
  1  'x, y, z'
loop_
 _atom_site_type_symbol
 _atom_site_label
 _atom_site_symmetry_multiplicity
 _atom_site_fract_x
 _atom_site_fract_y
 _atom_site_fract_z
 _atom_site_occupancy
  Na  Na0  1  0.63903497  0.01309521  0.24816023  1
  Na  Na1  1  0.37406025  0.36096503  0.24816023  1
  Na  Na2  1  0.98690479  0.62593975  0.24816023  1
  Na  Na3  1  0.63903497  0.62593975  0.74816023  1
  Na  Na4  1  0.98690479  0.36096503  0.74816023  1
  Na  Na5  1  0.37406025  0.01309521  0.74816023  1
  Na  Na6  1  0.30570197  0.34642821  0.58149323  1
  Na  Na7  1  0.04072725  0.69429803  0.58149323  1
  Na  Na8  1  0.65357179  0.95927275  0.58149323  1
  Na  Na9  1  0.30570197  0.95927275  0.08149323  1
  Na  Na10  1  0.65357179  0.69429803  0.08149323  1
  Na  Na11  1  0.04072725  0.34642821  0.08149323  1
  Na  Na12  1  0.97236797  0.67976221  0.91482723  1
  Na  Na13  1  0.70739325  0.02763203  0.91482723  1
  Na  Na14  1  0.32023779  0.29260675  0.91482723  1
  Na  Na15  1  0.97236797  0.29260675  0.41482723  1
  Na  Na16  1  0.32023779  0.02763203  0.41482723  1
  Na  Na17  1  0.70739325  0.67976221  0.41482723  1
  Na  Na18  1  0.00000000  -0.00000000  0.49600143  1
  Na  Na19  1  0.00000000  -0.00000000  0.99600143  1
  Na  Na20  1  0.66666700  0.33333300  0.82933443  1
  Na  Na21  1  0.66666700  0.33333300  0.32933443  1
  Na  Na22  1  0.33333300  0.66666700  0.16266843  1
  Na  Na23  1  0.33333300  0.66666700  0.66266843  1
  Y  Y0  1  0.00000000  -0.00000000  0.34864352  1
  Y  Y1  1  0.00000000  -0.00000000  0.84864352  1
  Y  Y2  1  0.66666700  0.33333300  0.68197652  1
  Y  Y3  1  0.66666700  0.33333300  0.18197652  1
  Y  Y4  1  0.33333300  0.66666700  0.01531052  1
  Y  Y5  1  0.33333300  0.66666700  0.51531052  1
  Nb  Nb0  1  0.00000000  -0.00000000  0.64826108  1
  Nb  Nb1  1  0.00000000  -0.00000000  0.14826108  1
  Nb  Nb2  1  0.66666700  0.33333300  0.98159408  1
  Nb  Nb3  1  0.66666700  0.33333300  0.48159408  1
  Nb  Nb4  1  0.33333300  0.66666700  0.31492808  1
  Nb  Nb5  1  0.33333300  0.66666700  0.81492808  1
  Si  Si0  1  0.29443152  0.99264959  0.25095988  1
  Si  Si1  1  0.69821807  0.70556848  0.25095988  1
  Si  Si2  1  0.00735041  0.30178193  0.25095988  1
  Si  Si3  1  0.29443152  0.30178193  0.75095988  1
  Si  Si4  1  0.00735041  0.70556848  0.75095988  1
  Si  Si5  1  0.69821807  0.99264959  0.75095988  1
  Si  Si6  1  0.96109852  0.32598259  0.58429288  1
  Si  Si7  1  0.36488507  0.03890148  0.58429288  1
  Si  Si8  1  0.67401741  0.63511493  0.58429288  1
  Si  Si9  1  0.96109852  0.63511493  0.08429288  1
  Si  Si10  1  0.67401741  0.03890148  0.08429288  1
  Si  Si11  1  0.36488507  0.32598259  0.08429288  1
  Si  Si12  1  0.62776452  0.65931659  0.91762688  1
  Si  Si13  1  0.03155107  0.37223548  0.91762688  1
  Si  Si14  1  0.34068341  0.96844893  0.91762688  1
  Si  Si15  1  0.62776452  0.96844893  0.41762688  1
  Si  Si16  1  0.34068341  0.37223548  0.41762688  1
  Si  Si17  1  0.03155107  0.65931659  0.41762688  1
  O  O0  1  0.21938816  0.02548416  0.30890862  1
  O  O1  1  0.80609601  0.78061184  0.30890862  1
  O  O2  1  0.97451584  0.19390399  0.30890862  1
  O  O3  1  0.21938816  0.19390399  0.80890862  1
  O  O4  1  0.97451584  0.78061184  0.80890862  1
  O  O5  1  0.80609601  0.02548416  0.80890862  1
  O  O6  1  0.80635330  0.97019029  0.69431650  1
  O  O7  1  0.16383699  0.19364670  0.69431650  1
  O  O8  1  0.02980971  0.83616301  0.69431650  1
  O  O9  1  0.80635330  0.83616301  0.19431650  1
  O  O10  1  0.02980971  0.19364670  0.19431650  1
  O  O11  1  0.16383699  0.97019029  0.19431650  1
  O  O12  1  0.88605516  0.35881716  0.64224162  1
  O  O13  1  0.47276301  0.11394484  0.64224162  1
  O  O14  1  0.64118284  0.52723699  0.64224162  1
  O  O15  1  0.88605516  0.52723699  0.14224162  1
  O  O16  1  0.64118284  0.11394484  0.14224162  1
  O  O17  1  0.47276301  0.35881716  0.14224162  1
  O  O18  1  0.47302030  0.30352329  0.02764950  1
  O  O19  1  0.83050399  0.52697970  0.02764950  1
  O  O20  1  0.69647671  0.16949601  0.02764950  1
  O  O21  1  0.47302030  0.16949601  0.52764950  1
  O  O22  1  0.69647671  0.52697970  0.52764950  1
  O  O23  1  0.83050399  0.30352329  0.52764950  1
  O  O24  1  0.55272116  0.69215116  0.97557562  1
  O  O25  1  0.13942901  0.44727884  0.97557562  1
  O  O26  1  0.30784884  0.86057099  0.97557562  1
  O  O27  1  0.55272116  0.86057099  0.47557562  1
  O  O28  1  0.30784884  0.44727884  0.47557562  1
  O  O29  1  0.13942901  0.69215116  0.47557562  1
  O  O30  1  0.13968630  0.63685729  0.36098350  1
  O  O31  1  0.49716999  0.86031370  0.36098350  1
  O  O32  1  0.36314271  0.50283001  0.36098350  1
  O  O33  1  0.13968630  0.50283001  0.86098350  1
  O  O34  1  0.36314271  0.86031370  0.86098350  1
  O  O35  1  0.49716999  0.63685729  0.86098350  1
  O  O36  1  0.00070216  0.81368002  0.41196693  1
  O  O37  1  0.81297786  0.99929784  0.41196693  1
  O  O38  1  0.18631998  0.18702214  0.41196693  1
  O  O39  1  0.00070216  0.18702214  0.91196693  1
  O  O40  1  0.18631998  0.99929784  0.91196693  1
  O  O41  1  0.81297786  0.81368002  0.91196693  1
  O  O42  1  0.96210209  0.14823607  0.58805249  1
  O  O43  1  0.18613399  0.03789791  0.58805249  1
  O  O44  1  0.85176393  0.81386601  0.58805249  1
  O  O45  1  0.96210209  0.81386601  0.08805249  1
  O  O46  1  0.85176393  0.03789791  0.08805249  1
  O  O47  1  0.18613399  0.14823607  0.08805249  1
  O  O48  1  0.66736916  0.14701302  0.74529993  1
  O  O49  1  0.47964486  0.33263084  0.74529993  1
  O  O50  1  0.85298698  0.52035514  0.74529993  1
  O  O51  1  0.66736916  0.52035514  0.24529993  1
  O  O52  1  0.85298698  0.33263084  0.24529993  1
  O  O53  1  0.47964486  0.14701302  0.24529993  1
  O  O54  1  0.62876909  0.48156907  0.92138549  1
  O  O55  1  0.85280099  0.37123091  0.92138549  1
  O  O56  1  0.51843093  0.14719901  0.92138549  1
  O  O57  1  0.62876909  0.14719901  0.42138549  1
  O  O58  1  0.51843093  0.37123091  0.42138549  1
  O  O59  1  0.85280099  0.48156907  0.42138549  1
  O  O60  1  0.33403516  0.48034702  0.07863393  1
  O  O61  1  0.14631086  0.66596484  0.07863393  1
  O  O62  1  0.51965298  0.85368914  0.07863393  1
  O  O63  1  0.33403516  0.85368914  0.57863393  1
  O  O64  1  0.51965298  0.66596484  0.57863393  1
  O  O65  1  0.14631086  0.48034702  0.57863393  1
  O  O66  1  0.29543509  0.81490307  0.25471949  1
  O  O67  1  0.51946699  0.70456491  0.25471949  1
  O  O68  1  0.18509693  0.48053301  0.25471949  1
  O  O69  1  0.29543509  0.48053301  0.75471949  1
  O  O70  1  0.18509693  0.70456491  0.75471949  1
  O  O71  1  0.51946699  0.81490307  0.75471949  1
loop_
_geom_bond_atom_site_label_1
_geom_bond_atom_site_label_2
_geom_bond_distance
_geom_bond_site_symmetry_2
Na0 O53 2.387916 1_555
Na0 O67 2.533238 1_545
Na0 O16 2.591862 1_555
Na0 O52 2.647333 1_555
Na0 O66 2.807760 1_545
Na0 O31 2.923446 1_545
Na1 O51 2.387923 1_555
Na1 O68 2.533246 1_555
Na1 O17 2.591865 1_555
Na1 O53 2.647340 1_555
Na1 O67 2.807761 1_555
Na1 O32 2.923449 1_555
Na2 O52 2.387924 1_555
Na2 O66 2.533239 1_655
Na2 O15 2.591863 1_555
Na2 O51 2.647332 1_555
Na2 O68 2.807753 1_655
Na2 O30 2.923444 1_655
Na3 O49 2.387923 1_555
Na3 O71 2.533246 1_555
Na3 O14 2.591865 1_555
Na3 O50 2.647340 1_555
Na3 O69 2.807761 1_555
Na3 O35 2.923449 1_555
Na4 O50 2.387915 1_555
Na4 O69 2.533238 1_655
Na4 O12 2.591862 1_555
Na4 O48 2.647333 1_555
Na4 O70 2.807760 1_655
Na4 O33 2.923446 1_655
Na5 O48 2.387924 1_555
Na5 O70 2.533239 1_545
Na5 O13 2.591863 1_555
Na5 O49 2.647332 1_555
Na5 O71 2.807753 1_545
Na5 O34 2.923444 1_545
Na6 O65 2.387931 1_555
Na6 O43 2.533238 1_555
Na6 O28 2.591845 1_555
Na6 O64 2.647338 1_555
Na6 O42 2.807760 1_455
Na6 O7 2.923446 1_555
Na7 O63 2.387915 1_555
Na7 O44 2.533246 1_455
Na7 O29 2.591839 1_555
Na7 O65 2.647324 1_555
Na7 O43 2.807761 1_565
Na7 O8 2.923449 1_555
Na8 O64 2.387914 1_555
Na8 O42 2.533239 1_565
Na8 O27 2.591842 1_555
Na8 O63 2.647342 1_555
Na8 O44 2.807753 1_555
Na8 O6 2.923444 1_555
Na9 O61 2.387915 1_555
Na9 O47 2.533246 1_565
Na9 O26 2.591839 1_554
Na9 O62 2.647324 1_555
Na9 O45 2.807761 1_455
Na9 O11 2.923449 1_555
Na10 O62 2.387931 1_555
Na10 O45 2.533238 1_555
Na10 O24 2.591846 1_554
Na10 O60 2.647338 1_555
Na10 O46 2.807760 1_565
Na10 O9 2.923446 1_555
Na11 O60 2.387914 1_555
Na11 O46 2.533239 1_455
Na11 O25 2.591842 1_554
Na11 O61 2.647342 1_555
Na11 O47 2.807753 1_555
Na11 O10 2.923444 1_555
Na12 O41 2.387916 1_555
Na12 O55 2.533246 1_555
Na12 O4 2.591862 1_555
Na12 O40 2.647333 1_655
Na12 O54 2.807752 1_555
Na12 O19 2.923427 1_556
Na13 O39 2.387923 1_655
Na13 O56 2.533229 1_555
Na13 O5 2.591865 1_555
Na13 O41 2.647340 1_545
Na13 O55 2.807750 1_555
Na13 O20 2.923422 1_556
Na14 O40 2.387924 1_545
Na14 O54 2.533244 1_555
Na14 O3 2.591863 1_555
Na14 O39 2.647332 1_555
Na14 O56 2.807768 1_555
Na14 O18 2.923430 1_556
Na15 O37 2.387923 1_545
Na15 O59 2.533229 1_555
Na15 O2 2.591865 1_555
Na15 O38 2.647340 1_655
Na15 O57 2.807751 1_555
Na15 O23 2.923422 1_555
Na16 O38 2.387915 1_555
Na16 O57 2.533246 1_555
Na16 O0 2.591862 1_555
Na16 O36 2.647333 1_545
Na16 O58 2.807752 1_555
Na16 O21 2.923427 1_555
Na17 O36 2.387924 1_655
Na17 O58 2.533244 1_555
Na17 O1 2.591863 1_555
Na17 O37 2.647332 1_555
Na17 O59 2.807768 1_555
Na17 O22 2.923430 1_555
Na18 O36 2.597292 1_545
Na18 O38 2.597292 1_555
Na18 O37 2.597292 1_445
Na18 O42 2.639750 1_455
Na18 O44 2.639750 1_445
Na18 O43 2.639750 1_555
Na19 O39 2.597292 1_555
Na19 O41 2.597292 1_445
Na19 O40 2.597292 1_545
Na19 O46 2.639750 1_456
Na19 O47 2.639750 1_556
Na19 O45 2.639750 1_446
Na20 O48 2.597292 1_555
Na20 O50 2.597292 1_555
Na20 O49 2.597292 1_555
Na20 O54 2.639750 1_555
Na20 O56 2.639750 1_555
Na20 O55 2.639750 1_555
Na21 O51 2.597292 1_555
Na21 O53 2.597292 1_555
Na21 O52 2.597292 1_555
Na21 O58 2.639750 1_555
Na21 O59 2.639750 1_555
Na21 O57 2.639750 1_555
Na22 O60 2.597292 1_555
Na22 O62 2.597292 1_555
Na22 O61 2.597292 1_555
Na22 O66 2.639750 1_555
Na22 O68 2.639750 1_555
Na22 O67 2.639750 1_555
Na23 O63 2.597292 1_555
Na23 O65 2.597292 1_555
Na23 O64 2.597292 1_555
Na23 O70 2.639750 1_555
Na23 O71 2.639750 1_555
Na23 O69 2.639750 1_555
Nb0 O7 1.994300 1_555
Nb0 O8 1.994300 1_545
Nb0 O6 1.994300 1_445
Nb0 O42 2.108134 1_455
Nb0 O44 2.108134 1_445
Nb0 O43 2.108134 1_555
Nb1 O10 1.994300 1_555
Nb1 O9 1.994300 1_445
Nb1 O11 1.994300 1_545
Nb1 O46 2.108134 1_455
Nb1 O47 2.108134 1_555
Nb1 O45 2.108134 1_445
Nb2 O19 1.994300 1_556
Nb2 O20 1.994300 1_556
Nb2 O18 1.994300 1_556
Nb2 O54 2.108134 1_555
Nb2 O56 2.108134 1_555
Nb2 O55 2.108134 1_555
Nb3 O22 1.994300 1_555
Nb3 O21 1.994300 1_555
Nb3 O23 1.994300 1_555
Nb3 O58 2.108134 1_555
Nb3 O59 2.108134 1_555
Nb3 O57 2.108134 1_555
Nb4 O31 1.994300 1_555
Nb4 O32 1.994300 1_555
Nb4 O30 1.994300 1_555
Nb4 O66 2.108134 1_555
Nb4 O68 2.108134 1_555
Nb4 O67 2.108134 1_555
Nb5 O34 1.994300 1_555
Nb5 O33 1.994300 1_555
Nb5 O35 1.994300 1_555
Nb5 O70 2.108134 1_555
Nb5 O71 2.108134 1_555
Nb5 O69 2.108134 1_555
O0 Si0 1.598842 1_545
O0 Y0 2.150914 1_555
O1 Si1 1.598842 1_555
O1 Y0 2.150914 1_665
O2 Si2 1.598842 1_655
O2 Y0 2.150914 1_655
O3 Si3 1.598842 1_555
O3 Y1 2.150914 1_555
O4 Si4 1.598842 1_655
O4 Y1 2.150914 1_665
O5 Si5 1.598842 1_545
O5 Y1 2.150914 1_655
O6 Si5 1.720097 1_555
O7 Si3 1.720097 1_555
O8 Si4 1.720097 1_555
O9 Si1 1.720097 1_555
O10 Si2 1.720097 1_555
O11 Si0 1.720097 1_555
O12 Si6 1.598842 1_555
O12 Y2 2.150914 1_555
O13 Si7 1.598842 1_555
O13 Y2 2.150914 1_555
O14 Si8 1.598842 1_555
O14 Y2 2.150914 1_555
O15 Si9 1.598842 1_555
O15 Y3 2.150914 1_555
O16 Si10 1.598842 1_555
O16 Y3 2.150914 1_555
O17 Si11 1.598842 1_555
O17 Y3 2.150914 1_555
O18 Si11 1.720097 1_555
O19 Si9 1.720097 1_555
O20 Si10 1.720097 1_555
O21 Si7 1.720097 1_555
O22 Si8 1.720097 1_555
O23 Si6 1.720097 1_555
O24 Si12 1.598842 1_555
O24 Y4 2.150914 1_556
O25 Si13 1.598842 1_555
O25 Y4 2.150914 1_556
O26 Si14 1.598842 1_555
O26 Y4 2.150914 1_556
O27 Si15 1.598842 1_555
O27 Y5 2.150914 1_555
O28 Si16 1.598842 1_555
O28 Y5 2.150914 1_555
O29 Si17 1.598842 1_555
O29 Y5 2.150914 1_555
O30 Si17 1.720097 1_555
O31 Si15 1.720097 1_555
O32 Si16 1.720097 1_555
O33 Si13 1.720097 1_555
O34 Si14 1.720097 1_555
O35 Si12 1.720097 1_555
O36 Si17 1.618310 1_555
O36 Y0 2.270920 1_565
O37 Si15 1.618319 1_555
O37 Y0 2.270920 1_665
O38 Si16 1.618316 1_555
O38 Y0 2.270920 1_555
O39 Si13 1.618319 1_555
O39 Y1 2.270920 1_555
O40 Si14 1.618310 1_555
O40 Y1 2.270920 1_565
O41 Si12 1.618316 1_555
O41 Y1 2.270920 1_665
O42 Si6 1.675166 1_555
O43 Si7 1.675175 1_555
O44 Si8 1.675170 1_555
O45 Si9 1.675175 1_555
O46 Si10 1.675166 1_555
O47 Si11 1.675170 1_555
O48 Si5 1.618310 1_545
O48 Y2 2.270920 1_555
O49 Si3 1.618319 1_555
O49 Y2 2.270920 1_555
O50 Si4 1.618316 1_655
O50 Y2 2.270920 1_555
O51 Si1 1.618319 1_555
O51 Y3 2.270920 1_555
O52 Si2 1.618310 1_655
O52 Y3 2.270920 1_555
O53 Si0 1.618316 1_545
O53 Y3 2.270920 1_555
O54 Si12 1.675179 1_555
O55 Si13 1.675160 1_655
O56 Si14 1.675169 1_545
O57 Si15 1.675160 1_545
O58 Si16 1.675179 1_555
O59 Si17 1.675169 1_655
O60 Si11 1.618324 1_555
O60 Y4 2.270920 1_555
O61 Si9 1.618305 1_455
O61 Y4 2.270920 1_555
O62 Si10 1.618312 1_565
O62 Y4 2.270920 1_555
O63 Si7 1.618305 1_565
O63 Y5 2.270920 1_555
O64 Si8 1.618324 1_555
O64 Y5 2.270920 1_555
O65 Si6 1.618312 1_455
O65 Y5 2.270920 1_555
O66 Si0 1.675166 1_555
O67 Si1 1.675175 1_555
O68 Si2 1.675170 1_555
O69 Si3 1.675175 1_555
O70 Si4 1.675166 1_555
O71 Si5 1.675170 1_555
