# generated using pymatgen
data_Na3BN2
_symmetry_space_group_name_H-M   'P 1'
_cell_length_a   7.88193323
_cell_length_b   5.67186507
_cell_length_c   7.80701093
_cell_angle_alpha   68.70069908
_cell_angle_beta   90.00000000
_cell_angle_gamma   90.00000000
_symmetry_Int_Tables_number   1
_chemical_formula_structural   Na3BN2
_chemical_formula_sum   'Na12 B4 N8'
_cell_volume   325.17526437
_cell_formula_units_Z   4
loop_
 _symmetry_equiv_pos_site_id
 _symmetry_equiv_pos_as_xyz
  1  'x, y, z'
loop_
 _atom_site_type_symbol
 _atom_site_label
 _atom_site_symmetry_multiplicity
 _atom_site_fract_x
 _atom_site_fract_y
 _atom_site_fract_z
 _atom_site_occupancy
  Na  Na0  1  0.29198640  0.25756664  0.81325946  1
  Na  Na1  1  0.79198640  0.74243336  0.68674054  1
  Na  Na2  1  0.70801360  0.74243336  0.18674054  1
  Na  Na3  1  0.20801360  0.25756664  0.31325946  1
  Na  Na4  1  0.47952434  0.76000167  0.87791119  1
  Na  Na5  1  0.97952434  0.23999833  0.62208881  1
  Na  Na6  1  0.52047566  0.23999833  0.12208881  1
  Na  Na7  1  0.02047566  0.76000167  0.37791119  1
  Na  Na8  1  0.03138596  0.74826339  0.99196511  1
  Na  Na9  1  0.53138596  0.25173661  0.50803489  1
  Na  Na10  1  0.96861404  0.25173661  0.00803489  1
  Na  Na11  1  0.46861404  0.74826339  0.49196511  1
  B  B0  1  0.32191950  0.78580768  0.17643344  1
  B  B1  1  0.67808050  0.21419232  0.82356656  1
  B  B2  1  0.17808050  0.78580768  0.67643344  1
  B  B3  1  0.82191950  0.21419232  0.32356656  1
  N  N0  1  0.92495266  0.41759673  0.27611231  1
  N  N1  1  0.22033155  0.99054265  0.12923734  1
  N  N2  1  0.07504734  0.58240327  0.72388769  1
  N  N3  1  0.42495266  0.58240327  0.22388769  1
  N  N4  1  0.72033155  0.00945735  0.37076266  1
  N  N5  1  0.77966845  0.00945735  0.87076266  1
  N  N6  1  0.57504734  0.41759673  0.77611231  1
  N  N7  1  0.27966845  0.99054265  0.62923734  1
loop_
_geom_bond_atom_site_label_1
_geom_bond_atom_site_label_2
_geom_bond_distance
_geom_bond_site_symmetry_2
B0 N1 1.347039 1_555
B0 N3 1.348049 1_555
B0 Na11 2.658812 1_555
B0 Na4 2.691453 1_554
B0 Na8 2.754288 1_554
B0 Na7 2.823737 1_555
B0 Na6 2.910596 1_565
B1 N5 1.347039 1_555
B1 N6 1.348049 1_555
B1 Na9 2.658812 1_555
B1 Na6 2.691453 1_556
B1 Na10 2.754288 1_556
B1 Na5 2.823737 1_555
B1 Na4 2.910596 1_545
B2 N7 1.347039 1_555
B2 N2 1.348049 1_555
B2 Na8 2.658812 1_555
B2 Na7 2.691453 1_555
B2 Na11 2.754288 1_555
B2 Na4 2.823737 1_555
B2 Na5 2.910596 1_465
B3 N4 1.347039 1_555
B3 N0 1.348049 1_555
B3 Na10 2.658812 1_555
B3 Na5 2.691453 1_555
B3 Na9 2.754288 1_555
B3 Na6 2.823737 1_555
B3 Na7 2.910596 1_645
N0 Na3 2.386294 1_655
N0 Na2 2.423061 1_555
N0 Na7 2.468082 1_655
N0 Na8 2.473816 1_654
N0 Na5 2.553178 1_555
N0 Na10 2.610346 1_555
N1 Na3 2.438837 1_565
N1 Na0 2.446196 1_564
N1 Na10 2.451127 1_465
N1 Na7 2.473063 1_555
N1 Na8 2.514881 1_554
N1 Na6 2.746679 1_565
N2 Na1 2.386294 1_455
N2 Na0 2.423061 1_555
N2 Na5 2.468082 1_455
N2 Na10 2.473816 1_456
N2 Na7 2.553178 1_555
N2 Na8 2.610346 1_555
N3 Na2 2.386294 1_555
N3 Na3 2.423061 1_555
N3 Na6 2.468082 1_555
N3 Na9 2.473816 1_555
N3 Na4 2.553178 1_554
N3 Na11 2.610346 1_555
N4 Na2 2.438837 1_545
N4 Na1 2.446196 1_545
N4 Na11 2.451127 1_545
N4 Na6 2.473063 1_555
N4 Na9 2.514881 1_555
N4 Na7 2.746679 1_645
N5 Na1 2.438837 1_545
N5 Na2 2.446196 1_546
N5 Na8 2.451127 1_645
N5 Na5 2.473063 1_555
N5 Na10 2.514881 1_556
N5 Na4 2.746679 1_545
N6 Na0 2.386294 1_555
N6 Na1 2.423061 1_555
N6 Na4 2.468082 1_555
N6 Na11 2.473816 1_555
N6 Na6 2.553178 1_556
N6 Na9 2.610346 1_555
N7 Na0 2.438837 1_565
N7 Na3 2.446196 1_565
N7 Na9 2.451127 1_565
N7 Na4 2.473063 1_555
N7 Na11 2.514881 1_555
N7 Na5 2.746679 1_465
