# generated using pymatgen
data_Na3Ca2Hf2P3(SO8)3
_symmetry_space_group_name_H-M   'P 1'
_cell_length_a   9.06566203
_cell_length_b   9.03002027
_cell_length_c   23.50586164
_cell_angle_alpha   90.01507964
_cell_angle_beta   89.85501587
_cell_angle_gamma   119.98093248
_symmetry_Int_Tables_number   1
_chemical_formula_structural   Na3Ca2Hf2P3(SO8)3
_chemical_formula_sum   'Na9 Ca6 Hf6 P9 S9 O72'
_cell_volume   1666.77427115
_cell_formula_units_Z   3
loop_
 _symmetry_equiv_pos_site_id
 _symmetry_equiv_pos_as_xyz
  1  'x, y, z'
loop_
 _atom_site_type_symbol
 _atom_site_label
 _atom_site_symmetry_multiplicity
 _atom_site_fract_x
 _atom_site_fract_y
 _atom_site_fract_z
 _atom_site_occupancy
  Na  Na0  1  0.66340588  0.68312844  0.08394830  1
  Na  Na1  1  0.33087518  0.29401833  0.91604855  1
  Na  Na2  1  0.32994982  0.03627942  0.41606776  1
  Na  Na3  1  0.99234929  0.00212310  0.50058923  1
  Na  Na4  1  0.00819119  0.99431985  0.00056576  1
  Na  Na5  1  0.68568627  0.33516705  0.83222602  1
  Na  Na6  1  0.68429508  0.34834195  0.33142858  1
  Na  Na7  1  0.30774229  0.65314095  0.16377328  1
  Na  Na8  1  0.33505965  0.67978265  0.66334916  1
  Ca  Ca0  1  0.99509763  0.00139555  0.34378859  1
  Ca  Ca1  1  0.99211671  0.99058884  0.84301742  1
  Ca  Ca2  1  0.67526220  0.33771016  0.98450972  1
  Ca  Ca3  1  0.66728954  0.33475088  0.48454406  1
  Ca  Ca4  1  0.31784210  0.66490649  0.02359649  1
  Ca  Ca5  1  0.33340371  0.66863281  0.52452400  1
  Hf  Hf0  1  0.00766586  0.00110316  0.65593135  1
  Hf  Hf1  1  0.01221145  0.00636606  0.15622589  1
  Hf  Hf2  1  0.65796052  0.32565475  0.68507513  1
  Hf  Hf3  1  0.66503711  0.33577529  0.18518105  1
  Hf  Hf4  1  0.33370226  0.66244332  0.30830096  1
  Hf  Hf5  1  0.33353262  0.67117174  0.80815418  1
  P  P0  1  0.30527120  0.00178656  0.25311480  1
  P  P1  1  0.69964040  0.70018872  0.24825845  1
  P  P2  1  0.99634557  0.30116378  0.24992683  1
  P  P3  1  0.30237002  0.30186988  0.75258332  1
  P  P4  1  0.99580622  0.69320844  0.74919908  1
  P  P5  1  0.70137684  0.00083694  0.74912053  1
  P  P6  1  0.36134904  0.03894205  0.58418321  1
  P  P7  1  0.95892018  0.63808714  0.08806681  1
  P  P8  1  0.36555249  0.32367650  0.08381717  1
  S  S0  1  0.95818985  0.32154042  0.58821092  1
  S  S1  1  0.67925770  0.63838085  0.58833529  1
  S  S2  1  0.67952213  0.03931551  0.08794496  1
  S  S3  1  0.61992742  0.66663454  0.91563791  1
  S  S4  1  0.04421572  0.37660251  0.91220471  1
  S  S5  1  0.33522484  0.96150971  0.91310720  1
  S  S6  1  0.62075873  0.95475941  0.41397148  1
  S  S7  1  0.33464186  0.37549394  0.41422147  1
  S  S8  1  0.04514887  0.66580979  0.41341492  1
  O  O0  1  0.24849142  0.03978113  0.30931456  1
  O  O1  1  0.80448731  0.76518041  0.30156701  1
  O  O2  1  0.95831629  0.20195436  0.30463145  1
  O  O3  1  0.24657021  0.20701782  0.80878920  1
  O  O4  1  0.95411898  0.75217651  0.80376204  1
  O  O5  1  0.80058459  0.04254968  0.80380941  1
  O  O6  1  0.79460142  0.97044610  0.69885260  1
  O  O7  1  0.17442001  0.20190224  0.70371874  1
  O  O8  1  0.02799445  0.82012795  0.69918684  1
  O  O9  1  0.78728259  0.81805816  0.19581221  1
  O  O10  1  0.02670078  0.20724626  0.19954366  1
  O  O11  1  0.17671484  0.97387955  0.20416151  1
  O  O12  1  0.85920218  0.33591495  0.63614237  1
  O  O13  1  0.48676085  0.15728640  0.63137634  1
  O  O14  1  0.67074829  0.52823865  0.63655325  1
  O  O15  1  0.85216705  0.51793495  0.13755176  1
  O  O16  1  0.66421471  0.13310081  0.13688261  1
  O  O17  1  0.49009317  0.33117738  0.13098042  1
  O  O18  1  0.42381149  0.29600722  0.02521315  1
  O  O19  1  0.85783883  0.57278672  0.03261088  1
  O  O20  1  0.70128260  0.13070611  0.03414790  1
  O  O21  1  0.42263420  0.12357242  0.52553601  1
  O  O22  1  0.70390114  0.57145640  0.53421909  1
  O  O23  1  0.86922714  0.30023744  0.53391487  1
  O  O24  1  0.54015604  0.67268132  0.96986270  1
  O  O25  1  0.13784282  0.45939538  0.96463975  1
  O  O26  1  0.32953435  0.87101820  0.96547804  1
  O  O27  1  0.53705868  0.86353093  0.46663744  1
  O  O28  1  0.32831646  0.46054086  0.46644967  1
  O  O29  1  0.13931714  0.67606000  0.46558110  1
  O  O30  1  0.14395838  0.66068511  0.36216463  1
  O  O31  1  0.51549068  0.85373960  0.36322195  1
  O  O32  1  0.33588391  0.47560204  0.36263294  1
  O  O33  1  0.14382922  0.48226024  0.86137183  1
  O  O34  1  0.33468677  0.86104856  0.86176944  1
  O  O35  1  0.51160185  0.66411246  0.86612545  1
  O  O36  1  0.03548144  0.82525277  0.41059775  1
  O  O37  1  0.79287249  0.97929563  0.41114627  1
  O  O38  1  0.18396088  0.20040806  0.41253134  1
  O  O39  1  0.03502151  0.20797211  0.90928043  1
  O  O40  1  0.18412190  0.98498606  0.91177976  1
  O  O41  1  0.79209713  0.81464687  0.91204676  1
  O  O42  1  0.97303068  0.16482686  0.59674177  1
  O  O43  1  0.18427593  0.02498540  0.59700814  1
  O  O44  1  0.83194938  0.81256111  0.59644418  1
  O  O45  1  0.97046051  0.81588166  0.09852111  1
  O  O46  1  0.83323591  0.01885997  0.09528575  1
  O  O47  1  0.18517519  0.16947386  0.09726712  1
  O  O48  1  0.66667448  0.14911307  0.73497234  1
  O  O49  1  0.48175939  0.33192644  0.73667625  1
  O  O50  1  0.84882169  0.51270180  0.73411711  1
  O  O51  1  0.66375705  0.51529742  0.23632566  1
  O  O52  1  0.84741042  0.33238926  0.23588834  1
  O  O53  1  0.48375397  0.15008362  0.23710169  1
  O  O54  1  0.62097096  0.50170167  0.91186337  1
  O  O55  1  0.87508131  0.36139112  0.91098785  1
  O  O56  1  0.49190075  0.13278502  0.91029574  1
  O  O57  1  0.62241855  0.12144359  0.41183572  1
  O  O58  1  0.49144265  0.36089858  0.41162446  1
  O  O59  1  0.87525145  0.51173292  0.41224578  1
  O  O60  1  0.36633710  0.49463465  0.08722851  1
  O  O61  1  0.13573886  0.65850103  0.08915570  1
  O  O62  1  0.52884291  0.86468389  0.08723656  1
  O  O63  1  0.34561516  0.86304075  0.58929595  1
  O  O64  1  0.52349579  0.65047400  0.58904226  1
  O  O65  1  0.12915464  0.47365696  0.58890873  1
  O  O66  1  0.31737419  0.83528175  0.25644990  1
  O  O67  1  0.51972132  0.68351081  0.25526123  1
  O  O68  1  0.16241616  0.48082147  0.25476928  1
  O  O69  1  0.31795172  0.48193968  0.75635307  1
  O  O70  1  0.16285114  0.68229450  0.75482176  1
  O  O71  1  0.52087216  0.83649086  0.75518206  1
loop_
_geom_bond_atom_site_label_1
_geom_bond_atom_site_label_2
_geom_bond_distance
_geom_bond_site_symmetry_2
Na0 O60 2.360870 1_555
Na0 O45 2.443909 1_555
Na0 O62 2.486001 1_555
Na0 O46 2.639917 1_565
Na0 O19 2.701825 1_555
Na0 O9 2.881928 1_555
Na0 O24 2.891098 1_554
Na1 O54 2.347916 1_555
Na1 O39 2.396257 1_555
Na1 O40 2.420206 1_545
Na1 O56 2.528267 1_555
Na1 O3 2.639415 1_555
Na1 O18 2.700068 1_556
Na2 O57 2.364783 1_555
Na2 O36 2.385741 1_545
Na2 O38 2.432306 1_555
Na2 O58 2.541110 1_555
Na2 O0 2.622178 1_555
Na2 O21 2.701179 1_555
Na3 O37 2.716514 1_545
Na3 O38 2.717181 1_655
Na3 O42 2.747901 1_555
Na3 O44 2.760264 1_545
Na3 O36 2.792233 1_645
Na3 O43 2.804878 1_655
Na4 O40 2.650254 1_554
Na4 O45 2.731674 1_455
Na4 O41 2.764379 1_454
Na4 O47 2.779031 1_565
Na4 O46 2.802696 1_465
Na4 O39 2.813546 1_564
Na5 O55 2.457883 1_555
Na5 O56 2.563288 1_555
Na5 O54 2.642829 1_555
Na5 O50 2.773206 1_555
Na5 O48 2.790852 1_555
Na5 O49 2.903447 1_555
Na6 O59 2.498997 1_555
Na6 O58 2.608518 1_555
Na6 O57 2.633039 1_555
Na6 O52 2.728880 1_555
Na6 O51 2.754875 1_555
Na6 O53 2.862146 1_555
Na7 O61 2.366325 1_555
Na7 O60 2.514324 1_555
Na7 O68 2.582772 1_555
Na7 O62 2.657101 1_555
Na7 O66 2.704429 1_555
Na7 O67 2.808347 1_555
Na8 O63 2.370652 1_555
Na8 O64 2.544723 1_555
Na8 O65 2.559894 1_555
Na8 O70 2.660695 1_555
Na8 O71 2.670971 1_555
Na8 O69 2.778191 1_555
Ca0 O2 2.200963 1_555
Ca0 O1 2.201042 1_545
Ca0 O0 2.291021 1_655
Ca0 O37 2.351063 1_545
Ca0 O38 2.389429 1_655
Ca0 O36 2.390887 1_645
Ca1 O4 2.205520 1_555
Ca1 O5 2.215191 1_565
Ca1 O3 2.296488 1_665
Ca1 O41 2.356327 1_555
Ca1 O39 2.380958 1_665
Ca1 O40 2.397335 1_655
Ca2 O19 2.240707 1_556
Ca2 O20 2.313950 1_556
Ca2 O18 2.320529 1_556
Ca2 O55 2.431274 1_555
Ca2 O54 2.466804 1_555
Ca2 O56 2.483818 1_555
Ca3 O21 2.290696 1_555
Ca3 O22 2.309527 1_555
Ca3 O23 2.318732 1_555
Ca3 O58 2.434190 1_555
Ca3 O59 2.443461 1_555
Ca3 O57 2.452597 1_555
Ca4 O61 2.235010 1_555
Ca4 O25 2.238478 1_554
Ca4 O26 2.268261 1_554
Ca4 O60 2.339804 1_555
Ca4 O24 2.346897 1_554
Ca4 O62 2.390702 1_555
Ca5 O27 2.258011 1_555
Ca5 O29 2.269442 1_555
Ca5 O63 2.284151 1_555
Ca5 O28 2.304098 1_555
Ca5 O65 2.355399 1_555
Ca5 O64 2.364827 1_555
Hf0 O8 2.010279 1_545
Hf0 O7 2.025555 1_555
Hf0 O43 2.042590 1_555
Hf0 O6 2.069142 1_445
Hf0 O42 2.165018 1_455
Hf0 O44 2.165858 1_445
Hf1 O11 2.006402 1_545
Hf1 O10 2.026332 1_555
Hf1 O47 2.056847 1_555
Hf1 O45 2.071823 1_445
Hf1 O9 2.107412 1_445
Hf1 O46 2.211798 1_455
Hf2 O13 1.991025 1_555
Hf2 O48 2.012608 1_555
Hf2 O49 2.026474 1_555
Hf2 O50 2.064911 1_555
Hf2 O14 2.109322 1_555
Hf2 O12 2.116709 1_555
Hf3 O15 2.009867 1_555
Hf3 O17 2.021042 1_555
Hf3 O51 2.022634 1_555
Hf3 O52 2.053201 1_555
Hf3 O53 2.058844 1_555
Hf3 O16 2.150286 1_555
Hf4 O67 2.025663 1_555
Hf4 O68 2.036645 1_555
Hf4 O66 2.043550 1_555
Hf4 O32 2.124292 1_555
Hf4 O30 2.126950 1_555
Hf4 O31 2.128603 1_555
Hf5 O71 2.029718 1_555
Hf5 O70 2.034977 1_555
Hf5 O69 2.044753 1_555
Hf5 O33 2.119122 1_555
Hf5 O34 2.123493 1_555
Hf5 O35 2.140317 1_555
O0 P0 1.516774 1_555
O1 P1 1.505386 1_555
O2 P2 1.504858 1_555
O3 P3 1.516306 1_555
O4 P4 1.506521 1_555
O5 P5 1.506760 1_555
O6 P5 1.553161 1_565
O7 P3 1.561847 1_555
O8 P4 1.563772 1_455
O9 P1 1.560283 1_555
O10 P2 1.558397 1_455
O11 P0 1.568110 1_565
O12 S0 1.484171 1_555
O13 P6 1.567385 1_555
O14 S1 1.484328 1_555
O15 P7 1.553170 1_555
O16 S2 1.475074 1_555
O17 P8 1.561479 1_555
O18 P8 1.538509 1_555
O19 P7 1.533706 1_555
O20 S2 1.468205 1_555
O21 P6 1.538000 1_555
O22 S1 1.471843 1_555
O23 S0 1.471856 1_555
O24 S3 1.478290 1_555
O25 S4 1.472792 1_555
O26 S5 1.464197 1_555
O27 S6 1.469014 1_555
O28 S7 1.464038 1_555
O29 S8 1.472150 1_555
O30 S8 1.513852 1_555
O31 S6 1.516920 1_555
O32 S7 1.509343 1_555
O33 S4 1.512468 1_555
O34 S5 1.508053 1_555
O35 S3 1.517515 1_555
O36 S8 1.487012 1_555
O37 S6 1.463587 1_555
O38 S7 1.486275 1_555
O39 S4 1.484426 1_555
O40 S5 1.487564 1_555
O41 S3 1.464295 1_555
O42 S0 1.500488 1_555
O43 P6 1.574509 1_555
O44 S1 1.500518 1_555
O45 P7 1.575112 1_555
O46 S2 1.504749 1_555
O47 P8 1.560391 1_555
O48 P5 1.556944 1_555
O49 P3 1.553740 1_555
O50 P4 1.545792 1_555
O51 P1 1.558646 1_555
O52 P2 1.547327 1_555
O53 P0 1.544250 1_555
O54 S3 1.496704 1_555
O55 S4 1.469853 1_655
O56 S5 1.489270 1_545
O57 S6 1.498552 1_545
O58 S7 1.492838 1_555
O59 S8 1.472180 1_655
O60 P8 1.542279 1_555
O61 P7 1.519560 1_455
O62 S2 1.483307 1_565
O63 P6 1.526879 1_565
O64 S1 1.469754 1_555
O65 S0 1.470262 1_455
O66 P0 1.563267 1_565
O67 P1 1.569512 1_555
O68 P2 1.572014 1_455
O69 P3 1.562761 1_555
O70 P4 1.571841 1_455
O71 P5 1.572365 1_565
