# generated using pymatgen
data_Co2CuO4
_symmetry_space_group_name_H-M   'P 1'
_cell_length_a   5.85840850
_cell_length_b   5.89651802
_cell_length_c   5.91833378
_cell_angle_alpha   59.30382523
_cell_angle_beta   59.46169688
_cell_angle_gamma   60.98971406
_symmetry_Int_Tables_number   1
_chemical_formula_structural   Co2CuO4
_chemical_formula_sum   'Co4 Cu2 O8'
_cell_volume   144.21908670
_cell_formula_units_Z   2
loop_
 _symmetry_equiv_pos_site_id
 _symmetry_equiv_pos_as_xyz
  1  'x, y, z'
loop_
 _atom_site_type_symbol
 _atom_site_label
 _atom_site_symmetry_multiplicity
 _atom_site_fract_x
 _atom_site_fract_y
 _atom_site_fract_z
 _atom_site_occupancy
  Co  Co0  1  0.12499600  0.62499600  0.62500500  1
  Co  Co1  1  0.62500600  0.12498400  0.62500700  1
  Co  Co2  1  0.62500000  0.62500700  0.12500600  1
  Co  Co3  1  0.62499500  0.62499300  0.62500300  1
  Cu  Cu0  1  0.99916600  0.00136000  0.99771000  1
  Cu  Cu1  1  0.25085700  0.24871300  0.25220000  1
  O  O0  1  0.39834400  0.37714000  0.38666000  1
  O  O1  1  0.38897000  0.37492300  0.84494800  1
  O  O2  1  0.38598200  0.84006400  0.39735700  1
  O  O3  1  0.84766500  0.38537100  0.38944000  1
  O  O4  1  0.40236800  0.86459600  0.86056200  1
  O  O5  1  0.86398700  0.40995900  0.85264900  1
  O  O6  1  0.86100800  0.87505000  0.40509200  1
  O  O7  1  0.85165600  0.87284500  0.86336000  1
loop_
_geom_bond_atom_site_label_1
_geom_bond_atom_site_label_2
_geom_bond_distance
_geom_bond_site_symmetry_2
Co0 O5 1.950362 1_455
Co0 O2 1.950385 1_555
Co0 O6 2.033293 1_455
Co0 O1 2.033353 1_555
Co0 O0 2.056547 1_555
Co0 O7 2.056553 1_455
Co1 O7 1.952147 1_545
Co1 O0 1.952177 1_555
Co1 O4 1.977704 1_545
Co1 O3 1.977782 1_555
Co1 O6 1.982622 1_545
Co1 O1 1.982749 1_555
Co2 O7 1.943929 1_554
Co2 O0 1.944048 1_555
Co2 O4 2.043573 1_554
Co2 O3 2.043661 1_555
Co2 O5 2.058587 1_554
Co2 O2 2.058594 1_555
Co3 O5 1.958097 1_555
Co3 O2 1.958178 1_555
Co3 O6 1.992258 1_555
Co3 O1 1.992350 1_555
Co3 O4 2.004144 1_555
Co3 O3 2.004233 1_555
Cu0 O4 1.939343 1_645
Cu0 O6 1.947066 1_546
Cu0 O5 1.974197 1_555
Cu0 O7 1.975323 1_545
Cu1 O3 1.939278 1_455
Cu1 O1 1.946462 1_554
Cu1 O2 1.974434 1_545
Cu1 O0 1.975330 1_555
