# generated using pymatgen
data_Na6Ca3SnP4(SO12)2
_symmetry_space_group_name_H-M   'P 1'
_cell_length_a   9.29393959
_cell_length_b   9.30481358
_cell_length_c   23.16554405
_cell_angle_alpha   90.24839101
_cell_angle_beta   89.87449142
_cell_angle_gamma   119.92314418
_symmetry_Int_Tables_number   1
_chemical_formula_structural   Na6Ca3SnP4(SO12)2
_chemical_formula_sum   'Na18 Ca9 Sn3 P12 S6 O72'
_cell_volume   1736.25054617
_cell_formula_units_Z   3
loop_
 _symmetry_equiv_pos_site_id
 _symmetry_equiv_pos_as_xyz
  1  'x, y, z'
loop_
 _atom_site_type_symbol
 _atom_site_label
 _atom_site_symmetry_multiplicity
 _atom_site_fract_x
 _atom_site_fract_y
 _atom_site_fract_z
 _atom_site_occupancy
  Na  Na0  1  0.36416882  0.36448500  0.25445513  1
  Na  Na1  1  0.64005027  0.64467989  0.74764032  1
  Na  Na2  1  0.99402308  0.34526283  0.75135800  1
  Na  Na3  1  0.29594869  0.34671312  0.58238918  1
  Na  Na4  1  0.02524781  0.68923723  0.57765706  1
  Na  Na5  1  0.67444322  0.95892676  0.57970474  1
  Na  Na6  1  0.28753097  0.96118078  0.07735239  1
  Na  Na7  1  0.66183430  0.68665571  0.07939655  1
  Na  Na8  1  0.04850928  0.34639130  0.08070768  1
  Na  Na9  1  0.32183560  0.29751732  0.91106378  1
  Na  Na10  1  0.98203242  0.30763159  0.41394095  1
  Na  Na11  1  0.68839573  0.67244245  0.41421260  1
  Na  Na12  1  0.00366867  0.99929432  0.49205677  1
  Na  Na13  1  0.99418469  0.98309215  0.98957862  1
  Na  Na14  1  0.65405889  0.30619783  0.83280778  1
  Na  Na15  1  0.66521828  0.31716971  0.33480193  1
  Na  Na16  1  0.32207726  0.66963700  0.17244532  1
  Na  Na17  1  0.33984603  0.66740432  0.66959730  1
  Ca  Ca0  1  0.00405828  0.99428046  0.35070589  1
  Ca  Ca1  1  0.99726844  0.99776702  0.85122395  1
  Ca  Ca2  1  0.99524603  0.00570792  0.65551317  1
  Ca  Ca3  1  0.99963249  0.99406640  0.15035356  1
  Ca  Ca4  1  0.65753514  0.32656728  0.68651370  1
  Ca  Ca5  1  0.67551269  0.33874955  0.18496520  1
  Ca  Ca6  1  0.33337906  0.66894383  0.01235834  1
  Ca  Ca7  1  0.33266670  0.66831413  0.50950570  1
  Ca  Ca8  1  0.33415906  0.67971532  0.32407046  1
  Sn  Sn0  1  0.67148135  0.34038327  0.97791310  1
  Sn  Sn1  1  0.66735404  0.33364860  0.48331409  1
  Sn  Sn2  1  0.33850522  0.67416819  0.82504428  1
  P  P0  1  0.30478617  0.32039543  0.75504667  1
  P  P1  1  0.68532468  0.98797979  0.75221398  1
  P  P2  1  0.96035761  0.33290018  0.58314968  1
  P  P3  1  0.66813042  0.62871521  0.58298481  1
  P  P4  1  0.95758941  0.62450368  0.08004508  1
  P  P5  1  0.37493620  0.33158499  0.08144960  1
  P  P6  1  0.63206645  0.65795482  0.91942535  1
  P  P7  1  0.02940098  0.37280357  0.91801985  1
  P  P8  1  0.34480347  0.97623249  0.92058707  1
  P  P9  1  0.64223843  0.98212437  0.42214374  1
  P  P10  1  0.34238219  0.36136211  0.41930894  1
  P  P11  1  0.01678594  0.65714578  0.42264016  1
  S  S0  1  0.30521817  0.00041776  0.24696062  1
  S  S1  1  0.68801873  0.69330908  0.24968844  1
  S  S2  1  0.00545644  0.30479114  0.25020109  1
  S  S3  1  0.01173985  0.69822017  0.75079393  1
  S  S4  1  0.37116314  0.03989668  0.58132473  1
  S  S5  1  0.66914358  0.04455477  0.08073613  1
  O  O0  1  0.21235451  0.01489663  0.29630550  1
  O  O1  1  0.78389380  0.78133448  0.30160071  1
  O  O2  1  0.99636668  0.20786979  0.30206705  1
  O  O3  1  0.21987421  0.21498503  0.80746184  1
  O  O4  1  0.98998157  0.78477986  0.79920520  1
  O  O5  1  0.80407292  0.00884877  0.80032726  1
  O  O6  1  0.74264248  0.94688104  0.69405155  1
  O  O7  1  0.20353041  0.24816757  0.69845821  1
  O  O8  1  0.03397223  0.78754839  0.69563059  1
  O  O9  1  0.77176722  0.78362777  0.19627663  1
  O  O10  1  0.01567445  0.21974210  0.19672894  1
  O  O11  1  0.21658174  0.98771847  0.19197439  1
  O  O12  1  0.87735965  0.34952021  0.63756056  1
  O  O13  1  0.47015072  0.11740340  0.63264267  1
  O  O14  1  0.64708089  0.52666140  0.63684781  1
  O  O15  1  0.87788998  0.51628581  0.13229178  1
  O  O16  1  0.64711520  0.12093633  0.13261856  1
  O  O17  1  0.47451869  0.34912015  0.13584444  1
  O  O18  1  0.46539466  0.30836348  0.02613050  1
  O  O19  1  0.84526483  0.53614351  0.02493557  1
  O  O20  1  0.69212948  0.14937855  0.02832519  1
  O  O21  1  0.45349873  0.14462731  0.52876987  1
  O  O22  1  0.68452043  0.53508358  0.52751508  1
  O  O23  1  0.84736723  0.31045362  0.52825166  1
  O  O24  1  0.55456812  0.67401728  0.97512504  1
  O  O25  1  0.12628493  0.45075153  0.97308244  1
  O  O26  1  0.32860950  0.88760081  0.97697875  1
  O  O27  1  0.57086803  0.88648686  0.47845354  1
  O  O28  1  0.32052039  0.44199809  0.47415356  1
  O  O29  1  0.10753706  0.67938252  0.47978947  1
  O  O30  1  0.10232573  0.62461035  0.37185826  1
  O  O31  1  0.53343426  0.89847268  0.36990313  1
  O  O32  1  0.37798890  0.47171906  0.36538860  1
  O  O33  1  0.11853989  0.48709185  0.86290903  1
  O  O34  1  0.36691661  0.88259500  0.86695459  1
  O  O35  1  0.51298007  0.62895746  0.86525888  1
  O  O36  1  0.97810980  0.79888958  0.41501892  1
  O  O37  1  0.82018442  0.00805952  0.41514144  1
  O  O38  1  0.18619777  0.19017160  0.41325089  1
  O  O39  1  0.01800109  0.20451812  0.91037114  1
  O  O40  1  0.19944665  0.00715300  0.91240131  1
  O  O41  1  0.80569732  0.80146682  0.91163587  1
  O  O42  1  0.97755412  0.17475104  0.58257617  1
  O  O43  1  0.20425875  0.02562734  0.58448213  1
  O  O44  1  0.83149610  0.79924530  0.58295231  1
  O  O45  1  0.96536119  0.79558855  0.08179738  1
  O  O46  1  0.82124118  0.02894289  0.08360789  1
  O  O47  1  0.19920954  0.17405846  0.08121286  1
  O  O48  1  0.67200699  0.14612658  0.74908493  1
  O  O49  1  0.48673830  0.36026653  0.75085258  1
  O  O50  1  0.86316380  0.52789326  0.74784442  1
  O  O51  1  0.66751519  0.52323227  0.25006007  1
  O  O52  1  0.85860073  0.32553828  0.24952654  1
  O  O53  1  0.46919944  0.15757414  0.24738756  1
  O  O54  1  0.62771320  0.48376220  0.91907342  1
  O  O55  1  0.85146148  0.35589666  0.91958596  1
  O  O56  1  0.50902337  0.15460989  0.92054056  1
  O  O57  1  0.66511267  0.16381780  0.42562512  1
  O  O58  1  0.50745270  0.34991475  0.42518400  1
  O  O59  1  0.83943041  0.48966868  0.42417767  1
  O  O60  1  0.35814862  0.48911947  0.07734220  1
  O  O61  1  0.13589569  0.65212133  0.07603102  1
  O  O62  1  0.52134013  0.87611148  0.07600247  1
  O  O63  1  0.35217436  0.87243419  0.57588061  1
  O  O64  1  0.51435837  0.65142183  0.57807165  1
  O  O65  1  0.13376701  0.49030537  0.57789240  1
  O  O66  1  0.32539024  0.85348157  0.25097052  1
  O  O67  1  0.51771859  0.67196634  0.25076620  1
  O  O68  1  0.16344289  0.46856520  0.25175321  1
  O  O69  1  0.30972686  0.49693591  0.76087398  1
  O  O70  1  0.16244165  0.67662620  0.75804141  1
  O  O71  1  0.50842978  0.82365283  0.76193795  1
loop_
_geom_bond_atom_site_label_1
_geom_bond_atom_site_label_2
_geom_bond_distance
_geom_bond_site_symmetry_2
Na0 O51 2.446612 1_555
Na0 O67 2.481456 1_555
Na0 O68 2.495102 1_555
Na0 O53 2.560834 1_555
Na0 O32 2.732671 1_555
Na1 O49 2.297500 1_555
Na1 O71 2.530848 1_555
Na1 O69 2.682855 1_555
Na1 O6 2.776211 1_555
Na1 O50 2.780092 1_555
Na1 O14 2.800691 1_555
Na1 O35 2.942293 1_555
Na2 O50 2.537143 1_555
Na2 O69 2.553099 1_655
Na2 O48 2.619207 1_555
Na2 O70 2.676304 1_655
Na2 O7 2.800779 1_655
Na2 O12 2.860580 1_555
Na2 O33 2.866787 1_655
Na2 O5 2.951400 1_555
Na3 O65 2.465585 1_555
Na3 O64 2.535512 1_555
Na3 O42 2.567670 1_455
Na3 O28 2.634337 1_555
Na3 O43 2.667505 1_555
Na3 O7 2.834379 1_555
Na4 O29 2.407047 1_555
Na4 O44 2.478361 1_455
Na4 O65 2.511214 1_555
Na4 O63 2.640498 1_555
Na4 O43 2.718750 1_565
Na4 O8 2.866623 1_555
Na5 O64 2.480742 1_555
Na5 O27 2.496271 1_555
Na5 O42 2.515719 1_565
Na5 O44 2.551270 1_555
Na5 O63 2.687399 1_555
Na5 O6 2.740771 1_555
Na6 O61 2.492591 1_555
Na6 O47 2.495119 1_565
Na6 O26 2.502836 1_554
Na6 O45 2.597557 1_455
Na6 O62 2.658015 1_555
Na6 O11 2.774056 1_555
Na7 O45 2.477058 1_555
Na7 O60 2.484137 1_555
Na7 O24 2.594896 1_554
Na7 O62 2.667757 1_555
Na7 O46 2.763786 1_565
Na7 O9 2.874070 1_555
Na8 O60 2.497664 1_555
Na8 O61 2.541900 1_555
Na8 O47 2.602694 1_555
Na8 O46 2.639590 1_455
Na8 O25 2.644671 1_554
Na8 O10 2.893208 1_555
Na9 O40 2.351373 1_555
Na9 O54 2.490712 1_555
Na9 O39 2.507034 1_555
Na9 O3 2.552579 1_555
Na9 O56 2.674909 1_555
Na9 O35 2.889117 1_555
Na9 O18 2.962194 1_556
Na10 O37 2.418816 1_555
Na10 O57 2.570381 1_555
Na10 O38 2.619932 1_655
Na10 O59 2.629939 1_555
Na10 O30 2.762205 1_655
Na10 O2 2.774333 1_555
Na10 O23 2.932074 1_555
Na11 O36 2.339671 1_555
Na11 O58 2.620811 1_555
Na11 O59 2.702315 1_555
Na11 O37 2.726966 1_565
Na11 O32 2.776791 1_555
Na11 O1 2.781248 1_555
Na11 O22 2.916625 1_555
Na12 O37 2.498552 1_465
Na12 O36 2.499920 1_455
Na12 O38 2.524600 1_565
Na12 O42 2.735835 1_465
Na12 O44 2.739838 1_455
Na12 O43 2.770739 1_565
Na13 O41 2.493742 1_555
Na13 O40 2.539342 1_665
Na13 O39 2.690122 1_665
Na13 O45 2.691279 1_556
Na13 O47 2.810941 1_666
Na13 O46 2.858494 1_566
Na14 O56 2.460290 1_555
Na14 O48 2.495846 1_555
Na14 O55 2.604343 1_555
Na14 O49 2.660364 1_555
Na14 O54 2.675095 1_555
Na14 O50 2.815112 1_555
Na15 O57 2.547034 1_555
Na15 O59 2.622522 1_555
Na15 O53 2.629790 1_555
Na15 O52 2.642888 1_555
Na15 O58 2.655802 1_555
Na15 O51 2.742649 1_555
Na16 O66 2.481330 1_555
Na16 O68 2.513040 1_555
Na16 O67 2.563835 1_555
Na16 O61 2.782373 1_555
Na16 O60 2.883386 1_555
Na16 O62 2.929427 1_555
Na17 O69 2.578531 1_555
Na17 O71 2.619071 1_555
Na17 O70 2.654900 1_555
Na17 O64 2.714952 1_555
Na17 O65 2.781279 1_555
Na17 O63 2.860536 1_555
Ca0 O0 2.234621 1_565
Ca0 O36 2.273253 1_455
Ca0 O38 2.279624 1_565
Ca0 O1 2.313583 1_455
Ca0 O37 2.317474 1_465
Ca0 O2 2.320769 1_465
Ca1 O5 2.195410 1_565
Ca1 O39 2.285589 1_665
Ca1 O3 2.286894 1_665
Ca1 O4 2.286923 1_555
Ca1 O41 2.287251 1_555
Ca1 O40 2.322441 1_665
Ca2 O6 2.306781 1_545
Ca2 O7 2.336368 1_655
Ca2 O42 2.374494 1_555
Ca2 O8 2.420864 1_645
Ca2 O44 2.428687 1_545
Ca2 O43 2.478885 1_655
Ca3 O11 2.264169 1_655
Ca3 O10 2.292296 1_665
Ca3 O9 2.306913 1_555
Ca3 O45 2.328998 1_555
Ca3 O47 2.392023 1_665
Ca3 O46 2.407746 1_565
Ca4 O13 2.232725 1_555
Ca4 O14 2.235880 1_555
Ca4 O12 2.249945 1_555
Ca4 O48 2.277128 1_555
Ca4 O49 2.306877 1_555
Ca4 O50 2.365839 1_555
Ca5 O15 2.159415 1_555
Ca5 O17 2.232437 1_555
Ca5 O16 2.257021 1_555
Ca5 O51 2.308779 1_555
Ca5 O52 2.317074 1_555
Ca5 O53 2.322432 1_555
Ca6 O25 2.178838 1_554
Ca6 O24 2.206338 1_554
Ca6 O26 2.217595 1_554
Ca6 O61 2.296163 1_555
Ca6 O60 2.350860 1_555
Ca6 O62 2.359719 1_555
Ca7 O28 2.205952 1_555
Ca7 O27 2.249789 1_555
Ca7 O29 2.254838 1_555
Ca7 O65 2.371828 1_555
Ca7 O63 2.374196 1_555
Ca7 O64 2.382816 1_555
Ca8 O31 2.220231 1_555
Ca8 O30 2.241245 1_555
Ca8 O32 2.373192 1_555
Ca8 O66 2.375773 1_555
Ca8 O67 2.430685 1_555
Ca8 O68 2.461116 1_555
O0 S0 1.476505 1_555
O1 S1 1.476161 1_555
O2 S2 1.482226 1_655
O3 P0 1.514278 1_555
O4 S3 1.449472 1_655
O5 P1 1.512513 1_545
O6 P1 1.562383 1_555
O7 P0 1.556445 1_555
O8 S3 1.484340 1_555
O9 S1 1.481634 1_555
O10 S2 1.495208 1_555
O11 S0 1.490398 1_565
O12 P2 1.523403 1_555
O13 S4 1.454361 1_555
O14 P3 1.523411 1_555
O15 P4 1.513274 1_555
O16 S5 1.458849 1_555
O17 P5 1.524363 1_555
O18 P5 1.603071 1_555
O18 Sn0 2.104564 1_554
O19 P4 1.592490 1_555
O19 Sn0 2.041690 1_554
O20 S5 1.507425 1_555
O20 Sn0 2.217780 1_554
O21 S4 1.509853 1_555
O21 Sn1 2.161458 1_555
O22 P3 1.598520 1_555
O22 Sn1 2.067051 1_555
O23 P2 1.596384 1_555
O23 Sn1 2.073433 1_555
O24 P6 1.519106 1_555
O25 P7 1.519645 1_555
O26 P8 1.514584 1_555
O27 P9 1.533245 1_555
O28 P10 1.536593 1_555
O29 P11 1.528169 1_555
O30 P11 1.529870 1_555
O31 P9 1.518184 1_555
O32 P10 1.547404 1_555
O33 P7 1.604772 1_555
O33 Sn2 2.105674 1_555
O34 P8 1.585285 1_555
O34 Sn2 2.060917 1_555
O35 P6 1.605458 1_555
O35 Sn2 2.089228 1_555
O36 P11 1.541153 1_655
O37 P9 1.555846 1_545
O38 P10 1.534990 1_555
O39 P7 1.525356 1_555
O40 P8 1.527461 1_545
O41 P6 1.506900 1_555
O42 P2 1.557446 1_555
O43 S4 1.491075 1_555
O44 P3 1.555465 1_555
O45 P4 1.557494 1_555
O46 S5 1.493023 1_555
O47 P5 1.558031 1_555
O48 P1 1.539039 1_545
O49 P0 1.542859 1_555
O50 S3 1.496433 1_655
O51 S1 1.496678 1_555
O52 S2 1.470840 1_655
O53 S0 1.495873 1_555
O54 P6 1.601017 1_555
O54 Sn0 2.088748 1_555
O55 P7 1.581522 1_655
O55 Sn0 2.096527 1_555
O56 P8 1.599045 1_545
O56 Sn0 2.102175 1_555
O57 P9 1.596942 1_545
O57 Sn1 2.057311 1_555
O58 P10 1.596112 1_555
O58 Sn1 2.068757 1_555
O59 P11 1.607553 1_655
O59 Sn1 2.057480 1_555
O60 P5 1.552899 1_555
O61 P4 1.547759 1_455
O62 S5 1.485500 1_565
O63 S4 1.482936 1_565
O64 P3 1.549913 1_555
O65 P2 1.550193 1_455
O66 S0 1.473077 1_565
O67 S1 1.493810 1_555
O68 S2 1.498962 1_555
O69 P0 1.625290 1_555
O69 Sn2 2.131043 1_555
O70 S3 1.520647 1_555
O70 Sn2 2.266285 1_555
O71 P1 1.607789 1_555
O71 Sn2 2.093292 1_555
