# generated using pymatgen
data_Gd(SiOs)2
_symmetry_space_group_name_H-M   'P 1'
_cell_length_a   4.18173792
_cell_length_b   4.18173882
_cell_length_c   5.66329721
_cell_angle_alpha   111.66605883
_cell_angle_beta   111.66606253
_cell_angle_gamma   90.00000174
_symmetry_Int_Tables_number   1
_chemical_formula_structural   Gd(SiOs)2
_chemical_formula_sum   'Gd1 Si2 Os2'
_cell_volume   84.46293712
_cell_formula_units_Z   1
loop_
 _symmetry_equiv_pos_site_id
 _symmetry_equiv_pos_as_xyz
  1  'x, y, z'
loop_
 _atom_site_type_symbol
 _atom_site_label
 _atom_site_symmetry_multiplicity
 _atom_site_fract_x
 _atom_site_fract_y
 _atom_site_fract_z
 _atom_site_occupancy
  Gd  Gd0  1  0.00000000  -0.00000000  -0.00000000  1
  Si  Si0  1  0.63106649  0.63106649  0.26213097  1
  Si  Si1  1  0.36893351  0.36893351  0.73786903  1
  Os  Os0  1  0.25000000  0.75000000  0.50000000  1
  Os  Os1  1  0.75000000  0.25000000  0.50000000  1
loop_
_geom_bond_atom_site_label_1
_geom_bond_atom_site_label_2
_geom_bond_distance
_geom_bond_site_symmetry_2
Gd0 Os0 3.194386 1_544
Gd0 Os1 3.194386 1_455
Gd0 Os0 3.194386 1_545
Gd0 Os1 3.194386 1_454
Gd0 Os1 3.194386 1_555
Gd0 Os0 3.194386 1_444
Gd0 Os0 3.194387 1_555
Gd0 Os1 3.194387 1_444
Gd0 Si1 3.216591 1_554
Gd0 Si0 3.216591 1_445
Gd0 Si0 3.216597 1_545
Gd0 Si1 3.216597 1_454
Gd0 Si1 3.216597 1_544
Gd0 Si0 3.216597 1_455
Gd0 Si0 3.216603 1_555
Gd0 Si1 3.216603 1_444
Os0 Si0 2.385736 1_455
Os0 Si1 2.385737 1_565
Os0 Si0 2.385743 1_555
Os0 Si1 2.385744 1_555
Os1 Si1 2.385736 1_655
Os1 Si0 2.385737 1_545
Os1 Si1 2.385743 1_555
Os1 Si0 2.385744 1_555
