# generated using pymatgen
data_MgFe4(TeO6)2
_symmetry_space_group_name_H-M   'P 1'
_cell_length_a   4.80415728
_cell_length_b   4.88691422
_cell_length_c   9.03802387
_cell_angle_alpha   89.92762325
_cell_angle_beta   90.00197679
_cell_angle_gamma   90.86882372
_symmetry_Int_Tables_number   1
_chemical_formula_structural   MgFe4(TeO6)2
_chemical_formula_sum   'Mg1 Fe4 Te2 O12'
_cell_volume   212.16568188
_cell_formula_units_Z   1
loop_
 _symmetry_equiv_pos_site_id
 _symmetry_equiv_pos_as_xyz
  1  'x, y, z'
loop_
 _atom_site_type_symbol
 _atom_site_label
 _atom_site_symmetry_multiplicity
 _atom_site_fract_x
 _atom_site_fract_y
 _atom_site_fract_z
 _atom_site_occupancy
  Mg  Mg0  1  0.50006300  0.00015700  0.69336700  1
  Fe  Fe0  1  0.99981700  0.99945700  0.32804400  1
  Fe  Fe1  1  0.49986500  0.49988100  0.83799200  1
  Fe  Fe2  1  0.99999200  0.00022500  0.65448000  1
  Fe  Fe3  1  0.49953200  0.50039200  0.15311300  1
  Te  Te0  1  0.00021300  0.99966200  0.99977500  1
  Te  Te1  1  0.50000600  0.50000600  0.48372900  1
  O  O0  1  0.70298400  0.66841700  0.65190500  1
  O  O1  1  0.29650300  0.33184700  0.65193600  1
  O  O2  1  0.71150900  0.67419400  0.32751400  1
  O  O3  1  0.19914000  0.82760100  0.16521600  1
  O  O4  1  0.80203200  0.17192200  0.16565000  1
  O  O5  1  0.78460600  0.16076300  0.83692600  1
  O  O6  1  0.27314200  0.31052600  0.00145600  1
  O  O7  1  0.23906900  0.81865400  0.49104900  1
  O  O8  1  0.76016500  0.18199400  0.49161700  1
  O  O9  1  0.21546800  0.83918400  0.83683800  1
  O  O10  1  0.28884800  0.32584400  0.32788600  1
  O  O11  1  0.72704400  0.68926700  0.00150400  1
loop_
_geom_bond_atom_site_label_1
_geom_bond_atom_site_label_2
_geom_bond_distance
_geom_bond_site_symmetry_2
Mg0 O0 1.941267 1_545
Mg0 O1 1.941786 1_555
Mg0 O9 2.033352 1_545
Mg0 O5 2.034225 1_555
Mg0 O8 2.374517 1_555
Mg0 O7 2.381749 1_545
Fe0 O4 1.946402 1_565
Fe0 O3 1.953367 1_655
Fe0 O7 2.073563 1_655
Fe0 O8 2.083623 1_565
Fe0 O2 2.092445 1_555
Fe0 O10 2.098811 1_665
Fe1 O6 2.047304 1_556
Fe1 O11 2.050467 1_556
Fe1 O0 2.105103 1_555
Fe1 O1 2.106078 1_555
Fe1 O9 2.164476 1_555
Fe1 O5 2.164854 1_555
Fe2 O8 2.076254 1_555
Fe2 O7 2.079105 1_645
Fe2 O9 2.104445 1_645
Fe2 O5 2.105527 1_555
Fe2 O1 2.141485 1_655
Fe2 O0 2.143771 1_545
Fe3 O11 1.972435 1_555
Fe3 O6 1.973599 1_555
Fe3 O10 2.053715 1_555
Fe3 O2 2.054278 1_555
Fe3 O3 2.173008 1_555
Fe3 O4 2.184434 1_555
O0 Te1 1.979216 1_555
O1 Te1 1.978613 1_555
O2 Te1 1.929062 1_555
O3 Te0 1.969070 1_554
O4 Te0 1.972380 1_644
O5 Te0 1.969953 1_645
O6 Te0 1.991726 1_544
O7 Te1 2.014994 1_555
O8 Te1 2.010232 1_555
O9 Te0 1.969947 1_555
O10 Te1 1.927208 1_555
O11 Te0 1.990722 1_654
