# generated using pymatgen
data_CsSb2F7
_symmetry_space_group_name_H-M   'P 1'
_cell_length_a   10.50625157
_cell_length_b   10.50625157
_cell_length_c   5.88860853
_cell_angle_alpha   91.47918399
_cell_angle_beta   91.47918399
_cell_angle_gamma   35.60807179
_symmetry_Int_Tables_number   1
_chemical_formula_structural   CsSb2F7
_chemical_formula_sum   'Cs2 Sb4 F14'
_cell_volume   378.31083627
_cell_formula_units_Z   2
loop_
 _symmetry_equiv_pos_site_id
 _symmetry_equiv_pos_as_xyz
  1  'x, y, z'
loop_
 _atom_site_type_symbol
 _atom_site_label
 _atom_site_symmetry_multiplicity
 _atom_site_fract_x
 _atom_site_fract_y
 _atom_site_fract_z
 _atom_site_occupancy
  Cs  Cs0  1  0.73220793  0.26779207  0.25000000  1
  Cs  Cs1  1  0.26779207  0.73220793  0.75000000  1
  Sb  Sb0  1  0.92064326  0.41108097  0.73770297  1
  Sb  Sb1  1  0.41108097  0.92064326  0.23770297  1
  Sb  Sb2  1  0.07935674  0.58891903  0.26229703  1
  Sb  Sb3  1  0.58891903  0.07935674  0.76229703  1
  F  F0  1  0.77713980  0.96594818  0.02837853  1
  F  F1  1  0.33170988  0.36432260  0.90734535  1
  F  F2  1  0.22286020  0.03405182  0.97162147  1
  F  F3  1  0.20496687  0.65747016  0.20625412  1
  F  F4  1  0.79503313  0.34252984  0.79374588  1
  F  F5  1  0.63567740  0.66829012  0.59265465  1
  F  F6  1  0.03405182  0.22286020  0.47162147  1
  F  F7  1  0.34252984  0.79503313  0.29374588  1
  F  F8  1  0.36432260  0.33170988  0.40734535  1
  F  F9  1  0.00000000  0.50000000  0.50000000  1
  F  F10  1  0.65747016  0.20496687  0.70625412  1
  F  F11  1  0.96594818  0.77713980  0.52837853  1
  F  F12  1  0.50000000  -0.00000000  0.00000000  1
  F  F13  1  0.66829012  0.63567740  0.09265465  1
loop_
_geom_bond_atom_site_label_1
_geom_bond_atom_site_label_2
_geom_bond_distance
_geom_bond_site_symmetry_2
Cs0 F4 3.051856 1_554
Cs0 F10 3.051856 1_555
Cs0 F6 3.060506 1_655
Cs0 F0 3.060506 1_545
Cs0 F7 3.258341 1_555
Cs0 F3 3.258341 1_555
Cs1 F7 3.051856 1_555
Cs1 F3 3.051856 1_556
Cs1 F2 3.060506 1_565
Cs1 F11 3.060506 1_455
Cs1 F4 3.258341 1_555
Cs1 F10 3.258341 1_555
F0 Sb3 1.972397 1_564
F1 Sb3 1.956340 1_555
F2 Sb1 1.972397 1_546
F3 Sb2 1.987322 1_555
F4 Sb0 1.987322 1_555
F5 Sb0 1.956340 1_555
F6 Sb0 1.972397 1_455
F7 Sb1 1.987322 1_555
F8 Sb2 1.956340 1_555
F9 Sb0 2.218422 1_455
F9 Sb2 2.218422 1_555
F10 Sb3 1.987322 1_555
F11 Sb2 1.972397 1_655
F12 Sb3 2.218422 1_554
F12 Sb1 2.218422 1_545
F13 Sb1 1.956340 1_555
