# generated using pymatgen
data_CsSr2MgNb3O10
_symmetry_space_group_name_H-M   'P 1'
_cell_length_a   4.07581046
_cell_length_b   4.07581046
_cell_length_c   16.33351012
_cell_angle_alpha   90.00000000
_cell_angle_beta   90.00000000
_cell_angle_gamma   90.00000000
_symmetry_Int_Tables_number   1
_chemical_formula_structural   CsSr2MgNb3O10
_chemical_formula_sum   'Cs1 Sr2 Mg1 Nb3 O10'
_cell_volume   271.33604162
_cell_formula_units_Z   1
loop_
 _symmetry_equiv_pos_site_id
 _symmetry_equiv_pos_as_xyz
  1  'x, y, z'
loop_
 _atom_site_type_symbol
 _atom_site_label
 _atom_site_symmetry_multiplicity
 _atom_site_fract_x
 _atom_site_fract_y
 _atom_site_fract_z
 _atom_site_occupancy
  Cs  Cs0  1  0.50000000  0.50000000  0.55804194  1
  Sr  Sr0  1  0.50000000  0.50000000  0.85441857  1
  Sr  Sr1  1  0.50000000  0.50000000  0.10862645  1
  Mg  Mg0  1  0.50000000  0.50000000  0.31942741  1
  Nb  Nb0  1  0.00000000  0.00000000  0.73397259  1
  Nb  Nb1  1  0.00000000  0.00000000  0.25696148  1
  Nb  Nb2  1  0.00000000  0.00000000  0.99596863  1
  O  O0  1  0.00000000  0.00000000  0.62215057  1
  O  O1  1  0.00000000  0.00000000  0.37214518  1
  O  O2  1  0.50000000  0.00000000  0.75520661  1
  O  O3  1  0.00000000  0.50000000  0.75520661  1
  O  O4  1  0.50000000  0.00000000  0.25190586  1
  O  O5  1  0.00000000  0.50000000  0.25190586  1
  O  O6  1  0.00000000  0.50000000  0.00241849  1
  O  O7  1  0.50000000  0.00000000  0.00241849  1
  O  O8  1  0.00000000  0.00000000  0.12413227  1
  O  O9  1  0.00000000  0.00000000  0.87675996  1
loop_
_geom_bond_atom_site_label_1
_geom_bond_atom_site_label_2
_geom_bond_distance
_geom_bond_site_symmetry_2
Cs0 O0 3.066362 1_665
Cs0 O0 3.066362 1_565
Cs0 O0 3.066362 1_555
Cs0 O0 3.066362 1_655
Mg0 O4 2.317189 1_565
Mg0 O4 2.317189 1_555
Mg0 O5 2.317189 1_555
Mg0 O5 2.317189 1_655
Nb0 O0 1.826446 1_555
Nb0 O3 2.067207 1_545
Nb0 O2 2.067207 1_455
Nb0 O2 2.067207 1_555
Nb0 O3 2.067207 1_555
Nb0 O9 2.332219 1_555
Nb1 O1 1.881354 1_555
Nb1 O5 2.039578 1_545
Nb1 O4 2.039578 1_555
Nb1 O5 2.039578 1_555
Nb1 O4 2.039578 1_455
Nb1 O8 2.169567 1_555
Nb2 O9 1.947096 1_555
Nb2 O7 2.040626 1_456
Nb2 O7 2.040626 1_556
Nb2 O6 2.040626 1_546
Nb2 O6 2.040626 1_556
Nb2 O8 2.093362 1_556
O2 Sr0 2.603654 1_545
O2 Sr0 2.603654 1_555
O3 Sr0 2.603654 1_455
O3 Sr0 2.603654 1_555
O4 Sr1 3.103201 1_545
O4 Sr1 3.103201 1_555
O5 Sr1 3.103201 1_555
O5 Sr1 3.103201 1_455
O6 Sr1 2.676268 1_455
O6 Sr1 2.676268 1_555
O6 Sr0 3.161752 1_454
O6 Sr0 3.161752 1_554
O7 Sr1 2.676268 1_545
O7 Sr1 2.676268 1_555
O7 Sr0 3.161752 1_544
O7 Sr0 3.161752 1_554
O8 Sr1 2.893140 1_545
O8 Sr1 2.893140 1_555
O8 Sr1 2.893140 1_445
O8 Sr1 2.893140 1_455
O9 Sr0 2.905043 1_555
O9 Sr0 2.905043 1_445
O9 Sr0 2.905043 1_545
O9 Sr0 2.905043 1_455
