# generated using pymatgen
data_TbSiIr
_symmetry_space_group_name_H-M   'P 1'
_cell_length_a   4.24928709
_cell_length_b   6.90758205
_cell_length_c   7.35845772
_cell_angle_alpha   90.00000000
_cell_angle_beta   90.00000000
_cell_angle_gamma   90.00000000
_symmetry_Int_Tables_number   1
_chemical_formula_structural   TbSiIr
_chemical_formula_sum   'Tb4 Si4 Ir4'
_cell_volume   215.98765286
_cell_formula_units_Z   4
loop_
 _symmetry_equiv_pos_site_id
 _symmetry_equiv_pos_as_xyz
  1  'x, y, z'
loop_
 _atom_site_type_symbol
 _atom_site_label
 _atom_site_symmetry_multiplicity
 _atom_site_fract_x
 _atom_site_fract_y
 _atom_site_fract_z
 _atom_site_occupancy
  Tb  Tb0  1  0.75000000  0.50349740  0.18579740  1
  Tb  Tb1  1  0.25000000  0.99650260  0.68579740  1
  Tb  Tb2  1  0.75000000  0.00349740  0.31420260  1
  Tb  Tb3  1  0.25000000  0.49650260  0.81420260  1
  Si  Si0  1  0.25000000  0.80150947  0.10907858  1
  Si  Si1  1  0.25000000  0.30150947  0.39092142  1
  Si  Si2  1  0.75000000  0.19849053  0.89092142  1
  Si  Si3  1  0.75000000  0.69849053  0.60907858  1
  Ir  Ir0  1  0.25000000  0.65476014  0.43120882  1
  Ir  Ir1  1  0.25000000  0.15476014  0.06879118  1
  Ir  Ir2  1  0.75000000  0.84523986  0.93120882  1
  Ir  Ir3  1  0.75000000  0.34523986  0.56879118  1
loop_
_geom_bond_atom_site_label_1
_geom_bond_atom_site_label_2
_geom_bond_distance
_geom_bond_site_symmetry_2
Si0 Tb2 2.956198 1_565
Si0 Tb2 2.956198 1_465
Si0 Tb0 3.011711 1_455
Si0 Tb0 3.011711 1_555
Si0 Tb3 3.024406 1_554
Si1 Tb0 2.956198 1_555
Si1 Tb0 2.956198 1_455
Si1 Tb2 3.011711 1_455
Si1 Tb2 3.011711 1_555
Si1 Tb1 3.024406 1_545
Si2 Tb1 2.956198 1_645
Si2 Tb1 2.956198 1_545
Si2 Tb3 3.011711 1_655
Si2 Tb3 3.011711 1_555
Si2 Tb0 3.024406 1_556
Si3 Tb3 2.956198 1_655
Si3 Tb3 2.956198 1_555
Si3 Tb1 3.011711 1_555
Si3 Tb1 3.011711 1_655
Si3 Tb2 3.024406 1_565
Ir0 Si1 2.458050 1_555
Ir0 Si3 2.513650 1_455
Ir0 Si3 2.513650 1_555
Ir0 Si0 2.578035 1_555
Ir0 Tb0 2.977740 1_555
Ir0 Tb0 2.977740 1_455
Ir0 Tb1 3.013644 1_555
Ir0 Tb3 3.022835 1_555
Ir0 Tb2 3.325411 1_565
Ir0 Tb2 3.325411 1_465
Ir1 Si0 2.458050 1_545
Ir1 Si2 2.513650 1_554
Ir1 Si2 2.513650 1_454
Ir1 Si1 2.578035 1_555
Ir1 Tb2 2.977740 1_455
Ir1 Tb2 2.977740 1_555
Ir1 Tb3 3.013644 1_554
Ir1 Tb1 3.022835 1_544
Ir1 Tb0 3.325411 1_555
Ir1 Tb0 3.325411 1_455
Ir2 Si2 2.458050 1_565
Ir2 Si0 2.513650 1_656
Ir2 Si0 2.513650 1_556
Ir2 Si3 2.578035 1_555
Ir2 Tb1 2.977740 1_555
Ir2 Tb1 2.977740 1_655
Ir2 Tb0 3.013644 1_556
Ir2 Tb2 3.022835 1_566
Ir2 Tb3 3.325411 1_655
Ir2 Tb3 3.325411 1_555
Ir3 Si3 2.458050 1_555
Ir3 Si1 2.513650 1_655
Ir3 Si1 2.513650 1_555
Ir3 Si2 2.578035 1_555
Ir3 Tb3 2.977740 1_555
Ir3 Tb3 2.977740 1_655
Ir3 Tb2 3.013644 1_555
Ir3 Tb0 3.022835 1_555
Ir3 Tb1 3.325411 1_645
Ir3 Tb1 3.325411 1_545
