# generated using pymatgen
data_KPb
_symmetry_space_group_name_H-M   'P 1'
_cell_length_a   11.60932936
_cell_length_b   11.60932968
_cell_length_c   12.56037457
_cell_angle_alpha   117.52535442
_cell_angle_beta   117.52535357
_cell_angle_gamma   89.99999762
_symmetry_Int_Tables_number   1
_chemical_formula_structural   KPb
_chemical_formula_sum   'K16 Pb16'
_cell_volume   1281.26158385
_cell_formula_units_Z   16
loop_
 _symmetry_equiv_pos_site_id
 _symmetry_equiv_pos_as_xyz
  1  'x, y, z'
loop_
 _atom_site_type_symbol
 _atom_site_label
 _atom_site_symmetry_multiplicity
 _atom_site_fract_x
 _atom_site_fract_y
 _atom_site_fract_z
 _atom_site_occupancy
  K  K0  1  0.61874301  0.25000000  0.50000000  1
  K  K1  1  0.75000000  0.61874301  -0.00000000  1
  K  K2  1  0.25000000  0.88125699  0.00000000  1
  K  K3  1  0.88125699  0.75000000  0.50000000  1
  K  K4  1  0.38125699  0.75000000  0.50000000  1
  K  K5  1  0.25000000  0.38125699  0.00000000  1
  K  K6  1  0.75000000  0.11874301  -0.00000000  1
  K  K7  1  0.11874301  0.25000000  0.50000000  1
  K  K8  1  0.49793047  0.24793047  0.75000000  1
  K  K9  1  0.00206953  0.49793047  0.25000000  1
  K  K10  1  0.24793047  0.25206953  0.25000000  1
  K  K11  1  0.25206953  0.00206953  0.75000000  1
  K  K12  1  0.50206953  0.75206953  0.25000000  1
  K  K13  1  0.99793047  0.50206953  0.75000000  1
  K  K14  1  0.75206953  0.74793047  0.75000000  1
  K  K15  1  0.74793047  0.99793047  0.25000000  1
  Pb  Pb0  1  0.12852508  0.69768991  0.13329206  1
  Pb  Pb1  1  0.56439786  0.49523302  0.36670794  1
  Pb  Pb2  1  0.80231009  0.37147492  0.36670794  1
  Pb  Pb3  1  0.49523302  0.80231009  0.86670794  1
  Pb  Pb4  1  0.37147492  0.56439786  0.86670794  1
  Pb  Pb5  1  0.93560214  0.12852508  0.63329206  1
  Pb  Pb6  1  0.69768991  0.00476698  0.63329206  1
  Pb  Pb7  1  0.00476698  0.93560214  0.13329206  1
  Pb  Pb8  1  0.87147492  0.30231009  0.86670794  1
  Pb  Pb9  1  0.43560214  0.50476698  0.63329206  1
  Pb  Pb10  1  0.19768991  0.62852508  0.63329206  1
  Pb  Pb11  1  0.50476698  0.19768991  0.13329206  1
  Pb  Pb12  1  0.62852508  0.43560214  0.13329206  1
  Pb  Pb13  1  0.06439786  0.87147492  0.36670794  1
  Pb  Pb14  1  0.30231009  0.99523302  0.36670794  1
  Pb  Pb15  1  0.99523302  0.06439786  0.86670794  1
loop_
_geom_bond_atom_site_label_1
_geom_bond_atom_site_label_2
_geom_bond_distance
_geom_bond_site_symmetry_2
K0 Pb6 3.838695 1_555
K0 Pb1 3.838695 1_555
K0 Pb9 3.845064 1_555
K0 Pb14 3.845064 1_545
K0 Pb5 3.848797 1_555
K0 Pb2 3.848797 1_555
K0 Pb8 3.887967 1_555
K0 Pb11 3.887967 1_555
K1 Pb4 3.838695 1_554
K1 Pb0 3.838695 1_655
K1 Pb8 3.845064 1_554
K1 Pb12 3.845064 1_555
K1 Pb3 3.848797 1_554
K1 Pb7 3.848797 1_655
K1 Pb9 3.887967 1_554
K1 Pb13 3.887967 1_655
K2 Pb3 3.838695 1_554
K2 Pb7 3.838695 1_555
K2 Pb15 3.845064 1_464
K2 Pb11 3.845064 1_565
K2 Pb4 3.848797 1_554
K2 Pb0 3.848797 1_555
K2 Pb10 3.887967 1_554
K2 Pb14 3.887967 1_555
K3 Pb5 3.838695 1_565
K3 Pb2 3.838695 1_555
K3 Pb10 3.845064 1_655
K3 Pb13 3.845064 1_655
K3 Pb6 3.848797 1_565
K3 Pb1 3.848797 1_555
K3 Pb15 3.887967 1_565
K3 Pb12 3.887967 1_555
K4 Pb14 3.838695 1_555
K4 Pb9 3.838695 1_555
K4 Pb1 3.845064 1_555
K4 Pb6 3.845064 1_565
K4 Pb13 3.848797 1_555
K4 Pb10 3.848797 1_555
K4 Pb0 3.887967 1_555
K4 Pb3 3.887967 1_555
K5 Pb12 3.838695 1_555
K5 Pb8 3.838695 1_454
K5 Pb0 3.845064 1_555
K5 Pb4 3.845064 1_554
K5 Pb11 3.848797 1_555
K5 Pb15 3.848797 1_454
K5 Pb1 3.887967 1_555
K5 Pb5 3.887967 1_454
K6 Pb11 3.838695 1_555
K6 Pb15 3.838695 1_554
K6 Pb7 3.845064 1_645
K6 Pb3 3.845064 1_544
K6 Pb12 3.848797 1_555
K6 Pb8 3.848797 1_554
K6 Pb2 3.887967 1_555
K6 Pb6 3.887967 1_554
K7 Pb13 3.838695 1_545
K7 Pb10 3.838695 1_555
K7 Pb2 3.845064 1_455
K7 Pb5 3.845064 1_455
K7 Pb14 3.848797 1_545
K7 Pb9 3.848797 1_555
K7 Pb7 3.887967 1_545
K7 Pb4 3.887967 1_555
K8 Pb14 3.712369 1_545
K8 Pb12 3.712369 1_556
K8 Pb8 3.823935 1_555
K8 Pb9 3.823935 1_555
K8 Pb6 3.848812 1_555
K8 Pb4 3.848813 1_555
K9 Pb8 3.712369 1_454
K9 Pb10 3.712369 1_555
K9 Pb12 3.823935 1_455
K9 Pb13 3.823935 1_555
K9 Pb2 3.848813 1_455
K9 Pb0 3.848813 1_555
K10 Pb15 3.712369 1_454
K10 Pb9 3.712369 1_555
K10 Pb11 3.823935 1_555
K10 Pb14 3.823935 1_545
K10 Pb1 3.848813 1_555
K10 Pb7 3.848813 1_545
K11 Pb11 3.712369 1_556
K11 Pb13 3.712369 1_545
K11 Pb15 3.823935 1_455
K11 Pb10 3.823935 1_545
K11 Pb3 3.848812 1_545
K11 Pb5 3.848813 1_455
K12 Pb6 3.712369 1_565
K12 Pb4 3.712369 1_554
K12 Pb0 3.823935 1_555
K12 Pb1 3.823935 1_555
K12 Pb14 3.848812 1_555
K12 Pb12 3.848813 1_555
K13 Pb0 3.712369 1_656
K13 Pb2 3.712369 1_555
K13 Pb4 3.823935 1_655
K13 Pb5 3.823935 1_555
K13 Pb10 3.848813 1_655
K13 Pb8 3.848813 1_555
K14 Pb7 3.712369 1_656
K14 Pb1 3.712369 1_555
K14 Pb3 3.823935 1_555
K14 Pb6 3.823935 1_565
K14 Pb9 3.848813 1_555
K14 Pb15 3.848813 1_565
K15 Pb3 3.712369 1_554
K15 Pb5 3.712369 1_565
K15 Pb7 3.823935 1_655
K15 Pb2 3.823935 1_565
K15 Pb11 3.848812 1_565
K15 Pb13 3.848813 1_655
Pb0 Pb7 3.113342 1_555
Pb0 Pb13 3.125753 1_555
Pb0 Pb14 3.125753 1_555
Pb1 Pb2 3.113342 1_555
Pb1 Pb12 3.125753 1_555
Pb1 Pb11 3.125753 1_555
Pb3 Pb4 3.113342 1_555
Pb3 Pb9 3.125753 1_555
Pb4 Pb9 3.125753 1_555
Pb5 Pb6 3.113342 1_555
Pb5 Pb8 3.125753 1_555
Pb6 Pb8 3.125753 1_555
Pb10 Pb9 3.113342 1_555
Pb10 Pb4 3.125753 1_555
Pb10 Pb3 3.125753 1_555
Pb11 Pb12 3.113342 1_555
Pb11 Pb2 3.125753 1_555
Pb12 Pb2 3.125753 1_555
Pb13 Pb14 3.113342 1_555
Pb13 Pb7 3.125753 1_555
Pb14 Pb7 3.125753 1_555
Pb15 Pb8 3.113342 1_555
Pb15 Pb6 3.125753 1_555
Pb15 Pb5 3.125753 1_555
