# generated using pymatgen
data_Co(PO3)4
_symmetry_space_group_name_H-M   'P 1'
_cell_length_a   8.40770500
_cell_length_b   9.26223800
_cell_length_c   12.81841400
_cell_angle_alpha   90.00000000
_cell_angle_beta   90.00000000
_cell_angle_gamma   90.00000000
_symmetry_Int_Tables_number   1
_chemical_formula_structural   Co(PO3)4
_chemical_formula_sum   'Co4 P16 O48'
_cell_volume   998.22328359
_cell_formula_units_Z   4
loop_
 _symmetry_equiv_pos_site_id
 _symmetry_equiv_pos_as_xyz
  1  'x, y, z'
loop_
 _atom_site_type_symbol
 _atom_site_label
 _atom_site_symmetry_multiplicity
 _atom_site_fract_x
 _atom_site_fract_y
 _atom_site_fract_z
 _atom_site_occupancy
  Co  Co0  1  0.85901700  0.75000000  0.50000000  1
  Co  Co1  1  0.35901700  0.75000000  0.00000000  1
  Co  Co2  1  0.14098300  0.25000000  0.50000000  1
  Co  Co3  1  0.64098300  0.25000000  0.00000000  1
  P  P0  1  0.96426100  0.48729000  0.64885600  1
  P  P1  1  0.18372300  0.99227500  0.85702900  1
  P  P2  1  0.18372300  0.50772500  0.14297100  1
  P  P3  1  0.68372300  0.50772500  0.35702900  1
  P  P4  1  0.46426100  0.01271000  0.14885600  1
  P  P5  1  0.03573900  0.51271000  0.35114400  1
  P  P6  1  0.81627700  0.49227500  0.85702900  1
  P  P7  1  0.68372300  0.99227500  0.64297100  1
  P  P8  1  0.96426100  0.01271000  0.35114400  1
  P  P9  1  0.53573900  0.98729000  0.85114400  1
  P  P10  1  0.31627700  0.49227500  0.64297100  1
  P  P11  1  0.81627700  0.00772500  0.14297100  1
  P  P12  1  0.31627700  0.00772500  0.35702900  1
  P  P13  1  0.03573900  0.98729000  0.64885600  1
  P  P14  1  0.46426100  0.48729000  0.85114400  1
  P  P15  1  0.53573900  0.51271000  0.14885600  1
  O  O0  1  0.19871400  0.86566200  0.93277900  1
  O  O1  1  0.09522000  0.37959500  0.10488500  1
  O  O2  1  0.86899100  0.87954400  0.37544700  1
  O  O3  1  0.47143000  0.13150000  0.06845000  1
  O  O4  1  0.19871400  0.63433800  0.06722100  1
  O  O5  1  0.02857000  0.63150000  0.43155000  1
  O  O6  1  0.09522000  0.12040500  0.89511500  1
  O  O7  1  0.97143000  0.13150000  0.43155000  1
  O  O8  1  0.02857000  0.86850000  0.56845000  1
  O  O9  1  0.89318300  0.07967500  0.24597800  1
  O  O10  1  0.80128600  0.13433800  0.06722100  1
  O  O11  1  0.14039400  0.96526900  0.31645200  1
  O  O12  1  0.35960600  0.46526900  0.18354800  1
  O  O13  1  0.69871400  0.63433800  0.43277900  1
  O  O14  1  0.14039400  0.53473100  0.68354800  1
  O  O15  1  0.86899100  0.62045600  0.62455300  1
  O  O16  1  0.39318300  0.42032500  0.74597800  1
  O  O17  1  0.10681700  0.57967500  0.24597800  1
  O  O18  1  0.40478000  0.87959500  0.39511500  1
  O  O19  1  0.63100900  0.37954400  0.12455300  1
  O  O20  1  0.59522000  0.12040500  0.60488500  1
  O  O21  1  0.40478000  0.62040500  0.60488500  1
  O  O22  1  0.35960600  0.03473100  0.81645200  1
  O  O23  1  0.90478000  0.87959500  0.10488500  1
  O  O24  1  0.85960600  0.03473100  0.68354800  1
  O  O25  1  0.30128600  0.13433800  0.43277900  1
  O  O26  1  0.85960600  0.46526900  0.31645200  1
  O  O27  1  0.64039400  0.96526900  0.18354800  1
  O  O28  1  0.13100900  0.12045600  0.62455300  1
  O  O29  1  0.69871400  0.86566200  0.56722100  1
  O  O30  1  0.47143000  0.36850000  0.93155000  1
  O  O31  1  0.80128600  0.36566200  0.93277900  1
  O  O32  1  0.52857000  0.86850000  0.93155000  1
  O  O33  1  0.63100900  0.12045600  0.87544700  1
  O  O34  1  0.90478000  0.62040500  0.89511500  1
  O  O35  1  0.60681700  0.92032500  0.74597800  1
  O  O36  1  0.13100900  0.37954400  0.37544700  1
  O  O37  1  0.52857000  0.63150000  0.06845000  1
  O  O38  1  0.97143000  0.36850000  0.56845000  1
  O  O39  1  0.10681700  0.92032500  0.75402200  1
  O  O40  1  0.39318300  0.07967500  0.25402200  1
  O  O41  1  0.36899100  0.87954400  0.12455300  1
  O  O42  1  0.60681700  0.57967500  0.25402200  1
  O  O43  1  0.64039400  0.53473100  0.81645200  1
  O  O44  1  0.59522000  0.37959500  0.39511500  1
  O  O45  1  0.89318300  0.42032500  0.75402200  1
  O  O46  1  0.36899100  0.62045600  0.87544700  1
  O  O47  1  0.30128600  0.36566200  0.56722100  1
loop_
_geom_bond_atom_site_label_1
_geom_bond_atom_site_label_2
_geom_bond_distance
_geom_bond_site_symmetry_2
Co0 O13 1.925264 1_555
Co0 O29 1.925264 1_555
Co0 O2 1.998939 1_555
Co0 O15 1.998939 1_555
Co0 O8 2.001683 1_655
Co0 O5 2.001683 1_655
Co1 O4 1.925264 1_555
Co1 O0 1.925264 1_554
Co1 O41 1.998939 1_555
Co1 O46 1.998939 1_554
Co1 O32 2.001683 1_554
Co1 O37 2.001683 1_555
Co2 O47 1.925264 1_555
Co2 O25 1.925264 1_555
Co2 O36 1.998939 1_555
Co2 O28 1.998939 1_555
Co2 O38 2.001683 1_455
Co2 O7 2.001683 1_455
Co3 O10 1.925264 1_555
Co3 O31 1.925264 1_554
Co3 O19 1.998939 1_555
Co3 O33 1.998939 1_554
Co3 O30 2.001683 1_554
Co3 O3 2.001683 1_555
O0 P1 1.527740 1_555
O1 P2 1.483395 1_555
O2 P8 1.503318 1_565
O3 P4 1.508809 1_555
O4 P2 1.527740 1_555
O5 P5 1.508809 1_555
O6 P1 1.483395 1_545
O7 P8 1.508809 1_555
O8 P13 1.508809 1_555
O9 P8 1.599720 1_555
O9 P11 1.614196 1_555
O10 P11 1.527740 1_555
O11 P8 1.607428 1_465
O11 P12 1.616150 1_565
O12 P15 1.607428 1_555
O12 P2 1.616150 1_555
O13 P3 1.527740 1_555
O14 P0 1.607428 1_455
O14 P10 1.616150 1_555
O15 P0 1.503318 1_555
O16 P14 1.599720 1_555
O16 P10 1.614196 1_555
O17 P5 1.599720 1_555
O17 P2 1.614196 1_555
O18 P12 1.483395 1_565
O19 P15 1.503318 1_555
O20 P7 1.483395 1_545
O21 P10 1.483395 1_555
O22 P9 1.607428 1_545
O22 P1 1.616150 1_545
O23 P11 1.483395 1_565
O24 P13 1.607428 1_645
O24 P7 1.616150 1_545
O25 P12 1.527740 1_555
O26 P5 1.607428 1_655
O26 P3 1.616150 1_555
O27 P4 1.607428 1_565
O27 P11 1.616150 1_565
O28 P13 1.503318 1_545
O29 P7 1.527740 1_555
O30 P14 1.508809 1_555
O31 P6 1.527740 1_555
O32 P9 1.508809 1_555
O33 P9 1.503318 1_545
O34 P6 1.483395 1_555
O35 P9 1.599720 1_555
O35 P7 1.614196 1_555
O36 P5 1.503318 1_555
O37 P15 1.508809 1_555
O38 P0 1.508809 1_555
O39 P13 1.599720 1_555
O39 P1 1.614196 1_555
O40 P4 1.599720 1_555
O40 P12 1.614196 1_555
O41 P4 1.503318 1_565
O42 P15 1.599720 1_555
O42 P3 1.614196 1_555
O43 P14 1.607428 1_555
O43 P6 1.616150 1_555
O44 P3 1.483395 1_555
O45 P0 1.599720 1_555
O45 P6 1.614196 1_555
O46 P14 1.503318 1_555
O47 P10 1.527740 1_555
