# generated using pymatgen
data_Nd2Mg(CuO2)4
_symmetry_space_group_name_H-M   'P 1'
_cell_length_a   5.78173875
_cell_length_b   5.77955227
_cell_length_c   7.10926689
_cell_angle_alpha   114.04901162
_cell_angle_beta   114.05174298
_cell_angle_gamma   89.89390408
_symmetry_Int_Tables_number   1
_chemical_formula_structural   Nd2Mg(CuO2)4
_chemical_formula_sum   'Nd2 Mg1 Cu4 O8'
_cell_volume   194.22578319
_cell_formula_units_Z   1
loop_
 _symmetry_equiv_pos_site_id
 _symmetry_equiv_pos_as_xyz
  1  'x, y, z'
loop_
 _atom_site_type_symbol
 _atom_site_label
 _atom_site_symmetry_multiplicity
 _atom_site_fract_x
 _atom_site_fract_y
 _atom_site_fract_z
 _atom_site_occupancy
  Nd  Nd0  1  0.87482900  0.12459200  0.74971900  1
  Nd  Nd1  1  0.12513800  0.87515600  0.25003700  1
  Mg  Mg0  1  0.62511900  0.37504500  0.25026600  1
  Cu  Cu0  1  0.48379400  0.93551100  0.92044400  1
  Cu  Cu1  1  0.43693700  0.48491300  0.92076100  1
  Cu  Cu2  1  0.06455000  0.56325300  0.57947100  1
  Cu  Cu3  1  0.51478600  0.51627100  0.57931900  1
  O  O0  1  0.72682300  0.53105900  0.88031800  1
  O  O1  1  0.15339800  0.84962800  0.88076000  1
  O  O2  1  0.27608100  0.46827500  0.09505500  1
  O  O3  1  0.81906000  0.12688800  0.09520700  1
  O  O4  1  0.53184100  0.18060200  0.40463700  1
  O  O5  1  0.87282400  0.72388000  0.40448000  1
  O  O6  1  0.15093000  0.27270100  0.62002400  1
  O  O7  1  0.46889000  0.84722600  0.61950000  1
loop_
_geom_bond_atom_site_label_1
_geom_bond_atom_site_label_2
_geom_bond_distance
_geom_bond_site_symmetry_2
Nd0 O1 2.441624 1_645
Nd0 O7 2.443085 1_545
Nd0 O0 2.444488 1_555
Nd0 O6 2.445264 1_655
Nd0 O5 2.594574 1_545
Nd0 O4 2.595232 1_555
Nd0 O2 2.599012 1_656
Nd0 O3 2.599206 1_556
Nd1 O3 2.483535 1_465
Nd1 O2 2.483952 1_555
Nd1 O4 2.486178 1_565
Nd1 O5 2.488143 1_455
Nd1 O7 2.639014 1_555
Nd1 O1 2.640923 1_554
Nd1 O6 2.641185 1_565
Nd1 O0 2.643822 1_454
Mg0 O3 2.059752 1_555
Mg0 O2 2.060553 1_555
Mg0 O5 2.060845 1_555
Mg0 O4 2.061090 1_555
Cu0 O1 1.850719 1_555
Cu0 O3 1.857230 1_566
Cu0 O7 1.950727 1_555
Cu1 O0 1.849293 1_555
Cu1 O2 1.856439 1_556
Cu1 O6 1.948921 1_555
Cu2 O6 1.851101 1_555
Cu2 O5 1.857877 1_455
Cu2 O1 1.951422 1_555
Cu3 O7 1.850753 1_555
Cu3 O4 1.857715 1_555
Cu3 O0 1.949946 1_555
