# generated using pymatgen
data_DyInIr
_symmetry_space_group_name_H-M   'P 1'
_cell_length_a   7.43809512
_cell_length_b   7.43809606
_cell_length_c   3.97173764
_cell_angle_alpha   90.00000000
_cell_angle_beta   90.00000000
_cell_angle_gamma   119.99999580
_symmetry_Int_Tables_number   1
_chemical_formula_structural   DyInIr
_chemical_formula_sum   'Dy3 In3 Ir3'
_cell_volume   190.29821461
_cell_formula_units_Z   3
loop_
 _symmetry_equiv_pos_site_id
 _symmetry_equiv_pos_as_xyz
  1  'x, y, z'
loop_
 _atom_site_type_symbol
 _atom_site_label
 _atom_site_symmetry_multiplicity
 _atom_site_fract_x
 _atom_site_fract_y
 _atom_site_fract_z
 _atom_site_occupancy
  Dy  Dy0  1  0.59362531  0.59362531  0.00000000  1
  Dy  Dy1  1  0.40637469  0.00000000  -0.00000000  1
  Dy  Dy2  1  0.00000000  0.40637469  0.00000000  1
  In  In0  1  0.00000000  0.74443531  0.50000000  1
  In  In1  1  0.25556469  0.25556469  0.50000000  1
  In  In2  1  0.74443531  0.00000000  0.50000000  1
  Ir  Ir0  1  -0.00000000  0.00000000  0.00000000  1
  Ir  Ir1  1  0.66666700  0.33333300  0.50000000  1
  Ir  Ir2  1  0.33333300  0.66666700  0.50000000  1
loop_
_geom_bond_atom_site_label_1
_geom_bond_atom_site_label_2
_geom_bond_distance
_geom_bond_site_symmetry_2
Dy0 Ir2 3.006509 1_554
Dy0 Ir2 3.006509 1_555
Dy0 Ir1 3.006509 1_555
Dy0 Ir1 3.006509 1_554
Dy0 Ir0 3.022654 1_665
Dy0 In1 3.204142 1_555
Dy0 In1 3.204142 1_554
Dy0 In0 3.308743 1_654
Dy0 In0 3.308743 1_655
Dy0 In2 3.308743 1_564
Dy0 In2 3.308743 1_565
Dy1 Ir2 3.006504 1_545
Dy1 Ir2 3.006504 1_544
Dy1 Ir1 3.006505 1_555
Dy1 Ir1 3.006505 1_554
Dy1 Ir0 3.022654 1_555
Dy1 In2 3.204141 1_554
Dy1 In2 3.204141 1_555
Dy1 In1 3.308743 1_554
Dy1 In1 3.308743 1_555
Dy1 In0 3.308743 1_544
Dy1 In0 3.308743 1_545
Dy2 Ir1 3.006504 1_455
Dy2 Ir1 3.006504 1_454
Dy2 Ir2 3.006505 1_555
Dy2 Ir2 3.006505 1_554
Dy2 Ir0 3.022654 1_555
Dy2 In0 3.204142 1_554
Dy2 In0 3.204142 1_555
Dy2 In1 3.308743 1_555
Dy2 In1 3.308743 1_554
Dy2 In2 3.308743 1_455
Dy2 In2 3.308743 1_454
In0 Ir0 2.749027 1_565
In0 Ir0 2.749027 1_566
In0 Ir2 2.813543 1_555
In0 Ir1 2.813548 1_455
In1 Ir0 2.749027 1_556
In1 Ir0 2.749027 1_555
In1 Ir1 2.813550 1_555
In1 Ir2 2.813551 1_555
In2 Ir0 2.749027 1_655
In2 Ir0 2.749027 1_656
In2 Ir1 2.813543 1_555
In2 Ir2 2.813548 1_545
