# generated using pymatgen
data_Na3YTiSi(PO6)2
_symmetry_space_group_name_H-M   'P 1'
_cell_length_a   9.16540264
_cell_length_b   9.16540231
_cell_length_c   22.40649668
_cell_angle_alpha   90.28547773
_cell_angle_beta   89.71452228
_cell_angle_gamma   119.72018253
_symmetry_Int_Tables_number   1
_chemical_formula_structural   Na3YTiSi(PO6)2
_chemical_formula_sum   'Na18 Y6 Ti6 Si6 P12 O72'
_cell_volume   1634.62493343
_cell_formula_units_Z   6
loop_
 _symmetry_equiv_pos_site_id
 _symmetry_equiv_pos_as_xyz
  1  'x, y, z'
loop_
 _atom_site_type_symbol
 _atom_site_label
 _atom_site_symmetry_multiplicity
 _atom_site_fract_x
 _atom_site_fract_y
 _atom_site_fract_z
 _atom_site_occupancy
  Na  Na0  1  0.99692485  0.98998630  0.50210284  1
  Na  Na1  1  0.01001370  0.00307515  0.00210284  1
  Na  Na2  1  0.67046495  0.32260681  0.83617891  1
  Na  Na3  1  0.67739319  0.32953505  0.33617891  1
  Na  Na4  1  0.36011761  0.68784367  0.16889519  1
  Na  Na5  1  0.31215633  0.63988239  0.66889519  1
  Na  Na6  1  0.36368088  0.36101367  0.24913394  1
  Na  Na7  1  0.99513582  0.63900617  0.24410097  1
  Na  Na8  1  0.63898633  0.63631912  0.74913394  1
  Na  Na9  1  0.36099383  0.00486418  0.74410097  1
  Na  Na10  1  0.04013279  0.70038277  0.58036915  1
  Na  Na11  1  0.65513336  0.96960279  0.58467579  1
  Na  Na12  1  0.29961723  0.95986721  0.08036915  1
  Na  Na13  1  0.03039721  0.34486664  0.08467579  1
  Na  Na14  1  0.98020947  0.67923391  0.91730694  1
  Na  Na15  1  0.69754582  0.02966629  0.91363760  1
  Na  Na16  1  0.97033371  0.30245418  0.41363760  1
  Na  Na17  1  0.32076609  0.01979053  0.41730694  1
  Y  Y0  1  0.98348325  0.98947448  0.35094323  1
  Y  Y1  1  0.01052552  0.01651675  0.85094323  1
  Y  Y2  1  0.67318520  0.32953243  0.68526374  1
  Y  Y3  1  0.67046757  0.32681480  0.18526374  1
  Y  Y4  1  0.33708432  0.66303184  0.01729483  1
  Y  Y5  1  0.33696816  0.66291568  0.51729483  1
  Ti  Ti0  1  0.00944493  0.01281193  0.64972545  1
  Ti  Ti1  1  0.98718807  0.99055507  0.14972545  1
  Ti  Ti2  1  0.66324361  0.34174580  0.98266757  1
  Ti  Ti3  1  0.65825420  0.33675639  0.48266757  1
  Ti  Ti4  1  0.32065359  0.65703471  0.31673887  1
  Ti  Ti5  1  0.34296529  0.67934641  0.81673887  1
  Si  Si0  1  0.01183379  0.30520236  0.25256501  1
  Si  Si1  1  0.69479764  0.98816621  0.75256501  1
  Si  Si2  1  0.36121535  0.04319914  0.58432656  1
  Si  Si3  1  0.95680086  0.63878465  0.08432656  1
  Si  Si4  1  0.34711006  0.97581231  0.92017718  1
  Si  Si5  1  0.02418769  0.65288994  0.42017718  1
  P  P0  1  0.28423332  0.98486640  0.25019214  1
  P  P1  1  0.69238855  0.70879372  0.24729495  1
  P  P2  1  0.29120628  0.30761145  0.74729495  1
  P  P3  1  0.01513360  0.71576668  0.75019214  1
  P  P4  1  0.95601759  0.31788080  0.57944087  1
  P  P5  1  0.68266027  0.63680737  0.58503113  1
  P  P6  1  0.68211920  0.04398241  0.07944087  1
  P  P7  1  0.36319263  0.31733973  0.08503113  1
  P  P8  1  0.62559940  0.65173484  0.91272316  1
  P  P9  1  0.03162892  0.38266607  0.91764464  1
  P  P10  1  0.61733393  0.96837108  0.41764464  1
  P  P11  1  0.34826516  0.37440060  0.41272316  1
  O  O0  1  0.20695339  0.00582841  0.30779365  1
  O  O1  1  0.80348370  0.77437954  0.30224615  1
  O  O2  1  0.99910631  0.21311971  0.31434658  1
  O  O3  1  0.22562046  0.19651630  0.80224615  1
  O  O4  1  0.99417159  0.79304661  0.80779365  1
  O  O5  1  0.78688029  0.00089369  0.81434658  1
  O  O6  1  0.80829174  0.97404704  0.69473459  1
  O  O7  1  0.17364607  0.19933665  0.69328473  1
  O  O8  1  0.03667426  0.83559271  0.69572350  1
  O  O9  1  0.80066335  0.82635393  0.19328473  1
  O  O10  1  0.02595296  0.19170826  0.19473459  1
  O  O11  1  0.16440729  0.96332574  0.19572350  1
  O  O12  1  0.88193172  0.35378322  0.63504969  1
  O  O13  1  0.47058843  0.11765816  0.64377851  1
  O  O14  1  0.66484548  0.54749489  0.64409888  1
  O  O15  1  0.88234184  0.52941157  0.14377851  1
  O  O16  1  0.64621678  0.11806828  0.13504969  1
  O  O17  1  0.45250511  0.33515452  0.14409888  1
  O  O18  1  0.47739832  0.31055721  0.03214232  1
  O  O19  1  0.83176710  0.52637395  0.02601958  1
  O  O20  1  0.70210316  0.16008754  0.02453234  1
  O  O21  1  0.47362605  0.16823290  0.52601958  1
  O  O22  1  0.68944279  0.52260168  0.53214232  1
  O  O23  1  0.83991246  0.29789684  0.52453234  1
  O  O24  1  0.54759223  0.68473987  0.96717875  1
  O  O25  1  0.11619672  0.44557031  0.97842514  1
  O  O26  1  0.32257250  0.86773183  0.97923008  1
  O  O27  1  0.55442969  0.88380328  0.47842514  1
  O  O28  1  0.31526013  0.45240777  0.46717875  1
  O  O29  1  0.13226817  0.67742750  0.47923008  1
  O  O30  1  0.13977037  0.63174688  0.36174626  1
  O  O31  1  0.49742082  0.85333089  0.36672177  1
  O  O32  1  0.36368371  0.48366172  0.35605929  1
  O  O33  1  0.14666911  0.50257918  0.86672177  1
  O  O34  1  0.36825312  0.86022963  0.86174626  1
  O  O35  1  0.51633828  0.63631629  0.85605929  1
  O  O36  1  0.01384277  0.82259713  0.41388473  1
  O  O37  1  0.80148355  0.00964903  0.41187435  1
  O  O38  1  0.19937162  0.19303675  0.40834770  1
  O  O39  1  0.99035097  0.19851645  0.91187435  1
  O  O40  1  0.17740287  0.98615723  0.91388473  1
  O  O41  1  0.80696325  0.80062838  0.90834770  1
  O  O42  1  0.95292093  0.14612195  0.58601169  1
  O  O43  1  0.17343335  0.02862982  0.59023041  1
  O  O44  1  0.85216187  0.80539207  0.58318754  1
  O  O45  1  0.97137018  0.82656665  0.09023041  1
  O  O46  1  0.85387805  0.04707907  0.08601169  1
  O  O47  1  0.19460793  0.14783813  0.08318754  1
  O  O48  1  0.64960870  0.13809699  0.74979209  1
  O  O49  1  0.47254151  0.34217366  0.73961668  1
  O  O50  1  0.85807647  0.54326529  0.74392963  1
  O  O51  1  0.65782634  0.52745849  0.23961668  1
  O  O52  1  0.86190301  0.35039130  0.24979209  1
  O  O53  1  0.45673471  0.14192353  0.24392963  1
  O  O54  1  0.63411112  0.48647870  0.91926908  1
  O  O55  1  0.86198394  0.38495627  0.91675061  1
  O  O56  1  0.52593363  0.15542578  0.92304979  1
  O  O57  1  0.61504373  0.13801606  0.41675061  1
  O  O58  1  0.51352130  0.36588888  0.41926908  1
  O  O59  1  0.84457422  0.47406637  0.42304979  1
  O  O60  1  0.32630710  0.46235112  0.07891464  1
  O  O61  1  0.14686625  0.66690306  0.07915116  1
  O  O62  1  0.53459106  0.86478338  0.07470959  1
  O  O63  1  0.33309694  0.85313375  0.57915116  1
  O  O64  1  0.53764888  0.67369290  0.57891464  1
  O  O65  1  0.13521662  0.46540894  0.57470959  1
  O  O66  1  0.29293741  0.81899686  0.25326189  1
  O  O67  1  0.52527786  0.70905991  0.25145182  1
  O  O68  1  0.19487238  0.49128035  0.25502414  1
  O  O69  1  0.29094009  0.47472214  0.75145182  1
  O  O70  1  0.18100314  0.70706259  0.75326189  1
  O  O71  1  0.50871965  0.80512762  0.75502414  1
loop_
_geom_bond_atom_site_label_1
_geom_bond_atom_site_label_2
_geom_bond_distance
_geom_bond_site_symmetry_2
Na0 O44 2.388421 1_555
Na0 O43 2.469519 1_665
Na0 O42 2.506641 1_565
Na0 O36 2.547069 1_655
Na0 O37 2.772782 1_565
Na0 O38 2.809913 1_665
Na1 O47 2.388421 1_555
Na1 O45 2.469519 1_445
Na1 O46 2.506641 1_455
Na1 O40 2.547069 1_544
Na1 O39 2.772782 1_454
Na1 O41 2.809913 1_444
Na2 O55 2.386151 1_555
Na2 O56 2.425462 1_555
Na2 O48 2.508699 1_555
Na2 O54 2.509022 1_555
Na2 O50 2.806686 1_555
Na2 O49 2.893050 1_555
Na3 O57 2.386151 1_555
Na3 O59 2.425462 1_555
Na3 O52 2.508699 1_555
Na3 O58 2.509022 1_555
Na3 O53 2.806686 1_555
Na3 O51 2.893050 1_555
Na4 O67 2.341691 1_555
Na4 O66 2.469254 1_555
Na4 O68 2.562012 1_555
Na4 O62 2.658936 1_555
Na4 O61 2.750259 1_555
Na4 O60 2.786025 1_555
Na5 O69 2.341691 1_555
Na5 O70 2.469254 1_555
Na5 O71 2.562012 1_555
Na5 O65 2.658936 1_555
Na5 O63 2.750258 1_555
Na5 O64 2.786025 1_555
Na6 O51 2.358073 1_555
Na6 O68 2.380077 1_555
Na6 O17 2.534645 1_555
Na6 O53 2.543235 1_555
Na6 O32 2.641352 1_555
Na6 O67 2.772508 1_555
Na6 O10 2.954886 1_555
Na7 O52 2.303005 1_555
Na7 O66 2.398164 1_655
Na7 O15 2.470159 1_555
Na7 O51 2.735194 1_555
Na7 O68 2.776670 1_655
Na7 O11 2.803668 1_655
Na7 O1 2.905934 1_555
Na7 O30 2.972263 1_655
Na8 O49 2.358073 1_555
Na8 O71 2.380077 1_555
Na8 O14 2.534645 1_555
Na8 O50 2.543235 1_555
Na8 O35 2.641352 1_555
Na8 O69 2.772509 1_555
Na8 O6 2.954886 1_555
Na9 O48 2.303005 1_555
Na9 O70 2.398164 1_545
Na9 O13 2.470159 1_555
Na9 O49 2.735194 1_555
Na9 O71 2.776670 1_545
Na9 O8 2.803669 1_545
Na9 O3 2.905934 1_555
Na9 O34 2.972263 1_545
Na10 O63 2.333024 1_555
Na10 O44 2.353901 1_455
Na10 O29 2.458710 1_555
Na10 O43 2.635187 1_565
Na10 O65 2.696444 1_555
Na10 O8 2.867678 1_555
Na11 O64 2.373614 1_555
Na11 O42 2.385315 1_565
Na11 O27 2.534094 1_555
Na11 O63 2.597111 1_555
Na11 O6 2.833780 1_555
Na11 O44 2.867258 1_555
Na11 O13 2.948161 1_565
Na11 O23 2.950076 1_565
Na12 O61 2.333024 1_555
Na12 O47 2.353901 1_565
Na12 O26 2.458710 1_554
Na12 O45 2.635187 1_455
Na12 O62 2.696444 1_555
Na12 O11 2.867678 1_555
Na13 O60 2.373614 1_555
Na13 O46 2.385315 1_455
Na13 O25 2.534094 1_554
Na13 O61 2.597110 1_555
Na13 O10 2.833780 1_555
Na13 O47 2.867258 1_555
Na13 O15 2.948161 1_455
Na13 O20 2.950076 1_455
Na14 O55 2.356055 1_555
Na14 O41 2.357271 1_555
Na14 O40 2.478995 1_655
Na14 O4 2.648719 1_555
Na14 O54 2.761923 1_555
Na14 O19 2.803278 1_556
Na14 O33 2.940689 1_655
Na15 O39 2.340986 1_555
Na15 O56 2.374644 1_555
Na15 O5 2.424794 1_555
Na15 O41 2.740480 1_545
Na15 O20 2.743467 1_556
Na15 O55 2.830700 1_555
Na15 O34 2.870920 1_545
Na15 O24 3.005949 1_545
Na16 O37 2.340986 1_555
Na16 O59 2.374644 1_555
Na16 O2 2.424794 1_555
Na16 O38 2.740480 1_655
Na16 O23 2.743467 1_555
Na16 O57 2.830700 1_555
Na16 O30 2.870920 1_655
Na16 O28 3.005949 1_655
Na17 O57 2.356055 1_555
Na17 O38 2.357271 1_555
Na17 O36 2.478995 1_545
Na17 O0 2.648719 1_555
Na17 O58 2.761923 1_555
Na17 O21 2.803278 1_555
Na17 O31 2.940689 1_545
O0 P0 1.525688 1_545
O0 Y0 2.197643 1_445
O1 P1 1.520650 1_555
O1 Y0 2.137871 1_555
O2 Si0 1.598320 1_655
O2 Y0 2.149217 1_545
O3 P2 1.520650 1_555
O3 Y1 2.137871 1_555
O4 P3 1.525688 1_655
O4 Y1 2.197643 1_665
O5 Si1 1.598320 1_545
O5 Y1 2.149217 1_655
O6 Si1 1.701826 1_555
O6 Ti0 1.969238 1_665
O7 P2 1.597229 1_555
O7 Ti0 1.893970 1_555
O8 P3 1.590788 1_555
O8 Ti0 2.045487 1_565
O9 P1 1.597229 1_555
O9 Ti1 1.893970 1_555
O10 Si0 1.701825 1_555
O10 Ti1 1.969238 1_445
O11 P0 1.590788 1_555
O11 Ti1 2.045487 1_455
O12 P4 1.526729 1_555
O12 Y2 2.129601 1_555
O13 Si2 1.603458 1_555
O13 Y2 2.122953 1_555
O14 P5 1.524636 1_555
O14 Y2 2.240072 1_555
O15 Si3 1.603458 1_555
O15 Y3 2.122953 1_555
O16 P6 1.526729 1_555
O16 Y3 2.129601 1_555
O17 P7 1.524636 1_555
O17 Y3 2.240072 1_555
O18 P7 1.598532 1_555
O18 Ti2 1.927058 1_554
O19 Si3 1.706580 1_555
O19 Ti2 1.897310 1_554
O20 P6 1.580241 1_555
O20 Ti2 2.094225 1_554
O21 Si2 1.706580 1_555
O21 Ti3 1.897310 1_555
O22 P5 1.598532 1_555
O22 Ti3 1.927058 1_555
O23 P4 1.580241 1_555
O23 Ti3 2.094225 1_555
O24 P8 1.514448 1_555
O24 Y4 2.150141 1_556
O25 P9 1.532153 1_555
O25 Y4 2.197519 1_556
O26 Si4 1.603697 1_555
O26 Y4 2.128285 1_556
O27 P10 1.532153 1_555
O27 Y5 2.197519 1_555
O28 P11 1.514448 1_555
O28 Y5 2.150141 1_555
O29 Si5 1.603697 1_555
O29 Y5 2.128285 1_555
O30 Si5 1.749597 1_555
O30 Ti4 1.850380 1_555
O31 P10 1.572589 1_555
O31 Ti4 2.055202 1_555
O32 P11 1.582834 1_555
O32 Ti4 2.023756 1_555
O33 P9 1.572589 1_555
O33 Ti5 2.055202 1_555
O34 Si4 1.749597 1_555
O34 Ti5 1.850380 1_555
O35 P8 1.582834 1_555
O35 Ti5 2.023756 1_555
O36 Si5 1.611457 1_555
O36 Y0 2.202982 1_455
O37 P10 1.540686 1_545
O37 Y0 2.227395 1_545
O38 P11 1.544525 1_555
O38 Y0 2.321983 1_445
O39 P9 1.540686 1_655
O39 Y1 2.227395 1_655
O40 Si4 1.611457 1_555
O40 Y1 2.202982 1_565
O41 P8 1.544525 1_555
O41 Y1 2.321983 1_665
O42 P4 1.568017 1_555
O42 Ti0 2.109909 1_655
O43 Si2 1.663592 1_555
O43 Ti0 1.955270 1_555
O44 P5 1.556461 1_555
O44 Ti0 2.278335 1_665
O45 Si3 1.663592 1_555
O45 Ti1 1.955269 1_555
O46 P6 1.568017 1_555
O46 Ti1 2.109909 1_545
O47 P7 1.556461 1_555
O47 Ti1 2.278335 1_445
O48 Si1 1.621479 1_545
O48 Y2 2.204991 1_555
O49 P2 1.538796 1_555
O49 Y2 2.250776 1_555
O50 P3 1.527975 1_655
O50 Y2 2.267615 1_555
O51 P1 1.538796 1_555
O51 Y3 2.250776 1_555
O52 Si0 1.621480 1_655
O52 Y3 2.204991 1_555
O53 P0 1.527975 1_545
O53 Y3 2.267615 1_555
O54 P8 1.562440 1_555
O54 Ti2 2.054915 1_555
O55 P9 1.565606 1_655
O55 Ti2 2.218108 1_555
O56 Si4 1.650818 1_545
O56 Ti2 2.036559 1_555
O57 P10 1.565606 1_545
O57 Ti3 2.218108 1_555
O58 P11 1.562440 1_555
O58 Ti3 2.054915 1_555
O59 Si5 1.650818 1_655
O59 Ti3 2.036559 1_555
O60 P7 1.532105 1_555
O60 Y4 2.267806 1_555
O61 Si3 1.633297 1_455
O61 Y4 2.235734 1_555
O62 P6 1.528014 1_565
O62 Y4 2.243148 1_555
O63 Si2 1.633297 1_565
O63 Y5 2.235734 1_555
O64 P5 1.532105 1_555
O64 Y5 2.267806 1_555
O65 P4 1.528014 1_455
O65 Y5 2.243148 1_555
O66 P0 1.563214 1_555
O66 Ti4 2.165545 1_555
O67 P1 1.535211 1_555
O67 Ti4 2.231049 1_555
O68 Si0 1.699760 1_555
O68 Ti4 1.951301 1_555
O69 P2 1.535211 1_555
O69 Ti5 2.231049 1_555
O70 P3 1.563215 1_555
O70 Ti5 2.165545 1_555
O71 Si1 1.699760 1_555
O71 Ti5 1.951301 1_555
