# generated using pymatgen
data_Na9NbZn5Si3(SO6)6
_symmetry_space_group_name_H-M   'P 1'
_cell_length_a   9.11286594
_cell_length_b   9.03924046
_cell_length_c   22.32279419
_cell_angle_alpha   89.91913035
_cell_angle_beta   90.00000000
_cell_angle_gamma   120.26980537
_symmetry_Int_Tables_number   1
_chemical_formula_structural   Na9NbZn5Si3(SO6)6
_chemical_formula_sum   'Na18 Nb2 Zn10 Si6 S12 O72'
_cell_volume   1588.10189114
_cell_formula_units_Z   2
loop_
 _symmetry_equiv_pos_site_id
 _symmetry_equiv_pos_as_xyz
  1  'x, y, z'
loop_
 _atom_site_type_symbol
 _atom_site_label
 _atom_site_symmetry_multiplicity
 _atom_site_fract_x
 _atom_site_fract_y
 _atom_site_fract_z
 _atom_site_occupancy
  Na  Na0  1  0.64565507  0.00878608  0.23906808  1
  Na  Na1  1  0.37799551  0.34868026  0.24859456  1
  Na  Na2  1  0.99380528  0.64888428  0.24433547  1
  Na  Na3  1  0.65507900  0.64888428  0.74433547  1
  Na  Na4  1  0.97068476  0.34868026  0.74859456  1
  Na  Na5  1  0.36313101  0.00878608  0.73906808  1
  Na  Na6  1  0.29734562  0.33259273  0.57730470  1
  Na  Na7  1  0.03524811  0.33259273  0.07730470  1
  Na  Na8  1  0.95838510  0.66043135  0.91328568  1
  Na  Na9  1  0.71791428  0.04586938  0.91232173  1
  Na  Na10  1  0.32795410  0.04586938  0.41232173  1
  Na  Na11  1  0.70204525  0.66043135  0.41328568  1
  Na  Na12  1  0.99890242  0.01436302  0.50079996  1
  Na  Na13  1  0.01546060  0.01436302  0.00079996  1
  Na  Na14  1  0.67678923  0.33383925  0.83180210  1
  Na  Na15  1  0.65705102  0.33383925  0.33180210  1
  Na  Na16  1  0.35214123  0.69116428  0.15556004  1
  Na  Na17  1  0.33902205  0.69116428  0.65556004  1
  Nb  Nb0  1  0.34230871  0.66345099  0.31488709  1
  Nb  Nb1  1  0.32114129  0.66345099  0.81488709  1
  Zn  Zn0  1  0.02069930  0.00752438  0.34503122  1
  Zn  Zn1  1  0.98682509  0.00752438  0.84503122  1
  Zn  Zn2  1  0.96843964  0.95923550  0.65633137  1
  Zn  Zn3  1  0.99079586  0.95923550  0.15633137  1
  Zn  Zn4  1  0.68574309  0.33504934  0.68188701  1
  Zn  Zn5  1  0.64930726  0.33504934  0.18188701  1
  Zn  Zn6  1  0.67621788  0.33588005  0.98520639  1
  Zn  Zn7  1  0.65966317  0.33588005  0.48520639  1
  Zn  Zn8  1  0.33052251  0.65330623  0.01474015  1
  Zn  Zn9  1  0.32278272  0.65330623  0.51474015  1
  Si  Si0  1  0.30079466  0.00134500  0.25087996  1
  Si  Si1  1  0.71481946  0.71253432  0.25328242  1
  Si  Si2  1  0.99771485  0.71253432  0.75328242  1
  Si  Si3  1  0.70055034  0.00134500  0.75087996  1
  Si  Si4  1  0.03303530  0.35913875  0.92263498  1
  Si  Si5  1  0.32610245  0.35913875  0.42263498  1
  S  S0  1  0.00300925  0.29776084  0.24946853  1
  S  S1  1  0.29475159  0.29776084  0.74946853  1
  S  S2  1  0.96496942  0.33413180  0.58266273  1
  S  S3  1  0.36775282  0.03503174  0.58203622  1
  S  S4  1  0.66718037  0.63020763  0.58327604  1
  S  S5  1  0.96302826  0.63020763  0.08327604  1
  S  S6  1  0.66727992  0.03503174  0.08203622  1
  S  S7  1  0.36916337  0.33413180  0.08266273  1
  S  S8  1  0.62090941  0.66167866  0.91853379  1
  S  S9  1  0.33376125  0.95907846  0.91895954  1
  S  S10  1  0.62531621  0.95907846  0.41895954  1
  S  S11  1  0.04076824  0.66167866  0.41853379  1
  O  O0  1  0.23745369  0.05115886  0.31135544  1
  O  O1  1  0.81983764  0.79129105  0.31478827  1
  O  O2  1  0.97345288  0.19083941  0.30242176  1
  O  O3  1  0.21738653  0.19083941  0.80242176  1
  O  O4  1  0.97145340  0.79129105  0.81478827  1
  O  O5  1  0.81370517  0.05115886  0.81135544  1
  O  O6  1  0.77393261  0.94395709  0.69544870  1
  O  O7  1  0.19195742  0.23482366  0.69468385  1
  O  O8  1  0.06917834  0.84403856  0.69738760  1
  O  O9  1  0.77486022  0.84403856  0.19738760  1
  O  O10  1  0.04286624  0.23482366  0.19468385  1
  O  O11  1  0.17002448  0.94395709  0.19544870  1
  O  O12  1  0.88968361  0.34910430  0.64018576  1
  O  O13  1  0.46859575  0.11765338  0.63724732  1
  O  O14  1  0.64665184  0.52293568  0.63730754  1
  O  O15  1  0.87628484  0.52293568  0.13730754  1
  O  O16  1  0.64905863  0.11765338  0.13724732  1
  O  O17  1  0.45942169  0.34910430  0.14018576  1
  O  O18  1  0.46104707  0.31963980  0.03048573  1
  O  O19  1  0.86651298  0.54784446  0.02739669  1
  O  O20  1  0.68468908  0.13970039  0.02732609  1
  O  O21  1  0.45501231  0.13970039  0.52732609  1
  O  O22  1  0.68133248  0.54784446  0.52739669  1
  O  O23  1  0.85859374  0.31963980  0.53048573  1
  O  O24  1  0.53929311  0.69020975  0.97025189  1
  O  O25  1  0.13859127  0.45304800  0.98175973  1
  O  O26  1  0.31438257  0.85106889  0.97060728  1
  O  O27  1  0.53668532  0.85106889  0.47060728  1
  O  O28  1  0.31445573  0.45304800  0.48175973  1
  O  O29  1  0.15091564  0.69020975  0.47025189  1
  O  O30  1  0.12871691  0.65102113  0.36211576  1
  O  O31  1  0.51488933  0.87057200  0.36212994  1
  O  O32  1  0.34667891  0.49387943  0.36397608  1
  O  O33  1  0.14719951  0.49387943  0.86397608  1
  O  O34  1  0.35568167  0.87057200  0.86212994  1
  O  O35  1  0.52230321  0.65102113  0.86211576  1
  O  O36  1  0.01841621  0.81305388  0.41480364  1
  O  O37  1  0.79024009  0.97094609  0.41191879  1
  O  O38  1  0.16013057  0.17086467  0.41463994  1
  O  O39  1  0.01073410  0.17086467  0.91463994  1
  O  O40  1  0.18070599  0.97094609  0.91191879  1
  O  O41  1  0.79463767  0.81305388  0.91480364  1
  O  O42  1  0.98957229  0.18305034  0.58433063  1
  O  O43  1  0.20137592  0.02953642  0.58475117  1
  O  O44  1  0.82264528  0.80162447  0.58548241  1
  O  O45  1  0.97897919  0.80162447  0.08548241  1
  O  O46  1  0.82816050  0.02953642  0.08475117  1
  O  O47  1  0.19347805  0.18305034  0.08433063  1
  O  O48  1  0.65965492  0.15739001  0.74249467  1
  O  O49  1  0.46939762  0.32774716  0.74325611  1
  O  O50  1  0.83337589  0.52102009  0.74487865  1
  O  O51  1  0.68764520  0.52102009  0.24487865  1
  O  O52  1  0.85835054  0.32774716  0.24325611  1
  O  O53  1  0.49773609  0.15739001  0.24249467  1
  O  O54  1  0.63090849  0.50307368  0.92059192  1
  O  O55  1  0.84958567  0.35747814  0.91844740  1
  O  O56  1  0.49281486  0.12659958  0.91912054  1
  O  O57  1  0.63378572  0.12659958  0.41912054  1
  O  O58  1  0.50789347  0.35747814  0.41844740  1
  O  O59  1  0.87216619  0.50307368  0.42059192  1
  O  O60  1  0.35407758  0.49281066  0.08054078  1
  O  O61  1  0.13380197  0.64391533  0.08192698  1
  O  O62  1  0.51466308  0.86166611  0.07715742  1
  O  O63  1  0.34700203  0.86166611  0.57715742  1
  O  O64  1  0.51011236  0.64391533  0.58192698  1
  O  O65  1  0.13873208  0.49281066  0.58054078  1
  O  O66  1  0.31378870  0.82257294  0.26205813  1
  O  O67  1  0.51227715  0.67884247  0.26175496  1
  O  O68  1  0.16088580  0.47702479  0.25874766  1
  O  O69  1  0.31613799  0.47702479  0.75874766  1
  O  O70  1  0.16656432  0.67884247  0.76175496  1
  O  O71  1  0.50878324  0.82257294  0.76205813  1
loop_
_geom_bond_atom_site_label_1
_geom_bond_atom_site_label_2
_geom_bond_distance
_geom_bond_site_symmetry_2
Na0 O53 2.335154 1_555
Na0 O16 2.469508 1_555
Na0 O9 2.498267 1_545
Na0 O52 2.538732 1_555
Na0 O67 2.640065 1_545
Na0 O66 2.666146 1_545
Na1 O51 2.442171 1_555
Na1 O53 2.470198 1_555
Na1 O17 2.530625 1_555
Na1 O67 2.609825 1_555
Na1 O0 2.711589 1_555
Na1 O68 2.761607 1_555
Na1 O10 2.944336 1_555
Na1 O32 2.970714 1_555
Na2 O51 2.422626 1_555
Na2 O52 2.517645 1_555
Na2 O66 2.551602 1_655
Na2 O11 2.560767 1_655
Na2 O15 2.632424 1_555
Na2 O68 2.686673 1_655
Na2 O30 2.898395 1_655
Na2 O1 2.950727 1_555
Na3 O50 2.422634 1_555
Na3 O49 2.517645 1_555
Na3 O71 2.551610 1_555
Na3 O6 2.560767 1_555
Na3 O14 2.632426 1_555
Na3 O69 2.686681 1_555
Na3 O35 2.898399 1_555
Na3 O4 2.950727 1_555
Na4 O50 2.442163 1_555
Na4 O48 2.470191 1_555
Na4 O12 2.530622 1_555
Na4 O70 2.609824 1_655
Na4 O5 2.711589 1_555
Na4 O69 2.761599 1_655
Na4 O7 2.944335 1_655
Na4 O33 2.970711 1_655
Na5 O48 2.335162 1_555
Na5 O13 2.469510 1_555
Na5 O8 2.498267 1_545
Na5 O49 2.538730 1_555
Na5 O70 2.640066 1_545
Na5 O71 2.666138 1_545
Na6 O28 2.362437 1_555
Na6 O43 2.424918 1_555
Na6 O42 2.428049 1_455
Na6 O64 2.487840 1_555
Na6 O65 2.510492 1_555
Na6 O7 2.776109 1_555
Na7 O25 2.362434 1_554
Na7 O46 2.424920 1_455
Na7 O47 2.428042 1_555
Na7 O61 2.487843 1_555
Na7 O60 2.510476 1_555
Na7 O10 2.776107 1_555
Na8 O55 2.399453 1_555
Na8 O4 2.469506 1_555
Na8 O41 2.491314 1_555
Na8 O40 2.500127 1_655
Na8 O54 2.583708 1_555
Na8 O19 2.712742 1_556
Na9 O39 2.315259 1_655
Na9 O5 2.408682 1_555
Na9 O55 2.446648 1_555
Na9 O56 2.504558 1_555
Na9 O41 2.530566 1_545
Na9 O20 2.768881 1_556
Na10 O38 2.315251 1_555
Na10 O0 2.408679 1_555
Na10 O58 2.446649 1_555
Na10 O57 2.504575 1_555
Na10 O36 2.530560 1_545
Na10 O21 2.768886 1_555
Na11 O58 2.399450 1_555
Na11 O1 2.469507 1_555
Na11 O36 2.491322 1_655
Na11 O37 2.500125 1_555
Na11 O59 2.583724 1_555
Na11 O22 2.712744 1_555
Na12 O38 2.399179 1_655
Na12 O42 2.438824 1_555
Na12 O43 2.584729 1_655
Na12 O44 2.593662 1_545
Na12 O37 2.637458 1_545
Na12 O36 2.713690 1_645
Na13 O39 2.399179 1_554
Na13 O47 2.438824 1_555
Na13 O46 2.584729 1_455
Na13 O45 2.593662 1_445
Na13 O40 2.637458 1_544
Na13 O41 2.713690 1_444
Na14 O55 2.434789 1_555
Na14 O50 2.494137 1_555
Na14 O48 2.510102 1_555
Na14 O56 2.634920 1_555
Na14 O54 2.663979 1_555
Na14 O49 2.716097 1_555
Na15 O58 2.434789 1_555
Na15 O51 2.494137 1_555
Na15 O53 2.510102 1_555
Na15 O57 2.634920 1_555
Na15 O59 2.663979 1_555
Na15 O52 2.716097 1_555
Na16 O62 2.307181 1_555
Na16 O61 2.447102 1_555
Na16 O60 2.461672 1_555
Na16 O66 2.758863 1_555
Na16 O67 2.815077 1_555
Na16 O68 2.945597 1_555
Na17 O63 2.307181 1_555
Na17 O64 2.447102 1_555
Na17 O65 2.461672 1_555
Na17 O71 2.758863 1_555
Na17 O70 2.815077 1_555
Na17 O69 2.945597 1_555
Nb0 O67 1.899332 1_555
Nb0 O32 1.899642 1_555
Nb0 O66 1.974634 1_555
Nb0 O31 2.031725 1_555
Nb0 O68 2.083458 1_555
Nb0 O30 2.166083 1_555
Nb1 O70 1.899333 1_555
Nb1 O33 1.899642 1_555
Nb1 O71 1.974634 1_555
Nb1 O34 2.031725 1_555
Nb1 O69 2.083458 1_555
Nb1 O35 2.166083 1_555
O0 Si0 1.619298 1_555
O0 Zn0 1.958581 1_555
O1 Si1 1.619776 1_555
O1 Zn0 2.005864 1_665
O2 S0 1.462279 1_655
O2 Zn0 2.133219 1_655
O3 S1 1.462279 1_555
O3 Zn1 2.133219 1_455
O4 Si2 1.619776 1_555
O4 Zn1 2.005864 1_565
O5 Si3 1.619298 1_555
O5 Zn1 1.958581 1_555
O6 Si3 1.612119 1_565
O6 Zn2 1.917355 1_555
O7 S1 1.470188 1_555
O7 Zn2 2.445011 1_445
O8 Si2 1.615340 1_455
O8 Zn2 1.930808 1_455
O9 Si1 1.615340 1_555
O9 Zn3 1.930808 1_555
O10 S0 1.470188 1_555
O10 Zn3 2.445011 1_445
O11 Si0 1.612119 1_565
O11 Zn3 1.917355 1_455
O12 S2 1.493973 1_555
O12 Zn4 2.024421 1_555
O13 S3 1.493964 1_555
O13 Zn4 2.203547 1_555
O14 S4 1.497937 1_555
O14 Zn4 2.146336 1_555
O15 S5 1.497937 1_555
O15 Zn5 2.146336 1_555
O16 S6 1.493964 1_555
O16 Zn5 2.203547 1_555
O17 S7 1.493973 1_555
O17 Zn5 2.024421 1_555
O18 S7 1.478477 1_555
O18 Zn6 2.144156 1_554
O19 S5 1.492078 1_555
O19 Zn6 2.054434 1_554
O20 S6 1.502421 1_555
O20 Zn6 2.041553 1_554
O21 S3 1.502421 1_555
O21 Zn7 2.041553 1_555
O22 S4 1.492078 1_555
O22 Zn7 2.054434 1_555
O23 S2 1.478476 1_555
O23 Zn7 2.144156 1_555
O24 S8 1.465182 1_555
O24 Zn8 2.018982 1_556
O25 Si4 1.602430 1_555
O25 Zn8 1.920888 1_556
O26 S9 1.461721 1_555
O26 Zn8 2.109001 1_556
O27 S10 1.461721 1_555
O27 Zn9 2.109001 1_555
O28 Si5 1.602430 1_555
O28 Zn9 1.920888 1_555
O29 S11 1.465182 1_555
O29 Zn9 2.018982 1_555
O30 S11 1.521813 1_555
O31 S10 1.566291 1_555
O32 Si5 1.731600 1_555
O33 Si4 1.731600 1_555
O34 S9 1.566291 1_555
O35 S8 1.521813 1_555
O36 S11 1.483704 1_555
O36 Zn0 2.339183 1_565
O37 S10 1.460281 1_555
O37 Zn0 2.459245 1_665
O38 Si5 1.619144 1_555
O38 Zn0 2.079444 1_555
O39 Si4 1.619148 1_555
O39 Zn1 2.079444 1_455
O40 S9 1.460272 1_555
O40 Zn1 2.459245 1_465
O41 S8 1.483709 1_555
O41 Zn1 2.339183 1_565
O42 S2 1.491717 1_555
O42 Zn2 2.512250 1_545
O43 S3 1.492976 1_555
O43 Zn2 2.469851 1_445
O44 S4 1.482422 1_555
O44 Zn2 2.096260 1_555
O45 S5 1.482426 1_555
O45 Zn3 2.096260 1_555
O46 S6 1.492967 1_555
O46 Zn3 2.469851 1_545
O47 S7 1.491723 1_555
O47 Zn3 2.512250 1_445
O48 Si3 1.640950 1_555
O48 Zn4 2.018626 1_555
O49 S1 1.480084 1_555
O49 Zn4 2.374139 1_555
O50 Si2 1.631592 1_555
O50 Zn4 2.083214 1_555
O51 Si1 1.631596 1_555
O51 Zn5 2.083214 1_555
O52 S0 1.480075 1_655
O52 Zn5 2.374139 1_555
O53 Si0 1.640956 1_555
O53 Zn5 2.018626 1_555
O54 S8 1.482341 1_555
O54 Zn6 2.271104 1_555
O55 Si4 1.666860 1_655
O55 Zn6 2.107888 1_555
O56 S9 1.476882 1_545
O56 Zn6 2.317044 1_555
O57 S10 1.476873 1_545
O57 Zn7 2.317044 1_555
O58 Si5 1.666879 1_555
O58 Zn7 2.107888 1_555
O59 S11 1.482331 1_655
O59 Zn7 2.271104 1_555
O60 S7 1.508994 1_555
O60 Zn8 2.148544 1_555
O61 S5 1.497907 1_455
O61 Zn8 2.305766 1_555
O62 S6 1.484977 1_565
O62 Zn8 2.263993 1_555
O63 S3 1.484969 1_565
O63 Zn9 2.263993 1_555
O64 S4 1.497925 1_555
O64 Zn9 2.305766 1_555
O65 S2 1.508984 1_455
O65 Zn9 2.148544 1_555
O66 Si0 1.696878 1_565
O67 Si1 1.722911 1_555
O68 S0 1.545696 1_555
O69 S1 1.545700 1_555
O70 Si2 1.722902 1_455
O71 Si3 1.696883 1_565
