# generated using pymatgen
data_Na18Mg8Ta16Si21(S5O48)3
_symmetry_space_group_name_H-M   'P 1'
_cell_length_a   17.79411458
_cell_length_b   8.89926451
_cell_length_c   22.74786882
_cell_angle_alpha   89.90614327
_cell_angle_beta   90.10217963
_cell_angle_gamma   120.09034649
_symmetry_Int_Tables_number   1
_chemical_formula_structural   Na18Mg8Ta16Si21(S5O48)3
_chemical_formula_sum   'Na18 Mg8 Ta16 Si21 S15 O144'
_cell_volume   3116.77100998
_cell_formula_units_Z   1
loop_
 _symmetry_equiv_pos_site_id
 _symmetry_equiv_pos_as_xyz
  1  'x, y, z'
loop_
 _atom_site_type_symbol
 _atom_site_label
 _atom_site_symmetry_multiplicity
 _atom_site_fract_x
 _atom_site_fract_y
 _atom_site_fract_z
 _atom_site_occupancy
  Na  Na0  1  0.31894785  0.01469261  0.24179483  1
  Na  Na1  1  0.81618919  0.01280608  0.24269214  1
  Na  Na2  1  0.99764988  0.63748610  0.24304448  1
  Na  Na3  1  0.32462518  0.62261316  0.74580601  1
  Na  Na4  1  0.81671450  0.61993009  0.74363907  1
  Na  Na5  1  0.49525054  0.36144415  0.74208729  1
  Na  Na6  1  0.99075764  0.98494932  0.49142696  1
  Na  Na7  1  0.49126671  0.98903146  0.49360212  1
  Na  Na8  1  0.99117785  0.99456479  0.98859078  1
  Na  Na9  1  0.49168234  0.99682990  0.98904078  1
  Na  Na10  1  0.32900737  0.33941495  0.82632185  1
  Na  Na11  1  0.82585310  0.32327126  0.82839498  1
  Na  Na12  1  0.32875012  0.33093446  0.33066561  1
  Na  Na13  1  0.81854635  0.31539222  0.33310912  1
  Na  Na14  1  0.16807761  0.67324378  0.16071308  1
  Na  Na15  1  0.65803220  0.66815605  0.16238160  1
  Na  Na16  1  0.16108475  0.65077309  0.66433148  1
  Na  Na17  1  0.66281743  0.66220692  0.66442950  1
  Mg  Mg0  1  0.00173271  0.99661528  0.35820236  1
  Mg  Mg1  1  0.50230005  0.99630439  0.35764294  1
  Mg  Mg2  1  0.00054541  0.00712267  0.85708067  1
  Mg  Mg3  1  0.50005481  0.99721809  0.85516988  1
  Mg  Mg4  1  0.33639300  0.34973833  0.68546215  1
  Mg  Mg5  1  0.83313340  0.33869801  0.68354413  1
  Mg  Mg6  1  0.33382896  0.32719325  0.18327149  1
  Mg  Mg7  1  0.82854189  0.32171717  0.18168187  1
  Ta  Ta0  1  0.00035607  0.01126056  0.64339170  1
  Ta  Ta1  1  0.50252965  0.99948837  0.64570253  1
  Ta  Ta2  1  0.00154658  0.99164331  0.14134295  1
  Ta  Ta3  1  0.50108542  0.99007976  0.14257956  1
  Ta  Ta4  1  0.34436850  0.34463745  0.97736349  1
  Ta  Ta5  1  0.84277379  0.34349427  0.97777696  1
  Ta  Ta6  1  0.34405255  0.34227181  0.47995004  1
  Ta  Ta7  1  0.84313767  0.34120569  0.47878344  1
  Ta  Ta8  1  0.16867470  0.66944401  0.01959818  1
  Ta  Ta9  1  0.66887674  0.66831763  0.01926892  1
  Ta  Ta10  1  0.16914968  0.67260277  0.52138685  1
  Ta  Ta11  1  0.66852739  0.67001967  0.52134698  1
  Ta  Ta12  1  0.16611317  0.67893427  0.31549349  1
  Ta  Ta13  1  0.66050958  0.67689824  0.31455827  1
  Ta  Ta14  1  0.16260098  0.64553982  0.81335118  1
  Ta  Ta15  1  0.66193293  0.65078445  0.81179352  1
  Si  Si0  1  0.14783096  0.01704009  0.25342362  1
  Si  Si1  1  0.64675270  0.01562125  0.25345712  1
  Si  Si2  1  0.14552511  0.27592141  0.75363525  1
  Si  Si3  1  0.64789184  0.27669900  0.75322817  1
  Si  Si4  1  0.50022619  0.71298839  0.75405485  1
  Si  Si5  1  0.48012131  0.33201028  0.58776964  1
  Si  Si6  1  0.97851307  0.34042642  0.58671996  1
  Si  Si7  1  0.33439302  0.62322297  0.58592431  1
  Si  Si8  1  0.83390472  0.62063027  0.58654161  1
  Si  Si9  1  0.47869567  0.61486883  0.08627845  1
  Si  Si10  1  0.97869477  0.61413161  0.08762200  1
  Si  Si11  1  0.33307778  0.04643233  0.08666030  1
  Si  Si12  1  0.83249819  0.04463093  0.08611516  1
  Si  Si13  1  0.31471061  0.66705258  0.91724512  1
  Si  Si14  1  0.81451245  0.66838277  0.91566889  1
  Si  Si15  1  0.02246390  0.36894438  0.91825586  1
  Si  Si16  1  0.52349307  0.36733838  0.91701522  1
  Si  Si17  1  0.31601886  0.96652223  0.41796961  1
  Si  Si18  1  0.81421691  0.96216421  0.41691078  1
  Si  Si19  1  0.02180054  0.67404919  0.41795497  1
  Si  Si20  1  0.52127523  0.67605527  0.41920892  1
  S  S0  1  0.35590260  0.70820212  0.25055328  1
  S  S1  1  0.85446732  0.70986112  0.25003330  1
  S  S2  1  0.00277454  0.28798700  0.25134421  1
  S  S3  1  0.50260678  0.28847567  0.25136809  1
  S  S4  1  0.00256698  0.71663691  0.75150928  1
  S  S5  1  0.35330904  0.99780421  0.75021725  1
  S  S6  1  0.85715944  0.00440551  0.75044425  1
  S  S7  1  0.18928527  0.04671011  0.58416456  1
  S  S8  1  0.68979200  0.04652106  0.58327869  1
  S  S9  1  0.18937306  0.33402589  0.08398250  1
  S  S10  1  0.68861305  0.33330596  0.08367882  1
  S  S11  1  0.16758917  0.95518168  0.91636655  1
  S  S12  1  0.66816752  0.95592054  0.91720675  1
  S  S13  1  0.16737526  0.38090753  0.41714960  1
  S  S14  1  0.66723375  0.38147882  0.41670674  1
  O  O0  1  0.09473297  0.01853606  0.30793745  1
  O  O1  1  0.59805847  0.02657514  0.30901755  1
  O  O2  1  0.40580836  0.79203657  0.30273895  1
  O  O3  1  0.90681445  0.79172156  0.30163102  1
  O  O4  1  0.48837467  0.18121341  0.30311470  1
  O  O5  1  0.98875759  0.18160415  0.30297138  1
  O  O6  1  0.09592264  0.16889198  0.80924861  1
  O  O7  1  0.59757836  0.17638129  0.80968637  1
  O  O8  1  0.47751190  0.79700750  0.80700343  1
  O  O9  1  0.98841105  0.79522992  0.80316998  1
  O  O10  1  0.40496973  0.02651433  0.80264642  1
  O  O11  1  0.90757326  0.02239573  0.80252367  1
  O  O12  1  0.39333945  0.96238765  0.69664952  1
  O  O13  1  0.89789208  0.96959803  0.69589914  1
  O  O14  1  0.08291774  0.18778310  0.69292187  1
  O  O15  1  0.58386408  0.19647803  0.69280070  1
  O  O16  1  0.01376682  0.82146816  0.69693171  1
  O  O17  1  0.51306881  0.83408400  0.69292308  1
  O  O18  1  0.39552403  0.82474218  0.19632566  1
  O  O19  1  0.89557896  0.82471570  0.19578550  1
  O  O20  1  0.01283925  0.20609744  0.19686205  1
  O  O21  1  0.51378848  0.20670050  0.19699471  1
  O  O22  1  0.08299907  0.97403937  0.19318491  1
  O  O23  1  0.58487802  0.98153402  0.19281294  1
  O  O24  1  0.43990268  0.36046356  0.64548552  1
  O  O25  1  0.93584424  0.36544935  0.64297977  1
  O  O26  1  0.24067711  0.11891587  0.63661827  1
  O  O27  1  0.74017197  0.11752215  0.63629613  1
  O  O28  1  0.31268118  0.51630617  0.64495523  1
  O  O29  1  0.81423517  0.51707240  0.64630051  1
  O  O30  1  0.43598588  0.50688471  0.14328069  1
  O  O31  1  0.93931031  0.51656086  0.14782034  1
  O  O32  1  0.31309472  0.10867829  0.14688146  1
  O  O33  1  0.81547199  0.11104010  0.14644055  1
  O  O34  1  0.23945209  0.36157709  0.13750651  1
  O  O35  1  0.73965863  0.36301084  0.13668543  1
  O  O36  1  0.22534715  0.30239290  0.03075276  1
  O  O37  1  0.72577422  0.30250174  0.03046474  1
  O  O38  1  0.41784018  0.53253088  0.02614472  1
  O  O39  1  0.91607815  0.52733733  0.02904440  1
  O  O40  1  0.34414653  0.16910308  0.02863177  1
  O  O41  1  0.84436712  0.16800118  0.02833419  1
  O  O42  1  0.22632029  0.14937842  0.52993152  1
  O  O43  1  0.72938679  0.15011679  0.52948471  1
  O  O44  1  0.34384478  0.52012491  0.52732822  1
  O  O45  1  0.84485274  0.51953932  0.52792265  1
  O  O46  1  0.41749775  0.30353392  0.52792886  1
  O  O47  1  0.91810326  0.30253827  0.52591305  1
  O  O48  1  0.25855660  0.68156270  0.97267416  1
  O  O49  1  0.76119242  0.68700921  0.97217410  1
  O  O50  1  0.08055612  0.48426131  0.97400462  1
  O  O51  1  0.58230195  0.48452405  0.97260038  1
  O  O52  1  0.15879638  0.84882708  0.97061943  1
  O  O53  1  0.65982691  0.85022937  0.97123241  1
  O  O54  1  0.26104249  0.83649676  0.47216435  1
  O  O55  1  0.76089046  0.83529710  0.47211698  1
  O  O56  1  0.15846097  0.46891027  0.47002980  1
  O  O57  1  0.65897164  0.46948566  0.47010848  1
  O  O58  1  0.08214819  0.67800621  0.47212730  1
  O  O59  1  0.58198501  0.67919639  0.47312724  1
  O  O60  1  0.06699345  0.63594334  0.35776523  1
  O  O61  1  0.56625217  0.63628214  0.35977329  1
  O  O62  1  0.25117977  0.86318174  0.35835498  1
  O  O63  1  0.75015422  0.85957514  0.35758896  1
  O  O64  1  0.18124060  0.49336280  0.36334330  1
  O  O65  1  0.68167936  0.49301542  0.36327882  1
  O  O66  1  0.06751953  0.49939992  0.85995906  1
  O  O67  1  0.56668379  0.49577187  0.85799514  1
  O  O68  1  0.18206847  0.87282506  0.86382886  1
  O  O69  1  0.68333526  0.87532728  0.86484579  1
  O  O70  1  0.25030152  0.64069344  0.85856728  1
  O  O71  1  0.75249037  0.64451426  0.85739764  1
  O  O72  1  0.01280074  0.83994648  0.41479110  1
  O  O73  1  0.51258037  0.84205533  0.41590056  1
  O  O74  1  0.40893934  0.99102308  0.40929832  1
  O  O75  1  0.90816286  0.98967007  0.40904251  1
  O  O76  1  0.08931337  0.21385703  0.41165536  1
  O  O77  1  0.58951952  0.21399632  0.41211489  1
  O  O78  1  0.01302119  0.18484249  0.91591941  1
  O  O79  1  0.51326905  0.18278970  0.91444799  1
  O  O80  1  0.08969146  0.96629202  0.91278509  1
  O  O81  1  0.59083595  0.96955206  0.91418842  1
  O  O82  1  0.40713883  0.83208277  0.91405833  1
  O  O83  1  0.90954772  0.82767797  0.91055354  1
  O  O84  1  0.49093350  0.15947877  0.58989182  1
  O  O85  1  0.98922704  0.16329947  0.59070437  1
  O  O86  1  0.09897754  0.02046921  0.58984499  1
  O  O87  1  0.60097740  0.02560160  0.58731117  1
  O  O88  1  0.42162345  0.81787778  0.58992923  1
  O  O89  1  0.92264275  0.81549624  0.59239963  1
  O  O90  1  0.48931825  0.81456821  0.09146335  1
  O  O91  1  0.98894275  0.81383727  0.09116354  1
  O  O92  1  0.42201178  0.02904570  0.09389935  1
  O  O93  1  0.92223604  0.02824677  0.09345144  1
  O  O94  1  0.09846473  0.17724595  0.09087109  1
  O  O95  1  0.59848053  0.17763411  0.09022806  1
  O  O96  1  0.34057254  0.14585908  0.73998976  1
  O  O97  1  0.84501564  0.15266679  0.74124051  1
  O  O98  1  0.24346385  0.32014030  0.74556278  1
  O  O99  1  0.74688886  0.32083550  0.74628563  1
  O  O100  1  0.42326194  0.51347275  0.74637525  1
  O  O101  1  0.92829274  0.53902353  0.74511107  1
  O  O102  1  0.34297814  0.53540367  0.24171372  1
  O  O103  1  0.84540300  0.53763652  0.24161128  1
  O  O104  1  0.42838743  0.31774633  0.24516766  1
  O  O105  1  0.92897890  0.32069327  0.24590079  1
  O  O106  1  0.24686909  0.16916832  0.24706996  1
  O  O107  1  0.74649238  0.16924176  0.24643276  1
  O  O108  1  0.31070980  0.47829610  0.92635973  1
  O  O109  1  0.81173147  0.48022240  0.92698722  1
  O  O110  1  0.42780439  0.36105826  0.92329343  1
  O  O111  1  0.92703443  0.36262630  0.92340411  1
  O  O112  1  0.24698993  0.12846059  0.92378069  1
  O  O113  1  0.74805481  0.13008207  0.92450358  1
  O  O114  1  0.31062896  0.14475414  0.42565730  1
  O  O115  1  0.81057727  0.14341025  0.42492163  1
  O  O116  1  0.24675513  0.36687024  0.42228080  1
  O  O117  1  0.74695406  0.36686365  0.42264317  1
  O  O118  1  0.42633023  0.49134261  0.42319365  1
  O  O119  1  0.92636178  0.49043579  0.42219986  1
  O  O120  1  0.17552545  0.48630857  0.07687795  1
  O  O121  1  0.67587205  0.48664480  0.07620485  1
  O  O122  1  0.07616386  0.64828107  0.07493999  1
  O  O123  1  0.57671285  0.65027227  0.07331198  1
  O  O124  1  0.25185231  0.84789362  0.07258589  1
  O  O125  1  0.75193396  0.84695861  0.07283528  1
  O  O126  1  0.17601291  0.86585006  0.57614611  1
  O  O127  1  0.67677569  0.86618126  0.57576848  1
  O  O128  1  0.25149289  0.65440687  0.57097358  1
  O  O129  1  0.75257905  0.65505251  0.57161037  1
  O  O130  1  0.07632858  0.50260805  0.57291510  1
  O  O131  1  0.57659144  0.50222835  0.57282266  1
  O  O132  1  0.15271042  0.82108055  0.25627020  1
  O  O133  1  0.65481878  0.82541107  0.25633175  1
  O  O134  1  0.26681728  0.69710074  0.25411129  1
  O  O135  1  0.76642971  0.69492258  0.25339086  1
  O  O136  1  0.08488507  0.46602682  0.25535895  1
  O  O137  1  0.58590780  0.46412625  0.25641486  1
  O  O138  1  0.15322384  0.48225627  0.75679247  1
  O  O139  1  0.65549770  0.48343247  0.75583051  1
  O  O140  1  0.08587453  0.70835917  0.75652533  1
  O  O141  1  0.59359870  0.70652086  0.75830608  1
  O  O142  1  0.26494802  0.83287213  0.75493504  1
  O  O143  1  0.76998240  0.83816732  0.75307069  1
loop_
_geom_bond_atom_site_label_1
_geom_bond_atom_site_label_2
_geom_bond_distance
_geom_bond_site_symmetry_2
Na0 O106 2.306155 1_555
Na0 O32 2.335094 1_555
Na0 O104 2.409472 1_555
Na0 O134 2.509294 1_545
Na0 O132 2.591947 1_545
Na0 O18 2.846833 1_545
Na0 O62 2.944808 1_545
Na0 O4 2.956810 1_555
Na1 O107 2.283739 1_555
Na1 O33 2.358647 1_555
Na1 O105 2.454955 1_555
Na1 O133 2.514433 1_545
Na1 O135 2.516529 1_545
Na2 O103 2.390774 1_555
Na2 O31 2.409845 1_555
Na2 O132 2.418937 1_655
Na2 O105 2.447598 1_555
Na2 O136 2.681109 1_655
Na2 O22 2.827952 1_655
Na2 O60 2.887627 1_655
Na2 O3 2.917353 1_555
Na3 O98 2.330962 1_555
Na3 O100 2.394443 1_555
Na3 O28 2.450923 1_555
Na3 O142 2.581942 1_555
Na3 O138 2.665793 1_555
Na3 O8 2.739992 1_555
Na3 O12 2.859191 1_555
Na3 O70 2.929405 1_555
Na4 O99 2.305585 1_555
Na4 O29 2.389248 1_555
Na4 O101 2.427881 1_555
Na4 O143 2.476062 1_555
Na4 O139 2.507886 1_555
Na4 O71 2.883318 1_555
Na4 O13 2.904555 1_555
Na4 O9 2.968956 1_555
Na5 O100 2.284634 1_555
Na5 O24 2.404725 1_555
Na5 O96 2.442020 1_555
Na5 O139 2.510180 1_555
Na5 O141 2.691067 1_555
Na5 O15 2.869048 1_555
Na5 O67 2.910566 1_555
Na5 O10 2.925018 1_555
Na6 O72 2.318507 1_655
Na6 O75 2.392855 1_555
Na6 O76 2.633477 1_665
Na6 O89 2.680442 1_555
Na6 O85 2.770442 1_565
Na6 O86 2.863032 1_665
Na7 O73 2.342273 1_555
Na7 O74 2.416603 1_555
Na7 O88 2.600626 1_555
Na7 O77 2.643945 1_565
Na7 O84 2.668075 1_565
Na7 O87 2.794895 1_565
Na8 O78 2.254862 1_665
Na8 O83 2.302856 1_555
Na8 O80 2.562082 1_655
Na8 O93 2.768792 1_566
Na8 O91 2.820742 1_556
Na8 O94 2.930075 1_666
Na9 O82 2.260414 1_555
Na9 O79 2.263005 1_565
Na9 O81 2.551999 1_555
Na9 O92 2.770920 1_566
Na9 O90 2.824995 1_556
Na9 O95 2.903289 1_566
Na10 O98 2.334652 1_555
Na10 O100 2.432339 1_555
Na10 O108 2.688400 1_555
Na10 O96 2.689634 1_555
Na10 O110 2.764361 1_555
Na10 O112 2.796412 1_555
Na11 O99 2.328890 1_555
Na11 O97 2.623616 1_555
Na11 O101 2.662599 1_555
Na11 O113 2.695168 1_555
Na11 O111 2.718741 1_555
Na11 O109 2.721810 1_555
Na12 O106 2.389002 1_555
Na12 O114 2.640745 1_555
Na12 O118 2.644681 1_555
Na12 O102 2.645255 1_555
Na12 O116 2.656164 1_555
Na12 O104 2.676093 1_555
Na13 O107 2.355923 1_555
Na13 O115 2.549026 1_555
Na13 O117 2.564821 1_555
Na13 O119 2.685921 1_555
Na13 O103 2.741271 1_555
Na13 O105 2.778446 1_555
Na14 O122 2.481332 1_555
Na14 O124 2.516731 1_555
Na14 O120 2.579606 1_555
Na14 O132 2.627350 1_555
Na14 O134 2.694469 1_555
Na14 O136 2.736503 1_555
Na15 O123 2.446240 1_555
Na15 O133 2.572876 1_555
Na15 O125 2.609346 1_555
Na15 O121 2.660772 1_555
Na15 O137 2.679535 1_555
Na15 O135 2.754964 1_555
Na16 O130 2.518204 1_555
Na16 O138 2.544169 1_555
Na16 O128 2.656866 1_555
Na16 O140 2.674552 1_555
Na16 O126 2.690301 1_555
Na16 O142 2.698867 1_555
Na17 O131 2.555671 1_555
Na17 O139 2.579428 1_555
Na17 O141 2.594628 1_555
Na17 O127 2.638580 1_555
Na17 O129 2.669794 1_555
Na17 O143 2.675196 1_555
Mg0 O0 1.940702 1_565
Mg0 O72 1.976945 1_555
Mg0 O75 2.004238 1_455
Mg0 O76 2.150498 1_565
Mg0 O5 2.171479 1_465
Mg0 O3 2.178383 1_455
Mg1 O1 1.935188 1_565
Mg1 O73 1.979646 1_555
Mg1 O74 2.017737 1_555
Mg1 O2 2.163909 1_555
Mg1 O77 2.164105 1_565
Mg1 O4 2.170006 1_565
Mg2 O6 1.920491 1_555
Mg2 O78 1.998985 1_555
Mg2 O83 2.014818 1_445
Mg2 O11 2.124426 1_455
Mg2 O9 2.169044 1_445
Mg2 O80 2.196196 1_545
Mg3 O8 1.955544 1_555
Mg3 O7 1.962316 1_565
Mg3 O79 2.053701 1_565
Mg3 O82 2.062239 1_555
Mg3 O10 2.189135 1_565
Mg3 O81 2.205097 1_555
Mg4 O28 1.961041 1_555
Mg4 O24 2.014437 1_555
Mg4 O100 2.042801 1_555
Mg4 O98 2.059858 1_555
Mg4 O26 2.201698 1_555
Mg4 O96 2.227926 1_555
Mg5 O25 1.953830 1_555
Mg5 O29 1.969908 1_555
Mg5 O99 2.044470 1_555
Mg5 O27 2.121664 1_555
Mg5 O97 2.202494 1_555
Mg5 O101 2.231506 1_555
Mg6 O30 1.943051 1_555
Mg6 O32 1.971722 1_555
Mg6 O106 2.073059 1_555
Mg6 O34 2.122650 1_555
Mg6 O102 2.220818 1_555
Mg6 O104 2.225678 1_555
Mg7 O33 1.943947 1_555
Mg7 O31 2.014678 1_555
Mg7 O107 2.038873 1_555
Mg7 O35 2.063975 1_555
Mg7 O103 2.251622 1_555
Mg7 O105 2.309797 1_555
O0 Si0 1.564453 1_555
O1 Si1 1.564185 1_555
O2 S0 1.445424 1_555
O3 S1 1.447233 1_555
O4 S3 1.454619 1_555
O5 S2 1.448574 1_655
O6 Si2 1.563251 1_555
O7 Si3 1.564248 1_555
O8 Si4 1.575085 1_555
O9 S4 1.453985 1_655
O10 S5 1.447172 1_545
O11 S6 1.444537 1_555
O12 S5 1.523502 1_555
O12 Ta1 2.142591 1_555
O13 S6 1.546102 1_565
O13 Ta0 2.053502 1_665
O14 Si2 1.698710 1_555
O14 Ta0 1.892428 1_555
O15 Si3 1.696839 1_555
O15 Ta1 1.942222 1_545
O16 S4 1.504027 1_555
O16 Ta0 2.188474 1_565
O17 Si4 1.701962 1_555
O17 Ta1 1.904369 1_555
O18 S0 1.536254 1_555
O18 Ta3 2.102134 1_555
O19 S1 1.533629 1_555
O19 Ta2 2.118866 1_655
O20 S2 1.494583 1_555
O20 Ta2 2.213630 1_545
O21 S3 1.499360 1_555
O21 Ta3 2.206688 1_545
O22 Si0 1.705413 1_565
O22 Ta2 1.933118 1_555
O23 Si1 1.693628 1_565
O23 Ta3 1.908408 1_555
O24 Si5 1.576759 1_555
O25 Si6 1.561364 1_555
O26 S7 1.443022 1_555
O27 S8 1.445015 1_555
O28 Si7 1.576967 1_555
O29 Si8 1.579214 1_555
O30 Si9 1.565102 1_555
O31 Si10 1.584189 1_555
O32 Si11 1.584821 1_555
O33 Si12 1.583628 1_555
O34 S9 1.454189 1_555
O35 S10 1.450932 1_555
O36 S9 1.462797 1_555
O36 Ta4 2.304569 1_554
O37 S10 1.470863 1_555
O37 Ta5 2.269317 1_554
O38 Si9 1.668256 1_555
O38 Ta4 1.882924 1_554
O39 Si10 1.657942 1_555
O39 Ta5 1.897145 1_554
O40 Si11 1.659406 1_555
O40 Ta4 1.946341 1_554
O41 Si12 1.655713 1_555
O41 Ta5 1.949604 1_554
O42 S7 1.478687 1_555
O42 Ta6 2.241500 1_555
O43 S8 1.480487 1_555
O43 Ta7 2.206688 1_555
O44 Si7 1.675214 1_555
O44 Ta6 1.917855 1_555
O45 Si8 1.675110 1_555
O45 Ta7 1.930350 1_555
O46 Si5 1.694554 1_555
O46 Ta6 1.861034 1_555
O47 Si6 1.677883 1_555
O47 Ta7 1.871147 1_555
O48 Si13 1.655099 1_555
O48 Ta8 1.881955 1_556
O49 Si14 1.656079 1_555
O49 Ta9 1.898803 1_556
O50 Si15 1.632731 1_555
O50 Ta8 1.912818 1_556
O51 Si16 1.639135 1_555
O51 Ta9 1.910172 1_556
O52 S11 1.513858 1_555
O52 Ta8 2.023739 1_556
O53 S12 1.507965 1_555
O53 Ta9 2.023795 1_556
O54 Si17 1.637173 1_555
O54 Ta10 1.914297 1_555
O55 Si18 1.636321 1_555
O55 Ta11 1.922466 1_555
O56 S13 1.487894 1_555
O56 Ta10 2.085037 1_555
O57 S14 1.493286 1_555
O57 Ta11 2.067391 1_555
O58 Si19 1.621862 1_555
O58 Ta10 1.929478 1_555
O59 Si20 1.623962 1_555
O59 Ta11 1.923816 1_555
O60 Si19 1.707413 1_555
O60 Ta12 1.873513 1_555
O61 Si20 1.698021 1_555
O61 Ta13 1.843552 1_555
O62 Si17 1.717699 1_555
O62 Ta12 1.855168 1_555
O63 Si18 1.705565 1_555
O63 Ta13 1.882783 1_555
O64 S13 1.519873 1_555
O64 Ta12 2.103176 1_555
O65 S14 1.506574 1_555
O65 Ta13 2.158418 1_555
O66 Si15 1.677689 1_555
O66 Ta14 1.863729 1_555
O67 Si16 1.678507 1_555
O67 Ta15 1.880780 1_555
O68 S11 1.491701 1_555
O68 Ta14 2.198479 1_555
O69 S12 1.484594 1_555
O69 Ta15 2.199478 1_555
O70 Si13 1.695949 1_555
O70 Ta14 1.885938 1_555
O71 Si14 1.667582 1_555
O71 Ta15 1.939044 1_555
O72 Si19 1.564341 1_555
O73 Si20 1.562284 1_555
O74 Si17 1.568384 1_555
O75 Si18 1.573878 1_555
O76 S13 1.443774 1_555
O77 S14 1.441515 1_555
O78 Si15 1.561900 1_555
O79 Si16 1.560284 1_555
O80 S11 1.440396 1_555
O81 S12 1.442205 1_555
O82 Si13 1.563706 1_555
O83 Si14 1.574552 1_555
O84 Si5 1.640958 1_555
O84 Ta1 1.992318 1_545
O85 Si6 1.682286 1_555
O85 Ta0 1.889152 1_655
O86 S7 1.509259 1_555
O86 Ta0 2.105498 1_555
O87 S8 1.498702 1_555
O87 Ta1 2.118061 1_545
O88 Si7 1.649921 1_555
O88 Ta1 1.990339 1_555
O89 Si8 1.665122 1_555
O89 Ta0 1.969281 1_665
O90 Si9 1.694629 1_555
O90 Ta3 1.874209 1_555
O91 Si10 1.695214 1_555
O91 Ta2 1.872493 1_655
O92 Si11 1.673285 1_555
O92 Ta3 1.951597 1_545
O93 Si12 1.682655 1_555
O93 Ta2 1.933634 1_645
O94 S9 1.524799 1_555
O94 Ta2 2.040857 1_545
O95 S10 1.511926 1_555
O95 Ta3 2.075547 1_545
O96 S5 1.462785 1_545
O97 S6 1.454720 1_555
O98 Si2 1.593403 1_555
O99 Si3 1.609135 1_555
O100 Si4 1.618805 1_555
O101 S4 1.473652 1_655
O102 S0 1.450625 1_555
O103 S1 1.471317 1_555
O104 S3 1.475155 1_555
O105 S2 1.485565 1_655
O106 Si0 1.602291 1_555
O107 Si1 1.616081 1_555
O108 Si13 1.657940 1_555
O108 Ta4 1.956275 1_555
O109 Si14 1.669789 1_555
O109 Ta5 1.946172 1_555
O110 Si16 1.681699 1_555
O110 Ta4 1.877981 1_555
O111 Si15 1.674907 1_655
O111 Ta5 1.885950 1_555
O112 S11 1.489264 1_545
O112 Ta4 2.201539 1_555
O113 S12 1.497082 1_545
O113 Ta5 2.169520 1_555
O114 Si17 1.645936 1_545
O114 Ta6 1.981162 1_555
O115 Si18 1.656739 1_545
O115 Ta7 1.979198 1_555
O116 S13 1.483465 1_555
O116 Ta6 2.266571 1_555
O117 S14 1.493891 1_555
O117 Ta7 2.235040 1_555
O118 Si20 1.667311 1_555
O118 Ta6 1.903647 1_555
O119 Si19 1.667609 1_655
O119 Ta7 1.908575 1_555
O120 S9 1.502463 1_555
O120 Ta8 2.135532 1_555
O121 S10 1.500590 1_555
O121 Ta9 2.121607 1_555
O122 Si10 1.629913 1_455
O122 Ta8 2.006456 1_555
O123 Si9 1.636695 1_555
O123 Ta9 1.992261 1_555
O124 Si11 1.659155 1_565
O124 Ta8 1.951538 1_555
O125 Si12 1.646940 1_565
O125 Ta9 1.959690 1_555
O126 S7 1.516330 1_565
O126 Ta10 2.078466 1_555
O127 S8 1.512130 1_565
O127 Ta11 2.085925 1_555
O128 Si7 1.666461 1_555
O128 Ta10 1.917522 1_555
O129 Si8 1.657037 1_555
O129 Ta11 1.937814 1_555
O130 Si6 1.640943 1_455
O130 Ta10 1.971344 1_555
O131 Si5 1.658299 1_555
O131 Ta11 1.956716 1_555
O132 Si0 1.790068 1_565
O132 Ta12 1.941092 1_555
O133 Si1 1.770152 1_565
O133 Ta13 1.907718 1_555
O134 S0 1.540308 1_555
O134 Ta12 2.214627 1_555
O135 S1 1.506371 1_555
O135 Ta13 2.284640 1_555
O136 S2 1.527157 1_555
O136 Ta12 2.192191 1_555
O137 S3 1.526566 1_555
O137 Ta13 2.139730 1_555
O138 Si2 1.773082 1_555
O138 Ta14 1.885975 1_555
O139 Si3 1.776865 1_555
O139 Ta15 1.920018 1_555
O140 S4 1.524722 1_555
O140 Ta14 2.145736 1_555
O141 Si4 1.693660 1_555
O141 Ta15 1.949999 1_555
O142 S5 1.524474 1_555
O142 Ta14 2.195167 1_555
O143 S6 1.515719 1_565
O143 Ta15 2.246938 1_555
