# generated using pymatgen
data_Sr2GdMgRuO6
_symmetry_space_group_name_H-M   'P 1'
_cell_length_a   5.71949621
_cell_length_b   5.71949703
_cell_length_c   5.69402211
_cell_angle_alpha   70.24929474
_cell_angle_beta   70.24928931
_cell_angle_gamma   63.98150384
_symmetry_Int_Tables_number   1
_chemical_formula_structural   Sr2GdMgRuO6
_chemical_formula_sum   'Sr2 Gd1 Mg1 Ru1 O6'
_cell_volume   153.52829473
_cell_formula_units_Z   1
loop_
 _symmetry_equiv_pos_site_id
 _symmetry_equiv_pos_as_xyz
  1  'x, y, z'
loop_
 _atom_site_type_symbol
 _atom_site_label
 _atom_site_symmetry_multiplicity
 _atom_site_fract_x
 _atom_site_fract_y
 _atom_site_fract_z
 _atom_site_occupancy
  Sr  Sr0  1  0.20015667  0.20015667  0.34852945  1
  Sr  Sr1  1  0.79984333  0.79984333  0.65147055  1
  Gd  Gd0  1  -0.00000000  0.00000000  0.00000000  1
  Mg  Mg0  1  0.50000000  0.50000000  0.00000000  1
  Ru  Ru0  1  0.50000000  0.50000000  0.50000000  1
  O  O0  1  0.30590209  0.30590309  0.86006495  1
  O  O1  1  0.69409791  0.69409691  0.13993505  1
  O  O2  1  0.66466657  0.19656137  0.29736093  1
  O  O3  1  0.80343863  0.33533443  0.70263907  1
  O  O4  1  0.33533343  0.80343863  0.70263907  1
  O  O5  1  0.19656137  0.66466557  0.29736093  1
loop_
_geom_bond_atom_site_label_1
_geom_bond_atom_site_label_2
_geom_bond_distance
_geom_bond_site_symmetry_2
Gd0 O4 2.238142 1_544
Gd0 O2 2.238142 1_455
Gd0 O3 2.238144 1_454
Gd0 O5 2.238144 1_545
Gd0 O1 2.749245 1_445
Gd0 O0 2.749245 1_554
Mg0 O5 2.103233 1_555
Mg0 O3 2.103233 1_554
Mg0 O4 2.103235 1_554
Mg0 O2 2.103235 1_555
Mg0 O0 2.318745 1_554
Mg0 O1 2.318745 1_555
O0 Ru0 2.161688 1_555
O0 Sr0 2.552347 1_556
O1 Ru0 2.161688 1_555
O1 Sr1 2.552347 1_554
O2 Ru0 2.101260 1_555
O2 Sr1 2.496832 1_545
O2 Sr0 2.564501 1_555
O3 Ru0 2.101261 1_555
O3 Sr0 2.496832 1_655
O3 Sr1 2.564495 1_555
O4 Ru0 2.101260 1_555
O4 Sr0 2.496832 1_565
O4 Sr1 2.564501 1_555
O5 Ru0 2.101261 1_555
O5 Sr1 2.496832 1_455
O5 Sr0 2.564495 1_555
