# generated using pymatgen
data_Na3HfScSi(PO6)2
_symmetry_space_group_name_H-M   'P 1'
_cell_length_a   9.08777461
_cell_length_b   9.08777430
_cell_length_c   22.48738638
_cell_angle_alpha   90.06958758
_cell_angle_beta   89.93041241
_cell_angle_gamma   120.01601386
_symmetry_Int_Tables_number   1
_chemical_formula_structural   Na3HfScSi(PO6)2
_chemical_formula_sum   'Na18 Hf6 Sc6 Si6 P12 O72'
_cell_volume   1608.10411611
_cell_formula_units_Z   6
loop_
 _symmetry_equiv_pos_site_id
 _symmetry_equiv_pos_as_xyz
  1  'x, y, z'
loop_
 _atom_site_type_symbol
 _atom_site_label
 _atom_site_symmetry_multiplicity
 _atom_site_fract_x
 _atom_site_fract_y
 _atom_site_fract_z
 _atom_site_occupancy
  Na  Na0  1  0.00372480  0.99265103  0.49576602  1
  Na  Na1  1  0.00734897  0.99627520  0.99576602  1
  Na  Na2  1  0.66643580  0.32334267  0.82955277  1
  Na  Na3  1  0.67665733  0.33356420  0.32955277  1
  Na  Na4  1  0.35307761  0.67526027  0.16202562  1
  Na  Na5  1  0.32473973  0.64692239  0.66202562  1
  Na  Na6  1  0.36137573  0.35986134  0.24589739  1
  Na  Na7  1  0.99306412  0.62876166  0.24690392  1
  Na  Na8  1  0.64013866  0.63862427  0.74589739  1
  Na  Na9  1  0.37123834  0.00693588  0.74690392  1
  Na  Na10  1  0.03984728  0.69953789  0.57867947  1
  Na  Na11  1  0.65160256  0.96361003  0.58489109  1
  Na  Na12  1  0.30046211  0.96015272  0.07867947  1
  Na  Na13  1  0.03638997  0.34839744  0.08489109  1
  Na  Na14  1  0.97601193  0.67635576  0.91915716  1
  Na  Na15  1  0.69621113  0.02563064  0.90993430  1
  Na  Na16  1  0.97436936  0.30378887  0.40993430  1
  Na  Na17  1  0.32364424  0.02398807  0.41915716  1
  Hf  Hf0  1  0.00473083  0.00789406  0.64759532  1
  Hf  Hf1  1  0.99210594  0.99526917  0.14759532  1
  Hf  Hf2  1  0.66215892  0.33753108  0.98107806  1
  Hf  Hf3  1  0.66246892  0.33784108  0.48107806  1
  Hf  Hf4  1  0.33325799  0.66830558  0.31435055  1
  Hf  Hf5  1  0.33169442  0.66674201  0.81435055  1
  Sc  Sc0  1  0.99027369  0.99343840  0.35187738  1
  Sc  Sc1  1  0.00656160  0.00972631  0.85187738  1
  Sc  Sc2  1  0.66732871  0.32432122  0.68534522  1
  Sc  Sc3  1  0.67567878  0.33267129  0.18534522  1
  Sc  Sc4  1  0.33344378  0.66790884  0.01811373  1
  Sc  Sc5  1  0.33209116  0.66655622  0.51811373  1
  Si  Si0  1  0.00048339  0.29716132  0.25201999  1
  Si  Si1  1  0.70283868  0.99951661  0.75201999  1
  Si  Si2  1  0.36697562  0.03394910  0.58345803  1
  Si  Si3  1  0.96605090  0.63302438  0.08345803  1
  Si  Si4  1  0.33303948  0.96532075  0.91788554  1
  Si  Si5  1  0.03467925  0.66696052  0.41788554  1
  P  P0  1  0.29228006  0.00010187  0.25136080  1
  P  P1  1  0.70310814  0.70432210  0.25026674  1
  P  P2  1  0.29567790  0.29689186  0.75026674  1
  P  P3  1  0.99989813  0.70771994  0.75136080  1
  P  P4  1  0.95833040  0.33190489  0.58196665  1
  P  P5  1  0.66733209  0.62817753  0.58756671  1
  P  P6  1  0.66809511  0.04166960  0.08196665  1
  P  P7  1  0.37182247  0.33266791  0.08756671  1
  P  P8  1  0.62537065  0.66454782  0.91513606  1
  P  P9  1  0.03723208  0.37173830  0.92007760  1
  P  P10  1  0.62826170  0.96276792  0.42007760  1
  P  P11  1  0.33545218  0.37462935  0.41513606  1
  O  O0  1  0.20583136  0.01956135  0.30703253  1
  O  O1  1  0.81678846  0.78698366  0.30435454  1
  O  O2  1  0.98805643  0.19103640  0.31151242  1
  O  O3  1  0.21301634  0.18321154  0.80435454  1
  O  O4  1  0.98043865  0.79416864  0.80703253  1
  O  O5  1  0.80896360  0.01194357  0.81151242  1
  O  O6  1  0.79790921  0.97509546  0.69291543  1
  O  O7  1  0.18740013  0.20691943  0.69393133  1
  O  O8  1  0.03001363  0.82473463  0.69587135  1
  O  O9  1  0.79308057  0.81259987  0.19393133  1
  O  O10  1  0.02490454  0.20209079  0.19291543  1
  O  O11  1  0.17526537  0.96998637  0.19587135  1
  O  O12  1  0.87119914  0.36057915  0.63528562  1
  O  O13  1  0.48378421  0.12706760  0.64171550  1
  O  O14  1  0.65260562  0.53264869  0.64508995  1
  O  O15  1  0.87293240  0.51621579  0.14171550  1
  O  O16  1  0.63942085  0.12880086  0.13528562  1
  O  O17  1  0.46735131  0.34739438  0.14508995  1
  O  O18  1  0.46603145  0.30586566  0.03373630  1
  O  O19  1  0.85254496  0.53762432  0.02367556  1
  O  O20  1  0.69318338  0.15129996  0.02491767  1
  O  O21  1  0.46237568  0.14745504  0.52367556  1
  O  O22  1  0.69413434  0.53396855  0.53373630  1
  O  O23  1  0.84870004  0.30681662  0.52491767  1
  O  O24  1  0.53127461  0.68411021  0.96820341  1
  O  O25  1  0.13368630  0.45036715  0.97798871  1
  O  O26  1  0.30932535  0.85000590  0.97682952  1
  O  O27  1  0.54963285  0.86631370  0.47798871  1
  O  O28  1  0.31588979  0.46872539  0.46820341  1
  O  O29  1  0.14999410  0.69067465  0.47682952  1
  O  O30  1  0.13191926  0.64071562  0.35943782  1
  O  O31  1  0.51205913  0.86561393  0.36654155  1
  O  O32  1  0.35720987  0.47735505  0.35707249  1
  O  O33  1  0.13438607  0.48794087  0.86654155  1
  O  O34  1  0.35928438  0.86808074  0.85943782  1
  O  O35  1  0.52264495  0.64279013  0.85707249  1
  O  O36  1  0.02418834  0.83972589  0.41274257  1
  O  O37  1  0.81159991  0.99744384  0.41427664  1
  O  O38  1  0.17678996  0.19538420  0.41256685  1
  O  O39  1  0.00255616  0.18840009  0.91427664  1
  O  O40  1  0.16027411  0.97581166  0.91274257  1
  O  O41  1  0.80461580  0.82321004  0.91256685  1
  O  O42  1  0.96274095  0.16278453  0.58782556  1
  O  O43  1  0.17346620  0.00594561  0.58645991  1
  O  O44  1  0.83436801  0.80765712  0.58835677  1
  O  O45  1  0.99405439  0.82653380  0.08645991  1
  O  O46  1  0.83721547  0.03725905  0.08782556  1
  O  O47  1  0.19234288  0.16563199  0.08835677  1
  O  O48  1  0.66851066  0.15920631  0.74847424  1
  O  O49  1  0.47707068  0.32377245  0.74474908  1
  O  O50  1  0.83796424  0.53369626  0.74483257  1
  O  O51  1  0.67622755  0.52292932  0.24474908  1
  O  O52  1  0.84079369  0.33148934  0.24847424  1
  O  O53  1  0.46630374  0.16203576  0.24483257  1
  O  O54  1  0.64839224  0.50552157  0.92025336  1
  O  O55  1  0.86000198  0.36430561  0.92051273  1
  O  O56  1  0.51168455  0.14920833  0.92101073  1
  O  O57  1  0.63569439  0.13999802  0.42051273  1
  O  O58  1  0.49447843  0.35160776  0.42025336  1
  O  O59  1  0.85079167  0.48831545  0.42101073  1
  O  O60  1  0.34341574  0.48379294  0.07979962  1
  O  O61  1  0.15552845  0.65122945  0.08149531  1
  O  O62  1  0.51384465  0.86270329  0.07684541  1
  O  O63  1  0.34877055  0.84447155  0.58149531  1
  O  O64  1  0.51620706  0.65658426  0.57979962  1
  O  O65  1  0.13729671  0.48615535  0.57684541  1
  O  O66  1  0.30867748  0.83762129  0.25519803  1
  O  O67  1  0.52626010  0.68953067  0.25455772  1
  O  O68  1  0.17892960  0.48690539  0.25302506  1
  O  O69  1  0.31046933  0.47373990  0.75455772  1
  O  O70  1  0.16237871  0.69132252  0.75519803  1
  O  O71  1  0.51309461  0.82107040  0.75302506  1
loop_
_geom_bond_atom_site_label_1
_geom_bond_atom_site_label_2
_geom_bond_distance
_geom_bond_site_symmetry_2
Na0 O36 2.388102 1_555
Na0 O43 2.524706 1_565
Na0 O38 2.543733 1_565
Na0 O37 2.548022 1_455
Na0 O44 2.634838 1_455
Na0 O42 2.716870 1_465
Na1 O40 2.388102 1_555
Na1 O45 2.524706 1_456
Na1 O41 2.543733 1_455
Na1 O39 2.548022 1_565
Na1 O47 2.634838 1_566
Na1 O46 2.716870 1_466
Na2 O48 2.360296 1_555
Na2 O56 2.546797 1_555
Na2 O49 2.571566 1_555
Na2 O50 2.595019 1_555
Na2 O55 2.601647 1_555
Na2 O54 2.681519 1_555
Na3 O52 2.360296 1_555
Na3 O59 2.546797 1_555
Na3 O51 2.571566 1_555
Na3 O53 2.595019 1_555
Na3 O57 2.601647 1_555
Na3 O58 2.681519 1_555
Na4 O61 2.482907 1_555
Na4 O62 2.493293 1_555
Na4 O60 2.508795 1_555
Na4 O67 2.574227 1_555
Na4 O68 2.629166 1_555
Na4 O66 2.704788 1_555
Na5 O63 2.482907 1_555
Na5 O65 2.493293 1_555
Na5 O64 2.508795 1_555
Na5 O69 2.574227 1_555
Na5 O71 2.629166 1_555
Na5 O70 2.704788 1_555
Na6 O53 2.420103 1_555
Na6 O68 2.453943 1_555
Na6 O51 2.478194 1_555
Na6 O17 2.486447 1_555
Na6 O67 2.601323 1_555
Na6 O32 2.724968 1_555
Na6 O10 2.905788 1_555
Na6 O0 3.013982 1_555
Na7 O52 2.339743 1_555
Na7 O66 2.533353 1_655
Na7 O51 2.539204 1_555
Na7 O68 2.591045 1_655
Na7 O15 2.591601 1_555
Na7 O30 2.806776 1_655
Na7 O11 2.922605 1_655
Na7 O1 2.932203 1_555
Na8 O50 2.420103 1_555
Na8 O71 2.453943 1_555
Na8 O49 2.478194 1_555
Na8 O14 2.486447 1_555
Na8 O69 2.601323 1_555
Na8 O35 2.724968 1_555
Na8 O6 2.905788 1_555
Na8 O4 3.013982 1_555
Na9 O48 2.339743 1_555
Na9 O70 2.533353 1_545
Na9 O49 2.539204 1_555
Na9 O71 2.591045 1_545
Na9 O13 2.591601 1_555
Na9 O34 2.806776 1_545
Na9 O8 2.922605 1_545
Na9 O3 2.932203 1_555
Na10 O43 2.423909 1_565
Na10 O63 2.433346 1_555
Na10 O65 2.502849 1_555
Na10 O29 2.515705 1_555
Na10 O44 2.516734 1_455
Na10 O8 2.888142 1_555
Na10 O22 2.903539 1_455
Na10 O12 2.956256 1_455
Na11 O63 2.402323 1_555
Na11 O64 2.424243 1_555
Na11 O42 2.481003 1_565
Na11 O27 2.569052 1_555
Na11 O44 2.670039 1_555
Na11 O6 2.747373 1_555
Na11 O13 2.902173 1_565
Na12 O45 2.423909 1_455
Na12 O61 2.433346 1_555
Na12 O62 2.502849 1_555
Na12 O26 2.515705 1_554
Na12 O47 2.516734 1_565
Na12 O11 2.888142 1_555
Na12 O18 2.903539 1_565
Na12 O16 2.956256 1_565
Na13 O61 2.402323 1_555
Na13 O60 2.424243 1_555
Na13 O46 2.481003 1_455
Na13 O25 2.569052 1_554
Na13 O47 2.670039 1_555
Na13 O10 2.747373 1_555
Na13 O15 2.902173 1_455
Na14 O40 2.381581 1_655
Na14 O55 2.482610 1_555
Na14 O41 2.511973 1_555
Na14 O54 2.578904 1_555
Na14 O19 2.637821 1_556
Na14 O4 2.732865 1_555
Na14 O26 2.927410 1_655
Na14 O33 2.976551 1_655
Na15 O39 2.414214 1_655
Na15 O56 2.453137 1_555
Na15 O5 2.466827 1_555
Na15 O41 2.484256 1_545
Na15 O55 2.675937 1_555
Na15 O20 2.831052 1_556
Na15 O34 2.886717 1_545
Na15 O24 2.991175 1_545
Na16 O37 2.414213 1_545
Na16 O59 2.453137 1_555
Na16 O2 2.466827 1_555
Na16 O38 2.484256 1_655
Na16 O57 2.675937 1_555
Na16 O23 2.831052 1_555
Na16 O30 2.886717 1_655
Na16 O28 2.991175 1_655
Na17 O36 2.381581 1_545
Na17 O57 2.482610 1_555
Na17 O38 2.511973 1_555
Na17 O58 2.578904 1_555
Na17 O21 2.637821 1_555
Na17 O0 2.732865 1_555
Na17 O29 2.927410 1_545
Na17 O31 2.976551 1_545
Hf0 O6 2.023798 1_445
Hf0 O7 2.026948 1_555
Hf0 O43 2.064876 1_555
Hf0 O8 2.095125 1_545
Hf0 O42 2.115828 1_455
Hf0 O44 2.159471 1_445
Hf1 O10 2.023798 1_665
Hf1 O9 2.026948 1_555
Hf1 O45 2.064876 1_555
Hf1 O11 2.095125 1_655
Hf1 O46 2.115828 1_565
Hf1 O47 2.159471 1_665
Hf2 O19 2.017377 1_556
Hf2 O18 2.035773 1_556
Hf2 O56 2.069043 1_555
Hf2 O20 2.097094 1_556
Hf2 O54 2.100896 1_555
Hf2 O55 2.168855 1_555
Hf3 O21 2.017377 1_555
Hf3 O22 2.035773 1_555
Hf3 O59 2.069043 1_555
Hf3 O23 2.097094 1_555
Hf3 O58 2.100896 1_555
Hf3 O57 2.168855 1_555
Hf4 O30 1.993953 1_555
Hf4 O68 2.066983 1_555
Hf4 O31 2.077843 1_555
Hf4 O32 2.089047 1_555
Hf4 O66 2.129901 1_555
Hf4 O67 2.139604 1_555
Hf5 O34 1.993953 1_555
Hf5 O71 2.066983 1_555
Hf5 O33 2.077843 1_555
Hf5 O35 2.089047 1_555
Hf5 O70 2.129901 1_555
Hf5 O69 2.139604 1_555
O0 P0 1.533570 1_555
O0 Sc0 2.107431 1_445
O1 P1 1.528190 1_555
O1 Sc0 2.046371 1_555
O2 Si0 1.620642 1_655
O2 Sc0 2.022169 1_545
O3 P2 1.528190 1_555
O3 Sc1 2.046371 1_555
O4 P3 1.533570 1_555
O4 Sc1 2.107431 1_665
O5 Si1 1.620642 1_545
O5 Sc1 2.022169 1_655
O6 Si1 1.658486 1_555
O7 P2 1.561166 1_555
O8 P3 1.572890 1_455
O9 P1 1.561166 1_555
O10 Si0 1.658486 1_555
O11 P0 1.572890 1_565
O12 P4 1.528360 1_555
O12 Sc2 2.047793 1_555
O13 Si2 1.631307 1_555
O13 Sc2 1.991593 1_555
O14 P5 1.526734 1_555
O14 Sc2 2.163234 1_555
O15 Si3 1.631307 1_555
O15 Sc3 1.991593 1_555
O16 P6 1.528360 1_555
O16 Sc3 2.047793 1_555
O17 P7 1.526734 1_555
O17 Sc3 2.163234 1_555
O18 P7 1.569409 1_555
O19 Si3 1.651895 1_555
O20 P6 1.570194 1_555
O21 Si2 1.651895 1_555
O22 P5 1.569409 1_555
O23 P4 1.570194 1_555
O24 P8 1.528404 1_555
O24 Sc4 2.060159 1_556
O25 P9 1.532550 1_555
O25 Sc4 2.104063 1_556
O26 Si4 1.636558 1_555
O26 Sc4 2.003893 1_556
O27 P10 1.532550 1_555
O27 Sc5 2.104063 1_555
O28 P11 1.528404 1_555
O28 Sc5 2.060159 1_555
O29 Si5 1.636558 1_555
O29 Sc5 2.003893 1_555
O30 Si5 1.665104 1_555
O31 P10 1.552978 1_555
O32 P11 1.559843 1_555
O33 P9 1.552978 1_555
O34 Si4 1.665104 1_555
O35 P8 1.559843 1_555
O36 Si5 1.624118 1_555
O36 Sc0 2.087124 1_455
O37 P10 1.538378 1_555
O37 Sc0 2.158776 1_555
O38 P11 1.544639 1_555
O38 Sc0 2.234052 1_445
O39 P9 1.538377 1_555
O39 Sc1 2.158776 1_555
O40 Si4 1.624118 1_555
O40 Sc1 2.087124 1_565
O41 P8 1.544639 1_555
O41 Sc1 2.234052 1_665
O42 P4 1.563090 1_555
O43 Si2 1.647389 1_555
O44 P5 1.577289 1_555
O45 Si3 1.647389 1_555
O46 P6 1.563090 1_555
O47 P7 1.577289 1_555
O48 Si1 1.631877 1_545
O48 Sc2 2.070825 1_555
O49 P2 1.545694 1_555
O49 Sc2 2.181693 1_555
O50 P3 1.536165 1_555
O50 Sc2 2.204869 1_555
O51 P1 1.545694 1_555
O51 Sc3 2.181693 1_555
O52 Si0 1.631877 1_655
O52 Sc3 2.070825 1_555
O53 P0 1.536165 1_555
O53 Sc3 2.204869 1_555
O54 P8 1.564789 1_555
O55 P9 1.577941 1_655
O56 Si4 1.648921 1_545
O57 P10 1.577941 1_545
O58 P11 1.564789 1_555
O59 Si5 1.648921 1_655
O60 P7 1.529301 1_555
O60 Sc4 2.211259 1_555
O61 Si3 1.645957 1_455
O61 Sc4 2.101990 1_555
O62 P6 1.530500 1_565
O62 Sc4 2.159123 1_555
O63 Si2 1.645957 1_565
O63 Sc5 2.101990 1_555
O64 P5 1.529301 1_555
O64 Sc5 2.211259 1_555
O65 P4 1.530500 1_455
O65 Sc5 2.159123 1_555
O66 P0 1.558988 1_565
O67 P1 1.547205 1_555
O68 Si0 1.675123 1_555
O69 P2 1.547205 1_555
O70 P3 1.558988 1_455
O71 Si1 1.675123 1_555
