# generated using pymatgen
data_C15S4
_symmetry_space_group_name_H-M   'P 1'
_cell_length_a   15.76385477
_cell_length_b   15.76385477
_cell_length_c   11.18867855
_cell_angle_alpha   75.38811813
_cell_angle_beta   75.38811813
_cell_angle_gamma   90.51849314
_symmetry_Int_Tables_number   1
_chemical_formula_structural   C15S4
_chemical_formula_sum   'C120 S32'
_cell_volume   2595.57658432
_cell_formula_units_Z   8
loop_
 _symmetry_equiv_pos_site_id
 _symmetry_equiv_pos_as_xyz
  1  'x, y, z'
loop_
 _atom_site_type_symbol
 _atom_site_label
 _atom_site_symmetry_multiplicity
 _atom_site_fract_x
 _atom_site_fract_y
 _atom_site_fract_z
 _atom_site_occupancy
  C  C0  1  0.74713300  0.42514400  0.64584800  1
  C  C1  1  0.57485600  0.25286700  0.85415200  1
  C  C2  1  0.25286700  0.57485600  0.35415200  1
  C  C3  1  0.42514400  0.74713300  0.14584800  1
  C  C4  1  0.82222600  0.43532300  0.69559300  1
  C  C5  1  0.56467700  0.17777400  0.80440700  1
  C  C6  1  0.17777400  0.56467700  0.30440700  1
  C  C7  1  0.43532300  0.82222600  0.19559300  1
  C  C8  1  0.79318400  0.40625600  0.83439600  1
  C  C9  1  0.59374400  0.20681600  0.66560400  1
  C  C10  1  0.20681600  0.59374400  0.16560400  1
  C  C11  1  0.40625600  0.79318400  0.33439600  1
  C  C12  1  0.70013900  0.37819500  0.87059600  1
  C  C13  1  0.62180500  0.29986100  0.62940400  1
  C  C14  1  0.29986100  0.62180500  0.12940400  1
  C  C15  1  0.37819500  0.70013900  0.37059600  1
  C  C16  1  0.67162100  0.38984300  0.75402800  1
  C  C17  1  0.61015700  0.32837900  0.74597200  1
  C  C18  1  0.32837900  0.61015700  0.24597200  1
  C  C19  1  0.38984300  0.67162100  0.25402800  1
  C  C20  1  0.96345000  0.37053400  0.70320400  1
  C  C21  1  0.62946600  0.03655000  0.79679600  1
  C  C22  1  0.03655000  0.62946600  0.29679600  1
  C  C23  1  0.37053400  0.96345000  0.20320400  1
  C  C24  1  0.90576500  0.41779800  0.63117700  1
  C  C25  1  0.58220200  0.09423500  0.86882300  1
  C  C26  1  0.09423500  0.58220200  0.36882300  1
  C  C27  1  0.41779800  0.90576500  0.13117700  1
  C  C28  1  0.91737400  0.38937600  0.51460800  1
  C  C29  1  0.61062400  0.08262600  0.98539200  1
  C  C30  1  0.08262600  0.61062400  0.48539200  1
  C  C31  1  0.38937600  0.91737400  0.01460800  1
  C  C32  1  0.98226700  0.32447700  0.51463500  1
  C  C33  1  0.67552300  0.01773300  0.98536500  1
  C  C34  1  0.01773300  0.67552300  0.48536500  1
  C  C35  1  0.32447700  0.98226700  0.01463500  1
  C  C36  1  0.01074600  0.31283700  0.63116800  1
  C  C37  1  0.68716300  0.98925400  0.86883200  1
  C  C38  1  0.98925400  0.68716300  0.36883200  1
  C  C39  1  0.31283700  0.01074600  0.13116800  1
  C  C40  1  0.93547000  0.34254300  0.83690900  1
  C  C41  1  0.65745700  0.06453000  0.66309100  1
  C  C42  1  0.06453000  0.65745700  0.16309100  1
  C  C43  1  0.34254300  0.93547000  0.33690900  1
  C  C44  1  0.95375800  0.25582700  0.90382700  1
  C  C45  1  0.74417300  0.04624200  0.59617300  1
  C  C46  1  0.04624200  0.74417300  0.09617300  1
  C  C47  1  0.25582700  0.95375800  0.40382700  1
  C  C48  1  0.87833200  0.22050100  0.01209300  1
  C  C49  1  0.77949900  0.12166800  0.48790700  1
  C  C50  1  0.12166800  0.77949900  0.98790700  1
  C  C51  1  0.22050100  0.87833200  0.51209300  1
  C  C52  1  0.81343200  0.28537400  0.01202400  1
  C  C53  1  0.71462600  0.18656800  0.48797600  1
  C  C54  1  0.18656800  0.71462600  0.98797600  1
  C  C55  1  0.28537400  0.81343200  0.51202400  1
  C  C56  1  0.84875900  0.36075400  0.90374900  1
  C  C57  1  0.63924600  0.15124100  0.59625100  1
  C  C58  1  0.15124100  0.63924600  0.09625100  1
  C  C59  1  0.36075400  0.84875900  0.40374900  1
  C  C60  1  0.99925200  0.20028200  0.83441200  1
  C  C61  1  0.79971800  0.00074800  0.66558800  1
  C  C62  1  0.00074800  0.79971800  0.16558800  1
  C  C63  1  0.20028200  0.99925200  0.33441200  1
  C  C64  1  0.02830400  0.22930100  0.69555700  1
  C  C65  1  0.77069900  0.97169600  0.80444300  1
  C  C66  1  0.97169600  0.77069900  0.30444300  1
  C  C67  1  0.22930100  0.02830400  0.19555700  1
  C  C68  1  0.01812700  0.15418300  0.64583000  1
  C  C69  1  0.84581700  0.98187300  0.85417000  1
  C  C70  1  0.98187300  0.84581700  0.35417000  1
  C  C71  1  0.15418300  0.01812700  0.14583000  1
  C  C72  1  0.98277700  0.07870700  0.75403100  1
  C  C73  1  0.92129300  0.01722300  0.74596900  1
  C  C74  1  0.01722300  0.92129300  0.24596900  1
  C  C75  1  0.07870700  0.98277700  0.25403100  1
  C  C76  1  0.97109900  0.10725500  0.87054300  1
  C  C77  1  0.89274500  0.02890100  0.62945700  1
  C  C78  1  0.02890100  0.89274500  0.12945700  1
  C  C79  1  0.10725500  0.97109900  0.37054300  1
  C  C80  1  0.89843100  0.07321400  0.97476000  1
  C  C81  1  0.92678600  0.10156900  0.52524000  1
  C  C82  1  0.10156900  0.92678600  0.02524000  1
  C  C83  1  0.07321400  0.89843100  0.47476000  1
  C  C84  1  0.99062700  0.16540500  0.53363600  1
  C  C85  1  0.83459500  0.00937300  0.96636400  1
  C  C86  1  0.00937300  0.83459500  0.46636400  1
  C  C87  1  0.16540500  0.99062700  0.03363600  1
  C  C88  1  0.97236500  0.25213000  0.46684300  1
  C  C89  1  0.74787000  0.02763500  0.03315700  1
  C  C90  1  0.02763500  0.74787000  0.53315700  1
  C  C91  1  0.25213000  0.97236500  0.96684300  1
  C  C92  1  0.89726800  0.24190800  0.41703800  1
  C  C93  1  0.75809200  0.10273200  0.08296200  1
  C  C94  1  0.10273200  0.75809200  0.58296200  1
  C  C95  1  0.24190800  0.89726800  0.91703800  1
  C  C96  1  0.86913800  0.14884800  0.45309800  1
  C  C97  1  0.85115200  0.13086200  0.04690200  1
  C  C98  1  0.13086200  0.85115200  0.54690200  1
  C  C99  1  0.14884800  0.86913800  0.95309800  1
  C  C100  1  0.74172200  0.27620900  0.45314100  1
  C  C101  1  0.72379100  0.25827800  0.04685900  1
  C  C102  1  0.25827800  0.72379100  0.54685900  1
  C  C103  1  0.27620900  0.74172200  0.95314100  1
  C  C104  1  0.83478300  0.30438500  0.41700200  1
  C  C105  1  0.69561500  0.16521700  0.08299800  1
  C  C106  1  0.16521700  0.69561500  0.58299800  1
  C  C107  1  0.30438500  0.83478300  0.91700200  1
  C  C108  1  0.84503600  0.37952300  0.46673100  1
  C  C109  1  0.62047700  0.15496400  0.03326900  1
  C  C110  1  0.15496400  0.62047700  0.53326900  1
  C  C111  1  0.37952300  0.84503600  0.96673100  1
  C  C112  1  0.75830600  0.39772100  0.53362900  1
  C  C113  1  0.60227900  0.24169400  0.96637100  1
  C  C114  1  0.24169400  0.60227900  0.46637100  1
  C  C115  1  0.39772100  0.75830600  0.03362900  1
  C  C116  1  0.66608400  0.30557000  0.97480800  1
  C  C117  1  0.69443000  0.33391600  0.52519200  1
  C  C118  1  0.33391600  0.69443000  0.02519200  1
  C  C119  1  0.30557000  0.66608400  0.47480800  1
  S  S0  1  0.73082200  0.87873600  0.37014000  1
  S  S1  1  0.12126400  0.26917800  0.12986000  1
  S  S2  1  0.26917800  0.12126400  0.62986000  1
  S  S3  1  0.87873600  0.73082200  0.87014000  1
  S  S4  1  0.72453700  0.77863000  0.28364700  1
  S  S5  1  0.22137000  0.27546300  0.21635300  1
  S  S6  1  0.27546300  0.22137000  0.71635300  1
  S  S7  1  0.77863000  0.72453700  0.78364700  1
  S  S8  1  0.72634400  0.65997800  0.41300200  1
  S  S9  1  0.34002200  0.27365600  0.08699800  1
  S  S10  1  0.27365600  0.34002200  0.58699800  1
  S  S11  1  0.65997800  0.72634400  0.91300200  1
  S  S12  1  0.59905900  0.60640100  0.49912300  1
  S  S13  1  0.39359900  0.40094100  0.00087700  1
  S  S14  1  0.40094100  0.39359900  0.50087700  1
  S  S15  1  0.60640100  0.59905900  0.99912300  1
  S  S16  1  0.55766800  0.63569600  0.67304200  1
  S  S17  1  0.36430400  0.44233200  0.82695800  1
  S  S18  1  0.44233200  0.36430400  0.32695800  1
  S  S19  1  0.63569600  0.55766800  0.17304200  1
  S  S20  1  0.48238500  0.74200400  0.65371300  1
  S  S21  1  0.25799600  0.51761500  0.84628700  1
  S  S22  1  0.51761500  0.25799600  0.34628700  1
  S  S23  1  0.74200400  0.48238500  0.15371300  1
  S  S24  1  0.55865900  0.85588100  0.62641700  1
  S  S25  1  0.14411900  0.44134100  0.87358300  1
  S  S26  1  0.44134100  0.14411900  0.37358300  1
  S  S27  1  0.85588100  0.55865900  0.12641700  1
  S  S28  1  0.60549700  0.91525600  0.43329600  1
  S  S29  1  0.08474400  0.39450300  0.06670400  1
  S  S30  1  0.39450300  0.08474400  0.56670400  1
  S  S31  1  0.91525600  0.60549700  0.93329600  1
loop_
_geom_bond_atom_site_label_1
_geom_bond_atom_site_label_2
_geom_bond_distance
_geom_bond_site_symmetry_2
C0 C112 1.399300 1_555
C0 C4 1.452875 1_555
C0 C16 1.453584 1_555
C1 C113 1.399300 1_555
C1 C5 1.452875 1_555
C1 C17 1.453584 1_555
C2 C6 1.452875 1_555
C3 C7 1.452875 1_555
C4 C8 1.452539 1_555
C5 C9 1.452539 1_555
C10 C58 1.399170 1_555
C10 C14 1.452308 1_555
C10 C6 1.452539 1_555
C11 C59 1.399170 1_555
C11 C15 1.452308 1_555
C11 C7 1.452539 1_555
C12 C8 1.452308 1_555
C12 C16 1.453737 1_555
C13 C9 1.452308 1_555
C13 C17 1.453737 1_555
C14 C18 1.453737 1_555
C15 C19 1.453737 1_555
C16 C17 1.398868 1_555
C18 C19 1.398868 1_555
C18 C2 1.453584 1_555
C19 C3 1.453584 1_555
C20 C40 1.399187 1_555
C20 C24 1.452764 1_555
C20 C36 1.453160 1_655
C21 C41 1.399187 1_555
C21 C25 1.452764 1_555
C21 C37 1.453160 1_545
C22 C42 1.399187 1_555
C22 C26 1.452764 1_555
C22 C38 1.453160 1_455
C23 C43 1.399187 1_555
C23 C27 1.452764 1_555
C23 C39 1.453160 1_565
C24 C4 1.399343 1_555
C24 C28 1.452996 1_555
C25 C5 1.399343 1_555
C25 C29 1.452996 1_555
C26 C6 1.399343 1_555
C26 C30 1.452996 1_555
C27 C7 1.399343 1_555
C27 C31 1.452996 1_555
C28 C32 1.453288 1_555
C29 C33 1.453288 1_555
C30 C34 1.453288 1_555
C31 C35 1.453288 1_555
C32 C88 1.399124 1_555
C32 C36 1.453050 1_655
C33 C89 1.399124 1_556
C33 C37 1.453050 1_545
C34 C90 1.399124 1_555
C34 C38 1.453050 1_455
C35 C91 1.399124 1_554
C35 C39 1.453050 1_565
C36 C64 1.399380 1_555
C37 C65 1.399380 1_555
C38 C66 1.399380 1_555
C39 C67 1.399380 1_555
C40 C56 1.452505 1_555
C40 C44 1.453263 1_555
C41 C57 1.452505 1_555
C41 C45 1.453263 1_555
C42 C58 1.452505 1_555
C42 C46 1.453263 1_555
C43 C59 1.452505 1_555
C43 C47 1.453263 1_555
C44 C60 1.399163 1_555
C44 C48 1.453339 1_556
C45 C61 1.399163 1_555
C45 C49 1.453339 1_555
C46 C62 1.399163 1_555
C46 C50 1.453339 1_554
C47 C63 1.399163 1_555
C47 C51 1.453339 1_555
C48 C97 1.399704 1_555
C48 C52 1.453075 1_555
C49 C96 1.399704 1_555
C49 C53 1.453075 1_555
C50 C99 1.399704 1_555
C50 C54 1.453075 1_555
C51 C98 1.399704 1_555
C51 C55 1.453075 1_555
C52 C56 1.452957 1_554
C53 C57 1.452957 1_555
C54 C58 1.452957 1_556
C55 C59 1.452957 1_555
C56 C8 1.399170 1_555
C57 C9 1.399170 1_555
C60 C76 1.452410 1_555
C60 C64 1.453043 1_655
C61 C77 1.452410 1_555
C61 C65 1.453043 1_545
C62 C78 1.452410 1_555
C62 C66 1.453043 1_455
C63 C79 1.452410 1_555
C63 C67 1.453043 1_565
C64 C68 1.453104 1_555
C65 C69 1.453104 1_555
C66 C70 1.453104 1_555
C67 C71 1.453104 1_555
C68 C84 1.399612 1_455
C68 C72 1.453493 1_455
C69 C85 1.399612 1_565
C69 C73 1.453493 1_565
C70 C86 1.399612 1_655
C70 C74 1.453493 1_655
C71 C87 1.399612 1_545
C71 C75 1.453493 1_545
C72 C73 1.399339 1_555
C72 C76 1.453354 1_555
C73 C77 1.453354 1_555
C74 C75 1.399339 1_555
C74 C78 1.453354 1_555
C75 C79 1.453354 1_555
C76 C80 1.399679 1_555
C77 C81 1.399679 1_555
C78 C82 1.399679 1_555
C79 C83 1.399679 1_555
C80 C85 1.453043 1_555
C80 C97 1.453156 1_556
C81 C84 1.453043 1_555
C81 C96 1.453156 1_555
C82 C87 1.453043 1_555
C82 C99 1.453156 1_554
C83 C86 1.453043 1_555
C83 C98 1.453156 1_555
C84 C88 1.452783 1_555
C85 C89 1.452783 1_556
C86 C90 1.452783 1_555
C87 C91 1.452783 1_554
C88 C92 1.453482 1_555
C89 C93 1.453482 1_555
C90 C94 1.453482 1_555
C91 C95 1.453482 1_555
C92 C96 1.452858 1_555
C93 C97 1.452858 1_555
C94 C98 1.452858 1_555
C95 C99 1.452858 1_555
C100 C53 1.399419 1_555
C100 C104 1.452989 1_555
C100 C117 1.453355 1_555
C101 C52 1.399419 1_555
C101 C105 1.452989 1_555
C101 C116 1.453355 1_554
C102 C55 1.399419 1_555
C102 C106 1.452989 1_555
C102 C119 1.453355 1_555
C103 C54 1.399419 1_555
C103 C107 1.452989 1_555
C103 C118 1.453355 1_556
C104 C92 1.399206 1_555
C104 C108 1.453644 1_555
C105 C93 1.399206 1_555
C105 C109 1.453644 1_555
C106 C94 1.399206 1_555
C106 C110 1.453644 1_555
C107 C95 1.399206 1_555
C107 C111 1.453644 1_555
C108 C28 1.399426 1_555
C108 C112 1.452892 1_555
C109 C29 1.399426 1_554
C109 C113 1.452892 1_554
C110 C30 1.399426 1_555
C110 C114 1.452892 1_555
C111 C31 1.399426 1_556
C111 C115 1.452892 1_556
C112 C117 1.453278 1_555
C113 C116 1.453278 1_555
C114 C2 1.399300 1_555
C114 C119 1.453278 1_555
C115 C3 1.399300 1_555
C115 C118 1.453278 1_555
C116 C12 1.399276 1_555
C117 C13 1.399276 1_555
C118 C14 1.399276 1_555
C119 C15 1.399276 1_555
S0 S4 2.062197 1_555
S0 S28 2.062827 1_555
S1 S5 2.062197 1_555
S1 S29 2.062827 1_555
S2 S6 2.062197 1_555
S2 S30 2.062827 1_555
S3 S7 2.062197 1_555
S3 S31 2.062827 1_555
S4 S8 2.061530 1_555
S5 S9 2.061530 1_555
S10 S6 2.061530 1_555
S10 S14 2.061816 1_555
S11 S7 2.061530 1_555
S11 S15 2.061816 1_555
S12 S16 2.060063 1_555
S12 S8 2.061816 1_555
S13 S17 2.060063 1_554
S13 S9 2.061816 1_555
S14 S18 2.060063 1_555
S15 S19 2.060063 1_556
S16 S20 2.060622 1_555
S17 S21 2.060622 1_555
S18 S22 2.060622 1_555
S19 S23 2.060622 1_555
S20 S24 2.064110 1_555
S21 S25 2.064110 1_555
S22 S26 2.064110 1_555
S23 S27 2.064110 1_555
S24 S28 2.062107 1_555
S25 S29 2.062107 1_556
S26 S30 2.062107 1_555
S27 S31 2.062107 1_554
