# generated using pymatgen
data_Ba3In2O6
_symmetry_space_group_name_H-M   'P 1'
_cell_length_a   11.31682409
_cell_length_b   11.31682409
_cell_length_c   11.31682409
_cell_angle_alpha   158.53736687
_cell_angle_beta   158.53736687
_cell_angle_gamma   30.53569649
_symmetry_Int_Tables_number   1
_chemical_formula_structural   Ba3In2O6
_chemical_formula_sum   'Ba3 In2 O6'
_cell_volume   193.91205190
_cell_formula_units_Z   1
loop_
 _symmetry_equiv_pos_site_id
 _symmetry_equiv_pos_as_xyz
  1  'x, y, z'
loop_
 _atom_site_type_symbol
 _atom_site_label
 _atom_site_symmetry_multiplicity
 _atom_site_fract_x
 _atom_site_fract_y
 _atom_site_fract_z
 _atom_site_occupancy
  Ba  Ba0  1  0.68286064  0.68286064  0.00000000  1
  Ba  Ba1  1  0.31713936  0.31713936  0.00000000  1
  Ba  Ba2  1  0.50000000  0.50000000  0.00000000  1
  In  In0  1  0.89752362  0.89752362  -0.00000000  1
  In  In1  1  0.10247638  0.10247638  0.00000000  1
  O  O0  1  0.80207069  0.80207069  0.00000000  1
  O  O1  1  0.19792931  0.19792931  -0.00000000  1
  O  O2  1  0.41582147  0.91582147  0.50000000  1
  O  O3  1  0.91582147  0.41582147  0.50000000  1
  O  O4  1  0.58417853  0.08417853  0.50000000  1
  O  O5  1  0.08417853  0.58417853  0.50000000  1
loop_
_geom_bond_atom_site_label_1
_geom_bond_atom_site_label_2
_geom_bond_distance
_geom_bond_site_symmetry_2
Ba0 O0 2.602928 1_555
Ba0 O1 2.998187 1_565
Ba0 O1 2.998187 1_655
Ba0 O1 2.998187 1_666
Ba0 O1 2.998187 1_554
Ba0 O4 3.013832 1_565
Ba0 O5 3.013832 1_655
Ba0 O5 3.013832 1_554
Ba0 O4 3.013832 1_554
Ba1 O1 2.602928 1_555
Ba1 O0 2.998187 1_545
Ba1 O0 2.998187 1_455
Ba1 O0 2.998187 1_556
Ba1 O0 2.998187 1_444
Ba1 O2 3.013832 1_544
Ba1 O2 3.013832 1_555
Ba1 O3 3.013832 1_555
Ba1 O3 3.013832 1_454
Ba2 O3 2.796204 1_555
Ba2 O3 2.796204 1_454
Ba2 O2 2.796204 1_544
Ba2 O5 2.796204 1_655
Ba2 O4 2.796204 1_554
Ba2 O5 2.796204 1_554
Ba2 O4 2.796204 1_565
Ba2 O2 2.796204 1_555
In0 O0 2.084196 1_555
In0 O2 2.144775 1_554
In0 O2 2.144775 1_655
In0 O3 2.144775 1_565
In0 O3 2.144775 1_554
In1 O1 2.084196 1_555
In1 O4 2.144775 1_555
In1 O5 2.144775 1_555
In1 O4 2.144775 1_454
In1 O5 2.144775 1_544
