# generated using pymatgen
data_In2(TeO3)3
_symmetry_space_group_name_H-M   'P 1'
_cell_length_a   5.47474099
_cell_length_b   8.14142989
_cell_length_c   18.31260433
_cell_angle_alpha   90.00000000
_cell_angle_beta   90.00000000
_cell_angle_gamma   90.00000000
_symmetry_Int_Tables_number   1
_chemical_formula_structural   In2(TeO3)3
_chemical_formula_sum   'In8 Te12 O36'
_cell_volume   816.23342780
_cell_formula_units_Z   4
loop_
 _symmetry_equiv_pos_site_id
 _symmetry_equiv_pos_as_xyz
  1  'x, y, z'
loop_
 _atom_site_type_symbol
 _atom_site_label
 _atom_site_symmetry_multiplicity
 _atom_site_fract_x
 _atom_site_fract_y
 _atom_site_fract_z
 _atom_site_occupancy
  In  In0  1  0.70623935  0.68692122  0.06307359  1
  In  In1  1  0.79376065  0.18692122  0.43692641  1
  In  In2  1  0.20623935  0.81307878  0.93692641  1
  In  In3  1  0.29376065  0.31307878  0.93692641  1
  In  In4  1  0.70623935  0.68692122  0.43692641  1
  In  In5  1  0.29376065  0.31307878  0.56307359  1
  In  In6  1  0.20623935  0.81307878  0.56307359  1
  In  In7  1  0.79376065  0.18692122  0.06307359  1
  Te  Te0  1  0.72783017  0.15298883  0.25000000  1
  Te  Te1  1  0.81410290  0.13501575  0.86901594  1
  Te  Te2  1  0.18589710  0.86498425  0.13098406  1
  Te  Te3  1  0.22783017  0.34701117  0.75000000  1
  Te  Te4  1  0.68589710  0.63501575  0.86901594  1
  Te  Te5  1  0.68589710  0.63501575  0.63098406  1
  Te  Te6  1  0.31410290  0.36498425  0.36901594  1
  Te  Te7  1  0.18589710  0.86498425  0.36901594  1
  Te  Te8  1  0.31410290  0.36498425  0.13098406  1
  Te  Te9  1  0.81410290  0.13501575  0.63098406  1
  Te  Te10  1  0.27216983  0.84701117  0.75000000  1
  Te  Te11  1  0.77216983  0.65298883  0.25000000  1
  O  O0  1  0.45813597  0.15345584  0.12486323  1
  O  O1  1  0.37473830  0.82296365  0.04179262  1
  O  O2  1  0.04186403  0.65345584  0.37513677  1
  O  O3  1  0.04186403  0.65345584  0.12486323  1
  O  O4  1  0.37473830  0.82296365  0.45820738  1
  O  O5  1  0.04998768  0.79108537  0.67367502  1
  O  O6  1  0.94565371  0.85550977  0.25000000  1
  O  O7  1  0.45813597  0.15345584  0.37513677  1
  O  O8  1  0.54186403  0.84654416  0.62486323  1
  O  O9  1  0.95813597  0.34654416  0.62486323  1
  O  O10  1  0.59091787  0.43452651  0.42778465  1
  O  O11  1  0.40908213  0.56547349  0.57221535  1
  O  O12  1  0.45001232  0.29108537  0.67367502  1
  O  O13  1  0.59091787  0.43452651  0.07221535  1
  O  O14  1  0.05434629  0.14449023  0.75000000  1
  O  O15  1  0.54186403  0.84654416  0.87513677  1
  O  O16  1  0.09091787  0.06547349  0.57221535  1
  O  O17  1  0.62526170  0.17703635  0.95820738  1
  O  O18  1  0.44565371  0.64449023  0.75000000  1
  O  O19  1  0.62526170  0.17703635  0.54179262  1
  O  O20  1  0.12526170  0.32296365  0.04179262  1
  O  O21  1  0.09091787  0.06547349  0.92778465  1
  O  O22  1  0.87473830  0.67703635  0.95820738  1
  O  O23  1  0.45001232  0.29108537  0.82632498  1
  O  O24  1  0.40908213  0.56547349  0.92778465  1
  O  O25  1  0.54998768  0.70891463  0.32632498  1
  O  O26  1  0.95813597  0.34654416  0.87513677  1
  O  O27  1  0.04998768  0.79108537  0.82632498  1
  O  O28  1  0.95001232  0.20891463  0.32632498  1
  O  O29  1  0.55434629  0.35550977  0.25000000  1
  O  O30  1  0.12526170  0.32296365  0.45820738  1
  O  O31  1  0.95001232  0.20891463  0.17367502  1
  O  O32  1  0.90908213  0.93452651  0.07221535  1
  O  O33  1  0.87473830  0.67703635  0.54179262  1
  O  O34  1  0.90908213  0.93452651  0.42778465  1
  O  O35  1  0.54998768  0.70891463  0.17367502  1
loop_
_geom_bond_atom_site_label_1
_geom_bond_atom_site_label_2
_geom_bond_distance
_geom_bond_site_symmetry_2
In0 O22 2.131970 1_554
In0 O13 2.156168 1_555
In0 O1 2.161575 1_555
In0 O3 2.175050 1_655
In0 O35 2.205920 1_555
In0 O32 2.307587 1_555
In1 O19 2.131970 1_555
In1 O34 2.156168 1_545
In1 O30 2.161575 1_655
In1 O7 2.175050 1_555
In1 O28 2.205920 1_555
In1 O10 2.307587 1_555
In2 O1 2.131970 1_556
In2 O21 2.156168 1_565
In2 O22 2.161575 1_455
In2 O15 2.175050 1_555
In2 O27 2.205920 1_555
In2 O24 2.307587 1_555
In3 O20 2.131970 1_556
In3 O24 2.156168 1_555
In3 O17 2.161575 1_555
In3 O26 2.175050 1_455
In3 O23 2.205920 1_555
In3 O21 2.307587 1_555
In4 O33 2.131970 1_555
In4 O10 2.156168 1_555
In4 O4 2.161575 1_555
In4 O2 2.175050 1_655
In4 O25 2.205920 1_555
In4 O34 2.307587 1_555
In5 O30 2.131970 1_555
In5 O11 2.156168 1_555
In5 O19 2.161575 1_555
In5 O9 2.175050 1_455
In5 O12 2.205920 1_555
In5 O16 2.307587 1_555
In6 O4 2.131970 1_555
In6 O16 2.156168 1_565
In6 O33 2.161575 1_455
In6 O8 2.175050 1_555
In6 O5 2.205920 1_555
In6 O11 2.307587 1_555
In7 O17 2.131970 1_554
In7 O32 2.156168 1_545
In7 O20 2.161575 1_655
In7 O0 2.175050 1_555
In7 O31 2.205920 1_555
In7 O13 2.307587 1_555
O0 Te8 1.897405 1_555
O1 Te2 1.963073 1_555
O2 Te7 1.897405 1_555
O3 Te2 1.897405 1_555
O4 Te7 1.963073 1_555
O5 Te10 1.908011 1_555
O5 Te5 2.489766 1_455
O6 Te11 1.902802 1_555
O6 Te2 2.546777 1_655
O6 Te7 2.546777 1_655
O6 Te0 2.699582 1_565
O7 Te6 1.897405 1_555
O8 Te5 1.897405 1_555
O9 Te9 1.897405 1_555
O10 Te6 1.943061 1_555
O11 Te5 1.943061 1_555
O12 Te3 1.908011 1_555
O12 Te9 2.489766 1_555
O13 Te8 1.943061 1_555
O14 Te3 1.902802 1_555
O14 Te9 2.546777 1_455
O14 Te1 2.546777 1_455
O14 Te10 2.699582 1_545
O15 Te4 1.897405 1_555
O16 Te9 1.943061 1_455
O17 Te1 1.963073 1_555
O18 Te10 1.902802 1_555
O18 Te5 2.546777 1_555
O18 Te4 2.546777 1_555
O18 Te3 2.699582 1_555
O19 Te9 1.963073 1_555
O20 Te8 1.963073 1_555
O21 Te1 1.943061 1_455
O22 Te4 1.963073 1_555
O23 Te3 1.908011 1_555
O23 Te1 2.489766 1_555
O24 Te4 1.943061 1_555
O25 Te11 1.908011 1_555
O25 Te7 2.489766 1_555
O26 Te1 1.897405 1_555
O27 Te10 1.908011 1_555
O27 Te4 2.489766 1_455
O28 Te0 1.908011 1_555
O28 Te6 2.489766 1_655
O29 Te0 1.902802 1_555
O29 Te8 2.546777 1_555
O29 Te6 2.546777 1_555
O29 Te11 2.699582 1_555
O30 Te6 1.963073 1_555
O31 Te0 1.908011 1_555
O31 Te8 2.489766 1_655
O32 Te2 1.943061 1_655
O33 Te5 1.963073 1_555
O34 Te7 1.943061 1_655
O35 Te11 1.908011 1_555
O35 Te2 2.489766 1_555
