# generated using pymatgen
data_Ba3Sn2O7
_symmetry_space_group_name_H-M   'P 1'
_cell_length_a   11.22979930
_cell_length_b   11.22979930
_cell_length_c   5.88394104
_cell_angle_alpha   90.00000000
_cell_angle_beta   90.00000000
_cell_angle_gamma   149.62497040
_symmetry_Int_Tables_number   1
_chemical_formula_structural   Ba3Sn2O7
_chemical_formula_sum   'Ba6 Sn4 O14'
_cell_volume   375.20535542
_cell_formula_units_Z   2
loop_
 _symmetry_equiv_pos_site_id
 _symmetry_equiv_pos_as_xyz
  1  'x, y, z'
loop_
 _atom_site_type_symbol
 _atom_site_label
 _atom_site_symmetry_multiplicity
 _atom_site_fract_x
 _atom_site_fract_y
 _atom_site_fract_z
 _atom_site_occupancy
  Ba  Ba0  1  0.06467833  0.43509762  0.75000000  1
  Ba  Ba1  1  0.56490238  0.93532167  0.25000000  1
  Ba  Ba2  1  0.93532167  0.56490238  0.25000000  1
  Ba  Ba3  1  0.43509762  0.06467833  0.75000000  1
  Ba  Ba4  1  0.74977725  0.74977725  0.25000000  1
  Ba  Ba5  1  0.25022275  0.25022275  0.75000000  1
  Sn  Sn0  1  0.15393116  0.34586123  0.25000000  1
  Sn  Sn1  1  0.65413877  0.84606884  0.75000000  1
  Sn  Sn2  1  0.84606884  0.65413877  0.75000000  1
  Sn  Sn3  1  0.34586123  0.15393116  0.25000000  1
  O  O0  1  0.90524648  0.09475352  -0.00000000  1
  O  O1  1  0.90524648  0.09475352  0.50000000  1
  O  O2  1  0.40470564  0.59529436  0.50000000  1
  O  O3  1  0.40470564  0.59529436  -0.00000000  1
  O  O4  1  0.05745833  0.44001732  0.25000000  1
  O  O5  1  0.55998268  0.94254167  0.75000000  1
  O  O6  1  0.44001732  0.05745833  0.25000000  1
  O  O7  1  0.94254167  0.55998268  0.75000000  1
  O  O8  1  0.59529436  0.40470564  -0.00000000  1
  O  O9  1  0.59529436  0.40470564  0.50000000  1
  O  O10  1  0.09475352  0.90524648  0.50000000  1
  O  O11  1  0.09475352  0.90524648  -0.00000000  1
  O  O12  1  0.74824979  0.74824979  0.75000000  1
  O  O13  1  0.25175021  0.25175021  0.25000000  1
loop_
_geom_bond_atom_site_label_1
_geom_bond_atom_site_label_2
_geom_bond_distance
_geom_bond_site_symmetry_2
Ba0 O7 2.677131 1_455
Ba0 O2 2.850940 1_555
Ba0 O3 2.850940 1_556
Ba0 O0 2.858288 1_456
Ba0 O1 2.858288 1_455
Ba0 O5 2.936833 1_445
Ba0 O4 2.944919 1_556
Ba0 O4 2.944919 1_555
Ba0 O5 2.952988 1_555
Ba1 O6 2.677131 1_565
Ba1 O3 2.850940 1_555
Ba1 O2 2.850940 1_555
Ba1 O1 2.858288 1_565
Ba1 O0 2.858288 1_565
Ba1 O4 2.936833 1_665
Ba1 O5 2.944919 1_555
Ba1 O5 2.944919 1_554
Ba1 O4 2.952988 1_555
Ba2 O4 2.677131 1_655
Ba2 O8 2.850940 1_555
Ba2 O9 2.850940 1_555
Ba2 O10 2.858288 1_655
Ba2 O11 2.858288 1_655
Ba2 O6 2.936833 1_665
Ba2 O7 2.944919 1_554
Ba2 O7 2.944919 1_555
Ba2 O6 2.952988 1_555
Ba3 O5 2.677131 1_545
Ba3 O9 2.850940 1_555
Ba3 O8 2.850940 1_556
Ba3 O10 2.858288 1_545
Ba3 O11 2.858288 1_546
Ba3 O7 2.936833 1_445
Ba3 O6 2.944919 1_555
Ba3 O6 2.944919 1_556
Ba3 O7 2.952988 1_555
Ba4 O1 2.923960 1_565
Ba4 O10 2.923960 1_655
Ba4 O0 2.923960 1_565
Ba4 O11 2.923960 1_655
Ba4 O13 2.930362 1_555
Ba4 O2 2.930890 1_555
Ba4 O8 2.930890 1_555
Ba4 O9 2.930890 1_555
Ba4 O3 2.930890 1_555
Ba4 O12 2.941984 1_554
Ba4 O12 2.941984 1_555
Ba4 O13 2.953579 1_665
Ba5 O10 2.923960 1_545
Ba5 O0 2.923960 1_456
Ba5 O11 2.923960 1_546
Ba5 O1 2.923960 1_455
Ba5 O12 2.930362 1_555
Ba5 O8 2.930890 1_556
Ba5 O2 2.930890 1_555
Ba5 O3 2.930890 1_556
Ba5 O9 2.930890 1_555
Ba5 O13 2.941984 1_556
Ba5 O13 2.941984 1_555
Ba5 O12 2.953579 1_445
O0 Sn1 2.080021 1_544
O0 Sn0 2.080021 1_655
O1 Sn1 2.080021 1_545
O1 Sn0 2.080021 1_655
O2 Sn1 2.080770 1_555
O2 Sn0 2.080770 1_555
O3 Sn1 2.080770 1_554
O3 Sn0 2.080770 1_555
O4 Sn0 2.065968 1_555
O5 Sn1 2.065968 1_555
O6 Sn3 2.065968 1_555
O7 Sn2 2.065968 1_555
O8 Sn2 2.080770 1_554
O8 Sn3 2.080770 1_555
O9 Sn2 2.080770 1_555
O9 Sn3 2.080770 1_555
O10 Sn2 2.080021 1_455
O10 Sn3 2.080021 1_565
O11 Sn2 2.080021 1_454
O11 Sn3 2.080021 1_565
O12 Sn2 2.080087 1_555
O12 Sn1 2.080087 1_555
O13 Sn3 2.080087 1_555
O13 Sn0 2.080087 1_555
