# generated using pymatgen
data_Na2ScTa3Si2(PO6)4
_symmetry_space_group_name_H-M   'P 1'
_cell_length_a   8.80479162
_cell_length_b   8.81138180
_cell_length_c   22.90499082
_cell_angle_alpha   90.06087875
_cell_angle_beta   90.00390078
_cell_angle_gamma   119.97663190
_symmetry_Int_Tables_number   1
_chemical_formula_structural   Na2ScTa3Si2(PO6)4
_chemical_formula_sum   'Na6 Sc3 Ta9 Si6 P12 O72'
_cell_volume   1539.30869561
_cell_formula_units_Z   3
loop_
 _symmetry_equiv_pos_site_id
 _symmetry_equiv_pos_as_xyz
  1  'x, y, z'
loop_
 _atom_site_type_symbol
 _atom_site_label
 _atom_site_symmetry_multiplicity
 _atom_site_fract_x
 _atom_site_fract_y
 _atom_site_fract_z
 _atom_site_occupancy
  Na  Na0  1  0.99670614  -0.00000965  0.49383880  1
  Na  Na1  1  0.00060888  0.00022196  0.00106685  1
  Na  Na2  1  0.66760895  0.33355312  0.83176957  1
  Na  Na3  1  0.66631245  0.33296838  0.32686418  1
  Na  Na4  1  0.33335314  0.66358437  0.16485044  1
  Na  Na5  1  0.32976406  0.66393485  0.66705180  1
  Sc  Sc0  1  0.99690159  0.00055499  0.35489798  1
  Sc  Sc1  1  0.67227266  0.33559793  0.68712490  1
  Sc  Sc2  1  0.66354111  0.33485824  0.18528089  1
  Ta  Ta0  1  0.00057169  0.00029112  0.85718076  1
  Ta  Ta1  1  0.99960760  0.00183175  0.64477698  1
  Ta  Ta2  1  0.00205386  0.00246253  0.14640347  1
  Ta  Ta3  1  0.66200648  0.33172908  0.97819105  1
  Ta  Ta4  1  0.66947294  0.32964088  0.47803063  1
  Ta  Ta5  1  0.33326842  0.66419882  0.02010391  1
  Ta  Ta6  1  0.33551879  0.66718724  0.52032103  1
  Ta  Ta7  1  0.33628612  0.67049444  0.31077028  1
  Ta  Ta8  1  0.33276255  0.66612979  0.81309357  1
  Si  Si0  1  0.95603312  0.33542722  0.58459576  1
  Si  Si1  1  0.37774557  0.33450995  0.08460965  1
  Si  Si2  1  0.61859426  0.66515875  0.91634816  1
  Si  Si3  1  0.04541575  0.38174647  0.91634847  1
  Si  Si4  1  0.33545088  0.95260483  0.91676999  1
  Si  Si5  1  0.62417783  0.95531701  0.41660021  1
  P  P0  1  0.28808711  0.00043746  0.25158800  1
  P  P1  1  0.71278854  0.71075536  0.25121166  1
  P  P2  1  0.99893800  0.28868979  0.25135403  1
  P  P3  1  0.28629446  0.28710755  0.75042929  1
  P  P4  1  0.00116793  0.71428072  0.75035209  1
  P  P5  1  0.71207625  0.99800951  0.75051050  1
  P  P6  1  0.37938365  0.04599585  0.58357764  1
  P  P7  1  0.66651162  0.61989974  0.58369343  1
  P  P8  1  0.95511358  0.62185904  0.08388050  1
  P  P9  1  0.66624100  0.04464057  0.08378618  1
  P  P10  1  0.33565606  0.38185747  0.41676424  1
  P  P11  1  0.04748270  0.66615471  0.41679995  1
  O  O0  1  0.20334264  0.02197403  0.30566750  1
  O  O1  1  0.81886242  0.79754239  0.30544521  1
  O  O2  1  0.97764289  0.18098774  0.30523844  1
  O  O3  1  0.19052152  0.17460861  0.80431887  1
  O  O4  1  0.98516329  0.81078214  0.80442661  1
  O  O5  1  0.82548404  0.01631789  0.80437478  1
  O  O6  1  0.80442676  0.97393633  0.69525466  1
  O  O7  1  0.16981375  0.19448347  0.69510809  1
  O  O8  1  0.02556087  0.82852994  0.69512404  1
  O  O9  1  0.79836839  0.82725685  0.19563762  1
  O  O10  1  0.02711440  0.19779351  0.19559374  1
  O  O11  1  0.16987616  0.97178361  0.19584274  1
  O  O12  1  0.87608902  0.37031726  0.64173519  1
  O  O13  1  0.48738933  0.12065424  0.63810227  1
  O  O14  1  0.62992635  0.51156100  0.63835379  1
  O  O15  1  0.88186019  0.51369023  0.13820949  1
  O  O16  1  0.63668857  0.12163619  0.13818891  1
  O  O17  1  0.49145572  0.36855430  0.14168521  1
  O  O18  1  0.46930862  0.30331541  0.02623506  1
  O  O19  1  0.84086204  0.53542007  0.02863650  1
  O  O20  1  0.69856820  0.15978998  0.02847015  1
  O  O21  1  0.46367497  0.16236571  0.52854471  1
  O  O22  1  0.69441746  0.53484520  0.52858171  1
  O  O23  1  0.83150452  0.30409712  0.52637631  1
  O  O24  1  0.53141997  0.69966377  0.97339332  1
  O  O25  1  0.16829354  0.46939126  0.97320341  1
  O  O26  1  0.30057829  0.83319527  0.97393326  1
  O  O27  1  0.52041004  0.83663636  0.47341564  1
  O  O28  1  0.31407062  0.47459513  0.47145825  1
  O  O29  1  0.15878892  0.68146032  0.47139264  1
  O  O30  1  0.13094913  0.63285171  0.36197415  1
  O  O31  1  0.49624790  0.85891197  0.35954176  1
  O  O32  1  0.36128500  0.49715940  0.36214150  1
  O  O33  1  0.13717534  0.50177278  0.85819259  1
  O  O34  1  0.36440848  0.86205646  0.85824874  1
  O  O35  1  0.49807372  0.63447905  0.85819192  1
  O  O36  1  0.03179085  0.82849004  0.41343232  1
  O  O37  1  0.81456070  0.97793656  0.41480002  1
  O  O38  1  0.17684210  0.20112234  0.41320303  1
  O  O39  1  0.02634807  0.18940066  0.90668268  1
  O  O40  1  0.16456240  0.97592283  0.90672130  1
  O  O41  1  0.81152258  0.83725810  0.90681809  1
  O  O42  1  0.97668238  0.15907995  0.59160260  1
  O  O43  1  0.19163500  0.02181081  0.59077396  1
  O  O44  1  0.83282959  0.80582961  0.59121395  1
  O  O45  1  0.97184188  0.80703987  0.09107537  1
  O  O46  1  0.83064501  0.02061683  0.09091546  1
  O  O47  1  0.17999570  0.15786376  0.09158280  1
  O  O48  1  0.69239679  0.15906374  0.74648813  1
  O  O49  1  0.46595132  0.30506405  0.74598230  1
  O  O50  1  0.83748480  0.53470099  0.74732586  1
  O  O51  1  0.68676055  0.52785158  0.24505780  1
  O  O52  1  0.84326242  0.31538184  0.24348498  1
  O  O53  1  0.47262133  0.15328074  0.24409431  1
  O  O54  1  0.64254104  0.49568028  0.92502562  1
  O  O55  1  0.85382979  0.35957307  0.92536634  1
  O  O56  1  0.50817701  0.14491950  0.92436783  1
  O  O57  1  0.63023122  0.14575768  0.42450970  1
  O  O58  1  0.50688728  0.37409344  0.42546598  1
  O  O59  1  0.86305098  0.49871332  0.42523248  1
  O  O60  1  0.34829801  0.50266434  0.07482983  1
  O  O61  1  0.14317246  0.65253898  0.07414164  1
  O  O62  1  0.50471980  0.85953175  0.07417310  1
  O  O63  1  0.35205498  0.85955377  0.57277152  1
  O  O64  1  0.50855445  0.65039896  0.57338678  1
  O  O65  1  0.15269952  0.50077755  0.57296287  1
  O  O66  1  0.29688672  0.82453235  0.25650354  1
  O  O67  1  0.52509945  0.69588769  0.25708760  1
  O  O68  1  0.17212650  0.47244146  0.25679355  1
  O  O69  1  0.29646623  0.46837059  0.75487735  1
  O  O70  1  0.17126233  0.70169025  0.75525599  1
  O  O71  1  0.53080993  0.82706221  0.75491766  1
loop_
_geom_bond_atom_site_label_1
_geom_bond_atom_site_label_2
_geom_bond_distance
_geom_bond_site_symmetry_2
Na0 O37 2.361080 1_545
Na0 O36 2.496309 1_645
Na0 O38 2.503232 1_655
Na0 O42 2.692740 1_555
Na0 O44 2.743210 1_545
Na0 O43 2.753402 1_655
Na1 O47 2.554138 1_555
Na1 O46 2.602971 1_455
Na1 O45 2.605515 1_445
Na1 O41 2.664195 1_444
Na1 O40 2.666067 1_544
Na1 O39 2.670936 1_554
Na2 O50 2.545223 1_555
Na2 O48 2.560503 1_555
Na2 O49 2.574828 1_555
Na2 O56 2.628308 1_555
Na2 O55 2.638146 1_555
Na2 O54 2.638333 1_555
Na3 O51 2.487996 1_555
Na3 O53 2.510855 1_555
Na3 O52 2.517891 1_555
Na3 O57 2.703434 1_555
Na3 O59 2.770298 1_555
Na3 O58 2.776579 1_555
Na4 O60 2.541579 1_555
Na4 O68 2.627854 1_555
Na4 O67 2.629224 1_555
Na4 O61 2.639401 1_555
Na4 O66 2.640117 1_555
Na4 O62 2.641249 1_555
Na5 O70 2.569608 1_555
Na5 O69 2.569951 1_555
Na5 O71 2.588578 1_555
Na5 O65 2.625845 1_555
Na5 O64 2.698636 1_555
Na5 O63 2.709773 1_555
O0 P0 1.506067 1_555
O0 Sc0 2.066157 1_455
O1 P1 1.511387 1_555
O1 Sc0 2.033118 1_565
O2 P2 1.511217 1_555
O2 Sc0 2.030622 1_555
O3 P3 1.544259 1_555
O3 Ta0 2.014842 1_555
O4 P4 1.547412 1_655
O4 Ta0 2.009013 1_665
O5 P5 1.543922 1_545
O5 Ta0 2.019184 1_655
O6 P5 1.574778 1_555
O6 Ta1 1.982244 1_565
O7 P3 1.576304 1_555
O7 Ta1 1.977361 1_455
O8 P4 1.564117 1_555
O8 Ta1 2.016509 1_465
O9 P1 1.572209 1_555
O9 Ta2 2.026975 1_665
O10 P2 1.590806 1_455
O10 Ta2 1.974030 1_555
O11 P0 1.585536 1_565
O11 Ta2 1.984546 1_565
O12 Si0 1.586944 1_555
O12 Sc1 1.961435 1_555
O13 P6 1.506572 1_555
O13 Sc1 2.100505 1_555
O14 P7 1.509255 1_555
O14 Sc1 2.090987 1_555
O15 P8 1.503761 1_555
O15 Sc2 2.077871 1_555
O16 P9 1.501795 1_555
O16 Sc2 2.073874 1_555
O17 Si1 1.581238 1_555
O17 Sc2 1.957296 1_555
O18 Si1 1.653499 1_555
O18 Ta3 1.930983 1_554
O19 P8 1.557351 1_555
O19 Ta3 2.051156 1_554
O20 P9 1.558843 1_555
O20 Ta3 2.053345 1_554
O21 P6 1.559986 1_555
O21 Ta4 2.032134 1_555
O22 P7 1.548410 1_555
O22 Ta4 2.063232 1_555
O23 Si0 1.659283 1_555
O23 Ta4 1.906157 1_555
O24 Si2 1.619048 1_555
O24 Ta5 1.934532 1_556
O25 Si3 1.620357 1_555
O25 Ta5 1.927355 1_556
O26 Si4 1.611149 1_555
O26 Ta5 1.962202 1_556
O27 Si5 1.634059 1_555
O27 Ta6 1.899590 1_555
O28 P10 1.557666 1_555
O28 Ta6 1.960556 1_555
O29 P11 1.552306 1_555
O29 Ta6 1.971997 1_555
O30 P11 1.555003 1_555
O30 Ta7 2.038647 1_555
O31 Si5 1.655200 1_555
O31 Ta7 1.909746 1_555
O32 P10 1.556307 1_555
O32 Ta7 2.026180 1_555
O33 Si3 1.641622 1_555
O33 Ta8 1.908205 1_555
O34 Si4 1.642981 1_555
O34 Ta8 1.908729 1_555
O35 Si2 1.638878 1_555
O35 Ta8 1.915578 1_555
O36 P11 1.506254 1_555
O36 Sc0 2.158761 1_465
O37 Si5 1.586666 1_555
O37 Sc0 2.044735 1_565
O38 P10 1.507487 1_555
O38 Sc0 2.147930 1_455
O39 Si3 1.632335 1_555
O39 Ta0 1.931774 1_555
O40 Si4 1.633435 1_555
O40 Ta0 1.930977 1_565
O41 Si2 1.630766 1_555
O41 Ta0 1.934224 1_665
O42 Si0 1.660163 1_555
O42 Ta1 1.930549 1_555
O43 P6 1.566322 1_555
O43 Ta1 2.030515 1_455
O44 P7 1.568468 1_555
O44 Ta1 2.026126 1_565
O45 P8 1.571801 1_555
O45 Ta2 2.044373 1_665
O46 P9 1.572609 1_555
O46 Ta2 2.039626 1_655
O47 Si1 1.664985 1_555
O47 Ta2 1.940736 1_555
O48 P5 1.516042 1_545
O48 Sc1 2.140027 1_555
O49 P3 1.512476 1_555
O49 Sc1 2.168554 1_555
O50 P4 1.518737 1_655
O50 Sc1 2.130635 1_555
O51 P1 1.516637 1_555
O51 Sc2 2.110901 1_555
O52 P2 1.512879 1_555
O52 Sc2 2.140646 1_555
O53 P0 1.515596 1_555
O53 Sc2 2.125470 1_555
O54 Si2 1.621509 1_555
O54 Ta3 1.962244 1_555
O55 Si3 1.611574 1_655
O55 Ta3 1.990878 1_555
O56 Si4 1.624421 1_545
O56 Ta3 1.957394 1_555
O57 Si5 1.661769 1_545
O57 Ta4 1.919310 1_555
O58 P10 1.555791 1_555
O58 Ta4 2.052655 1_555
O59 P11 1.567660 1_655
O59 Ta4 2.013369 1_555
O60 Si1 1.642362 1_555
O60 Ta5 1.951066 1_555
O61 P8 1.554815 1_455
O61 Ta5 2.042721 1_555
O62 P9 1.553252 1_565
O62 Ta5 2.042993 1_555
O63 P6 1.556311 1_565
O63 Ta6 2.021538 1_555
O64 P7 1.560707 1_555
O64 Ta6 2.011412 1_555
O65 Si0 1.634621 1_455
O65 Ta6 1.959691 1_555
O66 P0 1.594193 1_565
O66 Ta7 1.995397 1_555
O67 P1 1.596862 1_555
O67 Ta7 1.988696 1_555
O68 P2 1.579445 1_455
O68 Ta7 2.034134 1_555
O69 P3 1.557591 1_555
O69 Ta8 2.086896 1_555
O70 P4 1.560097 1_555
O70 Ta8 2.078720 1_555
O71 P5 1.557026 1_555
O71 Ta8 2.088183 1_555
