# generated using pymatgen
data_Na6Y4Ga4Si3(S3O16)3
_symmetry_space_group_name_H-M   'P 1'
_cell_length_a   17.87131886
_cell_length_b   8.93623634
_cell_length_c   23.26702909
_cell_angle_alpha   90.34734929
_cell_angle_beta   89.19175101
_cell_angle_gamma   119.91049972
_symmetry_Int_Tables_number   1
_chemical_formula_structural   Na6Y4Ga4Si3(S3O16)3
_chemical_formula_sum   'Na18 Y12 Ga12 Si9 S27 O144'
_cell_volume   3220.55186150
_cell_formula_units_Z   3
loop_
 _symmetry_equiv_pos_site_id
 _symmetry_equiv_pos_as_xyz
  1  'x, y, z'
loop_
 _atom_site_type_symbol
 _atom_site_label
 _atom_site_symmetry_multiplicity
 _atom_site_fract_x
 _atom_site_fract_y
 _atom_site_fract_z
 _atom_site_occupancy
  Na  Na0  1  0.00405321  0.63881945  0.25424971  1
  Na  Na1  1  0.50187483  0.36897349  0.74279425  1
  Na  Na2  1  0.16171363  0.30542923  0.91223552  1
  Na  Na3  1  0.66184220  0.30108229  0.91062253  1
  Na  Na4  1  0.16459387  0.02702565  0.41728253  1
  Na  Na5  1  0.66068747  0.01407511  0.41748718  1
  Na  Na6  1  0.99484928  0.98842309  0.49559013  1
  Na  Na7  1  0.49159360  0.00243962  0.49897629  1
  Na  Na8  1  0.99331765  0.99897489  0.99134114  1
  Na  Na9  1  0.49425358  0.00007691  0.99217877  1
  Na  Na10  1  0.33366757  0.33397779  0.82806876  1
  Na  Na11  1  0.83820741  0.33527478  0.83491539  1
  Na  Na12  1  0.33963163  0.34419203  0.33941660  1
  Na  Na13  1  0.83216832  0.33064031  0.33430599  1
  Na  Na14  1  0.17330255  0.67974700  0.17523730  1
  Na  Na15  1  0.66576757  0.68309153  0.17332127  1
  Na  Na16  1  0.16947346  0.65265355  0.67090525  1
  Na  Na17  1  0.66226644  0.65029941  0.66715071  1
  Y  Y0  1  0.00144173  0.00861019  0.64774555  1
  Y  Y1  1  0.50715904  0.01734184  0.64687253  1
  Y  Y2  1  0.00809831  0.00303542  0.14976786  1
  Y  Y3  1  0.50126700  0.99317250  0.14851865  1
  Y  Y4  1  0.82918071  0.33426613  0.69180664  1
  Y  Y5  1  0.32966903  0.32602735  0.19280957  1
  Y  Y6  1  0.15909266  0.65358441  0.01432921  1
  Y  Y7  1  0.66480306  0.65757264  0.01415151  1
  Y  Y8  1  0.16645173  0.67313532  0.51477394  1
  Y  Y9  1  0.64987092  0.64928814  0.51921670  1
  Y  Y10  1  0.66040132  0.66998869  0.31778106  1
  Y  Y11  1  0.16017232  0.64926055  0.81621174  1
  Ga  Ga0  1  0.00350692  0.99000908  0.35284357  1
  Ga  Ga1  1  0.50742157  0.98524498  0.34681754  1
  Ga  Ga2  1  0.00883517  0.03644983  0.84262987  1
  Ga  Ga3  1  0.50176033  0.01987610  0.84659823  1
  Ga  Ga4  1  0.32563773  0.33050781  0.68057077  1
  Ga  Ga5  1  0.82181810  0.31362684  0.18666995  1
  Ga  Ga6  1  0.34448310  0.33459411  0.97881321  1
  Ga  Ga7  1  0.83958633  0.33247716  0.98222053  1
  Ga  Ga8  1  0.35656425  0.36583508  0.48747447  1
  Ga  Ga9  1  0.84438323  0.35258310  0.47998503  1
  Ga  Ga10  1  0.16110327  0.67747584  0.32149681  1
  Ga  Ga11  1  0.65598377  0.64599340  0.81742481  1
  Si  Si0  1  0.14593393  0.98938473  0.25696149  1
  Si  Si1  1  0.65203356  0.00842713  0.24949358  1
  Si  Si2  1  0.15659468  0.29601636  0.74795896  1
  Si  Si3  1  0.64729220  0.30348614  0.75746679  1
  Si  Si4  1  0.47048468  0.32910255  0.58883064  1
  Si  Si5  1  0.00780692  0.34941004  0.91700937  1
  Si  Si6  1  0.51452775  0.36094718  0.91413695  1
  Si  Si7  1  0.01419787  0.66534959  0.41463538  1
  Si  Si8  1  0.50804733  0.66846112  0.41598919  1
  S  S0  1  0.34891638  0.71211485  0.25577059  1
  S  S1  1  0.85451341  0.70126031  0.24930808  1
  S  S2  1  0.00024562  0.29573599  0.25261352  1
  S  S3  1  0.50099298  0.28514439  0.25351734  1
  S  S4  1  0.00037648  0.71792887  0.75379449  1
  S  S5  1  0.50215793  0.71286885  0.75560283  1
  S  S6  1  0.35448871  0.00342886  0.75233443  1
  S  S7  1  0.84872233  0.98646250  0.75610307  1
  S  S8  1  0.97583204  0.33116178  0.57971677  1
  S  S9  1  0.19278245  0.05270267  0.58012159  1
  S  S10  1  0.69479807  0.05227067  0.57767804  1
  S  S11  1  0.33157241  0.61538364  0.58377842  1
  S  S12  1  0.83410955  0.62239325  0.57919010  1
  S  S13  1  0.47527967  0.61968280  0.07979650  1
  S  S14  1  0.96962951  0.60823475  0.08537706  1
  S  S15  1  0.33312140  0.04499013  0.07932098  1
  S  S16  1  0.83327468  0.05285586  0.08387500  1
  S  S17  1  0.19243236  0.33529140  0.07862091  1
  S  S18  1  0.69652552  0.33545893  0.08131513  1
  S  S19  1  0.32182807  0.66750461  0.91784389  1
  S  S20  1  0.81786227  0.66790288  0.91428828  1
  S  S21  1  0.16791679  0.97577764  0.91813113  1
  S  S22  1  0.66565506  0.96207248  0.91450490  1
  S  S23  1  0.31757295  0.96505915  0.41189703  1
  S  S24  1  0.82192653  0.97369308  0.41766104  1
  S  S25  1  0.16361954  0.36956084  0.41187162  1
  S  S26  1  0.66790190  0.35935232  0.41666518  1
  O  O0  1  0.09770188  0.02073695  0.31177770  1
  O  O1  1  0.60880014  0.03569848  0.30877663  1
  O  O2  1  0.40557049  0.80223903  0.30453099  1
  O  O3  1  0.90833590  0.78400070  0.30058152  1
  O  O4  1  0.49015861  0.17678339  0.30385223  1
  O  O5  1  0.98339387  0.18349426  0.30269341  1
  O  O6  1  0.11443865  0.18592700  0.80921250  1
  O  O7  1  0.60308545  0.18306473  0.81423235  1
  O  O8  1  0.48861479  0.79949554  0.80641989  1
  O  O9  1  0.98972654  0.80633202  0.80477830  1
  O  O10  1  0.40778972  0.02269469  0.80412200  1
  O  O11  1  0.90560647  0.01139628  0.80556365  1
  O  O12  1  0.39204194  0.97259652  0.70013284  1
  O  O13  1  0.88417363  0.95748078  0.70200406  1
  O  O14  1  0.09227232  0.20283002  0.69508274  1
  O  O15  1  0.58779037  0.22279509  0.70121750  1
  O  O16  1  0.00494967  0.80637843  0.69957786  1
  O  O17  1  0.51336786  0.80850572  0.70200798  1
  O  O18  1  0.38380618  0.80942462  0.20115305  1
  O  O19  1  0.89208278  0.80827794  0.19718246  1
  O  O20  1  0.01184476  0.21803394  0.19898445  1
  O  O21  1  0.50570475  0.20514228  0.19875035  1
  O  O22  1  0.08749876  0.94835416  0.19911024  1
  O  O23  1  0.59372978  0.98056713  0.19354441  1
  O  O24  1  0.42341463  0.34863774  0.64846467  1
  O  O25  1  0.93655183  0.34779576  0.63338015  1
  O  O26  1  0.24098582  0.13679120  0.63248971  1
  O  O27  1  0.74173115  0.13688412  0.63049369  1
  O  O28  1  0.31910928  0.51220754  0.63611908  1
  O  O29  1  0.82586650  0.52559230  0.63228811  1
  O  O30  1  0.43572940  0.52532340  0.13319505  1
  O  O31  1  0.92854310  0.50883070  0.13887711  1
  O  O32  1  0.32493050  0.12586212  0.13261434  1
  O  O33  1  0.82489790  0.13769246  0.13696668  1
  O  O34  1  0.23972200  0.34731409  0.13124019  1
  O  O35  1  0.74740185  0.35245847  0.13296091  1
  O  O36  1  0.23641802  0.32135403  0.02592358  1
  O  O37  1  0.73797851  0.31766125  0.02707670  1
  O  O38  1  0.42346315  0.52950525  0.02867337  1
  O  O39  1  0.91984090  0.52435388  0.03300733  1
  O  O40  1  0.34073875  0.15011850  0.02796617  1
  O  O41  1  0.84140256  0.15365452  0.03135090  1
  O  O42  1  0.23274278  0.15084640  0.52637931  1
  O  O43  1  0.73849373  0.15672385  0.52513616  1
  O  O44  1  0.33687303  0.53014347  0.52992026  1
  O  O45  1  0.84259753  0.53233409  0.52756765  1
  O  O46  1  0.41689121  0.30413734  0.53018643  1
  O  O47  1  0.92390525  0.31671256  0.52871390  1
  O  O48  1  0.28327123  0.70258870  0.96953199  1
  O  O49  1  0.78324386  0.70448448  0.96795518  1
  O  O50  1  0.07340628  0.42858438  0.97165848  1
  O  O51  1  0.57891416  0.43947129  0.96908650  1
  O  O52  1  0.15626931  0.86960667  0.96985744  1
  O  O53  1  0.65547034  0.86206463  0.96751733  1
  O  O54  1  0.28252860  0.85953821  0.46489240  1
  O  O55  1  0.78447373  0.86395142  0.46861023  1
  O  O56  1  0.15216555  0.44676473  0.46530225  1
  O  O57  1  0.65666788  0.44240370  0.46829413  1
  O  O58  1  0.08011026  0.71553573  0.46801394  1
  O  O59  1  0.57413290  0.71868990  0.46948527  1
  O  O60  1  0.05723527  0.63050971  0.35665500  1
  O  O61  1  0.54956585  0.62934948  0.35990681  1
  O  O62  1  0.25739190  0.87409278  0.36310859  1
  O  O63  1  0.76625386  0.89589587  0.36680658  1
  O  O64  1  0.17824917  0.48325804  0.36157204  1
  O  O65  1  0.68621754  0.46817150  0.36557250  1
  O  O66  1  0.05103042  0.47268374  0.86218906  1
  O  O67  1  0.55938118  0.48725582  0.85853360  1
  O  O68  1  0.18600007  0.90187552  0.86720427  1
  O  O69  1  0.68231460  0.88168023  0.86391055  1
  O  O70  1  0.26487347  0.63275342  0.86801246  1
  O  O71  1  0.75810541  0.63421934  0.86598413  1
  O  O72  1  0.00522276  0.84139726  0.40843518  1
  O  O73  1  0.50364543  0.84831881  0.40757295  1
  O  O74  1  0.40461433  0.99298548  0.40147220  1
  O  O75  1  0.91006894  0.00078470  0.40665094  1
  O  O76  1  0.08292559  0.19583028  0.40692148  1
  O  O77  1  0.58815280  0.18799988  0.41051297  1
  O  O78  1  0.00346250  0.16061184  0.90669362  1
  O  O79  1  0.50414078  0.16606725  0.90689792  1
  O  O80  1  0.08882760  0.98936824  0.91256757  1
  O  O81  1  0.58682883  0.97724714  0.90959551  1
  O  O82  1  0.40880345  0.81549021  0.90834877  1
  O  O83  1  0.90524766  0.81199492  0.90465241  1
  O  O84  1  0.48116034  0.15848526  0.58697339  1
  O  O85  1  0.98191142  0.17127079  0.58013314  1
  O  O86  1  0.10381014  0.02747911  0.58373866  1
  O  O87  1  0.60699975  0.02961103  0.57979931  1
  O  O88  1  0.41122132  0.78403127  0.58691010  1
  O  O89  1  0.91352650  0.79412553  0.58090622  1
  O  O90  1  0.48171458  0.79194975  0.08028815  1
  O  O91  1  0.97773649  0.78184010  0.08704451  1
  O  O92  1  0.41191698  0.02938547  0.08053611  1
  O  O93  1  0.91170370  0.03671605  0.08665344  1
  O  O94  1  0.10475909  0.17903865  0.08067091  1
  O  O95  1  0.60936268  0.18144471  0.08423688  1
  O  O96  1  0.35313383  0.16757914  0.74918113  1
  O  O97  1  0.84451756  0.14811793  0.75135005  1
  O  O98  1  0.25155489  0.30753523  0.73946742  1
  O  O99  1  0.74220316  0.32244335  0.75383084  1
  O  O100  1  0.42717422  0.53505216  0.75225755  1
  O  O101  1  0.92484393  0.54027799  0.75238695  1
  O  O102  1  0.34419773  0.54161115  0.25069087  1
  O  O103  1  0.85495653  0.53364573  0.24205309  1
  O  O104  1  0.42516446  0.31142040  0.25167512  1
  O  O105  1  0.92498493  0.32576648  0.24538222  1
  O  O106  1  0.24006439  0.16001076  0.25243962  1
  O  O107  1  0.74769688  0.18950941  0.24390728  1
  O  O108  1  0.32322667  0.50213398  0.92643654  1
  O  O109  1  0.81767460  0.49926209  0.92288941  1
  O  O110  1  0.41970869  0.34604570  0.92323207  1
  O  O111  1  0.91364359  0.33552985  0.92796667  1
  O  O112  1  0.24289684  0.15633623  0.92629202  1
  O  O113  1  0.74092129  0.14246606  0.92143118  1
  O  O114  1  0.31706356  0.13070359  0.41856462  1
  O  O115  1  0.82503016  0.14431847  0.42556228  1
  O  O116  1  0.23727814  0.33869904  0.41697278  1
  O  O117  1  0.74259302  0.32723150  0.42423907  1
  O  O118  1  0.41191114  0.49694691  0.42517254  1
  O  O119  1  0.91929687  0.49136827  0.42356427  1
  O  O120  1  0.18401712  0.49250954  0.07743810  1
  O  O121  1  0.68968668  0.49399726  0.07931390  1
  O  O122  1  0.05735899  0.62855006  0.08144766  1
  O  O123  1  0.56303656  0.64138651  0.07604521  1
  O  O124  1  0.25529089  0.87156737  0.07581456  1
  O  O125  1  0.75508546  0.88008167  0.08073900  1
  O  O126  1  0.18592617  0.87930883  0.57917328  1
  O  O127  1  0.69030525  0.88307802  0.57557749  1
  O  O128  1  0.25457809  0.63716357  0.58007351  1
  O  O129  1  0.75749154  0.64217115  0.57525017  1
  O  O130  1  0.06336112  0.48448559  0.57573481  1
  O  O131  1  0.56600423  0.50396453  0.58727322  1
  O  O132  1  0.15395281  0.81273674  0.26204523  1
  O  O133  1  0.66666229  0.84314084  0.25283993  1
  O  O134  1  0.26110015  0.68661904  0.26414559  1
  O  O135  1  0.76623644  0.66866158  0.25619550  1
  O  O136  1  0.07953845  0.46862463  0.25804460  1
  O  O137  1  0.58079029  0.45513960  0.25545216  1
  O  O138  1  0.16846128  0.48829284  0.75300669  1
  O  O139  1  0.65411832  0.49585454  0.76133126  1
  O  O140  1  0.08011257  0.70678860  0.75607588  1
  O  O141  1  0.58265479  0.69855678  0.76110754  1
  O  O142  1  0.26674043  0.85694414  0.75917330  1
  O  O143  1  0.76174045  0.83691438  0.76548087  1
loop_
_geom_bond_atom_site_label_1
_geom_bond_atom_site_label_2
_geom_bond_distance
_geom_bond_site_symmetry_2
Na0 O132 2.341571 1_555
Na0 O103 2.363110 1_455
Na0 O105 2.433982 1_455
Na0 O136 2.488364 1_555
Na0 O60 2.592751 1_555
Na0 O22 2.719600 1_555
Na0 O3 2.813485 1_455
Na0 O31 2.979490 1_455
Na1 O96 2.355444 1_555
Na1 O139 2.413485 1_555
Na1 O100 2.448874 1_555
Na1 O24 2.577601 1_555
Na1 O141 2.588793 1_555
Na1 O15 2.634910 1_555
Na1 O67 2.895760 1_555
Na2 O112 2.435875 1_555
Na2 O80 2.450495 1_545
Na2 O78 2.459276 1_555
Na2 O108 2.547632 1_555
Na2 O6 2.593514 1_555
Na2 O50 2.695463 1_555
Na2 O70 2.760150 1_555
Na2 O36 2.950464 1_556
Na3 O79 2.453701 1_555
Na3 O109 2.463993 1_555
Na3 O113 2.466118 1_555
Na3 O7 2.485552 1_555
Na3 O81 2.510637 1_545
Na3 O51 2.706792 1_555
Na3 O71 2.789311 1_555
Na4 O114 2.401719 1_555
Na4 O116 2.415893 1_555
Na4 O72 2.491330 1_545
Na4 O76 2.583379 1_555
Na4 O58 2.686866 1_545
Na4 O0 2.733558 1_555
Na4 O42 2.803586 1_555
Na4 O62 2.896090 1_545
Na5 O117 2.431982 1_555
Na5 O73 2.447897 1_545
Na5 O77 2.478026 1_555
Na5 O115 2.572904 1_555
Na5 O59 2.595761 1_545
Na5 O1 2.746949 1_555
Na5 O63 2.823869 1_545
Na5 O43 2.850202 1_555
Na6 O72 2.464288 1_655
Na6 O89 2.551694 1_555
Na6 O75 2.616906 1_565
Na6 O85 2.630141 1_565
Na6 O76 2.685944 1_665
Na6 O86 2.747055 1_665
Na7 O84 2.526890 1_555
Na7 O73 2.591027 1_545
Na7 O77 2.655457 1_555
Na7 O88 2.688509 1_545
Na7 O87 2.730105 1_555
Na7 O74 2.745229 1_545
Na8 O78 2.400292 1_665
Na8 O80 2.517153 1_655
Na8 O83 2.600642 1_555
Na8 O93 2.747594 1_566
Na8 O94 2.784925 1_666
Na8 O91 2.880444 1_556
Na9 O79 2.435789 1_555
Na9 O82 2.527876 1_545
Na9 O81 2.590947 1_545
Na9 O92 2.598584 1_556
Na9 O90 2.707332 1_546
Na9 O95 2.864198 1_556
Na10 O100 2.468451 1_555
Na10 O96 2.483126 1_555
Na10 O98 2.488502 1_555
Na10 O110 2.684469 1_555
Na10 O112 2.783093 1_555
Na10 O108 2.785143 1_555
Na11 O99 2.531520 1_555
Na11 O101 2.563295 1_555
Na11 O111 2.565942 1_555
Na11 O97 2.594755 1_555
Na11 O109 2.636405 1_555
Na11 O113 2.645625 1_555
Na12 O118 2.407132 1_555
Na12 O116 2.534361 1_555
Na12 O114 2.539261 1_555
Na12 O104 2.634605 1_555
Na12 O106 2.666644 1_555
Na12 O102 2.697502 1_555
Na13 O107 2.540098 1_555
Na13 O119 2.573942 1_555
Na13 O117 2.607618 1_555
Na13 O105 2.647306 1_555
Na13 O115 2.668369 1_555
Na13 O103 2.711057 1_555
Na14 O132 2.443855 1_555
Na14 O134 2.595937 1_555
Na14 O136 2.622892 1_555
Na14 O124 2.807860 1_555
Na14 O120 2.876667 1_555
Na14 O122 2.904278 1_555
Na15 O133 2.326990 1_555
Na15 O137 2.643418 1_555
Na15 O135 2.700033 1_555
Na15 O125 2.726471 1_555
Na15 O123 2.838456 1_555
Na15 O121 2.910578 1_555
Na16 O138 2.411064 1_555
Na16 O128 2.629548 1_555
Na16 O140 2.716800 1_555
Na16 O142 2.731794 1_555
Na16 O130 2.827340 1_555
Na16 O126 2.860948 1_555
Na17 O131 2.437380 1_555
Na17 O139 2.560288 1_555
Na17 O129 2.737197 1_555
Na17 O141 2.738970 1_555
Na17 O127 2.846380 1_555
Na17 O143 2.878802 1_555
Ga0 O0 1.821799 1_565
Ga0 O72 1.870877 1_555
Ga0 O76 2.097474 1_565
Ga0 O75 2.113048 1_465
Ga0 O3 2.160799 1_455
Ga0 O5 2.266358 1_465
Ga1 O1 1.847737 1_565
Ga1 O73 1.853632 1_555
Ga1 O2 2.004497 1_555
Ga1 O4 2.140162 1_565
Ga1 O77 2.231931 1_565
Ga1 O74 2.248848 1_555
Ga2 O6 1.845989 1_555
Ga2 O78 1.882622 1_555
Ga2 O11 1.956511 1_455
Ga2 O9 2.099321 1_445
Ga2 O80 2.354224 1_545
Ga2 O83 2.406104 1_445
Ga3 O7 1.820454 1_555
Ga3 O79 1.897608 1_555
Ga3 O10 1.971544 1_555
Ga3 O8 2.080864 1_545
Ga3 O82 2.257970 1_545
Ga3 O81 2.291735 1_545
Ga4 O24 1.822086 1_555
Ga4 O98 1.831403 1_555
Ga4 O28 1.983038 1_555
Ga4 O26 1.987301 1_555
Ga4 O96 2.381911 1_555
Ga4 O100 2.481211 1_555
Ga5 O107 1.805911 1_555
Ga5 O33 1.968412 1_555
Ga5 O35 1.990755 1_555
Ga5 O31 2.136088 1_555
Ga5 O103 2.169446 1_555
Ga5 O105 2.268702 1_555
Ga6 O110 1.818123 1_555
Ga6 O40 1.985118 1_556
Ga6 O38 1.985383 1_556
Ga6 O108 2.115028 1_555
Ga6 O112 2.116985 1_555
Ga6 O36 2.158525 1_556
Ga7 O111 1.806417 1_555
Ga7 O41 1.984012 1_556
Ga7 O39 1.991004 1_556
Ga7 O37 2.027951 1_556
Ga7 O109 2.214192 1_555
Ga7 O113 2.246800 1_555
Ga8 O46 1.756021 1_555
Ga8 O118 1.810188 1_555
Ga8 O44 1.934681 1_555
Ga8 O42 2.265358 1_555
Ga8 O114 2.448633 1_555
Ga9 O119 1.835232 1_555
Ga9 O45 1.958432 1_555
Ga9 O47 1.977899 1_555
Ga9 O43 2.100269 1_555
Ga9 O115 2.128042 1_555
Ga9 O117 2.166763 1_555
Ga10 O60 1.864234 1_555
Ga10 O132 1.889459 1_555
Ga10 O62 1.999183 1_555
Ga10 O64 2.129226 1_555
Ga10 O134 2.183883 1_555
Ga10 O136 2.258714 1_555
Ga11 O67 1.853401 1_555
Ga11 O139 1.854713 1_555
Ga11 O141 2.079613 1_555
Ga11 O143 2.165260 1_555
Ga11 O69 2.196697 1_555
Ga11 O71 2.206696 1_555
O0 Si0 1.629005 1_545
O1 Si1 1.646992 1_555
O2 S0 1.472742 1_555
O3 S1 1.485769 1_555
O4 S3 1.472112 1_555
O5 S2 1.468835 1_655
O6 Si2 1.677536 1_555
O7 Si3 1.632950 1_555
O8 S5 1.491141 1_555
O9 S4 1.483139 1_655
O10 S6 1.501736 1_555
O11 S7 1.487095 1_545
O12 S6 1.469311 1_565
O12 Y1 2.245367 1_565
O13 S7 1.479881 1_555
O13 Y0 2.274204 1_665
O14 Si2 1.612838 1_555
O14 Y0 2.019382 1_555
O15 Si3 1.620703 1_555
O15 Y1 2.104966 1_555
O16 S4 1.472229 1_555
O16 Y0 2.205859 1_565
O17 S5 1.469914 1_555
O17 Y1 2.319543 1_565
O18 S0 1.486663 1_555
O18 Y3 2.262040 1_555
O19 S1 1.478854 1_555
O19 Y2 2.214695 1_665
O20 S2 1.485878 1_555
O20 Y2 2.203247 1_555
O21 S3 1.479160 1_555
O21 Y3 2.187748 1_545
O22 Si0 1.639701 1_555
O22 Y2 2.077160 1_565
O23 Si1 1.617996 1_565
O23 Y3 2.019064 1_555
O24 Si4 1.665491 1_555
O25 S8 1.466609 1_555
O25 Y4 2.289472 1_555
O26 S9 1.471163 1_555
O27 S10 1.473318 1_555
O27 Y4 2.207256 1_555
O28 S11 1.477811 1_555
O29 S12 1.475473 1_555
O29 Y4 2.230794 1_555
O30 S13 1.465526 1_555
O30 Y5 2.297310 1_555
O31 S14 1.488239 1_555
O32 S15 1.473354 1_555
O32 Y5 2.233873 1_555
O33 S16 1.489867 1_555
O34 S17 1.470280 1_555
O34 Y5 2.246227 1_555
O35 S18 1.478033 1_555
O36 S17 1.485052 1_555
O37 S18 1.501787 1_555
O38 S13 1.482237 1_555
O39 S14 1.480762 1_555
O40 S15 1.486709 1_555
O41 S16 1.484520 1_555
O42 S9 1.485335 1_555
O43 S10 1.495170 1_555
O44 S11 1.488808 1_555
O45 S12 1.489372 1_555
O46 Si4 1.627575 1_555
O47 S8 1.481819 1_555
O48 S19 1.485569 1_555
O48 Y6 2.274693 1_556
O49 S20 1.491226 1_555
O49 Y7 2.206301 1_556
O50 Si5 1.641854 1_555
O50 Y6 2.078807 1_556
O51 Si6 1.635973 1_555
O51 Y7 2.071522 1_556
O52 S21 1.483835 1_555
O52 Y6 2.218689 1_556
O53 S22 1.482566 1_555
O53 Y7 2.208526 1_556
O54 S23 1.484976 1_555
O54 Y8 2.221347 1_555
O55 S24 1.466997 1_555
O55 Y9 2.489634 1_555
O56 S25 1.478722 1_555
O56 Y8 2.224238 1_555
O57 S26 1.471432 1_555
O57 Y9 2.242729 1_555
O58 Si7 1.624443 1_555
O58 Y8 2.084138 1_555
O59 Si8 1.628374 1_555
O59 Y9 2.108472 1_555
O60 Si7 1.647068 1_555
O61 Si8 1.612818 1_555
O61 Y10 2.061113 1_555
O62 S23 1.502487 1_555
O63 S24 1.485492 1_555
O63 Y10 2.275855 1_555
O64 S25 1.487004 1_555
O65 S26 1.466817 1_555
O65 Y10 2.360191 1_555
O66 Si5 1.605533 1_555
O66 Y11 2.081080 1_555
O67 Si6 1.635974 1_555
O68 S21 1.461903 1_555
O68 Y11 2.379181 1_555
O69 S22 1.477724 1_555
O70 S19 1.480012 1_555
O70 Y11 2.305781 1_555
O71 S20 1.484386 1_555
O72 Si7 1.666303 1_555
O73 Si8 1.660764 1_555
O74 S23 1.464163 1_555
O75 S24 1.488153 1_545
O76 S25 1.507613 1_555
O77 S26 1.491007 1_555
O78 Si5 1.665856 1_555
O79 Si6 1.664498 1_555
O80 S21 1.485205 1_555
O81 S22 1.487008 1_555
O82 S19 1.468864 1_555
O83 S20 1.461278 1_555
O84 Si4 1.628489 1_555
O84 Y1 2.091195 1_555
O85 S8 1.486085 1_555
O85 Y0 2.293176 1_655
O86 S9 1.491703 1_555
O86 Y0 2.282926 1_555
O87 S10 1.478681 1_555
O87 Y1 2.315074 1_555
O88 S11 1.471368 1_555
O88 Y1 2.387504 1_565
O89 S12 1.483154 1_555
O89 Y0 2.364372 1_665
O90 S13 1.485407 1_555
O90 Y3 2.286954 1_555
O91 S14 1.484770 1_555
O91 Y2 2.291094 1_665
O92 S15 1.483315 1_555
O92 Y3 2.397758 1_545
O93 S16 1.481157 1_555
O93 Y2 2.410093 1_655
O94 S17 1.491230 1_555
O94 Y2 2.298949 1_555
O95 S18 1.478301 1_555
O95 Y3 2.346722 1_545
O96 S6 1.481385 1_555
O97 S7 1.488338 1_545
O97 Y4 2.292363 1_555
O98 Si2 1.657175 1_555
O99 Si3 1.619400 1_555
O99 Y4 2.069954 1_555
O100 S5 1.484793 1_555
O101 S4 1.485573 1_655
O101 Y4 2.279567 1_555
O102 S0 1.487475 1_555
O102 Y5 2.252125 1_555
O103 S1 1.510238 1_555
O104 S3 1.487455 1_555
O104 Y5 2.257383 1_555
O105 S2 1.508732 1_655
O106 Si0 1.613927 1_545
O106 Y5 2.069591 1_555
O107 Si1 1.671986 1_555
O108 S19 1.504999 1_555
O109 S20 1.519786 1_555
O110 Si6 1.642915 1_555
O111 Si5 1.640850 1_655
O112 S21 1.510722 1_545
O113 S22 1.508119 1_545
O114 S23 1.491935 1_545
O115 S24 1.508071 1_545
O116 S25 1.479816 1_555
O117 S26 1.511481 1_555
O118 Si8 1.647438 1_555
O119 Si7 1.643495 1_655
O120 S17 1.486113 1_555
O120 Y6 2.260501 1_555
O121 S18 1.482528 1_555
O121 Y7 2.308097 1_555
O122 S14 1.487192 1_455
O122 Y6 2.304958 1_555
O123 S13 1.482527 1_555
O123 Y7 2.251382 1_555
O124 S15 1.481545 1_565
O124 Y6 2.343597 1_555
O125 S16 1.480405 1_565
O125 Y7 2.406437 1_555
O126 S9 1.492223 1_565
O126 Y8 2.258876 1_555
O127 S10 1.474096 1_565
O127 Y9 2.257096 1_555
O128 S11 1.486370 1_555
O128 Y8 2.338895 1_555
O129 S12 1.469562 1_555
O129 Y9 2.365728 1_555
O130 S8 1.480801 1_455
O130 Y8 2.259618 1_555
O131 Si4 1.641891 1_555
O131 Y9 2.111189 1_555
O132 Si0 1.659746 1_555
O133 Si1 1.625768 1_565
O133 Y10 2.130901 1_555
O134 S0 1.479251 1_555
O135 S1 1.461008 1_555
O135 Y10 2.361467 1_555
O136 S2 1.493409 1_555
O137 S3 1.477808 1_555
O137 Y10 2.261360 1_555
O138 Si2 1.626632 1_555
O138 Y11 2.105808 1_555
O139 Si3 1.663548 1_555
O140 S4 1.478850 1_555
O140 Y11 2.251190 1_555
O141 S5 1.513663 1_555
O142 S6 1.465026 1_565
O142 Y11 2.294847 1_555
O143 S7 1.473826 1_555
