# generated using pymatgen
data_Ce4MgTi2O10
_symmetry_space_group_name_H-M   'P 1'
_cell_length_a   6.34307254
_cell_length_b   6.95867155
_cell_length_c   7.89123100
_cell_angle_alpha   68.20768160
_cell_angle_beta   117.70979633
_cell_angle_gamma   131.45219245
_symmetry_Int_Tables_number   1
_chemical_formula_structural   Ce4MgTi2O10
_chemical_formula_sum   'Ce4 Mg1 Ti2 O10'
_cell_volume   230.06571454
_cell_formula_units_Z   1
loop_
 _symmetry_equiv_pos_site_id
 _symmetry_equiv_pos_as_xyz
  1  'x, y, z'
loop_
 _atom_site_type_symbol
 _atom_site_label
 _atom_site_symmetry_multiplicity
 _atom_site_fract_x
 _atom_site_fract_y
 _atom_site_fract_z
 _atom_site_occupancy
  Ce  Ce0  1  0.30047964  0.51117185  0.73267214  1
  Ce  Ce1  1  0.30158069  0.65618929  0.21015782  1
  Ce  Ce2  1  0.70209785  0.34674974  0.78932106  1
  Ce  Ce3  1  0.70048011  0.48521635  0.26847774  1
  Mg  Mg0  1  0.48870834  0.99402483  0.50044091  1
  Ti  Ti0  1  0.99977628  0.00221758  0.49997762  1
  Ti  Ti1  1  0.99875738  0.99925148  0.00070194  1
  O  O0  1  0.04535070  0.70082747  0.57145379  1
  O  O1  1  0.33808366  0.00959114  0.21094441  1
  O  O2  1  0.58818734  0.75388329  0.52660479  1
  O  O3  1  0.20549075  0.10710915  0.78602782  1
  O  O4  1  0.80923337  0.61042801  0.98193685  1
  O  O5  1  0.19085224  0.38969088  0.01817445  1
  O  O6  1  0.79507574  0.89185630  0.21386365  1
  O  O7  1  0.41260515  0.24874196  0.47326991  1
  O  O8  1  0.66278580  0.99178003  0.78946832  1
  O  O9  1  0.96045396  0.30127064  0.42650878  1
loop_
_geom_bond_atom_site_label_1
_geom_bond_atom_site_label_2
_geom_bond_distance
_geom_bond_site_symmetry_2
Ce0 O2 2.338171 1_555
Ce0 O5 2.353423 1_556
Ce0 O3 2.357986 1_555
Ce0 O0 2.376040 1_555
Ce0 O9 2.495097 1_455
Ce0 O8 2.578043 1_555
Ce0 O4 2.629554 1_555
Ce1 O1 2.314618 1_565
Ce1 O2 2.324907 1_555
Ce1 O5 2.366329 1_555
Ce1 O6 2.375439 1_555
Ce1 O9 2.631700 1_455
Ce1 O4 2.641300 1_454
Ce2 O8 2.312205 1_545
Ce2 O7 2.324430 1_555
Ce2 O4 2.366021 1_555
Ce2 O3 2.388587 1_555
Ce2 O5 2.632362 1_656
Ce2 O0 2.645838 1_655
Ce3 O7 2.333524 1_555
Ce3 O4 2.353696 1_554
Ce3 O9 2.368526 1_555
Ce3 O6 2.374840 1_555
Ce3 O0 2.491312 1_655
Ce3 O1 2.552750 1_555
Ce3 O5 2.642893 1_555
Mg0 O1 2.016652 1_565
Mg0 O8 2.018845 1_555
Mg0 O7 2.043317 1_565
Mg0 O2 2.062038 1_555
Mg0 O0 2.324960 1_555
Mg0 O9 2.468290 1_565
O0 Ti0 2.138464 1_465
O1 Ti1 1.988232 1_445
O2 Ti0 2.028217 1_565
O3 Ti0 2.133980 1_455
O3 Ti1 2.229677 1_446
O4 Ti1 2.147863 1_556
O5 Ti1 2.150410 1_445
O6 Ti0 2.148062 1_565
O6 Ti1 2.206021 1_555
O7 Ti0 2.035092 1_455
O8 Ti1 1.984149 1_556
O9 Ti0 2.094251 1_555
