# generated using pymatgen
data_V2(PO4)3
_symmetry_space_group_name_H-M   'P 1'
_cell_length_a   8.58097700
_cell_length_b   8.50327400
_cell_length_c   14.57427621
_cell_angle_alpha   54.78567054
_cell_angle_beta   90.00000000
_cell_angle_gamma   90.00000000
_symmetry_Int_Tables_number   1
_chemical_formula_structural   V2(PO4)3
_chemical_formula_sum   'V8 P12 O48'
_cell_volume   868.82506383
_cell_formula_units_Z   4
loop_
 _symmetry_equiv_pos_site_id
 _symmetry_equiv_pos_as_xyz
  1  'x, y, z'
loop_
 _atom_site_type_symbol
 _atom_site_label
 _atom_site_symmetry_multiplicity
 _atom_site_fract_x
 _atom_site_fract_y
 _atom_site_fract_z
 _atom_site_occupancy
  V  V0  1  0.53165300  0.86988600  0.88358000  1
  V  V1  1  0.03165300  0.13011400  0.61642000  1
  V  V2  1  0.46849900  0.37048900  0.38067200  1
  V  V3  1  0.96849900  0.62951100  0.11932800  1
  V  V4  1  0.03150100  0.37048900  0.88067200  1
  V  V5  1  0.53150100  0.62951100  0.61932800  1
  V  V6  1  0.96834700  0.86988600  0.38358000  1
  V  V7  1  0.46834700  0.13011400  0.11642000  1
  P  P0  1  0.24893100  0.96621900  0.00431200  1
  P  P1  1  0.38449400  0.25029100  0.64345200  1
  P  P2  1  0.11577100  0.53315700  0.35695300  1
  P  P3  1  0.88449400  0.74970900  0.85654800  1
  P  P4  1  0.61577100  0.46684300  0.14304700  1
  P  P5  1  0.74893100  0.03378100  0.49568800  1
  P  P6  1  0.25106900  0.96621900  0.50431200  1
  P  P7  1  0.38422900  0.53315700  0.85695300  1
  P  P8  1  0.11550600  0.25029100  0.14345200  1
  P  P9  1  0.88422900  0.46684300  0.64304700  1
  P  P10  1  0.75106900  0.03378100  0.99568800  1
  P  P11  1  0.61550600  0.74970900  0.35654800  1
  O  O0  1  0.89435200  0.30578600  0.62688700  1
  O  O1  1  0.67543500  0.03381800  0.90081000  1
  O  O2  1  0.85326400  0.85347700  0.07282200  1
  O  O3  1  0.58760200  0.58668500  0.34004800  1
  O  O4  1  0.36582000  0.95990200  0.92615500  1
  O  O5  1  0.20713400  0.20736100  0.66115700  1
  O  O6  1  0.42787100  0.32732400  0.52191400  1
  O  O7  1  0.28550600  0.52139900  0.32334800  1
  O  O8  1  0.00694100  0.58235900  0.25746800  1
  O  O9  1  0.14804100  0.78282600  0.05830100  1
  O  O10  1  0.48364700  0.07535400  0.72549700  1
  O  O11  1  0.06679500  0.33586500  0.45831300  1
  O  O12  1  0.98364700  0.92464600  0.77450300  1
  O  O13  1  0.56679500  0.66413500  0.04168700  1
  O  O14  1  0.64804100  0.21717400  0.44169900  1
  O  O15  1  0.92787100  0.67267600  0.97808600  1
  O  O16  1  0.50694100  0.41764100  0.24253200  1
  O  O17  1  0.10564800  0.69421400  0.37311300  1
  O  O18  1  0.78550600  0.47860100  0.17665200  1
  O  O19  1  0.86582000  0.04009800  0.57384500  1
  O  O20  1  0.17543500  0.96618200  0.59919000  1
  O  O21  1  0.39435200  0.69421400  0.87311300  1
  O  O22  1  0.08760200  0.41331500  0.15995200  1
  O  O23  1  0.35326400  0.14652300  0.42717800  1
  O  O24  1  0.64673600  0.85347700  0.57282200  1
  O  O25  1  0.91239800  0.58668500  0.84004800  1
  O  O26  1  0.60564800  0.30578600  0.12688700  1
  O  O27  1  0.82456500  0.03381800  0.40081000  1
  O  O28  1  0.13418000  0.95990200  0.42615500  1
  O  O29  1  0.21449400  0.52139900  0.82334800  1
  O  O30  1  0.29286600  0.20736100  0.16115700  1
  O  O31  1  0.49305900  0.58235900  0.75746800  1
  O  O32  1  0.07212900  0.32732400  0.02191400  1
  O  O33  1  0.35195900  0.78282600  0.55830100  1
  O  O34  1  0.43320500  0.33586500  0.95831300  1
  O  O35  1  0.01635300  0.07535400  0.22549700  1
  O  O36  1  0.93320500  0.66413500  0.54168700  1
  O  O37  1  0.51635300  0.92464600  0.27450300  1
  O  O38  1  0.85195900  0.21717400  0.94169900  1
  O  O39  1  0.99305900  0.41764100  0.74253200  1
  O  O40  1  0.71449400  0.47860100  0.67665200  1
  O  O41  1  0.57212900  0.67267600  0.47808600  1
  O  O42  1  0.79286600  0.79263900  0.33884300  1
  O  O43  1  0.63418000  0.04009800  0.07384500  1
  O  O44  1  0.41239800  0.41331500  0.65995200  1
  O  O45  1  0.14673600  0.14652300  0.92717800  1
  O  O46  1  0.32456500  0.96618200  0.09919000  1
  O  O47  1  0.70713400  0.79263900  0.83884300  1
loop_
_geom_bond_atom_site_label_1
_geom_bond_atom_site_label_2
_geom_bond_distance
_geom_bond_site_symmetry_2
O0 P9 1.520054 1_555
O0 V1 1.976253 1_655
O1 P10 1.527348 1_555
O1 V0 1.982956 1_545
O2 P10 1.547796 1_564
O2 V3 1.890880 1_555
O3 P11 1.556042 1_555
O3 V2 1.876011 1_555
O4 P0 1.541755 1_556
O4 V0 1.882447 1_555
O5 P1 1.551598 1_555
O5 V1 1.902082 1_555
O6 P1 1.538538 1_555
O6 V2 1.903239 1_555
O7 P2 1.558112 1_555
O7 V2 1.890495 1_555
O8 P2 1.565193 1_555
O8 V3 1.841728 1_455
O9 P0 1.544463 1_555
O9 V3 1.878030 1_455
O10 P1 1.521559 1_555
O10 V0 1.971820 1_545
O11 P2 1.521576 1_555
O11 V1 1.952497 1_555
O12 P3 1.521559 1_555
O12 V1 1.971820 1_665
O13 P4 1.521576 1_555
O13 V0 1.952497 1_554
O14 P5 1.544463 1_555
O14 V2 1.878030 1_555
O15 P3 1.538538 1_555
O15 V3 1.903239 1_556
O16 P4 1.565193 1_555
O16 V2 1.841728 1_555
O17 P2 1.520054 1_555
O17 V6 1.976253 1_455
O18 P4 1.558112 1_555
O18 V3 1.890495 1_555
O19 P5 1.541755 1_555
O19 V1 1.882447 1_655
O20 P6 1.527348 1_555
O20 V1 1.982956 1_565
O21 P7 1.520054 1_555
O21 V0 1.976253 1_555
O22 P8 1.556042 1_555
O22 V3 1.876011 1_455
O23 P6 1.547796 1_545
O23 V2 1.890880 1_555
O24 P5 1.547796 1_565
O24 V5 1.890880 1_555
O25 P3 1.556042 1_555
O25 V4 1.876011 1_655
O26 P4 1.520054 1_555
O26 V7 1.976253 1_555
O27 P5 1.527348 1_555
O27 V6 1.982956 1_545
O28 P6 1.541755 1_555
O28 V6 1.882447 1_455
O29 P7 1.558112 1_555
O29 V4 1.890495 1_555
O30 P8 1.551598 1_555
O30 V7 1.902082 1_555
O31 P7 1.565193 1_555
O31 V5 1.841728 1_555
O32 P8 1.538538 1_555
O32 V4 1.903239 1_554
O33 P6 1.544463 1_555
O33 V5 1.878030 1_555
O34 P7 1.521576 1_555
O34 V7 1.952497 1_556
O35 P8 1.521559 1_555
O35 V6 1.971820 1_445
O36 P9 1.521576 1_555
O36 V6 1.952497 1_555
O37 P11 1.521559 1_555
O37 V7 1.971820 1_565
O38 P10 1.544463 1_555
O38 V4 1.878030 1_655
O39 P9 1.565193 1_555
O39 V4 1.841728 1_655
O40 P9 1.558112 1_555
O40 V5 1.890495 1_555
O41 P11 1.538538 1_555
O41 V5 1.903239 1_555
O42 P11 1.551598 1_555
O42 V6 1.902082 1_555
O43 P10 1.541755 1_554
O43 V7 1.882447 1_555
O44 P1 1.556042 1_555
O44 V5 1.876011 1_555
O45 P0 1.547796 1_546
O45 V4 1.890880 1_555
O46 P0 1.527348 1_555
O46 V7 1.982956 1_565
O47 P3 1.551598 1_555
O47 V0 1.902082 1_555
