# generated using pymatgen
data_Na6MgSi6Sn7(SO8)6
_symmetry_space_group_name_H-M   'P 1'
_cell_length_a   17.77262451
_cell_length_b   8.86717764
_cell_length_c   22.99123226
_cell_angle_alpha   89.88193353
_cell_angle_beta   90.22568835
_cell_angle_gamma   119.95935799
_symmetry_Int_Tables_number   1
_chemical_formula_structural   Na6MgSi6Sn7(SO8)6
_chemical_formula_sum   'Na18 Mg3 Si18 Sn21 S18 O144'
_cell_volume   3139.09310395
_cell_formula_units_Z   3
loop_
 _symmetry_equiv_pos_site_id
 _symmetry_equiv_pos_as_xyz
  1  'x, y, z'
loop_
 _atom_site_type_symbol
 _atom_site_label
 _atom_site_symmetry_multiplicity
 _atom_site_fract_x
 _atom_site_fract_y
 _atom_site_fract_z
 _atom_site_occupancy
  Na  Na0  1  0.68796175  0.37782246  0.25290206  1
  Na  Na1  1  0.99615654  0.64585645  0.25394917  1
  Na  Na2  1  0.99733274  0.35594374  0.75245290  1
  Na  Na3  1  0.49462989  0.36098311  0.74761610  1
  Na  Na4  1  0.19194757  0.01608947  0.75443462  1
  Na  Na5  1  0.68491391  0.00682329  0.74979899  1
  Na  Na6  1  0.99726887  0.99777779  0.49081714  1
  Na  Na7  1  0.50800086  0.00407751  0.49700564  1
  Na  Na8  1  0.01167684  0.01907929  0.99838482  1
  Na  Na9  1  0.50244787  0.98795023  0.99764829  1
  Na  Na10  1  0.33076199  0.33593310  0.82524377  1
  Na  Na11  1  0.82797363  0.32229698  0.83021142  1
  Na  Na12  1  0.33325614  0.33314386  0.33209118  1
  Na  Na13  1  0.83427710  0.33512920  0.33895322  1
  Na  Na14  1  0.17036119  0.66603912  0.16612139  1
  Na  Na15  1  0.66274888  0.66539880  0.17111588  1
  Na  Na16  1  0.17725437  0.66539548  0.66978975  1
  Na  Na17  1  0.67068799  0.66631391  0.66891074  1
  Mg  Mg0  1  0.33356345  0.33682384  0.69064578  1
  Mg  Mg1  1  0.82878356  0.32842557  0.68726763  1
  Mg  Mg2  1  0.83454724  0.33727735  0.18615621  1
  Si  Si0  1  0.14892741  0.00171848  0.25201934  1
  Si  Si1  1  0.85388131  0.71233059  0.24818933  1
  Si  Si2  1  0.49811673  0.28857265  0.24947137  1
  Si  Si3  1  0.14796583  0.29577834  0.74862271  1
  Si  Si4  1  0.65016324  0.29795568  0.75059680  1
  Si  Si5  1  0.49663848  0.70305589  0.74967041  1
  Si  Si6  1  0.35331685  0.99430158  0.75097838  1
  Si  Si7  1  0.85687103  0.00109396  0.75000138  1
  Si  Si8  1  0.47705494  0.62146831  0.08415397  1
  Si  Si9  1  0.18443287  0.33498434  0.08573508  1
  Si  Si10  1  0.01978092  0.37573388  0.91586902  1
  Si  Si11  1  0.16821984  0.95915761  0.91740728  1
  Si  Si12  1  0.66294526  0.95974582  0.91590292  1
  Si  Si13  1  0.81273565  0.95535260  0.41547369  1
  Si  Si14  1  0.16659182  0.37389006  0.41560667  1
  Si  Si15  1  0.66503243  0.37379152  0.41787367  1
  Si  Si16  1  0.02126590  0.66726981  0.41829910  1
  Si  Si17  1  0.52105536  0.66754862  0.41468097  1
  Sn  Sn0  1  0.00107236  0.99012015  0.35605676  1
  Sn  Sn1  1  0.50461001  0.01005851  0.35508606  1
  Sn  Sn2  1  0.00830359  0.02095379  0.85513298  1
  Sn  Sn3  1  0.50415422  0.99670310  0.84776521  1
  Sn  Sn4  1  0.99719441  0.00516534  0.64957872  1
  Sn  Sn5  1  0.50057488  0.00332061  0.65470850  1
  Sn  Sn6  1  0.00546095  0.99805926  0.15156467  1
  Sn  Sn7  1  0.49892460  0.99615651  0.14793706  1
  Sn  Sn8  1  0.33259606  0.33406478  0.18670612  1
  Sn  Sn9  1  0.32521210  0.33167800  0.98415634  1
  Sn  Sn10  1  0.83434256  0.32390138  0.97763831  1
  Sn  Sn11  1  0.33528736  0.34662851  0.47865935  1
  Sn  Sn12  1  0.83227195  0.33063751  0.47585414  1
  Sn  Sn13  1  0.16205426  0.65562522  0.01722904  1
  Sn  Sn14  1  0.65986568  0.67185677  0.01951325  1
  Sn  Sn15  1  0.16253042  0.65620828  0.51571196  1
  Sn  Sn16  1  0.66649855  0.67168476  0.51041746  1
  Sn  Sn17  1  0.16350316  0.66347374  0.31811806  1
  Sn  Sn18  1  0.66779607  0.66074112  0.31681362  1
  Sn  Sn19  1  0.16944896  0.66705983  0.81668501  1
  Sn  Sn20  1  0.66999605  0.67803108  0.81161801  1
  S  S0  1  0.64724137  0.99878709  0.24816678  1
  S  S1  1  0.35356959  0.71005064  0.25167651  1
  S  S2  1  0.99921199  0.29147557  0.24939544  1
  S  S3  1  0.99771384  0.70931246  0.74970289  1
  S  S4  1  0.47926233  0.33313636  0.58354295  1
  S  S5  1  0.97920635  0.33458427  0.58484460  1
  S  S6  1  0.18731233  0.03890123  0.58386089  1
  S  S7  1  0.68608842  0.03906002  0.58435575  1
  S  S8  1  0.33366932  0.63063675  0.58399395  1
  S  S9  1  0.83415820  0.62535910  0.58468472  1
  S  S10  1  0.97619791  0.62102708  0.08356186  1
  S  S11  1  0.33299253  0.03861850  0.08293106  1
  S  S12  1  0.83384557  0.04177528  0.08504934  1
  S  S13  1  0.68938078  0.33593755  0.08235960  1
  S  S14  1  0.31568109  0.66966348  0.91785922  1
  S  S15  1  0.81053247  0.66642258  0.91913943  1
  S  S16  1  0.51932376  0.37244249  0.91757534  1
  S  S17  1  0.31281610  0.95926604  0.41857107  1
  O  O0  1  0.10473316  0.03601027  0.30729451  1
  O  O1  1  0.60840791  0.03354374  0.29995575  1
  O  O2  1  0.40754360  0.79218482  0.30344489  1
  O  O3  1  0.91966859  0.79531354  0.30309226  1
  O  O4  1  0.48022997  0.16031629  0.30530686  1
  O  O5  1  0.98659378  0.18959308  0.30159079  1
  O  O6  1  0.10797451  0.16562485  0.80455028  1
  O  O7  1  0.60957798  0.17272955  0.80752953  1
  O  O8  1  0.47877511  0.78081607  0.80836751  1
  O  O9  1  0.98371495  0.78510432  0.80186775  1
  O  O10  1  0.41594146  0.03832538  0.80866529  1
  O  O11  1  0.91780284  0.03203798  0.80701674  1
  O  O12  1  0.39043516  0.95038689  0.69186214  1
  O  O13  1  0.89148394  0.95255101  0.69058832  1
  O  O14  1  0.08240318  0.21706781  0.69097025  1
  O  O15  1  0.58505911  0.22556260  0.69270336  1
  O  O16  1  0.01760405  0.82219027  0.69636815  1
  O  O17  1  0.52694238  0.83547131  0.69259693  1
  O  O18  1  0.39128711  0.81402702  0.19732596  1
  O  O19  1  0.89536607  0.83186978  0.18871334  1
  O  O20  1  0.01517954  0.21799660  0.19584498  1
  O  O21  1  0.52163909  0.20358092  0.19177156  1
  O  O22  1  0.08649290  0.94245803  0.19338592  1
  O  O23  1  0.59180846  0.96710607  0.19508280  1
  O  O24  1  0.43813164  0.35357821  0.63534011  1
  O  O25  1  0.94002084  0.35494511  0.63771704  1
  O  O26  1  0.23807324  0.11882610  0.63617196  1
  O  O27  1  0.73669934  0.11772218  0.63688777  1
  O  O28  1  0.32008799  0.52180182  0.63467133  1
  O  O29  1  0.82546692  0.52285742  0.63636724  1
  O  O30  1  0.43559673  0.50607850  0.14154949  1
  O  O31  1  0.93661687  0.51678096  0.13567816  1
  O  O32  1  0.31918518  0.11312014  0.13539013  1
  O  O33  1  0.82013486  0.12470435  0.13524090  1
  O  O34  1  0.24534188  0.36890269  0.14228025  1
  O  O35  1  0.73882154  0.35745947  0.13532963  1
  O  O36  1  0.22108519  0.29258714  0.02667731  1
  O  O37  1  0.72993516  0.30898416  0.02964805  1
  O  O38  1  0.42141255  0.53974061  0.02410940  1
  O  O39  1  0.92286800  0.53844084  0.03010573  1
  O  O40  1  0.34967088  0.14620261  0.02988898  1
  O  O41  1  0.84600588  0.14410123  0.03023033  1
  O  O42  1  0.22655191  0.14487606  0.53036723  1
  O  O43  1  0.72693319  0.14621871  0.53168212  1
  O  O44  1  0.34589163  0.55388382  0.52956878  1
  O  O45  1  0.84697484  0.54795105  0.53104925  1
  O  O46  1  0.42446905  0.30416820  0.52989251  1
  O  O47  1  0.92778087  0.31338757  0.53202773  1
  O  O48  1  0.27569914  0.69361084  0.97055605  1
  O  O49  1  0.76993402  0.69296031  0.97218464  1
  O  O50  1  0.07861744  0.45316754  0.97371907  1
  O  O51  1  0.57630889  0.45012061  0.97017928  1
  O  O52  1  0.15570813  0.84397705  0.97605226  1
  O  O53  1  0.64924195  0.84463528  0.97426237  1
  O  O54  1  0.27457235  0.85237235  0.47163087  1
  O  O55  1  0.77674153  0.84391587  0.47642767  1
  O  O56  1  0.15343940  0.45527383  0.47619334  1
  O  O57  1  0.64588049  0.45157026  0.47654869  1
  O  O58  1  0.08352609  0.71046517  0.47586820  1
  O  O59  1  0.57572687  0.71081754  0.47582743  1
  O  O60  1  0.05752279  0.62855860  0.35772453  1
  O  O61  1  0.56214438  0.63429291  0.35725960  1
  O  O62  1  0.26025125  0.88652252  0.36533775  1
  O  O63  1  0.75077338  0.87666460  0.35851215  1
  O  O64  1  0.19176696  0.50421982  0.35901191  1
  O  O65  1  0.68262159  0.47547457  0.35617814  1
  O  O66  1  0.06036681  0.48604137  0.85581148  1
  O  O67  1  0.55949963  0.47794508  0.86468513  1
  O  O68  1  0.18434014  0.88021634  0.85724257  1
  O  O69  1  0.68319630  0.87900551  0.85844262  1
  O  O70  1  0.26241912  0.63735832  0.86478350  1
  O  O71  1  0.75596547  0.63172973  0.86640969  1
  O  O72  1  0.01344290  0.83956522  0.41580873  1
  O  O73  1  0.50272026  0.83166798  0.40765203  1
  O  O74  1  0.39880339  0.97382228  0.41292344  1
  O  O75  1  0.90844869  0.97908291  0.40895523  1
  O  O76  1  0.07906195  0.19072695  0.40924524  1
  O  O77  1  0.57763066  0.18085992  0.41477751  1
  O  O78  1  0.00521849  0.17907946  0.91510490  1
  O  O79  1  0.50907331  0.19628436  0.91338099  1
  O  O80  1  0.07708964  0.96477116  0.91250167  1
  O  O81  1  0.57544600  0.97706307  0.91322253  1
  O  O82  1  0.40141160  0.82996839  0.91316195  1
  O  O83  1  0.89700792  0.81989321  0.91300786  1
  O  O84  1  0.48856992  0.17294137  0.58602488  1
  O  O85  1  0.98949315  0.17528765  0.58573003  1
  O  O86  1  0.09672581  0.01409973  0.58765798  1
  O  O87  1  0.59700941  0.02137847  0.58684240  1
  O  O88  1  0.41262305  0.80741799  0.58707480  1
  O  O89  1  0.91626093  0.80530053  0.58766550  1
  O  O90  1  0.48997303  0.82200152  0.08994618  1
  O  O91  1  0.98399022  0.79618278  0.08558184  1
  O  O92  1  0.41244641  0.01987967  0.08787380  1
  O  O93  1  0.91237740  0.02474636  0.08872685  1
  O  O94  1  0.08567023  0.16172004  0.09148523  1
  O  O95  1  0.60009409  0.17953609  0.08517554  1
  O  O96  1  0.34351888  0.16379764  0.74276171  1
  O  O97  1  0.85114475  0.17713280  0.74308341  1
  O  O98  1  0.23906934  0.30732954  0.74030444  1
  O  O99  1  0.74214727  0.31022662  0.74260644  1
  O  O100  1  0.41856735  0.51019310  0.74207155  1
  O  O101  1  0.92367534  0.53439927  0.74065962  1
  O  O102  1  0.34570770  0.53738704  0.24713026  1
  O  O103  1  0.84288767  0.51725917  0.24095520  1
  O  O104  1  0.41256381  0.30725364  0.24317682  1
  O  O105  1  0.92346338  0.31705826  0.24125029  1
  O  O106  1  0.24353232  0.17343708  0.24408953  1
  O  O107  1  0.73219708  0.15822884  0.24006254  1
  O  O108  1  0.32588396  0.51327918  0.92177648  1
  O  O109  1  0.81846833  0.50789827  0.92613057  1
  O  O110  1  0.43412816  0.36160862  0.92462731  1
  O  O111  1  0.92614179  0.37018377  0.92100308  1
  O  O112  1  0.25704403  0.15456766  0.92274765  1
  O  O113  1  0.74916488  0.15368178  0.92262326  1
  O  O114  1  0.32169316  0.13345546  0.42558494  1
  O  O115  1  0.82036465  0.14556977  0.42329801  1
  O  O116  1  0.25203451  0.34906096  0.42262560  1
  O  O117  1  0.75100738  0.35565903  0.42425442  1
  O  O118  1  0.42652533  0.48764155  0.42215295  1
  O  O119  1  0.92801400  0.49224418  0.42505815  1
  O  O120  1  0.17866834  0.51631256  0.07962714  1
  O  O121  1  0.68192060  0.49673320  0.07487794  1
  O  O122  1  0.06468547  0.64189918  0.07882883  1
  O  O123  1  0.57513437  0.64075348  0.08072358  1
  O  O124  1  0.25538949  0.86263118  0.07660706  1
  O  O125  1  0.75503775  0.86316475  0.07850845  1
  O  O126  1  0.17995271  0.86167887  0.57815379  1
  O  O127  1  0.67692009  0.86101267  0.57904504  1
  O  O128  1  0.25402524  0.65153645  0.57779524  1
  O  O129  1  0.75585787  0.64699125  0.58008447  1
  O  O130  1  0.06904258  0.49359449  0.58119361  1
  O  O131  1  0.56705194  0.49221054  0.57766856  1
  O  O132  1  0.15630970  0.81978068  0.25764030  1
  O  O133  1  0.65448114  0.84224360  0.25344538  1
  O  O134  1  0.26645784  0.69509941  0.25579474  1
  O  O135  1  0.75646961  0.68921632  0.25274346  1
  O  O136  1  0.07910315  0.47167901  0.25294608  1
  O  O137  1  0.58768089  0.47676313  0.25428022  1
  O  O138  1  0.14720199  0.47995352  0.75610439  1
  O  O139  1  0.65001568  0.48096760  0.75978091  1
  O  O140  1  0.07894983  0.69610835  0.75401933  1
  O  O141  1  0.58702495  0.69319498  0.75551893  1
  O  O142  1  0.25385748  0.82457579  0.75596807  1
  O  O143  1  0.75904227  0.83365042  0.75417615  1
loop_
_geom_bond_atom_site_label_1
_geom_bond_atom_site_label_2
_geom_bond_distance
_geom_bond_site_symmetry_2
Na0 O137 2.347208 1_555
Na0 O135 2.397670 1_555
Na0 O103 2.406231 1_555
Na0 O107 2.455576 1_555
Na0 O65 2.547372 1_555
Na0 O1 2.859431 1_555
Na0 O35 2.888057 1_555
Na0 O21 2.918059 1_555
Na1 O103 2.387949 1_555
Na1 O132 2.470152 1_655
Na1 O105 2.548148 1_555
Na1 O3 2.588138 1_555
Na1 O136 2.614102 1_655
Na1 O60 2.655320 1_655
Na1 O22 2.686763 1_655
Na1 O31 2.933301 1_555
Na2 O97 2.278881 1_555
Na2 O138 2.320371 1_655
Na2 O101 2.521028 1_555
Na2 O140 2.614111 1_655
Na2 O66 2.632940 1_655
Na2 O14 2.772017 1_655
Na2 O11 2.786613 1_555
Na2 O25 2.822432 1_555
Na3 O100 2.319167 1_555
Na3 O96 2.364471 1_555
Na3 O139 2.428430 1_555
Na3 O141 2.564307 1_555
Na3 O15 2.751103 1_555
Na3 O24 2.755075 1_555
Na3 O10 2.848544 1_555
Na3 O67 2.905536 1_555
Na4 O98 2.305358 1_555
Na4 O96 2.350423 1_555
Na4 O142 2.441600 1_545
Na4 O140 2.528342 1_545
Na4 O68 2.623914 1_545
Na4 O6 2.703589 1_555
Na4 O26 2.855937 1_555
Na4 O16 2.999223 1_545
Na5 O99 2.359276 1_555
Na5 O141 2.438436 1_545
Na5 O143 2.474389 1_545
Na5 O97 2.564998 1_555
Na5 O69 2.734799 1_545
Na5 O17 2.763910 1_545
Na5 O27 2.767215 1_555
Na5 O7 2.776319 1_555
Na6 O72 2.332687 1_655
Na6 O75 2.403789 1_555
Na6 O76 2.466144 1_665
Na6 O85 2.737195 1_565
Na6 O89 2.738458 1_555
Na6 O86 2.795973 1_665
Na7 O77 2.373076 1_555
Na7 O73 2.536626 1_545
Na7 O87 2.554464 1_555
Na7 O74 2.651045 1_545
Na7 O84 2.661726 1_555
Na7 O88 2.694987 1_545
Na8 O78 2.416992 1_555
Na8 O80 2.462413 1_545
Na8 O94 2.497713 1_556
Na8 O91 2.680991 1_446
Na8 O83 2.741095 1_445
Na8 O93 2.747582 1_456
Na9 O81 2.367672 1_555
Na9 O90 2.526364 1_556
Na9 O82 2.535999 1_555
Na9 O79 2.636258 1_565
Na9 O95 2.643733 1_566
Na9 O92 2.724473 1_566
Na10 O100 2.466269 1_555
Na10 O98 2.469373 1_555
Na10 O96 2.517601 1_555
Na10 O112 2.689251 1_555
Na10 O108 2.749234 1_555
Na10 O110 2.863401 1_555
Na11 O99 2.491704 1_555
Na11 O97 2.527005 1_555
Na11 O113 2.574917 1_555
Na11 O111 2.610867 1_555
Na11 O101 2.736041 1_555
Na11 O109 2.809980 1_555
Na12 O106 2.524452 1_555
Na12 O104 2.562458 1_555
Na12 O118 2.574609 1_555
Na12 O116 2.581604 1_555
Na12 O102 2.594812 1_555
Na12 O114 2.724405 1_555
Na13 O115 2.494419 1_555
Na13 O119 2.510506 1_555
Na13 O117 2.522488 1_555
Na13 O103 2.729266 1_555
Na13 O105 2.804864 1_555
Na13 O107 2.839223 1_555
Na14 O120 2.438851 1_555
Na14 O132 2.589245 1_555
Na14 O134 2.601691 1_555
Na14 O136 2.608664 1_555
Na14 O124 2.633752 1_555
Na14 O122 2.677996 1_555
Na15 O135 2.442698 1_555
Na15 O137 2.451893 1_555
Na15 O133 2.511581 1_555
Na15 O123 2.535348 1_555
Na15 O125 2.727300 1_555
Na15 O121 2.788755 1_555
Na16 O142 2.417129 1_555
Na16 O138 2.458664 1_555
Na16 O128 2.557641 1_555
Na16 O130 2.687802 1_555
Na16 O126 2.715252 1_555
Na16 O140 2.716776 1_555
Na17 O143 2.484165 1_555
Na17 O139 2.567044 1_555
Na17 O141 2.571377 1_555
Na17 O129 2.603101 1_555
Na17 O127 2.656653 1_555
Na17 O131 2.705440 1_555
Mg0 O100 1.928048 1_555
Mg0 O98 1.941010 1_555
Mg0 O96 2.020601 1_555
Mg0 O28 2.187488 1_555
Mg0 O24 2.198822 1_555
Mg0 O26 2.214054 1_555
Mg1 O99 1.944754 1_555
Mg1 O97 2.031217 1_555
Mg1 O29 2.106661 1_555
Mg1 O27 2.109691 1_555
Mg1 O101 2.145544 1_555
Mg1 O25 2.194060 1_555
Mg2 O103 1.981627 1_555
Mg2 O31 2.072738 1_555
Mg2 O105 2.097655 1_555
Mg2 O107 2.119145 1_555
Mg2 O33 2.124470 1_555
Mg2 O35 2.139988 1_555
O0 Si0 1.603879 1_555
O0 Sn0 2.020459 1_545
O1 S0 1.486439 1_545
O1 Sn1 2.164888 1_555
O2 S1 1.471064 1_555
O2 Sn1 2.186929 1_565
O3 Si1 1.623202 1_555
O3 Sn0 2.014587 1_655
O4 Si2 1.636615 1_555
O4 Sn1 1.959385 1_555
O5 S2 1.449769 1_555
O5 Sn0 2.281612 1_645
O6 Si3 1.634721 1_555
O6 Sn2 1.968877 1_555
O7 Si4 1.633440 1_555
O7 Sn3 1.972157 1_545
O8 Si5 1.619651 1_555
O8 Sn3 1.957048 1_555
O9 S3 1.457615 1_555
O9 Sn2 2.271093 1_665
O10 Si6 1.645228 1_545
O10 Sn3 1.991905 1_545
O11 Si7 1.630909 1_555
O11 Sn2 1.990966 1_655
O12 Si6 1.643149 1_555
O12 Sn5 1.968640 1_565
O13 Si7 1.644114 1_565
O13 Sn4 1.942437 1_565
O14 Si3 1.667694 1_555
O14 Sn4 1.970674 1_455
O15 Si4 1.664963 1_555
O15 Sn5 1.985585 1_555
O16 S3 1.508440 1_455
O16 Sn4 2.121027 1_465
O17 Si5 1.660771 1_555
O17 Sn5 1.970193 1_565
O18 S1 1.498477 1_555
O18 Sn7 2.116839 1_555
O19 Si1 1.660849 1_555
O19 Sn6 1.964115 1_655
O20 S2 1.487150 1_455
O20 Sn6 2.130730 1_545
O21 Si2 1.680994 1_555
O21 Sn7 1.955608 1_545
O22 Si0 1.653304 1_565
O22 Sn6 1.984422 1_555
O23 S0 1.501523 1_555
O23 Sn7 2.091854 1_555
O24 S4 1.457910 1_555
O25 S5 1.458922 1_555
O26 S6 1.455683 1_555
O27 S7 1.456916 1_555
O28 S8 1.453295 1_555
O29 S9 1.455561 1_555
O30 Si8 1.606317 1_555
O30 Sn8 1.993772 1_555
O31 S10 1.462073 1_555
O32 S11 1.455622 1_555
O32 Sn8 2.197270 1_555
O33 S12 1.454795 1_555
O34 Si9 1.617947 1_555
O34 Sn8 2.002038 1_555
O35 S13 1.454893 1_555
O36 Si9 1.631864 1_555
O36 Sn9 1.967942 1_554
O37 S13 1.491794 1_555
O37 Sn10 2.159229 1_554
O38 Si8 1.639053 1_555
O38 Sn9 2.003715 1_554
O39 S10 1.498804 1_555
O39 Sn10 2.134156 1_554
O40 S11 1.483486 1_555
O40 Sn9 2.168565 1_554
O41 S12 1.503348 1_555
O41 Sn10 2.089746 1_554
O42 S6 1.493140 1_555
O42 Sn11 2.214660 1_555
O43 S7 1.486504 1_555
O43 Sn12 2.186123 1_555
O44 S8 1.493131 1_555
O44 Sn11 2.108107 1_555
O45 S9 1.485101 1_555
O45 Sn12 2.212775 1_555
O46 S4 1.509242 1_555
O46 Sn11 2.149633 1_555
O47 S5 1.471689 1_555
O47 Sn12 2.194065 1_555
O48 S14 1.475282 1_555
O48 Sn13 2.163447 1_556
O49 S15 1.497015 1_555
O49 Sn14 2.167054 1_556
O50 Si10 1.615430 1_555
O50 Sn13 1.938908 1_556
O51 S16 1.503301 1_555
O51 Sn14 2.106502 1_556
O52 Si11 1.637187 1_555
O52 Sn13 1.969556 1_556
O53 Si12 1.627916 1_555
O53 Sn14 1.935465 1_556
O54 S17 1.485560 1_555
O54 Sn15 2.137086 1_555
O55 Si13 1.649117 1_555
O55 Sn16 1.949484 1_555
O56 Si14 1.640409 1_555
O56 Sn15 1.934981 1_555
O57 Si15 1.628883 1_555
O57 Sn16 1.959544 1_555
O58 Si16 1.640193 1_555
O58 Sn15 1.924814 1_555
O59 Si17 1.639148 1_555
O59 Sn16 1.975676 1_555
O60 Si16 1.643952 1_555
O60 Sn17 1.975532 1_555
O61 Si17 1.608543 1_555
O61 Sn18 2.004630 1_555
O62 S17 1.476192 1_555
O62 Sn17 2.155101 1_555
O63 Si13 1.624691 1_555
O63 Sn18 1.983955 1_555
O64 Si14 1.646440 1_555
O64 Sn17 1.956963 1_555
O65 Si15 1.624626 1_555
O65 Sn18 2.002899 1_555
O66 Si10 1.637445 1_555
O66 Sn19 2.010945 1_555
O67 S16 1.482799 1_555
O67 Sn20 2.241199 1_555
O68 Si11 1.641001 1_555
O68 Sn19 2.004424 1_555
O69 Si12 1.628610 1_555
O69 Sn20 1.994531 1_555
O70 S14 1.479427 1_555
O70 Sn19 2.107479 1_555
O71 S15 1.482961 1_555
O71 Sn20 2.167763 1_555
O72 Si16 1.602633 1_555
O72 Sn0 2.000253 1_555
O73 Si17 1.649964 1_555
O73 Sn1 1.975670 1_565
O74 S17 1.474266 1_555
O74 Sn1 2.195924 1_565
O75 Si13 1.613927 1_555
O75 Sn0 2.013195 1_655
O76 Si14 1.598420 1_555
O76 Sn0 2.028268 1_545
O77 Si15 1.640171 1_555
O77 Sn1 1.973035 1_555
O78 Si10 1.630141 1_555
O78 Sn2 1.988840 1_555
O79 S16 1.482794 1_555
O79 Sn3 2.295830 1_545
O80 Si11 1.648464 1_555
O80 Sn2 2.018733 1_565
O81 Si12 1.638106 1_555
O81 Sn3 2.026047 1_555
O82 S14 1.480283 1_555
O82 Sn3 2.257637 1_555
O83 S15 1.464868 1_555
O83 Sn2 2.313095 1_665
O84 S4 1.510846 1_555
O84 Sn5 2.260399 1_555
O85 S5 1.512218 1_555
O85 Sn4 2.155165 1_555
O86 S6 1.515044 1_555
O86 Sn4 2.245339 1_455
O87 S7 1.512294 1_555
O87 Sn5 2.267958 1_555
O88 S8 1.494661 1_555
O88 Sn5 2.271317 1_565
O89 S9 1.534292 1_555
O89 Sn4 2.164318 1_565
O90 Si8 1.680863 1_555
O90 Sn7 1.987243 1_555
O91 S10 1.489627 1_555
O91 Sn6 2.230637 1_655
O92 S11 1.505844 1_555
O92 Sn7 2.149047 1_545
O93 S12 1.479015 1_555
O93 Sn6 2.291465 1_645
O94 Si9 1.663262 1_555
O94 Sn6 1.996794 1_545
O95 S13 1.499354 1_555
O95 Sn7 2.247181 1_545
O96 Si6 1.607744 1_545
O97 Si7 1.621663 1_555
O98 Si3 1.582854 1_555
O99 Si4 1.594608 1_555
O100 Si5 1.584211 1_555
O101 S3 1.463241 1_555
O102 S1 1.470173 1_555
O102 Sn8 2.196097 1_555
O103 Si1 1.649604 1_555
O104 Si2 1.615558 1_555
O104 Sn8 2.020831 1_555
O105 S2 1.483839 1_555
O106 Si0 1.619572 1_555
O106 Sn8 2.007925 1_555
O107 S0 1.477288 1_545
O108 S14 1.488083 1_555
O108 Sn9 2.149765 1_555
O109 S15 1.489470 1_555
O109 Sn10 2.143135 1_555
O110 S16 1.478092 1_555
O110 Sn9 2.279676 1_555
O111 Si10 1.644896 1_655
O111 Sn10 1.967626 1_555
O112 Si11 1.666402 1_545
O112 Sn9 2.005706 1_555
O113 Si12 1.642119 1_545
O113 Sn10 1.969878 1_555
O114 S17 1.481225 1_545
O114 Sn11 2.161353 1_555
O115 Si13 1.633497 1_545
O115 Sn12 1.963956 1_555
O116 Si14 1.646912 1_555
O116 Sn11 1.966257 1_555
O117 Si15 1.620392 1_555
O117 Sn12 1.961647 1_555
O118 Si17 1.649625 1_555
O118 Sn11 1.966085 1_555
O119 Si16 1.616042 1_655
O119 Sn12 1.971336 1_555
O120 Si9 1.667016 1_555
O120 Sn13 2.006228 1_555
O121 S13 1.505890 1_555
O121 Sn14 2.186578 1_555
O122 S10 1.493286 1_455
O122 Sn13 2.196236 1_555
O123 Si8 1.666515 1_555
O123 Sn14 1.981053 1_555
O124 S11 1.486029 1_565
O124 Sn13 2.221714 1_555
O125 S12 1.508798 1_565
O125 Sn14 2.168877 1_555
O126 S6 1.516324 1_565
O126 Sn15 2.218146 1_555
O127 S7 1.509204 1_565
O127 Sn16 2.245061 1_555
O128 S8 1.522678 1_555
O128 Sn15 2.175331 1_555
O129 S9 1.499966 1_555
O129 Sn16 2.336993 1_555
O130 S5 1.515393 1_455
O130 Sn15 2.173537 1_555
O131 S4 1.498343 1_555
O131 Sn16 2.291123 1_555
O132 Si0 1.687301 1_565
O132 Sn17 2.009566 1_555
O133 S0 1.461394 1_555
O133 Sn18 2.266455 1_555
O134 S1 1.489825 1_555
O134 Sn17 2.233024 1_555
O135 Si1 1.642308 1_555
O135 Sn18 2.082454 1_555
O136 S2 1.519731 1_455
O136 Sn17 2.198269 1_555
O137 Si2 1.636163 1_555
O137 Sn18 2.104596 1_555
O138 Si3 1.649289 1_555
O138 Sn19 2.049126 1_555
O139 Si4 1.638212 1_555
O139 Sn20 1.996342 1_555
O140 S3 1.508544 1_455
O140 Sn19 2.263429 1_555
O141 Si5 1.656744 1_555
O141 Sn20 2.009590 1_555
O142 Si6 1.657289 1_555
O142 Sn19 2.016368 1_555
O143 Si7 1.630671 1_565
O143 Sn20 1.995163 1_555
