# generated using pymatgen
data_MgFe6(OF)6
_symmetry_space_group_name_H-M   'P 1'
_cell_length_a   5.14040517
_cell_length_b   14.80139660
_cell_length_c   3.06929738
_cell_angle_alpha   90.41557984
_cell_angle_beta   89.28513451
_cell_angle_gamma   89.35048301
_symmetry_Int_Tables_number   1
_chemical_formula_structural   MgFe6(OF)6
_chemical_formula_sum   'Mg1 Fe6 O6 F6'
_cell_volume   233.48846429
_cell_formula_units_Z   1
loop_
 _symmetry_equiv_pos_site_id
 _symmetry_equiv_pos_as_xyz
  1  'x, y, z'
loop_
 _atom_site_type_symbol
 _atom_site_label
 _atom_site_symmetry_multiplicity
 _atom_site_fract_x
 _atom_site_fract_y
 _atom_site_fract_z
 _atom_site_occupancy
  Mg  Mg0  1  0.52649750  0.00089239  0.99805637  1
  Fe  Fe0  1  0.05700505  0.91264298  0.00138667  1
  Fe  Fe1  1  0.02234742  0.35060925  0.01162170  1
  Fe  Fe2  1  0.01359477  0.66119223  0.02091230  1
  Fe  Fe3  1  0.51458175  0.22911111  0.50892774  1
  Fe  Fe4  1  0.44546084  0.50661821  0.51262955  1
  Fe  Fe5  1  0.44329295  0.80107463  0.50925718  1
  O  O0  1  0.18327424  0.28629357  0.50714759  1
  O  O1  1  0.18742457  0.60655954  0.51610310  1
  O  O2  1  0.29334049  0.94697876  0.51439435  1
  O  O3  1  0.19211884  0.77606672  0.02591961  1
  O  O4  1  0.30381577  0.44387727  0.01256134  1
  O  O5  1  0.70711193  0.26873779  0.00749530  1
  F  F0  1  0.42149110  0.13010925  0.00321166  1
  F  F1  1  0.67109847  0.56707396  0.01614909  1
  F  F2  1  0.68301785  0.86781736  0.99818595  1
  F  F3  1  0.77743135  0.01654394  0.48379144  1
  F  F4  1  0.81786572  0.42080043  0.51338278  1
  F  F5  1  0.76700639  0.71163063  0.52636628  1
loop_
_geom_bond_atom_site_label_1
_geom_bond_atom_site_label_2
_geom_bond_distance
_geom_bond_site_symmetry_2
Mg0 O2 2.079879 1_545
Mg0 O2 2.139500 1_546
Fe0 O2 1.986977 1_554
Fe0 O2 2.064842 1_555
Fe0 O3 2.132200 1_555
Fe1 O0 1.979097 1_554
Fe1 O0 1.984507 1_555
Fe1 O4 2.011099 1_555
Fe1 O5 2.034522 1_455
Fe2 O3 1.941330 1_555
Fe2 O1 1.945227 1_554
Fe2 O1 1.948778 1_555
Fe3 O0 1.893252 1_555
Fe3 O5 1.918437 1_555
Fe3 O5 1.924342 1_556
Fe4 O4 1.937827 1_556
Fe4 O4 1.941874 1_555
Fe4 O1 1.975514 1_555
Fe5 O3 2.013828 1_555
Fe5 O3 2.070516 1_556
Fe5 O2 2.284661 1_555
F0 Mg0 1.981300 1_554
F0 Fe3 2.169774 1_554
F0 Fe3 2.187926 1_555
F1 Fe4 2.113606 1_555
F1 Fe4 2.140709 1_554
F1 Fe2 2.257532 1_655
F2 Fe0 2.040930 1_656
F2 Mg0 2.119231 1_565
F2 Fe5 2.190589 1_555
F2 Fe5 2.226406 1_556
F3 Mg0 1.997485 1_554
F3 Mg0 2.042116 1_555
F4 Fe1 2.113676 1_655
F4 Fe1 2.135698 1_656
F4 Fe4 2.285407 1_555
F5 Fe5 2.116048 1_555
F5 Fe2 2.117440 1_655
F5 Fe2 2.123938 1_656
