# generated using pymatgen
data_Na2La2Ta2Si3(SO8)3
_symmetry_space_group_name_H-M   'P 1'
_cell_length_a   9.27435340
_cell_length_b   9.29257167
_cell_length_c   23.80556708
_cell_angle_alpha   92.38399433
_cell_angle_beta   90.21752565
_cell_angle_gamma   119.48324185
_symmetry_Int_Tables_number   1
_chemical_formula_structural   Na2La2Ta2Si3(SO8)3
_chemical_formula_sum   'Na6 La6 Ta6 Si9 S9 O72'
_cell_volume   1783.69880281
_cell_formula_units_Z   3
loop_
 _symmetry_equiv_pos_site_id
 _symmetry_equiv_pos_as_xyz
  1  'x, y, z'
loop_
 _atom_site_type_symbol
 _atom_site_label
 _atom_site_symmetry_multiplicity
 _atom_site_fract_x
 _atom_site_fract_y
 _atom_site_fract_z
 _atom_site_occupancy
  Na  Na0  1  0.97194626  0.96602089  0.49194369  1
  Na  Na1  1  0.02492107  0.99116777  0.00261820  1
  Na  Na2  1  0.63377008  0.30182173  0.82498376  1
  Na  Na3  1  0.66567406  0.29619741  0.32755607  1
  Na  Na4  1  0.29799323  0.65346932  0.17478788  1
  Na  Na5  1  0.36426809  0.66036715  0.65941127  1
  La  La0  1  0.99831643  0.00526298  0.35548833  1
  La  La1  1  0.01004228  0.00795858  0.85456598  1
  La  La2  1  0.65478540  0.33661069  0.68837841  1
  La  La3  1  0.68414667  0.33481402  0.18847319  1
  La  La4  1  0.32168223  0.67280808  0.02256804  1
  La  La5  1  0.34640924  0.67947314  0.52012396  1
  Ta  Ta0  1  0.98889165  0.01639253  0.64586666  1
  Ta  Ta1  1  0.00533395  0.98772157  0.15693362  1
  Ta  Ta2  1  0.66382227  0.33599569  0.98089192  1
  Ta  Ta3  1  0.68048474  0.35304664  0.47364461  1
  Ta  Ta4  1  0.30921509  0.68324180  0.31523058  1
  Ta  Ta5  1  0.35589645  0.69359396  0.80527070  1
  Si  Si0  1  0.29624128  0.99304729  0.25392225  1
  Si  Si1  1  0.03068520  0.30891381  0.25255874  1
  Si  Si2  1  0.28148878  0.30397002  0.75246679  1
  Si  Si3  1  0.70768649  0.99731703  0.75135182  1
  Si  Si4  1  0.68839899  0.63865944  0.58623308  1
  Si  Si5  1  0.94650307  0.64210315  0.08509865  1
  Si  Si6  1  0.35106883  0.96865469  0.91858147  1
  Si  Si7  1  0.61685997  0.96990656  0.41825056  1
  Si  Si8  1  0.02985983  0.65874127  0.41990722  1
  S  S0  1  0.69057164  0.72246142  0.24516065  1
  S  S1  1  0.02942706  0.71687293  0.74844663  1
  S  S2  1  0.95026298  0.31350398  0.58248067  1
  S  S3  1  0.34662439  0.04721484  0.58275181  1
  S  S4  1  0.69931634  0.05895353  0.07563991  1
  S  S5  1  0.36354579  0.30729830  0.08034164  1
  S  S6  1  0.61299266  0.63869280  0.91605326  1
  S  S7  1  0.01167516  0.37727388  0.91806539  1
  S  S8  1  0.36121448  0.38233696  0.41695294  1
  O  O0  1  0.21157706  0.00834579  0.30881641  1
  O  O1  1  0.78134493  0.78713329  0.29811018  1
  O  O2  1  0.99819008  0.20100495  0.30521916  1
  O  O3  1  0.20336462  0.19719109  0.80558754  1
  O  O4  1  0.00214816  0.77847429  0.80218743  1
  O  O5  1  0.79497682  0.99375069  0.80767485  1
  O  O6  1  0.81069349  0.97889193  0.69393252  1
  O  O7  1  0.15877410  0.19476817  0.69454838  1
  O  O8  1  0.04559965  0.82061933  0.70093279  1
  O  O9  1  0.80524548  0.83194692  0.19696700  1
  O  O10  1  0.03306081  0.18828686  0.19414066  1
  O  O11  1  0.16403824  0.96366704  0.19606766  1
  O  O12  1  0.88093550  0.33533814  0.63427173  1
  O  O13  1  0.44383195  0.11796908  0.63538522  1
  O  O14  1  0.68394385  0.54115431  0.63972369  1
  O  O15  1  0.85812035  0.54165792  0.13827111  1
  O  O16  1  0.66528482  0.11927298  0.12871970  1
  O  O17  1  0.45767987  0.33201401  0.13198108  1
  O  O18  1  0.46288911  0.29579140  0.02954062  1
  O  O19  1  0.82194150  0.52509968  0.02797719  1
  O  O20  1  0.69560677  0.16618021  0.02831626  1
  O  O21  1  0.43389707  0.14148568  0.53374309  1
  O  O22  1  0.69602479  0.52199247  0.52843422  1
  O  O23  1  0.84458287  0.29155845  0.53161247  1
  O  O24  1  0.54032257  0.66118123  0.96727174  1
  O  O25  1  0.10993188  0.45061701  0.97010376  1
  O  O26  1  0.34404781  0.86597067  0.97121067  1
  O  O27  1  0.54007423  0.86393064  0.47157088  1
  O  O28  1  0.34373668  0.45268518  0.47037741  1
  O  O29  1  0.12777749  0.65779544  0.47374989  1
  O  O30  1  0.13012269  0.64076617  0.36082402  1
  O  O31  1  0.49012193  0.85458548  0.36106210  1
  O  O32  1  0.37504455  0.48005014  0.36806738  1
  O  O33  1  0.08696833  0.47230309  0.86869533  1
  O  O34  1  0.36406302  0.85709582  0.86055214  1
  O  O35  1  0.50769943  0.62056641  0.86473148  1
  O  O36  1  0.98409639  0.80146040  0.41598454  1
  O  O37  1  0.80757792  0.02342239  0.41180628  1
  O  O38  1  0.23321760  0.20844758  0.41215433  1
  O  O39  1  0.96959687  0.20306186  0.91397617  1
  O  O40  1  0.19981085  0.00613244  0.91713087  1
  O  O41  1  0.78430217  0.77106518  0.91103258  1
  O  O42  1  0.95129417  0.14602645  0.58691289  1
  O  O43  1  0.18368721  0.04892279  0.58880083  1
  O  O44  1  0.86624164  0.82439798  0.59479970  1
  O  O45  1  0.95441020  0.82953806  0.09236758  1
  O  O46  1  0.86296806  0.06774031  0.07730163  1
  O  O47  1  0.20256416  0.14777545  0.08095406  1
  O  O48  1  0.66391120  0.14172578  0.74647167  1
  O  O49  1  0.47333964  0.35620486  0.74663764  1
  O  O50  1  0.90578343  0.54212879  0.73991733  1
  O  O51  1  0.65585790  0.55286490  0.23501750  1
  O  O52  1  0.89099305  0.36178929  0.24457848  1
  O  O53  1  0.47983652  0.13719928  0.24375525  1
  O  O54  1  0.61584677  0.47393769  0.92128224  1
  O  O55  1  0.84473844  0.37430308  0.92675862  1
  O  O56  1  0.52727576  0.15381833  0.92768139  1
  O  O57  1  0.61222226  0.14867416  0.43006945  1
  O  O58  1  0.52839234  0.38142769  0.42133391  1
  O  O59  1  0.84721707  0.47340910  0.42408286  1
  O  O60  1  0.33510831  0.44695647  0.07252032  1
  O  O61  1  0.13559400  0.67946599  0.08134854  1
  O  O62  1  0.56788814  0.88653757  0.06674148  1
  O  O63  1  0.30550949  0.87234124  0.57889538  1
  O  O64  1  0.53671077  0.67604618  0.58368022  1
  O  O65  1  0.12332441  0.44175922  0.57755188  1
  O  O66  1  0.29178573  0.80817011  0.25699138  1
  O  O67  1  0.53871915  0.73470550  0.24190225  1
  O  O68  1  0.21450328  0.48754313  0.26221940  1
  O  O69  1  0.28141832  0.48571433  0.76464821  1
  O  O70  1  0.19839092  0.71999873  0.75442008  1
  O  O71  1  0.52018123  0.81225991  0.75489493  1
loop_
_geom_bond_atom_site_label_1
_geom_bond_atom_site_label_2
_geom_bond_distance
_geom_bond_site_symmetry_2
Na0 O36 2.358392 1_555
Na0 O37 2.666590 1_565
Na0 O44 2.775744 1_555
Na0 O42 2.819557 1_565
Na0 O43 2.845167 1_665
Na1 O47 2.387596 1_565
Na1 O45 2.561066 1_455
Na1 O40 2.572606 1_564
Na1 O46 2.624931 1_465
Na1 O41 3.002672 1_454
Na2 O48 2.442675 1_555
Na2 O49 2.597149 1_555
Na2 O54 2.792947 1_555
Na2 O56 2.793728 1_555
Na2 O55 2.946687 1_555
Na3 O53 2.520978 1_555
Na3 O52 2.741894 1_555
Na3 O57 2.774725 1_555
Na3 O59 2.784504 1_555
Na3 O58 2.845902 1_555
Na4 O66 2.397428 1_555
Na4 O67 2.514063 1_555
Na4 O68 2.532395 1_555
Na4 O61 2.766244 1_555
Na5 O64 2.375608 1_555
Na5 O71 2.636095 1_555
Na5 O65 2.843742 1_555
Na5 O70 2.924122 1_555
Na5 O69 2.936996 1_555
Na5 O63 3.035399 1_555
La0 O2 2.218964 1_555
La0 O0 2.260691 1_655
La0 O37 2.290895 1_555
La0 O36 2.379196 1_545
La0 O1 2.399473 1_545
La0 O38 2.418189 1_655
La1 O3 2.179284 1_555
La1 O5 2.225648 1_445
La1 O40 2.308183 1_555
La1 O4 2.394178 1_545
La1 O39 2.426534 1_455
La1 O41 2.601345 1_445
La2 O14 2.169574 1_555
La2 O49 2.255379 1_555
La2 O13 2.324314 1_555
La2 O48 2.357476 1_555
La2 O50 2.445157 1_555
La2 O12 2.470206 1_555
La3 O15 2.208872 1_555
La3 O52 2.237451 1_555
La3 O16 2.341354 1_555
La3 O53 2.342949 1_555
La3 O51 2.396026 1_555
La3 O17 2.478403 1_555
La4 O26 2.139556 1_554
La4 O61 2.248704 1_555
La4 O25 2.335635 1_554
La4 O62 2.368184 1_555
La4 O24 2.465832 1_554
La4 O60 2.509586 1_555
La5 O27 2.156428 1_555
La5 O29 2.221078 1_555
La5 O64 2.333275 1_555
La5 O28 2.363282 1_555
La5 O63 2.403759 1_555
La5 O65 2.608287 1_555
O0 Si0 1.564182 1_545
O1 S0 1.445564 1_555
O2 Si1 1.574120 1_655
O3 Si2 1.585037 1_555
O4 S1 1.453431 1_555
O5 Si3 1.573563 1_555
O6 Si3 1.720994 1_555
O6 Ta0 1.908578 1_565
O7 Si2 1.720734 1_555
O7 Ta0 1.956675 1_455
O8 S1 1.476812 1_555
O8 Ta0 2.537637 1_465
O9 S0 1.588623 1_555
O9 Ta1 1.982749 1_655
O10 Si1 1.756649 1_555
O10 Ta1 1.927033 1_545
O11 Si0 1.760993 1_555
O11 Ta1 1.847987 1_555
O12 S2 1.445086 1_555
O13 S3 1.467791 1_555
O14 Si4 1.582306 1_555
O15 Si5 1.580642 1_555
O16 S4 1.459013 1_555
O17 S5 1.448144 1_555
O18 S5 1.554834 1_555
O18 Ta2 2.078604 1_554
O19 Si5 1.730457 1_555
O19 Ta2 1.944717 1_554
O20 S4 1.545965 1_555
O20 Ta2 2.110729 1_554
O21 S3 1.475781 1_555
O21 Ta3 2.641048 1_555
O22 Si4 1.739443 1_555
O22 Ta3 1.947352 1_555
O23 S2 1.497432 1_555
O23 Ta3 2.335075 1_555
O24 S6 1.451977 1_555
O25 S7 1.462666 1_555
O26 Si6 1.588499 1_555
O27 Si7 1.583874 1_555
O28 S8 1.451826 1_555
O29 Si8 1.570865 1_555
O30 Si8 1.736118 1_555
O30 Ta4 1.869933 1_555
O31 Si7 1.734936 1_555
O31 Ta4 1.937148 1_555
O32 S8 1.472970 1_555
O32 Ta4 2.616581 1_555
O33 S7 1.460925 1_555
O33 Ta5 2.822655 1_555
O34 Si6 1.732810 1_555
O34 Ta5 1.940533 1_555
O35 S6 1.512133 1_555
O35 Ta5 2.334841 1_555
O36 Si8 1.584869 1_655
O37 Si7 1.594369 1_545
O38 S8 1.459027 1_555
O39 S7 1.465355 1_655
O40 Si6 1.603720 1_545
O41 S6 1.463410 1_555
O42 S2 1.568945 1_555
O42 Ta0 2.023051 1_555
O43 S3 1.526300 1_555
O43 Ta0 2.171614 1_455
O44 Si4 1.704996 1_555
O44 Ta0 1.940691 1_565
O45 Si5 1.708252 1_555
O45 Ta1 1.967077 1_655
O46 S4 1.479570 1_555
O46 Ta1 2.637145 1_645
O47 S5 1.500047 1_555
O47 Ta1 2.529921 1_545
O48 Si3 1.589962 1_545
O49 Si2 1.605644 1_555
O50 S1 1.459756 1_655
O51 S0 1.453962 1_555
O52 Si1 1.608873 1_655
O53 Si0 1.592853 1_545
O54 S6 1.554308 1_555
O54 Ta2 2.136048 1_555
O55 S7 1.549659 1_655
O55 Ta2 2.017259 1_555
O56 Si6 1.696064 1_545
O56 Ta2 1.942501 1_555
O57 Si7 1.694749 1_545
O57 Ta3 1.931640 1_555
O58 S8 1.557766 1_555
O58 Ta3 1.997533 1_555
O59 Si8 1.728912 1_655
O59 Ta3 1.858861 1_555
O60 S5 1.464620 1_555
O61 Si5 1.615051 1_455
O62 S4 1.464612 1_565
O63 S3 1.473743 1_565
O64 Si4 1.608015 1_555
O65 S2 1.463027 1_455
O66 Si0 1.702675 1_555
O66 Ta4 1.900762 1_555
O67 S0 1.469694 1_555
O68 Si1 1.701270 1_555
O68 Ta4 1.974717 1_555
O69 Si2 1.701977 1_555
O69 Ta5 1.915721 1_555
O70 S1 1.558785 1_555
O70 Ta5 2.005867 1_555
O71 Si3 1.748706 1_555
O71 Ta5 1.856245 1_555
