# generated using pymatgen
data_NaHfZr(PO4)3
_symmetry_space_group_name_H-M   'P 1'
_cell_length_a   8.86533387
_cell_length_b   8.86533358
_cell_length_c   23.32538980
_cell_angle_alpha   90.00000000
_cell_angle_beta   90.00000000
_cell_angle_gamma   120.00000105
_symmetry_Int_Tables_number   1
_chemical_formula_structural   NaHfZr(PO4)3
_chemical_formula_sum   'Na6 Hf6 Zr6 P18 O72'
_cell_volume   1587.63152750
_cell_formula_units_Z   6
loop_
 _symmetry_equiv_pos_site_id
 _symmetry_equiv_pos_as_xyz
  1  'x, y, z'
loop_
 _atom_site_type_symbol
 _atom_site_label
 _atom_site_symmetry_multiplicity
 _atom_site_fract_x
 _atom_site_fract_y
 _atom_site_fract_z
 _atom_site_occupancy
  Na  Na0  1  0.00000000  0.00000000  0.49994798  1
  Na  Na1  1  0.00000000  0.00000000  0.99994742  1
  Na  Na2  1  0.66666700  0.33333300  0.83345813  1
  Na  Na3  1  0.66666700  0.33333300  0.33322292  1
  Na  Na4  1  0.33333300  0.66666700  0.16654363  1
  Na  Na5  1  0.33333300  0.66666700  0.66679018  1
  Hf  Hf0  1  0.00000000  0.00000000  0.35271162  1
  Hf  Hf1  1  0.00000000  0.00000000  0.85363895  1
  Hf  Hf2  1  0.66666700  0.33333300  0.18629872  1
  Hf  Hf3  1  0.66666700  0.33333300  0.97984566  1
  Hf  Hf4  1  0.33333300  0.66666700  0.01963594  1
  Hf  Hf5  1  0.33333300  0.66666700  0.81409787  1
  Zr  Zr0  1  0.00000000  0.00000000  0.64734692  1
  Zr  Zr1  1  0.00000000  0.00000000  0.14637566  1
  Zr  Zr2  1  0.66666700  0.33333300  0.68708939  1
  Zr  Zr3  1  0.66666700  0.33333300  0.47999586  1
  Zr  Zr4  1  0.33333300  0.66666700  0.51946950  1
  Zr  Zr5  1  0.33333300  0.66666700  0.31332578  1
  P  P0  1  0.29075678  0.00187155  0.25019113  1
  P  P1  1  0.71111477  0.70924322  0.25019113  1
  P  P2  1  0.99812845  0.28888523  0.25019113  1
  P  P3  1  0.28898716  0.29074085  0.75096004  1
  P  P4  1  0.00175369  0.71101284  0.75096004  1
  P  P5  1  0.70925915  0.99824631  0.75096004  1
  P  P6  1  0.95709226  0.33328161  0.58334116  1
  P  P7  1  0.37619034  0.04290774  0.58334116  1
  P  P8  1  0.66671839  0.62380966  0.58334116  1
  P  P9  1  0.95566322  0.62057081  0.08296265  1
  P  P10  1  0.66490859  0.04433678  0.08296265  1
  P  P11  1  0.37942919  0.33509141  0.08296265  1
  P  P12  1  0.62257815  0.66660474  0.91667530  1
  P  P13  1  0.04402559  0.37742185  0.91667530  1
  P  P14  1  0.33339526  0.95597441  0.91667530  1
  P  P15  1  0.62583291  0.95739116  0.41629199  1
  P  P16  1  0.33155726  0.37416709  0.41629199  1
  P  P17  1  0.04260884  0.66844274  0.41629199  1
  O  O0  1  0.20510472  0.02859256  0.30360216  1
  O  O1  1  0.82348784  0.79489528  0.30360216  1
  O  O2  1  0.97140744  0.17651216  0.30360216  1
  O  O3  1  0.20261571  0.17627906  0.80405790  1
  O  O4  1  0.97366334  0.79738429  0.80405790  1
  O  O5  1  0.82372094  0.02633666  0.80405790  1
  O  O6  1  0.79194412  0.97024965  0.69677207  1
  O  O7  1  0.17830553  0.20805588  0.69677207  1
  O  O8  1  0.02975035  0.82169447  0.69677207  1
  O  O9  1  0.79443887  0.82191954  0.19632417  1
  O  O10  1  0.02748067  0.20556113  0.19632417  1
  O  O11  1  0.17808046  0.97251933  0.19632417  1
  O  O12  1  0.87302776  0.36151806  0.63709210  1
  O  O13  1  0.48849130  0.12697224  0.63709210  1
  O  O14  1  0.63848194  0.51150870  0.63709210  1
  O  O15  1  0.87090739  0.50914351  0.13681824  1
  O  O16  1  0.63823712  0.12909261  0.13681824  1
  O  O17  1  0.49085649  0.36176288  0.13681824  1
  O  O18  1  0.46453583  0.30715815  0.02950251  1
  O  O19  1  0.84262332  0.53546417  0.02950251  1
  O  O20  1  0.69284185  0.15737668  0.02950251  1
  O  O21  1  0.45992818  0.15481198  0.52967959  1
  O  O22  1  0.69488480  0.54007182  0.52967959  1
  O  O23  1  0.84518802  0.30511520  0.52967959  1
  O  O24  1  0.53727040  0.69452430  0.97031464  1
  O  O25  1  0.15725291  0.46272960  0.97031464  1
  O  O26  1  0.30547570  0.84274709  0.97031464  1
  O  O27  1  0.54190807  0.84532329  0.47014655  1
  O  O28  1  0.30341422  0.45809193  0.47014655  1
  O  O29  1  0.15467671  0.69658578  0.47014655  1
  O  O30  1  0.12691983  0.63900189  0.36287501  1
  O  O31  1  0.51208105  0.87308017  0.36287501  1
  O  O32  1  0.36099811  0.48791895  0.36287501  1
  O  O33  1  0.12903825  0.49025809  0.86314865  1
  O  O34  1  0.36121884  0.87096175  0.86314865  1
  O  O35  1  0.50974191  0.63878116  0.86314865  1
  O  O36  1  0.02360573  0.83086944  0.40891386  1
  O  O37  1  0.80726371  0.97639427  0.40891386  1
  O  O38  1  0.16913056  0.19273629  0.40891386  1
  O  O39  1  0.02426709  0.19518309  0.90910399  1
  O  O40  1  0.17091599  0.97573291  0.90910399  1
  O  O41  1  0.80481691  0.82908400  0.90910399  1
  O  O42  1  0.97630606  0.17053456  0.58991650  1
  O  O43  1  0.19422850  0.02369394  0.58991650  1
  O  O44  1  0.82946544  0.80577150  0.58991650  1
  O  O45  1  0.97559134  0.80322288  0.08972702  1
  O  O46  1  0.82763155  0.02440866  0.08972702  1
  O  O47  1  0.19677712  0.17236845  0.08972702  1
  O  O48  1  0.69037481  0.16126114  0.74408970  1
  O  O49  1  0.47088733  0.30962519  0.74408970  1
  O  O50  1  0.83873886  0.52911267  0.74408970  1
  O  O51  1  0.69161637  0.52718751  0.24269895  1
  O  O52  1  0.83557214  0.30838363  0.24269895  1
  O  O53  1  0.47281249  0.16442786  0.24269895  1
  O  O54  1  0.64246160  0.50416831  0.92427916  1
  O  O55  1  0.86170771  0.35753840  0.92427916  1
  O  O56  1  0.49583169  0.13829229  0.92427916  1
  O  O57  1  0.64436683  0.13886716  0.42309838  1
  O  O58  1  0.49450134  0.35563317  0.42309838  1
  O  O59  1  0.86113284  0.50549866  0.42309838  1
  O  O60  1  0.35900275  0.49742591  0.07560966  1
  O  O61  1  0.13842216  0.64099725  0.07560966  1
  O  O62  1  0.50257409  0.86157784  0.07560966  1
  O  O63  1  0.35709719  0.86100442  0.57680065  1
  O  O64  1  0.50390623  0.64290281  0.57680065  1
  O  O65  1  0.13899558  0.49609377  0.57680065  1
  O  O66  1  0.31035968  0.83923238  0.25686513  1
  O  O67  1  0.52887170  0.68964032  0.25686513  1
  O  O68  1  0.16076762  0.47112830  0.25686513  1
  O  O69  1  0.30908099  0.47302316  0.75822707  1
  O  O70  1  0.16394117  0.69091901  0.75822707  1
  O  O71  1  0.52697684  0.83605883  0.75822707  1
loop_
_geom_bond_atom_site_label_1
_geom_bond_atom_site_label_2
_geom_bond_distance
_geom_bond_site_symmetry_2
Na0 O44 2.655426 1_445
Na0 O42 2.655426 1_455
Na0 O43 2.655426 1_555
Na0 O38 2.667326 1_555
Na0 O36 2.667326 1_545
Na0 O37 2.667326 1_445
Na1 O46 2.664214 1_456
Na1 O47 2.664214 1_556
Na1 O45 2.664214 1_446
Na1 O40 2.675474 1_545
Na1 O39 2.675474 1_555
Na1 O41 2.675474 1_445
Na2 O50 2.652778 1_555
Na2 O48 2.652778 1_555
Na2 O49 2.652778 1_555
Na2 O56 2.674428 1_555
Na2 O54 2.674428 1_555
Na2 O55 2.674428 1_555
Na3 O58 2.658054 1_555
Na3 O59 2.658054 1_555
Na3 O57 2.658054 1_555
Na3 O51 2.660976 1_555
Na3 O53 2.660976 1_555
Na3 O52 2.660976 1_555
Na4 O68 2.670588 1_555
Na4 O66 2.670588 1_555
Na4 O67 2.670588 1_555
Na4 O62 2.672696 1_555
Na4 O60 2.672696 1_555
Na4 O61 2.672697 1_555
Na5 O63 2.656248 1_555
Na5 O65 2.656248 1_555
Na5 O64 2.656249 1_555
Na5 O69 2.678262 1_555
Na5 O71 2.678262 1_555
Na5 O70 2.678262 1_555
Hf0 O1 2.054702 1_445
Hf0 O2 2.054702 1_455
Hf0 O0 2.054702 1_555
Hf0 O38 2.079504 1_555
Hf0 O36 2.079504 1_545
Hf0 O37 2.079504 1_445
Hf1 O4 2.049180 1_445
Hf1 O3 2.049180 1_555
Hf1 O5 2.049180 1_455
Hf1 O40 2.083735 1_545
Hf1 O39 2.083735 1_555
Hf1 O41 2.083735 1_445
Hf2 O16 2.053708 1_555
Hf2 O15 2.053708 1_555
Hf2 O17 2.053708 1_555
Hf2 O51 2.086390 1_555
Hf2 O53 2.086390 1_555
Hf2 O52 2.086390 1_555
Hf3 O19 2.047126 1_556
Hf3 O20 2.047126 1_556
Hf3 O18 2.047126 1_556
Hf3 O56 2.084393 1_555
Hf3 O54 2.084393 1_555
Hf3 O55 2.084393 1_555
Hf4 O26 2.051039 1_554
Hf4 O25 2.051039 1_554
Hf4 O24 2.051039 1_554
Hf4 O62 2.085421 1_555
Hf4 O60 2.085421 1_555
Hf4 O61 2.085421 1_555
Hf5 O34 2.050033 1_555
Hf5 O33 2.050033 1_555
Hf5 O35 2.050033 1_555
Hf5 O69 2.079086 1_555
Hf5 O71 2.079086 1_555
Hf5 O70 2.079086 1_555
O0 P0 1.537753 1_555
O1 P1 1.537753 1_555
O2 P2 1.537753 1_555
O3 P3 1.540444 1_555
O4 P4 1.540444 1_655
O5 P5 1.540444 1_545
O6 P5 1.542225 1_555
O6 Zr0 2.077089 1_665
O7 P3 1.542225 1_555
O7 Zr0 2.077089 1_555
O8 P4 1.542225 1_555
O8 Zr0 2.077089 1_565
O9 P1 1.544124 1_555
O9 Zr1 2.072146 1_665
O10 P2 1.544124 1_455
O10 Zr1 2.072146 1_555
O11 P0 1.544124 1_565
O11 Zr1 2.072146 1_565
O12 P6 1.541607 1_555
O12 Zr2 2.076598 1_555
O13 P7 1.541607 1_555
O13 Zr2 2.076598 1_555
O14 P8 1.541607 1_555
O14 Zr2 2.076598 1_555
O15 P9 1.541495 1_555
O16 P10 1.541495 1_555
O17 P11 1.541495 1_555
O18 P11 1.540257 1_555
O19 P9 1.540257 1_555
O20 P10 1.540257 1_555
O21 P7 1.538026 1_555
O21 Zr3 2.075163 1_555
O22 P8 1.538026 1_555
O22 Zr3 2.075163 1_555
O23 P6 1.538026 1_555
O23 Zr3 2.075163 1_555
O24 P12 1.544609 1_555
O25 P13 1.544609 1_555
O26 P14 1.544609 1_555
O27 P15 1.542541 1_555
O27 Zr4 2.079092 1_555
O28 P16 1.542541 1_555
O28 Zr4 2.079092 1_555
O29 P17 1.542541 1_555
O29 Zr4 2.079092 1_555
O30 P17 1.540885 1_555
O30 Zr5 2.072614 1_555
O31 P15 1.540886 1_555
O31 Zr5 2.072614 1_555
O32 P16 1.540886 1_555
O32 Zr5 2.072614 1_555
O33 P13 1.540645 1_555
O34 P14 1.540645 1_555
O35 P12 1.540645 1_555
O36 P17 1.540809 1_555
O37 P15 1.540818 1_555
O38 P16 1.540814 1_555
O39 P13 1.545658 1_555
O40 P14 1.545650 1_555
O41 P12 1.545655 1_555
O42 P6 1.542722 1_555
O42 Zr0 2.107573 1_655
O43 P7 1.542731 1_555
O43 Zr0 2.107573 1_555
O44 P8 1.542727 1_555
O44 Zr0 2.107573 1_665
O45 P9 1.546632 1_555
O45 Zr1 2.111531 1_665
O46 P10 1.546624 1_555
O46 Zr1 2.111531 1_655
O47 P11 1.546629 1_555
O47 Zr1 2.111531 1_555
O48 P5 1.544087 1_545
O48 Zr2 2.111772 1_555
O49 P3 1.544095 1_555
O49 Zr2 2.111772 1_555
O50 P4 1.544092 1_655
O50 Zr2 2.111772 1_555
O51 P1 1.544789 1_555
O52 P2 1.544781 1_555
O53 P0 1.544786 1_555
O54 P12 1.546003 1_555
O55 P13 1.545986 1_655
O56 P14 1.545993 1_545
O57 P15 1.541505 1_545
O57 Zr3 2.105181 1_555
O58 P16 1.541523 1_555
O58 Zr3 2.105181 1_555
O59 P17 1.541512 1_655
O59 Zr3 2.105181 1_555
O60 P11 1.547246 1_555
O61 P9 1.547229 1_455
O62 P10 1.547236 1_565
O63 P7 1.542578 1_565
O63 Zr4 2.106651 1_555
O64 P8 1.542596 1_555
O64 Zr4 2.106651 1_555
O65 P6 1.542585 1_455
O65 Zr4 2.106651 1_555
O66 P0 1.544002 1_565
O66 Zr5 2.104258 1_555
O67 P1 1.544011 1_555
O67 Zr5 2.104258 1_555
O68 P2 1.544007 1_455
O68 Zr5 2.104258 1_555
O69 P3 1.544030 1_555
O70 P4 1.544022 1_555
O71 P5 1.544027 1_555
