# generated using pymatgen
data_MgFeCo5O12
_symmetry_space_group_name_H-M   'P 1'
_cell_length_a   5.00625155
_cell_length_b   4.96220465
_cell_length_c   10.06550715
_cell_angle_alpha   94.28146365
_cell_angle_beta   98.07297209
_cell_angle_gamma   59.77971786
_symmetry_Int_Tables_number   1
_chemical_formula_structural   MgFeCo5O12
_chemical_formula_sum   'Mg1 Fe1 Co5 O12'
_cell_volume   213.92194545
_cell_formula_units_Z   1
loop_
 _symmetry_equiv_pos_site_id
 _symmetry_equiv_pos_as_xyz
  1  'x, y, z'
loop_
 _atom_site_type_symbol
 _atom_site_label
 _atom_site_symmetry_multiplicity
 _atom_site_fract_x
 _atom_site_fract_y
 _atom_site_fract_z
 _atom_site_occupancy
  Mg  Mg0  1  0.57119200  0.67398800  0.74705600  1
  Fe  Fe0  1  0.98043700  0.00823800  0.99720000  1
  Co  Co0  1  0.17633700  0.67657700  0.49486000  1
  Co  Co1  1  0.65140500  0.67498100  0.01242500  1
  Co  Co2  1  0.31260200  0.34200100  0.99462300  1
  Co  Co3  1  0.84459800  0.34533600  0.50002300  1
  Co  Co4  1  0.51275200  0.00677400  0.50050400  1
  O  O0  1  0.01788000  0.65462800  0.09596500  1
  O  O1  1  0.31366900  0.66153000  0.89507600  1
  O  O2  1  0.14823700  0.33747600  0.40963700  1
  O  O3  1  0.51579700  0.67582600  0.40246000  1
  O  O4  1  0.53973900  0.35542700  0.59920100  1
  O  O5  1  0.21779900  0.99951800  0.60019900  1
  O  O6  1  0.84103700  0.67729900  0.60915200  1
  O  O7  1  0.65279000  0.35424500  0.09567100  1
  O  O8  1  0.35092500  0.01978400  0.09527800  1
  O  O9  1  0.93524200  0.36925800  0.89540600  1
  O  O10  1  0.60620100  0.99205300  0.89552300  1
  O  O11  1  0.81135900  0.01256100  0.40974000  1
loop_
_geom_bond_atom_site_label_1
_geom_bond_atom_site_label_2
_geom_bond_distance
_geom_bond_site_symmetry_2
Mg0 O6 2.074706 1_555
Mg0 O1 2.125839 1_555
Mg0 O4 2.138209 1_555
Mg0 O10 2.146557 1_555
Mg0 O9 2.153227 1_555
Mg0 O5 2.160911 1_555
Fe0 O0 1.994830 1_646
Fe0 O7 1.997092 1_556
Fe0 O8 2.000557 1_656
Fe0 O9 2.027623 1_555
Fe0 O1 2.031739 1_645
Fe0 O10 2.040733 1_545
Co0 O11 1.886604 1_465
Co0 O2 1.891017 1_555
Co0 O4 1.935752 1_555
Co0 O5 1.937688 1_555
Co0 O3 2.046969 1_555
Co0 O6 2.162600 1_455
Co1 O7 1.849752 1_555
Co1 O8 1.853156 1_565
Co1 O0 1.864435 1_655
Co1 O9 1.934219 1_554
Co1 O10 1.937655 1_554
Co1 O1 1.949183 1_554
Co2 O8 1.870362 1_556
Co2 O0 1.872536 1_556
Co2 O7 1.883358 1_556
Co2 O10 1.937698 1_545
Co2 O1 1.940435 1_555
Co2 O9 1.953870 1_455
Co3 O3 1.852665 1_555
Co3 O2 1.861009 1_655
Co3 O11 1.894826 1_555
Co3 O6 1.904245 1_555
Co3 O4 1.916215 1_555
Co3 O5 1.988448 1_645
Co4 O3 1.846103 1_545
Co4 O11 1.871073 1_555
Co4 O2 1.897456 1_555
Co4 O6 1.904539 1_545
Co4 O5 1.914089 1_545
Co4 O4 1.984777 1_555
