# generated using pymatgen
data_Cr(GeO3)2
_symmetry_space_group_name_H-M   'P 1'
_cell_length_a   5.57243852
_cell_length_b   6.54917051
_cell_length_c   6.81061155
_cell_angle_alpha   82.97114673
_cell_angle_beta   74.57244631
_cell_angle_gamma   75.21421479
_symmetry_Int_Tables_number   1
_chemical_formula_structural   Cr(GeO3)2
_chemical_formula_sum   'Cr2 Ge4 O12'
_cell_volume   231.26641140
_cell_formula_units_Z   2
loop_
 _symmetry_equiv_pos_site_id
 _symmetry_equiv_pos_as_xyz
  1  'x, y, z'
loop_
 _atom_site_type_symbol
 _atom_site_label
 _atom_site_symmetry_multiplicity
 _atom_site_fract_x
 _atom_site_fract_y
 _atom_site_fract_z
 _atom_site_occupancy
  Cr  Cr0  1  0.73957100  0.90826400  0.09483600  1
  Cr  Cr1  1  0.26042900  0.09173600  0.90516500  1
  Ge  Ge0  1  0.76690700  0.37647800  0.21340400  1
  Ge  Ge1  1  0.73448600  0.79670700  0.60414500  1
  Ge  Ge2  1  0.23309300  0.62352200  0.78659600  1
  Ge  Ge3  1  0.26551400  0.20329300  0.39585500  1
  O  O0  1  0.44751800  0.39522500  0.34435800  1
  O  O1  1  0.04534800  0.65632200  0.61273800  1
  O  O2  1  0.55248200  0.60477500  0.65564200  1
  O  O3  1  0.95465200  0.34367800  0.38726200  1
  O  O4  1  0.24238700  0.06627100  0.63258900  1
  O  O5  1  0.25134800  0.36859600  0.91814500  1
  O  O6  1  0.75761300  0.93372900  0.36741200  1
  O  O7  1  0.74865200  0.63140500  0.08185500  1
  O  O8  1  0.87168500  0.17587700  0.03117000  1
  O  O9  1  0.61562600  0.96216000  0.82328800  1
  O  O10  1  0.12831500  0.82412300  0.96883000  1
  O  O11  1  0.38437400  0.03784000  0.17671200  1
loop_
_geom_bond_atom_site_label_1
_geom_bond_atom_site_label_2
_geom_bond_distance
_geom_bond_site_symmetry_2
Cr0 O7 1.813306 1_555
Cr0 O11 1.902641 1_565
Cr0 O6 1.915152 1_555
Cr0 O8 2.025959 1_565
Cr0 O10 2.061589 1_654
Cr0 O9 2.101745 1_554
Cr1 O5 1.813312 1_555
Cr1 O9 1.902641 1_545
Cr1 O4 1.915152 1_555
Cr1 O10 2.025959 1_545
Cr1 O8 2.061588 1_456
Cr1 O11 2.101739 1_556
Ge0 O3 1.739206 1_555
Ge0 O0 1.746098 1_555
Ge0 O7 1.787789 1_555
Ge0 O8 1.797019 1_555
Ge1 O6 1.736601 1_555
Ge1 O1 1.754228 1_655
Ge1 O2 1.756478 1_555
Ge1 O9 1.828640 1_555
Ge2 O1 1.739206 1_555
Ge2 O2 1.746098 1_555
Ge2 O5 1.787784 1_555
Ge2 O10 1.797019 1_555
Ge3 O4 1.736606 1_555
Ge3 O3 1.754228 1_455
Ge3 O0 1.756478 1_555
Ge3 O11 1.828640 1_555
