# generated using pymatgen
data_ZnH2SeO4
_symmetry_space_group_name_H-M   'P 1'
_cell_length_a   13.80636600
_cell_length_b   4.85865400
_cell_length_c   7.34526425
_cell_angle_alpha   51.73938758
_cell_angle_beta   90.00000000
_cell_angle_gamma   90.00000000
_symmetry_Int_Tables_number   1
_chemical_formula_structural   ZnH2SeO4
_chemical_formula_sum   'Zn4 H8 Se4 O16'
_cell_volume   386.88715717
_cell_formula_units_Z   4
loop_
 _symmetry_equiv_pos_site_id
 _symmetry_equiv_pos_as_xyz
  1  'x, y, z'
loop_
 _atom_site_type_symbol
 _atom_site_label
 _atom_site_symmetry_multiplicity
 _atom_site_fract_x
 _atom_site_fract_y
 _atom_site_fract_z
 _atom_site_occupancy
  Zn  Zn0  1  0.26886200  0.32097700  0.37280300  1
  Zn  Zn1  1  0.76886200  0.67902300  0.12719700  1
  Zn  Zn2  1  0.73113800  0.67902300  0.62719700  1
  Zn  Zn3  1  0.23113800  0.32097700  0.87280300  1
  H  H0  1  0.11834700  0.78792300  0.03667000  1
  H  H1  1  0.61834700  0.21207700  0.46333000  1
  H  H2  1  0.88165300  0.21207700  0.96333000  1
  H  H3  1  0.38165300  0.78792300  0.53667000  1
  H  H4  1  0.13202300  0.96261700  0.77133900  1
  H  H5  1  0.63202300  0.03738300  0.72866100  1
  H  H6  1  0.86797700  0.03738300  0.22866100  1
  H  H7  1  0.36797700  0.96261700  0.27133900  1
  Se  Se0  1  0.39287900  0.89174700  0.87945300  1
  Se  Se1  1  0.89287900  0.10825300  0.62054700  1
  Se  Se2  1  0.60712100  0.10825300  0.12054700  1
  Se  Se3  1  0.10712100  0.89174700  0.37945300  1
  O  O0  1  0.31915800  0.24594300  0.66483600  1
  O  O1  1  0.81915800  0.75405700  0.83516400  1
  O  O2  1  0.68084200  0.75405700  0.33516400  1
  O  O3  1  0.18084200  0.24594300  0.16483600  1
  O  O4  1  0.17329500  0.80742700  0.61363400  1
  O  O5  1  0.67329500  0.19257300  0.88636600  1
  O  O6  1  0.82670500  0.19257300  0.38636600  1
  O  O7  1  0.32670500  0.80742700  0.11363400  1
  O  O8  1  0.13677100  0.56292400  0.36860600  1
  O  O9  1  0.63677100  0.43707600  0.13139400  1
  O  O10  1  0.86322900  0.43707600  0.63139400  1
  O  O11  1  0.36322900  0.56292400  0.86860600  1
  O  O12  1  0.38257700  0.01548300  0.37938500  1
  O  O13  1  0.88257700  0.98451700  0.12061500  1
  O  O14  1  0.61742300  0.98451700  0.62061500  1
  O  O15  1  0.11742300  0.01548300  0.87938500  1
loop_
_geom_bond_atom_site_label_1
_geom_bond_atom_site_label_2
_geom_bond_distance
_geom_bond_site_symmetry_2
H0 O15 0.987599 1_564
H1 O14 0.987599 1_545
H2 O13 0.987599 1_546
H3 O12 0.987599 1_565
H4 O15 0.994441 1_565
H5 O14 0.994441 1_545
H6 O13 0.994441 1_545
H7 O12 0.994441 1_565
O0 Se0 1.767131 1_545
O0 Zn0 2.061039 1_555
O0 Zn3 2.152415 1_555
O1 Se1 1.767131 1_565
O1 Zn1 2.061039 1_556
O1 Zn2 2.152415 1_555
O2 Se2 1.767131 1_565
O2 Zn2 2.061039 1_555
O2 Zn1 2.152415 1_555
O3 Se3 1.767131 1_545
O3 Zn3 2.061039 1_554
O3 Zn0 2.152415 1_555
O4 Se3 1.757442 1_555
O4 Zn3 2.067732 1_555
O4 Zn0 2.372659 1_565
O5 Se2 1.757442 1_556
O5 Zn2 2.067732 1_555
O5 Zn1 2.372659 1_546
O6 Se1 1.757442 1_555
O6 Zn1 2.067732 1_555
O6 Zn2 2.372659 1_545
O7 Se0 1.757442 1_554
O7 Zn0 2.067732 1_555
O7 Zn3 2.372659 1_564
O8 Se3 1.698238 1_555
O8 Zn0 2.159589 1_555
O9 Se2 1.698238 1_555
O9 Zn1 2.159589 1_555
O10 Se1 1.698238 1_555
O10 Zn2 2.159589 1_555
O11 Se0 1.698238 1_555
O11 Zn3 2.159589 1_555
O12 Zn0 2.140432 1_555
O13 Zn1 2.140432 1_555
O14 Zn2 2.140432 1_555
O15 Zn3 2.140432 1_555
