# generated using pymatgen
data_MgMn6(OF)6
_symmetry_space_group_name_H-M   'P 1'
_cell_length_a   4.86933835
_cell_length_b   4.93320667
_cell_length_c   9.49389062
_cell_angle_alpha   91.43448999
_cell_angle_beta   89.70629925
_cell_angle_gamma   89.59660682
_symmetry_Int_Tables_number   1
_chemical_formula_structural   MgMn6(OF)6
_chemical_formula_sum   'Mg1 Mn6 O6 F6'
_cell_volume   227.97671169
_cell_formula_units_Z   1
loop_
 _symmetry_equiv_pos_site_id
 _symmetry_equiv_pos_as_xyz
  1  'x, y, z'
loop_
 _atom_site_type_symbol
 _atom_site_label
 _atom_site_symmetry_multiplicity
 _atom_site_fract_x
 _atom_site_fract_y
 _atom_site_fract_z
 _atom_site_occupancy
  Mg  Mg0  1  0.55198266  0.02599698  0.49616453  1
  Mn  Mn0  1  0.98562962  0.92980532  0.99776064  1
  Mn  Mn1  1  0.04085769  0.02356127  0.30764060  1
  Mn  Mn2  1  0.05981677  0.00765332  0.68904380  1
  Mn  Mn3  1  0.49208810  0.49829481  0.83470020  1
  Mn  Mn4  1  0.54099986  0.44257629  0.15971644  1
  Mn  Mn5  1  0.21308215  0.49288578  0.49666968  1
  O  O0  1  0.17721817  0.88284343  0.48616298  1
  O  O1  1  0.18204025  0.75863131  0.83990299  1
  O  O2  1  0.35481743  0.27387563  0.32575344  1
  O  O3  1  0.34977793  0.29634335  0.66419166  1
  O  O4  1  0.67997231  0.66072858  0.00195666  1
  O  O5  1  0.84390988  0.17081524  0.15231003  1
  F  F0  1  0.21706310  0.72520080  0.16778031  1
  F  F1  1  0.30382064  0.22596168  0.99553094  1
  F  F2  1  0.71240232  0.78165702  0.34132910  1
  F  F3  1  0.69146647  0.79260984  0.64823902  1
  F  F4  1  0.83771519  0.29162546  0.48597479  1
  F  F5  1  0.80700545  0.21893691  0.83278722  1
loop_
_geom_bond_atom_site_label_1
_geom_bond_atom_site_label_2
_geom_bond_distance
_geom_bond_site_symmetry_2
Mg0 O0 1.963264 1_545
Mg0 O2 2.265609 1_555
Mg0 O3 2.269753 1_555
Mn0 O1 1.945347 1_655
Mn0 O5 1.983289 1_566
Mn0 O4 2.002161 1_556
Mn1 O5 1.918447 1_455
Mn1 O0 1.964516 1_545
Mn1 O2 1.977431 1_555
Mn2 O1 2.000302 1_545
Mn2 O3 2.029572 1_555
Mn2 O0 2.083328 1_545
Mn3 O1 1.974813 1_555
Mn3 O4 1.990499 1_556
Mn3 O3 2.008405 1_555
Mn4 O4 1.984930 1_555
Mn4 O5 1.986003 1_555
Mn4 O2 2.015194 1_555
Mn5 O0 1.935532 1_555
Mn5 O3 1.997899 1_555
Mn5 O2 2.041298 1_555
F0 Mn4 2.097686 1_555
F0 Mn1 2.130345 1_565
F0 Mn0 2.231243 1_454
F1 Mn0 2.137436 1_445
F1 Mn4 2.204062 1_556
F1 Mn3 2.254437 1_555
F2 Mg0 2.027373 1_565
F2 Mn1 2.031036 1_665
F2 Mn4 2.521429 1_555
F3 Mg0 1.988384 1_565
F3 Mn2 2.122712 1_665
F3 Mn3 2.513019 1_555
F4 Mg0 1.921703 1_555
F4 Mn5 2.087893 1_655
F4 Mn1 2.333686 1_655
F4 Mn2 2.642771 1_655
F5 Mn3 2.054194 1_555
F5 Mn2 2.087505 1_655
F5 Mn0 2.313534 1_545
