# generated using pymatgen
data_Y2In
_symmetry_space_group_name_H-M   'P 1'
_cell_length_a   5.39418632
_cell_length_b   5.39418533
_cell_length_c   6.77035724
_cell_angle_alpha   90.00000000
_cell_angle_beta   90.00000000
_cell_angle_gamma   119.99999321
_symmetry_Int_Tables_number   1
_chemical_formula_structural   Y2In
_chemical_formula_sum   'Y4 In2'
_cell_volume   170.60590287
_cell_formula_units_Z   2
loop_
 _symmetry_equiv_pos_site_id
 _symmetry_equiv_pos_as_xyz
  1  'x, y, z'
loop_
 _atom_site_type_symbol
 _atom_site_label
 _atom_site_symmetry_multiplicity
 _atom_site_fract_x
 _atom_site_fract_y
 _atom_site_fract_z
 _atom_site_occupancy
  Y  Y0  1  -0.00000000  -0.00000000  0.00000000  1
  Y  Y1  1  -0.00000000  -0.00000000  0.50000000  1
  Y  Y2  1  0.33333300  0.66666700  0.74999040  1
  Y  Y3  1  0.66666700  0.33333300  0.25000960  1
  In  In0  1  0.33333300  0.66666700  0.24999892  1
  In  In1  1  0.66666700  0.33333300  0.75000108  1
loop_
_geom_bond_atom_site_label_1
_geom_bond_atom_site_label_2
_geom_bond_distance
_geom_bond_site_symmetry_2
Y0 Y1 3.385179 1_554
Y0 Y1 3.385179 1_555
Y0 Y3 3.544593 1_455
Y0 Y2 3.544593 1_544
Y0 Y3 3.544597 1_445
Y0 Y2 3.544597 1_554
Y0 Y3 3.544598 1_555
Y0 Y2 3.544598 1_444
Y1 Y2 3.544531 1_545
Y1 Y3 3.544531 1_455
Y1 Y2 3.544535 1_555
Y1 Y3 3.544535 1_445
Y1 Y2 3.544535 1_445
Y1 Y3 3.544535 1_555
In0 Y3 3.114331 1_565
In0 Y3 3.114332 1_455
In0 Y3 3.114341 1_555
In0 Y2 3.385121 1_555
In0 Y2 3.385236 1_554
In0 Y0 3.544558 1_565
In0 Y0 3.544562 1_555
In0 Y0 3.544563 1_665
In0 Y1 3.544565 1_565
In0 Y1 3.544569 1_555
In0 Y1 3.544570 1_665
In1 Y2 3.114331 1_545
In1 Y2 3.114332 1_655
In1 Y2 3.114341 1_555
In1 Y3 3.385121 1_555
In1 Y3 3.385236 1_556
In1 Y0 3.544558 1_656
In1 Y0 3.544562 1_666
In1 Y0 3.544563 1_556
In1 Y1 3.544565 1_655
In1 Y1 3.544569 1_665
In1 Y1 3.544570 1_555
