# generated using pymatgen
data_LiSnP2O7
_symmetry_space_group_name_H-M   'P 1'
_cell_length_a   5.22393900
_cell_length_b   7.16281717
_cell_length_c   8.67333578
_cell_angle_alpha   67.52745572
_cell_angle_beta   87.99206173
_cell_angle_gamma   87.79654872
_symmetry_Int_Tables_number   1
_chemical_formula_structural   LiSnP2O7
_chemical_formula_sum   'Li2 Sn2 P4 O14'
_cell_volume   299.60080172
_cell_formula_units_Z   2
loop_
 _symmetry_equiv_pos_site_id
 _symmetry_equiv_pos_as_xyz
  1  'x, y, z'
loop_
 _atom_site_type_symbol
 _atom_site_label
 _atom_site_symmetry_multiplicity
 _atom_site_fract_x
 _atom_site_fract_y
 _atom_site_fract_z
 _atom_site_occupancy
  Li  Li0  1  0.28891300  0.83481700  0.00030100  1
  Li  Li1  1  0.75292600  0.16447800  0.43070100  1
  Sn  Sn0  1  0.75169900  0.78451200  0.27398300  1
  Sn  Sn1  1  0.24379400  0.24431000  0.72011200  1
  P  P0  1  0.78252900  0.88651800  0.82052900  1
  P  P1  1  0.26294300  0.44179800  0.30080400  1
  P  P2  1  0.22681800  0.11506400  0.17916700  1
  P  P3  1  0.73238500  0.55615600  0.69379900  1
  O  O0  1  0.54706700  0.44074200  0.33888600  1
  O  O1  1  0.07123000  0.93111800  0.80624200  1
  O  O2  1  0.95383400  0.05291400  0.25236700  1
  O  O3  1  0.44503600  0.52468000  0.68399700  1
  O  O4  1  0.14893500  0.65841700  0.21479500  1
  O  O5  1  0.26213500  0.11270100  0.00510300  1
  O  O6  1  0.85111300  0.70219600  0.52891500  1
  O  O7  1  0.76386800  0.65787400  0.82760800  1
  O  O8  1  0.43775000  0.99467500  0.29990100  1
  O  O9  1  0.66142400  0.86334200  0.99111200  1
  O  O10  1  0.88149000  0.35392600  0.76801400  1
  O  O11  1  0.10146500  0.30992000  0.45353100  1
  O  O12  1  0.24055500  0.34849100  0.15806300  1
  O  O13  1  0.63157600  0.03312000  0.67323200  1
loop_
_geom_bond_atom_site_label_1
_geom_bond_atom_site_label_2
_geom_bond_distance
_geom_bond_site_symmetry_2
Li0 O4 1.941882 1_555
Li0 O1 1.946315 1_554
Li0 O9 1.960146 1_554
Li0 O5 2.006161 1_565
Li1 O13 2.037503 1_555
Li1 O0 2.097161 1_555
Li1 O11 2.183676 1_655
Li1 O2 2.213414 1_555
Li1 O8 2.610918 1_545
O0 P1 1.530922 1_555
O0 Sn0 2.573599 1_555
O1 P0 1.544550 1_455
O1 Sn1 2.287011 1_565
O2 P2 1.550544 1_655
O2 Sn0 2.170923 1_545
O3 P3 1.536542 1_555
O3 Sn1 2.212394 1_555
O4 P1 1.547216 1_555
O4 Sn0 2.349719 1_455
O5 P2 1.520967 1_555
O5 Sn1 2.288239 1_554
O6 P3 1.538892 1_555
O6 Sn0 2.136967 1_555
O7 P3 1.604316 1_555
O7 P0 1.621861 1_555
O8 P2 1.540066 1_565
O8 Sn0 2.247092 1_555
O9 P0 1.539970 1_555
O9 Sn0 2.358414 1_556
O10 P3 1.534558 1_555
O10 Sn1 2.109796 1_655
O11 P1 1.544334 1_555
O11 Sn1 2.320046 1_555
O12 P2 1.615104 1_555
O12 P1 1.625367 1_555
O13 P0 1.529054 1_545
O13 Sn1 2.595025 1_555
