# generated using pymatgen
data_Na6Ta3Ga(SiO4)6
_symmetry_space_group_name_H-M   'P 1'
_cell_length_a   15.67170226
_cell_length_b   9.02259579
_cell_length_c   9.00794486
_cell_angle_alpha   90.66672363
_cell_angle_beta   124.92165551
_cell_angle_gamma   89.71445842
_symmetry_Int_Tables_number   1
_chemical_formula_structural   Na6Ta3Ga(SiO4)6
_chemical_formula_sum   'Na12 Ta6 Ga2 Si12 O48'
_cell_volume   1044.29405504
_cell_formula_units_Z   2
loop_
 _symmetry_equiv_pos_site_id
 _symmetry_equiv_pos_as_xyz
  1  'x, y, z'
loop_
 _atom_site_type_symbol
 _atom_site_label
 _atom_site_symmetry_multiplicity
 _atom_site_fract_x
 _atom_site_fract_y
 _atom_site_fract_z
 _atom_site_occupancy
  Na  Na0  1  0.24983925  0.75041381  0.99875647  1
  Na  Na1  1  0.74374211  0.74892535  0.48122849  1
  Na  Na2  1  0.74983925  0.25041381  0.99875647  1
  Na  Na3  1  0.24374211  0.24892535  0.48122849  1
  Na  Na4  1  0.50229431  0.07895218  0.76027373  1
  Na  Na5  1  0.50183594  0.90206187  0.23833322  1
  Na  Na6  1  0.00229431  0.57895218  0.76027373  1
  Na  Na7  1  0.00183594  0.40206187  0.23833322  1
  Na  Na8  1  0.80919700  0.92176774  0.20290497  1
  Na  Na9  1  0.18162085  0.08134838  0.80575716  1
  Na  Na10  1  0.30919700  0.42176774  0.20290497  1
  Na  Na11  1  0.68162085  0.58134838  0.80575716  1
  Ta  Ta0  1  0.10540129  0.75252490  0.56443059  1
  Ta  Ta1  1  0.89439815  0.75181917  0.92804255  1
  Ta  Ta2  1  0.89334923  0.24827705  0.43271779  1
  Ta  Ta3  1  0.60540129  0.25252490  0.56443059  1
  Ta  Ta4  1  0.39439815  0.25181917  0.92804255  1
  Ta  Ta5  1  0.39334923  0.74827705  0.43271779  1
  Ga  Ga0  1  0.10418570  0.24708690  0.06807778  1
  Ga  Ga1  1  0.60418570  0.74708690  0.06807778  1
  Si  Si0  1  0.99902220  0.96424349  0.75447329  1
  Si  Si1  1  0.00438846  0.04414943  0.25018526  1
  Si  Si2  1  0.49902220  0.46424349  0.75447329  1
  Si  Si3  1  0.50438846  0.54414943  0.25018526  1
  Si  Si4  1  0.35681324  0.88804916  0.76031720  1
  Si  Si5  1  0.64662986  0.89582534  0.75184556  1
  Si  Si6  1  0.64643891  0.10528462  0.24470651  1
  Si  Si7  1  0.35176113  0.10397732  0.25033211  1
  Si  Si8  1  0.85681324  0.38804916  0.76031720  1
  Si  Si9  1  0.14662986  0.39582534  0.75184556  1
  Si  Si10  1  0.14643891  0.60528462  0.24470651  1
  Si  Si11  1  0.85176113  0.60397732  0.25033211  1
  O  O0  1  0.14810615  0.57673491  0.73391935  1
  O  O1  1  0.84904533  0.57239470  0.76107943  1
  O  O2  1  0.85367553  0.42222837  0.25959650  1
  O  O3  1  0.15352844  0.42668953  0.24322892  1
  O  O4  1  0.64810615  0.07673491  0.73391935  1
  O  O5  1  0.34904533  0.07239470  0.76107943  1
  O  O6  1  0.35367553  0.92222837  0.25959650  1
  O  O7  1  0.65352844  0.92668953  0.24322892  1
  O  O8  1  0.42952638  0.56525504  0.56967366  1
  O  O9  1  0.57654279  0.56891914  0.92686069  1
  O  O10  1  0.56682632  0.43576389  0.42871083  1
  O  O11  1  0.43156453  0.42861371  0.07743089  1
  O  O12  1  0.92952638  0.06525504  0.56967366  1
  O  O13  1  0.07654279  0.06891914  0.92686069  1
  O  O14  1  0.06682632  0.93576389  0.42871083  1
  O  O15  1  0.93156453  0.92861371  0.07743089  1
  O  O16  1  0.25214210  0.82687009  0.74016722  1
  O  O17  1  0.74284916  0.81282468  0.75957105  1
  O  O18  1  0.74549893  0.17902572  0.25592271  1
  O  O19  1  0.25896970  0.18909694  0.24316167  1
  O  O20  1  0.75214210  0.32687009  0.74016722  1
  O  O21  1  0.24284916  0.31282468  0.75957105  1
  O  O22  1  0.24549893  0.67902572  0.25592271  1
  O  O23  1  0.75896970  0.68909694  0.24316167  1
  O  O24  1  0.35999613  0.85393060  0.58207019  1
  O  O25  1  0.64878544  0.86660770  0.93120683  1
  O  O26  1  0.64133710  0.15013318  0.41775428  1
  O  O27  1  0.35377893  0.14085794  0.07120719  1
  O  O28  1  0.85999613  0.35393060  0.58207019  1
  O  O29  1  0.14878544  0.36660770  0.93120683  1
  O  O30  1  0.14133710  0.65013318  0.41775428  1
  O  O31  1  0.85377893  0.64085794  0.07120719  1
  O  O32  1  0.46191050  0.83178018  0.94263858  1
  O  O33  1  0.53841829  0.82517343  0.57102219  1
  O  O34  1  0.53720791  0.17122859  0.06462705  1
  O  O35  1  0.46293571  0.17007207  0.42763157  1
  O  O36  1  0.96191050  0.33178018  0.94263858  1
  O  O37  1  0.03841829  0.32517343  0.57102219  1
  O  O38  1  0.03720791  0.67122859  0.06462705  1
  O  O39  1  0.96293571  0.67007207  0.42763157  1
  O  O40  1  0.07771092  0.85417039  0.73539399  1
  O  O41  1  0.91932625  0.85055670  0.76054151  1
  O  O42  1  0.91671871  0.14097289  0.25800825  1
  O  O43  1  0.08268112  0.15539291  0.24619278  1
  O  O44  1  0.57771092  0.35417039  0.73539399  1
  O  O45  1  0.41932625  0.35055670  0.76054151  1
  O  O46  1  0.41671871  0.64097289  0.25800825  1
  O  O47  1  0.58268112  0.65539291  0.24619278  1
loop_
_geom_bond_atom_site_label_1
_geom_bond_atom_site_label_2
_geom_bond_distance
_geom_bond_site_symmetry_2
Na0 O22 2.449780 1_556
Na0 O16 2.457025 1_555
Na0 O6 2.476848 1_556
Na0 O0 2.504394 1_555
Na0 O46 2.510743 1_556
Na0 O40 2.545744 1_555
Na1 O47 2.329590 1_555
Na1 O23 2.346251 1_555
Na1 O7 2.398900 1_555
Na1 O17 2.574018 1_555
Na1 O41 2.605369 1_555
Na1 O1 2.630475 1_555
Na2 O18 2.449780 1_556
Na2 O20 2.457025 1_555
Na2 O2 2.476848 1_556
Na2 O4 2.504394 1_555
Na2 O42 2.510743 1_556
Na2 O44 2.545744 1_555
Na3 O43 2.329590 1_555
Na3 O19 2.346251 1_555
Na3 O3 2.398900 1_555
Na3 O21 2.574018 1_555
Na3 O45 2.605369 1_555
Na3 O5 2.630475 1_555
Na4 O5 2.406858 1_555
Na4 O4 2.428798 1_555
Na4 O34 2.596705 1_556
Na4 O25 2.699944 1_545
Na4 O24 2.746404 1_545
Na4 O45 2.769058 1_555
Na4 O44 2.821134 1_555
Na4 O35 2.823318 1_555
Na5 O7 2.363850 1_555
Na5 O32 2.438217 1_554
Na5 O6 2.442396 1_555
Na5 O47 2.537004 1_555
Na5 O46 2.769805 1_555
Na5 O33 2.805058 1_555
Na5 O27 2.884215 1_565
Na5 O26 2.884547 1_565
Na6 O1 2.406858 1_455
Na6 O0 2.428798 1_555
Na6 O38 2.596705 1_556
Na6 O29 2.699944 1_555
Na6 O28 2.746404 1_455
Na6 O41 2.769058 1_455
Na6 O40 2.821134 1_555
Na6 O39 2.823318 1_455
Na7 O3 2.363850 1_555
Na7 O36 2.438217 1_454
Na7 O2 2.442396 1_455
Na7 O43 2.537004 1_555
Na7 O42 2.769805 1_455
Na7 O37 2.805058 1_555
Na7 O31 2.884215 1_455
Na7 O30 2.884547 1_555
Na8 O25 2.344636 1_554
Na8 O23 2.349284 1_555
Na8 O42 2.459720 1_565
Na8 O7 2.664324 1_555
Na8 O18 2.666310 1_565
Na8 O15 2.728247 1_555
Na9 O27 2.425594 1_556
Na9 O21 2.439876 1_555
Na9 O13 2.444558 1_555
Na9 O40 2.465014 1_545
Na9 O16 2.744654 1_545
Na9 O5 2.873863 1_555
Na10 O29 2.344636 1_554
Na10 O19 2.349284 1_555
Na10 O46 2.459720 1_555
Na10 O3 2.664324 1_555
Na10 O22 2.666310 1_555
Na10 O11 2.728247 1_555
Na11 O31 2.425594 1_556
Na11 O17 2.439876 1_555
Na11 O9 2.444558 1_555
Na11 O44 2.465014 1_555
Na11 O20 2.744654 1_555
Na11 O1 2.873863 1_555
Ga0 O13 1.928325 1_554
Ga0 O36 1.987669 1_454
Ga0 O43 2.006251 1_555
Ga0 O29 2.048574 1_554
Ga0 O3 2.066245 1_555
Ga0 O19 2.066819 1_555
Ga1 O9 1.928325 1_554
Ga1 O32 1.987669 1_554
Ga1 O47 2.006251 1_555
Ga1 O25 2.048574 1_554
Ga1 O7 2.066245 1_555
Ga1 O23 2.066819 1_555
O0 Si9 1.643690 1_555
O0 Ta0 2.042164 1_555
O1 Si8 1.667341 1_555
O1 Ta1 2.029496 1_555
O2 Si11 1.642191 1_555
O2 Ta2 2.054007 1_555
O3 Si10 1.615089 1_555
O4 Si5 1.643690 1_545
O4 Ta3 2.042164 1_555
O5 Si4 1.667341 1_545
O5 Ta4 2.029496 1_555
O6 Si7 1.642191 1_565
O6 Ta5 2.054007 1_555
O7 Si6 1.615089 1_565
O8 Si2 1.654564 1_555
O8 Ta5 1.951309 1_555
O9 Si2 1.611417 1_555
O10 Si3 1.650875 1_555
O10 Ta3 1.945347 1_555
O11 Si3 1.658778 1_555
O11 Ta4 1.938176 1_554
O12 Si0 1.654564 1_545
O12 Ta2 1.951309 1_555
O13 Si0 1.611417 1_445
O14 Si1 1.650875 1_565
O14 Ta0 1.945347 1_555
O15 Si1 1.658778 1_665
O15 Ta1 1.938176 1_554
O16 Si4 1.641425 1_555
O16 Ta0 2.016709 1_555
O17 Si5 1.645996 1_555
O17 Ta1 2.031403 1_555
O18 Si6 1.640761 1_555
O18 Ta2 2.015421 1_555
O19 Si7 1.609713 1_555
O20 Si8 1.641425 1_555
O20 Ta3 2.016709 1_555
O21 Si9 1.645996 1_555
O21 Ta4 2.031403 1_555
O22 Si10 1.640761 1_555
O22 Ta5 2.015421 1_555
O23 Si11 1.609713 1_555
O24 Si4 1.659931 1_555
O24 Ta5 1.939648 1_555
O25 Si5 1.621228 1_555
O26 Si6 1.651574 1_555
O26 Ta3 1.932533 1_555
O27 Si7 1.669216 1_555
O27 Ta4 2.011705 1_554
O28 Si8 1.659931 1_555
O28 Ta2 1.939648 1_555
O29 Si9 1.621228 1_555
O30 Si10 1.651574 1_555
O30 Ta0 1.932533 1_555
O31 Si11 1.669216 1_555
O31 Ta1 2.011705 1_554
O32 Si4 1.606822 1_555
O33 Si5 1.661165 1_555
O33 Ta5 1.988708 1_555
O34 Si6 1.657954 1_555
O34 Ta4 1.975706 1_554
O35 Si7 1.656590 1_555
O35 Ta3 1.975362 1_555
O36 Si8 1.606822 1_555
O37 Si9 1.661165 1_555
O37 Ta2 1.988708 1_455
O38 Si10 1.657954 1_555
O38 Ta1 1.975706 1_454
O39 Si11 1.656590 1_555
O39 Ta0 1.975362 1_655
O40 Si0 1.662257 1_455
O40 Ta0 2.032093 1_555
O41 Si0 1.645393 1_555
O41 Ta1 1.983050 1_555
O42 Si1 1.659304 1_655
O42 Ta2 2.041848 1_555
O43 Si1 1.605563 1_555
O44 Si2 1.662257 1_555
O44 Ta3 2.032093 1_555
O45 Si2 1.645393 1_555
O45 Ta4 1.983050 1_555
O46 Si3 1.659304 1_555
O46 Ta5 2.041848 1_555
O47 Si3 1.605563 1_555
