# generated using pymatgen
data_PbICl
_symmetry_space_group_name_H-M   'P 1'
_cell_length_a   4.63237800
_cell_length_b   8.33019300
_cell_length_c   9.87218400
_cell_angle_alpha   90.00000000
_cell_angle_beta   90.00000000
_cell_angle_gamma   90.00000000
_symmetry_Int_Tables_number   1
_chemical_formula_structural   PbICl
_chemical_formula_sum   'Pb4 I4 Cl4'
_cell_volume   380.95378704
_cell_formula_units_Z   4
loop_
 _symmetry_equiv_pos_site_id
 _symmetry_equiv_pos_as_xyz
  1  'x, y, z'
loop_
 _atom_site_type_symbol
 _atom_site_label
 _atom_site_symmetry_multiplicity
 _atom_site_fract_x
 _atom_site_fract_y
 _atom_site_fract_z
 _atom_site_occupancy
  Pb  Pb0  1  0.25000000  0.20364100  0.87739100  1
  Pb  Pb1  1  0.75000000  0.79635900  0.12260900  1
  Pb  Pb2  1  0.25000000  0.70364100  0.62260900  1
  Pb  Pb3  1  0.75000000  0.29635900  0.37739100  1
  I  I0  1  0.25000000  0.96791400  0.33030100  1
  I  I1  1  0.75000000  0.53208600  0.83030100  1
  I  I2  1  0.25000000  0.46791400  0.16969900  1
  I  I3  1  0.75000000  0.03208600  0.66969900  1
  Cl  Cl0  1  0.75000000  0.13963200  0.05817600  1
  Cl  Cl1  1  0.25000000  0.36036800  0.55817600  1
  Cl  Cl2  1  0.75000000  0.63963200  0.44182400  1
  Cl  Cl3  1  0.25000000  0.86036800  0.94182400  1
loop_
_geom_bond_atom_site_label_1
_geom_bond_atom_site_label_2
_geom_bond_distance
_geom_bond_site_symmetry_2
I0 Pb1 3.407499 1_455
I0 Pb1 3.407499 1_555
I1 Pb2 3.407499 1_555
I1 Pb2 3.407499 1_655
I2 Pb3 3.407499 1_555
I2 Pb3 3.407499 1_455
I3 Pb0 3.407499 1_655
I3 Pb0 3.407499 1_555
Cl0 Pb1 2.929425 1_545
Cl0 Pb0 2.972263 1_654
Cl0 Pb0 2.972263 1_554
Cl1 Pb2 2.929425 1_555
Cl1 Pb3 2.972263 1_455
Cl1 Pb3 2.972263 1_555
Cl2 Pb3 2.929425 1_555
Cl2 Pb2 2.972263 1_555
Cl2 Pb2 2.972263 1_655
Cl3 Pb0 2.929425 1_565
Cl3 Pb1 2.972263 1_456
Cl3 Pb1 2.972263 1_556
