# generated using pymatgen
data_Mg2Ni
_symmetry_space_group_name_H-M   'P 1'
_cell_length_a   5.15114353
_cell_length_b   5.15114390
_cell_length_c   13.07114086
_cell_angle_alpha   90.00000000
_cell_angle_beta   90.00000000
_cell_angle_gamma   119.99999769
_symmetry_Int_Tables_number   1
_chemical_formula_structural   Mg2Ni
_chemical_formula_sum   'Mg12 Ni6'
_cell_volume   300.36648344
_cell_formula_units_Z   6
loop_
 _symmetry_equiv_pos_site_id
 _symmetry_equiv_pos_as_xyz
  1  'x, y, z'
loop_
 _atom_site_type_symbol
 _atom_site_label
 _atom_site_symmetry_multiplicity
 _atom_site_fract_x
 _atom_site_fract_y
 _atom_site_fract_z
 _atom_site_occupancy
  Mg  Mg0  1  0.50000000  -0.00000000  0.11605652  1
  Mg  Mg1  1  0.50000000  0.50000000  0.44939052  1
  Mg  Mg2  1  -0.00000000  0.50000000  0.78272352  1
  Mg  Mg3  1  0.50000000  -0.00000000  0.88394348  1
  Mg  Mg4  1  0.50000000  0.50000000  0.21727648  1
  Mg  Mg5  1  -0.00000000  0.50000000  0.55060948  1
  Mg  Mg6  1  0.16426222  0.32852743  0.00000000  1
  Mg  Mg7  1  0.83573778  0.16426222  0.33333300  1
  Mg  Mg8  1  0.32852743  0.16426222  0.66666700  1
  Mg  Mg9  1  0.67147257  0.83573778  0.66666700  1
  Mg  Mg10  1  0.16426222  0.83573778  0.33333300  1
  Mg  Mg11  1  0.83573778  0.67147257  0.00000000  1
  Ni  Ni0  1  -0.00000000  -0.00000000  0.16666700  1
  Ni  Ni1  1  -0.00000000  -0.00000000  0.50000000  1
  Ni  Ni2  1  -0.00000000  -0.00000000  0.83333300  1
  Ni  Ni3  1  -0.00000000  0.50000000  0.16666700  1
  Ni  Ni4  1  0.50000000  -0.00000000  0.50000000  1
  Ni  Ni5  1  0.50000000  0.50000000  0.83333300  1
loop_
_geom_bond_atom_site_label_1
_geom_bond_atom_site_label_2
_geom_bond_distance
_geom_bond_site_symmetry_2
Mg0 Ni0 2.659173 1_555
Mg0 Ni0 2.659173 1_655
Mg0 Ni3 2.659173 1_545
Mg0 Ni3 2.659173 1_655
Mg0 Mg4 2.895524 1_545
Mg0 Mg4 2.895524 1_555
Mg0 Mg3 3.033982 1_554
Mg0 Mg7 3.210832 1_555
Mg0 Mg10 3.210832 1_545
Mg0 Mg6 3.329066 1_655
Mg0 Mg11 3.329066 1_445
Mg0 Mg11 3.329078 1_545
Mg0 Mg6 3.329078 1_555
Mg0 Mg6 3.357678 1_545
Mg0 Mg11 3.357678 1_555
Mg1 Ni1 2.659170 1_665
Mg1 Ni1 2.659170 1_555
Mg1 Ni4 2.659170 1_555
Mg1 Ni4 2.659170 1_565
Mg1 Mg5 2.895518 1_655
Mg1 Mg5 2.895518 1_555
Mg1 Mg4 3.033995 1_555
Mg1 Mg8 3.210832 1_555
Mg1 Mg9 3.210832 1_555
Mg1 Mg10 3.329072 1_655
Mg1 Mg7 3.329072 1_455
Mg1 Mg7 3.329072 1_565
Mg1 Mg10 3.329072 1_545
Mg1 Mg7 3.357696 1_555
Mg1 Mg10 3.357696 1_555
Mg2 Ni5 2.659170 1_455
Mg2 Ni5 2.659170 1_555
Mg2 Ni2 2.659170 1_565
Mg2 Ni2 2.659170 1_555
Mg2 Mg3 2.895524 1_565
Mg2 Mg3 2.895524 1_455
Mg2 Mg5 3.033995 1_555
Mg2 Mg6 3.210826 1_556
Mg2 Mg9 3.329066 1_445
Mg2 Mg8 3.329066 1_565
Mg2 Mg9 3.329078 1_455
Mg2 Mg8 3.329078 1_555
Mg2 Mg8 3.357678 1_455
Mg2 Mg9 3.357678 1_555
Mg3 Ni2 2.659173 1_655
Mg3 Ni2 2.659173 1_555
Mg3 Ni5 2.659173 1_545
Mg3 Ni5 2.659173 1_555
Mg3 Mg8 3.210826 1_555
Mg3 Mg9 3.210826 1_545
Mg3 Mg6 3.329066 1_656
Mg3 Mg6 3.329078 1_556
Mg3 Mg6 3.357678 1_546
Mg4 Ni3 2.659170 1_655
Mg4 Ni3 2.659170 1_555
Mg4 Ni0 2.659170 1_665
Mg4 Ni0 2.659170 1_555
Mg4 Mg6 3.210832 1_555
Mg4 Mg7 3.329066 1_455
Mg4 Mg7 3.329066 1_565
Mg4 Mg7 3.357690 1_555
Mg5 Ni4 2.659170 1_565
Mg5 Ni4 2.659170 1_455
Mg5 Ni1 2.659170 1_555
Mg5 Ni1 2.659170 1_565
Mg5 Mg7 3.210832 1_455
Mg5 Mg9 3.329072 1_445
Mg5 Mg8 3.329072 1_565
Mg5 Mg9 3.329084 1_455
Mg5 Mg8 3.329084 1_555
Mg5 Mg8 3.357684 1_455
Mg5 Mg9 3.357684 1_555
Mg6 Ni0 2.625619 1_555
Mg6 Ni2 2.625619 1_554
Mg6 Ni3 2.643765 1_555
Mg6 Ni5 2.643773 1_554
Mg7 Ni0 2.625600 1_655
Mg7 Ni1 2.625611 1_655
Mg7 Ni3 2.643762 1_655
Mg7 Ni4 2.643773 1_555
Mg8 Ni2 2.625608 1_555
Mg8 Ni1 2.625619 1_555
Mg8 Ni5 2.643762 1_555
Mg8 Ni4 2.643765 1_555
Mg8 Mg9 2.931136 1_445
Mg8 Mg9 2.995670 1_545
Mg8 Mg9 2.995697 1_555
Mg9 Ni2 2.625608 1_665
Mg9 Ni1 2.625619 1_665
Mg9 Ni5 2.643762 1_555
Mg9 Ni4 2.643765 1_565
Mg10 Ni0 2.625600 1_565
Mg10 Ni1 2.625611 1_565
Mg10 Ni3 2.643762 1_555
Mg10 Ni4 2.643773 1_565
Mg10 Mg7 2.931109 1_465
Mg10 Mg7 2.995697 1_565
Mg10 Mg7 2.995697 1_455
Mg10 Mg5 3.210832 1_555
Mg10 Mg4 3.329066 1_455
Mg10 Mg4 3.329066 1_565
Mg10 Mg4 3.357690 1_555
Mg11 Ni0 2.625619 1_665
Mg11 Ni2 2.625619 1_664
Mg11 Ni3 2.643765 1_655
Mg11 Ni5 2.643773 1_554
Mg11 Mg6 2.931136 1_665
Mg11 Mg6 2.995670 1_655
Mg11 Mg6 2.995697 1_555
Mg11 Mg2 3.210826 1_654
Mg11 Mg4 3.210832 1_555
Mg11 Mg3 3.329066 1_664
Mg11 Mg3 3.329078 1_564
Mg11 Mg3 3.357678 1_554
Ni0 Ni3 2.575572 1_545
Ni0 Ni3 2.575572 1_555
Ni1 Ni4 2.575572 1_455
Ni1 Ni4 2.575572 1_555
Ni2 Ni5 2.575572 1_445
Ni2 Ni5 2.575572 1_555
