# generated using pymatgen
data_LiFePO4
_symmetry_space_group_name_H-M   'P 1'
_cell_length_a   5.43141800
_cell_length_b   7.99080179
_cell_length_c   8.56640892
_cell_angle_alpha   104.10683454
_cell_angle_beta   90.00148488
_cell_angle_gamma   89.99984220
_symmetry_Int_Tables_number   1
_chemical_formula_structural   LiFePO4
_chemical_formula_sum   'Li4 Fe4 P4 O16'
_cell_volume   360.58179778
_cell_formula_units_Z   4
loop_
 _symmetry_equiv_pos_site_id
 _symmetry_equiv_pos_as_xyz
  1  'x, y, z'
loop_
 _atom_site_type_symbol
 _atom_site_label
 _atom_site_symmetry_multiplicity
 _atom_site_fract_x
 _atom_site_fract_y
 _atom_site_fract_z
 _atom_site_occupancy
  Li  Li0  1  0.15246200  0.96604200  0.56943600  1
  Li  Li1  1  0.84754600  0.96605500  0.06943500  1
  Li  Li2  1  0.66369000  0.50039900  0.77968900  1
  Li  Li3  1  0.33630800  0.50038600  0.27967600  1
  Fe  Fe0  1  0.33659100  0.87027800  0.20180300  1
  Fe  Fe1  1  0.82674400  0.36175700  0.39161500  1
  Fe  Fe2  1  0.66320600  0.87043500  0.70193500  1
  Fe  Fe3  1  0.17336700  0.36176000  0.89158300  1
  P  P0  1  0.83012400  0.74179200  0.32824800  1
  P  P1  1  0.16988800  0.74178000  0.82823400  1
  P  P2  1  0.66979400  0.24649200  0.01263100  1
  P  P3  1  0.33023000  0.24644200  0.51261200  1
  O  O0  1  0.70411100  0.82517700  0.20215500  1
  O  O1  1  0.29592000  0.82519000  0.70217000  1
  O  O2  1  0.83372900  0.87431100  0.49589900  1
  O  O3  1  0.16626100  0.87428200  0.99588700  1
  O  O4  1  0.19183500  0.22014500  0.66347600  1
  O  O5  1  0.80814700  0.22014700  0.16349300  1
  O  O6  1  0.10202700  0.69528700  0.27553900  1
  O  O7  1  0.89796600  0.69532400  0.77553300  1
  O  O8  1  0.40857000  0.32303700  0.05968400  1
  O  O9  1  0.59145200  0.32299700  0.55969200  1
  O  O10  1  0.31962800  0.58126900  0.84256100  1
  O  O11  1  0.68039000  0.58127600  0.34257000  1
  O  O12  1  0.33678000  0.06136000  0.40183200  1
  O  O13  1  0.66318900  0.06143400  0.90184500  1
  O  O14  1  0.80825700  0.37140100  0.92919500  1
  O  O15  1  0.19178700  0.37135500  0.42917000  1
loop_
_geom_bond_atom_site_label_1
_geom_bond_atom_site_label_2
_geom_bond_distance
_geom_bond_site_symmetry_2
Li0 O2 1.925084 1_455
Li0 O1 1.946946 1_555
Li0 O4 2.005047 1_565
Li0 O12 2.043753 1_565
Li1 O3 1.925145 1_654
Li1 O0 1.946985 1_555
Li1 O5 2.005009 1_565
Li1 O13 2.043989 1_564
Li2 O14 1.990687 1_555
Li2 O10 2.007552 1_555
Li2 O7 2.018312 1_555
Li2 O9 2.100673 1_555
Li3 O15 1.990715 1_555
Li3 O11 2.007707 1_555
Li3 O6 2.018140 1_555
Li3 O8 2.100490 1_555
Fe0 O12 1.998054 1_565
Fe0 O3 1.998970 1_554
Fe0 O0 2.028559 1_555
Fe0 O6 2.099523 1_555
Fe1 O9 2.004915 1_555
Fe1 O15 2.007094 1_655
Fe1 O5 2.007878 1_555
Fe1 O11 2.060244 1_555
Fe2 O13 1.997001 1_565
Fe2 O2 2.000172 1_555
Fe2 O1 2.027471 1_555
Fe2 O7 2.100306 1_555
Fe3 O8 2.004616 1_556
Fe3 O14 2.007543 1_455
Fe3 O4 2.007753 1_555
Fe3 O10 2.059908 1_555
O0 P0 1.558836 1_555
O1 P1 1.558829 1_555
O2 P0 1.562998 1_555
O3 P1 1.562952 1_555
O4 P3 1.553001 1_555
O5 P2 1.552973 1_555
O6 P0 1.562436 1_455
O7 P1 1.562432 1_655
O8 P2 1.558678 1_555
O9 P3 1.558716 1_555
O10 P1 1.548656 1_555
O11 P0 1.548668 1_555
O12 P3 1.550803 1_555
O13 P2 1.550675 1_556
O14 P2 1.555790 1_556
O15 P3 1.555773 1_555
