# generated using pymatgen
data_Na3LaHfSi(PO6)2
_symmetry_space_group_name_H-M   'P 1'
_cell_length_a   16.29018314
_cell_length_b   9.46182695
_cell_length_c   9.38752209
_cell_angle_alpha   90.00000000
_cell_angle_beta   125.40646200
_cell_angle_gamma   90.00000000
_symmetry_Int_Tables_number   1
_chemical_formula_structural   Na3LaHfSi(PO6)2
_chemical_formula_sum   'Na12 La4 Hf4 Si4 P8 O48'
_cell_volume   1179.35031929
_cell_formula_units_Z   4
loop_
 _symmetry_equiv_pos_site_id
 _symmetry_equiv_pos_as_xyz
  1  'x, y, z'
loop_
 _atom_site_type_symbol
 _atom_site_label
 _atom_site_symmetry_multiplicity
 _atom_site_fract_x
 _atom_site_fract_y
 _atom_site_fract_z
 _atom_site_occupancy
  Na  Na0  1  0.25582109  0.71600808  0.01096065  1
  Na  Na1  1  0.75582109  0.78399192  0.51096065  1
  Na  Na2  1  0.75582109  0.21600808  0.01096065  1
  Na  Na3  1  0.25582109  0.28399192  0.51096065  1
  Na  Na4  1  0.50907824  0.08715804  0.75773759  1
  Na  Na5  1  0.50907824  0.91284196  0.25773759  1
  Na  Na6  1  0.00907824  0.58715804  0.75773759  1
  Na  Na7  1  0.00907824  0.41284196  0.25773759  1
  Na  Na8  1  0.18424296  0.92582890  0.30454864  1
  Na  Na9  1  0.18424296  0.07417110  0.80454864  1
  Na  Na10  1  0.68424296  0.42582890  0.30454864  1
  Na  Na11  1  0.68424296  0.57417110  0.80454864  1
  La  La0  1  0.10767236  0.74489304  0.56818740  1
  La  La1  1  0.10767236  0.25510696  0.06818740  1
  La  La2  1  0.60767236  0.24489304  0.56818740  1
  La  La3  1  0.60767236  0.75510696  0.06818740  1
  Hf  Hf0  1  0.89770940  0.75904034  0.94090544  1
  Hf  Hf1  1  0.89770940  0.24095966  0.44090544  1
  Hf  Hf2  1  0.39770940  0.25904034  0.94090544  1
  Hf  Hf3  1  0.39770940  0.74095966  0.44090544  1
  Si  Si0  1  0.65026237  0.87963665  0.73951026  1
  Si  Si1  1  0.65026237  0.12036335  0.23951026  1
  Si  Si2  1  0.15026237  0.37963665  0.73951026  1
  Si  Si3  1  0.15026237  0.62036335  0.23951026  1
  P  P0  1  0.98874351  0.95639211  0.75351585  1
  P  P1  1  0.98874351  0.04360789  0.25351585  1
  P  P2  1  0.48874351  0.45639211  0.75351585  1
  P  P3  1  0.48874351  0.54360789  0.25351585  1
  P  P4  1  0.35404149  0.92561484  0.74816482  1
  P  P5  1  0.35404149  0.07438516  0.24816482  1
  P  P6  1  0.85404149  0.42561484  0.74816482  1
  P  P7  1  0.85404149  0.57438516  0.24816482  1
  O  O0  1  0.15779051  0.55127919  0.75968528  1
  O  O1  1  0.85727651  0.59214473  0.74466825  1
  O  O2  1  0.85727651  0.40785527  0.24466825  1
  O  O3  1  0.15779051  0.44872081  0.25968528  1
  O  O4  1  0.65779051  0.05127919  0.75968528  1
  O  O5  1  0.35727651  0.09214473  0.74466825  1
  O  O6  1  0.35727651  0.90785527  0.24466825  1
  O  O7  1  0.65779051  0.94872081  0.25968528  1
  O  O8  1  0.43334507  0.56394331  0.59519272  1
  O  O9  1  0.55299552  0.53664793  0.92518588  1
  O  O10  1  0.55299552  0.46335207  0.42518588  1
  O  O11  1  0.43334507  0.43605669  0.09519272  1
  O  O12  1  0.93334507  0.06394331  0.59519272  1
  O  O13  1  0.05299552  0.03664793  0.92518588  1
  O  O14  1  0.05299552  0.96335207  0.42518588  1
  O  O15  1  0.93334507  0.93605669  0.09519272  1
  O  O16  1  0.26190812  0.88401540  0.74532187  1
  O  O17  1  0.74572889  0.80299730  0.75201675  1
  O  O18  1  0.74572889  0.19700270  0.25201675  1
  O  O19  1  0.26190812  0.11598460  0.24532187  1
  O  O20  1  0.76190812  0.38401540  0.74532187  1
  O  O21  1  0.24572889  0.30299730  0.75201675  1
  O  O22  1  0.24572889  0.69700270  0.25201675  1
  O  O23  1  0.76190812  0.61598460  0.24532187  1
  O  O24  1  0.35198691  0.87158202  0.58489510  1
  O  O25  1  0.65262822  0.81243686  0.89985005  1
  O  O26  1  0.65262822  0.18756314  0.39985005  1
  O  O27  1  0.35198691  0.12841798  0.08489510  1
  O  O28  1  0.85198691  0.37158202  0.58489510  1
  O  O29  1  0.15262822  0.31243686  0.89985005  1
  O  O30  1  0.15262822  0.68756314  0.39985005  1
  O  O31  1  0.85198691  0.62841798  0.08489510  1
  O  O32  1  0.45091861  0.87393287  0.91719140  1
  O  O33  1  0.53979584  0.82424615  0.55997004  1
  O  O34  1  0.53979584  0.17575385  0.05997004  1
  O  O35  1  0.45091861  0.12606713  0.41719140  1
  O  O36  1  0.95091861  0.37393287  0.91719140  1
  O  O37  1  0.03979584  0.32424615  0.55997004  1
  O  O38  1  0.03979584  0.67575385  0.05997004  1
  O  O39  1  0.95091861  0.62606713  0.41719140  1
  O  O40  1  0.05892112  0.85660888  0.73901145  1
  O  O41  1  0.90913326  0.86502479  0.75348055  1
  O  O42  1  0.90913326  0.13497521  0.25348055  1
  O  O43  1  0.05892112  0.14339112  0.23901145  1
  O  O44  1  0.55892112  0.35660888  0.73901145  1
  O  O45  1  0.40913326  0.36502479  0.75348055  1
  O  O46  1  0.40913326  0.63497521  0.25348055  1
  O  O47  1  0.55892112  0.64339112  0.23901145  1
loop_
_geom_bond_atom_site_label_1
_geom_bond_atom_site_label_2
_geom_bond_distance
_geom_bond_site_symmetry_2
Na0 O46 2.328073 1_555
Na0 O22 2.368810 1_555
Na0 O0 2.485722 1_554
Na0 O6 2.576493 1_555
Na0 O16 3.006967 1_554
Na0 O40 3.014468 1_554
Na1 O41 2.328073 1_555
Na1 O17 2.368810 1_555
Na1 O7 2.485722 1_555
Na1 O1 2.576493 1_555
Na1 O23 3.006967 1_555
Na1 O47 3.014468 1_555
Na2 O42 2.328073 1_555
Na2 O18 2.368810 1_555
Na2 O4 2.485722 1_554
Na2 O2 2.576493 1_555
Na2 O20 3.006967 1_554
Na2 O44 3.014468 1_554
Na3 O45 2.328073 1_555
Na3 O21 2.368810 1_555
Na3 O3 2.485722 1_555
Na3 O5 2.576493 1_555
Na3 O19 3.006967 1_555
Na3 O43 3.014468 1_555
Na4 O5 2.404339 1_555
Na4 O4 2.435776 1_555
Na4 O44 2.712101 1_555
Na4 O34 2.712523 1_556
Na4 O35 2.782731 1_555
Na5 O6 2.404339 1_555
Na5 O7 2.435776 1_555
Na5 O47 2.712101 1_555
Na5 O33 2.712523 1_555
Na5 O32 2.782731 1_554
Na6 O1 2.404339 1_455
Na6 O0 2.435776 1_555
Na6 O40 2.712101 1_555
Na6 O38 2.712523 1_556
Na6 O39 2.782731 1_455
Na7 O2 2.404339 1_455
Na7 O3 2.435776 1_555
Na7 O43 2.712101 1_555
Na7 O37 2.712523 1_555
Na7 O36 2.782731 1_454
Na8 O19 2.441741 1_565
Na8 O24 2.514654 1_555
Na8 O22 2.550784 1_555
Na8 O30 2.584950 1_555
Na8 O43 2.707116 1_565
Na9 O16 2.441741 1_545
Na9 O27 2.514654 1_556
Na9 O21 2.550784 1_555
Na9 O29 2.584950 1_555
Na9 O40 2.707116 1_545
Na10 O23 2.441741 1_555
Na10 O28 2.514654 1_555
Na10 O18 2.550784 1_555
Na10 O26 2.584950 1_555
Na10 O47 2.707116 1_555
Na11 O20 2.441741 1_555
Na11 O31 2.514654 1_556
Na11 O17 2.550784 1_555
Na11 O25 2.584950 1_555
Na11 O44 2.707116 1_555
La0 O30 2.160748 1_555
La0 O14 2.341479 1_555
La0 O0 2.356603 1_555
La0 O39 2.366374 1_455
La0 O40 2.407345 1_555
La0 O16 2.443248 1_555
La1 O29 2.160748 1_554
La1 O13 2.341479 1_554
La1 O3 2.356603 1_555
La1 O36 2.366374 1_454
La1 O43 2.407345 1_555
La1 O19 2.443248 1_555
La2 O26 2.160748 1_555
La2 O10 2.341479 1_555
La2 O4 2.356603 1_555
La2 O35 2.366374 1_555
La2 O44 2.407345 1_555
La2 O20 2.443248 1_555
La3 O25 2.160748 1_554
La3 O9 2.341479 1_554
La3 O7 2.356603 1_555
La3 O32 2.366374 1_554
La3 O47 2.407345 1_555
La3 O23 2.443248 1_555
Hf0 O38 2.056688 1_656
Hf0 O15 2.065380 1_556
Hf0 O17 2.088008 1_555
Hf0 O41 2.124934 1_555
Hf0 O1 2.217014 1_555
Hf0 O31 2.252999 1_556
Hf1 O37 2.056688 1_655
Hf1 O12 2.065380 1_555
Hf1 O18 2.088008 1_555
Hf1 O42 2.124934 1_555
Hf1 O2 2.217014 1_555
Hf1 O28 2.252999 1_555
Hf2 O34 2.056688 1_556
Hf2 O11 2.065380 1_556
Hf2 O21 2.088008 1_555
Hf2 O45 2.124934 1_555
Hf2 O5 2.217014 1_555
Hf2 O27 2.252999 1_556
Hf3 O33 2.056688 1_555
Hf3 O8 2.065380 1_555
Hf3 O22 2.088008 1_555
Hf3 O46 2.124934 1_555
Hf3 O6 2.217014 1_555
Hf3 O24 2.252999 1_555
O0 Si2 1.631423 1_555
O1 P6 1.577535 1_555
O2 P7 1.577535 1_555
O3 Si3 1.631423 1_555
O4 Si0 1.631423 1_545
O5 P4 1.577535 1_545
O6 P5 1.577535 1_565
O7 Si1 1.631423 1_565
O8 P2 1.582644 1_555
O9 P2 1.521425 1_555
O10 P3 1.521425 1_555
O11 P3 1.582644 1_555
O12 P0 1.582644 1_545
O13 P0 1.521425 1_445
O14 P1 1.521425 1_465
O15 P1 1.582644 1_565
O16 P4 1.536826 1_555
O17 Si0 1.657287 1_555
O18 Si1 1.657287 1_555
O19 P5 1.536826 1_555
O20 P6 1.536826 1_555
O21 Si2 1.657287 1_555
O22 Si3 1.657287 1_555
O23 P7 1.536826 1_555
O24 P4 1.597566 1_555
O25 Si0 1.613740 1_555
O26 Si1 1.613740 1_555
O27 P5 1.597566 1_555
O28 P6 1.597566 1_555
O29 Si2 1.613740 1_555
O30 Si3 1.613740 1_555
O31 P7 1.597566 1_555
O32 P4 1.531598 1_555
O33 Si0 1.684991 1_555
O34 Si1 1.684991 1_555
O35 P5 1.531598 1_555
O36 P6 1.531598 1_555
O37 Si2 1.684991 1_555
O38 Si3 1.684991 1_555
O39 P7 1.531598 1_555
O40 P0 1.548294 1_455
O41 P0 1.558437 1_555
O42 P1 1.558437 1_555
O43 P1 1.548294 1_455
O44 P2 1.548294 1_555
O45 P2 1.558437 1_555
O46 P3 1.558437 1_555
O47 P3 1.548294 1_555
