# generated using pymatgen
data_LiV(PO3)4
_symmetry_space_group_name_H-M   'P 1'
_cell_length_a   7.01761905
_cell_length_b   7.01761905
_cell_length_c   9.66947791
_cell_angle_alpha   88.83151779
_cell_angle_beta   88.83151779
_cell_angle_gamma   109.44718496
_symmetry_Int_Tables_number   1
_chemical_formula_structural   LiV(PO3)4
_chemical_formula_sum   'Li2 V2 P8 O24'
_cell_volume   448.74518346
_cell_formula_units_Z   2
loop_
 _symmetry_equiv_pos_site_id
 _symmetry_equiv_pos_as_xyz
  1  'x, y, z'
loop_
 _atom_site_type_symbol
 _atom_site_label
 _atom_site_symmetry_multiplicity
 _atom_site_fract_x
 _atom_site_fract_y
 _atom_site_fract_z
 _atom_site_occupancy
  Li  Li0  1  0.83194700  0.16805300  0.25000000  1
  Li  Li1  1  0.16805300  0.83194700  0.75000000  1
  V  V0  1  0.11064200  0.88935800  0.25000000  1
  V  V1  1  0.88935800  0.11064200  0.75000000  1
  P  P0  1  0.73003800  0.37505100  0.96641400  1
  P  P1  1  0.26996200  0.62494900  0.03358600  1
  P  P2  1  0.62494900  0.26996200  0.53358600  1
  P  P3  1  0.37505100  0.73003800  0.46641400  1
  P  P4  1  0.20249500  0.27979100  0.47142900  1
  P  P5  1  0.72020900  0.79750500  0.02857100  1
  P  P6  1  0.79750500  0.72020900  0.52857100  1
  P  P7  1  0.27979100  0.20249500  0.97142900  1
  O  O0  1  0.72819800  0.28226000  0.10442500  1
  O  O1  1  0.85104400  0.89306400  0.14899500  1
  O  O2  1  0.71774000  0.27180200  0.39557500  1
  O  O3  1  0.78595400  0.61817700  0.96974700  1
  O  O4  1  0.35237300  0.86821900  0.35088700  1
  O  O5  1  0.14895600  0.10693600  0.85100500  1
  O  O6  1  0.06420200  0.28009800  0.59223000  1
  O  O7  1  0.28226000  0.72819800  0.60442500  1
  O  O8  1  0.50162900  0.30769200  0.90639100  1
  O  O9  1  0.30769200  0.50162900  0.40639100  1
  O  O10  1  0.71990200  0.93579800  0.90777000  1
  O  O11  1  0.38182300  0.21404600  0.53025300  1
  O  O12  1  0.64762700  0.13178100  0.64911300  1
  O  O13  1  0.13178100  0.64762700  0.14911300  1
  O  O14  1  0.49837100  0.69230800  0.09360900  1
  O  O15  1  0.21404600  0.38182300  0.03025300  1
  O  O16  1  0.93579800  0.71990200  0.40777000  1
  O  O17  1  0.86821900  0.35237300  0.85088700  1
  O  O18  1  0.10693600  0.14895600  0.35100500  1
  O  O19  1  0.69230800  0.49837100  0.59360900  1
  O  O20  1  0.27180200  0.71774000  0.89557500  1
  O  O21  1  0.89306400  0.85104400  0.64899500  1
  O  O22  1  0.61817700  0.78595400  0.46974700  1
  O  O23  1  0.28009800  0.06420200  0.09223000  1
loop_
_geom_bond_atom_site_label_1
_geom_bond_atom_site_label_2
_geom_bond_distance
_geom_bond_site_symmetry_2
Li0 O2 1.881010 1_555
Li0 O0 1.881010 1_555
Li0 O18 2.222516 1_655
Li0 O1 2.222516 1_545
Li1 O20 1.881010 1_555
Li1 O7 1.881010 1_555
Li1 O5 2.222516 1_565
Li1 O21 2.222516 1_455
O0 P0 1.470824 1_554
O1 P5 1.521210 1_555
O1 V0 2.091994 1_655
O2 P2 1.470824 1_555
O3 P5 1.589093 1_556
O3 P0 1.619560 1_555
O4 P3 1.509755 1_555
O4 V0 2.020026 1_555
O5 P7 1.521210 1_555
O5 V1 2.091994 1_455
O6 P4 1.503838 1_555
O6 V1 2.031020 1_455
O7 P3 1.470824 1_555
O8 P7 1.593706 1_555
O8 P0 1.635284 1_555
O9 P4 1.593706 1_555
O9 P3 1.635284 1_555
O10 P5 1.503838 1_556
O10 V1 2.031020 1_565
O11 P4 1.589093 1_555
O11 P2 1.619560 1_555
O12 P2 1.509755 1_555
O12 V1 2.020026 1_555
O13 P1 1.509755 1_555
O13 V0 2.020026 1_555
O14 P5 1.593706 1_555
O14 P1 1.635284 1_555
O15 P7 1.589093 1_554
O15 P1 1.619560 1_555
O16 P6 1.503838 1_555
O16 V0 2.031020 1_655
O17 P0 1.509755 1_555
O17 V1 2.020026 1_555
O18 P4 1.521210 1_555
O18 V0 2.091994 1_545
O19 P6 1.593706 1_555
O19 P2 1.635284 1_555
O20 P1 1.470824 1_556
O21 P6 1.521210 1_555
O21 V1 2.091994 1_565
O22 P6 1.589093 1_555
O22 P3 1.619560 1_555
O23 P7 1.503838 1_554
O23 V0 2.031020 1_545
