# generated using pymatgen
data_Ge19(AsI)4
_symmetry_space_group_name_H-M   'P 1'
_cell_length_a   10.83637200
_cell_length_b   10.83637200
_cell_length_c   10.83637200
_cell_angle_alpha   90.00000000
_cell_angle_beta   90.00000000
_cell_angle_gamma   90.00000000
_symmetry_Int_Tables_number   1
_chemical_formula_structural   Ge19(AsI)4
_chemical_formula_sum   'Ge38 As8 I8'
_cell_volume   1272.48220104
_cell_formula_units_Z   2
loop_
 _symmetry_equiv_pos_site_id
 _symmetry_equiv_pos_as_xyz
  1  'x, y, z'
loop_
 _atom_site_type_symbol
 _atom_site_label
 _atom_site_symmetry_multiplicity
 _atom_site_fract_x
 _atom_site_fract_y
 _atom_site_fract_z
 _atom_site_occupancy
  Ge  Ge0  1  0.00268500  0.11732900  0.30971600  1
  Ge  Ge1  1  0.49731500  0.80971600  0.38267100  1
  Ge  Ge2  1  0.49731500  0.19028400  0.61732900  1
  Ge  Ge3  1  0.19028400  0.38267100  0.50268500  1
  Ge  Ge4  1  0.80971600  0.38267100  0.49731500  1
  Ge  Ge5  1  0.61732900  0.49731500  0.19028400  1
  Ge  Ge6  1  0.38267100  0.50268500  0.19028400  1
  Ge  Ge7  1  0.30971600  0.00268500  0.11732900  1
  Ge  Ge8  1  0.11732900  0.30971600  0.00268500  1
  Ge  Ge9  1  0.88267100  0.69028400  0.00268500  1
  Ge  Ge10  1  0.30971600  0.99731500  0.88267100  1
  Ge  Ge11  1  0.88267100  0.30971600  0.99731500  1
  Ge  Ge12  1  0.69028400  0.99731500  0.11732900  1
  Ge  Ge13  1  0.69028400  0.00268500  0.88267100  1
  Ge  Ge14  1  0.11732900  0.69028400  0.99731500  1
  Ge  Ge15  1  0.00268500  0.88267100  0.69028400  1
  Ge  Ge16  1  0.99731500  0.11732900  0.69028400  1
  Ge  Ge17  1  0.99731500  0.88267100  0.30971600  1
  Ge  Ge18  1  0.38267100  0.49731500  0.80971600  1
  Ge  Ge19  1  0.61732900  0.50268500  0.80971600  1
  Ge  Ge20  1  0.19028400  0.61732900  0.49731500  1
  Ge  Ge21  1  0.80971600  0.61732900  0.50268500  1
  Ge  Ge22  1  0.50268500  0.19028400  0.38267100  1
  Ge  Ge23  1  0.50268500  0.80971600  0.61732900  1
  Ge  Ge24  1  0.18254600  0.18254600  0.18254600  1
  Ge  Ge25  1  0.31745400  0.68254600  0.31745400  1
  Ge  Ge26  1  0.31745400  0.31745400  0.68254600  1
  Ge  Ge27  1  0.68254600  0.31745400  0.31745400  1
  Ge  Ge28  1  0.81745400  0.81745400  0.18254600  1
  Ge  Ge29  1  0.18254600  0.81745400  0.81745400  1
  Ge  Ge30  1  0.81745400  0.18254600  0.81745400  1
  Ge  Ge31  1  0.68254600  0.68254600  0.68254600  1
  Ge  Ge32  1  0.00000000  0.25000000  0.50000000  1
  Ge  Ge33  1  0.50000000  0.00000000  0.25000000  1
  Ge  Ge34  1  0.50000000  0.00000000  0.75000000  1
  Ge  Ge35  1  0.75000000  0.50000000  0.00000000  1
  Ge  Ge36  1  0.25000000  0.50000000  0.00000000  1
  Ge  Ge37  1  0.00000000  0.75000000  0.50000000  1
  As  As0  1  0.81573400  0.81573400  0.81573400  1
  As  As1  1  0.68426600  0.31573400  0.68426600  1
  As  As2  1  0.68426600  0.68426600  0.31573400  1
  As  As3  1  0.31573400  0.68426600  0.68426600  1
  As  As4  1  0.18426600  0.18426600  0.81573400  1
  As  As5  1  0.81573400  0.18426600  0.18426600  1
  As  As6  1  0.18426600  0.81573400  0.18426600  1
  As  As7  1  0.31573400  0.31573400  0.31573400  1
  I  I0  1  0.00000000  0.50000000  0.25000000  1
  I  I1  1  0.50000000  0.75000000  0.00000000  1
  I  I2  1  0.50000000  0.25000000  0.00000000  1
  I  I3  1  0.25000000  0.00000000  0.50000000  1
  I  I4  1  0.75000000  0.00000000  0.50000000  1
  I  I5  1  0.00000000  0.50000000  0.75000000  1
  I  I6  1  0.00000000  0.00000000  0.00000000  1
  I  I7  1  0.50000000  0.50000000  0.50000000  1
loop_
_geom_bond_atom_site_label_1
_geom_bond_atom_site_label_2
_geom_bond_distance
_geom_bond_site_symmetry_2
Ge0 Ge24 2.489430 1_555
Ge0 Ge32 2.513870 1_555
Ge0 Ge17 2.543507 1_445
Ge1 Ge25 2.489430 1_555
Ge1 Ge33 2.513870 1_565
Ge1 Ge23 2.543507 1_555
Ge2 Ge26 2.489430 1_555
Ge2 Ge34 2.513870 1_555
Ge2 Ge22 2.543507 1_555
Ge3 Ge32 2.513870 1_555
Ge5 Ge6 2.543507 1_555
Ge10 Ge29 2.489430 1_555
Ge10 Ge34 2.513870 1_565
Ge10 Ge7 2.543507 1_566
Ge11 Ge30 2.489430 1_555
Ge11 Ge35 2.513870 1_556
Ge11 Ge8 2.543507 1_656
Ge12 Ge28 2.489430 1_555
Ge12 Ge33 2.513870 1_565
Ge12 Ge13 2.543507 1_564
Ge13 Ge30 2.489430 1_555
Ge13 Ge34 2.513870 1_555
Ge14 Ge29 2.489430 1_555
Ge14 Ge36 2.513870 1_556
Ge14 Ge9 2.543507 1_456
Ge15 Ge29 2.489430 1_555
Ge15 Ge37 2.513870 1_555
Ge15 Ge16 2.543507 1_465
Ge16 Ge30 2.489430 1_555
Ge16 Ge32 2.513870 1_655
Ge17 Ge28 2.489430 1_555
Ge17 Ge37 2.513870 1_655
Ge18 Ge26 2.489430 1_555
Ge18 Ge36 2.513870 1_556
Ge18 Ge19 2.543507 1_555
Ge19 Ge31 2.489430 1_555
Ge19 Ge35 2.513870 1_556
Ge20 Ge25 2.489430 1_555
Ge20 Ge37 2.513870 1_555
Ge20 Ge3 2.543507 1_555
Ge21 Ge31 2.489430 1_555
Ge21 Ge37 2.513870 1_655
Ge21 Ge4 2.543507 1_555
Ge22 Ge27 2.489430 1_555
Ge22 Ge33 2.513870 1_555
Ge23 Ge31 2.489430 1_555
Ge23 Ge34 2.513870 1_565
Ge24 Ge8 2.489430 1_555
Ge24 Ge7 2.489430 1_555
Ge25 Ge6 2.489430 1_555
Ge26 Ge3 2.489430 1_555
Ge27 Ge5 2.489430 1_555
Ge27 Ge4 2.489430 1_555
Ge28 Ge9 2.489430 1_555
Ge32 Ge4 2.513870 1_455
Ge33 Ge7 2.513870 1_555
Ge35 Ge9 2.513870 1_555
Ge35 Ge5 2.513870 1_555
Ge36 Ge6 2.513870 1_555
Ge36 Ge8 2.513870 1_555
As0 Ge31 2.499825 1_555
As0 Ge15 2.545255 1_655
As0 Ge9 2.545255 1_556
As0 Ge13 2.545255 1_565
As1 Ge30 2.499825 1_555
As1 Ge19 2.545255 1_555
As1 Ge4 2.545255 1_555
As1 Ge2 2.545255 1_555
As2 Ge28 2.499825 1_555
As2 Ge1 2.545255 1_555
As2 Ge21 2.545255 1_555
As2 Ge5 2.545255 1_555
As3 Ge29 2.499825 1_555
As3 Ge18 2.545255 1_555
As3 Ge20 2.545255 1_555
As3 Ge23 2.545255 1_555
As4 Ge26 2.499825 1_555
As4 Ge16 2.545255 1_455
As4 Ge10 2.545255 1_545
As4 Ge8 2.545255 1_556
As5 Ge27 2.499825 1_555
As5 Ge12 2.545255 1_545
As5 Ge11 2.545255 1_554
As5 Ge0 2.545255 1_655
As6 Ge25 2.499825 1_555
As6 Ge14 2.545255 1_554
As6 Ge7 2.545255 1_565
As6 Ge17 2.545255 1_455
As7 Ge24 2.499825 1_555
As7 Ge3 2.545255 1_555
As7 Ge6 2.545255 1_555
As7 Ge22 2.545255 1_555
