# generated using pymatgen
data_KC
_symmetry_space_group_name_H-M   'P 1'
_cell_length_a   9.11647370
_cell_length_b   9.11647370
_cell_length_c   9.11647370
_cell_angle_alpha   130.27742467
_cell_angle_beta   130.27742467
_cell_angle_gamma   72.96364381
_symmetry_Int_Tables_number   1
_chemical_formula_structural   KC
_chemical_formula_sum   'K8 C8'
_cell_volume   430.71891525
_cell_formula_units_Z   8
loop_
 _symmetry_equiv_pos_site_id
 _symmetry_equiv_pos_as_xyz
  1  'x, y, z'
loop_
 _atom_site_type_symbol
 _atom_site_label
 _atom_site_symmetry_multiplicity
 _atom_site_fract_x
 _atom_site_fract_y
 _atom_site_fract_z
 _atom_site_occupancy
  K  K0  1  0.12500000  0.06675900  0.44175900  1
  K  K1  1  0.81675900  0.87500000  0.44175900  1
  K  K2  1  0.43324100  0.37500000  0.55824100  1
  K  K3  1  0.62500000  0.68324100  0.55824100  1
  K  K4  1  0.62500000  0.18324100  0.05824100  1
  K  K5  1  0.93324100  0.37500000  0.05824100  1
  K  K6  1  0.31675900  0.87500000  0.94175900  1
  K  K7  1  0.12500000  0.56675900  0.94175900  1
  C  C0  1  0.55847900  0.05847900  0.61695800  1
  C  C1  1  0.80847900  0.69152100  0.00000000  1
  C  C2  1  0.69152100  0.80847900  0.00000000  1
  C  C3  1  0.44152100  0.94152100  0.38304200  1
  C  C4  1  0.19152100  0.19152100  0.88304200  1
  C  C5  1  0.94152100  0.55847900  0.50000000  1
  C  C6  1  0.05847900  0.44152100  0.50000000  1
  C  C7  1  0.30847900  0.30847900  0.11695800  1
loop_
_geom_bond_atom_site_label_1
_geom_bond_atom_site_label_2
_geom_bond_distance
_geom_bond_site_symmetry_2
C0 C3 1.267909 1_545
C0 K4 3.029689 1_556
C0 K5 3.029689 1_556
C0 K3 3.031997 1_545
C0 K2 3.031997 1_555
C0 K0 3.161254 1_555
C0 K1 3.161254 1_545
C1 C2 1.267909 1_555
C1 K5 3.029689 1_555
C1 K7 3.029689 1_654
C1 K2 3.031997 1_554
C1 K0 3.031997 1_665
C1 K1 3.161254 1_555
C1 K3 3.161254 1_554
C2 K6 3.029689 1_554
C2 K4 3.029689 1_565
C2 K1 3.031997 1_555
C2 K3 3.031997 1_554
C2 K2 3.161254 1_554
C2 K0 3.161254 1_665
C3 K7 3.029689 1_554
C3 K6 3.029689 1_554
C3 K0 3.031997 1_565
C3 K1 3.031997 1_555
C3 K3 3.161254 1_555
C3 K2 3.161254 1_565
C4 C7 1.267909 1_556
C4 K1 3.029689 1_445
C4 K0 3.029689 1_555
C4 K6 3.031997 1_545
C4 K7 3.031997 1_555
C4 K5 3.161254 1_456
C4 K4 3.161254 1_556
C5 C6 1.267909 1_655
C5 K3 3.029689 1_555
C5 K1 3.029689 1_555
C5 K4 3.031997 1_555
C5 K6 3.031997 1_655
C5 K7 3.161254 1_655
C5 K5 3.161254 1_555
C6 K0 3.029689 1_555
C6 K2 3.029689 1_555
C6 K7 3.031997 1_555
C6 K5 3.031997 1_455
C6 K4 3.161254 1_455
C6 K6 3.161254 1_555
C7 K3 3.029689 1_555
C7 K2 3.029689 1_555
C7 K5 3.031997 1_455
C7 K4 3.031997 1_555
C7 K7 3.161254 1_554
C7 K6 3.161254 1_544
