# generated using pymatgen
data_MgV4(OF)6
_symmetry_space_group_name_H-M   'P 1'
_cell_length_a   5.11829441
_cell_length_b   9.39671037
_cell_length_c   5.16173851
_cell_angle_alpha   104.44850150
_cell_angle_beta   117.55845451
_cell_angle_gamma   77.12211666
_symmetry_Int_Tables_number   1
_chemical_formula_structural   MgV4(OF)6
_chemical_formula_sum   'Mg1 V4 O6 F6'
_cell_volume   211.45098348
_cell_formula_units_Z   1
loop_
 _symmetry_equiv_pos_site_id
 _symmetry_equiv_pos_as_xyz
  1  'x, y, z'
loop_
 _atom_site_type_symbol
 _atom_site_label
 _atom_site_symmetry_multiplicity
 _atom_site_fract_x
 _atom_site_fract_y
 _atom_site_fract_z
 _atom_site_occupancy
  Mg  Mg0  1  0.41843000  0.81053000  0.61781500  1
  V  V0  1  0.98217900  0.01633000  0.01005600  1
  V  V1  1  0.74298000  0.73276500  0.21449300  1
  V  V2  1  0.51328000  0.48616200  0.51834300  1
  V  V3  1  0.28097500  0.24049800  0.76216200  1
  O  O0  1  0.76383700  0.87767800  0.01415000  1
  O  O1  1  0.31265200  0.37021500  0.53399300  1
  O  O2  1  0.68972600  0.64818800  0.45029100  1
  O  O3  1  0.16830600  0.13555200  0.96855300  1
  O  O4  1  0.51276900  0.63865300  0.84494400  1
  O  O5  1  0.58537600  0.11791900  0.77915900  1
  F  F0  1  0.14070100  0.63259000  0.28157800  1
  F  F1  1  0.99344500  0.13245000  0.38849200  1
  F  F2  1  0.36158000  0.88743400  0.25996700  1
  F  F3  1  0.49485800  0.37736700  0.12180800  1
  F  F4  1  0.02036000  0.87799800  0.62741900  1
  F  F5  1  0.90604700  0.38909900  0.73177700  1
loop_
_geom_bond_atom_site_label_1
_geom_bond_atom_site_label_2
_geom_bond_distance
_geom_bond_site_symmetry_2
Mg0 O0 2.053116 1_556
Mg0 O4 2.071127 1_555
Mg0 O2 2.124037 1_555
O0 V0 1.905629 1_565
O0 V1 1.950560 1_555
O1 V2 1.693348 1_555
O1 V3 1.969844 1_555
O2 V1 1.753155 1_555
O2 V2 2.104836 1_555
O3 V0 1.729980 1_456
O3 V3 1.945814 1_555
O4 V1 1.830846 1_556
O4 V2 1.921516 1_555
O5 V3 1.698781 1_555
O5 V0 1.979974 1_556
F0 V1 1.950933 1_455
F0 V2 2.129883 1_555
F0 Mg0 2.270926 1_555
F1 V0 1.967192 1_555
F1 V3 1.994776 1_655
F2 Mg0 2.023308 1_555
F2 V0 2.077343 1_465
F2 V1 2.228735 1_555
F3 V3 1.963271 1_554
F3 V2 2.015850 1_555
F4 Mg0 2.014336 1_555
F4 V0 2.142782 1_466
F4 V1 2.243454 1_455
F5 V2 1.929177 1_555
F5 V3 2.072032 1_655
