# generated using pymatgen
data_PbF2
_symmetry_space_group_name_H-M   'P 1'
_cell_length_a   3.87964277
_cell_length_b   6.40810393
_cell_length_c   7.66379463
_cell_angle_alpha   90.00000000
_cell_angle_beta   90.00000000
_cell_angle_gamma   90.00000000
_symmetry_Int_Tables_number   1
_chemical_formula_structural   PbF2
_chemical_formula_sum   'Pb4 F8'
_cell_volume   190.53077914
_cell_formula_units_Z   4
loop_
 _symmetry_equiv_pos_site_id
 _symmetry_equiv_pos_as_xyz
  1  'x, y, z'
loop_
 _atom_site_type_symbol
 _atom_site_label
 _atom_site_symmetry_multiplicity
 _atom_site_fract_x
 _atom_site_fract_y
 _atom_site_fract_z
 _atom_site_occupancy
  Pb  Pb0  1  0.25000000  0.75507947  0.39405554  1
  Pb  Pb1  1  0.75000000  0.24492053  0.60594446  1
  Pb  Pb2  1  0.25000000  0.25507947  0.10594446  1
  Pb  Pb3  1  0.75000000  0.74492053  0.89405554  1
  F  F0  1  0.25000000  0.97409676  0.65347941  1
  F  F1  1  0.75000000  0.02590324  0.34652059  1
  F  F2  1  0.25000000  0.47409676  0.84652059  1
  F  F3  1  0.75000000  0.52590324  0.15347941  1
  F  F4  1  0.75000000  0.14079530  0.93486462  1
  F  F5  1  0.25000000  0.85920470  0.06513538  1
  F  F6  1  0.75000000  0.64079530  0.56513538  1
  F  F7  1  0.25000000  0.35920470  0.43486462  1
loop_
_geom_bond_atom_site_label_1
_geom_bond_atom_site_label_2
_geom_bond_distance
_geom_bond_site_symmetry_2
F0 Pb0 2.433639 1_555
F0 Pb1 2.628206 1_565
F0 Pb1 2.628206 1_465
F1 Pb1 2.433639 1_555
F1 Pb0 2.628206 1_645
F1 Pb0 2.628206 1_545
F2 Pb2 2.433639 1_556
F2 Pb3 2.628206 1_455
F2 Pb3 2.628206 1_555
F3 Pb3 2.433639 1_554
F3 Pb2 2.628206 1_655
F3 Pb2 2.628206 1_555
F4 Pb2 2.453217 1_556
F4 Pb2 2.453217 1_656
F4 Pb3 2.556013 1_545
F4 Pb1 2.607591 1_555
F5 Pb3 2.453217 1_454
F5 Pb3 2.453217 1_554
F5 Pb2 2.556013 1_565
F5 Pb0 2.607591 1_555
F6 Pb0 2.453217 1_655
F6 Pb0 2.453217 1_555
F6 Pb1 2.556013 1_555
F6 Pb3 2.607591 1_555
F7 Pb1 2.453217 1_555
F7 Pb1 2.453217 1_455
F7 Pb0 2.556013 1_555
F7 Pb2 2.607591 1_555
