# generated using pymatgen
data_Li2V3(P2O7)2
_symmetry_space_group_name_H-M   'P 1'
_cell_length_a   7.93803200
_cell_length_b   7.43347900
_cell_length_c   9.61929555
_cell_angle_alpha   69.72492848
_cell_angle_beta   90.00000000
_cell_angle_gamma   90.00000000
_symmetry_Int_Tables_number   1
_chemical_formula_structural   Li2V3(P2O7)2
_chemical_formula_sum   'Li4 V6 P8 O28'
_cell_volume   532.43855305
_cell_formula_units_Z   2
loop_
 _symmetry_equiv_pos_site_id
 _symmetry_equiv_pos_as_xyz
  1  'x, y, z'
loop_
 _atom_site_type_symbol
 _atom_site_label
 _atom_site_symmetry_multiplicity
 _atom_site_fract_x
 _atom_site_fract_y
 _atom_site_fract_z
 _atom_site_occupancy
  Li  Li0  1  0.58006700  0.70600100  0.85722600  1
  Li  Li1  1  0.91993300  0.70600100  0.35722600  1
  Li  Li2  1  0.08006700  0.29399900  0.64277400  1
  Li  Li3  1  0.41993300  0.29399900  0.14277400  1
  V  V0  1  0.00000000  0.00000000  0.50000000  1
  V  V1  1  0.63030100  0.80937300  0.52091800  1
  V  V2  1  0.50000000  0.00000000  0.00000000  1
  V  V3  1  0.86969900  0.80937300  0.02091800  1
  V  V4  1  0.13030100  0.19062700  0.97908200  1
  V  V5  1  0.36969900  0.19062700  0.47908200  1
  P  P0  1  0.20336800  0.88035100  0.80768800  1
  P  P1  1  0.29663200  0.88035100  0.30768800  1
  P  P2  1  0.94775900  0.59821900  0.78139600  1
  P  P3  1  0.44775900  0.40178100  0.71860400  1
  P  P4  1  0.55224100  0.59821900  0.28139600  1
  P  P5  1  0.05224100  0.40178100  0.21860400  1
  P  P6  1  0.70336800  0.11964900  0.69231200  1
  P  P7  1  0.79663200  0.11964900  0.19231200  1
  O  O0  1  0.70440900  0.98915300  0.85769300  1
  O  O1  1  0.07883400  0.96089200  0.89447000  1
  O  O2  1  0.37519200  0.84298400  0.88091700  1
  O  O3  1  0.79559100  0.98915300  0.35769300  1
  O  O4  1  0.42116600  0.96089200  0.39447000  1
  O  O5  1  0.13118500  0.68001700  0.80737800  1
  O  O6  1  0.82747000  0.62139000  0.89829000  1
  O  O7  1  0.12480800  0.84298400  0.38091700  1
  O  O8  1  0.88820400  0.72159900  0.62244100  1
  O  O9  1  0.49119400  0.60784100  0.70313200  1
  O  O10  1  0.36881500  0.68001700  0.30737800  1
  O  O11  1  0.67253000  0.62139000  0.39829000  1
  O  O12  1  0.61179600  0.72159900  0.12244100  1
  O  O13  1  0.99119400  0.39215900  0.79686800  1
  O  O14  1  0.00880600  0.60784100  0.20313200  1
  O  O15  1  0.38820400  0.27840100  0.87755900  1
  O  O16  1  0.32747000  0.37861000  0.60171000  1
  O  O17  1  0.63118500  0.31998300  0.69262200  1
  O  O18  1  0.50880600  0.39215900  0.29686800  1
  O  O19  1  0.11179600  0.27840100  0.37755900  1
  O  O20  1  0.87519200  0.15701600  0.61908300  1
  O  O21  1  0.17253000  0.37861000  0.10171000  1
  O  O22  1  0.86881500  0.31998300  0.19262200  1
  O  O23  1  0.57883400  0.03910800  0.60553000  1
  O  O24  1  0.20440900  0.01084700  0.64230700  1
  O  O25  1  0.62480800  0.15701600  0.11908300  1
  O  O26  1  0.92116600  0.03910800  0.10553000  1
  O  O27  1  0.29559100  0.01084700  0.14230700  1
loop_
_geom_bond_atom_site_label_1
_geom_bond_atom_site_label_2
_geom_bond_distance
_geom_bond_site_symmetry_2
Li0 O2 1.973443 1_555
Li0 O9 1.994203 1_555
Li0 O6 2.058229 1_555
Li0 O0 2.326157 1_555
Li0 O12 2.605842 1_556
Li1 O7 1.973443 1_655
Li1 O14 1.994203 1_655
Li1 O11 2.058229 1_555
Li1 O3 2.326157 1_555
Li1 O8 2.605842 1_555
Li2 O20 1.973443 1_455
Li2 O13 1.994203 1_455
Li2 O16 2.058229 1_555
Li2 O24 2.326157 1_555
Li2 O19 2.605842 1_555
Li3 O25 1.973443 1_555
Li3 O18 1.994203 1_555
Li3 O21 2.058229 1_555
Li3 O27 2.326157 1_555
Li3 O15 2.605842 1_554
O0 P6 1.549946 1_565
O0 V3 2.125678 1_556
O0 V2 2.142362 1_566
O1 P0 1.542375 1_555
O1 V3 2.134149 1_456
O1 V4 2.170023 1_565
O2 P0 1.515945 1_555
O2 V2 2.140703 1_566
O3 P7 1.549946 1_565
O3 V1 2.125678 1_555
O3 V0 2.142362 1_665
O4 P1 1.542375 1_555
O4 V1 2.134149 1_555
O4 V5 2.170023 1_565
O5 P0 1.596577 1_555
O5 P2 1.630202 1_455
O6 P2 1.529709 1_555
O6 V3 2.144489 1_556
O7 P1 1.515945 1_555
O7 V0 2.140703 1_565
O8 P2 1.559067 1_555
O8 V0 2.183634 1_665
O8 V1 2.264733 1_555
O9 P3 1.526195 1_555
O9 V1 2.171629 1_555
O10 P1 1.596577 1_555
O10 P4 1.630202 1_555
O11 P4 1.529709 1_555
O11 V1 2.144489 1_555
O12 P4 1.559067 1_555
O12 V2 2.183634 1_565
O12 V3 2.264733 1_555
O13 P2 1.526195 1_555
O13 V4 2.171629 1_655
O14 P5 1.526195 1_555
O14 V3 2.171629 1_455
O15 P3 1.559067 1_555
O15 V2 2.183634 1_556
O15 V4 2.264733 1_555
O16 P3 1.529709 1_555
O16 V5 2.144489 1_555
O17 P6 1.596577 1_555
O17 P3 1.630202 1_555
O18 P4 1.526195 1_555
O18 V5 2.171629 1_555
O19 P5 1.559067 1_555
O19 V0 2.183634 1_555
O19 V5 2.264733 1_555
O20 P6 1.515945 1_555
O20 V0 2.140703 1_655
O21 P5 1.529709 1_555
O21 V4 2.144489 1_554
O22 P7 1.596577 1_555
O22 P5 1.630202 1_655
O23 P6 1.542375 1_555
O23 V5 2.134149 1_555
O23 V1 2.170023 1_545
O24 P0 1.549946 1_545
O24 V5 2.125678 1_555
O24 V0 2.142362 1_555
O25 P7 1.515945 1_555
O25 V2 2.140703 1_555
O26 P7 1.542375 1_555
O26 V4 2.134149 1_654
O26 V3 2.170023 1_545
O27 P1 1.549946 1_545
O27 V4 2.125678 1_554
O27 V2 2.142362 1_555
