# generated using pymatgen
data_K3V5O14
_symmetry_space_group_name_H-M   'P 1'
_cell_length_a   8.67523671
_cell_length_b   8.67525075
_cell_length_c   5.01041634
_cell_angle_alpha   89.99978184
_cell_angle_beta   90.00031308
_cell_angle_gamma   120.00016570
_symmetry_Int_Tables_number   1
_chemical_formula_structural   K3V5O14
_chemical_formula_sum   'K3 V5 O14'
_cell_volume   326.56308607
_cell_formula_units_Z   1
loop_
 _symmetry_equiv_pos_site_id
 _symmetry_equiv_pos_as_xyz
  1  'x, y, z'
loop_
 _atom_site_type_symbol
 _atom_site_label
 _atom_site_symmetry_multiplicity
 _atom_site_fract_x
 _atom_site_fract_y
 _atom_site_fract_z
 _atom_site_occupancy
  K  K0  1  0.60824933  0.00000193  -0.00566098  1
  K  K1  1  0.00000295  0.60826004  -0.00563156  1
  K  K2  1  0.39174189  0.39174247  -0.00566664  1
  V  V0  1  0.33333172  0.66666575  0.46498002  1
  V  V1  1  0.66666887  0.33333386  0.46497995  1
  V  V2  1  0.22834770  0.00000184  0.47417856  1
  V  V3  1  0.00000054  0.22834543  0.47417690  1
  V  V4  1  0.77165215  0.77165321  0.47417777  1
  O  O0  1  0.33333229  0.66666516  0.79288934  1
  O  O1  1  0.66666806  0.33333326  0.79288870  1
  O  O2  1  0.24682232  -0.00000227  0.79537968  1
  O  O3  1  -0.00000033  0.24682074  0.79537747  1
  O  O4  1  0.75317709  0.75317523  0.79537875  1
  O  O5  1  0.83144578  0.00000125  0.40205609  1
  O  O6  1  0.00000069  0.83144570  0.40205585  1
  O  O7  1  0.16855837  0.16855860  0.40206115  1
  O  O8  1  0.46103377  0.16803494  0.34656553  1
  O  O9  1  0.83196421  0.29299620  0.34656251  1
  O  O10  1  0.70700410  0.53896798  0.34656535  1
  O  O11  1  0.16803571  0.46103252  0.34656173  1
  O  O12  1  0.29299670  0.83196410  0.34656521  1
  O  O13  1  0.53896709  0.70700206  0.34656660  1
loop_
_geom_bond_atom_site_label_1
_geom_bond_atom_site_label_2
_geom_bond_distance
_geom_bond_site_symmetry_2
K0 O5 2.814662 1_555
K0 O1 2.858707 1_554
K0 O0 2.858742 1_544
K0 O9 2.899782 1_555
K0 O13 2.899827 1_545
K0 O8 2.955050 1_555
K0 O12 2.955066 1_545
K0 O3 3.138720 1_654
K0 O4 3.138766 1_544
K0 O2 3.290097 1_554
K1 O6 2.814509 1_555
K1 O0 2.858784 1_554
K1 O1 2.858810 1_454
K1 O12 2.899672 1_555
K1 O10 2.899715 1_455
K1 O11 2.955004 1_555
K1 O9 2.955032 1_455
K1 O2 3.138683 1_564
K1 O4 3.138714 1_454
K1 O3 3.290264 1_554
K2 O7 2.814630 1_555
K2 O0 2.858730 1_554
K2 O1 2.858763 1_554
K2 O11 2.899801 1_555
K2 O8 2.899818 1_555
K2 O13 2.955127 1_555
K2 O10 2.955128 1_555
K2 O3 3.138655 1_554
K2 O2 3.138685 1_554
K2 O4 3.290167 1_554
O0 V0 1.642962 1_555
O1 V1 1.642959 1_555
O2 V2 1.617313 1_555
O3 V3 1.617311 1_555
O4 V4 1.617313 1_555
O5 V3 1.815555 1_655
O5 V4 1.815581 1_545
O6 V2 1.815575 1_565
O6 V4 1.815587 1_455
O7 V3 1.815566 1_555
O7 V2 1.815571 1_555
O8 V1 1.741441 1_555
O8 V2 1.914676 1_555
O9 V1 1.741434 1_555
O9 V3 1.914690 1_655
O10 V1 1.741441 1_555
O10 V4 1.914683 1_555
O11 V0 1.741432 1_555
O11 V3 1.914689 1_555
O12 V0 1.741436 1_555
O12 V2 1.914697 1_565
O13 V0 1.741447 1_555
O13 V4 1.914665 1_555
