# generated using pymatgen
data_Nb2Si(PO6)2
_symmetry_space_group_name_H-M   'P 1'
_cell_length_a   8.85844553
_cell_length_b   8.85848925
_cell_length_c   22.81539020
_cell_angle_alpha   90.00072631
_cell_angle_beta   90.00000000
_cell_angle_gamma   119.99983671
_symmetry_Int_Tables_number   1
_chemical_formula_structural   Nb2Si(PO6)2
_chemical_formula_sum   'Nb12 Si6 P12 O72'
_cell_volume   1550.51662909
_cell_formula_units_Z   6
loop_
 _symmetry_equiv_pos_site_id
 _symmetry_equiv_pos_as_xyz
  1  'x, y, z'
loop_
 _atom_site_type_symbol
 _atom_site_label
 _atom_site_symmetry_multiplicity
 _atom_site_fract_x
 _atom_site_fract_y
 _atom_site_fract_z
 _atom_site_occupancy
  Nb  Nb0  1  0.99653505  0.99337158  0.35778693  1
  Nb  Nb1  1  0.99683653  0.99337158  0.85778693  1
  Nb  Nb2  1  0.00223213  0.99569992  0.64215894  1
  Nb  Nb3  1  0.99346779  0.99569992  0.14215894  1
  Nb  Nb4  1  0.66530141  0.33044306  0.69111901  1
  Nb  Nb5  1  0.66514265  0.33044306  0.19111901  1
  Nb  Nb6  1  0.66899955  0.33185613  0.97544735  1
  Nb  Nb7  1  0.66285758  0.33185613  0.47544735  1
  Nb  Nb8  1  0.33926079  0.66843242  0.02455088  1
  Nb  Nb9  1  0.32917064  0.66843242  0.52455088  1
  Nb  Nb10  1  0.32985112  0.66464364  0.30889103  1
  Nb  Nb11  1  0.33479153  0.66464364  0.80889103  1
  Si  Si0  1  0.71429770  0.71430501  0.25005597  1
  Si  Si1  1  0.00000731  0.71430501  0.75005597  1
  Si  Si2  1  0.38354944  0.05004677  0.58336287  1
  Si  Si3  1  0.66649833  0.05004677  0.08336287  1
  Si  Si4  1  0.61695977  0.66513958  0.91668858  1
  Si  Si5  1  0.04817881  0.66513958  0.41668858  1
  P  P0  1  0.28295364  0.00024106  0.25018044  1
  P  P1  1  0.00014837  0.28258723  0.24985037  1
  P  P2  1  0.28243886  0.28258723  0.74985037  1
  P  P3  1  0.71728742  0.00024106  0.75018044  1
  P  P4  1  0.94843848  0.33157792  0.58342496  1
  P  P5  1  0.66497579  0.61530254  0.58324681  1
  P  P6  1  0.95032775  0.61530254  0.08324681  1
  P  P7  1  0.38314044  0.33157792  0.08342496  1
  P  P8  1  0.05126560  0.38335537  0.91638347  1
  P  P9  1  0.33342751  0.94951435  0.91672170  1
  P  P10  1  0.61608585  0.94951435  0.41672170  1
  P  P11  1  0.33208876  0.38335537  0.41638347  1
  O  O0  1  0.20064137  0.03180450  0.30493153  1
  O  O1  1  0.83813336  0.80922917  0.30710001  1
  O  O2  1  0.97088530  0.17143630  0.30458692  1
  O  O3  1  0.20055100  0.17143630  0.80458692  1
  O  O4  1  0.97109581  0.80922917  0.80710001  1
  O  O5  1  0.83116314  0.03180450  0.80493153  1
  O  O6  1  0.79935024  0.97066928  0.69537790  1
  O  O7  1  0.16852518  0.20037854  0.69494900  1
  O  O8  1  0.02873005  0.83807453  0.69296139  1
  O  O9  1  0.80934448  0.83807453  0.19296139  1
  O  O10  1  0.03185336  0.20037854  0.19494900  1
  O  O11  1  0.17131905  0.97066928  0.19537790  1
  O  O12  1  0.86741368  0.36553584  0.63812859  1
  O  O13  1  0.50335511  0.14100352  0.64067571  1
  O  O14  1  0.63768966  0.50284615  0.63783158  1
  O  O15  1  0.86515750  0.50284615  0.13783158  1
  O  O16  1  0.63764941  0.14100352  0.14067571  1
  O  O17  1  0.49812316  0.36553584  0.13812859  1
  O  O18  1  0.46839028  0.30435023  0.02875947  1
  O  O19  1  0.83528580  0.53418868  0.02853486  1
  O  O20  1  0.69578993  0.17009453  0.02601169  1
  O  O21  1  0.47430560  0.17009453  0.52601169  1
  O  O22  1  0.69890388  0.53418868  0.52853486  1
  O  O23  1  0.83596095  0.30435023  0.52875947  1
  O  O24  1  0.52354896  0.69503940  0.97391825  1
  O  O25  1  0.16212899  0.46709358  0.97125366  1
  O  O26  1  0.30034604  0.83539207  0.97151334  1
  O  O27  1  0.53504502  0.83539207  0.47151334  1
  O  O28  1  0.30496359  0.46709358  0.47125366  1
  O  O29  1  0.17148944  0.69503940  0.47391825  1
  O  O30  1  0.14057240  0.63726691  0.35950980  1
  O  O31  1  0.50300668  0.86607006  0.36217285  1
  O  O32  1  0.36454533  0.49830481  0.36167682  1
  O  O33  1  0.13375848  0.49830481  0.86167682  1
  O  O34  1  0.36306238  0.86607006  0.86217285  1
  O  O35  1  0.49669351  0.63726691  0.85950980  1
  O  O36  1  0.02976503  0.83856837  0.40682142  1
  O  O37  1  0.80106891  0.97591396  0.40680965  1
  O  O38  1  0.17254491  0.20174261  0.40576824  1
  O  O39  1  0.02919769  0.20174261  0.90576824  1
  O  O40  1  0.17484505  0.97591396  0.90680965  1
  O  O41  1  0.80880334  0.83856837  0.90682142  1
  O  O42  1  0.96907172  0.17088173  0.59393371  1
  O  O43  1  0.19027220  0.02808140  0.59327610  1
  O  O44  1  0.82478503  0.80016448  0.59329174  1
  O  O45  1  0.97537944  0.80016448  0.09329174  1
  O  O46  1  0.83780920  0.02808140  0.09327610  1
  O  O47  1  0.20181001  0.17088173  0.09393371  1
  O  O48  1  0.69506122  0.16154066  0.74073111  1
  O  O49  1  0.46628260  0.30669139  0.73986860  1
  O  O50  1  0.83038395  0.52364990  0.73863523  1
  O  O51  1  0.69326695  0.52364990  0.23863523  1
  O  O52  1  0.84040979  0.30669139  0.23986860  1
  O  O53  1  0.46648044  0.16154066  0.24073111  1
  O  O54  1  0.64171310  0.49780680  0.92812629  1
  O  O55  1  0.86779354  0.36232078  0.92602849  1
  O  O56  1  0.49442025  0.13283418  0.92651301  1
  O  O57  1  0.63841493  0.13283418  0.42651301  1
  O  O58  1  0.49452824  0.36232078  0.42602849  1
  O  O59  1  0.85609471  0.49780680  0.42812629  1
  O  O60  1  0.35786287  0.49127418  0.07342550  1
  O  O61  1  0.13158123  0.63600779  0.07283956  1
  O  O62  1  0.49532778  0.85697259  0.07330765  1
  O  O63  1  0.36164380  0.85697259  0.57330765  1
  O  O64  1  0.50442556  0.63600779  0.57283956  1
  O  O65  1  0.13341031  0.49127418  0.57342550  1
  O  O66  1  0.30668319  0.84033886  0.26017784  1
  O  O67  1  0.52368919  0.69346236  0.26150149  1
  O  O68  1  0.16147712  0.46645325  0.25918170  1
  O  O69  1  0.30497513  0.46645325  0.75918170  1
  O  O70  1  0.16977217  0.69346236  0.76150149  1
  O  O71  1  0.53365468  0.84033886  0.76017784  1
loop_
_geom_bond_atom_site_label_1
_geom_bond_atom_site_label_2
_geom_bond_distance
_geom_bond_site_symmetry_2
Nb0 O36 1.903278 1_655
Nb0 O1 1.917874 1_555
Nb0 O37 2.001327 1_555
Nb0 O38 2.039252 1_665
Nb0 O0 2.055161 1_665
Nb0 O2 2.090809 1_565
Nb1 O41 1.903278 1_555
Nb1 O4 1.917874 1_555
Nb1 O40 2.001327 1_655
Nb1 O39 2.039252 1_665
Nb1 O5 2.055161 1_565
Nb1 O3 2.090809 1_665
Nb2 O43 1.903424 1_565
Nb2 O8 1.917310 1_555
Nb2 O44 1.997867 1_455
Nb2 O42 2.039858 1_465
Nb2 O7 2.058438 1_565
Nb2 O6 2.086857 1_455
Nb3 O46 1.903424 1_565
Nb3 O9 1.917310 1_555
Nb3 O45 1.997867 1_555
Nb3 O47 2.039858 1_665
Nb3 O10 2.058438 1_665
Nb3 O11 2.086857 1_655
Nb4 O50 1.933959 1_555
Nb4 O13 1.947119 1_555
Nb4 O48 1.995970 1_555
Nb4 O49 2.004638 1_555
Nb4 O12 2.051165 1_555
Nb4 O14 2.060090 1_555
Nb5 O51 1.933959 1_555
Nb5 O16 1.947119 1_555
Nb5 O53 1.995970 1_555
Nb5 O52 2.004638 1_555
Nb5 O17 2.051165 1_555
Nb5 O15 2.060090 1_555
Nb6 O54 1.934052 1_555
Nb6 O20 1.944406 1_556
Nb6 O55 1.992490 1_555
Nb6 O56 2.004958 1_555
Nb6 O19 2.051627 1_556
Nb6 O18 2.064918 1_556
Nb7 O59 1.934052 1_555
Nb7 O21 1.944406 1_555
Nb7 O58 1.992490 1_555
Nb7 O57 2.004958 1_555
Nb7 O22 2.051627 1_555
Nb7 O23 2.064918 1_555
Nb8 O62 1.905048 1_555
Nb8 O24 1.915818 1_554
Nb8 O60 1.998027 1_555
Nb8 O61 2.037755 1_555
Nb8 O26 2.068931 1_554
Nb8 O25 2.079230 1_554
Nb9 O63 1.905048 1_555
Nb9 O29 1.915818 1_555
Nb9 O65 1.998027 1_555
Nb9 O64 2.037755 1_555
Nb9 O27 2.068931 1_555
Nb9 O28 2.079230 1_555
Nb10 O67 1.935016 1_555
Nb10 O30 1.948674 1_555
Nb10 O68 1.993648 1_555
Nb10 O66 2.004789 1_555
Nb10 O32 2.041814 1_555
Nb10 O31 2.068199 1_555
Nb11 O70 1.935016 1_555
Nb11 O35 1.948674 1_555
Nb11 O69 1.993648 1_555
Nb11 O71 2.004789 1_555
Nb11 O33 2.041814 1_555
Nb11 O34 2.068199 1_555
O0 P0 1.540823 1_555
O1 Si0 1.637640 1_555
O2 P1 1.530057 1_655
O3 P2 1.530057 1_555
O4 Si1 1.637640 1_655
O5 P3 1.540823 1_555
O6 P3 1.533250 1_565
O7 P2 1.543608 1_555
O8 Si1 1.638531 1_555
O9 Si0 1.638531 1_555
O10 P1 1.543608 1_555
O11 P0 1.533250 1_565
O12 P4 1.542491 1_555
O13 Si2 1.621809 1_555
O14 P5 1.536561 1_555
O15 P6 1.536561 1_555
O16 Si3 1.621809 1_555
O17 P7 1.542491 1_555
O18 P7 1.538232 1_555
O19 P6 1.542972 1_555
O20 Si3 1.623108 1_555
O21 Si2 1.623108 1_555
O22 P5 1.542972 1_555
O23 P4 1.538232 1_555
O24 Si4 1.636743 1_555
O25 P8 1.534090 1_555
O26 P9 1.540911 1_555
O27 P10 1.540911 1_555
O28 P11 1.534090 1_555
O29 Si5 1.636743 1_555
O30 Si5 1.623204 1_555
O31 P10 1.535662 1_555
O32 P11 1.544250 1_555
O33 P8 1.544250 1_555
O34 P9 1.535662 1_555
O35 Si4 1.623204 1_555
O36 Si5 1.639563 1_555
O37 P10 1.551719 1_555
O38 P11 1.539686 1_555
O39 P8 1.539690 1_555
O40 P9 1.551711 1_555
O41 Si4 1.639568 1_555
O42 P4 1.541919 1_555
O43 Si2 1.639293 1_555
O44 P5 1.555656 1_555
O45 P6 1.555659 1_555
O46 Si3 1.639284 1_555
O47 P7 1.541924 1_555
O48 P3 1.551855 1_555
O49 P2 1.549825 1_555
O50 Si1 1.624923 1_655
O51 Si0 1.624927 1_555
O52 P1 1.549816 1_655
O53 P0 1.551860 1_555
O54 Si4 1.624341 1_555
O55 P8 1.556222 1_655
O56 P9 1.550806 1_545
O57 P10 1.550799 1_545
O58 P11 1.556240 1_555
O59 Si5 1.624331 1_655
O60 P7 1.555716 1_555
O61 P6 1.540634 1_455
O62 Si3 1.638197 1_565
O63 Si2 1.638190 1_565
O64 P5 1.540652 1_555
O65 P4 1.555705 1_455
O66 P0 1.549331 1_565
O67 Si0 1.625283 1_555
O68 P1 1.553354 1_555
O69 P2 1.553357 1_555
O70 Si1 1.625274 1_555
O71 P3 1.549336 1_565
