# generated using pymatgen
data_Y3RuI3
_symmetry_space_group_name_H-M   'P 1'
_cell_length_a   4.23939948
_cell_length_b   8.81885305
_cell_length_c   12.25247390
_cell_angle_alpha   94.00060997
_cell_angle_beta   90.00000000
_cell_angle_gamma   90.00000000
_symmetry_Int_Tables_number   1
_chemical_formula_structural   Y3RuI3
_chemical_formula_sum   'Y6 Ru2 I6'
_cell_volume   456.96264594
_cell_formula_units_Z   2
loop_
 _symmetry_equiv_pos_site_id
 _symmetry_equiv_pos_as_xyz
  1  'x, y, z'
loop_
 _atom_site_type_symbol
 _atom_site_label
 _atom_site_symmetry_multiplicity
 _atom_site_fract_x
 _atom_site_fract_y
 _atom_site_fract_z
 _atom_site_occupancy
  Y  Y0  1  0.75000000  0.86931788  0.12627162  1
  Y  Y1  1  0.25000000  0.13068212  0.87372838  1
  Y  Y2  1  0.75000000  0.89901954  0.68190612  1
  Y  Y3  1  0.25000000  0.10098046  0.31809388  1
  Y  Y4  1  0.25000000  0.73993982  0.89468899  1
  Y  Y5  1  0.75000000  0.26006018  0.10531101  1
  Ru  Ru0  1  0.75000000  0.94537813  0.90583655  1
  Ru  Ru1  1  0.25000000  0.05462187  0.09416345  1
  I  I0  1  0.25000000  0.64389960  0.63334356  1
  I  I1  1  0.75000000  0.35610040  0.36665644  1
  I  I2  1  0.75000000  0.85679002  0.39243273  1
  I  I3  1  0.25000000  0.14320998  0.60756727  1
  I  I4  1  0.25000000  0.57586445  0.13373763  1
  I  I5  1  0.75000000  0.42413555  0.86626237  1
loop_
_geom_bond_atom_site_label_1
_geom_bond_atom_site_label_2
_geom_bond_distance
_geom_bond_site_symmetry_2
Ru0 Y1 2.721784 1_665
Ru0 Y1 2.721784 1_565
Ru0 Y2 2.745637 1_555
Ru0 Y4 2.785610 1_655
Ru0 Y4 2.785610 1_555
Ru0 Y0 2.827974 1_556
Ru1 Y0 2.721784 1_445
Ru1 Y0 2.721784 1_545
Ru1 Y3 2.745637 1_555
Ru1 Y5 2.785610 1_455
Ru1 Y5 2.785610 1_555
Ru1 Y1 2.827974 1_554
I0 Y2 3.118055 1_555
I0 Y2 3.118055 1_455
I0 Y4 3.254619 1_555
I1 Y3 3.118055 1_655
I1 Y3 3.118055 1_555
I1 Y5 3.254619 1_555
I2 Y3 3.199049 1_665
I2 Y3 3.199049 1_565
I2 Y0 3.270697 1_555
I2 Y2 3.540329 1_555
I3 Y2 3.199049 1_545
I3 Y2 3.199049 1_445
I3 Y1 3.270697 1_555
I3 Y3 3.540329 1_555
I4 Y0 3.351398 1_455
I4 Y0 3.351398 1_555
I4 Y4 3.356145 1_554
I4 Y5 3.497926 1_555
I4 Y5 3.497926 1_455
I5 Y1 3.351398 1_555
I5 Y1 3.351398 1_655
I5 Y5 3.356145 1_556
I5 Y4 3.497926 1_655
I5 Y4 3.497926 1_555
