# generated using pymatgen
data_Ce(SiPt)2
_symmetry_space_group_name_H-M   'P 1'
_cell_length_a   4.27585049
_cell_length_b   4.27585049
_cell_length_c   9.76677674
_cell_angle_alpha   90.00000000
_cell_angle_beta   90.00000000
_cell_angle_gamma   90.00000000
_symmetry_Int_Tables_number   1
_chemical_formula_structural   Ce(SiPt)2
_chemical_formula_sum   'Ce2 Si4 Pt4'
_cell_volume   178.56497719
_cell_formula_units_Z   2
loop_
 _symmetry_equiv_pos_site_id
 _symmetry_equiv_pos_as_xyz
  1  'x, y, z'
loop_
 _atom_site_type_symbol
 _atom_site_label
 _atom_site_symmetry_multiplicity
 _atom_site_fract_x
 _atom_site_fract_y
 _atom_site_fract_z
 _atom_site_occupancy
  Ce  Ce0  1  0.75000000  0.75000000  0.25557837  1
  Ce  Ce1  1  0.25000000  0.25000000  0.74442163  1
  Si  Si0  1  0.25000000  0.75000000  0.50000000  1
  Si  Si1  1  0.25000000  0.25000000  0.12997852  1
  Si  Si2  1  0.75000000  0.25000000  0.50000000  1
  Si  Si3  1  0.75000000  0.75000000  0.87002148  1
  Pt  Pt0  1  0.75000000  0.25000000  0.00000000  1
  Pt  Pt1  1  0.75000000  0.75000000  0.62103912  1
  Pt  Pt2  1  0.25000000  0.25000000  0.37896088  1
  Pt  Pt3  1  0.25000000  0.75000000  0.00000000  1
loop_
_geom_bond_atom_site_label_1
_geom_bond_atom_site_label_2
_geom_bond_distance
_geom_bond_site_symmetry_2
Ce0 Si0 3.204607 1_655
Ce0 Si2 3.204607 1_555
Ce0 Si0 3.204607 1_555
Ce0 Si2 3.204607 1_565
Ce0 Pt2 3.254780 1_555
Ce0 Pt2 3.254780 1_655
Ce0 Pt2 3.254780 1_565
Ce0 Pt2 3.254780 1_665
Ce0 Si1 3.262860 1_565
Ce0 Si1 3.262860 1_555
Ce0 Si1 3.262860 1_655
Ce0 Si1 3.262860 1_665
Ce0 Pt3 3.286582 1_555
Ce0 Pt0 3.286582 1_555
Ce0 Pt0 3.286582 1_565
Ce0 Pt3 3.286582 1_655
Ce1 Si2 3.204607 1_555
Ce1 Si0 3.204607 1_555
Ce1 Si0 3.204607 1_545
Ce1 Si2 3.204607 1_455
Ce1 Pt1 3.254780 1_455
Ce1 Pt1 3.254780 1_555
Ce1 Pt1 3.254780 1_545
Ce1 Pt1 3.254780 1_445
Ce1 Si3 3.262860 1_455
Ce1 Si3 3.262860 1_445
Ce1 Si3 3.262860 1_545
Ce1 Si3 3.262860 1_555
Ce1 Pt3 3.286582 1_546
Ce1 Pt0 3.286582 1_456
Ce1 Pt0 3.286582 1_556
Ce1 Pt3 3.286582 1_556
Pt0 Si1 2.486419 1_655
Pt0 Si3 2.486419 1_544
Pt0 Si1 2.486419 1_555
Pt0 Si3 2.486419 1_554
Pt1 Si3 2.431755 1_555
Pt1 Si0 2.442996 1_555
Pt1 Si2 2.442996 1_565
Pt1 Si0 2.442996 1_655
Pt1 Si2 2.442996 1_555
Pt2 Si1 2.431755 1_555
Pt2 Si2 2.442996 1_555
Pt2 Si0 2.442996 1_555
Pt2 Si0 2.442996 1_545
Pt2 Si2 2.442996 1_455
Pt3 Si3 2.486419 1_454
Pt3 Si1 2.486419 1_555
Pt3 Si3 2.486419 1_554
Pt3 Si1 2.486419 1_565
