# generated using pymatgen
data_Na2O
_symmetry_space_group_name_H-M   'P 1'
_cell_length_a   3.87846823
_cell_length_b   3.87846775
_cell_length_c   3.87846748
_cell_angle_alpha   59.99999379
_cell_angle_beta   59.99999785
_cell_angle_gamma   60.00000430
_symmetry_Int_Tables_number   1
_chemical_formula_structural   Na2O
_chemical_formula_sum   'Na2 O1'
_cell_volume   41.25395267
_cell_formula_units_Z   1
loop_
 _symmetry_equiv_pos_site_id
 _symmetry_equiv_pos_as_xyz
  1  'x, y, z'
loop_
 _atom_site_type_symbol
 _atom_site_label
 _atom_site_symmetry_multiplicity
 _atom_site_fract_x
 _atom_site_fract_y
 _atom_site_fract_z
 _atom_site_occupancy
  Na  Na0  1  0.75000000  0.75000000  0.75000000  1
  Na  Na1  1  0.25000000  0.25000000  0.25000000  1
  O  O0  1  -0.00000000  -0.00000000  -0.00000000  1
loop_
_geom_bond_atom_site_label_1
_geom_bond_atom_site_label_2
_geom_bond_distance
_geom_bond_site_symmetry_2
Na0 O0 2.375066 1_665
Na0 O0 2.375067 1_656
Na0 O0 2.375067 1_666
Na0 O0 2.375067 1_566
Na1 O0 2.375066 1_556
Na1 O0 2.375067 1_565
Na1 O0 2.375067 1_555
Na1 O0 2.375067 1_655
