# generated using pymatgen
data_MgFeAg2SnS4
_symmetry_space_group_name_H-M   'P 1'
_cell_length_a   5.72071419
_cell_length_b   6.61785629
_cell_length_c   7.05279980
_cell_angle_alpha   117.77236044
_cell_angle_beta   113.68329108
_cell_angle_gamma   90.49293358
_symmetry_Int_Tables_number   1
_chemical_formula_structural   MgFeAg2SnS4
_chemical_formula_sum   'Mg1 Fe1 Ag2 Sn1 S4'
_cell_volume   209.94595722
_cell_formula_units_Z   1
loop_
 _symmetry_equiv_pos_site_id
 _symmetry_equiv_pos_as_xyz
  1  'x, y, z'
loop_
 _atom_site_type_symbol
 _atom_site_label
 _atom_site_symmetry_multiplicity
 _atom_site_fract_x
 _atom_site_fract_y
 _atom_site_fract_z
 _atom_site_occupancy
  Mg  Mg0  1  0.50101200  0.00105100  0.00171900  1
  Fe  Fe0  1  0.00036500  0.00017800  0.00047600  1
  Ag  Ag0  1  0.77420900  0.27442400  0.54909500  1
  Ag  Ag1  1  0.22566800  0.72546700  0.45113400  1
  Sn  Sn0  1  0.49744500  0.49799700  0.99529300  1
  S  S0  1  0.89368200  0.91506000  0.24495000  1
  S  S1  1  0.65222000  0.08319900  0.75605000  1
  S  S2  1  0.10398800  0.67272400  0.75592700  1
  S  S3  1  0.35141100  0.32990000  0.24535500  1
loop_
_geom_bond_atom_site_label_1
_geom_bond_atom_site_label_2
_geom_bond_distance
_geom_bond_site_symmetry_2
Mg0 S1 2.473799 1_554
Mg0 S2 2.475218 1_544
Mg0 S0 2.479664 1_545
Mg0 S3 2.479865 1_555
Fe0 S2 2.320041 1_544
Fe0 S1 2.320244 1_454
Fe0 S3 2.324518 1_555
Fe0 S0 2.325365 1_445
Ag0 S1 2.596820 1_555
Ag0 S2 2.599088 1_655
Ag0 S3 2.675762 1_555
Ag0 S0 2.678811 1_545
Ag0 Mg0 3.035584 1_555
Ag1 S3 2.609055 1_555
Ag1 S0 2.611223 1_455
Ag1 S1 2.669111 1_565
Ag1 S2 2.669182 1_555
S0 Sn0 2.830796 1_554
S1 Sn0 2.844649 1_555
S2 Sn0 2.839847 1_555
S3 Sn0 2.835825 1_554
