# generated using pymatgen
data_Na2TiIn(PO4)3
_symmetry_space_group_name_H-M   'P 1'
_cell_length_a   8.89920466
_cell_length_b   8.89920437
_cell_length_c   22.41555090
_cell_angle_alpha   90.13162010
_cell_angle_beta   89.86837988
_cell_angle_gamma   120.20777526
_symmetry_Int_Tables_number   1
_chemical_formula_structural   Na2TiIn(PO4)3
_chemical_formula_sum   'Na12 Ti6 In6 P18 O72'
_cell_volume   1534.14995591
_cell_formula_units_Z   6
loop_
 _symmetry_equiv_pos_site_id
 _symmetry_equiv_pos_as_xyz
  1  'x, y, z'
loop_
 _atom_site_type_symbol
 _atom_site_label
 _atom_site_symmetry_multiplicity
 _atom_site_fract_x
 _atom_site_fract_y
 _atom_site_fract_z
 _atom_site_occupancy
  Na  Na0  1  0.36348657  0.35789586  0.24973432  1
  Na  Na1  1  0.64210414  0.63651343  0.74973432  1
  Na  Na2  1  0.03015357  0.69122886  0.58306732  1
  Na  Na3  1  0.30877114  0.96984643  0.08306732  1
  Na  Na4  1  0.69681957  0.02456286  0.91640132  1
  Na  Na5  1  0.97543714  0.30318043  0.41640132  1
  Na  Na6  1  0.99905447  0.99802778  0.49890739  1
  Na  Na7  1  0.00197222  0.00094553  0.99890739  1
  Na  Na8  1  0.66572147  0.33136078  0.83224039  1
  Na  Na9  1  0.66863922  0.33427853  0.33224039  1
  Na  Na10  1  0.33238747  0.66469478  0.16557439  1
  Na  Na11  1  0.33530522  0.66761253  0.66557439  1
  Ti  Ti0  1  0.00298743  0.01165223  0.64804633  1
  Ti  Ti1  1  0.98834777  0.99701257  0.14804633  1
  Ti  Ti2  1  0.66965443  0.34498523  0.98137933  1
  Ti  Ti3  1  0.65501477  0.33034557  0.48137933  1
  Ti  Ti4  1  0.33632043  0.67831923  0.31471333  1
  Ti  Ti5  1  0.32168077  0.66367957  0.81471333  1
  In  In0  1  0.99788465  0.99068885  0.35053440  1
  In  In1  1  0.00931115  0.00211535  0.85053440  1
  In  In2  1  0.66455165  0.32402185  0.68386740  1
  In  In3  1  0.67597815  0.33544835  0.18386740  1
  In  In4  1  0.33121765  0.65735585  0.01720140  1
  In  In5  1  0.34264415  0.66878235  0.51720140  1
  P  P0  1  0.28962251  0.99353443  0.24801159  1
  P  P1  1  0.70052559  0.70797185  0.24992616  1
  P  P2  1  0.00416385  0.29612836  0.25209030  1
  P  P3  1  0.29202815  0.29947441  0.74992616  1
  P  P4  1  0.00646557  0.71037749  0.74801159  1
  P  P5  1  0.70387164  0.99583615  0.75209030  1
  P  P6  1  0.95628951  0.32686743  0.58134459  1
  P  P7  1  0.36719259  0.04130485  0.58325916  1
  P  P8  1  0.67083085  0.62946136  0.58542330  1
  P  P9  1  0.95869515  0.63280741  0.08325916  1
  P  P10  1  0.67313257  0.04371049  0.08134459  1
  P  P11  1  0.37053864  0.32916915  0.08542330  1
  P  P12  1  0.62295551  0.66020143  0.91467859  1
  P  P13  1  0.03385859  0.37463885  0.91659316  1
  P  P14  1  0.33749685  0.96279536  0.91875730  1
  P  P15  1  0.62536115  0.96614141  0.41659316  1
  P  P16  1  0.33979857  0.37704449  0.41467859  1
  P  P17  1  0.03720464  0.66250315  0.41875730  1
  O  O0  1  0.21556515  0.03486456  0.30303155  1
  O  O1  1  0.80499140  0.77916482  0.30670356  1
  O  O2  1  0.98105153  0.19862683  0.31061326  1
  O  O3  1  0.22083518  0.19500860  0.80670356  1
  O  O4  1  0.96513544  0.78443485  0.80303155  1
  O  O5  1  0.80137317  0.01894847  0.81061326  1
  O  O6  1  0.80885813  0.97373837  0.69849893  1
  O  O7  1  0.17290435  0.19752018  0.69487973  1
  O  O8  1  0.03148505  0.82466455  0.69137070  1
  O  O9  1  0.80247982  0.82709565  0.19487973  1
  O  O10  1  0.02626163  0.19114187  0.19849893  1
  O  O11  1  0.17533545  0.96851495  0.19137070  1
  O  O12  1  0.88223215  0.36819756  0.63636455  1
  O  O13  1  0.47165840  0.11249782  0.64003656  1
  O  O14  1  0.64771853  0.53195983  0.64394626  1
  O  O15  1  0.88750218  0.52834160  0.14003656  1
  O  O16  1  0.63180244  0.11776785  0.13636455  1
  O  O17  1  0.46804017  0.35228147  0.14394626  1
  O  O18  1  0.47552513  0.30707137  0.03183193  1
  O  O19  1  0.83957135  0.53085318  0.02821273  1
  O  O20  1  0.69815205  0.15799755  0.02470370  1
  O  O21  1  0.46914682  0.16042865  0.52821273  1
  O  O22  1  0.69292863  0.52447487  0.53183193  1
  O  O23  1  0.84200245  0.30184795  0.52470370  1
  O  O24  1  0.54889815  0.70153156  0.96969855  1
  O  O25  1  0.13832440  0.44583182  0.97337056  1
  O  O26  1  0.31438453  0.86529383  0.97728026  1
  O  O27  1  0.55416818  0.86167560  0.47337056  1
  O  O28  1  0.29846844  0.45110185  0.46969855  1
  O  O29  1  0.13470617  0.68561547  0.47728026  1
  O  O30  1  0.14219113  0.64040537  0.36516593  1
  O  O31  1  0.50623735  0.86418718  0.36154673  1
  O  O32  1  0.36481805  0.49133155  0.35803770  1
  O  O33  1  0.13581282  0.49376265  0.86154673  1
  O  O34  1  0.35959463  0.85780887  0.86516593  1
  O  O35  1  0.50866845  0.63518195  0.85803770  1
  O  O36  1  0.01083607  0.81765382  0.41241115  1
  O  O37  1  0.81242154  0.00206004  0.41013929  1
  O  O38  1  0.17995091  0.19359071  0.40953593  1
  O  O39  1  0.99793996  0.18757846  0.91013929  1
  O  O40  1  0.18234618  0.98916393  0.91241115  1
  O  O41  1  0.80640929  0.82004909  0.90953593  1
  O  O42  1  0.96650650  0.15794830  0.59045709  1
  O  O43  1  0.18746262  0.03194099  0.58736920  1
  O  O44  1  0.84552578  0.80761157  0.58773911  1
  O  O45  1  0.96805901  0.81253738  0.08736920  1
  O  O46  1  0.84205170  0.03349350  0.09045709  1
  O  O47  1  0.19238843  0.15447422  0.08773911  1
  O  O48  1  0.67750307  0.15098682  0.74574415  1
  O  O49  1  0.47908854  0.33539304  0.74347229  1
  O  O50  1  0.84661791  0.52692371  0.74286893  1
  O  O51  1  0.66460696  0.52091146  0.24347229  1
  O  O52  1  0.84901318  0.32249693  0.24574415  1
  O  O53  1  0.47307629  0.15338209  0.24286893  1
  O  O54  1  0.63317350  0.49128130  0.92379009  1
  O  O55  1  0.85412962  0.36527399  0.92070220  1
  O  O56  1  0.51219278  0.14094457  0.92107211  1
  O  O57  1  0.63472601  0.14587038  0.42070220  1
  O  O58  1  0.50871870  0.36682650  0.42379009  1
  O  O59  1  0.85905543  0.48780722  0.42107211  1
  O  O60  1  0.34416907  0.48432082  0.07907815  1
  O  O61  1  0.14575454  0.66872704  0.07680629  1
  O  O62  1  0.51328391  0.86025771  0.07620293  1
  O  O63  1  0.33127296  0.85424546  0.57680629  1
  O  O64  1  0.51567918  0.65583093  0.57907815  1
  O  O65  1  0.13974229  0.48671609  0.57620293  1
  O  O66  1  0.29983950  0.82461530  0.25712409  1
  O  O67  1  0.52079562  0.69860799  0.25403620  1
  O  O68  1  0.17885878  0.47427857  0.25440611  1
  O  O69  1  0.30139201  0.47920438  0.75403620  1
  O  O70  1  0.17538470  0.70016050  0.75712409  1
  O  O71  1  0.52572143  0.82114122  0.75440611  1
loop_
_geom_bond_atom_site_label_1
_geom_bond_atom_site_label_2
_geom_bond_distance
_geom_bond_site_symmetry_2
Na0 O51 2.322182 1_555
Na0 O68 2.344005 1_555
Na0 O53 2.464021 1_555
Na0 O17 2.554872 1_555
Na0 O67 2.624975 1_555
Na0 O32 2.697515 1_555
Na0 O0 2.761293 1_555
Na0 O10 2.837952 1_555
Na1 O49 2.322181 1_555
Na1 O71 2.344005 1_555
Na1 O50 2.464021 1_555
Na1 O14 2.554872 1_555
Na1 O69 2.624975 1_555
Na1 O35 2.697515 1_555
Na1 O4 2.761293 1_555
Na1 O6 2.837952 1_555
Na2 O63 2.322173 1_555
Na2 O44 2.344005 1_455
Na2 O65 2.464004 1_555
Na2 O29 2.554847 1_555
Na2 O43 2.624975 1_565
Na2 O8 2.697515 1_555
Na2 O12 2.761293 1_455
Na2 O22 2.837952 1_455
Na3 O61 2.322173 1_555
Na3 O47 2.344005 1_565
Na3 O62 2.464004 1_555
Na3 O26 2.554847 1_554
Na3 O45 2.624975 1_455
Na3 O11 2.697515 1_555
Na3 O16 2.761293 1_565
Na3 O18 2.837952 1_565
Na4 O39 2.322182 1_555
Na4 O56 2.343989 1_555
Na4 O41 2.464021 1_545
Na4 O5 2.554872 1_555
Na4 O55 2.624966 1_555
Na4 O20 2.697489 1_556
Na4 O24 2.761293 1_545
Na4 O34 2.837952 1_545
Na5 O37 2.322181 1_555
Na5 O59 2.343989 1_555
Na5 O38 2.464021 1_655
Na5 O2 2.554872 1_555
Na5 O57 2.624966 1_555
Na5 O23 2.697489 1_555
Na5 O28 2.761293 1_655
Na5 O30 2.837952 1_655
Na6 O43 2.517469 1_665
Na6 O44 2.525154 1_555
Na6 O36 2.549689 1_655
Na6 O42 2.592146 1_565
Na6 O37 2.606637 1_565
Na6 O38 2.610669 1_665
Na7 O45 2.517468 1_446
Na7 O47 2.525154 1_556
Na7 O40 2.549689 1_545
Na7 O46 2.592146 1_456
Na7 O39 2.606637 1_455
Na7 O41 2.610669 1_445
Na8 O55 2.517469 1_555
Na8 O56 2.525154 1_555
Na8 O48 2.549689 1_555
Na8 O54 2.592146 1_555
Na8 O49 2.606637 1_555
Na8 O50 2.610669 1_555
Na9 O57 2.517468 1_555
Na9 O59 2.525154 1_555
Na9 O52 2.549689 1_555
Na9 O58 2.592146 1_555
Na9 O51 2.606637 1_555
Na9 O53 2.610669 1_555
Na10 O67 2.517469 1_555
Na10 O68 2.525154 1_555
Na10 O60 2.549689 1_555
Na10 O66 2.592146 1_555
Na10 O61 2.606637 1_555
Na10 O62 2.610669 1_555
Na11 O69 2.517468 1_555
Na11 O71 2.525154 1_555
Na11 O64 2.549689 1_555
Na11 O70 2.592146 1_555
Na11 O63 2.606637 1_555
Na11 O65 2.610669 1_555
In0 O1 2.050139 1_555
In0 O0 2.065706 1_665
In0 O36 2.120710 1_655
In0 O2 2.129474 1_565
In0 O37 2.162573 1_565
In0 O38 2.165562 1_665
In1 O3 2.050139 1_555
In1 O4 2.065705 1_445
In1 O40 2.120710 1_545
In1 O5 2.129474 1_455
In1 O39 2.162572 1_455
In1 O41 2.165562 1_445
In2 O13 2.050139 1_555
In2 O12 2.065706 1_555
In2 O48 2.120710 1_555
In2 O14 2.129474 1_555
In2 O49 2.162573 1_555
In2 O50 2.165562 1_555
In3 O15 2.050139 1_555
In3 O16 2.065705 1_555
In3 O52 2.120710 1_555
In3 O17 2.129474 1_555
In3 O51 2.162572 1_555
In3 O53 2.165562 1_555
In4 O25 2.050139 1_554
In4 O24 2.065706 1_554
In4 O60 2.120710 1_555
In4 O26 2.129474 1_554
In4 O61 2.162573 1_555
In4 O62 2.165562 1_555
In5 O27 2.050139 1_555
In5 O28 2.065705 1_555
In5 O64 2.120710 1_555
In5 O29 2.129474 1_555
In5 O63 2.162572 1_555
In5 O65 2.165562 1_555
O0 P0 1.526031 1_545
O1 P1 1.514750 1_555
O2 P2 1.529860 1_655
O3 P3 1.514750 1_555
O4 P4 1.526031 1_655
O5 P5 1.529860 1_545
O6 P5 1.591634 1_555
O6 Ti0 1.945158 1_665
O7 P3 1.581937 1_555
O7 Ti0 1.899215 1_555
O8 P4 1.572492 1_555
O8 Ti0 2.051750 1_565
O9 P1 1.581937 1_555
O9 Ti1 1.899215 1_555
O10 P2 1.591634 1_555
O10 Ti1 1.945158 1_445
O11 P0 1.572492 1_555
O11 Ti1 2.051750 1_455
O12 P6 1.526031 1_555
O13 P7 1.514750 1_555
O14 P8 1.529860 1_555
O15 P9 1.514750 1_555
O16 P10 1.526031 1_555
O17 P11 1.529860 1_555
O18 P11 1.591634 1_555
O18 Ti2 1.945158 1_554
O19 P9 1.581937 1_555
O19 Ti2 1.899215 1_554
O20 P10 1.572492 1_555
O20 Ti2 2.051750 1_554
O21 P7 1.581937 1_555
O21 Ti3 1.899215 1_555
O22 P8 1.591634 1_555
O22 Ti3 1.945158 1_555
O23 P6 1.572492 1_555
O23 Ti3 2.051750 1_555
O24 P12 1.526031 1_555
O25 P13 1.514750 1_555
O26 P14 1.529860 1_555
O27 P15 1.514750 1_555
O28 P16 1.526031 1_555
O29 P17 1.529860 1_555
O30 P17 1.591634 1_555
O30 Ti4 1.945158 1_555
O31 P15 1.581937 1_555
O31 Ti4 1.899215 1_555
O32 P16 1.572492 1_555
O32 Ti4 2.051750 1_555
O33 P13 1.581937 1_555
O33 Ti5 1.899215 1_555
O34 P14 1.591634 1_555
O34 Ti5 1.945158 1_555
O35 P12 1.572492 1_555
O35 Ti5 2.051750 1_555
O36 P17 1.519463 1_555
O37 P15 1.535560 1_545
O38 P16 1.537897 1_555
O39 P13 1.535560 1_655
O40 P14 1.519463 1_555
O41 P12 1.537897 1_555
O42 P6 1.564855 1_555
O42 Ti0 1.975289 1_655
O43 P7 1.561705 1_555
O43 Ti0 2.066451 1_555
O44 P8 1.566172 1_555
O44 Ti0 2.127240 1_665
O45 P9 1.561705 1_555
O45 Ti1 2.066451 1_555
O46 P10 1.564855 1_555
O46 Ti1 1.975289 1_545
O47 P11 1.566172 1_555
O47 Ti1 2.127240 1_445
O48 P5 1.519463 1_545
O49 P3 1.535560 1_555
O50 P4 1.537897 1_655
O51 P1 1.535560 1_555
O52 P2 1.519463 1_655
O53 P0 1.537897 1_545
O54 P12 1.564866 1_555
O54 Ti2 1.975289 1_555
O55 P13 1.561691 1_655
O55 Ti2 2.066451 1_555
O56 P14 1.566171 1_545
O56 Ti2 2.127240 1_555
O57 P15 1.561691 1_545
O57 Ti3 2.066451 1_555
O58 P16 1.564866 1_555
O58 Ti3 1.975289 1_555
O59 P17 1.566171 1_655
O59 Ti3 2.127240 1_555
O60 P11 1.519475 1_555
O61 P9 1.535547 1_455
O62 P10 1.537894 1_565
O63 P7 1.535546 1_565
O64 P8 1.519475 1_555
O65 P6 1.537894 1_455
O66 P0 1.564855 1_555
O66 Ti4 1.975289 1_555
O67 P1 1.561705 1_555
O67 Ti4 2.066451 1_555
O68 P2 1.566172 1_555
O68 Ti4 2.127240 1_555
O69 P3 1.561705 1_555
O69 Ti5 2.066451 1_555
O70 P4 1.564855 1_555
O70 Ti5 1.975289 1_555
O71 P5 1.566172 1_555
O71 Ti5 2.127240 1_555
