# generated using pymatgen
data_YbCuBi
_symmetry_space_group_name_H-M   'P 1'
_cell_length_a   4.63585954
_cell_length_b   4.63585954
_cell_length_c   7.60280900
_cell_angle_alpha   90.00000000
_cell_angle_beta   90.00000000
_cell_angle_gamma   119.99999347
_symmetry_Int_Tables_number   1
_chemical_formula_structural   YbCuBi
_chemical_formula_sum   'Yb2 Cu2 Bi2'
_cell_volume   141.50287991
_cell_formula_units_Z   2
loop_
 _symmetry_equiv_pos_site_id
 _symmetry_equiv_pos_as_xyz
  1  'x, y, z'
loop_
 _atom_site_type_symbol
 _atom_site_label
 _atom_site_symmetry_multiplicity
 _atom_site_fract_x
 _atom_site_fract_y
 _atom_site_fract_z
 _atom_site_occupancy
  Yb  Yb0  1  0.00000000  0.00000000  0.98746700  1
  Yb  Yb1  1  0.00000000  0.00000000  0.48746700  1
  Cu  Cu0  1  0.66666700  0.33333300  0.81931100  1
  Cu  Cu1  1  0.33333300  0.66666700  0.31931100  1
  Bi  Bi0  1  0.33333300  0.66666700  0.71842200  1
  Bi  Bi1  1  0.66666700  0.33333300  0.21842200  1
loop_
_geom_bond_atom_site_label_1
_geom_bond_atom_site_label_2
_geom_bond_distance
_geom_bond_site_symmetry_2
Cu0 Yb0 2.966171 1_655
Cu0 Yb0 2.966175 1_555
Cu0 Yb0 2.966175 1_665
Cu0 Yb1 3.678176 1_655
Cu0 Yb1 3.678179 1_555
Cu0 Yb1 3.678179 1_665
Cu1 Yb1 2.966171 1_565
Cu1 Yb1 2.966175 1_555
Cu1 Yb1 2.966175 1_665
Cu1 Yb0 3.678176 1_564
Cu1 Yb0 3.678179 1_554
Cu1 Yb0 3.678179 1_664
Bi0 Cu0 2.784254 1_455
Bi0 Cu0 2.784254 1_565
Bi0 Cu0 2.784261 1_555
Bi0 Cu1 3.034365 1_555
Bi0 Yb1 3.201082 1_565
Bi0 Yb1 3.201085 1_555
Bi0 Yb1 3.201085 1_665
Bi0 Yb0 3.368646 1_565
Bi0 Yb0 3.368650 1_665
Bi0 Yb0 3.368650 1_555
Bi1 Cu1 2.784254 1_545
Bi1 Cu1 2.784254 1_655
Bi1 Cu1 2.784261 1_555
Bi1 Cu0 3.034365 1_554
Bi1 Yb0 3.201082 1_654
Bi1 Yb0 3.201085 1_664
Bi1 Yb0 3.201085 1_554
Bi1 Yb1 3.368646 1_655
Bi1 Yb1 3.368650 1_555
Bi1 Yb1 3.368650 1_665
