# generated using pymatgen
data_Na4Zn3SnP2(SO6)4
_symmetry_space_group_name_H-M   'P 1'
_cell_length_a   8.88375601
_cell_length_b   8.85881102
_cell_length_c   22.61412083
_cell_angle_alpha   90.51868704
_cell_angle_beta   89.98972138
_cell_angle_gamma   120.09260364
_symmetry_Int_Tables_number   1
_chemical_formula_structural   Na4Zn3SnP2(SO6)4
_chemical_formula_sum   'Na12 Zn9 Sn3 P6 S12 O72'
_cell_volume   1539.76015558
_cell_formula_units_Z   3
loop_
 _symmetry_equiv_pos_site_id
 _symmetry_equiv_pos_as_xyz
  1  'x, y, z'
loop_
 _atom_site_type_symbol
 _atom_site_label
 _atom_site_symmetry_multiplicity
 _atom_site_fract_x
 _atom_site_fract_y
 _atom_site_fract_z
 _atom_site_occupancy
  Na  Na0  1  0.63284324  0.99786552  0.25277292  1
  Na  Na1  1  0.36472470  0.36481504  0.25041578  1
  Na  Na2  1  0.30443256  0.33751782  0.58878449  1
  Na  Na3  1  0.66758868  0.96001169  0.58357984  1
  Na  Na4  1  0.97380200  0.67629790  0.91352704  1
  Na  Na5  1  0.32525774  0.29735119  0.91156973  1
  Na  Na6  1  0.99040185  0.98577920  0.49760518  1
  Na  Na7  1  0.99250887  0.00072082  0.99783489  1
  Na  Na8  1  0.66142285  0.32573872  0.82661881  1
  Na  Na9  1  0.67508263  0.33676326  0.33475016  1
  Na  Na10  1  0.32496776  0.66619774  0.16266796  1
  Na  Na11  1  0.33002964  0.66240122  0.66840312  1
  Zn  Zn0  1  0.98987822  0.99561347  0.35424655  1
  Zn  Zn1  1  0.00089855  0.00768710  0.84837429  1
  Zn  Zn2  1  0.99842026  0.99195776  0.65667662  1
  Zn  Zn3  1  0.99971017  0.99713316  0.14815008  1
  Zn  Zn4  1  0.65729790  0.34385176  0.68827915  1
  Zn  Zn5  1  0.67430901  0.33998060  0.18010337  1
  Zn  Zn6  1  0.33608568  0.66916941  0.01264561  1
  Zn  Zn7  1  0.34366284  0.67357351  0.51296097  1
  Zn  Zn8  1  0.33190693  0.67568006  0.32413925  1
  Sn  Sn0  1  0.66706273  0.32825756  0.98195354  1
  Sn  Sn1  1  0.67015371  0.33663312  0.48169388  1
  Sn  Sn2  1  0.33462386  0.66181993  0.81573197  1
  P  P0  1  0.29325041  0.29138085  0.75000690  1
  P  P1  1  0.66952216  0.62822172  0.58424928  1
  P  P2  1  0.62959827  0.67285526  0.91925537  1
  P  P3  1  0.04162584  0.37251736  0.91870266  1
  P  P4  1  0.33243371  0.95541969  0.91811491  1
  P  P5  1  0.63091855  0.96290112  0.41695965  1
  S  S0  1  0.28887194  0.99744370  0.24981629  1
  S  S1  1  0.70909651  0.70617663  0.24947340  1
  S  S2  1  0.00136425  0.29431773  0.24986251  1
  S  S3  1  0.00082349  0.70506030  0.75114327  1
  S  S4  1  0.70538511  0.00198927  0.74963191  1
  S  S5  1  0.96105840  0.33726691  0.58481486  1
  S  S6  1  0.37270888  0.03856376  0.58402706  1
  S  S7  1  0.96329505  0.62908715  0.08458406  1
  S  S8  1  0.66616102  0.03656667  0.08563039  1
  S  S9  1  0.37048689  0.33363449  0.08512970  1
  S  S10  1  0.33132443  0.37035822  0.41630140  1
  S  S11  1  0.04213400  0.66823562  0.41712393  1
  O  O0  1  0.21195851  0.03108624  0.30274445  1
  O  O1  1  0.81438366  0.78458846  0.30294891  1
  O  O2  1  0.96898809  0.18380416  0.30241946  1
  O  O3  1  0.21227273  0.18923353  0.80681705  1
  O  O4  1  0.97606099  0.78222524  0.80584425  1
  O  O5  1  0.80876878  0.02287783  0.80264121  1
  O  O6  1  0.77535200  0.96788510  0.69434519  1
  O  O7  1  0.18521459  0.21616070  0.69227836  1
  O  O8  1  0.03059013  0.81074480  0.69788445  1
  O  O9  1  0.78563140  0.81629883  0.19672109  1
  O  O10  1  0.03306974  0.21572497  0.19627168  1
  O  O11  1  0.18553621  0.97279431  0.19590299  1
  O  O12  1  0.87720212  0.36084671  0.63629994  1
  O  O13  1  0.48801970  0.11941611  0.63510912  1
  O  O14  1  0.63116419  0.50564533  0.63567092  1
  O  O15  1  0.87771082  0.51811015  0.13591735  1
  O  O16  1  0.64066159  0.11918122  0.13933492  1
  O  O17  1  0.47907050  0.35857171  0.13832700  1
  O  O18  1  0.45158235  0.30296291  0.02958367  1
  O  O19  1  0.85290915  0.54986970  0.02820837  1
  O  O20  1  0.69785766  0.14999188  0.03144227  1
  O  O21  1  0.45061626  0.15172363  0.52901894  1
  O  O22  1  0.70068326  0.54721045  0.52574476  1
  O  O23  1  0.84751221  0.29765223  0.52929485  1
  O  O24  1  0.54813620  0.69729385  0.97426648  1
  O  O25  1  0.15410750  0.45369648  0.97331189  1
  O  O26  1  0.29959220  0.84512953  0.97260221  1
  O  O27  1  0.54970325  0.85931731  0.47344203  1
  O  O28  1  0.30711512  0.44916265  0.47066764  1
  O  O29  1  0.14336746  0.68907026  0.47096755  1
  O  O30  1  0.11256341  0.63237010  0.36309241  1
  O  O31  1  0.52276772  0.88969436  0.35945663  1
  O  O32  1  0.36173720  0.47569662  0.36224208  1
  O  O33  1  0.11489911  0.49337860  0.86302637  1
  O  O34  1  0.36972510  0.87912281  0.86116484  1
  O  O35  1  0.50911822  0.62340939  0.86314224  1
  O  O36  1  0.02239734  0.82306783  0.41126890  1
  O  O37  1  0.81327838  0.98522005  0.41149351  1
  O  O38  1  0.17896496  0.19423947  0.41024691  1
  O  O39  1  0.02152034  0.19233231  0.91054107  1
  O  O40  1  0.17370630  0.98036394  0.91109191  1
  O  O41  1  0.81429667  0.82383051  0.91026272  1
  O  O42  1  0.97820914  0.17750108  0.58737630  1
  O  O43  1  0.20137079  0.02769604  0.58836507  1
  O  O44  1  0.82944335  0.81425614  0.58899256  1
  O  O45  1  0.97483857  0.80119126  0.08899543  1
  O  O46  1  0.82577149  0.02437100  0.08952039  1
  O  O47  1  0.19849001  0.17338669  0.08881931  1
  O  O48  1  0.68650028  0.15710826  0.74366340  1
  O  O49  1  0.47588365  0.31329729  0.74596146  1
  O  O50  1  0.84866589  0.52821839  0.74502739  1
  O  O51  1  0.68255506  0.52546649  0.24327802  1
  O  O52  1  0.84065689  0.30868493  0.24338149  1
  O  O53  1  0.46946577  0.15874555  0.24462753  1
  O  O54  1  0.64275570  0.49733748  0.92379268  1
  O  O55  1  0.85875218  0.36372068  0.92345849  1
  O  O56  1  0.49771981  0.14594408  0.92291365  1
  O  O57  1  0.64561175  0.15104597  0.42249880  1
  O  O58  1  0.49568974  0.35663657  0.42132490  1
  O  O59  1  0.86075764  0.50498019  0.42115377  1
  O  O60  1  0.35753332  0.49144458  0.07889136  1
  O  O61  1  0.13407085  0.64295705  0.07820018  1
  O  O62  1  0.50818134  0.86564262  0.07855232  1
  O  O63  1  0.35622861  0.86473587  0.57585754  1
  O  O64  1  0.50115051  0.64286672  0.57708669  1
  O  O65  1  0.13620039  0.49161468  0.57631904  1
  O  O66  1  0.31471616  0.84358125  0.25473704  1
  O  O67  1  0.52950448  0.68573328  0.25477366  1
  O  O68  1  0.16131380  0.46983168  0.25676469  1
  O  O69  1  0.30966544  0.48048924  0.75422857  1
  O  O70  1  0.16574790  0.69212483  0.75542875  1
  O  O71  1  0.52500503  0.83827386  0.75463815  1
loop_
_geom_bond_atom_site_label_1
_geom_bond_atom_site_label_2
_geom_bond_distance
_geom_bond_site_symmetry_2
Na0 O67 2.438728 1_555
Na0 O52 2.438845 1_565
Na0 O66 2.446377 1_555
Na0 O53 2.500182 1_565
Na0 O31 2.606969 1_555
Na0 O16 2.777696 1_565
Na0 O2 2.815378 1_565
Na0 O9 2.861473 1_555
Na1 O68 2.415551 1_555
Na1 O53 2.431984 1_555
Na1 O51 2.449116 1_555
Na1 O67 2.461023 1_555
Na1 O32 2.709579 1_555
Na1 O17 2.740982 1_555
Na1 O10 2.827412 1_555
Na1 O0 2.832307 1_555
Na2 O64 2.390296 1_555
Na2 O43 2.418894 1_555
Na2 O65 2.495931 1_555
Na2 O42 2.507771 1_455
Na2 O7 2.580298 1_555
Na2 O14 2.721199 1_555
Na2 O28 2.852677 1_555
Na2 O21 2.885272 1_555
Na3 O44 2.369486 1_555
Na3 O64 2.434765 1_555
Na3 O42 2.449445 1_565
Na3 O63 2.459724 1_555
Na3 O27 2.668300 1_555
Na3 O6 2.669539 1_555
Na3 O13 2.850505 1_565
Na3 O23 2.877495 1_565
Na4 O41 2.362298 1_555
Na4 O40 2.370288 1_655
Na4 O55 2.436361 1_555
Na4 O54 2.558768 1_555
Na4 O4 2.614080 1_555
Na4 O33 2.739365 1_655
Na4 O19 2.824716 1_556
Na4 O26 2.832427 1_655
Na5 O39 2.372613 1_555
Na5 O40 2.430334 1_545
Na5 O54 2.480149 1_555
Na5 O56 2.505862 1_555
Na5 O3 2.555817 1_555
Na5 O35 2.745189 1_555
Na5 O25 2.873257 1_555
Na5 O18 2.885656 1_556
Na6 O37 2.502246 1_555
Na6 O36 2.515980 1_655
Na6 O44 2.549805 1_555
Na6 O38 2.661180 1_665
Na6 O42 2.672013 1_565
Na6 O43 2.674464 1_665
Na7 O41 2.518142 1_545
Na7 O39 2.542932 1_655
Na7 O40 2.599078 1_645
Na7 O46 2.615184 1_556
Na7 O47 2.656908 1_656
Na7 O45 2.680762 1_546
Na8 O49 2.423058 1_555
Na8 O48 2.466445 1_555
Na8 O50 2.540795 1_555
Na8 O56 2.670721 1_555
Na8 O54 2.712857 1_555
Na8 O55 2.716377 1_555
Na9 O59 2.498579 1_555
Na9 O57 2.517935 1_555
Na9 O58 2.584153 1_555
Na9 O52 2.617491 1_555
Na9 O51 2.651258 1_555
Na9 O53 2.651734 1_555
Na10 O61 2.492196 1_555
Na10 O60 2.542718 1_555
Na10 O62 2.562265 1_555
Na10 O66 2.626176 1_555
Na10 O68 2.682830 1_555
Na10 O67 2.711006 1_555
Na11 O69 2.482106 1_555
Na11 O70 2.539155 1_555
Na11 O71 2.543744 1_555
Na11 O64 2.619456 1_555
Na11 O65 2.631014 1_555
Na11 O63 2.701183 1_555
O0 S0 1.478438 1_545
O0 Zn0 2.175240 1_445
O1 S1 1.467465 1_555
O1 Zn0 2.076011 1_555
O2 S2 1.480667 1_655
O2 Zn0 2.129124 1_545
O3 P0 1.534526 1_555
O3 Zn1 1.998534 1_555
O4 S3 1.476917 1_655
O4 Zn1 2.118103 1_665
O5 S4 1.463126 1_555
O5 Zn1 2.057784 1_655
O6 S4 1.490629 1_565
O6 Zn2 2.068110 1_555
O7 P0 1.553326 1_555
O7 Zn2 2.003291 1_445
O8 S3 1.472781 1_555
O8 Zn2 2.003600 1_455
O9 S1 1.480791 1_555
O9 Zn3 2.089409 1_555
O10 S2 1.487972 1_555
O10 Zn3 2.099626 1_445
O11 S0 1.473580 1_555
O11 Zn3 2.073571 1_455
O12 S5 1.451035 1_555
O12 Zn4 2.219972 1_555
O13 S6 1.465093 1_555
O13 Zn4 2.149269 1_555
O14 P1 1.516293 1_555
O14 Zn4 1.971870 1_555
O15 S7 1.470704 1_555
O15 Zn5 1.980462 1_555
O16 S8 1.487270 1_555
O16 Zn5 2.036289 1_555
O17 S9 1.486087 1_555
O17 Zn5 2.053736 1_555
O18 S9 1.536390 1_555
O18 Sn0 2.109102 1_554
O19 S7 1.540654 1_555
O19 Sn0 2.094585 1_554
O20 S8 1.526113 1_555
O20 Sn0 2.070416 1_554
O21 S6 1.535545 1_555
O21 Sn1 2.111795 1_555
O22 P1 1.588704 1_555
O22 Sn1 2.001241 1_555
O23 S5 1.534447 1_555
O23 Sn1 2.076898 1_555
O24 P2 1.506691 1_555
O24 Zn6 1.974014 1_556
O25 P3 1.518061 1_555
O25 Zn6 1.980816 1_556
O26 P4 1.514534 1_555
O26 Zn6 1.971651 1_556
O27 P5 1.533319 1_555
O27 Zn7 1.965293 1_555
O28 S10 1.476510 1_555
O28 Zn7 2.071419 1_555
O29 S11 1.468111 1_555
O29 Zn7 2.082012 1_555
O30 S11 1.475618 1_555
O30 Zn8 1.993986 1_555
O31 P5 1.547587 1_555
O31 Zn8 1.963855 1_555
O32 S10 1.485271 1_555
O32 Zn8 2.109462 1_555
O33 P3 1.574980 1_555
O33 Sn2 2.070750 1_555
O34 P4 1.560079 1_555
O34 Sn2 2.054501 1_555
O35 P2 1.570974 1_555
O35 Sn2 2.050473 1_555
O36 S11 1.474485 1_555
O36 Zn0 2.135743 1_455
O37 P5 1.535599 1_555
O37 Zn0 2.000592 1_555
O38 S10 1.470892 1_555
O38 Zn0 2.125568 1_445
O39 P3 1.524033 1_555
O39 Zn1 2.084120 1_555
O40 P4 1.541301 1_555
O40 Zn1 2.192393 1_565
O41 P2 1.525310 1_555
O41 Zn1 2.166216 1_665
O42 S5 1.499160 1_555
O42 Zn2 2.352162 1_545
O43 S6 1.479501 1_555
O43 Zn2 2.274374 1_445
O44 P1 1.547537 1_555
O44 Zn2 2.159134 1_555
O45 S7 1.478327 1_555
O45 Zn3 2.103532 1_555
O46 S8 1.477770 1_555
O46 Zn3 2.141094 1_545
O47 S9 1.477789 1_555
O47 Zn3 2.151435 1_445
O48 S4 1.472841 1_555
O48 Zn4 2.200176 1_555
O49 P0 1.537156 1_555
O49 Zn4 1.985040 1_555
O50 S3 1.474162 1_655
O50 Zn4 2.093581 1_555
O51 S1 1.501819 1_555
O51 Zn5 2.140854 1_555
O52 S2 1.502863 1_655
O52 Zn5 2.174220 1_555
O53 S0 1.527618 1_545
O53 Zn5 2.264957 1_555
O54 P2 1.620798 1_555
O54 Sn0 2.092891 1_555
O55 P3 1.590633 1_655
O55 Sn0 2.053949 1_555
O56 P4 1.589992 1_545
O56 Sn0 2.044369 1_555
O57 P5 1.608977 1_545
O57 Sn1 2.035513 1_555
O58 S10 1.529089 1_555
O58 Sn1 2.139599 1_555
O59 S11 1.536785 1_655
O59 Sn1 2.114108 1_555
O60 S9 1.467133 1_555
O60 Zn6 2.258991 1_555
O61 S7 1.466606 1_455
O61 Zn6 2.249389 1_555
O62 S8 1.467213 1_565
O62 Zn6 2.207616 1_555
O63 S6 1.481776 1_565
O63 Zn7 2.161079 1_555
O64 P1 1.573363 1_555
O64 Zn7 2.126940 1_555
O65 S5 1.482780 1_455
O65 Zn7 2.260469 1_555
O66 S0 1.496511 1_555
O66 Zn8 2.229142 1_555
O67 S1 1.517631 1_555
O67 Zn8 2.322670 1_555
O68 S2 1.497049 1_555
O68 Zn8 2.263347 1_555
O69 P0 1.609053 1_555
O69 Sn2 2.041211 1_555
O70 S3 1.528987 1_555
O70 Sn2 2.143310 1_555
O71 S4 1.535070 1_565
O71 Sn2 2.144725 1_555
