# generated using pymatgen
data_Co3(P2O7)2
_symmetry_space_group_name_H-M   'P 1'
_cell_length_a   7.93742700
_cell_length_b   7.31112400
_cell_length_c   9.39994245
_cell_angle_alpha   69.76686774
_cell_angle_beta   90.00000000
_cell_angle_gamma   90.00000000
_symmetry_Int_Tables_number   1
_chemical_formula_structural   Co3(P2O7)2
_chemical_formula_sum   'Co6 P8 O28'
_cell_volume   511.83225791
_cell_formula_units_Z   2
loop_
 _symmetry_equiv_pos_site_id
 _symmetry_equiv_pos_as_xyz
  1  'x, y, z'
loop_
 _atom_site_type_symbol
 _atom_site_label
 _atom_site_symmetry_multiplicity
 _atom_site_fract_x
 _atom_site_fract_y
 _atom_site_fract_z
 _atom_site_occupancy
  Co  Co0  1  0.00000000  0.00000000  0.50000000  1
  Co  Co1  1  0.37704900  0.80566100  0.52708500  1
  Co  Co2  1  0.50000000  0.00000000  0.00000000  1
  Co  Co3  1  0.12295100  0.80566100  0.02708500  1
  Co  Co4  1  0.87704900  0.19433900  0.97291500  1
  Co  Co5  1  0.62295100  0.19433900  0.47291500  1
  P  P0  1  0.78866100  0.89250200  0.80201700  1
  P  P1  1  0.71133900  0.89250200  0.30201700  1
  P  P2  1  0.03478100  0.60371900  0.78956200  1
  P  P3  1  0.46521900  0.60371900  0.28956200  1
  P  P4  1  0.53478100  0.39628100  0.71043800  1
  P  P5  1  0.96521900  0.39628100  0.21043800  1
  P  P6  1  0.28866100  0.10749800  0.69798300  1
  P  P7  1  0.21133900  0.10749800  0.19798300  1
  O  O0  1  0.28834100  0.99613600  0.87145800  1
  O  O1  1  0.91915200  0.97049600  0.88894000  1
  O  O2  1  0.61667100  0.87735800  0.87650100  1
  O  O3  1  0.21165900  0.99613600  0.37145800  1
  O  O4  1  0.58084800  0.97049600  0.38894000  1
  O  O5  1  0.88332900  0.87735800  0.37650100  1
  O  O6  1  0.84723100  0.67901300  0.81457900  1
  O  O7  1  0.15090000  0.63461500  0.90849300  1
  O  O8  1  0.09642000  0.73197200  0.62952600  1
  O  O9  1  0.50585800  0.61039800  0.68808200  1
  O  O10  1  0.65276900  0.67901300  0.31457900  1
  O  O11  1  0.34910000  0.63461500  0.40849300  1
  O  O12  1  0.40358000  0.73197200  0.12952600  1
  O  O13  1  0.00585800  0.38960200  0.81191800  1
  O  O14  1  0.99414200  0.61039800  0.18808200  1
  O  O15  1  0.59642000  0.26802800  0.87047400  1
  O  O16  1  0.65090000  0.36538500  0.59150700  1
  O  O17  1  0.34723100  0.32098700  0.68542100  1
  O  O18  1  0.49414200  0.38960200  0.31191800  1
  O  O19  1  0.90358000  0.26802800  0.37047400  1
  O  O20  1  0.84910000  0.36538500  0.09150700  1
  O  O21  1  0.15276900  0.32098700  0.18542100  1
  O  O22  1  0.11667100  0.12264200  0.62349900  1
  O  O23  1  0.41915200  0.02950400  0.61106000  1
  O  O24  1  0.78834100  0.00386400  0.62854200  1
  O  O25  1  0.38332900  0.12264200  0.12349900  1
  O  O26  1  0.08084800  0.02950400  0.11106000  1
  O  O27  1  0.71165900  0.00386400  0.12854200  1
loop_
_geom_bond_atom_site_label_1
_geom_bond_atom_site_label_2
_geom_bond_distance
_geom_bond_site_symmetry_2
Co0 O22 1.931116 1_555
Co0 O5 1.931116 1_445
Co0 O19 2.063453 1_455
Co0 O8 2.063453 1_545
Co0 O3 2.075298 1_545
Co0 O24 2.075298 1_455
Co1 O11 1.954478 1_555
Co1 O9 1.969583 1_555
Co1 O23 2.075230 1_565
Co1 O3 2.096093 1_555
Co1 O4 2.161691 1_555
Co1 O8 2.412530 1_555
Co2 O2 1.931116 1_544
Co2 O25 1.931116 1_555
Co2 O15 2.063453 1_554
Co2 O12 2.063453 1_545
Co2 O0 2.075298 1_544
Co2 O27 2.075298 1_555
Co3 O7 1.954478 1_554
Co3 O14 1.969583 1_455
Co3 O26 2.075230 1_565
Co3 O0 2.096093 1_554
Co3 O1 2.161691 1_454
Co3 O12 2.412530 1_555
Co4 O20 1.954478 1_556
Co4 O13 1.969583 1_655
Co4 O1 2.075230 1_545
Co4 O27 2.096093 1_556
Co4 O26 2.161691 1_656
Co4 O15 2.412530 1_555
Co5 O16 1.954478 1_555
Co5 O18 1.969583 1_555
Co5 O4 2.075230 1_545
Co5 O24 2.096093 1_555
Co5 O23 2.161691 1_555
Co5 O19 2.412530 1_555
O0 P6 1.550362 1_565
O1 P0 1.545260 1_555
O2 P0 1.520691 1_555
O3 P7 1.550362 1_565
O4 P1 1.545260 1_555
O5 P1 1.520691 1_555
O6 P0 1.593369 1_555
O6 P2 1.632174 1_655
O7 P2 1.524794 1_555
O8 P2 1.551110 1_555
O9 P4 1.523126 1_555
O10 P1 1.593369 1_555
O10 P3 1.632174 1_555
O11 P3 1.524794 1_555
O12 P3 1.551110 1_555
O13 P2 1.523126 1_555
O14 P5 1.523126 1_555
O15 P4 1.551110 1_555
O16 P4 1.524794 1_555
O17 P6 1.593369 1_555
O17 P4 1.632174 1_555
O18 P3 1.523126 1_555
O19 P5 1.551110 1_555
O20 P5 1.524794 1_555
O21 P7 1.593369 1_555
O21 P5 1.632174 1_455
O22 P6 1.520691 1_555
O23 P6 1.545260 1_555
O24 P0 1.550362 1_545
O25 P7 1.520691 1_555
O26 P7 1.545260 1_555
O27 P1 1.550362 1_545
