# generated using pymatgen
data_SmTiO3
_symmetry_space_group_name_H-M   'P 1'
_cell_length_a   5.43578100
_cell_length_b   5.74830000
_cell_length_c   7.79057900
_cell_angle_alpha   90.00000000
_cell_angle_beta   90.00000000
_cell_angle_gamma   90.00000000
_symmetry_Int_Tables_number   1
_chemical_formula_structural   SmTiO3
_chemical_formula_sum   'Sm4 Ti4 O12'
_cell_volume   243.42832612
_cell_formula_units_Z   4
loop_
 _symmetry_equiv_pos_site_id
 _symmetry_equiv_pos_as_xyz
  1  'x, y, z'
loop_
 _atom_site_type_symbol
 _atom_site_label
 _atom_site_symmetry_multiplicity
 _atom_site_fract_x
 _atom_site_fract_y
 _atom_site_fract_z
 _atom_site_occupancy
  Sm  Sm0  1  0.01855300  0.93377800  0.75000000  1
  Sm  Sm1  1  0.51855300  0.56622200  0.25000000  1
  Sm  Sm2  1  0.48144700  0.43377800  0.75000000  1
  Sm  Sm3  1  0.98144700  0.06622200  0.25000000  1
  Ti  Ti0  1  0.00000000  0.50000000  0.50000000  1
  Ti  Ti1  1  0.50000000  0.00000000  0.50000000  1
  Ti  Ti2  1  0.50000000  0.00000000  0.00000000  1
  Ti  Ti3  1  0.00000000  0.50000000  0.00000000  1
  O  O0  1  0.69592200  0.29838400  0.44816700  1
  O  O1  1  0.19592200  0.20161600  0.55183300  1
  O  O2  1  0.80407800  0.79838400  0.05183300  1
  O  O3  1  0.30407800  0.70161600  0.94816700  1
  O  O4  1  0.30407800  0.70161600  0.55183300  1
  O  O5  1  0.80407800  0.79838400  0.44816700  1
  O  O6  1  0.19592200  0.20161600  0.94816700  1
  O  O7  1  0.69592200  0.29838400  0.05183300  1
  O  O8  1  0.10506800  0.46523500  0.25000000  1
  O  O9  1  0.60506800  0.03476500  0.75000000  1
  O  O10  1  0.39493200  0.96523500  0.25000000  1
  O  O11  1  0.89493200  0.53476500  0.75000000  1
loop_
_geom_bond_atom_site_label_1
_geom_bond_atom_site_label_2
_geom_bond_distance
_geom_bond_site_symmetry_2
O0 Ti0 2.058715 1_655
O0 Ti1 2.058926 1_555
O0 Sm1 2.383989 1_555
O0 Sm3 2.563841 1_555
O0 Sm2 2.737562 1_555
O1 Ti1 2.058715 1_555
O1 Ti0 2.058926 1_555
O1 Sm0 2.383989 1_545
O1 Sm2 2.563841 1_555
O1 Sm3 2.737562 1_455
O2 Ti2 2.058715 1_565
O2 Ti3 2.058926 1_655
O2 Sm3 2.383989 1_565
O2 Sm1 2.563841 1_555
O2 Sm0 2.737562 1_654
O3 Ti3 2.058715 1_556
O3 Ti2 2.058926 1_566
O3 Sm2 2.383989 1_555
O3 Sm0 2.563841 1_555
O3 Sm1 2.737562 1_556
O4 Ti0 2.058715 1_555
O4 Ti1 2.058926 1_565
O4 Sm2 2.383989 1_555
O4 Sm0 2.563841 1_555
O4 Sm1 2.737562 1_555
O5 Ti1 2.058715 1_565
O5 Ti0 2.058926 1_655
O5 Sm3 2.383989 1_565
O5 Sm1 2.563841 1_555
O5 Sm0 2.737562 1_655
O6 Ti2 2.058715 1_556
O6 Ti3 2.058926 1_556
O6 Sm0 2.383989 1_545
O6 Sm2 2.563841 1_555
O6 Sm3 2.737562 1_456
O7 Ti3 2.058715 1_655
O7 Ti2 2.058926 1_555
O7 Sm1 2.383989 1_555
O7 Sm3 2.563841 1_555
O7 Sm2 2.737562 1_554
O8 Ti0 2.039471 1_555
O8 Ti3 2.039471 1_555
O8 Sm1 2.321369 1_555
O8 Sm3 2.390056 1_455
O9 Ti1 2.039471 1_555
O9 Ti2 2.039471 1_556
O9 Sm0 2.321369 1_645
O9 Sm2 2.390056 1_555
O10 Ti1 2.039471 1_565
O10 Ti2 2.039471 1_565
O10 Sm3 2.321369 1_465
O10 Sm1 2.390056 1_555
O11 Ti0 2.039471 1_655
O11 Ti3 2.039471 1_656
O11 Sm2 2.321369 1_555
O11 Sm0 2.390056 1_655
