# generated using pymatgen
data_MgCu2(GeO3)2
_symmetry_space_group_name_H-M   'P 1'
_cell_length_a   3.11544200
_cell_length_b   5.45626300
_cell_length_c   8.49047400
_cell_angle_alpha   90.00000000
_cell_angle_beta   90.00000000
_cell_angle_gamma   90.00000000
_symmetry_Int_Tables_number   1
_chemical_formula_structural   MgCu2(GeO3)2
_chemical_formula_sum   'Mg1 Cu2 Ge2 O6'
_cell_volume   144.32677342
_cell_formula_units_Z   1
loop_
 _symmetry_equiv_pos_site_id
 _symmetry_equiv_pos_as_xyz
  1  'x, y, z'
loop_
 _atom_site_type_symbol
 _atom_site_label
 _atom_site_symmetry_multiplicity
 _atom_site_fract_x
 _atom_site_fract_y
 _atom_site_fract_z
 _atom_site_occupancy
  Mg  Mg0  1  0.50000000  0.60336800  0.25000000  1
  Cu  Cu0  1  0.00000000  0.49710100  0.53468600  1
  Cu  Cu1  1  0.00000000  0.49710100  0.96531400  1
  Ge  Ge0  1  0.50000000  0.09713000  0.25000000  1
  Ge  Ge1  1  0.50000000  0.90238400  0.75000000  1
  O  O0  1  0.00000000  0.87031400  0.25000000  1
  O  O1  1  0.00000000  0.08323400  0.75000000  1
  O  O2  1  0.50000000  0.31929000  0.40915500  1
  O  O3  1  0.50000000  0.71164400  0.58051600  1
  O  O4  1  0.50000000  0.31929000  0.09084500  1
  O  O5  1  0.50000000  0.71164400  0.91948400  1
loop_
_geom_bond_atom_site_label_1
_geom_bond_atom_site_label_2
_geom_bond_distance
_geom_bond_site_symmetry_2
Mg0 O4 2.056339 1_555
Mg0 O2 2.056339 1_555
Mg0 O0 2.132596 1_555
Mg0 O0 2.132596 1_655
Cu0 O3 1.987013 1_555
Cu0 O3 1.987013 1_455
Cu0 O2 2.122197 1_555
Cu0 O2 2.122197 1_455
Cu1 O5 1.987013 1_555
Cu1 O5 1.987013 1_455
Cu1 O4 2.122197 1_456
Cu1 O4 2.122197 1_556
Ge0 O2 1.815311 1_555
Ge0 O4 1.815311 1_555
Ge0 O0 1.989490 1_545
Ge0 O0 1.989490 1_645
Ge1 O5 1.775904 1_555
Ge1 O3 1.775904 1_555
Ge1 O1 1.843963 1_665
Ge1 O1 1.843963 1_565
