# generated using pymatgen
data_Na7NbZn3(PO4)6
_symmetry_space_group_name_H-M   'P 1'
_cell_length_a   9.02646580
_cell_length_b   9.00885736
_cell_length_c   22.14903736
_cell_angle_alpha   90.05067623
_cell_angle_beta   90.07349607
_cell_angle_gamma   119.98027797
_symmetry_Int_Tables_number   1
_chemical_formula_structural   Na7NbZn3(PO4)6
_chemical_formula_sum   'Na21 Nb3 Zn9 P18 O72'
_cell_volume   1560.12063922
_cell_formula_units_Z   3
loop_
 _symmetry_equiv_pos_site_id
 _symmetry_equiv_pos_as_xyz
  1  'x, y, z'
loop_
 _atom_site_type_symbol
 _atom_site_label
 _atom_site_symmetry_multiplicity
 _atom_site_fract_x
 _atom_site_fract_y
 _atom_site_fract_z
 _atom_site_occupancy
  Na  Na0  1  0.63292781  0.99984801  0.24863438  1
  Na  Na1  1  0.36681627  0.36707508  0.24857647  1
  Na  Na2  1  0.00017257  0.63318058  0.24871863  1
  Na  Na3  1  0.64946098  0.63526416  0.74689103  1
  Na  Na4  1  0.98889587  0.35346146  0.74695290  1
  Na  Na5  1  0.29368797  0.33425185  0.58599069  1
  Na  Na6  1  0.03986282  0.70658460  0.58612219  1
  Na  Na7  1  0.66620792  0.96094633  0.58609833  1
  Na  Na8  1  0.29272362  0.95970749  0.08648672  1
  Na  Na9  1  0.66566130  0.70646963  0.08661042  1
  Na  Na10  1  0.04172060  0.33318099  0.08708643  1
  Na  Na11  1  0.32000391  0.29437299  0.91204167  1
  Na  Na12  1  0.97979765  0.29798069  0.40695090  1
  Na  Na13  1  0.31803475  0.01985947  0.40710798  1
  Na  Na14  1  0.70227945  0.68184443  0.40691953  1
  Na  Na15  1  0.00001611  0.99993723  0.49908877  1
  Na  Na16  1  0.98857351  0.98945260  0.99654137  1
  Na  Na17  1  0.66444696  0.32171640  0.82699088  1
  Na  Na18  1  0.66692317  0.33345697  0.32248261  1
  Na  Na19  1  0.33341095  0.66643578  0.16900741  1
  Na  Na20  1  0.33444476  0.67760460  0.66191686  1
  Nb  Nb0  1  0.67148430  0.33449727  0.97925680  1
  Nb  Nb1  1  0.66599046  0.33277206  0.48191419  1
  Nb  Nb2  1  0.33344856  0.67336458  0.81500774  1
  Zn  Zn0  1  0.00038755  0.99991513  0.34090515  1
  Zn  Zn1  1  0.99462302  0.99346696  0.84922172  1
  Zn  Zn2  1  0.00206451  0.99900081  0.65663937  1
  Zn  Zn3  1  0.00007947  0.99971425  0.15557744  1
  Zn  Zn4  1  0.65961779  0.32603710  0.68453663  1
  Zn  Zn5  1  0.66665815  0.33356024  0.18268965  1
  Zn  Zn6  1  0.33482415  0.66911915  0.01456098  1
  Zn  Zn7  1  0.33331907  0.66706332  0.51264654  1
  Zn  Zn8  1  0.33310832  0.66657675  0.31646150  1
  P  P0  1  0.29709406  0.99884222  0.24988001  1
  P  P1  1  0.70181824  0.70297964  0.24981787  1
  P  P2  1  0.00107298  0.29805540  0.24991578  1
  P  P3  1  0.29598484  0.29456798  0.75177923  1
  P  P4  1  0.00033431  0.70715196  0.74922940  1
  P  P5  1  0.70785696  0.00176296  0.74972870  1
  P  P6  1  0.96302202  0.33512704  0.58615410  1
  P  P7  1  0.37264753  0.03748893  0.58500826  1
  P  P8  1  0.66529700  0.62847732  0.58608396  1
  P  P9  1  0.96213374  0.62681968  0.08514302  1
  P  P10  1  0.66469871  0.03834787  0.08498948  1
  P  P11  1  0.37408392  0.33498409  0.08384923  1
  P  P12  1  0.63049735  0.67093017  0.91924672  1
  P  P13  1  0.04037639  0.37248562  0.91887040  1
  P  P14  1  0.33069191  0.96077657  0.92060245  1
  P  P15  1  0.62869161  0.96079569  0.41815770  1
  P  P16  1  0.33247720  0.37165599  0.41815585  1
  P  P17  1  0.03862222  0.66743029  0.41818684  1
  O  O0  1  0.21696304  0.02675422  0.30770300  1
  O  O1  1  0.80990644  0.78315015  0.30773643  1
  O  O2  1  0.97342475  0.18998657  0.30772573  1
  O  O3  1  0.21302880  0.19388091  0.80872268  1
  O  O4  1  0.97104952  0.79306408  0.80276495  1
  O  O5  1  0.82242663  0.02932897  0.80350868  1
  O  O6  1  0.76818850  0.95346272  0.69096406  1
  O  O7  1  0.18523583  0.22665717  0.69392123  1
  O  O8  1  0.03556675  0.80564703  0.68922726  1
  O  O9  1  0.78372792  0.81315705  0.19278411  1
  O  O10  1  0.02916855  0.21604874  0.19274183  1
  O  O11  1  0.18697607  0.97050057  0.19269742  1
  O  O12  1  0.88043156  0.36176382  0.64178932  1
  O  O13  1  0.48887698  0.12437125  0.63819578  1
  O  O14  1  0.64073164  0.52006481  0.64184527  1
  O  O15  1  0.88117570  0.51832014  0.14115217  1
  O  O16  1  0.63781924  0.11922957  0.14127518  1
  O  O17  1  0.48337473  0.36199448  0.13979462  1
  O  O18  1  0.47556827  0.31758997  0.02642542  1
  O  O19  1  0.83902498  0.52124199  0.02875264  1
  O  O20  1  0.68177545  0.16165483  0.02890348  1
  O  O21  1  0.47123489  0.15347411  0.52667108  1
  O  O22  1  0.68078100  0.52479437  0.52915892  1
  O  O23  1  0.84313374  0.31770985  0.52917512  1
  O  O24  1  0.54709964  0.68586943  0.97651595  1
  O  O25  1  0.14590337  0.45423335  0.97530067  1
  O  O26  1  0.31216262  0.86220115  0.97782914  1
  O  O27  1  0.55007552  0.85724684  0.47578969  1
  O  O28  1  0.30739152  0.45020003  0.47590367  1
  O  O29  1  0.14250931  0.69272206  0.47585402  1
  O  O30  1  0.10924962  0.62461947  0.36219206  1
  O  O31  1  0.51509174  0.88988993  0.36213123  1
  O  O32  1  0.37456762  0.48498499  0.36217878  1
  O  O33  1  0.13271250  0.49228205  0.86217836  1
  O  O34  1  0.35517169  0.86244696  0.86513892  1
  O  O35  1  0.50551714  0.63902910  0.86314671  1
  O  O36  1  0.00942583  0.82124549  0.41304073  1
  O  O37  1  0.81141317  0.99021549  0.41313575  1
  O  O38  1  0.17920905  0.18850103  0.41301615  1
  O  O39  1  0.02186559  0.19674714  0.91020831  1
  O  O40  1  0.18318201  0.99406166  0.91126965  1
  O  O41  1  0.80796228  0.82066756  0.91031310  1
  O  O42  1  0.97019660  0.16783835  0.58417665  1
  O  O43  1  0.19922664  0.03184916  0.58391921  1
  O  O44  1  0.83214840  0.80251875  0.58343748  1
  O  O45  1  0.96785121  0.80019246  0.08295930  1
  O  O46  1  0.83152765  0.03166487  0.08264368  1
  O  O47  1  0.19981857  0.16806567  0.08222213  1
  O  O48  1  0.68488240  0.15858796  0.74469851  1
  O  O49  1  0.48164475  0.33375148  0.74677802  1
  O  O50  1  0.84762731  0.52132588  0.74614140  1
  O  O51  1  0.68396091  0.52234489  0.24634950  1
  O  O52  1  0.83872274  0.31605873  0.24652745  1
  O  O53  1  0.47726101  0.16151747  0.24649477  1
  O  O54  1  0.63264930  0.49388378  0.92097575  1
  O  O55  1  0.85991537  0.36035117  0.92191777  1
  O  O56  1  0.50149472  0.14303787  0.92132574  1
  O  O57  1  0.64930924  0.14885570  0.42529338  1
  O  O58  1  0.50040038  0.35237333  0.42529582  1
  O  O59  1  0.85118653  0.50003468  0.42560864  1
  O  O60  1  0.35486166  0.49473340  0.07764246  1
  O  O61  1  0.13942866  0.64461260  0.07771209  1
  O  O62  1  0.50522522  0.86032456  0.07781007  1
  O  O63  1  0.35260545  0.85831449  0.57803764  1
  O  O64  1  0.50517133  0.64623351  0.57885453  1
  O  O65  1  0.14094342  0.49491284  0.57862310  1
  O  O66  1  0.31425506  0.83571553  0.25421106  1
  O  O67  1  0.52181694  0.68569339  0.25412008  1
  O  O68  1  0.16403398  0.47825296  0.25425773  1
  O  O69  1  0.31190979  0.48328038  0.75897810  1
  O  O70  1  0.16567844  0.68466097  0.75900772  1
  O  O71  1  0.52310388  0.83296973  0.76043404  1
loop_
_geom_bond_atom_site_label_1
_geom_bond_atom_site_label_2
_geom_bond_distance
_geom_bond_site_symmetry_2
Na0 O53 2.478529 1_565
Na0 O67 2.488907 1_555
Na0 O66 2.495256 1_555
Na0 O52 2.505954 1_565
Na0 O16 2.601997 1_565
Na0 O31 2.718509 1_555
Na0 O9 2.915546 1_555
Na0 O2 2.969449 1_565
Na1 O51 2.480450 1_555
Na1 O67 2.489387 1_555
Na1 O68 2.490378 1_555
Na1 O53 2.504058 1_555
Na1 O17 2.639837 1_555
Na1 O32 2.717526 1_555
Na1 O10 2.917625 1_555
Na1 O0 2.968415 1_555
Na2 O52 2.475212 1_455
Na2 O66 2.492082 1_555
Na2 O68 2.492749 1_555
Na2 O51 2.509554 1_455
Na2 O15 2.603655 1_455
Na2 O30 2.713309 1_555
Na2 O11 2.916943 1_555
Na2 O1 2.967364 1_455
Na3 O49 2.358098 1_555
Na3 O50 2.467487 1_555
Na3 O14 2.531829 1_555
Na3 O71 2.567751 1_555
Na3 O69 2.657699 1_555
Na3 O6 2.799965 1_555
Na3 O4 2.800407 1_555
Na3 O35 2.893473 1_555
Na4 O48 2.408272 1_555
Na4 O50 2.416715 1_555
Na4 O12 2.541118 1_555
Na4 O69 2.555274 1_655
Na4 O70 2.599883 1_655
Na4 O7 2.802122 1_655
Na4 O5 2.824881 1_555
Na4 O33 2.850607 1_655
Na5 O43 2.414359 1_555
Na5 O65 2.452887 1_555
Na5 O64 2.491586 1_555
Na5 O42 2.529839 1_455
Na5 O7 2.583489 1_555
Na5 O28 2.632103 1_555
Na6 O44 2.425920 1_455
Na6 O63 2.452532 1_555
Na6 O8 2.458525 1_555
Na6 O65 2.497013 1_555
Na6 O43 2.538871 1_565
Na6 O29 2.638175 1_555
Na7 O42 2.427792 1_565
Na7 O64 2.461072 1_555
Na7 O63 2.506479 1_555
Na7 O6 2.510686 1_555
Na7 O44 2.533913 1_555
Na7 O27 2.636600 1_555
Na7 O13 2.901412 1_565
Na8 O47 2.410157 1_565
Na8 O61 2.466403 1_555
Na8 O62 2.496953 1_555
Na8 O45 2.541285 1_455
Na8 O11 2.559840 1_555
Na8 O26 2.597270 1_554
Na9 O45 2.420493 1_555
Na9 O62 2.462144 1_555
Na9 O60 2.489609 1_555
Na9 O46 2.539539 1_565
Na9 O9 2.560402 1_555
Na9 O24 2.630586 1_554
Na10 O46 2.415834 1_455
Na10 O60 2.458069 1_555
Na10 O61 2.494215 1_555
Na10 O47 2.526339 1_555
Na10 O10 2.547210 1_555
Na10 O25 2.681374 1_554
Na11 O40 2.346412 1_545
Na11 O39 2.377308 1_555
Na11 O3 2.471002 1_555
Na11 O54 2.482434 1_555
Na11 O56 2.610856 1_555
Na11 O18 2.851403 1_556
Na11 O35 2.903792 1_555
Na11 O25 2.961557 1_555
Na12 O2 2.391627 1_555
Na12 O37 2.409538 1_545
Na12 O38 2.450426 1_655
Na12 O57 2.620651 1_555
Na12 O59 2.635087 1_555
Na12 O30 2.753007 1_655
Na13 O0 2.394890 1_555
Na13 O38 2.407968 1_555
Na13 O36 2.449214 1_545
Na13 O58 2.629348 1_555
Na13 O57 2.641483 1_555
Na13 O31 2.758829 1_545
Na13 O21 2.948833 1_555
Na13 O29 2.976891 1_545
Na14 O1 2.392826 1_555
Na14 O36 2.408534 1_655
Na14 O37 2.443561 1_555
Na14 O59 2.619283 1_555
Na14 O58 2.625788 1_555
Na14 O32 2.761137 1_555
Na15 O44 2.503854 1_455
Na15 O42 2.513031 1_465
Na15 O43 2.513980 1_565
Na15 O36 2.522443 1_555
Na15 O37 2.524409 1_455
Na15 O38 2.530617 1_565
Na16 O41 2.475267 1_555
Na16 O45 2.508727 1_556
Na16 O46 2.517041 1_566
Na16 O40 2.567168 1_655
Na16 O39 2.584807 1_665
Na16 O47 2.597197 1_666
Na17 O48 2.404791 1_555
Na17 O49 2.462215 1_555
Na17 O50 2.493217 1_555
Na17 O56 2.601515 1_555
Na17 O55 2.651477 1_555
Na17 O54 2.694843 1_555
Na18 O53 2.345346 1_555
Na18 O51 2.346707 1_555
Na18 O52 2.347075 1_555
Na18 O57 2.778459 1_555
Na18 O59 2.779462 1_555
Na18 O58 2.781759 1_555
Na19 O67 2.484441 1_555
Na19 O66 2.485216 1_555
Na19 O68 2.489896 1_555
Na19 O60 2.611541 1_555
Na19 O61 2.615271 1_555
Na19 O62 2.615973 1_555
Na20 O63 2.422442 1_555
Na20 O65 2.505292 1_555
Na20 O64 2.506200 1_555
Na20 O70 2.655963 1_555
Na20 O71 2.687631 1_555
Na20 O69 2.716561 1_555
Nb0 O19 1.941389 1_556
Nb0 O20 1.946723 1_556
Nb0 O18 1.994454 1_556
Nb0 O55 2.042120 1_555
Nb0 O56 2.078907 1_555
Nb0 O54 2.087142 1_555
Nb1 O21 1.962561 1_555
Nb1 O22 1.967489 1_555
Nb1 O23 1.970710 1_555
Nb1 O57 2.021677 1_555
Nb1 O58 2.024174 1_555
Nb1 O59 2.027702 1_555
Nb2 O34 1.958380 1_555
Nb2 O70 1.997890 1_555
Nb2 O71 2.001885 1_555
Nb2 O33 2.022305 1_555
Nb2 O35 2.030111 1_555
Nb2 O69 2.042849 1_555
O0 P0 1.552489 1_545
O0 Zn0 1.988103 1_545
O1 P1 1.552458 1_555
O1 Zn0 1.986965 1_655
O2 P2 1.552368 1_655
O2 Zn0 1.987366 1_645
O3 P3 1.516527 1_555
O3 Zn1 2.097884 1_445
O4 P4 1.509497 1_655
O4 Zn1 1.993929 1_555
O5 P5 1.513176 1_555
O5 Zn1 2.010937 1_545
O6 P5 1.554881 1_565
O6 Zn2 2.083760 1_655
O7 P3 1.549185 1_555
O7 Zn2 2.055823 1_545
O8 P4 1.541379 1_555
O8 Zn2 2.043220 1_555
O9 P1 1.548811 1_555
O9 Zn3 2.010952 1_655
O10 P2 1.549249 1_555
O10 Zn3 2.007492 1_545
O11 P0 1.549149 1_555
O11 Zn3 2.007936 1_555
O12 P6 1.520677 1_555
O12 Zn4 2.082549 1_555
O13 P7 1.508527 1_555
O13 Zn4 1.980850 1_555
O14 P8 1.521456 1_555
O14 Zn4 2.068545 1_555
O15 P9 1.522828 1_555
O15 Zn5 2.037773 1_555
O16 P10 1.523106 1_555
O16 Zn5 2.032580 1_555
O17 P11 1.524564 1_555
O17 Zn5 2.031073 1_555
O18 P11 1.620949 1_555
O19 P9 1.624044 1_555
O20 P10 1.622575 1_555
O21 P7 1.621517 1_555
O22 P8 1.615722 1_555
O23 P6 1.617056 1_555
O24 P12 1.515648 1_555
O24 Zn6 2.029699 1_556
O25 P13 1.518590 1_555
O25 Zn6 2.026264 1_556
O26 P14 1.509073 1_555
O26 Zn6 2.021658 1_556
O27 P15 1.531689 1_555
O27 Zn7 2.021474 1_555
O28 P16 1.532064 1_555
O28 Zn7 2.018346 1_555
O29 P17 1.531523 1_555
O29 Zn7 2.019554 1_555
O30 P17 1.529789 1_555
O30 Zn8 2.120013 1_555
O31 P15 1.529747 1_555
O31 Zn8 2.111466 1_555
O32 P16 1.529607 1_555
O32 Zn8 2.110802 1_555
O33 P13 1.594440 1_555
O34 P14 1.592813 1_555
O35 P12 1.603427 1_555
O36 P17 1.538759 1_555
O36 Zn0 2.299066 1_555
O37 P15 1.538361 1_555
O37 Zn0 2.309774 1_655
O38 P16 1.538629 1_555
O38 Zn0 2.300160 1_545
O39 P13 1.518639 1_555
O39 Zn1 2.187136 1_445
O40 P14 1.517876 1_555
O40 Zn1 2.184144 1_455
O41 P12 1.505514 1_555
O41 Zn1 2.116930 1_555
O42 P6 1.541050 1_555
O42 Zn2 2.326511 1_645
O43 P7 1.540774 1_555
O43 Zn2 2.308891 1_545
O44 P8 1.539629 1_555
O44 Zn2 2.321560 1_655
O45 P9 1.537559 1_555
O45 Zn3 2.318108 1_655
O46 P10 1.537787 1_555
O46 Zn3 2.332237 1_645
O47 P11 1.540342 1_555
O47 Zn3 2.338741 1_545
O48 P5 1.531174 1_555
O48 Zn4 2.109473 1_555
O49 P3 1.534498 1_555
O49 Zn4 2.145498 1_555
O50 P4 1.549385 1_655
O50 Zn4 2.200678 1_555
O51 P1 1.554873 1_555
O51 Zn5 2.152842 1_555
O52 P2 1.554592 1_655
O52 Zn5 2.162366 1_555
O53 P0 1.554581 1_545
O53 Zn5 2.164267 1_555
O54 P12 1.605270 1_555
O55 P13 1.578681 1_655
O56 P14 1.594740 1_545
O57 P15 1.616876 1_545
O58 P16 1.617182 1_555
O59 P17 1.617073 1_655
O60 P11 1.539490 1_555
O60 Zn6 2.177193 1_555
O61 P9 1.535657 1_455
O61 Zn6 2.175700 1_555
O62 P10 1.536634 1_565
O62 Zn6 2.153557 1_555
O63 P7 1.539387 1_565
O63 Zn7 2.189011 1_555
O64 P8 1.539753 1_555
O64 Zn7 2.208510 1_555
O65 P6 1.539435 1_455
O65 Zn7 2.207957 1_555
O66 P0 1.555827 1_555
O66 Zn8 2.124639 1_555
O67 P1 1.555884 1_555
O67 Zn8 2.133314 1_555
O68 P2 1.556016 1_555
O68 Zn8 2.123322 1_555
O69 P3 1.640609 1_555
O70 P4 1.617686 1_555
O71 P5 1.617689 1_565
