# generated using pymatgen
data_MgZn(CoS2)4
_symmetry_space_group_name_H-M   'P 1'
_cell_length_a   6.87305906
_cell_length_b   6.87745142
_cell_length_c   6.87837366
_cell_angle_alpha   60.00242797
_cell_angle_beta   59.97075926
_cell_angle_gamma   59.97253973
_symmetry_Int_Tables_number   1
_chemical_formula_structural   MgZn(CoS2)4
_chemical_formula_sum   'Mg1 Zn1 Co4 S8'
_cell_volume   229.81062291
_cell_formula_units_Z   1
loop_
 _symmetry_equiv_pos_site_id
 _symmetry_equiv_pos_as_xyz
  1  'x, y, z'
loop_
 _atom_site_type_symbol
 _atom_site_label
 _atom_site_symmetry_multiplicity
 _atom_site_fract_x
 _atom_site_fract_y
 _atom_site_fract_z
 _atom_site_occupancy
  Mg  Mg0  1  0.09762897  0.13388236  0.13451383  1
  Zn  Zn0  1  0.84515201  0.88455981  0.88552672  1
  Co  Co0  1  0.97254359  0.50887614  0.50957070  1
  Co  Co1  1  0.47110401  0.50877658  0.01121124  1
  Co  Co2  1  0.47110047  0.50872983  0.50943013  1
  Co  Co3  1  0.47110809  0.01061869  0.50938655  1
  S  S0  1  0.23988855  0.27776794  0.27838144  1
  S  S1  1  0.23956332  0.27789025  0.70454685  1
  S  S2  1  0.23991144  0.70384371  0.27840217  1
  S  S3  1  0.66664486  0.27744361  0.27824625  1
  S  S4  1  0.26988164  0.74327157  0.74355660  1
  S  S5  1  0.70536090  0.74295334  0.30852505  1
  S  S6  1  0.70505615  0.30786272  0.74379895  1
  S  S7  1  0.70505602  0.74315345  0.74379250  1
loop_
_geom_bond_atom_site_label_1
_geom_bond_atom_site_label_2
_geom_bond_distance
_geom_bond_site_symmetry_2
Mg0 S1 2.414466 1_554
Mg0 S2 2.414580 1_545
Mg0 S0 2.414637 1_555
Mg0 S3 2.417558 1_455
Co0 S1 2.259555 1_655
Co0 S0 2.260797 1_655
Co0 S2 2.261148 1_655
Co0 S5 2.287594 1_555
Co0 S7 2.288667 1_555
Co0 S6 2.288841 1_555
Co1 S0 2.260786 1_555
Co1 S2 2.260828 1_555
Co1 S3 2.262710 1_555
Co1 S6 2.288137 1_554
Co1 S7 2.288281 1_554
Co1 S4 2.291350 1_554
Co2 S2 2.260923 1_555
Co2 S1 2.261516 1_555
Co2 S3 2.261794 1_555
Co2 S6 2.288511 1_555
Co2 S5 2.289071 1_555
Co2 S4 2.289903 1_555
Co3 S0 2.260948 1_555
Co3 S3 2.261357 1_555
Co3 S1 2.261602 1_555
Co3 S7 2.288608 1_545
Co3 S5 2.289155 1_545
Co3 S4 2.289533 1_545
S4 Zn0 2.382475 1_455
S5 Zn0 2.375330 1_554
S6 Zn0 2.376760 1_545
S7 Zn0 2.376585 1_555
