# generated using pymatgen
data_Au2Se4O11
_symmetry_space_group_name_H-M   'P 1'
_cell_length_a   10.50635464
_cell_length_b   10.50635464
_cell_length_c   13.23453586
_cell_angle_alpha   65.59081138
_cell_angle_beta   65.59081138
_cell_angle_gamma   22.85260773
_symmetry_Int_Tables_number   1
_chemical_formula_structural   Au2Se4O11
_chemical_formula_sum   'Au4 Se8 O22'
_cell_volume   514.45901605
_cell_formula_units_Z   2
loop_
 _symmetry_equiv_pos_site_id
 _symmetry_equiv_pos_as_xyz
  1  'x, y, z'
loop_
 _atom_site_type_symbol
 _atom_site_label
 _atom_site_symmetry_multiplicity
 _atom_site_fract_x
 _atom_site_fract_y
 _atom_site_fract_z
 _atom_site_occupancy
  Au  Au0  1  0.50000000  -0.00000000  0.50000000  1
  Au  Au1  1  0.00000000  0.50000000  -0.00000000  1
  Au  Au2  1  0.00000000  -0.00000000  0.50000000  1
  Au  Au3  1  0.00000000  -0.00000000  -0.00000000  1
  Se  Se0  1  0.32290913  0.82881894  0.24842983  1
  Se  Se1  1  0.17118106  0.67709087  0.25157017  1
  Se  Se2  1  0.67709087  0.17118106  0.75157017  1
  Se  Se3  1  0.82881894  0.32290913  0.74842983  1
  Se  Se4  1  0.92799586  0.40567919  0.41091525  1
  Se  Se5  1  0.59432081  0.07200414  0.08908475  1
  Se  Se6  1  0.07200414  0.59432081  0.58908475  1
  Se  Se7  1  0.40567919  0.92799586  0.91091525  1
  O  O0  1  0.00858398  0.99141602  0.25000000  1
  O  O1  1  0.99141602  0.00858398  0.75000000  1
  O  O2  1  0.07732013  0.17991106  0.24484349  1
  O  O3  1  0.82008894  0.92267987  0.25515651  1
  O  O4  1  0.92267987  0.82008894  0.75515651  1
  O  O5  1  0.17991106  0.07732013  0.74484349  1
  O  O6  1  0.39473020  0.67543296  0.38886846  1
  O  O7  1  0.32456704  0.60526980  0.11113154  1
  O  O8  1  0.60526980  0.32456704  0.61113154  1
  O  O9  1  0.67543296  0.39473020  0.88886846  1
  O  O10  1  0.28640260  0.17832710  0.37393811  1
  O  O11  1  0.82167290  0.71359740  0.12606189  1
  O  O12  1  0.10895051  0.08308684  0.00215818  1
  O  O13  1  0.91691316  0.89104949  0.49784182  1
  O  O14  1  0.89104949  0.91691316  0.99784182  1
  O  O15  1  0.08308684  0.10895051  0.50215818  1
  O  O16  1  0.58718567  0.76807744  0.02276549  1
  O  O17  1  0.23192256  0.41281433  0.47723451  1
  O  O18  1  0.41281433  0.23192256  0.97723451  1
  O  O19  1  0.76807744  0.58718567  0.52276549  1
  O  O20  1  0.17832710  0.28640260  0.87393811  1
  O  O21  1  0.71359740  0.82167290  0.62606189  1
loop_
_geom_bond_atom_site_label_1
_geom_bond_atom_site_label_2
_geom_bond_distance
_geom_bond_site_symmetry_2
Au0 O17 1.985498 1_555
Au0 O19 1.985498 1_545
Au0 O10 2.022820 1_555
Au0 O21 2.022820 1_545
Au1 O16 1.985498 1_455
Au1 O18 1.985498 1_554
Au1 O20 2.022820 1_554
Au1 O11 2.022820 1_455
Au2 O15 1.990563 1_555
Au2 O13 1.990563 1_445
Au2 O6 2.007630 1_545
Au2 O8 2.007630 1_455
Au3 O12 1.990563 1_555
Au3 O14 1.990563 1_444
Au3 O9 2.007630 1_454
Au3 O7 2.007630 1_545
O0 Se1 1.843875 1_555
O0 Se0 1.843875 1_555
O1 Se2 1.843875 1_555
O1 Se3 1.843875 1_555
O2 Se0 1.637557 1_545
O3 Se1 1.637557 1_655
O4 Se2 1.637557 1_565
O5 Se3 1.637557 1_455
O6 Se0 1.750253 1_555
O7 Se1 1.750253 1_555
O8 Se2 1.750253 1_555
O9 Se3 1.750253 1_555
O10 Se4 1.729295 1_455
O11 Se5 1.729295 1_565
O12 Se7 1.727686 1_544
O13 Se6 1.727686 1_655
O14 Se5 1.727686 1_566
O15 Se4 1.727686 1_455
O16 Se7 1.738727 1_554
O17 Se6 1.738727 1_555
O18 Se5 1.738727 1_556
O19 Se4 1.738727 1_555
O20 Se7 1.729295 1_545
O21 Se6 1.729295 1_655
