# generated using pymatgen
data_MgV4O5F7
_symmetry_space_group_name_H-M   'P 1'
_cell_length_a   5.14467152
_cell_length_b   5.52706035
_cell_length_c   9.04805663
_cell_angle_alpha   72.19265268
_cell_angle_beta   89.68107796
_cell_angle_gamma   62.50249946
_symmetry_Int_Tables_number   1
_chemical_formula_structural   MgV4O5F7
_chemical_formula_sum   'Mg1 V4 O5 F7'
_cell_volume   214.46170418
_cell_formula_units_Z   1
loop_
 _symmetry_equiv_pos_site_id
 _symmetry_equiv_pos_as_xyz
  1  'x, y, z'
loop_
 _atom_site_type_symbol
 _atom_site_label
 _atom_site_symmetry_multiplicity
 _atom_site_fract_x
 _atom_site_fract_y
 _atom_site_fract_z
 _atom_site_occupancy
  Mg  Mg0  1  0.79694800  0.40509000  0.60020900  1
  V  V0  1  0.74498700  0.45714800  0.25574200  1
  V  V1  1  0.45424800  0.02881900  0.49052600  1
  V  V2  1  0.24694900  0.54093100  0.76484100  1
  V  V3  1  0.04461200  0.95783000  0.00939900  1
  O  O0  1  0.40970800  0.76143400  0.07575200  1
  O  O1  1  0.45763400  0.71725400  0.66956400  1
  O  O2  1  0.56599500  0.26070100  0.32080300  1
  O  O3  1  0.04082000  0.73609400  0.87622300  1
  O  O4  1  0.04118500  0.26510900  0.44089300  1
  F  F0  1  0.93457700  0.72356100  0.57461000  1
  F  F1  1  0.91367500  0.74090100  0.17303700  1
  F  F2  1  0.98017000  0.23985100  0.12302200  1
  F  F3  1  0.53155700  0.72413300  0.38217100  1
  F  F4  1  0.60005800  0.23948800  0.92204000  1
  F  F5  1  0.51036600  0.24592200  0.62926700  1
  F  F6  1  0.07651300  0.24323400  0.80618600  1
loop_
_geom_bond_atom_site_label_1
_geom_bond_atom_site_label_2
_geom_bond_distance
_geom_bond_site_symmetry_2
Mg0 O4 2.004899 1_655
Mg0 O1 2.070447 1_555
O0 V3 1.672709 1_555
O0 V0 2.033032 1_555
O1 V2 1.821793 1_555
O1 V1 1.963756 1_565
O2 V0 1.702856 1_555
O2 V1 1.948873 1_555
O3 V2 1.703078 1_555
O3 V3 1.969750 1_556
O4 V1 1.874122 1_555
O4 V0 1.924178 1_455
F0 V2 2.008558 1_655
F0 Mg0 2.133780 1_555
F0 V1 2.217603 1_565
F1 V3 1.931954 1_655
F1 V0 2.074740 1_555
F2 V0 1.967874 1_555
F2 V3 2.023778 1_645
F3 V0 2.052814 1_555
F3 V1 2.083814 1_565
F3 Mg0 2.131820 1_555
F4 V2 1.970666 1_555
F4 V3 2.063673 1_646
F5 Mg0 2.017116 1_555
F5 V1 2.084309 1_555
F5 V2 2.272513 1_555
F6 Mg0 2.040644 1_455
F6 V3 2.087518 1_546
F6 V2 2.137339 1_555
