# generated using pymatgen
data_NaNb3Zn(PO4)6
_symmetry_space_group_name_H-M   'P 1'
_cell_length_a   8.79519350
_cell_length_b   8.79519321
_cell_length_c   22.73822613
_cell_angle_alpha   90.00000000
_cell_angle_beta   90.00000000
_cell_angle_gamma   120.00000108
_symmetry_Int_Tables_number   1
_chemical_formula_structural   NaNb3Zn(PO4)6
_chemical_formula_sum   'Na3 Nb9 Zn3 P18 O72'
_cell_volume   1523.27386629
_cell_formula_units_Z   3
loop_
 _symmetry_equiv_pos_site_id
 _symmetry_equiv_pos_as_xyz
  1  'x, y, z'
loop_
 _atom_site_type_symbol
 _atom_site_label
 _atom_site_symmetry_multiplicity
 _atom_site_fract_x
 _atom_site_fract_y
 _atom_site_fract_z
 _atom_site_occupancy
  Na  Na0  1  -0.00000000  -0.00000000  0.98625864  1
  Na  Na1  1  0.66666700  0.33333300  0.84323928  1
  Na  Na2  1  0.66666700  0.33333300  0.34217210  1
  Nb  Nb0  1  -0.00000000  -0.00000000  0.36107856  1
  Nb  Nb1  1  -0.00000000  -0.00000000  0.64653171  1
  Nb  Nb2  1  -0.00000000  -0.00000000  0.14342624  1
  Nb  Nb3  1  0.66666700  0.33333300  0.68782288  1
  Nb  Nb4  1  0.66666700  0.33333300  0.18477001  1
  Nb  Nb5  1  0.33333300  0.66666700  0.01838645  1
  Nb  Nb6  1  0.33333300  0.66666700  0.52704367  1
  Nb  Nb7  1  0.33333300  0.66666700  0.31099076  1
  Nb  Nb8  1  0.33333300  0.66666700  0.81116329  1
  Zn  Zn0  1  -0.00000000  -0.00000000  0.85408475  1
  Zn  Zn1  1  0.66666700  0.33333300  0.97637076  1
  Zn  Zn2  1  0.66666700  0.33333300  0.48166385  1
  P  P0  1  0.28649664  0.00311982  0.25113838  1
  P  P1  1  0.71662317  0.71350336  0.25113838  1
  P  P2  1  0.99688018  0.28337683  0.25113838  1
  P  P3  1  0.28605186  0.28457648  0.75244027  1
  P  P4  1  0.99852462  0.71394814  0.75244027  1
  P  P5  1  0.71542352  0.00147538  0.75244027  1
  P  P6  1  0.94814040  0.32805432  0.58115256  1
  P  P7  1  0.37991492  0.05185960  0.58115256  1
  P  P8  1  0.67194568  0.62008508  0.58115256  1
  P  P9  1  0.95404475  0.61908531  0.08062418  1
  P  P10  1  0.66504156  0.04595525  0.08062418  1
  P  P11  1  0.38091469  0.33495844  0.08062418  1
  P  P12  1  0.62679691  0.66676857  0.91572054  1
  P  P13  1  0.03997066  0.37320309  0.91572054  1
  P  P14  1  0.33323143  0.96002934  0.91572054  1
  P  P15  1  0.61585768  0.95568248  0.41719048  1
  P  P16  1  0.33982381  0.38414232  0.41719048  1
  P  P17  1  0.04431752  0.66017619  0.41719048  1
  O  O0  1  0.20044524  0.03257794  0.30561896  1
  O  O1  1  0.83213270  0.79955476  0.30561896  1
  O  O2  1  0.96742206  0.16786730  0.30561896  1
  O  O3  1  0.21732382  0.17250846  0.80611021  1
  O  O4  1  0.95518464  0.78267618  0.80611021  1
  O  O5  1  0.82749154  0.04481536  0.80611021  1
  O  O6  1  0.80162712  0.97455278  0.69603527  1
  O  O7  1  0.17292566  0.19837288  0.69603527  1
  O  O8  1  0.02544722  0.82707434  0.69603527  1
  O  O9  1  0.80116099  0.82682378  0.19622561  1
  O  O10  1  0.02566279  0.19883901  0.19622561  1
  O  O11  1  0.17317622  0.97433721  0.19622561  1
  O  O12  1  0.86695818  0.36392885  0.63633137  1
  O  O13  1  0.49697167  0.13304182  0.63633137  1
  O  O14  1  0.63607115  0.50302833  0.63633137  1
  O  O15  1  0.86318833  0.50578087  0.13845739  1
  O  O16  1  0.64259354  0.13681167  0.13845739  1
  O  O17  1  0.49421913  0.35740646  0.13845739  1
  O  O18  1  0.45152033  0.28841817  0.02840411  1
  O  O19  1  0.83689884  0.54847967  0.02840411  1
  O  O20  1  0.71158183  0.16310116  0.02840411  1
  O  O21  1  0.45008331  0.15770778  0.52613185  1
  O  O22  1  0.70762547  0.54991669  0.52613185  1
  O  O23  1  0.84229222  0.29237453  0.52613185  1
  O  O24  1  0.52354969  0.68190405  0.97212162  1
  O  O25  1  0.15835337  0.47645031  0.97212162  1
  O  O26  1  0.31809595  0.84164663  0.97212162  1
  O  O27  1  0.53218613  0.83817963  0.47118122  1
  O  O28  1  0.30599250  0.46781387  0.47118122  1
  O  O29  1  0.16182037  0.69400750  0.47118122  1
  O  O30  1  0.14223786  0.64683816  0.36113754  1
  O  O31  1  0.50459930  0.85776214  0.36113754  1
  O  O32  1  0.35316184  0.49540070  0.36113754  1
  O  O33  1  0.14333324  0.49146260  0.86118000  1
  O  O34  1  0.34812837  0.85666676  0.86118000  1
  O  O35  1  0.50853740  0.65187163  0.86118000  1
  O  O36  1  0.03592115  0.83374348  0.40656454  1
  O  O37  1  0.79782233  0.96407885  0.40656454  1
  O  O38  1  0.16625652  0.20217767  0.40656454  1
  O  O39  1  0.03792632  0.20104471  0.91483271  1
  O  O40  1  0.16311839  0.96207368  0.91483271  1
  O  O41  1  0.79895529  0.83688161  0.91483271  1
  O  O42  1  0.98090388  0.17478354  0.59566192  1
  O  O43  1  0.19387966  0.01909612  0.59566192  1
  O  O44  1  0.82521646  0.80612034  0.59566192  1
  O  O45  1  0.98018852  0.80726532  0.09552881  1
  O  O46  1  0.82707680  0.01981148  0.09552881  1
  O  O47  1  0.19273468  0.17292320  0.09552881  1
  O  O48  1  0.68614969  0.16123953  0.73844336  1
  O  O49  1  0.47509084  0.31385031  0.73844336  1
  O  O50  1  0.83876047  0.52490916  0.73844336  1
  O  O51  1  0.69444569  0.52838073  0.24323570  1
  O  O52  1  0.83393604  0.30555431  0.24323570  1
  O  O53  1  0.47161927  0.16606396  0.24323570  1
  O  O54  1  0.62849057  0.49632214  0.91884174  1
  O  O55  1  0.86783257  0.37150943  0.91884174  1
  O  O56  1  0.50367786  0.13216743  0.91884174  1
  O  O57  1  0.63832589  0.13604627  0.41856592  1
  O  O58  1  0.49772138  0.36167411  0.41856592  1
  O  O59  1  0.86395373  0.50227862  0.41856592  1
  O  O60  1  0.35914940  0.49610417  0.07712079  1
  O  O61  1  0.13695378  0.64085060  0.07712079  1
  O  O62  1  0.50389583  0.86304622  0.07712079  1
  O  O63  1  0.35949031  0.86333182  0.57372338  1
  O  O64  1  0.50384052  0.64050969  0.57372338  1
  O  O65  1  0.13666818  0.49615948  0.57372338  1
  O  O66  1  0.30627847  0.83946512  0.25970101  1
  O  O67  1  0.53318566  0.69372153  0.25970101  1
  O  O68  1  0.16053488  0.46681434  0.25970101  1
  O  O69  1  0.30849662  0.47022618  0.75779959  1
  O  O70  1  0.16172856  0.69150338  0.75779959  1
  O  O71  1  0.52977382  0.83827144  0.75779959  1
loop_
_geom_bond_atom_site_label_1
_geom_bond_atom_site_label_2
_geom_bond_distance
_geom_bond_site_symmetry_2
Na0 O39 2.299079 1_555
Na0 O41 2.299080 1_445
Na0 O40 2.299080 1_545
Na0 O45 2.963406 1_446
Na0 O47 2.963406 1_556
Na0 O46 2.963406 1_456
Na1 O56 2.367328 1_555
Na1 O54 2.367328 1_555
Na1 O55 2.367328 1_555
Na1 O50 2.873635 1_555
Na1 O48 2.873635 1_555
Na1 O49 2.873635 1_555
Na2 O57 2.378618 1_555
Na2 O59 2.378618 1_555
Na2 O58 2.378618 1_555
Na2 O51 2.764836 1_555
Na2 O53 2.764836 1_555
Na2 O52 2.764836 1_555
Nb0 O38 1.941573 1_555
Nb0 O36 1.941573 1_545
Nb0 O37 1.941573 1_445
Nb0 O1 2.067662 1_445
Nb0 O2 2.067662 1_455
Nb0 O0 2.067662 1_555
Nb1 O7 1.992662 1_555
Nb1 O8 1.992662 1_545
Nb1 O6 1.992662 1_445
Nb1 O44 1.996867 1_445
Nb1 O42 1.996867 1_455
Nb1 O43 1.996867 1_555
Nb2 O45 1.947981 1_445
Nb2 O47 1.947981 1_555
Nb2 O46 1.947981 1_455
Nb2 O10 2.038620 1_555
Nb2 O9 2.038620 1_445
Nb2 O11 2.038620 1_545
Nb3 O50 1.975991 1_555
Nb3 O48 1.975991 1_555
Nb3 O49 1.975991 1_555
Nb3 O13 2.018028 1_555
Nb3 O14 2.018028 1_555
Nb3 O12 2.018028 1_555
Nb4 O16 1.943021 1_555
Nb4 O15 1.943021 1_555
Nb4 O17 1.943021 1_555
Nb4 O51 2.085849 1_555
Nb4 O53 2.085849 1_555
Nb4 O52 2.085849 1_555
Nb5 O26 1.923362 1_554
Nb5 O25 1.923362 1_554
Nb5 O24 1.923363 1_554
Nb5 O62 2.103848 1_555
Nb5 O61 2.103848 1_555
Nb5 O60 2.103848 1_555
Nb6 O63 1.942543 1_555
Nb6 O65 1.942543 1_555
Nb6 O64 1.942543 1_555
Nb6 O28 2.075942 1_555
Nb6 O27 2.075942 1_555
Nb6 O29 2.075942 1_555
Nb7 O31 1.965269 1_555
Nb7 O32 1.965269 1_555
Nb7 O30 1.965269 1_555
Nb7 O66 2.021914 1_555
Nb7 O68 2.021914 1_555
Nb7 O67 2.021914 1_555
Nb8 O34 1.971150 1_555
Nb8 O33 1.971150 1_555
Nb8 O35 1.971150 1_555
Nb8 O69 2.031676 1_555
Nb8 O71 2.031676 1_555
Nb8 O70 2.031676 1_555
O0 P0 1.539684 1_555
O1 P1 1.539684 1_555
O2 P2 1.539684 1_555
O3 P3 1.493448 1_555
O3 Zn0 2.060437 1_555
O4 P4 1.493448 1_555
O4 Zn0 2.060437 1_665
O5 P5 1.493448 1_555
O5 Zn0 2.060437 1_655
O6 P5 1.566960 1_565
O7 P3 1.566960 1_555
O8 P4 1.566960 1_455
O9 P1 1.537592 1_555
O10 P2 1.537592 1_455
O11 P0 1.537592 1_565
O12 P6 1.552047 1_555
O13 P7 1.552047 1_555
O14 P8 1.552047 1_555
O15 P9 1.601437 1_555
O16 P10 1.601437 1_555
O17 P11 1.601437 1_555
O18 P11 1.489050 1_555
O18 Zn1 2.094998 1_554
O19 P9 1.489050 1_555
O19 Zn1 2.094998 1_554
O20 P10 1.489050 1_555
O20 Zn1 2.094998 1_554
O21 P7 1.496060 1_555
O21 Zn2 2.023500 1_555
O22 P8 1.496060 1_555
O22 Zn2 2.023500 1_555
O23 P6 1.496060 1_555
O23 Zn2 2.023500 1_555
O24 P12 1.614905 1_555
O25 P13 1.614905 1_555
O26 P14 1.614905 1_555
O27 P15 1.534993 1_555
O28 P16 1.534993 1_555
O29 P17 1.534993 1_555
O30 P17 1.575110 1_555
O31 P15 1.575110 1_555
O32 P16 1.575110 1_555
O33 P13 1.581365 1_555
O34 P14 1.581365 1_555
O35 P12 1.581365 1_555
O36 P17 1.583333 1_555
O37 P15 1.583342 1_555
O38 P16 1.583337 1_555
O39 P13 1.505392 1_555
O39 Zn0 2.134493 1_555
O40 P14 1.505383 1_555
O40 Zn0 2.134493 1_565
O41 P12 1.505388 1_555
O41 Zn0 2.134493 1_665
O42 P6 1.548407 1_555
O43 P7 1.548416 1_555
O44 P8 1.548413 1_555
O45 P9 1.589481 1_555
O46 P10 1.589472 1_555
O47 P11 1.589477 1_555
O48 P5 1.582350 1_555
O49 P3 1.582359 1_555
O50 P4 1.582355 1_555
O51 P1 1.550403 1_555
O52 P2 1.550394 1_555
O53 P0 1.550400 1_555
O54 P12 1.508283 1_555
O54 Zn1 2.088110 1_555
O55 P13 1.508266 1_655
O55 Zn1 2.088110 1_555
O56 P14 1.508274 1_545
O56 Zn1 2.088110 1_555
O57 P15 1.497667 1_545
O57 Zn2 2.167697 1_555
O58 P16 1.497684 1_555
O58 Zn2 2.167697 1_555
O59 P17 1.497674 1_655
O59 Zn2 2.167697 1_555
O60 P11 1.524161 1_555
O61 P9 1.524144 1_455
O62 P10 1.524151 1_565
O63 P7 1.585044 1_565
O64 P8 1.585061 1_555
O65 P6 1.585051 1_455
O66 P0 1.546094 1_565
O67 P1 1.546103 1_555
O68 P2 1.546099 1_455
O69 P3 1.548421 1_555
O70 P4 1.548412 1_455
O71 P5 1.548417 1_565
