# generated using pymatgen
data_MgTa4(CuO6)2
_symmetry_space_group_name_H-M   'P 1'
_cell_length_a   5.07886100
_cell_length_b   5.07886100
_cell_length_c   9.06067000
_cell_angle_alpha   90.00000000
_cell_angle_beta   90.00000000
_cell_angle_gamma   90.00000000
_symmetry_Int_Tables_number   1
_chemical_formula_structural   MgTa4(CuO6)2
_chemical_formula_sum   'Mg1 Ta4 Cu2 O12'
_cell_volume   233.71843379
_cell_formula_units_Z   1
loop_
 _symmetry_equiv_pos_site_id
 _symmetry_equiv_pos_as_xyz
  1  'x, y, z'
loop_
 _atom_site_type_symbol
 _atom_site_label
 _atom_site_symmetry_multiplicity
 _atom_site_fract_x
 _atom_site_fract_y
 _atom_site_fract_z
 _atom_site_occupancy
  Mg  Mg0  1  0.00000000  0.50000000  0.75000000  1
  Ta  Ta0  1  0.00000000  0.00000000  0.65060300  1
  Ta  Ta1  1  0.50000000  0.50000000  0.18749000  1
  Ta  Ta2  1  0.50000000  0.50000000  0.84939700  1
  Ta  Ta3  1  0.00000000  0.00000000  0.31251000  1
  Cu  Cu0  1  0.50000000  0.50000000  0.49406600  1
  Cu  Cu1  1  0.00000000  0.00000000  0.00593400  1
  O  O0  1  0.72154600  0.72242300  0.68733300  1
  O  O1  1  0.27845400  0.27757700  0.68733300  1
  O  O2  1  0.71521000  0.71811500  0.31653800  1
  O  O3  1  0.21811500  0.78479000  0.18346200  1
  O  O4  1  0.78188500  0.21521000  0.18346200  1
  O  O5  1  0.77757700  0.22154600  0.81266700  1
  O  O6  1  0.31095800  0.32790700  0.00379900  1
  O  O7  1  0.17209300  0.81095800  0.49620100  1
  O  O8  1  0.82790700  0.18904200  0.49620100  1
  O  O9  1  0.68904200  0.67209300  0.00379900  1
  O  O10  1  0.28479000  0.28188500  0.31653800  1
  O  O11  1  0.22242300  0.77845400  0.81266700  1
loop_
_geom_bond_atom_site_label_1
_geom_bond_atom_site_label_2
_geom_bond_distance
_geom_bond_site_symmetry_2
Mg0 O1 1.896989 1_555
Mg0 O11 1.896989 1_555
Mg0 O5 1.896989 1_455
Mg0 O0 1.896989 1_455
Cu0 O2 2.238126 1_555
Cu0 O10 2.238126 1_555
Cu0 O7 2.295243 1_555
Cu0 O8 2.295243 1_555
Cu0 O0 2.368259 1_555
Cu0 O1 2.368259 1_555
Cu1 O3 2.238126 1_545
Cu1 O4 2.238126 1_455
Cu1 O9 2.295243 1_445
Cu1 O6 2.295243 1_555
Cu1 O5 2.368259 1_454
Cu1 O11 2.368259 1_544
O0 Ta0 2.024417 1_665
O0 Ta2 2.167585 1_555
O1 Ta0 2.024417 1_555
O1 Ta2 2.167585 1_555
O2 Ta1 1.946545 1_555
O2 Ta3 2.035452 1_665
O3 Ta3 1.946545 1_565
O3 Ta1 2.035452 1_555
O4 Ta3 1.946545 1_655
O4 Ta1 2.035452 1_555
O5 Ta2 2.024417 1_555
O5 Ta0 2.167585 1_655
O6 Ta2 1.908645 1_554
O6 Ta1 2.110894 1_555
O7 Ta0 1.908645 1_565
O7 Ta3 2.110894 1_565
O8 Ta0 1.908645 1_655
O8 Ta3 2.110894 1_655
O9 Ta2 1.908645 1_554
O9 Ta1 2.110894 1_555
O10 Ta1 1.946545 1_555
O10 Ta3 2.035452 1_555
O11 Ta2 2.024417 1_555
O11 Ta0 2.167585 1_565
