# generated using pymatgen
data_Na2MgGeP2SO12
_symmetry_space_group_name_H-M   'P 1'
_cell_length_a   8.67885856
_cell_length_b   8.66782968
_cell_length_c   21.76282886
_cell_angle_alpha   90.88288799
_cell_angle_beta   90.00000000
_cell_angle_gamma   120.04209932
_symmetry_Int_Tables_number   1
_chemical_formula_structural   Na2MgGeP2SO12
_chemical_formula_sum   'Na12 Mg6 Ge6 P12 S6 O72'
_cell_volume   1416.98663371
_cell_formula_units_Z   6
loop_
 _symmetry_equiv_pos_site_id
 _symmetry_equiv_pos_as_xyz
  1  'x, y, z'
loop_
 _atom_site_type_symbol
 _atom_site_label
 _atom_site_symmetry_multiplicity
 _atom_site_fract_x
 _atom_site_fract_y
 _atom_site_fract_z
 _atom_site_occupancy
  Na  Na0  1  0.99249957  0.63733055  0.24390335  1
  Na  Na1  1  0.64483098  0.63733055  0.74390335  1
  Na  Na2  1  0.65916657  0.97066355  0.57723635  1
  Na  Na3  1  0.31149798  0.97066355  0.07723635  1
  Na  Na4  1  0.32583257  0.30399755  0.91057035  1
  Na  Na5  1  0.97816398  0.30399755  0.41057035  1
  Na  Na6  1  0.00441529  0.97398704  0.49677099  1
  Na  Na7  1  0.96957175  0.97398704  0.99677099  1
  Na  Na8  1  0.67108229  0.30732004  0.83010399  1
  Na  Na9  1  0.63623875  0.30732004  0.33010399  1
  Na  Na10  1  0.33774829  0.64065404  0.16343799  1
  Na  Na11  1  0.30290475  0.64065404  0.66343799  1
  Mg  Mg0  1  0.99909320  0.99734290  0.35466804  1
  Mg  Mg1  1  0.99824970  0.99734290  0.85466804  1
  Mg  Mg2  1  0.66576020  0.33067590  0.68800104  1
  Mg  Mg3  1  0.66491670  0.33067590  0.18800104  1
  Mg  Mg4  1  0.33242620  0.66400990  0.02133504  1
  Mg  Mg5  1  0.33158270  0.66400990  0.52133504  1
  Ge  Ge0  1  0.99271998  0.00713374  0.64872224  1
  Ge  Ge1  1  0.01441377  0.00713374  0.14872224  1
  Ge  Ge2  1  0.65938698  0.34046674  0.98205524  1
  Ge  Ge3  1  0.68108077  0.34046674  0.48205524  1
  Ge  Ge4  1  0.32605298  0.67380074  0.31538924  1
  Ge  Ge5  1  0.34774677  0.67380074  0.81538924  1
  P  P0  1  0.29254804  -0.00423238  0.25169016  1
  P  P1  1  0.01258580  0.29521237  0.25420572  1
  P  P2  1  0.28262657  0.29521237  0.75420572  1
  P  P3  1  0.70321957  -0.00423238  0.75169016  1
  P  P4  1  0.95921504  0.32910062  0.58502316  1
  P  P5  1  0.67925280  0.62854537  0.58753872  1
  P  P6  1  0.94929357  0.62854537  0.08753872  1
  P  P7  1  0.36988657  0.32910062  0.08502316  1
  P  P8  1  0.62588104  0.66243462  0.91835716  1
  P  P9  1  0.34591880  0.96187937  0.92087272  1
  P  P10  1  0.61595957  0.96187937  0.42087272  1
  P  P11  1  0.03655257  0.66243462  0.41835716  1
  S  S0  1  0.70019526  0.71859665  0.24992605  1
  S  S1  1  0.01840139  0.71859665  0.74992605  1
  S  S2  1  0.36686226  0.05192965  0.58325905  1
  S  S3  1  0.68506839  0.05192965  0.08325905  1
  S  S4  1  0.03352826  0.38526365  0.91659305  1
  S  S5  1  0.35173439  0.38526365  0.41659305  1
  O  O0  1  0.19505625  0.00850087  0.30618954  1
  O  O1  1  0.80658210  0.80302996  0.30459194  1
  O  O2  1  0.99209928  0.19693739  0.31268632  1
  O  O3  1  0.20483811  0.19693739  0.81268632  1
  O  O4  1  0.99644785  0.80302996  0.80459194  1
  O  O5  1  0.81344462  0.00850087  0.80618954  1
  O  O6  1  0.77958043  0.95228728  0.68981199  1
  O  O7  1  0.15996503  0.19934143  0.69551111  1
  O  O8  1  0.04156929  0.82444362  0.69247192  1
  O  O9  1  0.78287433  0.82444362  0.19247192  1
  O  O10  1  0.03937641  0.19934143  0.19551111  1
  O  O11  1  0.17270685  0.95228728  0.18981199  1
  O  O12  1  0.86172325  0.34183387  0.63952254  1
  O  O13  1  0.47324910  0.13636296  0.63792494  1
  O  O14  1  0.65876628  0.53027039  0.64601932  1
  O  O15  1  0.87150511  0.53027039  0.14601932  1
  O  O16  1  0.66311485  0.13636296  0.13792494  1
  O  O17  1  0.48011162  0.34183387  0.13952254  1
  O  O18  1  0.44624743  0.28562028  0.02314499  1
  O  O19  1  0.82663203  0.53267443  0.02884411  1
  O  O20  1  0.70823629  0.15777662  0.02580492  1
  O  O21  1  0.44954133  0.15777662  0.52580492  1
  O  O22  1  0.70604341  0.53267443  0.52884411  1
  O  O23  1  0.83937385  0.28562028  0.52314499  1
  O  O24  1  0.52838925  0.67516787  0.97285654  1
  O  O25  1  0.13991510  0.46969696  0.97125894  1
  O  O26  1  0.32543228  0.86360439  0.97935332  1
  O  O27  1  0.53817111  0.86360439  0.47935332  1
  O  O28  1  0.32978085  0.46969696  0.47125894  1
  O  O29  1  0.14677762  0.67516787  0.47285654  1
  O  O30  1  0.11291343  0.61895428  0.35647899  1
  O  O31  1  0.49329803  0.86600843  0.36217811  1
  O  O32  1  0.37490229  0.49111062  0.35913892  1
  O  O33  1  0.11620733  0.49111062  0.85913892  1
  O  O34  1  0.37270941  0.86600843  0.86217811  1
  O  O35  1  0.50603985  0.61895428  0.85647899  1
  O  O36  1  0.00568329  0.81684498  0.41080628  1
  O  O37  1  0.80591237  -0.00178798  0.41229085  1
  O  O38  1  0.19400824  0.20562342  0.41126733  1
  O  O39  1  0.01161518  0.20562342  0.91126733  1
  O  O40  1  0.19229965  -0.00178798  0.91229085  1
  O  O41  1  0.81116169  0.81684498  0.91080628  1
  O  O42  1  0.96448472  0.14700837  0.58803928  1
  O  O43  1  0.18848474  0.03899429  0.58682037  1
  O  O44  1  0.85880518  0.81810548  0.58962651  1
  O  O45  1  0.95930030  0.81810548  0.08962651  1
  O  O46  1  0.85050955  0.03899429  0.08682037  1
  O  O47  1  0.18252365  0.14700837  0.08803928  1
  O  O48  1  0.67235029  0.15017798  0.74413928  1
  O  O49  1  0.47257937  0.33154502  0.74562385  1
  O  O50  1  0.86067524  0.53895642  0.74460033  1
  O  O51  1  0.67828218  0.53895642  0.24460033  1
  O  O52  1  0.85896665  0.33154502  0.24562385  1
  O  O53  1  0.47782869  0.15017798  0.24413928  1
  O  O54  1  0.63115172  0.48034137  0.92137228  1
  O  O55  1  0.85515174  0.37232729  0.92015337  1
  O  O56  1  0.52547218  0.15143848  0.92295951  1
  O  O57  1  0.62596730  0.15143848  0.42295951  1
  O  O58  1  0.51717655  0.37232729  0.42015337  1
  O  O59  1  0.84919065  0.48034137  0.42137228  1
  O  O60  1  0.33901629  0.48351198  0.07747328  1
  O  O61  1  0.13924537  0.66487902  0.07895785  1
  O  O62  1  0.52734124  0.87229042  0.07793433  1
  O  O63  1  0.34494818  0.87229042  0.57793433  1
  O  O64  1  0.52563265  0.66487902  0.57895785  1
  O  O65  1  0.14449469  0.48351198  0.57747328  1
  O  O66  1  0.29781772  0.81367537  0.25470628  1
  O  O67  1  0.52181774  0.70566129  0.25348737  1
  O  O68  1  0.19213818  0.48477248  0.25629351  1
  O  O69  1  0.29263330  0.48477248  0.75629351  1
  O  O70  1  0.18384255  0.70566129  0.75348737  1
  O  O71  1  0.51585665  0.81367537  0.75470628  1
loop_
_geom_bond_atom_site_label_1
_geom_bond_atom_site_label_2
_geom_bond_distance
_geom_bond_site_symmetry_2
Na0 O52 2.301536 1_555
Na0 O66 2.312280 1_655
Na0 O15 2.337758 1_555
Na0 O51 2.415826 1_555
Na0 O11 2.666196 1_655
Na0 O68 2.669904 1_655
Na0 O30 2.701580 1_655
Na0 O1 2.944950 1_555
Na1 O49 2.301536 1_555
Na1 O71 2.312287 1_555
Na1 O14 2.337760 1_555
Na1 O50 2.415834 1_555
Na1 O6 2.666196 1_555
Na1 O69 2.669911 1_555
Na1 O35 2.701583 1_555
Na1 O4 2.944950 1_555
Na2 O64 2.301529 1_555
Na2 O42 2.312280 1_565
Na2 O27 2.337739 1_555
Na2 O63 2.415836 1_555
Na2 O23 2.666196 1_565
Na2 O44 2.669904 1_555
Na2 O6 2.701580 1_555
Na2 O13 2.944950 1_565
Na3 O61 2.301530 1_555
Na3 O47 2.312287 1_565
Na3 O26 2.337735 1_554
Na3 O62 2.415820 1_555
Na3 O18 2.666196 1_565
Na3 O45 2.669911 1_455
Na3 O11 2.701583 1_555
Na3 O16 2.944950 1_565
Na4 O40 2.301536 1_555
Na4 O54 2.312284 1_555
Na4 O3 2.337758 1_555
Na4 O39 2.415826 1_555
Na4 O35 2.666196 1_555
Na4 O56 2.669916 1_555
Na4 O18 2.701566 1_556
Na4 O25 2.944950 1_555
Na5 O37 2.301536 1_555
Na5 O59 2.312270 1_555
Na5 O2 2.337760 1_555
Na5 O38 2.415834 1_655
Na5 O30 2.666196 1_655
Na5 O57 2.669901 1_555
Na5 O23 2.701559 1_555
Na5 O28 2.944950 1_655
Na6 O36 2.300410 1_555
Na6 O43 2.403072 1_565
Na6 O44 2.425023 1_455
Na6 O42 2.596741 1_465
Na6 O37 2.601219 1_465
Na6 O38 2.647359 1_565
Na7 O41 2.300410 1_555
Na7 O46 2.403072 1_566
Na7 O45 2.425023 1_556
Na7 O47 2.596741 1_666
Na7 O40 2.601219 1_665
Na7 O39 2.647359 1_665
Na8 O48 2.300410 1_555
Na8 O55 2.403072 1_555
Na8 O56 2.425023 1_555
Na8 O54 2.596741 1_555
Na8 O49 2.601219 1_555
Na8 O50 2.647359 1_555
Na9 O53 2.300410 1_555
Na9 O58 2.403072 1_555
Na9 O57 2.425023 1_555
Na9 O59 2.596741 1_555
Na9 O52 2.601219 1_555
Na9 O51 2.647359 1_555
Na10 O60 2.300410 1_555
Na10 O67 2.403072 1_555
Na10 O68 2.425023 1_555
Na10 O66 2.596741 1_555
Na10 O61 2.601219 1_555
Na10 O62 2.647359 1_555
Na11 O65 2.300410 1_555
Na11 O70 2.403072 1_555
Na11 O69 2.425023 1_555
Na11 O71 2.596741 1_555
Na11 O64 2.601219 1_555
Na11 O63 2.647359 1_555
Mg0 O0 1.963005 1_665
Mg0 O1 1.985381 1_555
Mg0 O2 1.996336 1_565
Mg0 O36 2.022901 1_655
Mg0 O37 2.096656 1_565
Mg0 O38 2.124084 1_665
Mg1 O5 1.963005 1_565
Mg1 O4 1.985381 1_555
Mg1 O3 1.996336 1_665
Mg1 O41 2.022901 1_555
Mg1 O40 2.096656 1_665
Mg1 O39 2.124084 1_665
Mg2 O12 1.963005 1_555
Mg2 O13 1.985381 1_555
Mg2 O14 1.996336 1_555
Mg2 O48 2.022901 1_555
Mg2 O49 2.096656 1_555
Mg2 O50 2.124084 1_555
Mg3 O17 1.963005 1_555
Mg3 O16 1.985381 1_555
Mg3 O15 1.996336 1_555
Mg3 O53 2.022901 1_555
Mg3 O52 2.096656 1_555
Mg3 O51 2.124084 1_555
Mg4 O24 1.963005 1_554
Mg4 O25 1.985381 1_554
Mg4 O26 1.996336 1_554
Mg4 O60 2.022901 1_555
Mg4 O61 2.096656 1_555
Mg4 O62 2.124084 1_555
Mg5 O29 1.963005 1_555
Mg5 O28 1.985381 1_555
Mg5 O27 1.996336 1_555
Mg5 O65 2.022901 1_555
Mg5 O64 2.096656 1_555
Mg5 O63 2.124084 1_555
Ge0 O7 1.856271 1_655
Ge0 O6 1.892095 1_545
Ge0 O42 1.902861 1_555
Ge0 O44 1.928143 1_545
Ge0 O8 2.076653 1_645
Ge0 O43 2.078322 1_655
Ge1 O10 1.856271 1_555
Ge1 O11 1.892095 1_545
Ge1 O47 1.902861 1_555
Ge1 O45 1.928143 1_445
Ge1 O9 2.076653 1_445
Ge1 O46 2.078322 1_455
Ge2 O19 1.856271 1_556
Ge2 O18 1.892095 1_556
Ge2 O54 1.902861 1_555
Ge2 O56 1.928143 1_555
Ge2 O20 2.076653 1_556
Ge2 O55 2.078322 1_555
Ge3 O22 1.856271 1_555
Ge3 O23 1.892095 1_555
Ge3 O59 1.902861 1_555
Ge3 O57 1.928143 1_555
Ge3 O21 2.076653 1_555
Ge3 O58 2.078322 1_555
Ge4 O31 1.856271 1_555
Ge4 O30 1.892095 1_555
Ge4 O66 1.902861 1_555
Ge4 O68 1.928143 1_555
Ge4 O32 2.076653 1_555
Ge4 O67 2.078322 1_555
Ge5 O34 1.856271 1_555
Ge5 O35 1.892095 1_555
Ge5 O71 1.902861 1_555
Ge5 O69 1.928143 1_555
Ge5 O33 2.076653 1_555
Ge5 O70 2.078322 1_555
O0 P0 1.491411 1_555
O1 S0 1.449154 1_555
O2 P1 1.502919 1_655
O3 P2 1.502919 1_555
O4 S1 1.449154 1_655
O5 P3 1.491411 1_555
O6 P3 1.621462 1_565
O7 P2 1.592800 1_555
O8 S1 1.515329 1_555
O9 S0 1.515329 1_555
O10 P1 1.592800 1_555
O11 P0 1.621462 1_565
O12 P4 1.491411 1_555
O13 S2 1.449154 1_555
O14 P5 1.502919 1_555
O15 P6 1.502919 1_555
O16 S3 1.449154 1_555
O17 P7 1.491411 1_555
O18 P7 1.621462 1_555
O19 P6 1.592800 1_555
O20 S3 1.515329 1_555
O21 S2 1.515329 1_555
O22 P5 1.592800 1_555
O23 P4 1.621462 1_555
O24 P8 1.491411 1_555
O25 S4 1.449154 1_555
O26 P9 1.502919 1_555
O27 P10 1.502919 1_555
O28 S5 1.449154 1_555
O29 P11 1.491411 1_555
O30 P11 1.621462 1_555
O31 P10 1.592800 1_555
O32 S5 1.515329 1_555
O33 S4 1.515329 1_555
O34 P9 1.592800 1_555
O35 P8 1.621462 1_555
O36 P11 1.501968 1_555
O37 P10 1.527687 1_545
O38 S5 1.473790 1_555
O39 S4 1.473794 1_555
O40 P9 1.527679 1_545
O41 P8 1.501973 1_555
O42 P4 1.604070 1_555
O43 S2 1.497232 1_555
O44 P5 1.601284 1_555
O45 P6 1.601288 1_555
O46 S3 1.497223 1_555
O47 P7 1.604075 1_555
O48 P3 1.501968 1_555
O49 P2 1.527687 1_555
O50 S1 1.473790 1_655
O51 S0 1.473794 1_555
O52 P1 1.527679 1_655
O53 P0 1.501973 1_555
O54 P8 1.604082 1_555
O55 S4 1.497218 1_655
O56 P9 1.601283 1_545
O57 P10 1.601275 1_545
O58 S5 1.497235 1_555
O59 P11 1.604073 1_655
O60 P7 1.501979 1_555
O61 P6 1.527673 1_455
O62 S3 1.473787 1_565
O63 S2 1.473780 1_565
O64 P5 1.527690 1_555
O65 P4 1.501968 1_455
O66 P0 1.604070 1_565
O67 S0 1.497232 1_555
O68 P1 1.601284 1_555
O69 P2 1.601288 1_555
O70 S1 1.497223 1_555
O71 P3 1.604075 1_565
