# generated using pymatgen
data_MgCu6PbO8
_symmetry_space_group_name_H-M   'P 1'
_cell_length_a   6.62474075
_cell_length_b   6.62474044
_cell_length_c   6.62474200
_cell_angle_alpha   60.00000221
_cell_angle_beta   60.00000375
_cell_angle_gamma   60.00000096
_symmetry_Int_Tables_number   1
_chemical_formula_structural   MgCu6PbO8
_chemical_formula_sum   'Mg1 Cu6 Pb1 O8'
_cell_volume   205.58515374
_cell_formula_units_Z   1
loop_
 _symmetry_equiv_pos_site_id
 _symmetry_equiv_pos_as_xyz
  1  'x, y, z'
loop_
 _atom_site_type_symbol
 _atom_site_label
 _atom_site_symmetry_multiplicity
 _atom_site_fract_x
 _atom_site_fract_y
 _atom_site_fract_z
 _atom_site_occupancy
  Mg  Mg0  1  0.50000000  0.50000000  0.50000000  1
  Cu  Cu0  1  0.50000000  0.00000000  0.50000000  1
  Cu  Cu1  1  0.50000000  0.50000000  0.00000000  1
  Cu  Cu2  1  0.00000000  0.50000000  0.50000000  1
  Cu  Cu3  1  0.00000000  0.50000000  0.00000000  1
  Cu  Cu4  1  0.00000000  0.00000000  0.50000000  1
  Cu  Cu5  1  0.50000000  0.00000000  0.00000000  1
  Pb  Pb0  1  0.00000000  0.00000000  0.00000000  1
  O  O0  1  0.14417800  0.14417800  0.14417800  1
  O  O1  1  0.85582200  0.43253400  0.85582200  1
  O  O2  1  0.14417800  0.56746600  0.14417800  1
  O  O3  1  0.43253400  0.85582200  0.85582200  1
  O  O4  1  0.14417800  0.14417800  0.56746600  1
  O  O5  1  0.56746600  0.14417800  0.14417800  1
  O  O6  1  0.85582200  0.85582200  0.43253400  1
  O  O7  1  0.85582200  0.85582200  0.85582200  1
loop_
_geom_bond_atom_site_label_1
_geom_bond_atom_site_label_2
_geom_bond_distance
_geom_bond_site_symmetry_2
Cu0 O4 1.946905 1_555
Cu0 O6 1.946905 1_545
Cu0 O3 1.946905 1_545
Cu0 O5 1.946905 1_555
Cu0 Mg0 3.312370 1_555
Cu0 Mg0 3.312370 1_545
Cu1 O3 1.946905 1_554
Cu1 O5 1.946905 1_555
Cu1 O1 1.946905 1_554
Cu1 O2 1.946905 1_555
Cu1 Mg0 3.312371 1_554
Cu1 Mg0 3.312371 1_555
Cu2 O6 1.946905 1_455
Cu2 O4 1.946905 1_555
Cu2 O2 1.946905 1_555
Cu2 O1 1.946905 1_455
Cu2 Mg0 3.312370 1_555
Cu2 Mg0 3.312370 1_455
Cu3 O7 1.946905 1_454
Cu3 O0 1.946905 1_555
Cu3 O2 1.946905 1_555
Cu3 O1 1.946905 1_454
Cu3 Mg0 3.312371 1_455
Cu3 Mg0 3.312371 1_554
Cu4 O4 1.946905 1_555
Cu4 O6 1.946905 1_445
Cu4 O0 1.946905 1_555
Cu4 O7 1.946905 1_445
Cu4 Mg0 3.312370 1_455
Cu4 Mg0 3.312370 1_545
Cu5 O5 1.946905 1_555
Cu5 O3 1.946905 1_544
Cu5 O7 1.946905 1_544
Cu5 O0 1.946905 1_555
Cu5 Mg0 3.312371 1_545
Cu5 Mg0 3.312371 1_554
O0 Pb0 2.339610 1_555
O1 Pb0 2.339610 1_656
O2 Pb0 2.339610 1_565
O3 Pb0 2.339610 1_566
O4 Pb0 2.339611 1_556
O5 Pb0 2.339610 1_655
O6 Pb0 2.339611 1_665
O7 Pb0 2.339610 1_666
