# generated using pymatgen
data_RbH6C2S2NO4
_symmetry_space_group_name_H-M   'P 1'
_cell_length_a   8.73856100
_cell_length_b   7.97608400
_cell_length_c   12.54172080
_cell_angle_alpha   72.83504989
_cell_angle_beta   90.00000000
_cell_angle_gamma   90.00000000
_symmetry_Int_Tables_number   1
_chemical_formula_structural   RbH6C2S2NO4
_chemical_formula_sum   'Rb4 H24 C8 S8 N4 O16'
_cell_volume   835.21610711
_cell_formula_units_Z   4
loop_
 _symmetry_equiv_pos_site_id
 _symmetry_equiv_pos_as_xyz
  1  'x, y, z'
loop_
 _atom_site_type_symbol
 _atom_site_label
 _atom_site_symmetry_multiplicity
 _atom_site_fract_x
 _atom_site_fract_y
 _atom_site_fract_z
 _atom_site_occupancy
  Rb  Rb0  1  0.02927400  0.57449300  0.20893300  1
  Rb  Rb1  1  0.52927400  0.42550700  0.29106700  1
  Rb  Rb2  1  0.97072600  0.42550700  0.79106700  1
  Rb  Rb3  1  0.47072600  0.57449300  0.70893300  1
  H  H0  1  0.20598100  0.76786900  0.91090500  1
  H  H1  1  0.70598100  0.23213100  0.58909500  1
  H  H2  1  0.79401900  0.23213100  0.08909500  1
  H  H3  1  0.29401900  0.76786900  0.41090500  1
  H  H4  1  0.20666600  0.99212200  0.82522100  1
  H  H5  1  0.70666600  0.00787800  0.67477900  1
  H  H6  1  0.79333400  0.00787800  0.17477900  1
  H  H7  1  0.29333400  0.99212200  0.32522100  1
  H  H8  1  0.15139400  0.94080800  0.97039400  1
  H  H9  1  0.65139400  0.05919200  0.52960600  1
  H  H10  1  0.84860600  0.05919200  0.02960600  1
  H  H11  1  0.34860600  0.94080800  0.47039400  1
  H  H12  1  0.89814100  0.85174800  0.54659700  1
  H  H13  1  0.39814100  0.14825200  0.95340300  1
  H  H14  1  0.10185900  0.14825200  0.45340300  1
  H  H15  1  0.60185900  0.85174800  0.04659700  1
  H  H16  1  0.59535000  0.91114600  0.89603200  1
  H  H17  1  0.09535000  0.08885400  0.60396800  1
  H  H18  1  0.40465000  0.08885400  0.10396800  1
  H  H19  1  0.90465000  0.91114600  0.39603200  1
  H  H20  1  0.47668700  0.73538700  0.97925700  1
  H  H21  1  0.97668700  0.26461300  0.52074300  1
  H  H22  1  0.52331300  0.26461300  0.02074300  1
  H  H23  1  0.02331300  0.73538700  0.47925700  1
  C  C0  1  0.91325900  0.80359900  0.47397500  1
  C  C1  1  0.84901800  0.10373700  0.10433000  1
  C  C2  1  0.65098200  0.10373700  0.60433000  1
  C  C3  1  0.15098200  0.89626300  0.89567000  1
  C  C4  1  0.58674100  0.80359900  0.97397500  1
  C  C5  1  0.08674100  0.19640100  0.52602500  1
  C  C6  1  0.41325900  0.19640100  0.02602500  1
  C  C7  1  0.34901800  0.89626300  0.39567000  1
  S  S0  1  0.73204100  0.64489600  0.97811400  1
  S  S1  1  0.23204100  0.35510400  0.52188600  1
  S  S2  1  0.26795900  0.35510400  0.02188600  1
  S  S3  1  0.76795900  0.64489600  0.47811400  1
  S  S4  1  0.54128800  0.87758400  0.35549200  1
  S  S5  1  0.04128800  0.12241600  0.14450800  1
  S  S6  1  0.45871200  0.12241600  0.64450800  1
  S  S7  1  0.95871200  0.87758400  0.85549200  1
  N  N0  1  0.10487900  0.26230200  0.03231100  1
  N  N1  1  0.39512100  0.26230200  0.53231100  1
  N  N2  1  0.89512100  0.73769800  0.96768900  1
  N  N3  1  0.60487900  0.73769800  0.46768900  1
  O  O0  1  0.22809100  0.47913000  0.40926900  1
  O  O1  1  0.38596700  0.94986200  0.66467700  1
  O  O2  1  0.11403300  0.94986200  0.16467700  1
  O  O3  1  0.61403300  0.05013800  0.33532300  1
  O  O4  1  0.69837600  0.56821500  0.88771900  1
  O  O5  1  0.19837600  0.43178500  0.61228100  1
  O  O6  1  0.30162400  0.43178500  0.11228100  1
  O  O7  1  0.80162400  0.56821500  0.38771900  1
  O  O8  1  0.72809100  0.52087000  0.09073100  1
  O  O9  1  0.88596700  0.05013800  0.83532300  1
  O  O10  1  0.27190900  0.47913000  0.90926900  1
  O  O11  1  0.77190900  0.52087000  0.59073100  1
  O  O12  1  0.04043400  0.18906600  0.24164200  1
  O  O13  1  0.95956600  0.81093400  0.75835800  1
  O  O14  1  0.45956600  0.18906600  0.74164200  1
  O  O15  1  0.54043400  0.81093400  0.25835800  1
loop_
_geom_bond_atom_site_label_1
_geom_bond_atom_site_label_2
_geom_bond_distance
_geom_bond_site_symmetry_2
C0 H12 1.095886 1_555
C0 H19 1.096415 1_555
C0 H23 1.097276 1_655
C0 S3 1.782807 1_555
C1 H2 1.095784 1_555
C1 H10 1.095931 1_555
C1 H6 1.096943 1_555
C1 S5 1.772956 1_655
C2 H1 1.095784 1_555
C2 H9 1.095931 1_555
C2 H5 1.096943 1_555
C2 S6 1.772956 1_555
C3 H0 1.095784 1_555
C3 H8 1.095931 1_555
C3 H4 1.096943 1_555
C3 S7 1.772956 1_455
C4 H15 1.095886 1_556
C4 H16 1.096415 1_555
C4 H20 1.097276 1_555
C4 S0 1.782807 1_555
C5 H14 1.095886 1_555
C5 H17 1.096415 1_555
C5 H21 1.097276 1_455
C5 S1 1.782807 1_555
C6 H13 1.095886 1_554
C6 H18 1.096415 1_555
C6 H22 1.097276 1_555
C6 S2 1.782807 1_555
C7 H3 1.095784 1_555
C7 H11 1.095931 1_555
C7 H7 1.096943 1_555
C7 S4 1.772956 1_555
N0 S2 1.593339 1_555
N0 S5 1.614632 1_555
N0 Rb2 3.146179 1_454
N1 S1 1.593339 1_555
N1 S6 1.614632 1_555
N1 Rb1 3.146179 1_555
N2 S0 1.593339 1_555
N2 S7 1.614632 1_555
N2 Rb0 3.146179 1_656
N3 S3 1.593339 1_555
N3 S4 1.614632 1_555
N3 Rb3 3.146179 1_555
O0 S1 1.466285 1_555
O0 Rb0 2.963434 1_555
O0 Rb1 3.111556 1_555
O1 S6 1.468608 1_565
O1 Rb3 2.973161 1_555
O2 S5 1.468608 1_565
O2 Rb0 2.973161 1_555
O3 S4 1.468608 1_545
O3 Rb1 2.973161 1_555
O4 S0 1.468055 1_555
O4 Rb3 2.986891 1_555
O4 Rb2 3.040321 1_555
O5 S1 1.468055 1_555
O5 Rb2 2.986891 1_455
O5 Rb3 3.040321 1_555
O6 S2 1.468055 1_555
O6 Rb1 2.986891 1_555
O6 Rb0 3.040321 1_555
O7 S3 1.468055 1_555
O7 Rb0 2.986891 1_655
O7 Rb1 3.040321 1_555
O8 S0 1.466285 1_554
O8 Rb1 2.963434 1_555
O8 Rb0 3.111556 1_655
O9 S7 1.468608 1_545
O9 Rb2 2.973161 1_555
O10 S2 1.466285 1_556
O10 Rb3 2.963434 1_555
O10 Rb2 3.111556 1_455
O11 S3 1.466285 1_555
O11 Rb2 2.963434 1_555
O11 Rb3 3.111556 1_555
O12 S5 1.465944 1_555
O12 Rb0 2.980624 1_555
O13 S7 1.465944 1_555
O13 Rb2 2.980624 1_555
O14 S6 1.465944 1_555
O14 Rb3 2.980624 1_555
O15 S4 1.465944 1_555
O15 Rb1 2.980624 1_555
