# generated using pymatgen
data_Na5Al2Ga2P5SO24
_symmetry_space_group_name_H-M   'P 1'
_cell_length_a   8.57599244
_cell_length_b   8.59659271
_cell_length_c   21.74393410
_cell_angle_alpha   90.37919687
_cell_angle_beta   89.81952856
_cell_angle_gamma   119.91026565
_symmetry_Int_Tables_number   1
_chemical_formula_structural   Na5Al2Ga2P5SO24
_chemical_formula_sum   'Na15 Al6 Ga6 P15 S3 O72'
_cell_volume   1389.51092936
_cell_formula_units_Z   3
loop_
 _symmetry_equiv_pos_site_id
 _symmetry_equiv_pos_as_xyz
  1  'x, y, z'
loop_
 _atom_site_type_symbol
 _atom_site_label
 _atom_site_symmetry_multiplicity
 _atom_site_fract_x
 _atom_site_fract_y
 _atom_site_fract_z
 _atom_site_occupancy
  Na  Na0  1  0.63974599  0.00014382  0.25030265  1
  Na  Na1  1  0.99804145  0.36298134  0.74993386  1
  Na  Na2  1  0.36473671  0.99968735  0.75041856  1
  Na  Na3  1  0.02980001  0.69866750  0.58295110  1
  Na  Na4  1  0.66722835  0.96918833  0.58342853  1
  Na  Na5  1  0.30145546  0.96952011  0.08222889  1
  Na  Na6  1  0.03351412  0.33533239  0.08349213  1
  Na  Na7  1  0.97294334  0.66720748  0.91667048  1
  Na  Na8  1  0.70175262  0.66812645  0.41705162  1
  Na  Na9  1  0.00993504  0.01002144  0.49973791  1
  Na  Na10  1  0.99819247  0.00438908  0.99882669  1
  Na  Na11  1  0.65996879  0.32944017  0.83402557  1
  Na  Na12  1  0.67477933  0.33666912  0.33343232  1
  Na  Na13  1  0.33495795  0.65677541  0.16730760  1
  Na  Na14  1  0.33940700  0.65883263  0.66676106  1
  Al  Al0  1  0.00947330  0.01248983  0.85066075  1
  Al  Al1  1  0.00367470  0.00530839  0.64877910  1
  Al  Al2  1  0.66482569  0.33883826  0.68523506  1
  Al  Al3  1  0.66307883  0.32129169  0.98158946  1
  Al  Al4  1  0.33279325  0.66929624  0.51953931  1
  Al  Al5  1  0.33392271  0.66823393  0.81413159  1
  Ga  Ga0  1  0.99035032  0.99552682  0.35187826  1
  Ga  Ga1  1  0.98952035  0.99745322  0.14792823  1
  Ga  Ga2  1  0.67502949  0.34700501  0.18384969  1
  Ga  Ga3  1  0.67361262  0.32792047  0.48313771  1
  Ga  Ga4  1  0.33253346  0.66452155  0.01749212  1
  Ga  Ga5  1  0.32631233  0.65938216  0.31555398  1
  P  P0  1  0.70597272  0.70293249  0.25068575  1
  P  P1  1  0.00374452  0.29453929  0.25009414  1
  P  P2  1  0.29253175  0.29260747  0.74992194  1
  P  P3  1  0.99429184  0.71078863  0.75040161  1
  P  P4  1  0.71077331  0.99494335  0.75011664  1
  P  P5  1  0.96270404  0.33309997  0.58495012  1
  P  P6  1  0.37522211  0.04788163  0.58412151  1
  P  P7  1  0.66184596  0.62075557  0.58342916  1
  P  P8  1  0.95234962  0.62392142  0.08115453  1
  P  P9  1  0.66478129  0.04157702  0.08312296  1
  P  P10  1  0.38288917  0.33762917  0.08249073  1
  P  P11  1  0.04127867  0.37094404  0.91565630  1
  P  P12  1  0.33643595  0.96198858  0.91563963  1
  P  P13  1  0.61934305  0.95854303  0.41708027  1
  P  P14  1  0.04607380  0.66770960  0.41764356  1
  S  S0  1  0.28939825  0.00114751  0.25028905  1
  S  S1  1  0.62266172  0.66736150  0.91554879  1
  S  S2  1  0.33059486  0.37471873  0.41772932  1
  O  O0  1  0.20929334  0.03217782  0.30525133  1
  O  O1  1  0.81994022  0.78251318  0.30941385  1
  O  O2  1  0.96366345  0.17086675  0.30618367  1
  O  O3  1  0.20953686  0.16919376  0.80608791  1
  O  O4  1  0.96685249  0.79694690  0.80859046  1
  O  O5  1  0.83539045  0.03532909  0.80589815  1
  O  O6  1  0.79363364  0.96623658  0.69119685  1
  O  O7  1  0.16780055  0.20803047  0.69388523  1
  O  O8  1  0.03555726  0.83116361  0.69311169  1
  O  O9  1  0.78802548  0.82780230  0.19450342  1
  O  O10  1  0.03721623  0.21461231  0.19057249  1
  O  O11  1  0.18164925  0.96871702  0.19318318  1
  O  O12  1  0.87724387  0.37240494  0.64190642  1
  O  O13  1  0.49794939  0.12751930  0.64145527  1
  O  O14  1  0.63299904  0.50208190  0.63944085  1
  O  O15  1  0.88032835  0.50447164  0.13834454  1
  O  O16  1  0.62448288  0.11737912  0.14233484  1
  O  O17  1  0.49154357  0.36697062  0.14131060  1
  O  O18  1  0.46754693  0.29918490  0.02609011  1
  O  O19  1  0.83745864  0.53757753  0.02337406  1
  O  O20  1  0.70299482  0.16652150  0.02773666  1
  O  O21  1  0.45566806  0.16151228  0.52663233  1
  O  O22  1  0.70594698  0.54745068  0.52461728  1
  O  O23  1  0.84044124  0.28845024  0.52816265  1
  O  O24  1  0.54860408  0.70223452  0.97182768  1
  O  O25  1  0.15506934  0.45087826  0.97451524  1
  O  O26  1  0.29378287  0.84217647  0.97369831  1
  O  O27  1  0.53512031  0.83409953  0.47379679  1
  O  O28  1  0.30161724  0.46019194  0.47257516  1
  O  O29  1  0.16009119  0.69530758  0.47584753  1
  O  O30  1  0.12568718  0.63171353  0.35984677  1
  O  O31  1  0.51014949  0.87556400  0.35766973  1
  O  O32  1  0.36997410  0.48737022  0.36203167  1
  O  O33  1  0.12859683  0.49663650  0.85946987  1
  O  O34  1  0.36646339  0.87149298  0.85865167  1
  O  O35  1  0.50792043  0.63562510  0.86116141  1
  O  O36  1  0.02613396  0.83787742  0.41208418  1
  O  O37  1  0.80786829  0.97255223  0.41305224  1
  O  O38  1  0.16906664  0.19602183  0.41146477  1
  O  O39  1  0.02019459  0.18398071  0.90733763  1
  O  O40  1  0.16142019  0.97311317  0.90782068  1
  O  O41  1  0.80564825  0.82699875  0.90870557  1
  O  O42  1  0.97679999  0.16238755  0.59280263  1
  O  O43  1  0.18346403  0.01798023  0.59248457  1
  O  O44  1  0.83237442  0.81108882  0.59160471  1
  O  O45  1  0.97981002  0.81462035  0.08842239  1
  O  O46  1  0.83782444  0.02904757  0.08746529  1
  O  O47  1  0.19190561  0.16540989  0.08790996  1
  O  O48  1  0.68968433  0.16560285  0.74296956  1
  O  O49  1  0.47819402  0.30669720  0.74165115  1
  O  O50  1  0.83144765  0.51947698  0.74274892  1
  O  O51  1  0.68738432  0.51716417  0.24480006  1
  O  O52  1  0.82742221  0.30332543  0.24428320  1
  O  O53  1  0.47170429  0.16057712  0.24538831  1
  O  O54  1  0.64344264  0.50588057  0.92179135  1
  O  O55  1  0.85551793  0.36178284  0.92337620  1
  O  O56  1  0.50428551  0.14817268  0.92376567  1
  O  O57  1  0.63829970  0.14496548  0.42263235  1
  O  O58  1  0.49477463  0.35982391  0.42329227  1
  O  O59  1  0.85256163  0.50313604  0.42296248  1
  O  O60  1  0.35444412  0.50059647  0.07652388  1
  O  O61  1  0.14412949  0.64517432  0.07646905  1
  O  O62  1  0.49558160  0.85593503  0.07587276  1
  O  O63  1  0.35691697  0.85693815  0.57690996  1
  O  O64  1  0.49673088  0.64607448  0.57546817  1
  O  O65  1  0.14677720  0.50483512  0.57581769  1
  O  O66  1  0.31086523  0.83984400  0.25460100  1
  O  O67  1  0.52080061  0.69376675  0.25679535  1
  O  O68  1  0.17104457  0.48071101  0.25600174  1
  O  O69  1  0.30760119  0.47851148  0.75926076  1
  O  O70  1  0.16606791  0.69006175  0.75710102  1
  O  O71  1  0.51972722  0.83078946  0.75823259  1
loop_
_geom_bond_atom_site_label_1
_geom_bond_atom_site_label_2
_geom_bond_distance
_geom_bond_site_symmetry_2
Na0 O52 2.284790 1_555
Na0 O67 2.306949 1_545
Na0 O53 2.444482 1_555
Na0 O66 2.446772 1_545
Na0 O31 2.581120 1_545
Na0 O16 2.590192 1_555
Na0 O9 2.670118 1_545
Na0 O2 2.697947 1_555
Na1 O48 2.327966 1_555
Na1 O69 2.333799 1_655
Na1 O50 2.407608 1_555
Na1 O70 2.441659 1_655
Na1 O12 2.588213 1_555
Na1 O33 2.635162 1_655
Na1 O7 2.698236 1_655
Na1 O5 2.734345 1_555
Na2 O49 2.322311 1_565
Na2 O70 2.342997 1_555
Na2 O71 2.415193 1_555
Na2 O48 2.421321 1_565
Na2 O34 2.608463 1_555
Na2 O13 2.625203 1_565
Na2 O3 2.694602 1_565
Na2 O8 2.746020 1_555
Na3 O44 2.337416 1_455
Na3 O65 2.338738 1_555
Na3 O43 2.387727 1_565
Na3 O63 2.435556 1_555
Na3 O29 2.586083 1_555
Na3 O8 2.635511 1_555
Na3 O22 2.722535 1_455
Na3 O12 2.756647 1_455
Na4 O42 2.334505 1_565
Na4 O63 2.339428 1_555
Na4 O44 2.410219 1_555
Na4 O64 2.414170 1_555
Na4 O6 2.590583 1_555
Na4 O27 2.642551 1_555
Na4 O23 2.673918 1_565
Na4 O13 2.736502 1_565
Na5 O47 2.303919 1_565
Na5 O62 2.315631 1_555
Na5 O45 2.395225 1_455
Na5 O61 2.419749 1_555
Na5 O26 2.582002 1_554
Na5 O11 2.617977 1_555
Na5 O16 2.736296 1_565
Na5 O18 2.749462 1_565
Na6 O46 2.313426 1_455
Na6 O61 2.345735 1_555
Na6 O60 2.391049 1_555
Na6 O47 2.443300 1_555
Na6 O10 2.562130 1_555
Na6 O25 2.582873 1_554
Na6 O15 2.671096 1_455
Na6 O20 2.739777 1_455
Na7 O55 2.301401 1_555
Na7 O40 2.308871 1_655
Na7 O41 2.438350 1_555
Na7 O54 2.452063 1_555
Na7 O19 2.588619 1_556
Na7 O4 2.619757 1_555
Na7 O26 2.690776 1_655
Na7 O33 2.719643 1_655
Na8 O37 2.304762 1_555
Na8 O58 2.346290 1_555
Na8 O59 2.352417 1_555
Na8 O36 2.414899 1_655
Na8 O1 2.548258 1_555
Na8 O22 2.572511 1_555
Na8 O32 2.743946 1_555
Na8 O27 2.756691 1_555
Na9 O38 2.439502 1_555
Na9 O36 2.451098 1_545
Na9 O37 2.472942 1_445
Na9 O43 2.490360 1_555
Na9 O42 2.494759 1_455
Na9 O44 2.581193 1_445
Na10 O46 2.433054 1_556
Na10 O47 2.473748 1_656
Na10 O39 2.474745 1_655
Na10 O45 2.503036 1_546
Na10 O40 2.509673 1_645
Na10 O41 2.522239 1_545
Na11 O56 2.442822 1_555
Na11 O54 2.477294 1_555
Na11 O55 2.492528 1_555
Na11 O49 2.492663 1_555
Na11 O48 2.507306 1_555
Na11 O50 2.529665 1_555
Na12 O52 2.429874 1_555
Na12 O59 2.442981 1_555
Na12 O51 2.450393 1_555
Na12 O57 2.469813 1_555
Na12 O53 2.518546 1_555
Na12 O58 2.553967 1_555
Na13 O68 2.426095 1_555
Na13 O60 2.431826 1_555
Na13 O67 2.435852 1_555
Na13 O66 2.530711 1_555
Na13 O61 2.538616 1_555
Na13 O62 2.541127 1_555
Na14 O64 2.429136 1_555
Na14 O69 2.477670 1_555
Na14 O65 2.489359 1_555
Na14 O71 2.496644 1_555
Na14 O70 2.552097 1_555
Na14 O63 2.554805 1_555
Al0 O3 1.843801 1_555
Al0 O5 1.875833 1_455
Al0 O39 1.882039 1_555
Al0 O4 1.925620 1_445
Al0 O40 1.952710 1_545
Al0 O41 2.103365 1_445
Al1 O7 1.876156 1_555
Al1 O6 1.896964 1_445
Al1 O8 1.916803 1_545
Al1 O42 1.921433 1_455
Al1 O43 1.926120 1_555
Al1 O44 2.007298 1_445
Al2 O14 1.854069 1_555
Al2 O13 1.909810 1_555
Al2 O49 1.921978 1_555
Al2 O12 1.938559 1_555
Al2 O50 1.946756 1_555
Al2 O48 2.045065 1_555
Al3 O20 1.835296 1_556
Al3 O18 1.859766 1_556
Al3 O56 1.901326 1_555
Al3 O19 1.931887 1_556
Al3 O55 1.966422 1_555
Al3 O54 2.128904 1_555
Al4 O29 1.867660 1_555
Al4 O27 1.887693 1_555
Al4 O64 1.946613 1_555
Al4 O65 1.950008 1_555
Al4 O63 1.960401 1_555
Al4 O28 1.960543 1_555
Al5 O34 1.887107 1_555
Al5 O33 1.914790 1_555
Al5 O69 1.934758 1_555
Al5 O71 1.938774 1_555
Al5 O35 1.944624 1_555
Al5 O70 1.982149 1_555
Ga0 O1 1.912808 1_555
Ga0 O2 1.917527 1_565
Ga0 O37 1.984836 1_555
Ga0 O0 2.013702 1_665
Ga0 O36 2.021246 1_655
Ga0 O38 2.084929 1_665
Ga1 O9 1.906264 1_555
Ga1 O10 1.931348 1_665
Ga1 O46 1.965336 1_565
Ga1 O45 1.998670 1_555
Ga1 O11 2.040487 1_655
Ga1 O47 2.076479 1_665
Ga2 O15 1.881812 1_555
Ga2 O17 1.908344 1_555
Ga2 O51 1.930817 1_555
Ga2 O16 2.006227 1_555
Ga2 O52 2.020533 1_555
Ga2 O53 2.150864 1_555
Ga3 O23 1.902086 1_555
Ga3 O21 1.942833 1_555
Ga3 O57 1.948423 1_555
Ga3 O22 1.977140 1_555
Ga3 O59 2.011007 1_555
Ga3 O58 2.134855 1_555
Ga4 O25 1.939406 1_554
Ga4 O26 1.969021 1_554
Ga4 O24 1.979453 1_554
Ga4 O60 1.989540 1_555
Ga4 O62 1.990787 1_555
Ga4 O61 2.001151 1_555
Ga5 O30 1.878542 1_555
Ga5 O68 1.937493 1_555
Ga5 O31 1.960241 1_555
Ga5 O32 1.980529 1_555
Ga5 O67 2.000406 1_555
Ga5 O66 2.100978 1_555
O0 S0 1.464486 1_555
O1 P0 1.543841 1_555
O2 P1 1.544661 1_655
O3 P2 1.543464 1_555
O4 P3 1.537652 1_555
O5 P4 1.538310 1_545
O6 P4 1.540187 1_555
O7 P2 1.542197 1_555
O8 P3 1.548204 1_455
O9 P0 1.548697 1_555
O10 P1 1.553106 1_555
O11 S0 1.489685 1_565
O12 P5 1.555892 1_555
O13 P6 1.552094 1_555
O14 P7 1.532368 1_555
O15 P8 1.536835 1_555
O16 P9 1.553195 1_555
O17 P10 1.528570 1_555
O18 P10 1.539039 1_555
O19 P8 1.538292 1_555
O20 P9 1.541120 1_555
O21 P6 1.526897 1_555
O22 P7 1.549022 1_555
O23 P5 1.540109 1_555
O24 S1 1.473391 1_555
O25 P11 1.545940 1_555
O26 P12 1.557863 1_555
O27 P13 1.558296 1_555
O28 S2 1.480712 1_555
O29 P14 1.544853 1_555
O30 P14 1.530177 1_555
O31 P13 1.543959 1_555
O32 S2 1.485059 1_555
O33 P11 1.557449 1_555
O34 P12 1.546616 1_555
O35 S1 1.475326 1_555
O36 P14 1.560696 1_555
O37 P13 1.562451 1_555
O38 S2 1.474296 1_555
O39 P11 1.534662 1_555
O40 P12 1.560713 1_555
O41 S1 1.490505 1_555
O42 P5 1.542021 1_555
O43 P6 1.542963 1_555
O44 P7 1.568109 1_555
O45 P8 1.542635 1_555
O46 P9 1.543778 1_555
O47 P10 1.572004 1_555
O48 P4 1.573857 1_545
O49 P2 1.545440 1_555
O50 P3 1.545999 1_555
O51 P0 1.528284 1_555
O52 P1 1.556749 1_655
O53 S0 1.482586 1_555
O54 S1 1.492186 1_555
O55 P11 1.563860 1_655
O56 P12 1.537930 1_545
O57 P13 1.532010 1_545
O58 S2 1.481411 1_555
O59 P14 1.558372 1_655
O60 P10 1.543527 1_555
O61 P8 1.564711 1_455
O62 P9 1.538164 1_565
O63 P6 1.575880 1_565
O64 P7 1.546571 1_555
O65 P5 1.545536 1_455
O66 S0 1.490615 1_565
O67 P0 1.555549 1_555
O68 P1 1.531300 1_555
O69 P2 1.549802 1_555
O70 P3 1.576899 1_455
O71 P4 1.550032 1_555
