# generated using pymatgen
data_MgIn(FeO2)2
_symmetry_space_group_name_H-M   'P 1'
_cell_length_a   11.20678510
_cell_length_b   11.20678543
_cell_length_c   11.20678455
_cell_angle_alpha   16.46852097
_cell_angle_beta   16.46851876
_cell_angle_gamma   16.46851628
_symmetry_Int_Tables_number   1
_chemical_formula_structural   MgIn(FeO2)2
_chemical_formula_sum   'Mg1 In1 Fe2 O4'
_cell_volume   98.63338168
_cell_formula_units_Z   1
loop_
 _symmetry_equiv_pos_site_id
 _symmetry_equiv_pos_as_xyz
  1  'x, y, z'
loop_
 _atom_site_type_symbol
 _atom_site_label
 _atom_site_symmetry_multiplicity
 _atom_site_fract_x
 _atom_site_fract_y
 _atom_site_fract_z
 _atom_site_occupancy
  Mg  Mg0  1  0.50001560  0.50001560  0.50001560  1
  In  In0  1  -0.00000561  -0.00000561  -0.00000561  1
  Fe  Fe0  1  0.76251997  0.76252097  0.76252197  1
  Fe  Fe1  1  0.23745055  0.23744955  0.23745055  1
  O  O0  1  0.70193081  0.70193081  0.70192981  1
  O  O1  1  0.29806793  0.29806693  0.29806893  1
  O  O2  1  0.86823941  0.86824141  0.86823941  1
  O  O3  1  0.13177733  0.13178133  0.13177933  1
loop_
_geom_bond_atom_site_label_1
_geom_bond_atom_site_label_2
_geom_bond_distance
_geom_bond_site_symmetry_2
Mg0 O2 2.184786 1_545
Mg0 O2 2.184791 1_455
Mg0 O2 2.184792 1_554
Mg0 O3 2.184992 1_655
Mg0 O3 2.184997 1_556
Mg0 O3 2.185001 1_565
In0 O1 2.191284 1_554
In0 O1 2.191287 1_455
In0 O1 2.191289 1_545
In0 O0 2.191456 1_445
In0 O0 2.191458 1_544
In0 O0 2.191458 1_454
Fe0 O0 2.009024 1_555
Fe0 O3 2.203129 1_656
Fe0 O3 2.203136 1_566
Fe0 O3 2.203137 1_665
Fe1 O1 2.009927 1_555
Fe1 O2 2.202268 1_544
Fe1 O2 2.202268 1_445
Fe1 O2 2.202275 1_454
