# generated using pymatgen
data_Zn2(PS3)3
_symmetry_space_group_name_H-M   'P 1'
_cell_length_a   10.65869361
_cell_length_b   10.65869361
_cell_length_c   6.76210434
_cell_angle_alpha   85.31254952
_cell_angle_beta   85.31254952
_cell_angle_gamma   60.14478511
_symmetry_Int_Tables_number   1
_chemical_formula_structural   Zn2(PS3)3
_chemical_formula_sum   'Zn4 P6 S18'
_cell_volume   663.29569118
_cell_formula_units_Z   2
loop_
 _symmetry_equiv_pos_site_id
 _symmetry_equiv_pos_as_xyz
  1  'x, y, z'
loop_
 _atom_site_type_symbol
 _atom_site_label
 _atom_site_symmetry_multiplicity
 _atom_site_fract_x
 _atom_site_fract_y
 _atom_site_fract_z
 _atom_site_occupancy
  Zn  Zn0  1  0.95215917  0.29695346  0.33197828  1
  Zn  Zn1  1  0.70304654  0.04784083  0.66802172  1
  Zn  Zn2  1  0.04784083  0.70304654  0.66802172  1
  Zn  Zn3  1  0.29695346  0.95215917  0.33197828  1
  P  P0  1  0.27852377  0.27852377  0.38255394  1
  P  P1  1  0.72147623  0.72147623  0.61744606  1
  P  P2  1  0.02382727  0.02382727  0.64579597  1
  P  P3  1  0.97617273  0.97617273  0.35420403  1
  P  P4  1  0.37317355  0.37317355  0.70010131  1
  P  P5  1  0.62682645  0.62682645  0.29989869  1
  S  S0  1  0.25850935  0.25850935  0.69819034  1
  S  S1  1  0.07128431  0.07128431  0.16673390  1
  S  S2  1  0.60732147  0.60732147  0.61498256  1
  S  S3  1  0.39267853  0.39267853  0.38501744  1
  S  S4  1  0.23958012  0.91900215  0.66583244  1
  S  S5  1  0.92871569  0.92871569  0.83326610  1
  S  S6  1  0.76041988  0.08099785  0.33416756  1
  S  S7  1  0.91900215  0.23958012  0.66583244  1
  S  S8  1  0.40977965  0.09033473  0.25796164  1
  S  S9  1  0.90966527  0.59022035  0.74203836  1
  S  S10  1  0.59022035  0.90966527  0.74203836  1
  S  S11  1  0.09033473  0.40977965  0.25796164  1
  S  S12  1  0.56247087  0.26430828  0.82878476  1
  S  S13  1  0.73569172  0.43752913  0.17121524  1
  S  S14  1  0.43752913  0.73569172  0.17121524  1
  S  S15  1  0.26430828  0.56247087  0.82878476  1
  S  S16  1  0.08099785  0.76041988  0.33416756  1
  S  S17  1  0.74149065  0.74149065  0.30180966  1
loop_
_geom_bond_atom_site_label_1
_geom_bond_atom_site_label_2
_geom_bond_distance
_geom_bond_site_symmetry_2
P0 S8 1.995026 1_555
P0 S11 1.995026 1_555
P0 S3 2.107556 1_555
P0 S0 2.131434 1_555
P1 S10 1.995026 1_555
P1 S9 1.995026 1_555
P1 S2 2.107556 1_555
P1 S17 2.131434 1_555
P2 S4 2.005772 1_545
P2 S7 2.005772 1_455
P2 S5 2.065336 1_445
P2 P3 2.233415 1_445
P3 S6 2.005772 1_565
P3 S16 2.005772 1_655
P3 S1 2.065336 1_665
P4 S12 1.991371 1_555
P4 S15 1.991371 1_555
P4 S0 2.116575 1_555
P4 S3 2.127032 1_555
P5 S13 1.991371 1_555
P5 S14 1.991371 1_555
P5 S17 2.116575 1_555
P5 S2 2.127032 1_555
S1 Zn3 2.411035 1_545
S1 Zn0 2.411035 1_455
S4 Zn3 2.335500 1_555
S5 Zn2 2.411035 1_655
S5 Zn1 2.411035 1_565
S6 Zn1 2.335500 1_555
S7 Zn0 2.335500 1_555
S8 Zn3 2.326000 1_545
S9 Zn2 2.326000 1_655
S10 Zn1 2.326000 1_565
S11 Zn0 2.326000 1_455
S12 Zn1 2.334966 1_555
S13 Zn0 2.334966 1_555
S14 Zn3 2.334966 1_555
S15 Zn2 2.334966 1_555
S16 Zn2 2.335500 1_555
