# generated using pymatgen
data_WO3
_symmetry_space_group_name_H-M   'P 1'
_cell_length_a   7.69379305
_cell_length_b   7.68587757
_cell_length_c   7.75876421
_cell_angle_alpha   90.00000000
_cell_angle_beta   90.00000000
_cell_angle_gamma   90.00000000
_symmetry_Int_Tables_number   1
_chemical_formula_structural   WO3
_chemical_formula_sum   'W8 O24'
_cell_volume   458.80328245
_cell_formula_units_Z   8
loop_
 _symmetry_equiv_pos_site_id
 _symmetry_equiv_pos_as_xyz
  1  'x, y, z'
loop_
 _atom_site_type_symbol
 _atom_site_label
 _atom_site_symmetry_multiplicity
 _atom_site_fract_x
 _atom_site_fract_y
 _atom_site_fract_z
 _atom_site_occupancy
  W  W0  1  0.25935618  0.50663682  0.73554017  1
  W  W1  1  0.24064382  0.00663682  0.76445983  1
  W  W2  1  0.74064382  0.49336318  0.26445983  1
  W  W3  1  0.75935618  0.99336318  0.23554017  1
  W  W4  1  0.24064382  0.50663682  0.23554017  1
  W  W5  1  0.25935618  0.00663682  0.26445983  1
  W  W6  1  0.75935618  0.49336318  0.76445983  1
  W  W7  1  0.74064382  0.99336318  0.73554017  1
  O  O0  1  0.00200321  0.52160225  0.75801062  1
  O  O1  1  0.49799679  0.02160225  0.74198938  1
  O  O2  1  0.99799679  0.47839775  0.24198938  1
  O  O3  1  0.50200321  0.97839775  0.25801062  1
  O  O4  1  0.99799679  0.97839775  0.75801062  1
  O  O5  1  0.50200321  0.47839775  0.74198938  1
  O  O6  1  0.00200321  0.02160225  0.24198938  1
  O  O7  1  0.49799679  0.52160225  0.25801062  1
  O  O8  1  0.27190055  0.75187712  0.74892915  1
  O  O9  1  0.22809945  0.25187712  0.75107085  1
  O  O10  1  0.72809945  0.24812288  0.25107085  1
  O  O11  1  0.77190055  0.74812288  0.24892915  1
  O  O12  1  0.22809945  0.75187712  0.24892915  1
  O  O13  1  0.27190055  0.25187712  0.25107085  1
  O  O14  1  0.77190055  0.24812288  0.75107085  1
  O  O15  1  0.72809945  0.74812288  0.74892915  1
  O  O16  1  0.75734833  0.49899958  0.50309511  1
  O  O17  1  0.24265167  0.00100042  0.50309511  1
  O  O18  1  0.74265167  0.49899958  0.00309511  1
  O  O19  1  0.75734833  0.99899958  0.49690489  1
  O  O20  1  0.25734833  0.00100042  0.00309511  1
  O  O21  1  0.24265167  0.50100042  0.49690489  1
  O  O22  1  0.74265167  0.99899958  0.99690489  1
  O  O23  1  0.25734833  0.50100042  0.99690489  1
loop_
_geom_bond_atom_site_label_1
_geom_bond_atom_site_label_2
_geom_bond_distance
_geom_bond_site_symmetry_2
O0 W6 1.880116 1_455
O0 W0 1.991006 1_555
O1 W7 1.880116 1_545
O1 W1 1.991006 1_555
O2 W4 1.880116 1_655
O2 W2 1.991006 1_555
O3 W5 1.880116 1_565
O3 W3 1.991006 1_555
O4 W1 1.880116 1_665
O4 W7 1.991006 1_555
O5 W0 1.880116 1_555
O5 W6 1.991006 1_555
O6 W3 1.880116 1_445
O6 W5 1.991006 1_555
O7 W2 1.880116 1_555
O7 W4 1.991006 1_555
O8 W0 1.890213 1_555
O8 W1 1.976441 1_565
O9 W1 1.890213 1_555
O9 W0 1.976441 1_555
O10 W2 1.890213 1_555
O10 W3 1.976441 1_545
O11 W3 1.890213 1_555
O11 W2 1.976441 1_555
O12 W4 1.890213 1_555
O12 W5 1.976441 1_565
O13 W5 1.890213 1_555
O13 W4 1.976441 1_555
O14 W6 1.890213 1_555
O14 W7 1.976441 1_545
O15 W7 1.890213 1_555
O15 W6 1.976441 1_555
O16 W2 1.856476 1_555
O16 W6 2.028389 1_555
O17 W5 1.856476 1_555
O17 W1 2.028389 1_555
O18 W6 1.856476 1_554
O18 W2 2.028389 1_555
O19 W7 1.856476 1_555
O19 W3 2.028389 1_555
O20 W1 1.856476 1_554
O20 W5 2.028389 1_555
O21 W0 1.856476 1_555
O21 W4 2.028389 1_555
O22 W3 1.856476 1_556
O22 W7 2.028389 1_555
O23 W4 1.856476 1_556
O23 W0 2.028389 1_555
