# generated using pymatgen
data_MgNi2(BiO3)2
_symmetry_space_group_name_H-M   'P 1'
_cell_length_a   6.20678829
_cell_length_b   6.20260353
_cell_length_c   6.20203778
_cell_angle_alpha   55.67490697
_cell_angle_beta   55.66773113
_cell_angle_gamma   55.64158003
_symmetry_Int_Tables_number   1
_chemical_formula_structural   MgNi2(BiO3)2
_chemical_formula_sum   'Mg1 Ni2 Bi2 O6'
_cell_volume   151.83864519
_cell_formula_units_Z   1
loop_
 _symmetry_equiv_pos_site_id
 _symmetry_equiv_pos_as_xyz
  1  'x, y, z'
loop_
 _atom_site_type_symbol
 _atom_site_label
 _atom_site_symmetry_multiplicity
 _atom_site_fract_x
 _atom_site_fract_y
 _atom_site_fract_z
 _atom_site_occupancy
  Mg  Mg0  1  0.91444006  0.91472452  0.91293159  1
  Ni  Ni0  1  0.09571014  0.09596636  0.09555653  1
  Ni  Ni1  1  0.49500035  0.49482858  0.49367562  1
  Bi  Bi0  1  0.30087014  0.30113258  0.30003377  1
  Bi  Bi1  1  0.68579809  0.68621298  0.68573353  1
  O  O0  1  0.28430116  0.83521936  0.62762870  1
  O  O1  1  0.83544207  0.62864175  0.28291632  1
  O  O2  1  0.62899708  0.28403227  0.83380910  1
  O  O3  1  0.15945453  0.34560505  0.71676506  1
  O  O4  1  0.71749572  0.15922820  0.34518530  1
  O  O5  1  0.34573965  0.71765936  0.15859148  1
loop_
_geom_bond_atom_site_label_1
_geom_bond_atom_site_label_2
_geom_bond_distance
_geom_bond_site_symmetry_2
Mg0 O2 1.938815 1_565
Mg0 O0 1.941268 1_655
Mg0 O1 1.943058 1_556
Ni0 O5 1.899133 1_545
Ni0 O4 1.899345 1_455
Ni0 O3 1.901005 1_554
Ni1 O2 2.119505 1_555
Ni1 O0 2.119946 1_555
Ni1 O1 2.122024 1_555
Ni1 O4 2.137985 1_555
Ni1 O5 2.138821 1_555
Ni1 O3 2.142361 1_555
Bi0 O3 2.344869 1_555
Bi0 O5 2.345726 1_555
Bi0 O4 2.347300 1_555
Bi0 O1 2.441726 1_455
Bi0 O0 2.442948 1_545
Bi0 O2 2.445299 1_554
Bi1 O0 2.287319 1_555
Bi1 O2 2.287875 1_555
Bi1 O1 2.290410 1_555
Bi1 O5 2.508366 1_556
Bi1 O4 2.510352 1_565
Bi1 O3 2.512450 1_655
