# generated using pymatgen
data_MgSbS2NF6
_symmetry_space_group_name_H-M   'P 1'
_cell_length_a   6.60466851
_cell_length_b   5.95791215
_cell_length_c   5.95791190
_cell_angle_alpha   66.75067496
_cell_angle_beta   96.59725385
_cell_angle_gamma   96.59725716
_symmetry_Int_Tables_number   1
_chemical_formula_structural   MgSbS2NF6
_chemical_formula_sum   'Mg1 Sb1 S2 N1 F6'
_cell_volume   213.35789238
_cell_formula_units_Z   1
loop_
 _symmetry_equiv_pos_site_id
 _symmetry_equiv_pos_as_xyz
  1  'x, y, z'
loop_
 _atom_site_type_symbol
 _atom_site_label
 _atom_site_symmetry_multiplicity
 _atom_site_fract_x
 _atom_site_fract_y
 _atom_site_fract_z
 _atom_site_occupancy
  Mg  Mg0  1  -0.00000000  0.50000000  0.50000000  1
  Sb  Sb0  1  -0.00000000  -0.00000000  0.00000000  1
  S  S0  1  0.51039965  0.65246496  0.65246496  1
  S  S1  1  0.48960035  0.34753504  0.34753504  1
  N  N0  1  0.50000000  0.50000000  0.50000000  1
  F  F0  1  0.29066603  0.12743195  0.12743195  1
  F  F1  1  0.70933397  0.87256805  0.87256805  1
  F  F2  1  0.89705062  0.38274533  0.82028086  1
  F  F3  1  0.10294938  0.17971914  0.61725467  1
  F  F4  1  0.10294938  0.61725467  0.17971914  1
  F  F5  1  0.89705062  0.82028086  0.38274533  1
loop_
_geom_bond_atom_site_label_1
_geom_bond_atom_site_label_2
_geom_bond_distance
_geom_bond_site_symmetry_2
N0 S0 1.509221 1_555
N0 S1 1.509221 1_555
F0 Sb0 2.150246 1_555
F1 Sb0 2.150246 1_666
F2 Mg0 1.930852 1_655
F2 Sb0 2.251719 1_656
F3 Mg0 1.930852 1_555
F3 Sb0 2.251719 1_556
F4 Mg0 1.930852 1_555
F4 Sb0 2.251719 1_565
F5 Mg0 1.930852 1_655
F5 Sb0 2.251719 1_665
