# generated using pymatgen
data_Rb4MgV2(AgS4)2
_symmetry_space_group_name_H-M   'P 1'
_cell_length_a   5.76176616
_cell_length_b   7.74953201
_cell_length_c   13.20011304
_cell_angle_alpha   98.21605855
_cell_angle_beta   77.51474422
_cell_angle_gamma   65.01250715
_symmetry_Int_Tables_number   1
_chemical_formula_structural   Rb4MgV2(AgS4)2
_chemical_formula_sum   'Rb4 Mg1 V2 Ag2 S8'
_cell_volume   502.99537368
_cell_formula_units_Z   1
loop_
 _symmetry_equiv_pos_site_id
 _symmetry_equiv_pos_as_xyz
  1  'x, y, z'
loop_
 _atom_site_type_symbol
 _atom_site_label
 _atom_site_symmetry_multiplicity
 _atom_site_fract_x
 _atom_site_fract_y
 _atom_site_fract_z
 _atom_site_occupancy
  Rb  Rb0  1  0.51008195  0.60843896  0.15006562  1
  Rb  Rb1  1  0.23520367  0.30663721  0.58748784  1
  Rb  Rb2  1  0.76479633  0.69336279  0.41251216  1
  Rb  Rb3  1  0.48991805  0.39156104  0.84993438  1
  Mg  Mg0  1  0.50000000  -0.00000000  -0.00000000  1
  V  V0  1  0.59492429  0.82853004  0.74442768  1
  V  V1  1  0.40507571  0.17146996  0.25557232  1
  Ag  Ag0  1  0.06772244  0.85346339  0.77234689  1
  Ag  Ag1  1  0.93227756  0.14653661  0.22765311  1
  S  S0  1  0.81146062  0.68407306  0.86186792  1
  S  S1  1  0.21488449  0.07552817  0.87130734  1
  S  S2  1  0.54828441  0.59794764  0.64692093  1
  S  S3  1  0.78224188  0.96917741  0.64613630  1
  S  S4  1  0.45171559  0.40205236  0.35307907  1
  S  S5  1  0.21775812  0.03082259  0.35386370  1
  S  S6  1  0.78511551  0.92447183  0.12869266  1
  S  S7  1  0.18853938  0.31592694  0.13813208  1
loop_
_geom_bond_atom_site_label_1
_geom_bond_atom_site_label_2
_geom_bond_distance
_geom_bond_site_symmetry_2
Rb0 S4 3.338004 1_555
Rb0 S5 3.413871 1_565
Rb0 S6 3.445573 1_555
Rb0 S7 3.488241 1_555
Rb0 S7 3.548212 1_655
Rb1 S4 3.382519 1_555
Rb1 S2 3.461102 1_455
Rb1 S3 3.470271 1_545
Rb1 S2 3.537244 1_555
Rb1 S5 3.538438 1_555
Rb1 S0 3.840521 1_455
Rb2 S2 3.382519 1_555
Rb2 S4 3.461102 1_655
Rb2 S5 3.470271 1_565
Rb2 S4 3.537244 1_555
Rb2 S3 3.538438 1_555
Rb2 S7 3.840521 1_655
Rb3 S2 3.338004 1_555
Rb3 S3 3.413871 1_545
Rb3 S1 3.445573 1_555
Rb3 S0 3.488241 1_555
Rb3 S0 3.548212 1_455
Mg0 S0 2.477219 1_544
Mg0 S7 2.477219 1_555
Mg0 S6 2.570120 1_545
Mg0 S1 2.570120 1_554
Ag0 S1 2.540868 1_565
Ag0 S0 2.574122 1_455
Ag0 S3 2.578948 1_455
Ag0 S2 2.603380 1_555
Ag1 S6 2.540868 1_545
Ag1 S7 2.574122 1_655
Ag1 S5 2.578948 1_655
Ag1 S4 2.603380 1_555
S0 V0 2.316310 1_555
S1 V0 2.284888 1_545
S2 V0 2.195395 1_555
S3 V0 2.197452 1_555
S4 V1 2.195395 1_555
S5 V1 2.197452 1_555
S6 V1 2.284888 1_565
S7 V1 2.316310 1_555
