# generated using pymatgen
data_MgCo6O7F5
_symmetry_space_group_name_H-M   'P 1'
_cell_length_a   5.07690057
_cell_length_b   7.62953765
_cell_length_c   5.79532236
_cell_angle_alpha   100.76985400
_cell_angle_beta   101.06382677
_cell_angle_gamma   79.91559115
_symmetry_Int_Tables_number   1
_chemical_formula_structural   MgCo6O7F5
_chemical_formula_sum   'Mg1 Co6 O7 F5'
_cell_volume   214.15676994
_cell_formula_units_Z   1
loop_
 _symmetry_equiv_pos_site_id
 _symmetry_equiv_pos_as_xyz
  1  'x, y, z'
loop_
 _atom_site_type_symbol
 _atom_site_label
 _atom_site_symmetry_multiplicity
 _atom_site_fract_x
 _atom_site_fract_y
 _atom_site_fract_z
 _atom_site_occupancy
  Mg  Mg0  1  0.48537050  0.67572623  0.66587578  1
  Co  Co0  1  0.58019604  0.02952041  0.43199704  1
  Co  Co1  1  0.48355871  0.31181848  0.85738224  1
  Co  Co2  1  0.49292249  0.66285927  0.16601895  1
  Co  Co3  1  0.98995777  0.65614376  0.66371825  1
  Co  Co4  1  0.99741453  0.31570711  0.33328990  1
  Co  Co5  1  0.99223321  0.99361782  0.00207491  1
  O  O0  1  0.82231969  0.09564442  0.27352205  1
  O  O1  1  0.67620655  0.76884995  0.45671697  1
  O  O2  1  0.70859368  0.09693521  0.78580592  1
  O  O3  1  0.69979347  0.42880387  0.14085819  1
  O  O4  1  0.31654053  0.55559446  0.87113426  1
  O  O5  1  0.30591403  0.23429203  0.54239208  1
  O  O6  1  0.30557422  0.90030103  0.19252744  1
  F  F0  1  0.78066333  0.44499827  0.61760362  1
  F  F1  1  0.77074580  0.75785511  0.93816730  1
  F  F2  1  0.19434672  0.22922166  0.05124151  1
  F  F3  1  0.18074394  0.87899729  0.72524741  1
  F  F4  1  0.21689880  0.57025963  0.39156917  1
loop_
_geom_bond_atom_site_label_1
_geom_bond_atom_site_label_2
_geom_bond_distance
_geom_bond_site_symmetry_2
Mg0 O1 1.981522 1_555
Mg0 O4 2.015850 1_555
Co0 O0 1.852743 1_555
Co0 O1 1.988371 1_545
Co0 O5 1.998927 1_555
Co0 O6 2.017233 1_545
Co0 O2 2.025843 1_555
Co1 O2 1.853901 1_555
Co1 O4 1.898109 1_555
Co1 O5 1.909711 1_555
Co1 O3 1.950296 1_556
Co1 F2 2.244322 1_556
Co2 O1 1.873678 1_555
Co2 O4 1.881155 1_554
Co2 O6 1.886459 1_555
Co2 O3 1.902060 1_555
Co2 F4 2.359318 1_555
Co2 F1 2.385146 1_554
Co3 O1 1.971873 1_555
Co3 O4 1.979076 1_655
Co3 F0 2.031050 1_555
Co3 F3 2.042999 1_655
Co3 F1 2.070312 1_555
Co3 F4 2.071516 1_655
Co4 O5 1.876047 1_655
Co4 O3 1.878202 1_555
Co4 O0 1.978965 1_555
Co4 F2 2.024823 1_655
Co4 F0 2.146437 1_555
Co4 F4 2.344319 1_655
Co5 O6 1.865189 1_655
Co5 O2 1.882787 1_564
Co5 O0 1.911235 1_565
Co5 F3 2.006579 1_654
Co5 F2 2.169694 1_665
Co5 F1 2.221857 1_554
F0 Mg0 2.115970 1_555
F1 Mg0 2.013147 1_555
F3 Mg0 2.019968 1_555
F4 Mg0 2.026524 1_555
