# generated using pymatgen
data_MgMn4O8
_symmetry_space_group_name_H-M   'P 1'
_cell_length_a   3.07543125
_cell_length_b   6.89949233
_cell_length_c   6.90998500
_cell_angle_alpha   87.14261696
_cell_angle_beta   77.11547304
_cell_angle_gamma   77.17140299
_symmetry_Int_Tables_number   1
_chemical_formula_structural   MgMn4O8
_chemical_formula_sum   'Mg1 Mn4 O8'
_cell_volume   139.36289044
_cell_formula_units_Z   1
loop_
 _symmetry_equiv_pos_site_id
 _symmetry_equiv_pos_as_xyz
  1  'x, y, z'
loop_
 _atom_site_type_symbol
 _atom_site_label
 _atom_site_symmetry_multiplicity
 _atom_site_fract_x
 _atom_site_fract_y
 _atom_site_fract_z
 _atom_site_occupancy
  Mg  Mg0  1  0.49999600  0.99999200  0.00001900  1
  Mn  Mn0  1  0.64737000  0.18204800  0.52255100  1
  Mn  Mn1  1  0.16990300  0.47752600  0.18193900  1
  Mn  Mn2  1  0.83009700  0.52247800  0.81806500  1
  Mn  Mn3  1  0.35262700  0.81794900  0.47744900  1
  O  O0  1  0.83575600  0.71329900  0.61609900  1
  O  O1  1  0.45147400  0.38404700  0.71311700  1
  O  O2  1  0.54853100  0.61595000  0.28688100  1
  O  O3  1  0.16423500  0.28670900  0.38390000  1
  O  O4  1  0.14213200  0.03886100  0.67757700  1
  O  O5  1  0.81918800  0.32182700  0.03858500  1
  O  O6  1  0.85788000  0.96114000  0.32240100  1
  O  O7  1  0.18081400  0.67817300  0.96141900  1
loop_
_geom_bond_atom_site_label_1
_geom_bond_atom_site_label_2
_geom_bond_distance
_geom_bond_site_symmetry_2
Mg0 O7 2.666186 1_554
Mg0 O5 2.666252 1_565
Mg0 O7 2.670350 1_654
Mg0 O5 2.670413 1_465
Mg0 O6 2.673520 1_455
Mg0 O6 2.673694 1_555
Mg0 O4 2.673857 1_664
Mg0 O4 2.674036 1_564
Mn0 O1 1.869659 1_555
Mn0 O3 1.930720 1_655
Mn0 O3 1.933010 1_555
Mn0 O6 2.006893 1_545
Mn0 O4 2.090865 1_555
Mn0 O4 2.095872 1_655
Mn1 O3 1.870107 1_555
Mn1 O2 1.931427 1_455
Mn1 O2 1.932196 1_555
Mn1 O7 2.006746 1_554
Mn1 O5 2.096177 1_555
Mn1 O5 2.096601 1_455
Mn2 O0 1.870150 1_555
Mn2 O1 1.931461 1_655
Mn2 O1 1.932237 1_555
Mn2 O5 2.006764 1_556
Mn2 O7 2.096163 1_555
Mn2 O7 2.096588 1_655
Mn3 O2 1.869668 1_555
Mn3 O0 1.930693 1_455
Mn3 O0 1.932977 1_555
Mn3 O4 2.006813 1_565
Mn3 O6 2.090965 1_555
Mn3 O6 2.095945 1_455
