# generated using pymatgen
data_MgCo4OF11
_symmetry_space_group_name_H-M   'P 1'
_cell_length_a   7.72435408
_cell_length_b   5.08126864
_cell_length_c   5.52146785
_cell_angle_alpha   90.73974532
_cell_angle_beta   95.60415584
_cell_angle_gamma   89.64065469
_symmetry_Int_Tables_number   1
_chemical_formula_structural   MgCo4OF11
_chemical_formula_sum   'Mg1 Co4 O1 F11'
_cell_volume   215.65841436
_cell_formula_units_Z   1
loop_
 _symmetry_equiv_pos_site_id
 _symmetry_equiv_pos_as_xyz
  1  'x, y, z'
loop_
 _atom_site_type_symbol
 _atom_site_label
 _atom_site_symmetry_multiplicity
 _atom_site_fract_x
 _atom_site_fract_y
 _atom_site_fract_z
 _atom_site_occupancy
  Mg  Mg0  1  0.20154700  0.99649200  0.61165000  1
  Co  Co0  1  0.95375300  0.47528300  0.49015300  1
  Co  Co1  1  0.98440200  0.98853000  0.01561500  1
  Co  Co2  1  0.50921200  0.50994300  0.50035500  1
  Co  Co3  1  0.51024200  0.00743900  0.01348600  1
  O  O0  1  0.73629700  0.38478000  0.50527600  1
  F  F0  1  0.26949000  0.90268300  0.97015000  1
  F  F1  1  0.07772500  0.17424600  0.32466200  1
  F  F2  1  0.26580300  0.64924000  0.49547400  1
  F  F3  1  0.06647700  0.28075900  0.78248500  1
  F  F4  1  0.55721400  0.82413800  0.31495400  1
  F  F5  1  0.43811300  0.31711700  0.19953400  1
  F  F6  1  0.55835500  0.69308200  0.81057900  1
  F  F7  1  0.42547300  0.19174200  0.68373700  1
  F  F8  1  0.94873600  0.66151200  0.18465900  1
  F  F9  1  0.97496700  0.81210300  0.67410000  1
  F  F10  1  0.73515400  0.11841100  0.99813100  1
loop_
_geom_bond_atom_site_label_1
_geom_bond_atom_site_label_2
_geom_bond_distance
_geom_bond_site_symmetry_2
Co0 O0 1.754407 1_555
Co0 F8 1.941686 1_555
Co0 F9 1.978302 1_555
Co0 F3 2.023950 1_655
Co0 F1 2.051393 1_655
Co1 F8 1.950443 1_555
Co1 F1 2.012124 1_665
Co1 F10 2.025087 1_564
Co1 F9 2.072446 1_554
Co1 F3 2.117621 1_664
Co1 F0 2.279413 1_654
Co2 O0 1.859886 1_555
Co2 F6 1.944312 1_555
Co2 F5 1.951159 1_555
Co2 F4 1.964183 1_555
Co2 F2 2.002669 1_555
Co2 F7 2.059413 1_555
Co3 F10 1.840013 1_554
Co3 F4 1.920339 1_545
Co3 F0 1.929021 1_544
Co3 F5 1.975045 1_555
Co3 F6 1.993095 1_544
Co3 F7 2.103378 1_554
F0 Mg0 2.058927 1_555
F1 Mg0 1.992897 1_545
F2 Mg0 1.947611 1_555
F3 Mg0 2.050073 1_545
F7 Mg0 2.002846 1_545
F9 Mg0 2.051014 1_655
