# generated using pymatgen
data_CaMgNiH4
_symmetry_space_group_name_H-M   'P 1'
_cell_length_a   6.72144100
_cell_length_b   6.72144100
_cell_length_c   6.72144100
_cell_angle_alpha   90.00000000
_cell_angle_beta   90.00000000
_cell_angle_gamma   90.00000000
_symmetry_Int_Tables_number   1
_chemical_formula_structural   CaMgNiH4
_chemical_formula_sum   'Ca4 Mg4 Ni4 H16'
_cell_volume   303.65970963
_cell_formula_units_Z   4
loop_
 _symmetry_equiv_pos_site_id
 _symmetry_equiv_pos_as_xyz
  1  'x, y, z'
loop_
 _atom_site_type_symbol
 _atom_site_label
 _atom_site_symmetry_multiplicity
 _atom_site_fract_x
 _atom_site_fract_y
 _atom_site_fract_z
 _atom_site_occupancy
  Ca  Ca0  1  0.67347000  0.82653000  0.17347000  1
  Ca  Ca1  1  0.82653000  0.17347000  0.67347000  1
  Ca  Ca2  1  0.17347000  0.67347000  0.82653000  1
  Ca  Ca3  1  0.32653000  0.32653000  0.32653000  1
  Mg  Mg0  1  0.33797500  0.16202500  0.83797500  1
  Mg  Mg1  1  0.16202500  0.83797500  0.33797500  1
  Mg  Mg2  1  0.83797500  0.33797500  0.16202500  1
  Mg  Mg3  1  0.66202500  0.66202500  0.66202500  1
  Ni  Ni0  1  0.95280900  0.54719100  0.45280900  1
  Ni  Ni1  1  0.54719100  0.45280900  0.95280900  1
  Ni  Ni2  1  0.45280900  0.95280900  0.54719100  1
  Ni  Ni3  1  0.04719100  0.04719100  0.04719100  1
  H  H0  1  0.44986800  0.43603200  0.73792100  1
  H  H1  1  0.94986800  0.06396800  0.26207900  1
  H  H2  1  0.55013200  0.93603200  0.76207900  1
  H  H3  1  0.06396800  0.26207900  0.94986800  1
  H  H4  1  0.76207900  0.55013200  0.93603200  1
  H  H5  1  0.26207900  0.94986800  0.06396800  1
  H  H6  1  0.43603200  0.73792100  0.44986800  1
  H  H7  1  0.73792100  0.44986800  0.43603200  1
  H  H8  1  0.93603200  0.76207900  0.55013200  1
  H  H9  1  0.56396800  0.23792100  0.05013200  1
  H  H10  1  0.23792100  0.05013200  0.56396800  1
  H  H11  1  0.05013200  0.56396800  0.23792100  1
  H  H12  1  0.91030400  0.91030400  0.91030400  1
  H  H13  1  0.58969600  0.08969600  0.41030400  1
  H  H14  1  0.41030400  0.58969600  0.08969600  1
  H  H15  1  0.08969600  0.41030400  0.58969600  1
loop_
_geom_bond_atom_site_label_1
_geom_bond_atom_site_label_2
_geom_bond_distance
_geom_bond_site_symmetry_2
Ca0 H13 2.445393 1_565
Ca0 H14 2.445393 1_555
Ca0 H12 2.445393 1_554
Ca0 H4 2.520533 1_554
Ca0 H6 2.520533 1_555
Ca0 H1 2.520533 1_565
Ca1 H13 2.445393 1_555
Ca1 H12 2.445393 1_545
Ca1 H15 2.445393 1_655
Ca1 H3 2.520533 1_655
Ca1 H7 2.520533 1_555
Ca1 H2 2.520533 1_545
Ca2 H14 2.445393 1_556
Ca2 H12 2.445393 1_455
Ca2 H15 2.445393 1_555
Ca2 H8 2.520533 1_455
Ca2 H0 2.520533 1_555
Ca2 H5 2.520533 1_556
Ca3 H13 2.445393 1_555
Ca3 H14 2.445393 1_555
Ca3 H15 2.445393 1_555
Ca3 H11 2.520533 1_555
Ca3 H9 2.520533 1_555
Ca3 H10 2.520533 1_555
H0 Ni1 1.589590 1_555
H0 Mg0 2.099960 1_555
H0 Mg3 2.145010 1_555
H1 Ni3 1.589590 1_655
H1 Mg2 2.099960 1_555
H1 Mg1 2.145010 1_645
H2 Ni2 1.589590 1_555
H2 Mg3 2.099960 1_555
H2 Mg0 2.145010 1_565
H3 Ni3 1.589590 1_556
H3 Mg0 2.099960 1_555
H3 Mg2 2.145010 1_456
H4 Ni1 1.589590 1_555
H4 Mg3 2.099960 1_555
H4 Mg2 2.145010 1_556
H5 Ni3 1.589590 1_565
H5 Mg1 2.099960 1_555
H5 Mg0 2.145010 1_564
H6 Ni2 1.589590 1_555
H6 Mg1 2.099960 1_555
H6 Mg3 2.145010 1_555
H7 Ni0 1.589590 1_555
H7 Mg2 2.099960 1_555
H7 Mg3 2.145010 1_555
H8 Ni0 1.589590 1_555
H8 Mg3 2.099960 1_555
H8 Mg1 2.145010 1_655
H9 Ni1 1.589590 1_554
H9 Mg2 2.099960 1_555
H9 Mg0 2.145010 1_554
H10 Ni2 1.589590 1_545
H10 Mg0 2.099960 1_555
H10 Mg1 2.145010 1_545
H11 Ni0 1.589590 1_455
H11 Mg1 2.099960 1_555
H11 Mg2 2.145010 1_455
H12 Ni3 1.593622 1_666
H13 Ni2 1.593622 1_545
H14 Ni1 1.593622 1_554
H15 Ni0 1.593622 1_455
