# generated using pymatgen
data_Na3Zr2Zn2P3(SO8)3
_symmetry_space_group_name_H-M   'P 1'
_cell_length_a   8.89318934
_cell_length_b   8.87984414
_cell_length_c   22.98883945
_cell_angle_alpha   90.10549782
_cell_angle_beta   89.83381039
_cell_angle_gamma   119.89310798
_symmetry_Int_Tables_number   1
_chemical_formula_structural   Na3Zr2Zn2P3(SO8)3
_chemical_formula_sum   'Na9 Zr6 Zn6 P9 S9 O72'
_cell_volume   1573.89395209
_cell_formula_units_Z   3
loop_
 _symmetry_equiv_pos_site_id
 _symmetry_equiv_pos_as_xyz
  1  'x, y, z'
loop_
 _atom_site_type_symbol
 _atom_site_label
 _atom_site_symmetry_multiplicity
 _atom_site_fract_x
 _atom_site_fract_y
 _atom_site_fract_z
 _atom_site_occupancy
  Na  Na0  1  0.66232087  0.69027761  0.08136359  1
  Na  Na1  1  0.33271687  0.29808086  0.91737109  1
  Na  Na2  1  0.33239232  0.03421209  0.41741123  1
  Na  Na3  1  0.99553256  0.00010001  0.49799838  1
  Na  Na4  1  0.00272620  0.99799284  0.99761415  1
  Na  Na5  1  0.67572129  0.33437505  0.83439560  1
  Na  Na6  1  0.67498822  0.34021168  0.33400961  1
  Na  Na7  1  0.32098509  0.66108369  0.16325507  1
  Na  Na8  1  0.33419931  0.67172756  0.66264948  1
  Zr  Zr0  1  0.00629125  -0.00003643  0.64833546  1
  Zr  Zr1  1  0.01239387  0.00527540  0.14898158  1
  Zr  Zr2  1  0.66017279  0.32468442  0.68706826  1
  Zr  Zr3  1  0.66993635  0.34096596  0.18691130  1
  Zr  Zr4  1  0.33244036  0.66326106  0.31181882  1
  Zr  Zr5  1  0.33275834  0.67000678  0.81148475  1
  Zn  Zn0  1  0.99362159  0.99966350  0.34447564  1
  Zn  Zn1  1  0.99337568  0.99460924  0.84422470  1
  Zn  Zn2  1  0.67221519  0.33925280  0.98713837  1
  Zn  Zn3  1  0.66534357  0.33268058  0.48639150  1
  Zn  Zn4  1  0.31575175  0.65782623  0.01942443  1
  Zn  Zn5  1  0.33464590  0.67427643  0.51906448  1
  P  P0  1  0.29309579  0.00238627  0.25351079  1
  P  P1  1  0.71260395  0.71288109  0.25111901  1
  P  P2  1  0.99718083  0.28761844  0.25202828  1
  P  P3  1  0.28922083  0.28892715  0.75289624  1
  P  P4  1  0.99634775  0.70842654  0.75175546  1
  P  P5  1  0.71380292  0.00071884  0.75147530  1
  P  P6  1  0.37575602  0.03708245  0.57961302  1
  P  P7  1  0.96205597  0.62400704  0.08110401  1
  P  P8  1  0.37555522  0.33581845  0.07975762  1
  S  S0  1  0.96094349  0.33684435  0.58138720  1
  S  S1  1  0.66305039  0.62352177  0.58151919  1
  S  S2  1  0.66396857  0.03989308  0.08183726  1
  S  S3  1  0.62906027  0.67006536  0.91852076  1
  S  S4  1  0.03762744  0.37213161  0.91778305  1
  S  S5  1  0.33380317  0.95995810  0.91879410  1
  S  S6  1  0.62903955  0.95913445  0.41828516  1
  S  S7  1  0.33305725  0.37468641  0.41910169  1
  S  S8  1  0.03755388  0.66435932  0.41849191  1
  O  O0  1  0.21802811  0.03169558  0.30899497  1
  O  O1  1  0.82047546  0.78849104  0.30506058  1
  O  O2  1  0.96820417  0.18231842  0.30646007  1
  O  O3  1  0.21763053  0.18582521  0.80867932  1
  O  O4  1  0.96672639  0.78470318  0.80620277  1
  O  O5  1  0.81910140  0.03356485  0.80609531  1
  O  O6  1  0.79414066  0.97161616  0.69590892  1
  O  O7  1  0.17749919  0.20595086  0.69795441  1
  O  O8  1  0.02830781  0.82103611  0.69644869  1
  O  O9  1  0.78875349  0.81791899  0.19409052  1
  O  O10  1  0.02799490  0.20709053  0.19649282  1
  O  O11  1  0.17957620  0.97122883  0.19849754  1
  O  O12  1  0.87705469  0.35977893  0.63482640  1
  O  O13  1  0.48880209  0.13117873  0.63445203  1
  O  O14  1  0.64330776  0.51840570  0.63490547  1
  O  O15  1  0.87259283  0.51244679  0.13634669  1
  O  O16  1  0.64132912  0.12215190  0.13490098  1
  O  O17  1  0.49098087  0.36066510  0.13422820  1
  O  O18  1  0.44948785  0.30073018  0.02434172  1
  O  O19  1  0.84357497  0.54841735  0.02829381  1
  O  O20  1  0.69548125  0.14671431  0.02973639  1
  O  O21  1  0.45066725  0.14765986  0.52471703  1
  O  O22  1  0.69708553  0.54851992  0.52967615  1
  O  O23  1  0.85320913  0.30605376  0.52965608  1
  O  O24  1  0.54796036  0.69290492  0.97140875  1
  O  O25  1  0.15021819  0.45273333  0.96874939  1
  O  O26  1  0.31003319  0.85299843  0.96966021  1
  O  O27  1  0.54611825  0.85229725  0.46967836  1
  O  O28  1  0.30893529  0.45806451  0.47008274  1
  O  O29  1  0.15000681  0.69513782  0.46931283  1
  O  O30  1  0.12361731  0.64085622  0.36489614  1
  O  O31  1  0.51428078  0.87452567  0.36534627  1
  O  O32  1  0.35636837  0.48251376  0.36540791  1
  O  O33  1  0.12457482  0.48255897  0.86463451  1
  O  O34  1  0.35645554  0.87449674  0.86506955  1
  O  O35  1  0.51297875  0.64185061  0.86625892  1
  O  O36  1  0.02662169  0.82598974  0.41138135  1
  O  O37  1  0.80211673  0.97801347  0.41081892  1
  O  O38  1  0.17891661  0.19722046  0.41231871  1
  O  O39  1  0.02720800  0.19978204  0.91088673  1
  O  O40  1  0.17900728  0.98247014  0.91210181  1
  O  O41  1  0.80176849  0.82425817  0.91099010  1
  O  O42  1  0.97533170  0.17579124  0.58926320  1
  O  O43  1  0.19335889  0.02212690  0.58949384  1
  O  O44  1  0.82171364  0.80056199  0.58924748  1
  O  O45  1  0.97017610  0.80476511  0.09023980  1
  O  O46  1  0.82158483  0.01801931  0.08897458  1
  O  O47  1  0.19254807  0.17374554  0.08896741  1
  O  O48  1  0.68865481  0.16091047  0.74269338  1
  O  O49  1  0.47300645  0.31342626  0.74276451  1
  O  O50  1  0.83834005  0.52544357  0.74136179  1
  O  O51  1  0.68695842  0.52734182  0.24352024  1
  O  O52  1  0.83791182  0.31131472  0.24288338  1
  O  O53  1  0.47458540  0.16063925  0.24265860  1
  O  O54  1  0.63651667  0.50517559  0.92065862  1
  O  O55  1  0.86516454  0.35648745  0.92231363  1
  O  O56  1  0.49189745  0.13670692  0.92135783  1
  O  O57  1  0.63770359  0.13227794  0.42159574  1
  O  O58  1  0.49145134  0.35570487  0.42142035  1
  O  O59  1  0.86487129  0.50727102  0.42306407  1
  O  O60  1  0.36629863  0.50460561  0.07707814  1
  O  O61  1  0.14282280  0.64725517  0.07783464  1
  O  O62  1  0.51237890  0.86354505  0.07729234  1
  O  O63  1  0.35589736  0.85605903  0.57746318  1
  O  O64  1  0.50789103  0.64060306  0.57731489  1
  O  O65  1  0.13456375  0.48968048  0.57718561  1
  O  O66  1  0.31086367  0.83684625  0.25776783  1
  O  O67  1  0.52751968  0.69015316  0.25719446  1
  O  O68  1  0.16142348  0.47209000  0.25708441  1
  O  O69  1  0.31071681  0.47360003  0.75754948  1
  O  O70  1  0.16139750  0.68942958  0.75684749  1
  O  O71  1  0.52833356  0.83856700  0.75723851  1
loop_
_geom_bond_atom_site_label_1
_geom_bond_atom_site_label_2
_geom_bond_distance
_geom_bond_site_symmetry_2
Na0 O60 2.309336 1_555
Na0 O45 2.408098 1_555
Na0 O62 2.490061 1_555
Na0 O46 2.529302 1_565
Na0 O24 2.731870 1_554
Na0 O19 2.771368 1_555
Na0 O17 2.814684 1_555
Na0 O9 2.828495 1_555
Na1 O54 2.394842 1_555
Na1 O39 2.409132 1_555
Na1 O40 2.432851 1_545
Na1 O56 2.467598 1_555
Na1 O18 2.667684 1_556
Na1 O3 2.696921 1_555
Na1 O25 2.849499 1_555
Na1 O35 2.897158 1_555
Na2 O57 2.405049 1_555
Na2 O36 2.412886 1_545
Na2 O38 2.437760 1_555
Na2 O58 2.476679 1_555
Na2 O21 2.675108 1_555
Na2 O0 2.690472 1_555
Na2 O29 2.873022 1_545
Na2 O31 2.885936 1_545
Na3 O37 2.587678 1_545
Na3 O38 2.598437 1_655
Na3 O36 2.615971 1_645
Na3 O42 2.670815 1_555
Na3 O44 2.682198 1_545
Na3 O43 2.689713 1_655
Na4 O40 2.556890 1_555
Na4 O41 2.607818 1_455
Na4 O39 2.618209 1_565
Na4 O45 2.660231 1_456
Na4 O47 2.660504 1_566
Na4 O46 2.702292 1_466
Na5 O55 2.578854 1_555
Na5 O54 2.620404 1_555
Na5 O56 2.623713 1_555
Na5 O48 2.644486 1_555
Na5 O50 2.663456 1_555
Na5 O49 2.721810 1_555
Na6 O59 2.599119 1_555
Na6 O52 2.627686 1_555
Na6 O58 2.631513 1_555
Na6 O51 2.633454 1_555
Na6 O57 2.640638 1_555
Na6 O53 2.702941 1_555
Na7 O61 2.490966 1_555
Na7 O60 2.561496 1_555
Na7 O62 2.641592 1_555
Na7 O68 2.665459 1_555
Na7 O66 2.700227 1_555
Na7 O67 2.766287 1_555
Na8 O63 2.499263 1_555
Na8 O64 2.591679 1_555
Na8 O65 2.602532 1_555
Na8 O70 2.701105 1_555
Na8 O71 2.713741 1_555
Na8 O69 2.746583 1_555
O0 P0 1.519007 1_555
O0 Zn0 2.038278 1_445
O1 P1 1.506865 1_555
O1 Zn0 1.957576 1_555
O2 P2 1.506251 1_555
O2 Zn0 1.953811 1_545
O3 P3 1.518763 1_555
O3 Zn1 2.036786 1_445
O4 P4 1.505882 1_555
O4 Zn1 1.961967 1_555
O5 P5 1.507274 1_555
O5 Zn1 1.957917 1_545
O6 P5 1.544840 1_565
O6 Zr0 2.082002 1_665
O7 P3 1.549033 1_555
O7 Zr0 2.047324 1_555
O8 P4 1.554523 1_455
O8 Zr0 2.025827 1_565
O9 P1 1.554702 1_555
O9 Zr1 2.120162 1_665
O10 P2 1.551229 1_455
O10 Zr1 2.041966 1_555
O11 P0 1.556563 1_565
O11 Zr1 2.014154 1_565
O12 S0 1.500827 1_555
O12 Zr2 2.156025 1_555
O13 P6 1.569829 1_555
O13 Zr2 2.032508 1_555
O14 S1 1.499313 1_555
O14 Zr2 2.164586 1_555
O15 P7 1.562155 1_555
O15 Zr3 2.043759 1_555
O16 S2 1.484608 1_555
O16 Zr3 2.184075 1_555
O17 P8 1.565605 1_555
O17 Zr3 2.078388 1_555
O18 P8 1.533037 1_555
O18 Zn2 2.021820 1_554
O19 P7 1.527787 1_555
O19 Zn2 1.961587 1_554
O20 S2 1.466336 1_555
O20 Zn2 2.069992 1_554
O21 P6 1.532401 1_555
O21 Zn3 1.997374 1_555
O22 S1 1.466803 1_555
O22 Zn3 2.049045 1_555
O23 S0 1.466732 1_555
O23 Zn3 2.059300 1_555
O24 S3 1.476270 1_555
O24 Zn4 2.219653 1_556
O25 S4 1.475471 1_555
O25 Zn4 2.042255 1_556
O26 S5 1.454886 1_555
O26 Zn4 2.100118 1_556
O27 S6 1.463366 1_555
O27 Zn5 2.087026 1_555
O28 S7 1.456510 1_555
O28 Zn5 2.135958 1_555
O29 S8 1.474091 1_555
O29 Zn5 2.086522 1_555
O30 S8 1.516656 1_555
O30 Zr4 2.144000 1_555
O31 S6 1.525347 1_555
O31 Zr4 2.151238 1_555
O32 S7 1.512751 1_555
O32 Zr4 2.118555 1_555
O33 S4 1.515073 1_555
O33 Zr5 2.147994 1_555
O34 S5 1.513064 1_555
O34 Zr5 2.114468 1_555
O35 S3 1.523227 1_555
O35 Zr5 2.151541 1_555
O36 S8 1.495382 1_555
O36 Zn0 2.300584 1_455
O37 S6 1.472446 1_555
O37 Zn0 2.218834 1_555
O38 S7 1.494621 1_555
O38 Zn0 2.312740 1_445
O39 S4 1.494589 1_555
O39 Zn1 2.281306 1_445
O40 S5 1.494785 1_555
O40 Zn1 2.316201 1_455
O41 S3 1.472039 1_555
O41 Zn1 2.229737 1_555
O42 S0 1.509274 1_555
O42 Zr0 2.190016 1_655
O43 P6 1.575966 1_555
O43 Zr0 2.073104 1_555
O44 S1 1.511079 1_555
O44 Zr0 2.186736 1_665
O45 P7 1.583980 1_555
O45 Zr1 2.112462 1_665
O46 S2 1.517326 1_555
O46 Zr1 2.236255 1_655
O47 P8 1.558617 1_555
O47 Zr1 2.077026 1_555
O48 P5 1.559692 1_555
O48 Zr2 2.047005 1_555
O49 P3 1.554519 1_555
O49 Zr2 2.059665 1_555
O50 P4 1.548059 1_555
O50 Zr2 2.105762 1_555
O51 P1 1.556153 1_555
O51 Zr3 2.049138 1_555
O52 P2 1.547144 1_555
O52 Zr3 2.088303 1_555
O53 P0 1.542800 1_555
O53 Zr3 2.108655 1_555
O54 S3 1.499248 1_555
O54 Zn2 2.254913 1_555
O55 S4 1.472845 1_655
O55 Zn2 2.216514 1_555
O56 S5 1.498050 1_545
O56 Zn2 2.285255 1_555
O57 S6 1.502371 1_545
O57 Zn3 2.236604 1_555
O58 S7 1.500872 1_555
O58 Zn3 2.234699 1_555
O59 S8 1.476338 1_655
O59 Zn3 2.218747 1_555
O60 P8 1.542834 1_555
O60 Zn4 2.104668 1_555
O61 P7 1.516965 1_455
O61 Zn4 2.005386 1_555
O62 S2 1.475289 1_565
O62 Zn4 2.232722 1_555
O63 P6 1.527857 1_565
O63 Zn5 2.033009 1_555
O64 S1 1.464860 1_555
O64 Zn5 2.174633 1_555
O65 S0 1.464975 1_455
O65 Zn5 2.173782 1_555
O66 P0 1.558043 1_565
O66 Zr4 2.063976 1_555
O67 P1 1.561144 1_555
O67 Zr4 2.054082 1_555
O68 P2 1.563860 1_455
O68 Zr4 2.051311 1_555
O69 P3 1.556967 1_555
O69 Zr5 2.066454 1_555
O70 P4 1.563498 1_455
O70 Zr5 2.050292 1_555
O71 P5 1.563181 1_565
O71 Zr5 2.054267 1_555
