# generated using pymatgen
data_Ba2TbMgSbO6
_symmetry_space_group_name_H-M   'P 1'
_cell_length_a   7.48146228
_cell_length_b   7.48146171
_cell_length_c   7.48520685
_cell_angle_alpha   49.41135905
_cell_angle_beta   49.41136112
_cell_angle_gamma   49.42290003
_symmetry_Int_Tables_number   1
_chemical_formula_structural   Ba2TbMgSbO6
_chemical_formula_sum   'Ba2 Tb1 Mg1 Sb1 O6'
_cell_volume   222.07804426
_cell_formula_units_Z   1
loop_
 _symmetry_equiv_pos_site_id
 _symmetry_equiv_pos_as_xyz
  1  'x, y, z'
loop_
 _atom_site_type_symbol
 _atom_site_label
 _atom_site_symmetry_multiplicity
 _atom_site_fract_x
 _atom_site_fract_y
 _atom_site_fract_z
 _atom_site_occupancy
  Ba  Ba0  1  0.82708846  0.82708846  0.82838214  1
  Ba  Ba1  1  0.27853644  0.27853644  0.28008787  1
  Tb  Tb0  1  0.00393938  0.00393938  0.00439936  1
  Mg  Mg0  1  0.59589484  0.59589485  0.59708042  1
  Sb  Sb0  1  0.44949619  0.44949619  0.44946697  1
  O  O0  1  0.24040192  0.76887026  0.76965961  1
  O  O1  1  0.24461875  0.70868893  0.24302488  1
  O  O2  1  0.76887026  0.24040192  0.76965961  1
  O  O3  1  0.24378486  0.24378486  0.70640279  1
  O  O4  1  0.70868893  0.24461875  0.24302488  1
  O  O5  1  0.76888797  0.76888797  0.24162346  1
loop_
_geom_bond_atom_site_label_1
_geom_bond_atom_site_label_2
_geom_bond_distance
_geom_bond_site_symmetry_2
Ba0 O2 2.583197 1_565
Ba0 O0 2.583198 1_655
Ba0 O5 2.586218 1_556
Ba1 O3 2.871725 1_555
Ba1 O1 2.892308 1_555
Ba1 O4 2.892308 1_555
Ba1 O0 3.149918 1_545
Ba1 O2 3.149918 1_455
Ba1 O5 3.152167 1_545
Ba1 O5 3.152167 1_455
Ba1 O0 3.155150 1_554
Ba1 O2 3.155150 1_554
Mg0 O2 1.908933 1_555
Mg0 O0 1.908933 1_555
Mg0 O5 1.909613 1_555
O0 Tb0 2.288780 1_566
O1 Sb0 1.952862 1_555
O1 Tb0 2.277848 1_565
O2 Tb0 2.288780 1_656
O3 Sb0 1.953018 1_555
O3 Tb0 2.277596 1_556
O4 Sb0 1.952862 1_555
O4 Tb0 2.277848 1_655
O5 Tb0 2.287891 1_665
