# generated using pymatgen
data_I2(OF2)3
_symmetry_space_group_name_H-M   'P 1'
_cell_length_a   8.74605500
_cell_length_b   9.58473100
_cell_length_c   10.08464665
_cell_angle_alpha   63.55968119
_cell_angle_beta   90.00000000
_cell_angle_gamma   90.00000000
_symmetry_Int_Tables_number   1
_chemical_formula_structural   I2(OF2)3
_chemical_formula_sum   'I8 O12 F24'
_cell_volume   756.95359179
_cell_formula_units_Z   4
loop_
 _symmetry_equiv_pos_site_id
 _symmetry_equiv_pos_as_xyz
  1  'x, y, z'
loop_
 _atom_site_type_symbol
 _atom_site_label
 _atom_site_symmetry_multiplicity
 _atom_site_fract_x
 _atom_site_fract_y
 _atom_site_fract_z
 _atom_site_occupancy
  I  I0  1  0.27362900  0.42122500  0.92890700  1
  I  I1  1  0.77362900  0.07877500  0.07109300  1
  I  I2  1  0.72637100  0.57877500  0.07109300  1
  I  I3  1  0.22637100  0.92122500  0.92890700  1
  I  I4  1  0.40167300  0.33521600  0.31444100  1
  I  I5  1  0.90167300  0.16478400  0.68555900  1
  I  I6  1  0.59832700  0.66478400  0.68555900  1
  I  I7  1  0.09832700  0.83521600  0.31444100  1
  O  O0  1  0.48497400  0.48711200  0.77440100  1
  O  O1  1  0.98497400  0.01288800  0.22559900  1
  O  O2  1  0.51502600  0.51288800  0.22559900  1
  O  O3  1  0.01502600  0.98711200  0.77440100  1
  O  O4  1  0.38152200  0.29045300  0.15673300  1
  O  O5  1  0.88152200  0.20954700  0.84326700  1
  O  O6  1  0.61847800  0.70954700  0.84326700  1
  O  O7  1  0.11847800  0.79045300  0.15673300  1
  O  O8  1  0.72274200  0.40090200  0.06014400  1
  O  O9  1  0.22274200  0.09909800  0.93985600  1
  O  O10  1  0.27725800  0.59909800  0.93985600  1
  O  O11  1  0.77725800  0.90090200  0.06014400  1
  F  F0  1  0.57135400  0.20338800  0.38784600  1
  F  F1  1  0.59169400  0.64622000  0.50808700  1
  F  F2  1  0.90830600  0.14622000  0.50808700  1
  F  F3  1  0.40830600  0.35378000  0.49191300  1
  F  F4  1  0.21548800  0.65812600  0.42925700  1
  F  F5  1  0.09169400  0.85378000  0.49191300  1
  F  F6  1  0.78451200  0.34187400  0.57074300  1
  F  F7  1  0.28451200  0.15812600  0.42925700  1
  F  F8  1  0.28368000  0.94437300  0.27864000  1
  F  F9  1  0.78368000  0.55562700  0.72136000  1
  F  F10  1  0.71632000  0.05562700  0.72136000  1
  F  F11  1  0.21632000  0.44437300  0.27864000  1
  F  F12  1  0.34371400  0.99598700  0.75159600  1
  F  F13  1  0.84371400  0.50401300  0.24840400  1
  F  F14  1  0.65628600  0.00401300  0.24840400  1
  F  F15  1  0.15628600  0.49598700  0.75159600  1
  F  F16  1  0.41563000  0.84840400  0.03135700  1
  F  F17  1  0.91563000  0.65159600  0.96864300  1
  F  F18  1  0.58437000  0.15159600  0.96864300  1
  F  F19  1  0.08437000  0.34840400  0.03135700  1
  F  F20  1  0.42864600  0.79661200  0.61215400  1
  F  F21  1  0.92864600  0.70338800  0.38784600  1
  F  F22  1  0.71548800  0.84187400  0.57074300  1
  F  F23  1  0.07135400  0.29661200  0.61215400  1
loop_
_geom_bond_atom_site_label_1
_geom_bond_atom_site_label_2
_geom_bond_distance
_geom_bond_site_symmetry_2
I0 O10 1.757100 1_555
I0 O4 2.275013 1_556
I0 O0 2.316689 1_555
I1 O11 1.757100 1_545
I1 O5 2.275013 1_554
I1 O1 2.316689 1_555
I2 O8 1.757100 1_555
I2 O6 2.275013 1_554
I2 O2 2.316689 1_555
I3 O9 1.757100 1_565
I3 O7 2.275013 1_556
I3 O3 2.316689 1_555
I4 O2 1.823967 1_555
I4 O4 1.830919 1_555
I5 O3 1.823967 1_645
I5 O5 1.830919 1_555
I6 O0 1.823967 1_555
I6 O6 1.830919 1_555
I7 O1 1.823967 1_465
I7 O7 1.830919 1_555
F0 I4 1.874548 1_555
F1 I6 1.876644 1_555
F2 I5 1.876644 1_555
F3 I4 1.876644 1_555
F4 I7 1.876572 1_555
F5 I7 1.876644 1_555
F6 I5 1.876572 1_555
F7 I4 1.876572 1_555
F8 I7 1.875253 1_555
F9 I6 1.875253 1_555
F10 I5 1.875253 1_555
F11 I4 1.875253 1_555
F12 I3 1.903434 1_555
F13 I2 1.903434 1_555
F14 I1 1.903434 1_555
F15 I0 1.903434 1_555
F16 I3 1.911110 1_554
F17 I2 1.911110 1_556
F18 I1 1.911110 1_556
F19 I0 1.911110 1_554
F20 I6 1.874548 1_555
F21 I7 1.874548 1_655
F22 I6 1.876572 1_555
F23 I5 1.874548 1_455
