# generated using pymatgen
data_Cs2In3
_symmetry_space_group_name_H-M   'P 1'
_cell_length_a   6.98394158
_cell_length_b   6.98394024
_cell_length_c   9.73251562
_cell_angle_alpha   111.02616642
_cell_angle_beta   111.02616573
_cell_angle_gamma   89.99999183
_symmetry_Int_Tables_number   1
_chemical_formula_structural   Cs2In3
_chemical_formula_sum   'Cs4 In6'
_cell_volume   409.05736454
_cell_formula_units_Z   2
loop_
 _symmetry_equiv_pos_site_id
 _symmetry_equiv_pos_as_xyz
  1  'x, y, z'
loop_
 _atom_site_type_symbol
 _atom_site_label
 _atom_site_symmetry_multiplicity
 _atom_site_fract_x
 _atom_site_fract_y
 _atom_site_fract_z
 _atom_site_occupancy
  Cs  Cs0  1  0.38840243  0.38840243  0.77680487  1
  Cs  Cs1  1  0.61159757  0.61159757  0.22319513  1
  Cs  Cs2  1  0.25000000  0.75000000  0.50000000  1
  Cs  Cs3  1  0.75000000  0.25000000  0.50000000  1
  In  In0  1  0.00071483  0.70629195  0.00143066  1
  In  In1  1  0.13934687  0.13934687  0.27869373  1
  In  In2  1  0.86065313  0.86065313  0.72130627  1
  In  In3  1  0.00071483  0.29513871  0.00143066  1
  In  In4  1  0.29370805  0.99928517  0.99856934  1
  In  In5  1  0.70486129  0.99928517  0.99856934  1
loop_
_geom_bond_atom_site_label_1
_geom_bond_atom_site_label_2
_geom_bond_distance
_geom_bond_site_symmetry_2
Cs0 Cs1 3.743672 1_556
Cs0 In1 4.177432 1_555
Cs0 Cs2 4.193200 1_545
Cs0 Cs2 4.193200 1_555
Cs0 Cs3 4.193200 1_555
Cs0 Cs3 4.193200 1_455
Cs0 In5 4.208820 1_545
Cs0 In4 4.208820 1_545
Cs0 In4 4.208825 1_555
Cs0 In5 4.208826 1_555
Cs0 In3 4.219479 1_656
Cs0 In0 4.219479 1_656
Cs0 In0 4.219484 1_556
Cs0 In3 4.219485 1_556
Cs1 In2 4.177432 1_555
Cs1 Cs3 4.193200 1_565
Cs1 Cs3 4.193200 1_555
Cs1 Cs2 4.193200 1_555
Cs1 Cs2 4.193200 1_655
Cs1 In3 4.208820 1_655
Cs1 In0 4.208820 1_655
Cs1 In0 4.208826 1_555
Cs1 In3 4.208826 1_555
Cs1 In5 4.219478 1_544
Cs1 In4 4.219479 1_544
Cs1 In4 4.219484 1_554
Cs1 In5 4.219484 1_554
Cs2 In1 3.954564 1_555
Cs2 In1 3.954564 1_565
Cs2 In2 3.954564 1_455
Cs2 In2 3.954564 1_555
Cs2 In3 4.420904 1_555
Cs2 In4 4.420904 1_555
Cs2 In0 4.420904 1_555
Cs2 In5 4.420904 1_555
Cs3 In2 3.954564 1_555
Cs3 In2 3.954564 1_545
Cs3 In1 3.954564 1_655
Cs3 In1 3.954564 1_555
Cs3 In0 4.443606 1_656
Cs3 In5 4.443606 1_544
Cs3 In3 4.443607 1_656
Cs3 In4 4.443607 1_544
In0 In3 2.871470 1_555
In0 In5 2.908055 1_454
In0 In4 2.908060 1_554
In0 In1 3.104034 1_565
In0 In2 3.122051 1_454
In1 In3 3.104034 1_555
In1 In4 3.122051 1_544
In1 In5 3.122051 1_444
In2 In5 3.104034 1_555
In2 In4 3.104034 1_655
In2 In3 3.122051 1_666
In3 In5 2.908050 1_444
In3 In4 2.908055 1_544
In4 In5 2.871470 1_555
