# generated using pymatgen
data_GdRh2
_symmetry_space_group_name_H-M   'P 1'
_cell_length_a   5.32546495
_cell_length_b   5.32545910
_cell_length_c   5.32545911
_cell_angle_alpha   60.00001310
_cell_angle_beta   60.00000611
_cell_angle_gamma   59.99994488
_symmetry_Int_Tables_number   1
_chemical_formula_structural   GdRh2
_chemical_formula_sum   'Gd2 Rh4'
_cell_volume   106.79637776
_cell_formula_units_Z   2
loop_
 _symmetry_equiv_pos_site_id
 _symmetry_equiv_pos_as_xyz
  1  'x, y, z'
loop_
 _atom_site_type_symbol
 _atom_site_label
 _atom_site_symmetry_multiplicity
 _atom_site_fract_x
 _atom_site_fract_y
 _atom_site_fract_z
 _atom_site_occupancy
  Gd  Gd0  1  0.12500000  0.12499900  0.12500000  1
  Gd  Gd1  1  0.87500000  0.87500100  0.87500000  1
  Rh  Rh0  1  0.50000000  -0.00000000  0.50000000  1
  Rh  Rh1  1  0.00000000  0.50000000  0.50000000  1
  Rh  Rh2  1  0.50000000  0.50000000  0.50000000  1
  Rh  Rh3  1  0.50000000  0.50000000  -0.00000000  1
loop_
_geom_bond_atom_site_label_1
_geom_bond_atom_site_label_2
_geom_bond_distance
_geom_bond_site_symmetry_2
Gd0 Rh3 3.122321 1_545
Gd0 Rh1 3.122324 1_545
Gd0 Rh2 3.122324 1_545
Gd0 Rh0 3.122325 1_554
Gd0 Rh1 3.122327 1_554
Gd0 Rh3 3.122329 1_455
Gd0 Rh0 3.122329 1_455
Gd0 Rh2 3.122329 1_455
Gd0 Rh1 3.122331 1_555
Gd0 Rh0 3.122331 1_555
Gd0 Rh2 3.122332 1_554
Gd0 Rh3 3.122335 1_555
Gd0 Gd1 3.261157 1_444
Gd0 Gd1 3.261165 1_445
Gd0 Gd1 3.261167 1_544
Gd0 Gd1 3.261172 1_454
Gd1 Rh3 3.122321 1_566
Gd1 Rh1 3.122324 1_665
Gd1 Rh2 3.122324 1_565
Gd1 Rh0 3.122325 1_566
Gd1 Rh1 3.122327 1_656
Gd1 Rh3 3.122329 1_656
Gd1 Rh0 3.122329 1_665
Gd1 Rh2 3.122329 1_655
Gd1 Rh1 3.122331 1_655
Gd1 Rh0 3.122331 1_565
Gd1 Rh2 3.122332 1_556
Gd1 Rh3 3.122335 1_556
Rh0 Rh1 2.662729 1_555
Rh0 Rh1 2.662729 1_645
Rh0 Rh2 2.662730 1_555
Rh0 Rh2 2.662730 1_545
Rh0 Rh3 2.662730 1_546
Rh0 Rh3 2.662730 1_555
Rh1 Rh3 2.662731 1_456
Rh1 Rh3 2.662731 1_555
Rh1 Rh2 2.662732 1_555
Rh1 Rh2 2.662732 1_455
Rh2 Rh3 2.662730 1_555
Rh2 Rh3 2.662730 1_556
