# generated using pymatgen
data_Y2MgCuO4
_symmetry_space_group_name_H-M   'P 1'
_cell_length_a   8.76158536
_cell_length_b   8.76158536
_cell_length_c   8.76158536
_cell_angle_alpha   153.16740900
_cell_angle_beta   153.16740900
_cell_angle_gamma   38.31090346
_symmetry_Int_Tables_number   1
_chemical_formula_structural   Y2MgCuO4
_chemical_formula_sum   'Y2 Mg1 Cu1 O4'
_cell_volume   136.81652481
_cell_formula_units_Z   1
loop_
 _symmetry_equiv_pos_site_id
 _symmetry_equiv_pos_as_xyz
  1  'x, y, z'
loop_
 _atom_site_type_symbol
 _atom_site_label
 _atom_site_symmetry_multiplicity
 _atom_site_fract_x
 _atom_site_fract_y
 _atom_site_fract_z
 _atom_site_occupancy
  Y  Y0  1  0.30776400  0.30776400  0.00000000  1
  Y  Y1  1  0.69223600  0.69223600  0.00000000  1
  Mg  Mg0  1  0.50000000  0.50000000  0.00000000  1
  Cu  Cu0  1  0.00000000  0.00000000  0.00000000  1
  O  O0  1  0.50000000  0.00000000  0.50000000  1
  O  O1  1  0.75000000  0.25000000  0.50000000  1
  O  O2  1  0.00000000  0.50000000  0.50000000  1
  O  O3  1  0.25000000  0.75000000  0.50000000  1
loop_
_geom_bond_atom_site_label_1
_geom_bond_atom_site_label_2
_geom_bond_distance
_geom_bond_site_symmetry_2
Mg0 O2 2.032903 1_554
Mg0 O0 2.032903 1_565
Mg0 O2 2.032903 1_655
Mg0 O0 2.032903 1_554
Cu0 O2 2.032903 1_544
Cu0 O2 2.032903 1_555
Cu0 O0 2.032903 1_555
Cu0 O0 2.032903 1_454
O1 Y0 2.246541 1_656
O1 Y0 2.246541 1_555
O1 Y1 2.246541 1_545
O1 Y1 2.246541 1_556
O3 Y0 2.246541 1_566
O3 Y0 2.246541 1_555
O3 Y1 2.246541 1_556
O3 Y1 2.246541 1_455
