# generated using pymatgen
data_Na10Nb6Al2Si11SO48
_symmetry_space_group_name_H-M   'P 1'
_cell_length_a   17.92029017
_cell_length_b   9.00882017
_cell_length_c   22.28774915
_cell_angle_alpha   90.14171781
_cell_angle_beta   89.65982751
_cell_angle_gamma   120.18067475
_symmetry_Int_Tables_number   1
_chemical_formula_structural   Na10Nb6Al2Si11SO48
_chemical_formula_sum   'Na30 Nb18 Al6 Si33 S3 O144'
_cell_volume   3110.34461218
_cell_formula_units_Z   3
loop_
 _symmetry_equiv_pos_site_id
 _symmetry_equiv_pos_as_xyz
  1  'x, y, z'
loop_
 _atom_site_type_symbol
 _atom_site_label
 _atom_site_symmetry_multiplicity
 _atom_site_fract_x
 _atom_site_fract_y
 _atom_site_fract_z
 _atom_site_occupancy
  Na  Na0  1  0.31489010  0.99359689  0.25330553  1
  Na  Na1  1  0.81686236  0.99553312  0.25377350  1
  Na  Na2  1  0.82215657  0.64511397  0.74668955  1
  Na  Na3  1  0.18271199  0.98939552  0.75089410  1
  Na  Na4  1  0.68193659  0.00237297  0.74786512  1
  Na  Na5  1  0.01769165  0.70543320  0.58670313  1
  Na  Na6  1  0.83688634  0.96162320  0.58641288  1
  Na  Na7  1  0.64782426  0.97038526  0.08901169  1
  Na  Na8  1  0.33449594  0.70637544  0.08844238  1
  Na  Na9  1  0.83679428  0.70769317  0.09064504  1
  Na  Na10  1  0.01870680  0.32804117  0.08884316  1
  Na  Na11  1  0.51433849  0.32490491  0.08969128  1
  Na  Na12  1  0.98910594  0.66495504  0.91242945  1
  Na  Na13  1  0.34637443  0.02918307  0.91389783  1
  Na  Na14  1  0.48579286  0.31177785  0.41438188  1
  Na  Na15  1  0.98797759  0.31359610  0.41371437  1
  Na  Na16  1  0.34575990  0.66318143  0.41543719  1
  Na  Na17  1  0.84642221  0.66441489  0.41507454  1
  Na  Na18  1  0.01541890  0.01712088  0.50717616  1
  Na  Na19  1  0.50812490  0.99987514  0.50417859  1
  Na  Na20  1  0.01107878  0.01494244  0.00647269  1
  Na  Na21  1  0.50266370  0.99735289  0.00151951  1
  Na  Na22  1  0.33825588  0.35701919  0.83417592  1
  Na  Na23  1  0.83749971  0.32340311  0.83409680  1
  Na  Na24  1  0.33027738  0.34025013  0.33308105  1
  Na  Na25  1  0.83065591  0.34002691  0.33341645  1
  Na  Na26  1  0.16078104  0.65665424  0.17556340  1
  Na  Na27  1  0.66172410  0.64547912  0.17849294  1
  Na  Na28  1  0.17254448  0.65966781  0.67315292  1
  Na  Na29  1  0.65482391  0.64411364  0.66319777  1
  Nb  Nb0  1  0.99597371  0.99566364  0.35525893  1
  Nb  Nb1  1  0.49522825  0.99550073  0.35446762  1
  Nb  Nb2  1  0.99522131  0.00018430  0.85742046  1
  Nb  Nb3  1  0.49852589  0.99440747  0.85652460  1
  Nb  Nb4  1  0.49564665  0.99889700  0.64409272  1
  Nb  Nb5  1  0.33710755  0.33204647  0.68744001  1
  Nb  Nb6  1  0.83825630  0.33953157  0.68887879  1
  Nb  Nb7  1  0.33816858  0.34309243  0.18942664  1
  Nb  Nb8  1  0.84016317  0.34873147  0.18963388  1
  Nb  Nb9  1  0.33011563  0.34042396  0.97828264  1
  Nb  Nb10  1  0.83376777  0.32944829  0.97821406  1
  Nb  Nb11  1  0.32935128  0.32613844  0.47808978  1
  Nb  Nb12  1  0.83372689  0.32830259  0.47852362  1
  Nb  Nb13  1  0.16665185  0.66874068  0.02174038  1
  Nb  Nb14  1  0.66666832  0.66615882  0.02170741  1
  Nb  Nb15  1  0.16855040  0.66810257  0.52314648  1
  Nb  Nb16  1  0.66271067  0.66332033  0.52093069  1
  Nb  Nb17  1  0.66435877  0.66477738  0.81038315  1
  Al  Al0  1  0.99804170  0.98807832  0.64357136  1
  Al  Al1  1  0.99660102  0.00486725  0.14526032  1
  Al  Al2  1  0.49232918  0.00663500  0.14487898  1
  Al  Al3  1  0.16724204  0.64519388  0.31388504  1
  Al  Al4  1  0.66771349  0.64501613  0.31456049  1
  Al  Al5  1  0.16768661  0.68062747  0.81484814  1
  Si  Si0  1  0.35089956  0.71228367  0.24645035  1
  Si  Si1  1  0.85171337  0.71475519  0.24688764  1
  Si  Si2  1  0.00770077  0.29719761  0.24686779  1
  Si  Si3  1  0.50685260  0.29799396  0.24702420  1
  Si  Si4  1  0.64286207  0.28907482  0.74929705  1
  Si  Si5  1  0.00625245  0.71733843  0.74818592  1
  Si  Si6  1  0.49602093  0.70753275  0.74939995  1
  Si  Si7  1  0.34868284  0.98759424  0.75307377  1
  Si  Si8  1  0.85991451  0.00295754  0.74513415  1
  Si  Si9  1  0.47873508  0.33114040  0.58072106  1
  Si  Si10  1  0.98219165  0.32416281  0.58381660  1
  Si  Si11  1  0.18375055  0.04332766  0.58687967  1
  Si  Si12  1  0.68681721  0.04363380  0.58520218  1
  Si  Si13  1  0.33273413  0.61913712  0.58317161  1
  Si  Si14  1  0.83366211  0.62542565  0.58376525  1
  Si  Si15  1  0.47903852  0.63404306  0.08488485  1
  Si  Si16  1  0.98140535  0.63844801  0.08319985  1
  Si  Si17  1  0.33338931  0.04514692  0.08414516  1
  Si  Si18  1  0.83468132  0.04429723  0.08700390  1
  Si  Si19  1  0.18343398  0.32052229  0.08656100  1
  Si  Si20  1  0.68560693  0.32594163  0.08572676  1
  Si  Si21  1  0.30393760  0.66030564  0.91172385  1
  Si  Si22  1  0.81033591  0.66218375  0.91585511  1
  Si  Si23  1  0.02940946  0.38958331  0.91337111  1
  Si  Si24  1  0.52036054  0.37447390  0.91771809  1
  Si  Si25  1  0.16760662  0.95629413  0.91331855  1
  Si  Si26  1  0.66646321  0.95736877  0.91656897  1
  Si  Si27  1  0.30214086  0.94839535  0.40958371  1
  Si  Si28  1  0.80272276  0.94812516  0.41112025  1
  Si  Si29  1  0.16699701  0.38160878  0.41402402  1
  Si  Si30  1  0.66801955  0.37980442  0.41402964  1
  Si  Si31  1  0.02993968  0.67058017  0.41354588  1
  Si  Si32  1  0.52734643  0.66843991  0.41108091  1
  S  S0  1  0.14052357  0.99695797  0.24732077  1
  S  S1  1  0.64231913  0.99818188  0.24709690  1
  S  S2  1  0.13980428  0.28552352  0.74797643  1
  O  O0  1  0.10020707  0.01829430  0.30328273  1
  O  O1  1  0.59911924  0.01691029  0.30152986  1
  O  O2  1  0.41182016  0.80266803  0.30755059  1
  O  O3  1  0.91210856  0.80265752  0.30793936  1
  O  O4  1  0.49007065  0.16839914  0.30593315  1
  O  O5  1  0.98941581  0.16828149  0.30634855  1
  O  O6  1  0.10017503  0.17822193  0.80337943  1
  O  O7  1  0.59656716  0.16471798  0.80756931  1
  O  O8  1  0.48640155  0.80331552  0.80916368  1
  O  O9  1  0.98793967  0.80927490  0.80784423  1
  O  O10  1  0.41120350  0.02469268  0.81194368  1
  O  O11  1  0.91656982  0.02519533  0.80613483  1
  O  O12  1  0.40164689  0.97419095  0.69420996  1
  O  O13  1  0.90365980  0.96703756  0.68815045  1
  O  O14  1  0.08941209  0.20100780  0.69493382  1
  O  O15  1  0.58427942  0.19545933  0.69079076  1
  O  O16  1  0.01743692  0.83439160  0.68974769  1
  O  O17  1  0.51484950  0.83421535  0.69241209  1
  O  O18  1  0.40176073  0.83433104  0.18914443  1
  O  O19  1  0.90127919  0.83541759  0.18941134  1
  O  O20  1  0.01220023  0.19851815  0.18742582  1
  O  O21  1  0.51299278  0.20163213  0.18699765  1
  O  O22  1  0.08937063  0.98640418  0.19413042  1
  O  O23  1  0.59428184  0.98800744  0.19210045  1
  O  O24  1  0.42963333  0.35288219  0.64042277  1
  O  O25  1  0.93025561  0.35963834  0.63958560  1
  O  O26  1  0.24383926  0.13252513  0.64633734  1
  O  O27  1  0.74666554  0.13395044  0.64487462  1
  O  O28  1  0.32174803  0.49613332  0.64077718  1
  O  O29  1  0.82003459  0.50589036  0.64358422  1
  O  O30  1  0.43543200  0.50037256  0.14231867  1
  O  O31  1  0.93278149  0.49956428  0.14015932  1
  O  O32  1  0.32008381  0.13604280  0.14418966  1
  O  O33  1  0.81285595  0.12873462  0.14500009  1
  O  O34  1  0.25235842  0.36118367  0.14144394  1
  O  O35  1  0.75255645  0.36580977  0.14161019  1
  O  O36  1  0.23278468  0.30049775  0.02668596  1
  O  O37  1  0.73449021  0.29857210  0.02712316  1
  O  O38  1  0.41511554  0.53822113  0.02780575  1
  O  O39  1  0.91914069  0.54366830  0.02439061  1
  O  O40  1  0.34948230  0.16985796  0.02574238  1
  O  O41  1  0.84938240  0.17277884  0.02947033  1
  O  O42  1  0.23696384  0.16661243  0.52829147  1
  O  O43  1  0.73993042  0.16567155  0.52713802  1
  O  O44  1  0.34450466  0.52973936  0.52202613  1
  O  O45  1  0.84855468  0.52897301  0.52536626  1
  O  O46  1  0.42304833  0.31258429  0.52043752  1
  O  O47  1  0.92158846  0.29771333  0.52368817  1
  O  O48  1  0.26495884  0.69424503  0.97530627  1
  O  O49  1  0.76480603  0.68652191  0.97630309  1
  O  O50  1  0.08113236  0.46574429  0.97745608  1
  O  O51  1  0.57848533  0.46941750  0.97784424  1
  O  O52  1  0.14964418  0.82711535  0.97174750  1
  O  O53  1  0.65669428  0.83969003  0.97622989  1
  O  O54  1  0.26191837  0.82740111  0.46989438  1
  O  O55  1  0.76541157  0.83230302  0.47272409  1
  O  O56  1  0.14786446  0.46698568  0.47386855  1
  O  O57  1  0.64886681  0.46714971  0.47367208  1
  O  O58  1  0.08038483  0.69586151  0.47781796  1
  O  O59  1  0.58294295  0.69606141  0.47387393  1
  O  O60  1  0.07526888  0.62999491  0.35897802  1
  O  O61  1  0.57427397  0.62937219  0.35728081  1
  O  O62  1  0.24943207  0.86136130  0.34982431  1
  O  O63  1  0.74892188  0.85881278  0.35181276  1
  O  O64  1  0.19171642  0.50685365  0.35748781  1
  O  O65  1  0.69212814  0.50550092  0.35760184  1
  O  O66  1  0.07237090  0.52060673  0.85855384  1
  O  O67  1  0.57271390  0.49832606  0.86012377  1
  O  O68  1  0.18705346  0.87911445  0.85413526  1
  O  O69  1  0.67818586  0.86643997  0.85595302  1
  O  O70  1  0.24520695  0.64093006  0.85574442  1
  O  O71  1  0.75501554  0.64614677  0.85593118  1
  O  O72  1  0.01205822  0.83394796  0.40820488  1
  O  O73  1  0.51244192  0.83513430  0.40758813  1
  O  O74  1  0.40216511  0.97124270  0.40824299  1
  O  O75  1  0.90246690  0.97109797  0.40858584  1
  O  O76  1  0.07985074  0.19061823  0.40926706  1
  O  O77  1  0.58022758  0.19052085  0.40883073  1
  O  O78  1  0.01709714  0.19674096  0.90755399  1
  O  O79  1  0.50913703  0.18382360  0.91431069  1
  O  O80  1  0.08063882  0.97217205  0.90975805  1
  O  O81  1  0.57989499  0.97249090  0.91462909  1
  O  O82  1  0.40060381  0.83650166  0.91077057  1
  O  O83  1  0.90695572  0.83561595  0.91330679  1
  O  O84  1  0.48548051  0.15892322  0.58578747  1
  O  O85  1  0.98626061  0.15213318  0.59239678  1
  O  O86  1  0.08903523  0.02006203  0.59111363  1
  O  O87  1  0.59262844  0.02475241  0.58734899  1
  O  O88  1  0.41825258  0.80855490  0.58878780  1
  O  O89  1  0.92112725  0.81135239  0.58813839  1
  O  O90  1  0.49018637  0.82182470  0.09342350  1
  O  O91  1  0.98645575  0.81913568  0.09355017  1
  O  O92  1  0.41936292  0.02567336  0.08805075  1
  O  O93  1  0.91914211  0.02471818  0.08942685  1
  O  O94  1  0.08822630  0.15714679  0.09256358  1
  O  O95  1  0.59128704  0.15647234  0.09209210  1
  O  O96  1  0.33722560  0.16045171  0.74686874  1
  O  O97  1  0.84424425  0.16780140  0.74485356  1
  O  O98  1  0.22735984  0.29786007  0.74636089  1
  O  O99  1  0.73931647  0.30820315  0.74682682  1
  O  O100  1  0.41087726  0.51635609  0.74699868  1
  O  O101  1  0.91436939  0.52790230  0.74554868  1
  O  O102  1  0.34301519  0.51994378  0.24452236  1
  O  O103  1  0.84343433  0.52131499  0.24478654  1
  O  O104  1  0.41216548  0.29799064  0.24679780  1
  O  O105  1  0.91273039  0.29899268  0.24500738  1
  O  O106  1  0.22968221  0.15593530  0.24634503  1
  O  O107  1  0.73126646  0.15738433  0.24757053  1
  O  O108  1  0.31808598  0.49485031  0.92081618  1
  O  O109  1  0.82518242  0.49843785  0.91973522  1
  O  O110  1  0.42519732  0.35488350  0.92069015  1
  O  O111  1  0.93185729  0.36671758  0.92337197  1
  O  O112  1  0.25374569  0.14389512  0.92394825  1
  O  O113  1  0.75429234  0.14558930  0.92185412  1
  O  O114  1  0.32261883  0.14700966  0.41802331  1
  O  O115  1  0.82402779  0.14798687  0.41839457  1
  O  O116  1  0.25221216  0.35933734  0.42214140  1
  O  O117  1  0.75422957  0.36201553  0.42384930  1
  O  O118  1  0.42849363  0.49956758  0.41939738  1
  O  O119  1  0.93037925  0.49889393  0.42125641  1
  O  O120  1  0.17908151  0.49922034  0.07964346  1
  O  O121  1  0.67803508  0.50076295  0.07981377  1
  O  O122  1  0.07185377  0.63669827  0.08011208  1
  O  O123  1  0.57355996  0.64616020  0.07984429  1
  O  O124  1  0.24946506  0.85069706  0.07899727  1
  O  O125  1  0.74763224  0.85310520  0.07969254  1
  O  O126  1  0.17604418  0.85438742  0.57871727  1
  O  O127  1  0.68507025  0.86069758  0.57859967  1
  O  O128  1  0.24730882  0.63893118  0.57888001  1
  O  O129  1  0.74969234  0.64973068  0.57884100  1
  O  O130  1  0.07211458  0.50719779  0.58047955  1
  O  O131  1  0.57277577  0.50568177  0.57998503  1
  O  O132  1  0.15148004  0.84740992  0.25030937  1
  O  O133  1  0.65326957  0.84761220  0.25048550  1
  O  O134  1  0.25807503  0.70160163  0.25353796  1
  O  O135  1  0.75842498  0.70242445  0.25417377  1
  O  O136  1  0.08859563  0.48686509  0.25645739  1
  O  O137  1  0.58886746  0.48647086  0.25681423  1
  O  O138  1  0.15078682  0.45860697  0.75449156  1
  O  O139  1  0.65818019  0.48436386  0.75314119  1
  O  O140  1  0.08972214  0.69522827  0.75664455  1
  O  O141  1  0.58488593  0.69497032  0.75415417  1
  O  O142  1  0.25401107  0.81837197  0.75581393  1
  O  O143  1  0.76200552  0.83089330  0.75266475  1
loop_
_geom_bond_atom_site_label_1
_geom_bond_atom_site_label_2
_geom_bond_distance
_geom_bond_site_symmetry_2
Na0 O134 2.294227 1_555
Na0 O104 2.402547 1_565
Na0 O62 2.449579 1_555
Na0 O132 2.537404 1_555
Na0 O106 2.596870 1_565
Na0 O32 2.731753 1_565
Na0 O18 2.955714 1_555
Na0 O4 2.962227 1_565
Na1 O135 2.299781 1_555
Na1 O105 2.395778 1_565
Na1 O63 2.499578 1_555
Na1 O133 2.539628 1_555
Na1 O107 2.598130 1_565
Na1 O33 2.724979 1_565
Na1 O5 2.924419 1_565
Na1 O19 2.930003 1_555
Na2 O101 2.366464 1_555
Na2 O143 2.406632 1_555
Na2 O139 2.543623 1_555
Na2 O29 2.606555 1_555
Na2 O99 2.624061 1_555
Na2 O71 2.711478 1_555
Na2 O13 2.825509 1_555
Na2 O9 2.914026 1_555
Na3 O140 2.318462 1_555
Na3 O96 2.399423 1_565
Na3 O142 2.449527 1_555
Na3 O98 2.477409 1_565
Na3 O68 2.525651 1_555
Na3 O26 2.618666 1_565
Na4 O99 2.408392 1_555
Na4 O141 2.422804 1_545
Na4 O97 2.515013 1_555
Na4 O27 2.572730 1_555
Na4 O143 2.586138 1_545
Na4 O69 2.690264 1_545
Na4 O17 2.874351 1_545
Na4 O7 2.909638 1_555
Na5 O89 2.359121 1_455
Na5 O130 2.430660 1_555
Na5 O86 2.456575 1_565
Na5 O126 2.459982 1_555
Na5 O16 2.572205 1_555
Na5 O58 2.687568 1_555
Na5 O25 2.938916 1_455
Na5 O45 2.962544 1_455
Na6 O85 2.347906 1_565
Na6 O127 2.403401 1_555
Na6 O129 2.439534 1_555
Na6 O89 2.483723 1_555
Na6 O13 2.559058 1_555
Na6 O55 2.818139 1_555
Na7 O95 2.355415 1_565
Na7 O90 2.444790 1_555
Na7 O125 2.500610 1_555
Na7 O23 2.519931 1_555
Na7 O123 2.536984 1_555
Na7 O53 2.810480 1_554
Na7 O33 2.851594 1_565
Na7 O37 2.904118 1_565
Na8 O90 2.442076 1_555
Na8 O124 2.460445 1_555
Na8 O120 2.461020 1_555
Na8 O92 2.487704 1_565
Na8 O18 2.538002 1_555
Na8 O48 2.796785 1_554
Na8 O38 2.894081 1_555
Na8 O34 2.937324 1_555
Na9 O91 2.345117 1_555
Na9 O93 2.469325 1_565
Na9 O19 2.487116 1_555
Na9 O121 2.510164 1_555
Na9 O125 2.537599 1_555
Na9 O49 2.825653 1_554
Na9 O35 2.894375 1_555
Na9 O39 2.949141 1_555
Na10 O93 2.397580 1_455
Na10 O94 2.420634 1_555
Na10 O122 2.452470 1_555
Na10 O20 2.464874 1_555
Na10 O120 2.493636 1_555
Na10 O50 2.745988 1_554
Na10 O31 2.903357 1_455
Na10 O41 2.947186 1_455
Na11 O92 2.356300 1_555
Na11 O21 2.433451 1_555
Na11 O95 2.512339 1_555
Na11 O123 2.542168 1_555
Na11 O121 2.546566 1_555
Na11 O51 2.776289 1_554
Na11 O30 2.844755 1_555
Na11 O40 2.932795 1_555
Na12 O111 2.357867 1_555
Na12 O80 2.406069 1_655
Na12 O109 2.543798 1_555
Na12 O83 2.608950 1_555
Na12 O9 2.677152 1_555
Na12 O66 2.698394 1_655
Na12 O39 2.755290 1_556
Na12 O52 2.822838 1_655
Na13 O112 2.364894 1_555
Na13 O82 2.378460 1_545
Na13 O79 2.522501 1_555
Na13 O110 2.541784 1_555
Na13 O10 2.555434 1_555
Na13 O40 2.781746 1_556
Na13 O68 2.812233 1_545
Na13 O48 2.945657 1_545
Na14 O118 2.381855 1_555
Na14 O77 2.434758 1_555
Na14 O114 2.528648 1_555
Na14 O46 2.613077 1_555
Na14 O74 2.655913 1_545
Na14 O4 2.756533 1_555
Na14 O61 2.784352 1_555
Na14 O57 2.858216 1_555
Na15 O119 2.368385 1_555
Na15 O76 2.404025 1_655
Na15 O115 2.541382 1_555
Na15 O75 2.669824 1_545
Na15 O47 2.690646 1_555
Na15 O5 2.730991 1_555
Na15 O60 2.751606 1_655
Na15 O56 2.823475 1_655
Na16 O116 2.389679 1_555
Na16 O74 2.435010 1_555
Na16 O118 2.564753 1_555
Na16 O73 2.587501 1_555
Na16 O44 2.659999 1_555
Na16 O2 2.692171 1_555
Na16 O64 2.719619 1_555
Na16 O54 2.850195 1_555
Na17 O117 2.379660 1_555
Na17 O75 2.423476 1_555
Na17 O72 2.569862 1_655
Na17 O119 2.601026 1_555
Na17 O3 2.673123 1_555
Na17 O65 2.718178 1_555
Na17 O45 2.756018 1_555
Na17 O55 2.867395 1_555
Na18 O86 2.287965 1_555
Na18 O85 2.444556 1_455
Na18 O89 2.525580 1_445
Na18 O76 2.590455 1_555
Na18 O72 2.734246 1_545
Na18 O75 2.881300 1_445
Na19 O87 2.338716 1_565
Na19 O84 2.467581 1_565
Na19 O88 2.511885 1_555
Na19 O77 2.624781 1_565
Na19 O73 2.634528 1_555
Na19 O74 2.792303 1_555
Na20 O94 2.339394 1_555
Na20 O93 2.499863 1_455
Na20 O91 2.509396 1_445
Na20 O80 2.606843 1_544
Na20 O78 2.718827 1_554
Na20 O83 2.720618 1_444
Na21 O81 2.448211 1_554
Na21 O92 2.521752 1_565
Na21 O95 2.527217 1_565
Na21 O90 2.530071 1_555
Na21 O79 2.535926 1_564
Na21 O82 2.626864 1_554
Na22 O100 2.373775 1_555
Na22 O108 2.415034 1_555
Na22 O110 2.492341 1_555
Na22 O96 2.621674 1_555
Na22 O98 2.653319 1_555
Na22 O112 2.653800 1_555
Na23 O97 2.467704 1_555
Na23 O113 2.488833 1_555
Na23 O111 2.518577 1_555
Na23 O109 2.551147 1_555
Na23 O101 2.573040 1_555
Na23 O99 2.587429 1_555
Na24 O116 2.476668 1_555
Na24 O102 2.491467 1_555
Na24 O118 2.519009 1_555
Na24 O114 2.531117 1_555
Na24 O104 2.553649 1_555
Na24 O106 2.599956 1_555
Na25 O117 2.493080 1_555
Na25 O103 2.501272 1_555
Na25 O115 2.530068 1_555
Na25 O119 2.555550 1_555
Na25 O107 2.572677 1_555
Na25 O105 2.586735 1_555
Na26 O136 2.293498 1_555
Na26 O134 2.355154 1_555
Na26 O132 2.454952 1_555
Na26 O122 2.616869 1_555
Na26 O120 2.670919 1_555
Na26 O124 2.719994 1_555
Na27 O137 2.215535 1_555
Na27 O135 2.290823 1_555
Na27 O133 2.484667 1_555
Na27 O121 2.642640 1_555
Na27 O123 2.716865 1_555
Na27 O125 2.793296 1_555
Na28 O142 2.343049 1_555
Na28 O138 2.452980 1_555
Na28 O140 2.492094 1_555
Na28 O128 2.541850 1_555
Na28 O130 2.633725 1_555
Na28 O126 2.723457 1_555
Na29 O131 2.309556 1_555
Na29 O139 2.489195 1_555
Na29 O129 2.510713 1_555
Na29 O141 2.536310 1_555
Na29 O127 2.568787 1_555
Na29 O143 2.697399 1_555
Nb0 O3 1.943338 1_555
Nb0 O5 1.952966 1_565
Nb0 O75 1.968313 1_555
Nb0 O72 2.008187 1_655
Nb0 O76 2.037054 1_665
Nb0 O0 2.113086 1_665
Nb1 O2 1.935000 1_555
Nb1 O4 1.938838 1_565
Nb1 O74 1.968918 1_555
Nb1 O73 2.011204 1_555
Nb1 O77 2.048311 1_565
Nb1 O1 2.123538 1_565
Nb2 O11 1.919270 1_555
Nb2 O78 1.958359 1_655
Nb2 O83 1.969592 1_545
Nb2 O9 1.990612 1_545
Nb2 O80 2.044136 1_645
Nb2 O6 2.123725 1_655
Nb3 O8 1.934605 1_555
Nb3 O7 1.976494 1_565
Nb3 O10 1.989850 1_565
Nb3 O82 2.009498 1_555
Nb3 O81 2.038490 1_555
Nb3 O79 2.067012 1_565
Nb4 O12 1.933054 1_555
Nb4 O15 1.980987 1_565
Nb4 O88 2.000484 1_555
Nb4 O17 2.001213 1_555
Nb4 O84 2.019002 1_565
Nb4 O87 2.059727 1_565
Nb5 O24 1.884148 1_555
Nb5 O28 1.939754 1_555
Nb5 O26 1.962905 1_555
Nb5 O100 2.017321 1_555
Nb5 O96 2.039006 1_555
Nb5 O98 2.247144 1_555
Nb6 O25 1.907114 1_555
Nb6 O29 1.968575 1_555
Nb6 O101 2.004511 1_555
Nb6 O27 2.009885 1_555
Nb6 O97 2.034559 1_555
Nb6 O99 2.088737 1_555
Nb7 O30 1.910626 1_555
Nb7 O34 1.951222 1_555
Nb7 O102 1.976422 1_555
Nb7 O32 1.996891 1_555
Nb7 O104 2.030500 1_555
Nb7 O106 2.217473 1_555
Nb8 O31 1.880194 1_555
Nb8 O103 1.957428 1_555
Nb8 O35 1.974242 1_555
Nb8 O105 2.005666 1_555
Nb8 O33 2.043997 1_555
Nb8 O107 2.246309 1_555
Nb9 O36 1.919428 1_556
Nb9 O108 1.983933 1_555
Nb9 O38 1.998722 1_556
Nb9 O112 2.011700 1_555
Nb9 O40 2.036924 1_556
Nb9 O110 2.078353 1_555
Nb10 O41 1.945323 1_556
Nb10 O37 1.977795 1_556
Nb10 O113 1.997212 1_555
Nb10 O111 2.019830 1_555
Nb10 O39 2.040697 1_556
Nb10 O109 2.070703 1_555
Nb11 O42 1.911007 1_555
Nb11 O44 1.972418 1_555
Nb11 O46 1.987605 1_555
Nb11 O116 1.998320 1_555
Nb11 O114 2.050957 1_555
Nb11 O118 2.121391 1_555
Nb12 O43 1.912059 1_555
Nb12 O45 1.984868 1_555
Nb12 O47 2.006174 1_555
Nb12 O117 2.015976 1_555
Nb12 O115 2.042812 1_555
Nb12 O119 2.073154 1_555
Nb13 O48 1.949341 1_554
Nb13 O52 1.954275 1_554
Nb13 O50 1.964252 1_554
Nb13 O124 2.020915 1_555
Nb13 O122 2.035771 1_555
Nb13 O120 2.098223 1_555
Nb14 O51 1.946280 1_554
Nb14 O53 1.947869 1_554
Nb14 O49 1.950895 1_554
Nb14 O125 2.041156 1_555
Nb14 O123 2.041721 1_555
Nb14 O121 2.063173 1_555
Nb15 O54 1.959147 1_555
Nb15 O56 1.986471 1_555
Nb15 O58 1.999225 1_555
Nb15 O128 1.999851 1_555
Nb15 O126 2.033103 1_555
Nb15 O130 2.045678 1_555
Nb16 O59 1.916659 1_555
Nb16 O57 1.961443 1_555
Nb16 O55 2.006646 1_555
Nb16 O131 2.007331 1_555
Nb16 O127 2.062229 1_555
Nb16 O129 2.080162 1_555
Nb17 O67 1.919698 1_555
Nb17 O69 1.983617 1_555
Nb17 O71 1.998155 1_555
Nb17 O141 2.021185 1_555
Nb17 O139 2.022877 1_555
Nb17 O143 2.075145 1_555
Al0 O13 1.882127 1_555
Al0 O16 1.895276 1_655
Al0 O86 1.901459 1_665
Al0 O89 1.940371 1_555
Al0 O85 1.963338 1_565
Al0 O14 2.127087 1_665
Al1 O20 1.873365 1_655
Al1 O19 1.892665 1_545
Al1 O94 1.917730 1_655
Al1 O93 1.943838 1_555
Al1 O91 1.961651 1_545
Al1 O22 2.068387 1_645
Al2 O21 1.856402 1_555
Al2 O18 1.863461 1_545
Al2 O92 1.894627 1_555
Al2 O95 1.981741 1_555
Al2 O90 2.003859 1_545
Al2 O23 2.192217 1_545
Al3 O64 1.802950 1_555
Al3 O60 1.870678 1_555
Al3 O136 1.910548 1_555
Al3 O62 1.930214 1_555
Al3 O134 1.965335 1_555
Al3 O132 2.437446 1_555
Al4 O65 1.804227 1_555
Al4 O61 1.864059 1_555
Al4 O137 1.917367 1_555
Al4 O63 1.924855 1_555
Al4 O135 1.963043 1_555
Al4 O133 2.435137 1_555
Al5 O70 1.845187 1_555
Al5 O66 1.859036 1_555
Al5 O68 1.859159 1_555
Al5 O142 1.928189 1_555
Al5 O140 1.964500 1_555
Al5 O138 2.298775 1_555
O0 S0 1.497446 1_545
O1 S1 1.489554 1_545
O2 Si0 1.681576 1_555
O3 Si1 1.673440 1_555
O4 Si3 1.681425 1_555
O5 Si2 1.683290 1_655
O6 S2 1.506246 1_555
O7 Si4 1.640132 1_555
O8 Si6 1.640019 1_555
O9 Si5 1.680566 1_655
O10 Si7 1.651457 1_545
O11 Si8 1.652237 1_555
O12 Si7 1.654171 1_555
O13 Si8 1.604201 1_565
O14 S2 1.452481 1_555
O15 Si4 1.623063 1_555
O16 Si5 1.624729 1_555
O17 Si6 1.626180 1_555
O18 Si0 1.629862 1_555
O19 Si1 1.623011 1_555
O20 Si2 1.617697 1_555
O21 Si3 1.626077 1_555
O22 S0 1.476294 1_555
O23 S1 1.478021 1_555
O24 Si9 1.655674 1_555
O25 Si10 1.672331 1_555
O26 Si11 1.644079 1_555
O27 Si12 1.647807 1_555
O28 Si13 1.643097 1_555
O29 Si14 1.653969 1_555
O30 Si15 1.657996 1_555
O31 Si16 1.683712 1_555
O32 Si17 1.644818 1_555
O33 Si18 1.640337 1_555
O34 Si19 1.648283 1_555
O35 Si20 1.643773 1_555
O36 Si19 1.655509 1_555
O37 Si20 1.654139 1_555
O38 Si15 1.641164 1_555
O39 Si16 1.657100 1_555
O40 Si17 1.648259 1_555
O41 Si18 1.658357 1_555
O42 Si11 1.665983 1_555
O43 Si12 1.652170 1_555
O44 Si13 1.646901 1_555
O45 Si14 1.656446 1_555
O46 Si9 1.635877 1_555
O47 Si10 1.669636 1_555
O48 Si21 1.670461 1_555
O49 Si22 1.641408 1_555
O50 Si23 1.655717 1_555
O51 Si24 1.651506 1_555
O52 Si25 1.667229 1_555
O53 Si26 1.655381 1_555
O54 Si27 1.649334 1_555
O55 Si28 1.647928 1_555
O56 Si29 1.656141 1_555
O57 Si30 1.662818 1_555
O58 Si31 1.651612 1_555
O59 Si32 1.666959 1_555
O60 Si31 1.599173 1_555
O61 Si32 1.597626 1_555
O62 Si27 1.595635 1_555
O63 Si28 1.598143 1_555
O64 Si29 1.598416 1_555
O65 Si30 1.599784 1_555
O66 Si23 1.600290 1_555
O67 Si24 1.647164 1_555
O68 Si25 1.605754 1_555
O69 Si26 1.644541 1_555
O70 Si21 1.588902 1_555
O71 Si22 1.630389 1_555
O72 Si31 1.660845 1_555
O73 Si32 1.654290 1_555
O74 Si27 1.698419 1_555
O75 Si28 1.693485 1_555
O76 Si29 1.646187 1_555
O77 Si30 1.643211 1_555
O78 Si23 1.642394 1_555
O79 Si24 1.627375 1_555
O80 Si25 1.637472 1_555
O81 Si26 1.624920 1_555
O82 Si21 1.660085 1_555
O83 Si22 1.649717 1_555
O84 Si9 1.619885 1_555
O85 Si10 1.599678 1_555
O86 Si11 1.604448 1_555
O87 Si12 1.609535 1_555
O88 Si13 1.627267 1_555
O89 Si14 1.622689 1_555
O90 Si15 1.611523 1_555
O91 Si16 1.600421 1_555
O92 Si17 1.638735 1_555
O93 Si18 1.610695 1_555
O94 Si19 1.602659 1_555
O95 Si20 1.616023 1_555
O96 Si7 1.676055 1_545
O97 Si8 1.644273 1_555
O98 S2 1.516409 1_555
O99 Si4 1.649193 1_555
O100 Si6 1.629567 1_555
O101 Si5 1.674040 1_655
O102 Si0 1.666673 1_555
O103 Si1 1.673564 1_555
O104 Si3 1.696843 1_555
O105 Si2 1.710832 1_655
O106 S0 1.517705 1_545
O107 S1 1.516370 1_545
O108 Si21 1.645964 1_555
O109 Si22 1.627842 1_555
O110 Si24 1.624766 1_555
O111 Si23 1.667848 1_655
O112 Si25 1.635402 1_545
O113 Si26 1.638340 1_545
O114 Si27 1.646369 1_545
O115 Si28 1.649858 1_545
O116 Si29 1.648177 1_555
O117 Si30 1.647254 1_555
O118 Si32 1.665750 1_555
O119 Si31 1.681686 1_655
O120 Si19 1.658047 1_555
O121 Si20 1.652968 1_555
O122 Si16 1.629889 1_455
O123 Si15 1.644859 1_555
O124 Si17 1.641894 1_565
O125 Si18 1.651300 1_565
O126 Si11 1.646763 1_565
O127 Si12 1.638795 1_565
O128 Si13 1.631175 1_555
O129 Si14 1.630233 1_555
O130 Si10 1.627507 1_455
O131 Si9 1.627336 1_555
O132 S0 1.457615 1_555
O133 S1 1.467141 1_555
O134 Si0 1.623964 1_555
O135 Si1 1.625921 1_555
O136 Si2 1.605656 1_555
O137 Si3 1.607355 1_555
O138 S2 1.477102 1_555
O139 Si4 1.640692 1_555
O140 Si5 1.617325 1_555
O141 Si6 1.656298 1_555
O142 Si7 1.613946 1_555
O143 Si8 1.665130 1_565
