# generated using pymatgen
data_MgMo2W(SeS2)2
_symmetry_space_group_name_H-M   'P 1'
_cell_length_a   6.46290000
_cell_length_b   6.46285906
_cell_length_c   59.37841000
_cell_angle_alpha   90.00010575
_cell_angle_beta   89.99979519
_cell_angle_gamma   120.00030369
_symmetry_Int_Tables_number   1
_chemical_formula_structural   MgMo2W(SeS2)2
_chemical_formula_sum   'Mg8 Mo16 W8 Se16 S32'
_cell_volume   2147.87987149
_cell_formula_units_Z   8
loop_
 _symmetry_equiv_pos_site_id
 _symmetry_equiv_pos_as_xyz
  1  'x, y, z'
loop_
 _atom_site_type_symbol
 _atom_site_label
 _atom_site_symmetry_multiplicity
 _atom_site_fract_x
 _atom_site_fract_y
 _atom_site_fract_z
 _atom_site_occupancy
  Mg  Mg0_0  1  0.16416900  0.29127500  0.42168500  1
  Mg  Mg0_1  1  0.16416900  0.29127500  0.92168500  1
  Mg  Mg0_2  1  0.16416900  0.79127500  0.42168500  1
  Mg  Mg0_3  1  0.16416900  0.79127500  0.92168500  1
  Mg  Mg0_4  1  0.66416900  0.29127500  0.42168500  1
  Mg  Mg0_5  1  0.66416900  0.29127500  0.92168500  1
  Mg  Mg0_6  1  0.66416900  0.79127500  0.42168500  1
  Mg  Mg0_7  1  0.66416900  0.79127500  0.92168500  1
  Mo  Mo0_0  1  0.16665500  0.33331100  0.05780550  1
  Mo  Mo0_1  1  0.16665500  0.33331100  0.55780550  1
  Mo  Mo0_2  1  0.16665500  0.83331100  0.05780550  1
  Mo  Mo0_3  1  0.16665500  0.83331100  0.55780550  1
  Mo  Mo0_4  1  0.66665500  0.33331100  0.05780550  1
  Mo  Mo0_5  1  0.66665500  0.33331100  0.55780550  1
  Mo  Mo0_6  1  0.66665500  0.83331100  0.05780550  1
  Mo  Mo0_7  1  0.66665500  0.83331100  0.55780550  1
  Mo  Mo1_0  1  0.16665500  0.33331100  0.28917900  1
  Mo  Mo1_1  1  0.16665500  0.33331100  0.78917900  1
  Mo  Mo1_2  1  0.16665500  0.83331100  0.28917900  1
  Mo  Mo1_3  1  0.16665500  0.83331100  0.78917900  1
  Mo  Mo1_4  1  0.66665500  0.33331100  0.28917900  1
  Mo  Mo1_5  1  0.66665500  0.33331100  0.78917900  1
  Mo  Mo1_6  1  0.66665500  0.83331100  0.28917900  1
  Mo  Mo1_7  1  0.66665500  0.83331100  0.78917900  1
  W  W0_0  1  0.33334450  0.16669050  0.17349150  1
  W  W0_1  1  0.33334450  0.16669050  0.67349150  1
  W  W0_2  1  0.33334450  0.66669050  0.17349150  1
  W  W0_3  1  0.33334450  0.66669050  0.67349150  1
  W  W0_4  1  0.83334450  0.16669050  0.17349150  1
  W  W0_5  1  0.83334450  0.16669050  0.67349150  1
  W  W0_6  1  0.83334450  0.66669050  0.17349150  1
  W  W0_7  1  0.83334450  0.66669050  0.67349150  1
  Se  Se0_0  1  0.16667600  0.33335300  0.20237900  1
  Se  Se0_1  1  0.16667600  0.33335300  0.70237900  1
  Se  Se0_2  1  0.16667600  0.83335300  0.20237900  1
  Se  Se0_3  1  0.16667600  0.83335300  0.70237900  1
  Se  Se0_4  1  0.66667600  0.33335300  0.20237900  1
  Se  Se0_5  1  0.66667600  0.33335300  0.70237900  1
  Se  Se0_6  1  0.66667600  0.83335300  0.20237900  1
  Se  Se0_7  1  0.66667600  0.83335300  0.70237900  1
  Se  Se1_0  1  0.16667600  0.33335300  0.14459950  1
  Se  Se1_1  1  0.16667600  0.33335300  0.64459950  1
  Se  Se1_2  1  0.16667600  0.83335300  0.14459950  1
  Se  Se1_3  1  0.16667600  0.83335300  0.64459950  1
  Se  Se1_4  1  0.66667600  0.33335300  0.14459950  1
  Se  Se1_5  1  0.66667600  0.33335300  0.64459950  1
  Se  Se1_6  1  0.66667600  0.83335300  0.14459950  1
  Se  Se1_7  1  0.66667600  0.83335300  0.64459950  1
  S  S0_0  1  0.33332000  0.16664100  0.03169850  1
  S  S0_1  1  0.33332000  0.16664100  0.53169850  1
  S  S0_2  1  0.33332000  0.66664100  0.03169850  1
  S  S0_3  1  0.33332000  0.66664100  0.53169850  1
  S  S0_4  1  0.83332000  0.16664100  0.03169850  1
  S  S0_5  1  0.83332000  0.16664100  0.53169850  1
  S  S0_6  1  0.83332000  0.66664100  0.03169850  1
  S  S0_7  1  0.83332000  0.66664100  0.53169850  1
  S  S1_0  1  0.33332300  0.16664700  0.26307000  1
  S  S1_1  1  0.33332300  0.16664700  0.76307000  1
  S  S1_2  1  0.33332300  0.66664700  0.26307000  1
  S  S1_3  1  0.33332300  0.66664700  0.76307000  1
  S  S1_4  1  0.83332300  0.16664700  0.26307000  1
  S  S1_5  1  0.83332300  0.16664700  0.76307000  1
  S  S1_6  1  0.83332300  0.66664700  0.26307000  1
  S  S1_7  1  0.83332300  0.66664700  0.76307000  1
  S  S2_0  1  0.33332250  0.16664700  0.08393350  1
  S  S2_1  1  0.33332250  0.16664700  0.58393350  1
  S  S2_2  1  0.33332250  0.66664700  0.08393350  1
  S  S2_3  1  0.33332250  0.66664700  0.58393350  1
  S  S2_4  1  0.83332250  0.16664700  0.08393350  1
  S  S2_5  1  0.83332250  0.16664700  0.58393350  1
  S  S2_6  1  0.83332250  0.66664700  0.08393350  1
  S  S2_7  1  0.83332250  0.66664700  0.58393350  1
  S  S3_0  1  0.33332150  0.16664400  0.31526350  1
  S  S3_1  1  0.33332150  0.16664400  0.81526350  1
  S  S3_2  1  0.33332150  0.66664400  0.31526350  1
  S  S3_3  1  0.33332150  0.66664400  0.81526350  1
  S  S3_4  1  0.83332150  0.16664400  0.31526350  1
  S  S3_5  1  0.83332150  0.16664400  0.81526350  1
  S  S3_6  1  0.83332150  0.66664400  0.31526350  1
  S  S3_7  1  0.83332150  0.66664400  0.81526350  1
loop_
_geom_bond_atom_site_label_1
_geom_bond_atom_site_label_2
_geom_bond_distance
_geom_bond_site_symmetry_2
Mg0_0 Mg0_6 3.231425 1_555
Mg0_0 Mg0_6 3.231425 1_445
Mg0_0 Mg0_2 3.231430 1_555
Mg0_0 Mg0_2 3.231430 1_545
Mg0_0 Mg0_4 3.231450 1_455
Mg0_0 Mg0_4 3.231450 1_555
Mg0_1 Mg0_7 3.231425 1_445
Mg0_1 Mg0_7 3.231425 1_555
Mg0_1 Mg0_3 3.231430 1_545
Mg0_1 Mg0_3 3.231430 1_555
Mg0_1 Mg0_5 3.231450 1_455
Mg0_1 Mg0_5 3.231450 1_555
Mg0_2 Mg0_4 3.231425 1_565
Mg0_2 Mg0_4 3.231425 1_455
Mg0_2 Mg0_6 3.231450 1_555
Mg0_2 Mg0_6 3.231450 1_455
Mg0_3 Mg0_5 3.231425 1_565
Mg0_3 Mg0_5 3.231425 1_455
Mg0_3 Mg0_7 3.231450 1_455
Mg0_3 Mg0_7 3.231450 1_555
Mg0_4 Mg0_6 3.231430 1_555
Mg0_4 Mg0_6 3.231430 1_545
Mg0_5 Mg0_7 3.231430 1_545
Mg0_5 Mg0_7 3.231430 1_555
Mo0_0 S0_2 2.425638 1_555
Mo0_0 S0_0 2.425666 1_555
Mo0_0 S0_4 2.425672 1_455
Mo0_0 S2_4 2.426451 1_455
Mo0_0 S2_0 2.426456 1_555
Mo0_0 S2_2 2.426460 1_555
Mo0_1 S0_3 2.425638 1_555
Mo0_1 S0_1 2.425666 1_555
Mo0_1 S0_5 2.425672 1_455
Mo0_1 S2_5 2.426451 1_455
Mo0_1 S2_1 2.426456 1_555
Mo0_1 S2_3 2.426460 1_555
Mo0_2 S0_0 2.425638 1_565
Mo0_2 S0_2 2.425666 1_555
Mo0_2 S0_6 2.425672 1_455
Mo0_2 S2_6 2.426451 1_455
Mo0_2 S2_2 2.426456 1_555
Mo0_2 S2_0 2.426460 1_565
Mo0_3 S0_1 2.425638 1_565
Mo0_3 S0_3 2.425666 1_555
Mo0_3 S0_7 2.425672 1_455
Mo0_3 S2_7 2.426451 1_455
Mo0_3 S2_3 2.426456 1_555
Mo0_3 S2_1 2.426460 1_565
Mo0_4 S0_6 2.425638 1_555
Mo0_4 S0_4 2.425666 1_555
Mo0_4 S0_0 2.425672 1_555
Mo0_4 S2_0 2.426451 1_555
Mo0_4 S2_4 2.426456 1_555
Mo0_4 S2_6 2.426460 1_555
Mo0_5 S0_7 2.425638 1_555
Mo0_5 S0_5 2.425666 1_555
Mo0_5 S0_1 2.425672 1_555
Mo0_5 S2_1 2.426451 1_555
Mo0_5 S2_5 2.426456 1_555
Mo0_5 S2_7 2.426460 1_555
Mo0_6 S0_4 2.425638 1_565
Mo0_6 S0_6 2.425666 1_555
Mo0_6 S0_2 2.425672 1_555
Mo0_6 S2_2 2.426451 1_555
Mo0_6 S2_6 2.426456 1_555
Mo0_6 S2_4 2.426460 1_565
Mo0_7 S0_5 2.425638 1_565
Mo0_7 S0_7 2.425666 1_555
Mo0_7 S0_3 2.425672 1_555
Mo0_7 S2_3 2.426451 1_555
Mo0_7 S2_7 2.426456 1_555
Mo0_7 S2_5 2.426460 1_565
Mo1_0 S3_2 2.424797 1_555
Mo1_0 S3_4 2.424804 1_455
Mo1_0 S3_0 2.424814 1_555
Mo1_0 S1_0 2.425729 1_555
Mo1_0 S1_4 2.425735 1_455
Mo1_0 S1_2 2.425739 1_555
Mo1_1 S3_3 2.424797 1_555
Mo1_1 S3_5 2.424804 1_455
Mo1_1 S3_1 2.424814 1_555
Mo1_1 S1_1 2.425729 1_555
Mo1_1 S1_5 2.425735 1_455
Mo1_1 S1_3 2.425739 1_555
Mo1_2 S3_0 2.424797 1_565
Mo1_2 S3_6 2.424804 1_455
Mo1_2 S3_2 2.424814 1_555
Mo1_2 S1_2 2.425729 1_555
Mo1_2 S1_6 2.425735 1_455
Mo1_2 S1_0 2.425739 1_565
Mo1_3 S3_1 2.424797 1_565
Mo1_3 S3_7 2.424804 1_455
Mo1_3 S3_3 2.424814 1_555
Mo1_3 S1_3 2.425729 1_555
Mo1_3 S1_7 2.425735 1_455
Mo1_3 S1_1 2.425739 1_565
Mo1_4 S3_6 2.424797 1_555
Mo1_4 S3_0 2.424804 1_555
Mo1_4 S3_4 2.424814 1_555
Mo1_4 S1_4 2.425729 1_555
Mo1_4 S1_0 2.425735 1_555
Mo1_4 S1_6 2.425739 1_555
Mo1_5 S3_7 2.424797 1_555
Mo1_5 S3_1 2.424804 1_555
Mo1_5 S3_5 2.424814 1_555
Mo1_5 S1_5 2.425729 1_555
Mo1_5 S1_1 2.425735 1_555
Mo1_5 S1_7 2.425739 1_555
Mo1_6 S3_4 2.424797 1_565
Mo1_6 S3_2 2.424804 1_555
Mo1_6 S3_6 2.424814 1_555
Mo1_6 S1_6 2.425729 1_555
Mo1_6 S1_2 2.425735 1_555
Mo1_6 S1_4 2.425739 1_565
Mo1_7 S3_5 2.424797 1_565
Mo1_7 S3_3 2.424804 1_555
Mo1_7 S3_7 2.424814 1_555
Mo1_7 S1_7 2.425729 1_555
Mo1_7 S1_3 2.425735 1_555
Mo1_7 S1_5 2.425739 1_565
Se0_0 W0_0 2.534346 1_555
Se0_0 W0_4 2.534354 1_455
Se0_0 W0_2 2.534366 1_555
Se0_1 W0_1 2.534346 1_555
Se0_1 W0_5 2.534354 1_455
Se0_1 W0_3 2.534366 1_555
Se0_2 W0_2 2.534346 1_555
Se0_2 W0_6 2.534354 1_455
Se0_2 W0_0 2.534366 1_565
Se0_3 W0_3 2.534346 1_555
Se0_3 W0_7 2.534354 1_455
Se0_3 W0_1 2.534366 1_565
Se0_4 W0_4 2.534346 1_555
Se0_4 W0_0 2.534354 1_555
Se0_4 W0_6 2.534366 1_555
Se0_5 W0_5 2.534346 1_555
Se0_5 W0_1 2.534354 1_555
Se0_5 W0_7 2.534366 1_555
Se0_6 W0_6 2.534346 1_555
Se0_6 W0_2 2.534354 1_555
Se0_6 W0_4 2.534366 1_565
Se0_7 W0_7 2.534346 1_555
Se0_7 W0_3 2.534354 1_555
Se0_7 W0_5 2.534366 1_565
Se1_0 W0_4 2.534527 1_455
Se1_0 W0_0 2.534535 1_555
Se1_0 W0_2 2.534547 1_555
Se1_1 W0_5 2.534527 1_455
Se1_1 W0_1 2.534535 1_555
Se1_1 W0_3 2.534547 1_555
Se1_2 W0_6 2.534527 1_455
Se1_2 W0_2 2.534535 1_555
Se1_2 W0_0 2.534547 1_565
Se1_3 W0_7 2.534527 1_455
Se1_3 W0_3 2.534535 1_555
Se1_3 W0_1 2.534547 1_565
Se1_4 W0_0 2.534527 1_555
Se1_4 W0_4 2.534535 1_555
Se1_4 W0_6 2.534547 1_555
Se1_5 W0_1 2.534527 1_555
Se1_5 W0_5 2.534535 1_555
Se1_5 W0_7 2.534547 1_555
Se1_6 W0_2 2.534527 1_555
Se1_6 W0_6 2.534535 1_555
Se1_6 W0_4 2.534547 1_565
Se1_7 W0_3 2.534527 1_555
Se1_7 W0_7 2.534535 1_555
Se1_7 W0_5 2.534547 1_565
