# generated using pymatgen
data_RbFe(SeO4)2
_symmetry_space_group_name_H-M   'P 1'
_cell_length_a   9.11341300
_cell_length_b   10.32836960
_cell_length_c   10.32836909
_cell_angle_alpha   61.25463165
_cell_angle_beta   90.00125199
_cell_angle_gamma   90.00117472
_symmetry_Int_Tables_number   1
_chemical_formula_structural   RbFe(SeO4)2
_chemical_formula_sum   'Rb4 Fe4 Se8 O32'
_cell_volume   852.36987195
_cell_formula_units_Z   4
loop_
 _symmetry_equiv_pos_site_id
 _symmetry_equiv_pos_as_xyz
  1  'x, y, z'
loop_
 _atom_site_type_symbol
 _atom_site_label
 _atom_site_symmetry_multiplicity
 _atom_site_fract_x
 _atom_site_fract_y
 _atom_site_fract_z
 _atom_site_occupancy
  Rb  Rb0  1  0.50000800  0.24999500  0.75000600  1
  Rb  Rb1  1  0.50000100  0.74999800  0.25000000  1
  Rb  Rb2  1  0.00000000  0.99999500  0.00000600  1
  Rb  Rb3  1  0.99999800  0.49999700  0.50000300  1
  Fe  Fe0  1  0.49999900  0.99999600  0.50000300  1
  Fe  Fe1  1  0.00000200  0.74998100  0.75001800  1
  Fe  Fe2  1  0.50000100  0.49999600  0.00000400  1
  Fe  Fe3  1  0.99999800  0.24998400  0.25001800  1
  Se  Se0  1  0.33339000  0.85326700  0.85328100  1
  Se  Se1  1  0.33339000  0.35326700  0.35328100  1
  Se  Se2  1  0.83340600  0.60326500  0.10328700  1
  Se  Se3  1  0.83340400  0.10325700  0.60329400  1
  Se  Se4  1  0.16659400  0.39671300  0.89673500  1
  Se  Se5  1  0.16659600  0.89670600  0.39674400  1
  Se  Se6  1  0.66661100  0.14672000  0.14673300  1
  Se  Se7  1  0.66661000  0.64671900  0.64673300  1
  O  O0  1  0.16665400  0.30413100  0.80413200  1
  O  O1  1  0.16665700  0.80413000  0.30413000  1
  O  O2  1  0.66665100  0.05413300  0.05413100  1
  O  O3  1  0.66665300  0.55413400  0.55413100  1
  O  O4  1  0.33334800  0.94587000  0.94586600  1
  O  O5  1  0.33334800  0.44586900  0.44586700  1
  O  O6  1  0.83334300  0.69586700  0.19587000  1
  O  O7  1  0.83334200  0.19587000  0.69587000  1
  O  O8  1  0.45746300  0.92991400  0.71657700  1
  O  O9  1  0.45746100  0.42991700  0.21657400  1
  O  O10  1  0.95744400  0.67991300  0.96655700  1
  O  O11  1  0.95744200  0.17991500  0.46655800  1
  O  O12  1  0.16463900  0.86297400  0.78347700  1
  O  O13  1  0.16464000  0.36297200  0.28347800  1
  O  O14  1  0.66463000  0.61300200  0.03349400  1
  O  O15  1  0.66463400  0.11299900  0.53349600  1
  O  O16  1  0.37796700  0.67682800  0.96963900  1
  O  O17  1  0.37796800  0.17682500  0.46964500  1
  O  O18  1  0.87794500  0.42682300  0.21963000  1
  O  O19  1  0.87794600  0.92682100  0.71963200  1
  O  O20  1  0.04255600  0.53344200  0.82008700  1
  O  O21  1  0.04255800  0.03344400  0.32008400  1
  O  O22  1  0.54253700  0.28342600  0.07008200  1
  O  O23  1  0.54253600  0.78342200  0.57008700  1
  O  O24  1  0.12205400  0.28037000  0.07317800  1
  O  O25  1  0.12205300  0.78036700  0.57317900  1
  O  O26  1  0.62203300  0.03035400  0.32317400  1
  O  O27  1  0.62203200  0.53035900  0.82317100  1
  O  O28  1  0.33537000  0.46650500  0.88700200  1
  O  O29  1  0.33536500  0.96650400  0.38700100  1
  O  O30  1  0.83536000  0.21652200  0.13702800  1
  O  O31  1  0.83536100  0.71651800  0.63703100  1
loop_
_geom_bond_atom_site_label_1
_geom_bond_atom_site_label_2
_geom_bond_distance
_geom_bond_site_symmetry_2
Fe0 O17 2.029770 1_565
Fe0 O26 2.029787 1_565
Fe0 O23 2.029884 1_555
Fe0 O8 2.029887 1_555
Fe0 O29 2.030074 1_555
Fe0 O15 2.030093 1_565
Fe1 O20 2.029604 1_555
Fe1 O10 2.029614 1_455
Fe1 O25 2.029876 1_555
Fe1 O12 2.029882 1_555
Fe1 O31 2.029885 1_455
Fe1 O19 2.029908 1_455
Fe2 O16 2.029790 1_554
Fe2 O27 2.029791 1_554
Fe2 O22 2.029855 1_555
Fe2 O9 2.029860 1_555
Fe2 O28 2.030049 1_554
Fe2 O14 2.030059 1_555
Fe3 O11 2.029618 1_555
Fe3 O21 2.029630 1_655
Fe3 O18 2.029879 1_555
Fe3 O30 2.029881 1_555
Fe3 O13 2.029886 1_655
Fe3 O24 2.029910 1_655
O0 Se4 1.645842 1_555
O0 Rb3 3.186536 1_455
O0 Rb2 3.186593 1_546
O0 Rb0 3.186745 1_555
O1 Se5 1.645886 1_555
O1 Rb2 3.186504 1_555
O1 Rb3 3.186592 1_455
O1 Rb1 3.186658 1_555
O2 Se6 1.645877 1_555
O2 Rb0 3.186445 1_554
O2 Rb1 3.186561 1_545
O2 Rb2 3.186704 1_645
O3 Se7 1.645860 1_555
O3 Rb1 3.186529 1_555
O3 Rb0 3.186577 1_555
O3 Rb3 3.186675 1_555
O4 Se0 1.645868 1_555
O4 Rb0 3.186519 1_565
O4 Rb1 3.186568 1_556
O4 Rb2 3.186701 1_556
O5 Se1 1.645868 1_555
O5 Rb1 3.186528 1_555
O5 Rb0 3.186637 1_555
O5 Rb3 3.186715 1_455
O6 Se2 1.645842 1_555
O6 Rb2 3.186534 1_655
O6 Rb3 3.186567 1_555
O6 Rb1 3.186638 1_555
O7 Se3 1.645877 1_555
O7 Rb3 3.186527 1_555
O7 Rb0 3.186568 1_555
O7 Rb2 3.186609 1_646
O8 Se0 1.680398 1_555
O8 Rb0 3.506625 1_565
O9 Se1 1.680406 1_555
O9 Rb1 3.506603 1_555
O10 Se2 1.680348 1_556
O10 Rb2 3.506761 1_656
O11 Se3 1.680393 1_555
O11 Rb3 3.506738 1_555
O12 Se0 1.680893 1_555
O12 Rb2 3.507123 1_556
O13 Se1 1.680883 1_555
O13 Rb3 3.507130 1_455
O14 Se2 1.681010 1_555
O14 Rb1 3.506703 1_555
O15 Se3 1.680973 1_555
O15 Rb0 3.506726 1_555
O16 Se0 1.680401 1_555
O16 Rb1 3.506787 1_556
O17 Se1 1.680438 1_555
O17 Rb0 3.506804 1_555
O18 Se2 1.680311 1_555
O18 Rb3 3.506982 1_555
O19 Se3 1.680261 1_565
O19 Rb2 3.506995 1_656
O20 Se4 1.680340 1_555
O20 Rb3 3.506760 1_455
O21 Se5 1.680406 1_545
O21 Rb2 3.506721 1_545
O22 Se6 1.680417 1_555
O22 Rb0 3.506569 1_554
O23 Se7 1.680395 1_555
O23 Rb1 3.506647 1_555
O24 Se4 1.680321 1_554
O24 Rb2 3.506993 1_545
O25 Se5 1.680259 1_555
O25 Rb3 3.506973 1_455
O26 Se6 1.680436 1_555
O26 Rb1 3.506759 1_545
O27 Se7 1.680401 1_555
O27 Rb0 3.506756 1_555
O28 Se4 1.681013 1_555
O28 Rb0 3.506772 1_555
O29 Se5 1.680965 1_555
O29 Rb1 3.506767 1_555
O30 Se6 1.680872 1_555
O30 Rb2 3.507117 1_645
O31 Se7 1.680881 1_555
O31 Rb3 3.507097 1_555
