# generated using pymatgen
data_CuMo3I7
_symmetry_space_group_name_H-M   'P 1'
_cell_length_a   11.42842300
_cell_length_b   16.60480300
_cell_length_c   17.28185100
_cell_angle_alpha   90.00000000
_cell_angle_beta   90.00000000
_cell_angle_gamma   90.00000000
_symmetry_Int_Tables_number   1
_chemical_formula_structural   CuMo3I7
_chemical_formula_sum   'Cu8 Mo24 I56'
_cell_volume   3279.52005046
_cell_formula_units_Z   8
loop_
 _symmetry_equiv_pos_site_id
 _symmetry_equiv_pos_as_xyz
  1  'x, y, z'
loop_
 _atom_site_type_symbol
 _atom_site_label
 _atom_site_symmetry_multiplicity
 _atom_site_fract_x
 _atom_site_fract_y
 _atom_site_fract_z
 _atom_site_occupancy
  Cu  Cu0  1  0.36070200  0.71805000  0.20858000  1
  Cu  Cu1  1  0.86070200  0.28195000  0.29142000  1
  Cu  Cu2  1  0.13929800  0.21805000  0.79142000  1
  Cu  Cu3  1  0.63929800  0.78195000  0.70858000  1
  Cu  Cu4  1  0.63929800  0.28195000  0.79142000  1
  Cu  Cu5  1  0.13929800  0.71805000  0.70858000  1
  Cu  Cu6  1  0.86070200  0.78195000  0.20858000  1
  Cu  Cu7  1  0.36070200  0.21805000  0.29142000  1
  Mo  Mo0  1  0.63737000  0.96153300  0.05054600  1
  Mo  Mo1  1  0.13737000  0.03846700  0.44945400  1
  Mo  Mo2  1  0.86263000  0.46153300  0.94945400  1
  Mo  Mo3  1  0.36263000  0.53846700  0.55054600  1
  Mo  Mo4  1  0.36263000  0.03846700  0.94945400  1
  Mo  Mo5  1  0.86263000  0.96153300  0.55054600  1
  Mo  Mo6  1  0.13737000  0.53846700  0.05054600  1
  Mo  Mo7  1  0.63737000  0.46153300  0.44945400  1
  Mo  Mo8  1  0.40568300  0.93915100  0.06915700  1
  Mo  Mo9  1  0.90568300  0.06084900  0.43084300  1
  Mo  Mo10  1  0.09431700  0.43915100  0.93084300  1
  Mo  Mo11  1  0.59431700  0.56084900  0.56915700  1
  Mo  Mo12  1  0.59431700  0.06084900  0.93084300  1
  Mo  Mo13  1  0.09431700  0.93915100  0.56915700  1
  Mo  Mo14  1  0.90568300  0.56084900  0.06915700  1
  Mo  Mo15  1  0.40568300  0.43915100  0.43084300  1
  Mo  Mo16  1  0.49443300  0.08912600  0.06894900  1
  Mo  Mo17  1  0.99443300  0.91087400  0.43105100  1
  Mo  Mo18  1  0.00556700  0.58912600  0.93105100  1
  Mo  Mo19  1  0.50556700  0.41087400  0.56894900  1
  Mo  Mo20  1  0.50556700  0.91087400  0.93105100  1
  Mo  Mo21  1  0.00556700  0.08912600  0.56894900  1
  Mo  Mo22  1  0.99443300  0.41087400  0.06894900  1
  Mo  Mo23  1  0.49443300  0.58912600  0.43105100  1
  I  I0  1  0.55044800  0.80457600  0.05374500  1
  I  I1  1  0.05044800  0.19542400  0.44625500  1
  I  I2  1  0.94955200  0.30457600  0.94625500  1
  I  I3  1  0.44955200  0.69542400  0.55374500  1
  I  I4  1  0.44955200  0.19542400  0.94625500  1
  I  I5  1  0.94955200  0.80457600  0.55374500  1
  I  I6  1  0.05044800  0.69542400  0.05374500  1
  I  I7  1  0.55044800  0.30457600  0.44625500  1
  I  I8  1  0.53917300  0.98958700  0.19576800  1
  I  I9  1  0.03917300  0.01041300  0.30423200  1
  I  I10  1  0.96082700  0.48958700  0.80423200  1
  I  I11  1  0.46082700  0.51041300  0.69576800  1
  I  I12  1  0.46082700  0.01041300  0.80423200  1
  I  I13  1  0.96082700  0.98958700  0.69576800  1
  I  I14  1  0.03917300  0.51041300  0.19576800  1
  I  I15  1  0.53917300  0.48958700  0.30423200  1
  I  I16  1  0.25346700  0.06938600  0.09155200  1
  I  I17  1  0.75346700  0.93061400  0.40844800  1
  I  I18  1  0.24653300  0.56938600  0.90844800  1
  I  I19  1  0.74653300  0.43061400  0.59155200  1
  I  I20  1  0.74653300  0.93061400  0.90844800  1
  I  I21  1  0.24653300  0.06938600  0.59155200  1
  I  I22  1  0.75346700  0.43061400  0.09155200  1
  I  I23  1  0.25346700  0.56938600  0.40844800  1
  I  I24  1  0.26523100  0.88391600  0.94715800  1
  I  I25  1  0.76523100  0.11608400  0.55284200  1
  I  I26  1  0.23476900  0.38391600  0.05284200  1
  I  I27  1  0.73476900  0.61608400  0.44715800  1
  I  I28  1  0.73476900  0.11608400  0.05284200  1
  I  I29  1  0.23476900  0.88391600  0.44715800  1
  I  I30  1  0.76523100  0.61608400  0.94715800  1
  I  I31  1  0.26523100  0.38391600  0.55284200  1
  I  I32  1  0.48616700  0.22896500  0.17015900  1
  I  I33  1  0.98616700  0.77103500  0.32984100  1
  I  I34  1  0.01383300  0.72896500  0.82984100  1
  I  I35  1  0.51383300  0.27103500  0.67015900  1
  I  I36  1  0.51383300  0.77103500  0.82984100  1
  I  I37  1  0.01383300  0.22896500  0.67015900  1
  I  I38  1  0.98616700  0.27103500  0.17015900  1
  I  I39  1  0.48616700  0.72896500  0.32984100  1
  I  I40  1  0.85274400  0.90806600  0.12643500  1
  I  I41  1  0.35274400  0.09193400  0.37356500  1
  I  I42  1  0.64725600  0.40806600  0.87356500  1
  I  I43  1  0.14725600  0.59193400  0.62643500  1
  I  I44  1  0.14725600  0.09193400  0.87356500  1
  I  I45  1  0.64725600  0.90806600  0.62643500  1
  I  I46  1  0.35274400  0.59193400  0.12643500  1
  I  I47  1  0.85274400  0.40806600  0.37356500  1
  I  I48  1  0.25819900  0.85033500  0.17526400  1
  I  I49  1  0.75819900  0.14966500  0.32473600  1
  I  I50  1  0.24180100  0.35033500  0.82473600  1
  I  I51  1  0.74180100  0.64966500  0.67526400  1
  I  I52  1  0.74180100  0.14966500  0.82473600  1
  I  I53  1  0.24180100  0.85033500  0.67526400  1
  I  I54  1  0.75819900  0.64966500  0.17526400  1
  I  I55  1  0.25819900  0.35033500  0.32473600  1
loop_
_geom_bond_atom_site_label_1
_geom_bond_atom_site_label_2
_geom_bond_distance
_geom_bond_site_symmetry_2
Cu0 I46 2.531595 1_555
Cu0 I39 2.545668 1_555
Cu0 I48 2.555131 1_555
Cu1 I47 2.531595 1_555
Cu1 I38 2.545668 1_555
Cu1 I49 2.555131 1_555
Cu2 I44 2.531595 1_555
Cu2 I37 2.545668 1_555
Cu2 I50 2.555131 1_555
Cu3 I45 2.531595 1_555
Cu3 I36 2.545668 1_555
Cu3 I51 2.555131 1_555
Cu4 I42 2.531595 1_555
Cu4 I35 2.545668 1_555
Cu4 I52 2.555131 1_555
Cu5 I43 2.531595 1_555
Cu5 I34 2.545668 1_555
Cu5 I53 2.555131 1_555
Cu6 I40 2.531595 1_555
Cu6 I33 2.545668 1_555
Cu6 I54 2.555131 1_555
Cu7 I41 2.531595 1_555
Cu7 I32 2.545668 1_555
Cu7 I55 2.555131 1_555
Mo0 Mo20 2.690938 1_554
Mo0 Mo12 2.690943 1_564
Mo0 Mo8 2.693048 1_555
Mo0 Mo16 2.694127 1_565
Mo1 Mo21 2.690938 1_555
Mo1 Mo13 2.690943 1_545
Mo1 Mo9 2.693048 1_455
Mo1 Mo17 2.694127 1_445
Mo2 Mo22 2.690938 1_556
Mo4 Mo8 2.690943 1_546
Mo5 Mo9 2.690943 1_565
Mo10 Mo22 2.687004 1_456
Mo10 Mo18 2.688937 1_555
Mo10 Mo6 2.690943 1_556
Mo10 Mo2 2.693048 1_455
Mo11 Mo23 2.687004 1_555
Mo11 Mo19 2.688937 1_555
Mo11 Mo7 2.690943 1_555
Mo11 Mo3 2.693048 1_555
Mo12 Mo16 2.687004 1_556
Mo12 Mo20 2.688937 1_545
Mo12 Mo4 2.693048 1_555
Mo13 Mo17 2.687004 1_455
Mo13 Mo21 2.688937 1_565
Mo13 Mo5 2.693048 1_455
Mo14 Mo18 2.687004 1_654
Mo14 Mo22 2.688937 1_555
Mo14 Mo2 2.690943 1_554
Mo14 Mo6 2.693048 1_655
Mo15 Mo19 2.687004 1_555
Mo15 Mo23 2.688937 1_555
Mo15 Mo3 2.690943 1_555
Mo15 Mo7 2.693048 1_555
Mo16 Mo8 2.688937 1_545
Mo16 Mo4 2.690938 1_554
Mo17 Mo9 2.688937 1_565
Mo17 Mo5 2.690938 1_555
Mo18 Mo6 2.690938 1_556
Mo18 Mo2 2.694127 1_455
Mo19 Mo7 2.690938 1_555
Mo19 Mo3 2.694127 1_555
Mo20 Mo8 2.687004 1_556
Mo20 Mo4 2.694127 1_565
Mo21 Mo9 2.687004 1_455
Mo21 Mo5 2.694127 1_445
Mo22 Mo6 2.694127 1_655
Mo23 Mo3 2.690938 1_555
Mo23 Mo7 2.694127 1_555
I0 Mo0 2.789686 1_555
I0 Mo8 2.793116 1_555
I0 Mo20 2.806158 1_554
I1 Mo1 2.789686 1_555
I1 Mo9 2.793116 1_455
I1 Mo21 2.806158 1_555
I2 Mo2 2.789686 1_555
I2 Mo10 2.793116 1_655
I2 Mo22 2.806158 1_556
I3 Mo3 2.789686 1_555
I3 Mo11 2.793116 1_555
I3 Mo23 2.806158 1_555
I4 Mo4 2.789686 1_555
I4 Mo12 2.793116 1_555
I4 Mo16 2.806158 1_556
I5 Mo5 2.789686 1_555
I5 Mo13 2.793116 1_655
I5 Mo17 2.806158 1_555
I6 Mo6 2.789686 1_555
I6 Mo14 2.793116 1_455
I6 Mo18 2.806158 1_554
I7 Mo7 2.789686 1_555
I7 Mo15 2.793116 1_555
I7 Mo19 2.806158 1_555
I8 Mo0 2.788375 1_555
I8 Mo16 2.792252 1_565
I8 Mo8 2.795788 1_555
I9 Mo1 2.788375 1_555
I9 Mo17 2.792252 1_445
I9 Mo9 2.795788 1_455
I10 Mo2 2.788375 1_555
I10 Mo18 2.792252 1_655
I10 Mo10 2.795788 1_655
I11 Mo3 2.788375 1_555
I11 Mo19 2.792252 1_555
I11 Mo11 2.795788 1_555
I12 Mo4 2.788375 1_555
I12 Mo20 2.792252 1_545
I12 Mo12 2.795788 1_555
I13 Mo5 2.788375 1_555
I13 Mo21 2.792252 1_665
I13 Mo13 2.795788 1_655
I14 Mo6 2.788375 1_555
I14 Mo22 2.792252 1_455
I14 Mo14 2.795788 1_455
I15 Mo7 2.788375 1_555
I15 Mo23 2.792252 1_555
I15 Mo15 2.795788 1_555
I16 Mo16 2.800674 1_555
I16 Mo4 2.801881 1_554
I16 Mo8 2.802228 1_545
I17 Mo17 2.800674 1_555
I17 Mo5 2.801881 1_555
I17 Mo9 2.802228 1_565
I18 Mo18 2.800674 1_555
I18 Mo6 2.801881 1_556
I18 Mo10 2.802228 1_555
I19 Mo19 2.800674 1_555
I19 Mo7 2.801881 1_555
I19 Mo11 2.802228 1_555
I20 Mo20 2.800674 1_555
I20 Mo0 2.801881 1_556
I20 Mo12 2.802228 1_565
I21 Mo21 2.800674 1_555
I21 Mo1 2.801881 1_555
I21 Mo13 2.802228 1_545
I22 Mo22 2.800674 1_555
I22 Mo2 2.801881 1_554
I22 Mo14 2.802228 1_555
I23 Mo23 2.800674 1_555
I23 Mo3 2.801881 1_555
I23 Mo15 2.802228 1_555
I24 Mo20 2.796785 1_555
I24 Mo4 2.797578 1_565
I24 Mo8 2.804087 1_556
I25 Mo21 2.796785 1_655
I25 Mo5 2.797578 1_545
I25 Mo9 2.804087 1_555
I26 Mo22 2.796785 1_455
I26 Mo6 2.797578 1_555
I26 Mo10 2.804087 1_554
I27 Mo23 2.796785 1_555
I27 Mo7 2.797578 1_555
I27 Mo11 2.804087 1_555
I28 Mo16 2.796785 1_555
I28 Mo0 2.797578 1_545
I28 Mo12 2.804087 1_554
I29 Mo17 2.796785 1_455
I29 Mo1 2.797578 1_565
I29 Mo13 2.804087 1_555
I30 Mo18 2.796785 1_655
I30 Mo2 2.797578 1_555
I30 Mo14 2.804087 1_556
I31 Mo19 2.796785 1_555
I31 Mo3 2.797578 1_555
I31 Mo15 2.804087 1_555
I32 Mo16 2.908598 1_555
I33 Mo17 2.908598 1_555
I34 Mo18 2.908598 1_555
I35 Mo19 2.908598 1_555
I36 Mo20 2.908598 1_555
I37 Mo21 2.908598 1_555
I38 Mo22 2.908598 1_555
I39 Mo23 2.908598 1_555
I40 Mo0 2.926886 1_555
I41 Mo1 2.926886 1_555
I42 Mo2 2.926886 1_555
I43 Mo3 2.926886 1_555
I44 Mo4 2.926886 1_555
I45 Mo5 2.926886 1_555
I46 Mo6 2.926886 1_555
I47 Mo7 2.926886 1_555
I48 Mo8 2.894554 1_555
I49 Mo9 2.894554 1_555
I50 Mo10 2.894554 1_555
I51 Mo11 2.894554 1_555
I52 Mo12 2.894554 1_555
I53 Mo13 2.894554 1_555
I54 Mo14 2.894554 1_555
I55 Mo15 2.894554 1_555
