# generated using pymatgen
data_CuP2(HO)4
_symmetry_space_group_name_H-M   'P 1'
_cell_length_a   5.52199300
_cell_length_b   6.40165900
_cell_length_c   14.37112900
_cell_angle_alpha   90.00000000
_cell_angle_beta   90.00000000
_cell_angle_gamma   90.00000000
_symmetry_Int_Tables_number   1
_chemical_formula_structural   CuP2(HO)4
_chemical_formula_sum   'Cu4 P8 H16 O16'
_cell_volume   508.01820565
_cell_formula_units_Z   4
loop_
 _symmetry_equiv_pos_site_id
 _symmetry_equiv_pos_as_xyz
  1  'x, y, z'
loop_
 _atom_site_type_symbol
 _atom_site_label
 _atom_site_symmetry_multiplicity
 _atom_site_fract_x
 _atom_site_fract_y
 _atom_site_fract_z
 _atom_site_occupancy
  Cu  Cu0  1  0.50000000  0.00000000  0.50000000  1
  Cu  Cu1  1  0.00000000  0.50000000  0.50000000  1
  Cu  Cu2  1  0.50000000  0.50000000  0.00000000  1
  Cu  Cu3  1  0.00000000  0.00000000  0.00000000  1
  P  P0  1  0.94537500  0.11204900  0.37154200  1
  P  P1  1  0.44537500  0.38795100  0.62845800  1
  P  P2  1  0.05462500  0.61204900  0.12845800  1
  P  P3  1  0.55462500  0.88795100  0.87154200  1
  P  P4  1  0.05462500  0.88795100  0.62845800  1
  P  P5  1  0.55462500  0.61204900  0.37154200  1
  P  P6  1  0.94537500  0.38795100  0.87154200  1
  P  P7  1  0.44537500  0.11204900  0.12845800  1
  H  H0  1  0.42893300  0.42249600  0.35699000  1
  H  H1  1  0.07106700  0.92249600  0.35699000  1
  H  H2  1  0.57106700  0.57750400  0.64301000  1
  H  H3  1  0.92893300  0.42249600  0.14301000  1
  H  H4  1  0.42893300  0.07750400  0.85699000  1
  H  H5  1  0.92893300  0.07750400  0.64301000  1
  H  H6  1  0.07106700  0.57750400  0.85699000  1
  H  H7  1  0.57106700  0.92249600  0.14301000  1
  H  H8  1  0.96668200  0.22067300  0.28610800  1
  H  H9  1  0.46668200  0.27932700  0.71389200  1
  H  H10  1  0.03331800  0.72067300  0.21389200  1
  H  H11  1  0.53331800  0.77932700  0.78610800  1
  H  H12  1  0.46668200  0.22067300  0.21389200  1
  H  H13  1  0.96668200  0.27932700  0.78610800  1
  H  H14  1  0.53331800  0.72067300  0.28610800  1
  H  H15  1  0.03331800  0.77932700  0.71389200  1
  O  O0  1  0.82582100  0.93021700  0.88437400  1
  O  O1  1  0.32582100  0.56978300  0.11562600  1
  O  O2  1  0.17417900  0.43021700  0.61562600  1
  O  O3  1  0.67417900  0.06978300  0.38437400  1
  O  O4  1  0.58787800  0.22441600  0.05146200  1
  O  O5  1  0.08787800  0.27558400  0.94853800  1
  O  O6  1  0.08787800  0.22441600  0.44853800  1
  O  O7  1  0.41212200  0.72441600  0.44853800  1
  O  O8  1  0.91212200  0.77558400  0.55146200  1
  O  O9  1  0.41212200  0.77558400  0.94853800  1
  O  O10  1  0.91212200  0.72441600  0.05146200  1
  O  O11  1  0.58787800  0.27558400  0.55146200  1
  O  O12  1  0.17417900  0.06978300  0.11562600  1
  O  O13  1  0.67417900  0.43021700  0.88437400  1
  O  O14  1  0.82582100  0.56978300  0.38437400  1
  O  O15  1  0.32582100  0.93021700  0.61562600  1
loop_
_geom_bond_atom_site_label_1
_geom_bond_atom_site_label_2
_geom_bond_distance
_geom_bond_site_symmetry_2
Cu0 O3 1.971249 1_555
Cu0 O15 1.971249 1_545
Cu0 O11 1.973530 1_555
Cu0 O7 1.973530 1_545
Cu1 O14 1.971249 1_455
Cu1 O2 1.971249 1_555
Cu1 O8 1.973530 1_455
Cu1 O6 1.973530 1_555
Cu2 O1 1.971249 1_555
Cu2 O13 1.971249 1_554
Cu2 O9 1.973530 1_554
Cu2 O4 1.973530 1_555
Cu3 O12 1.971249 1_555
Cu3 O0 1.971249 1_444
Cu3 O5 1.973530 1_554
Cu3 O10 1.973530 1_445
H0 P5 1.413484 1_555
H1 P0 1.413484 1_465
H2 P1 1.413484 1_555
H3 P2 1.413484 1_655
H4 P3 1.413484 1_545
H5 P4 1.413484 1_645
H6 P6 1.413484 1_455
H7 P7 1.413484 1_565
H8 P0 1.415923 1_555
H9 P1 1.415923 1_555
H10 P2 1.415923 1_555
H11 P3 1.415923 1_555
H12 P7 1.415923 1_555
H13 P6 1.415923 1_555
H14 P5 1.415923 1_555
H15 P4 1.415923 1_555
O0 P3 1.532922 1_555
O1 P2 1.532922 1_555
O2 P1 1.532922 1_555
O3 P0 1.532922 1_555
O4 P7 1.536568 1_555
O5 P6 1.536568 1_455
O6 P0 1.536568 1_455
O7 P5 1.536568 1_555
O8 P4 1.536568 1_655
O9 P3 1.536568 1_555
O10 P2 1.536568 1_655
O11 P1 1.536568 1_555
O12 P7 1.532922 1_555
O13 P6 1.532922 1_555
O14 P5 1.532922 1_555
O15 P4 1.532922 1_555
