# generated using pymatgen
data_Na3ZrZn(PO4)3
_symmetry_space_group_name_H-M   'P 1'
_cell_length_a   15.71708199
_cell_length_b   9.10676079
_cell_length_c   8.95335169
_cell_angle_alpha   90.00000000
_cell_angle_beta   124.68215718
_cell_angle_gamma   90.00000000
_symmetry_Int_Tables_number   1
_chemical_formula_structural   Na3ZrZn(PO4)3
_chemical_formula_sum   'Na12 Zr4 Zn4 P12 O48'
_cell_volume   1053.81171705
_cell_formula_units_Z   4
loop_
 _symmetry_equiv_pos_site_id
 _symmetry_equiv_pos_as_xyz
  1  'x, y, z'
loop_
 _atom_site_type_symbol
 _atom_site_label
 _atom_site_symmetry_multiplicity
 _atom_site_fract_x
 _atom_site_fract_y
 _atom_site_fract_z
 _atom_site_occupancy
  Na  Na0  1  0.25057788  0.72299343  0.97972069  1
  Na  Na1  1  0.75057788  0.77700657  0.47972069  1
  Na  Na2  1  0.75057788  0.22299343  0.97972069  1
  Na  Na3  1  0.25057788  0.27700657  0.47972069  1
  Na  Na4  1  0.50271496  0.11341209  0.74473014  1
  Na  Na5  1  0.50271496  0.88658791  0.24473014  1
  Na  Na6  1  0.00271496  0.61341209  0.74473014  1
  Na  Na7  1  0.00271496  0.38658791  0.24473014  1
  Na  Na8  1  0.18513080  0.94418397  0.28787080  1
  Na  Na9  1  0.18513080  0.05581603  0.78787080  1
  Na  Na10  1  0.68513080  0.44418397  0.28787080  1
  Na  Na11  1  0.68513080  0.55581603  0.78787080  1
  Zr  Zr0  1  0.89408160  0.75861901  0.94121224  1
  Zr  Zr1  1  0.89408160  0.24138099  0.44121224  1
  Zr  Zr2  1  0.39408160  0.25861901  0.94121224  1
  Zr  Zr3  1  0.39408160  0.74138099  0.44121224  1
  Zn  Zn0  1  0.09699794  0.75108227  0.54772608  1
  Zn  Zn1  1  0.09699794  0.24891773  0.04772608  1
  Zn  Zn2  1  0.59699794  0.25108227  0.54772608  1
  Zn  Zn3  1  0.59699794  0.74891773  0.04772608  1
  P  P0  1  0.00453769  0.94952863  0.76280084  1
  P  P1  1  0.00453769  0.05047137  0.26280084  1
  P  P2  1  0.50453769  0.44952863  0.76280084  1
  P  P3  1  0.50453769  0.55047137  0.26280084  1
  P  P4  1  0.35157438  0.89851244  0.76222297  1
  P  P5  1  0.64392274  0.89503530  0.74529503  1
  P  P6  1  0.64392274  0.10496470  0.24529503  1
  P  P7  1  0.35157438  0.10148756  0.26222297  1
  P  P8  1  0.85157438  0.39851244  0.76222297  1
  P  P9  1  0.14392274  0.39503530  0.74529503  1
  P  P10  1  0.14392274  0.60496470  0.24529503  1
  P  P11  1  0.85157438  0.60148756  0.26222297  1
  O  O0  1  0.15112896  0.56216047  0.73996750  1
  O  O1  1  0.84627950  0.57295599  0.75503921  1
  O  O2  1  0.84627950  0.42704401  0.25503921  1
  O  O3  1  0.15112896  0.43783953  0.23996750  1
  O  O4  1  0.65112896  0.06216047  0.73996750  1
  O  O5  1  0.34627950  0.07295599  0.75503921  1
  O  O6  1  0.34627950  0.92704401  0.25503921  1
  O  O7  1  0.65112896  0.93783953  0.23996750  1
  O  O8  1  0.44620300  0.55662093  0.59629254  1
  O  O9  1  0.56884582  0.53768239  0.93850902  1
  O  O10  1  0.56884582  0.46231761  0.43850902  1
  O  O11  1  0.44620300  0.44337907  0.09629254  1
  O  O12  1  0.94620300  0.05662093  0.59629254  1
  O  O13  1  0.06884582  0.03768239  0.93850902  1
  O  O14  1  0.06884582  0.96231761  0.43850902  1
  O  O15  1  0.94620300  0.94337907  0.09629254  1
  O  O16  1  0.25626262  0.84188209  0.75136724  1
  O  O17  1  0.73531159  0.81735357  0.74895001  1
  O  O18  1  0.73531159  0.18264643  0.24895001  1
  O  O19  1  0.25626262  0.15811791  0.25136724  1
  O  O20  1  0.75626262  0.34188209  0.75136724  1
  O  O21  1  0.23531159  0.31735357  0.74895001  1
  O  O22  1  0.23531159  0.68264643  0.24895001  1
  O  O23  1  0.75626262  0.65811791  0.25136724  1
  O  O24  1  0.34998311  0.85621347  0.58889267  1
  O  O25  1  0.64557451  0.84445075  0.90907261  1
  O  O26  1  0.64557451  0.15554925  0.40907261  1
  O  O27  1  0.34998311  0.14378653  0.08889267  1
  O  O28  1  0.84998311  0.35621347  0.58889267  1
  O  O29  1  0.14557451  0.34445075  0.90907261  1
  O  O30  1  0.14557451  0.65554925  0.40907261  1
  O  O31  1  0.84998311  0.64378653  0.08889267  1
  O  O32  1  0.45256086  0.84853186  0.93402861  1
  O  O33  1  0.54192737  0.83573548  0.56724546  1
  O  O34  1  0.54192737  0.16426452  0.06724546  1
  O  O35  1  0.45256086  0.15146814  0.43402861  1
  O  O36  1  0.95256086  0.34853186  0.93402861  1
  O  O37  1  0.04192737  0.33573548  0.56724546  1
  O  O38  1  0.04192737  0.66426452  0.06724546  1
  O  O39  1  0.95256086  0.65146814  0.43402861  1
  O  O40  1  0.07760979  0.84627927  0.74807981  1
  O  O41  1  0.91877487  0.85146652  0.75097653  1
  O  O42  1  0.91877487  0.14853348  0.25097653  1
  O  O43  1  0.07760979  0.15372073  0.24807981  1
  O  O44  1  0.57760979  0.34627927  0.74807981  1
  O  O45  1  0.41877487  0.35146652  0.75097653  1
  O  O46  1  0.41877487  0.64853348  0.25097653  1
  O  O47  1  0.57760979  0.65372073  0.24807981  1
loop_
_geom_bond_atom_site_label_1
_geom_bond_atom_site_label_2
_geom_bond_distance
_geom_bond_site_symmetry_2
Na0 O0 2.319014 1_555
Na0 O16 2.359701 1_555
Na0 O46 2.457638 1_556
Na0 O40 2.556536 1_555
Na0 O22 2.580956 1_556
Na0 O6 2.751773 1_556
Na1 O7 2.319014 1_555
Na1 O23 2.359701 1_555
Na1 O41 2.457638 1_555
Na1 O47 2.556536 1_555
Na1 O17 2.580956 1_555
Na1 O1 2.751773 1_555
Na2 O4 2.319014 1_555
Na2 O20 2.359701 1_555
Na2 O42 2.457638 1_556
Na2 O44 2.556536 1_555
Na2 O18 2.580956 1_556
Na2 O2 2.751773 1_556
Na3 O3 2.319014 1_555
Na3 O19 2.359701 1_555
Na3 O45 2.457638 1_555
Na3 O43 2.556536 1_555
Na3 O21 2.580956 1_555
Na3 O5 2.751773 1_555
Na4 O4 2.402924 1_555
Na4 O44 2.417349 1_555
Na4 O35 2.446314 1_555
Na4 O5 2.539247 1_555
Na4 O45 2.554886 1_555
Na4 O34 2.628151 1_556
Na5 O7 2.402924 1_555
Na5 O47 2.417349 1_555
Na5 O32 2.446314 1_554
Na5 O6 2.539247 1_555
Na5 O46 2.554886 1_555
Na5 O33 2.628151 1_555
Na6 O0 2.402924 1_555
Na6 O40 2.417349 1_555
Na6 O39 2.446314 1_455
Na6 O1 2.539247 1_455
Na6 O41 2.554886 1_455
Na6 O38 2.628151 1_556
Na7 O3 2.402924 1_555
Na7 O43 2.417349 1_555
Na7 O36 2.446314 1_454
Na7 O2 2.539247 1_455
Na7 O42 2.554886 1_455
Na7 O37 2.628151 1_555
Na8 O19 2.359703 1_565
Na8 O43 2.436967 1_565
Na8 O24 2.582981 1_555
Na8 O22 2.594038 1_555
Na8 O13 2.709876 1_564
Na8 O6 2.715342 1_555
Na8 O14 2.827001 1_555
Na9 O16 2.359703 1_545
Na9 O40 2.436967 1_545
Na9 O27 2.582981 1_556
Na9 O21 2.594038 1_555
Na9 O14 2.709876 1_545
Na9 O5 2.715342 1_555
Na9 O13 2.827001 1_555
Na10 O23 2.359703 1_555
Na10 O47 2.436967 1_555
Na10 O28 2.582981 1_555
Na10 O18 2.594038 1_555
Na10 O9 2.709876 1_554
Na10 O2 2.715342 1_555
Na10 O10 2.827001 1_555
Na11 O20 2.359703 1_555
Na11 O44 2.436967 1_555
Na11 O31 2.582981 1_556
Na11 O17 2.594038 1_555
Na11 O10 2.709876 1_555
Na11 O1 2.715342 1_555
Na11 O9 2.827001 1_555
O0 P9 1.528935 1_555
O0 Zn0 2.231559 1_555
O1 P8 1.590179 1_555
O1 Zr0 2.185516 1_555
O2 P11 1.590179 1_555
O2 Zr1 2.185516 1_555
O3 P10 1.528935 1_555
O3 Zn1 2.231559 1_555
O4 P5 1.528935 1_545
O4 Zn2 2.231559 1_555
O5 P4 1.590179 1_545
O5 Zr2 2.185516 1_555
O6 P7 1.590179 1_565
O6 Zr3 2.185516 1_555
O7 P6 1.528935 1_565
O7 Zn3 2.231559 1_555
O8 P2 1.568032 1_555
O8 Zr3 2.033604 1_555
O9 P2 1.526887 1_555
O9 Zn3 2.088083 1_556
O10 P3 1.526887 1_555
O10 Zn2 2.088083 1_555
O11 P3 1.568032 1_555
O11 Zr2 2.033604 1_554
O12 P0 1.568032 1_645
O12 Zr1 2.033604 1_555
O13 P0 1.526887 1_545
O13 Zn1 2.088083 1_556
O14 P1 1.526887 1_565
O14 Zn0 2.088083 1_555
O15 P1 1.568032 1_665
O15 Zr0 2.033604 1_554
O16 P4 1.534205 1_555
O16 Zn0 2.253874 1_555
O17 P5 1.584671 1_555
O17 Zr0 2.141906 1_555
O18 P6 1.584671 1_555
O18 Zr1 2.141906 1_555
O19 P7 1.534205 1_555
O19 Zn1 2.253874 1_555
O20 P8 1.534205 1_555
O20 Zn2 2.253874 1_555
O21 P9 1.584671 1_555
O21 Zr2 2.141906 1_555
O22 P10 1.584671 1_555
O22 Zr3 2.141906 1_555
O23 P11 1.534205 1_555
O23 Zn3 2.253874 1_555
O24 P4 1.585305 1_555
O24 Zr3 2.089316 1_555
O25 P5 1.523078 1_555
O25 Zn3 1.989860 1_556
O26 P6 1.523078 1_555
O26 Zn2 1.989860 1_555
O27 P7 1.585305 1_555
O27 Zr2 2.089316 1_554
O28 P8 1.585305 1_555
O28 Zr1 2.089316 1_555
O29 P9 1.523078 1_555
O29 Zn1 1.989860 1_556
O30 P10 1.523078 1_555
O30 Zn0 1.989860 1_555
O31 P11 1.585305 1_555
O31 Zr0 2.089316 1_554
O32 P4 1.521196 1_555
O32 Zn3 2.093502 1_556
O33 P5 1.579382 1_555
O33 Zr3 2.104086 1_555
O34 P6 1.579382 1_555
O34 Zr2 2.104086 1_554
O35 P7 1.521196 1_555
O35 Zn2 2.093502 1_555
O36 P8 1.521196 1_555
O36 Zn1 2.093502 1_656
O37 P9 1.579382 1_555
O37 Zr1 2.104086 1_455
O38 P10 1.579382 1_555
O38 Zr0 2.104086 1_454
O39 P11 1.521196 1_555
O39 Zn0 2.093502 1_655
O40 P0 1.546852 1_555
O40 Zn0 2.164342 1_555
O41 P0 1.569475 1_655
O41 Zr0 2.125773 1_555
O42 P1 1.569475 1_655
O42 Zr1 2.125773 1_555
O43 P1 1.546852 1_555
O43 Zn1 2.164342 1_555
O44 P2 1.546852 1_555
O44 Zn2 2.164342 1_555
O45 P2 1.569475 1_555
O45 Zr2 2.125773 1_555
O46 P3 1.569475 1_555
O46 Zr3 2.125773 1_555
O47 P3 1.546852 1_555
O47 Zn3 2.164342 1_555
