# generated using pymatgen
data_Ba2Fe3F10
_symmetry_space_group_name_H-M   'P 1'
_cell_length_a   6.31583500
_cell_length_b   8.09136800
_cell_length_c   18.87363386
_cell_angle_alpha   68.58075113
_cell_angle_beta   90.00000000
_cell_angle_gamma   90.00000000
_symmetry_Int_Tables_number   1
_chemical_formula_structural   Ba2Fe3F10
_chemical_formula_sum   'Ba8 Fe12 F40'
_cell_volume   897.89750492
_cell_formula_units_Z   4
loop_
 _symmetry_equiv_pos_site_id
 _symmetry_equiv_pos_as_xyz
  1  'x, y, z'
loop_
 _atom_site_type_symbol
 _atom_site_label
 _atom_site_symmetry_multiplicity
 _atom_site_fract_x
 _atom_site_fract_y
 _atom_site_fract_z
 _atom_site_occupancy
  Ba  Ba0  1  0.99452500  0.18851400  0.21504000  1
  Ba  Ba1  1  0.49452500  0.81148600  0.28496000  1
  Ba  Ba2  1  0.00547500  0.81148600  0.78496000  1
  Ba  Ba3  1  0.50547500  0.18851400  0.71504000  1
  Ba  Ba4  1  0.01364000  0.78251200  0.11331200  1
  Ba  Ba5  1  0.51364000  0.21748800  0.38668800  1
  Ba  Ba6  1  0.98636000  0.21748800  0.88668800  1
  Ba  Ba7  1  0.48636000  0.78251200  0.61331200  1
  Fe  Fe0  1  0.75624200  0.50661100  0.99920300  1
  Fe  Fe1  1  0.25624200  0.49338900  0.50079700  1
  Fe  Fe2  1  0.24375800  0.49338900  0.00079700  1
  Fe  Fe3  1  0.74375800  0.50661100  0.49920300  1
  Fe  Fe4  1  0.00408500  0.51483900  0.32185600  1
  Fe  Fe5  1  0.50408500  0.48516100  0.17814400  1
  Fe  Fe6  1  0.99591500  0.48516100  0.67814400  1
  Fe  Fe7  1  0.49591500  0.51483900  0.82185600  1
  Fe  Fe8  1  0.00368900  0.95785600  0.42266000  1
  Fe  Fe9  1  0.50368900  0.04214400  0.07734000  1
  Fe  Fe10  1  0.99631100  0.04214400  0.57734000  1
  Fe  Fe11  1  0.49631100  0.95785600  0.92266000  1
  F  F0  1  0.24997900  0.44506400  0.25854500  1
  F  F1  1  0.74997900  0.55493600  0.24145500  1
  F  F2  1  0.75002100  0.55493600  0.74145500  1
  F  F3  1  0.25002100  0.44506400  0.75854500  1
  F  F4  1  0.27922000  0.01377000  0.99319700  1
  F  F5  1  0.77922000  0.98623000  0.50680300  1
  F  F6  1  0.72078000  0.98623000  0.00680300  1
  F  F7  1  0.22078000  0.01377000  0.49319700  1
  F  F8  1  0.07156700  0.76956200  0.26233500  1
  F  F9  1  0.57156700  0.23043800  0.23766500  1
  F  F10  1  0.92843300  0.23043800  0.73766500  1
  F  F11  1  0.42843300  0.76956200  0.76233500  1
  F  F12  1  0.99314800  0.31057100  0.01656900  1
  F  F13  1  0.49314800  0.68942900  0.48343100  1
  F  F14  1  0.00701600  0.68275100  0.47596700  1
  F  F15  1  0.00685200  0.68942900  0.98343100  1
  F  F16  1  0.94700700  0.24791800  0.36199800  1
  F  F17  1  0.44700700  0.75208200  0.13800200  1
  F  F18  1  0.05299300  0.75208200  0.63800200  1
  F  F19  1  0.55299300  0.24791800  0.86199800  1
  F  F20  1  0.26157100  0.46728900  0.61300100  1
  F  F21  1  0.76157100  0.53271100  0.88699900  1
  F  F22  1  0.73842900  0.53271100  0.38699900  1
  F  F23  1  0.23842900  0.46728900  0.11300100  1
  F  F24  1  0.72669900  0.48913000  0.61039300  1
  F  F25  1  0.22669900  0.51087000  0.88960700  1
  F  F26  1  0.27330100  0.51087000  0.38960700  1
  F  F27  1  0.77330100  0.48913000  0.11039300  1
  F  F28  1  0.72836400  0.95627500  0.85015200  1
  F  F29  1  0.22836400  0.04372500  0.64984800  1
  F  F30  1  0.27163600  0.04372500  0.14984800  1
  F  F31  1  0.77163600  0.95627500  0.35015200  1
  F  F32  1  0.25239500  0.00623300  0.84127300  1
  F  F33  1  0.75239500  0.99376700  0.65872700  1
  F  F34  1  0.74760500  0.99376700  0.15872700  1
  F  F35  1  0.24760500  0.00623300  0.34127300  1
  F  F36  1  0.49298400  0.68275100  0.97596700  1
  F  F37  1  0.99298400  0.31724900  0.52403300  1
  F  F38  1  0.50701600  0.31724900  0.02403300  1
  F  F39  1  0.50685200  0.31057100  0.51656900  1
loop_
_geom_bond_atom_site_label_1
_geom_bond_atom_site_label_2
_geom_bond_distance
_geom_bond_site_symmetry_2
Ba0 F30 2.646204 1_655
Ba0 F34 2.695912 1_545
Ba0 F9 2.745766 1_555
Ba0 F35 2.799992 1_655
Ba0 F23 2.827919 1_655
Ba0 F27 2.874161 1_555
Ba0 F31 2.918171 1_545
Ba0 F0 2.971750 1_655
Ba0 F16 2.997975 1_555
Ba0 F8 3.211677 1_645
Ba1 F31 2.646204 1_555
Ba1 F35 2.695912 1_565
Ba1 F8 2.745766 1_555
Ba1 F34 2.799992 1_555
Ba1 F22 2.827919 1_555
Ba1 F26 2.874161 1_555
Ba1 F30 2.918171 1_565
Ba1 F1 2.971750 1_555
Ba1 F17 2.997975 1_555
Ba1 F9 3.211677 1_565
Ba2 F28 2.646204 1_455
Ba2 F32 2.695912 1_565
Ba2 F11 2.745766 1_555
Ba2 F33 2.799992 1_455
Ba2 F21 2.827919 1_455
Ba2 F25 2.874161 1_555
Ba2 F29 2.918171 1_565
Ba2 F2 2.971750 1_455
Ba2 F18 2.997975 1_555
Ba2 F10 3.211677 1_465
Ba3 F29 2.646204 1_555
Ba3 F33 2.695912 1_545
Ba3 F10 2.745766 1_555
Ba3 F32 2.799992 1_555
Ba3 F20 2.827919 1_555
Ba3 F24 2.874161 1_555
Ba3 F28 2.918171 1_545
Ba3 F3 2.971750 1_555
Ba3 F19 2.997975 1_555
Ba3 F11 3.211677 1_545
Ba4 F34 2.747699 1_455
Ba4 F17 2.772282 1_555
Ba4 F6 2.785518 1_455
Ba4 F8 2.800059 1_555
Ba4 F15 2.815417 1_554
Ba4 F27 2.835123 1_455
Ba4 F4 2.890665 1_564
Ba4 F23 2.920974 1_555
Ba4 F30 2.943181 1_565
Ba4 F1 2.959783 1_455
Ba5 F35 2.747699 1_555
Ba5 F16 2.772282 1_555
Ba5 F7 2.785518 1_555
Ba5 F9 2.800059 1_555
Ba5 F39 2.815417 1_555
Ba5 F26 2.835123 1_555
Ba5 F5 2.890665 1_545
Ba5 F22 2.920974 1_555
Ba5 F31 2.943181 1_545
Ba5 F0 2.959783 1_555
Ba6 F32 2.747699 1_655
Ba6 F19 2.772282 1_555
Ba6 F4 2.785518 1_655
Ba6 F10 2.800059 1_555
Ba6 F12 2.815417 1_556
Ba6 F25 2.835123 1_655
Ba6 F6 2.890665 1_546
Ba6 F21 2.920974 1_555
Ba6 F28 2.943181 1_545
Ba6 F3 2.959783 1_655
Ba7 F33 2.747699 1_555
Ba7 F18 2.772282 1_555
Ba7 F5 2.785518 1_555
Ba7 F11 2.800059 1_555
Ba7 F13 2.815417 1_555
Ba7 F24 2.835123 1_555
Ba7 F7 2.890665 1_565
Ba7 F20 2.920974 1_555
Ba7 F29 2.943181 1_565
Ba7 F2 2.959783 1_555
F0 Fe5 2.150357 1_555
F0 Fe4 2.156656 1_555
F1 Fe4 2.150357 1_655
F1 Fe5 2.156656 1_555
F2 Fe7 2.150357 1_555
F2 Fe6 2.156656 1_555
F3 Fe6 2.150357 1_455
F3 Fe7 2.156656 1_555
F4 Fe11 2.072890 1_545
F4 Fe9 2.202479 1_556
F5 Fe10 2.072890 1_565
F5 Fe8 2.202479 1_655
F6 Fe9 2.072890 1_565
F6 Fe11 2.202479 1_554
F7 Fe8 2.072890 1_545
F7 Fe10 2.202479 1_455
F8 Fe4 2.000126 1_555
F9 Fe5 2.000126 1_555
F10 Fe6 2.000126 1_555
F11 Fe7 2.000126 1_555
F12 Fe2 2.111981 1_655
F12 Fe0 2.117221 1_554
F13 Fe3 2.111981 1_555
F13 Fe1 2.117221 1_555
F14 Fe8 2.081327 1_555
F14 Fe1 2.126148 1_555
F14 Fe3 2.128757 1_455
F15 Fe0 2.111981 1_455
F15 Fe2 2.117221 1_556
F16 Fe4 2.042888 1_655
F16 Fe8 2.232662 1_645
F17 Fe5 2.042888 1_555
F17 Fe9 2.232662 1_565
F18 Fe6 2.042888 1_455
F18 Fe10 2.232662 1_465
F19 Fe7 2.042888 1_555
F19 Fe11 2.232662 1_545
F20 Fe1 2.050300 1_555
F20 Fe6 2.116022 1_455
F21 Fe0 2.050300 1_555
F21 Fe7 2.116022 1_555
F22 Fe3 2.050300 1_555
F22 Fe4 2.116022 1_655
F23 Fe2 2.050300 1_555
F23 Fe5 2.116022 1_555
F24 Fe3 2.053964 1_555
F24 Fe6 2.120668 1_555
F25 Fe2 2.053964 1_556
F25 Fe7 2.120668 1_555
F26 Fe1 2.053964 1_555
F26 Fe4 2.120668 1_555
F27 Fe0 2.053964 1_554
F27 Fe5 2.120668 1_555
F28 Fe11 2.008413 1_555
F29 Fe10 2.008413 1_455
F30 Fe9 2.008413 1_555
F31 Fe8 2.008413 1_655
F32 Fe11 2.108747 1_545
F33 Fe10 2.108747 1_565
F34 Fe9 2.108747 1_565
F35 Fe8 2.108747 1_545
F36 Fe11 2.081327 1_555
F36 Fe2 2.126148 1_556
F36 Fe0 2.128757 1_555
F37 Fe10 2.081327 1_555
F37 Fe3 2.126148 1_555
F37 Fe1 2.128757 1_655
F38 Fe9 2.081327 1_555
F38 Fe0 2.126148 1_554
F38 Fe2 2.128757 1_555
F39 Fe1 2.111981 1_555
F39 Fe3 2.117221 1_555
