# generated using pymatgen
data_Mn3(P2O7)2
_symmetry_space_group_name_H-M   'P 1'
_cell_length_a   7.97080973
_cell_length_b   8.35650265
_cell_length_c   10.09628534
_cell_angle_alpha   107.66598095
_cell_angle_beta   84.57585689
_cell_angle_gamma   70.81460881
_symmetry_Int_Tables_number   1
_chemical_formula_structural   Mn3(P2O7)2
_chemical_formula_sum   'Mn6 P8 O28'
_cell_volume   590.92435383
_cell_formula_units_Z   2
loop_
 _symmetry_equiv_pos_site_id
 _symmetry_equiv_pos_as_xyz
  1  'x, y, z'
loop_
 _atom_site_type_symbol
 _atom_site_label
 _atom_site_symmetry_multiplicity
 _atom_site_fract_x
 _atom_site_fract_y
 _atom_site_fract_z
 _atom_site_occupancy
  Mn  Mn0  1  0.99931900  0.00006500  0.99993800  1
  Mn  Mn1  1  0.06048200  0.66269100  0.47404400  1
  Mn  Mn2  1  0.94141500  0.33692300  0.52556800  1
  Mn  Mn3  1  0.50028400  0.99974500  0.50012100  1
  Mn  Mn4  1  0.55976100  0.66259200  0.97455000  1
  Mn  Mn5  1  0.43930100  0.33751500  0.02609100  1
  P  P0  1  0.50964600  0.92550900  0.79731000  1
  P  P1  1  0.00946200  0.92675400  0.29793100  1
  P  P2  1  0.99032800  0.07450100  0.70272100  1
  P  P3  1  0.49031000  0.07345600  0.20210800  1
  P  P4  1  0.60976000  0.30806700  0.70098400  1
  P  P5  1  0.10889900  0.30705100  0.20125600  1
  P  P6  1  0.89037200  0.69189000  0.79894700  1
  P  P7  1  0.39100800  0.69286300  0.29868800  1
  O  O0  1  0.52915900  0.42382200  0.86463800  1
  O  O1  1  0.02877100  0.42095900  0.36521500  1
  O  O2  1  0.97101900  0.57588800  0.63536400  1
  O  O3  1  0.47116000  0.57883600  0.13478500  1
  O  O4  1  0.67524800  0.41676000  0.62891000  1
  O  O5  1  0.17284300  0.41756500  0.13049900  1
  O  O6  1  0.82508900  0.58315800  0.87113800  1
  O  O7  1  0.32712800  0.58238500  0.36953300  1
  O  O8  1  0.51011400  0.88342700  0.63759300  1
  O  O9  1  0.00976100  0.88509600  0.13828400  1
  O  O10  1  0.98971200  0.11672100  0.86246500  1
  O  O11  1  0.48971900  0.11521200  0.36178900  1
  O  O12  1  0.72323700  0.87009800  0.80726100  1
  O  O13  1  0.22278200  0.87125200  0.30823700  1
  O  O14  1  0.77690000  0.12971400  0.69252100  1
  O  O15  1  0.27708900  0.12856700  0.19152800  1
  O  O16  1  0.02604500  0.76975300  0.86224900  1
  O  O17  1  0.52663300  0.77051400  0.36226400  1
  O  O18  1  0.47401600  0.23026300  0.63765300  1
  O  O19  1  0.97316300  0.22957000  0.13763100  1
  O  O20  1  0.57807100  0.87135100  0.11691100  1
  O  O21  1  0.07907800  0.87336500  0.61739700  1
  O  O22  1  0.92215100  0.12888500  0.38316500  1
  O  O23  1  0.42114200  0.12670500  0.88256100  1
  O  O24  1  0.06730200  0.18953400  0.64277000  1
  O  O25  1  0.56912300  0.18662200  0.14198800  1
  O  O26  1  0.43277400  0.81055600  0.85732600  1
  O  O27  1  0.93042200  0.81379700  0.35807000  1
loop_
_geom_bond_atom_site_label_1
_geom_bond_atom_site_label_2
_geom_bond_distance
_geom_bond_site_symmetry_2
Mn0 O9 1.914376 1_646
Mn0 O10 1.916992 1_555
Mn0 O19 1.928336 1_556
Mn0 O16 1.932017 1_645
Mn1 O21 1.970197 1_555
Mn1 O7 2.071183 1_555
Mn1 O27 2.075254 1_455
Mn1 O1 2.095874 1_555
Mn1 O2 2.127176 1_455
Mn2 O22 1.952722 1_555
Mn2 O24 2.054459 1_655
Mn2 O4 2.064826 1_555
Mn2 O2 2.070700 1_555
Mn2 O1 2.096983 1_655
Mn3 O8 1.914861 1_555
Mn3 O11 1.917152 1_565
Mn3 O17 1.926880 1_555
Mn3 O18 1.933694 1_565
Mn4 O20 1.953360 1_556
Mn4 O6 2.059773 1_555
Mn4 O26 2.060628 1_555
Mn4 O0 2.073472 1_555
Mn4 O3 2.098078 1_556
Mn5 O23 1.970305 1_554
Mn5 O5 2.069910 1_555
Mn5 O25 2.072870 1_555
Mn5 O3 2.093218 1_555
Mn5 O0 2.126651 1_554
O0 P4 1.580927 1_555
O1 P5 1.580647 1_555
O2 P6 1.580712 1_555
O3 P7 1.580351 1_555
O4 P4 1.505971 1_555
O5 P5 1.504641 1_555
O6 P6 1.506186 1_555
O7 P7 1.504686 1_555
O8 P0 1.542018 1_555
O9 P1 1.541881 1_555
O10 P2 1.541978 1_555
O11 P3 1.541743 1_555
O12 P6 1.612009 1_555
O12 P0 1.632614 1_555
O13 P7 1.613714 1_555
O13 P1 1.631407 1_555
O14 P4 1.612340 1_555
O14 P2 1.632060 1_555
O15 P5 1.613527 1_555
O15 P3 1.631472 1_555
O16 P6 1.530376 1_455
O17 P7 1.530085 1_555
O18 P4 1.530720 1_555
O19 P5 1.530294 1_655
O20 P3 1.519743 1_565
O21 P2 1.513973 1_465
O22 P1 1.519839 1_645
O23 P0 1.514134 1_545
O24 P2 1.528862 1_455
O25 P3 1.524508 1_555
O26 P0 1.528170 1_555
O27 P1 1.524130 1_655
