# generated using pymatgen
data_FePO4
_symmetry_space_group_name_H-M   'P 1'
_cell_length_a   7.50152010
_cell_length_b   7.50152010
_cell_length_c   9.38168300
_cell_angle_alpha   90.00000000
_cell_angle_beta   90.00000000
_cell_angle_gamma   120.00000086
_symmetry_Int_Tables_number   1
_chemical_formula_structural   FePO4
_chemical_formula_sum   'Fe6 P6 O24'
_cell_volume   457.20391083
_cell_formula_units_Z   6
loop_
 _symmetry_equiv_pos_site_id
 _symmetry_equiv_pos_as_xyz
  1  'x, y, z'
loop_
 _atom_site_type_symbol
 _atom_site_label
 _atom_site_symmetry_multiplicity
 _atom_site_fract_x
 _atom_site_fract_y
 _atom_site_fract_z
 _atom_site_occupancy
  Fe  Fe0  1  0.44511700  0.38487400  0.52733300  1
  Fe  Fe1  1  0.06024400  0.61512600  0.02733300  1
  Fe  Fe2  1  0.61512600  0.06024400  0.52733300  1
  Fe  Fe3  1  0.55488300  0.93975600  0.02733300  1
  Fe  Fe4  1  0.93975600  0.55488300  0.52733300  1
  Fe  Fe5  1  0.38487400  0.44511700  0.02733300  1
  P  P0  1  0.66666700  0.33333300  0.82560700  1
  P  P1  1  0.33333300  0.66666700  0.32560700  1
  P  P2  1  0.66666700  0.33333300  0.21729700  1
  P  P3  1  0.33333300  0.66666700  0.71729700  1
  P  P4  1  0.00000000  0.00000000  0.47696400  1
  P  P5  1  0.00000000  0.00000000  0.97696400  1
  O  O0  1  0.22481700  0.11996300  0.54336700  1
  O  O1  1  0.10485400  0.88003700  0.04336700  1
  O  O2  1  0.47803300  0.34495900  0.87412400  1
  O  O3  1  0.13307400  0.65504100  0.37412400  1
  O  O4  1  0.11155200  0.52833000  0.66642300  1
  O  O5  1  0.58322200  0.47167000  0.16642300  1
  O  O6  1  0.41677800  0.88844800  0.66642300  1
  O  O7  1  0.52833000  0.11155200  0.16642300  1
  O  O8  1  0.66666700  0.33333300  0.39066100  1
  O  O9  1  0.00000000  0.00000000  0.31936800  1
  O  O10  1  0.33333300  0.66666700  0.89066100  1
  O  O11  1  0.66666700  0.33333300  0.65248000  1
  O  O12  1  0.33333300  0.66666700  0.15248000  1
  O  O13  1  0.89514600  0.77518300  0.54336700  1
  O  O14  1  0.11996300  0.22481700  0.04336700  1
  O  O15  1  0.65504100  0.13307400  0.87412400  1
  O  O16  1  0.52196700  0.86692600  0.37412400  1
  O  O17  1  0.86692600  0.52196700  0.87412400  1
  O  O18  1  0.34495900  0.47803300  0.37412400  1
  O  O19  1  0.47167000  0.58322200  0.66642300  1
  O  O20  1  0.88844800  0.41677800  0.16642300  1
  O  O21  1  0.88003700  0.10485400  0.54336700  1
  O  O22  1  0.77518300  0.89514600  0.04336700  1
  O  O23  1  0.00000000  0.00000000  0.81936800  1
loop_
_geom_bond_atom_site_label_1
_geom_bond_atom_site_label_2
_geom_bond_distance
_geom_bond_site_symmetry_2
Fe0 O0 1.848971 1_555
Fe0 O18 1.908910 1_555
Fe0 O19 1.913098 1_555
Fe0 O11 2.220960 1_555
Fe0 O8 2.279967 1_555
Fe1 O1 1.848974 1_555
Fe1 O17 1.908914 1_454
Fe1 O20 1.913100 1_455
Fe1 O12 2.220948 1_555
Fe1 O10 2.279955 1_554
Fe2 O21 1.848974 1_555
Fe2 O16 1.908914 1_545
Fe2 O6 1.913100 1_545
Fe2 O11 2.220948 1_555
Fe2 O8 2.279955 1_555
Fe3 O22 1.848966 1_555
Fe3 O15 1.908914 1_564
Fe3 O7 1.913103 1_565
Fe3 O12 2.220952 1_555
Fe3 O10 2.279959 1_554
Fe4 O13 1.848966 1_555
Fe4 O3 1.908914 1_655
Fe4 O4 1.913103 1_655
Fe4 O11 2.220952 1_555
Fe4 O8 2.279959 1_555
Fe5 O14 1.848971 1_555
Fe5 O2 1.908910 1_554
Fe5 O5 1.913098 1_555
Fe5 O12 2.220960 1_555
Fe5 O10 2.279967 1_554
O0 P4 1.588848 1_555
O1 P5 1.588848 1_564
O2 P0 1.529882 1_555
O3 P1 1.529875 1_555
O4 P3 1.531699 1_555
O5 P2 1.531704 1_555
O6 P3 1.531698 1_555
O7 P2 1.531699 1_555
O8 P2 1.626446 1_555
O9 P4 1.478516 1_555
O10 P3 1.626446 1_555
O11 P0 1.624223 1_555
O12 P1 1.624223 1_555
O13 P4 1.588848 1_665
O14 P5 1.588848 1_554
O15 P0 1.529875 1_555
O16 P1 1.529878 1_555
O17 P0 1.529878 1_555
O18 P1 1.529882 1_555
O19 P3 1.531704 1_555
O20 P2 1.531698 1_555
O21 P4 1.588848 1_655
O22 P5 1.588848 1_664
O23 P5 1.478516 1_555
