# generated using pymatgen
data_MgTi2(SiO4)2
_symmetry_space_group_name_H-M   'P 1'
_cell_length_a   6.33750091
_cell_length_b   5.62231105
_cell_length_c   5.62231105
_cell_angle_alpha   110.03120975
_cell_angle_beta   94.76432753
_cell_angle_gamma   120.01422982
_symmetry_Int_Tables_number   1
_chemical_formula_structural   MgTi2(SiO4)2
_chemical_formula_sum   'Mg1 Ti2 Si2 O8'
_cell_volume   154.79962717
_cell_formula_units_Z   1
loop_
 _symmetry_equiv_pos_site_id
 _symmetry_equiv_pos_as_xyz
  1  'x, y, z'
loop_
 _atom_site_type_symbol
 _atom_site_label
 _atom_site_symmetry_multiplicity
 _atom_site_fract_x
 _atom_site_fract_y
 _atom_site_fract_z
 _atom_site_occupancy
  Mg  Mg0  1  0.50000000  0.50000000  0.50000000  1
  Ti  Ti0  1  0.87094674  0.13538183  0.23556491  1
  Ti  Ti1  1  0.12905326  0.86461817  0.76443509  1
  Si  Si0  1  0.68482314  0.37773077  0.80709237  1
  Si  Si1  1  0.31517686  0.62226923  0.19290763  1
  O  O0  1  0.74795044  0.25197633  0.99597411  1
  O  O1  1  0.20520863  0.61408130  0.45462482  1
  O  O2  1  0.20520863  0.25058381  0.09112733  1
  O  O3  1  0.37280134  0.20436038  0.66844095  1
  O  O4  1  0.25204956  0.74802367  0.00402589  1
  O  O5  1  0.79479137  0.38591870  0.54537518  1
  O  O6  1  0.79479137  0.74941619  0.90887267  1
  O  O7  1  0.62719866  0.79563962  0.33155905  1
loop_
_geom_bond_atom_site_label_1
_geom_bond_atom_site_label_2
_geom_bond_distance
_geom_bond_site_symmetry_2
Mg0 O3 2.043093 1_555
Mg0 O7 2.043093 1_555
Mg0 O2 2.280029 1_555
Mg0 O5 2.280029 1_555
Mg0 O6 2.280029 1_555
Mg0 O1 2.280029 1_555
O0 Si0 1.585707 1_555
O0 Ti0 1.947714 1_556
O1 Si1 1.684536 1_555
O1 Ti1 2.095245 1_555
O1 Ti0 2.199991 1_455
O2 Si1 1.684536 1_555
O2 Ti1 2.095245 1_544
O2 Ti0 2.199991 1_455
O3 Si0 1.662268 1_555
O3 Ti1 2.054008 1_545
O4 Si1 1.585707 1_555
O4 Ti1 1.947714 1_554
O5 Si0 1.684536 1_555
O5 Ti0 2.095245 1_555
O5 Ti1 2.199991 1_655
O6 Si0 1.684536 1_555
O6 Ti0 2.095245 1_566
O6 Ti1 2.199991 1_655
O7 Si1 1.662268 1_555
O7 Ti0 2.054008 1_565
