# generated using pymatgen
data_Na15Ta10Zn2Si15(PO24)3
_symmetry_space_group_name_H-M   'P 1'
_cell_length_a   9.01834796
_cell_length_b   9.02567041
_cell_length_c   22.53222147
_cell_angle_alpha   89.92184890
_cell_angle_beta   90.11343992
_cell_angle_gamma   120.00840367
_symmetry_Int_Tables_number   1
_chemical_formula_structural   Na15Ta10Zn2Si15(PO24)3
_chemical_formula_sum   'Na15 Ta10 Zn2 Si15 P3 O72'
_cell_volume   1588.19354583
_cell_formula_units_Z   1
loop_
 _symmetry_equiv_pos_site_id
 _symmetry_equiv_pos_as_xyz
  1  'x, y, z'
loop_
 _atom_site_type_symbol
 _atom_site_label
 _atom_site_symmetry_multiplicity
 _atom_site_fract_x
 _atom_site_fract_y
 _atom_site_fract_z
 _atom_site_occupancy
  Na  Na0  1  0.63456063  0.02128520  0.24479570  1
  Na  Na1  1  0.38470311  0.36639862  0.24198540  1
  Na  Na2  1  0.98209598  0.61319163  0.24149569  1
  Na  Na3  1  0.63359334  0.61483276  0.74242796  1
  Na  Na4  1  0.97697872  0.36726935  0.74361128  1
  Na  Na5  1  0.38608393  0.01794114  0.74135143  1
  Na  Na6  1  0.02404990  0.68701698  0.58453903  1
  Na  Na7  1  0.66055088  0.97578865  0.58465899  1
  Na  Na8  1  0.02417375  0.33841493  0.08582470  1
  Na  Na9  1  0.00929441  0.00998418  0.49739092  1
  Na  Na10  1  0.00050939  0.99003826  0.99853338  1
  Na  Na11  1  0.67139033  0.33252622  0.83060395  1
  Na  Na12  1  0.66718375  0.32970889  0.33126186  1
  Na  Na13  1  0.34029726  0.67373233  0.16234677  1
  Na  Na14  1  0.33243964  0.65625115  0.66343127  1
  Ta  Ta0  1  0.00362547  0.00557215  0.35768534  1
  Ta  Ta1  1  0.99507598  0.99671113  0.85825316  1
  Ta  Ta2  1  0.99977926  0.99816256  0.64422838  1
  Ta  Ta3  1  0.00731763  0.99921740  0.14352994  1
  Ta  Ta4  1  0.66451916  0.33771334  0.97837303  1
  Ta  Ta5  1  0.66567488  0.33174406  0.47864364  1
  Ta  Ta6  1  0.33280336  0.66685100  0.01915419  1
  Ta  Ta7  1  0.33414159  0.66482783  0.51857354  1
  Ta  Ta8  1  0.32943297  0.66531121  0.31431367  1
  Ta  Ta9  1  0.33301385  0.67019970  0.81473447  1
  Zn  Zn0  1  0.67204854  0.33445633  0.67919421  1
  Zn  Zn1  1  0.66633689  0.33250507  0.17971103  1
  Si  Si0  1  0.28957040  0.99878135  0.25141807  1
  Si  Si1  1  0.00093570  0.28950106  0.24987082  1
  Si  Si2  1  0.00094704  0.71090508  0.75138062  1
  Si  Si3  1  0.70895667  0.99775231  0.75095663  1
  Si  Si4  1  0.96002272  0.33601589  0.58528121  1
  Si  Si5  1  0.37802196  0.04544355  0.58528175  1
  Si  Si6  1  0.66010796  0.61676243  0.58629796  1
  Si  Si7  1  0.95603076  0.62306546  0.08548596  1
  Si  Si8  1  0.38099994  0.33751705  0.08607062  1
  Si  Si9  1  0.62093714  0.66438108  0.91645312  1
  Si  Si10  1  0.04109398  0.37587972  0.91681205  1
  Si  Si11  1  0.33586402  0.95970816  0.91723009  1
  Si  Si12  1  0.62394418  0.95898863  0.41613234  1
  Si  Si13  1  0.33738994  0.37813376  0.41585721  1
  Si  Si14  1  0.03979414  0.66501585  0.41713354  1
  P  P0  1  0.71432944  0.71962110  0.25143214  1
  P  P1  1  0.28128576  0.28609866  0.75221835  1
  P  P2  1  0.66346258  0.04016813  0.08450041  1
  O  O0  1  0.18347083  0.01523177  0.30722947  1
  O  O1  1  0.82560042  0.81207240  0.30624959  1
  O  O2  1  0.98043050  0.16523705  0.30618254  1
  O  O3  1  0.18867922  0.17559449  0.80659842  1
  O  O4  1  0.98857227  0.82105693  0.80663970  1
  O  O5  1  0.83447501  0.01875297  0.80666894  1
  O  O6  1  0.80231411  0.96930404  0.69134618  1
  O  O7  1  0.16691971  0.19827138  0.69582634  1
  O  O8  1  0.03462120  0.83360308  0.69144753  1
  O  O9  1  0.80003093  0.83397808  0.19552253  1
  O  O10  1  0.02922605  0.19688206  0.19056971  1
  O  O11  1  0.16119536  0.96521388  0.19302210  1
  O  O12  1  0.89994983  0.38558225  0.64553615  1
  O  O13  1  0.49016593  0.10639878  0.64507798  1
  O  O14  1  0.62887608  0.51902214  0.64796285  1
  O  O15  1  0.89465509  0.51016847  0.14541710  1
  O  O16  1  0.63214553  0.10421422  0.14354969  1
  O  O17  1  0.47959940  0.36775495  0.14786766  1
  O  O18  1  0.47576850  0.30723582  0.02890482  1
  O  O19  1  0.83272486  0.52101140  0.02851295  1
  O  O20  1  0.69632277  0.16287366  0.03178291  1
  O  O21  1  0.47485655  0.16860731  0.52797291  1
  O  O22  1  0.70034981  0.52635982  0.52990540  1
  O  O23  1  0.82838761  0.29861987  0.52909809  1
  O  O24  1  0.52424984  0.69028764  0.97273859  1
  O  O25  1  0.16169006  0.46997255  0.97477262  1
  O  O26  1  0.30704866  0.83332219  0.97284348  1
  O  O27  1  0.53098787  0.84127349  0.47452653  1
  O  O28  1  0.31031295  0.47624099  0.47189123  1
  O  O29  1  0.16083454  0.69368966  0.47490609  1
  O  O30  1  0.13756558  0.64004684  0.35836615  1
  O  O31  1  0.50328643  0.86180545  0.35737482  1
  O  O32  1  0.36017567  0.49476290  0.35635432  1
  O  O33  1  0.13664975  0.49733673  0.85789841  1
  O  O34  1  0.36151640  0.86480668  0.85750305  1
  O  O35  1  0.50418938  0.63905009  0.85669375  1
  O  O36  1  0.02189130  0.83465987  0.40901416  1
  O  O37  1  0.81141453  0.97446270  0.40945011  1
  O  O38  1  0.16490550  0.18968949  0.41030442  1
  O  O39  1  0.02700731  0.18941021  0.90960031  1
  O  O40  1  0.16668599  0.97870682  0.90929217  1
  O  O41  1  0.81080069  0.83466853  0.91037105  1
  O  O42  1  0.97143881  0.15866555  0.59040176  1
  O  O43  1  0.18283135  0.01964580  0.58954363  1
  O  O44  1  0.83900691  0.81301300  0.59005916  1
  O  O45  1  0.96928726  0.81249056  0.08975220  1
  O  O46  1  0.83227308  0.02812739  0.08896059  1
  O  O47  1  0.18071999  0.16477313  0.08924821  1
  O  O48  1  0.68552981  0.16221822  0.75028668  1
  O  O49  1  0.45809751  0.30636420  0.74940215  1
  O  O50  1  0.83302030  0.52587005  0.75150615  1
  O  O51  1  0.69395508  0.54268848  0.24922955  1
  O  O52  1  0.83566292  0.31272781  0.24938169  1
  O  O53  1  0.47580070  0.16562393  0.24935699  1
  O  O54  1  0.63990772  0.49458970  0.92383673  1
  O  O55  1  0.85292466  0.35606468  0.92506535  1
  O  O56  1  0.50773035  0.14473873  0.92487222  1
  O  O57  1  0.64084046  0.14634188  0.42297205  1
  O  O58  1  0.50674019  0.36073464  0.42373624  1
  O  O59  1  0.85412270  0.49315148  0.42380851  1
  O  O60  1  0.34373008  0.49792399  0.07520582  1
  O  O61  1  0.14967448  0.64974296  0.07366358  1
  O  O62  1  0.50925650  0.85782994  0.07358079  1
  O  O63  1  0.34713098  0.84961930  0.57379193  1
  O  O64  1  0.50543564  0.66077444  0.57485246  1
  O  O65  1  0.15027577  0.50281821  0.57289389  1
  O  O66  1  0.30055799  0.82040149  0.25500255  1
  O  O67  1  0.53415981  0.70768059  0.25557106  1
  O  O68  1  0.18214558  0.47749340  0.25495316  1
  O  O69  1  0.29160586  0.46520601  0.75547226  1
  O  O70  1  0.17907119  0.69825592  0.75527442  1
  O  O71  1  0.52174831  0.81579250  0.75505860  1
loop_
_geom_bond_atom_site_label_1
_geom_bond_atom_site_label_2
_geom_bond_distance
_geom_bond_site_symmetry_2
Na0 O52 2.333957 1_555
Na0 O53 2.371558 1_555
Na0 O16 2.403431 1_555
Na0 O67 2.515144 1_545
Na0 O66 2.636698 1_545
Na0 O31 2.864527 1_545
Na1 O17 2.286151 1_555
Na1 O53 2.339680 1_555
Na1 O51 2.428322 1_555
Na1 O68 2.502560 1_555
Na1 O67 2.691978 1_555
Na1 O32 2.880767 1_555
Na2 O15 2.332037 1_555
Na2 O51 2.352720 1_555
Na2 O52 2.355266 1_555
Na2 O66 2.542475 1_655
Na2 O68 2.655908 1_655
Na2 O30 2.933650 1_655
Na2 O11 2.959896 1_655
Na3 O14 2.290857 1_555
Na3 O50 2.315975 1_555
Na3 O49 2.423481 1_555
Na3 O71 2.494143 1_555
Na3 O69 2.694177 1_555
Na3 O35 2.882213 1_555
Na3 O6 3.000559 1_555
Na4 O48 2.343368 1_555
Na4 O12 2.345443 1_555
Na4 O50 2.372086 1_555
Na4 O69 2.528360 1_655
Na4 O70 2.620950 1_655
Na4 O33 2.895809 1_655
Na5 O13 2.340490 1_555
Na5 O48 2.347353 1_555
Na5 O49 2.353964 1_555
Na5 O70 2.553606 1_545
Na5 O71 2.674126 1_545
Na5 O34 2.914622 1_545
Na5 O8 2.965654 1_545
Na6 O44 2.448050 1_455
Na6 O65 2.454390 1_555
Na6 O63 2.535063 1_555
Na6 O43 2.603187 1_565
Na6 O8 2.728346 1_555
Na6 O12 2.737462 1_455
Na6 O29 2.750441 1_555
Na6 O22 2.810077 1_455
Na7 O42 2.443791 1_565
Na7 O64 2.472190 1_555
Na7 O63 2.474765 1_555
Na7 O44 2.669664 1_555
Na7 O13 2.725554 1_565
Na7 O6 2.734764 1_555
Na7 O27 2.752280 1_555
Na7 O23 2.816818 1_565
Na8 O46 2.448502 1_455
Na8 O61 2.463709 1_555
Na8 O60 2.507363 1_555
Na8 O47 2.582193 1_555
Na8 O10 2.693273 1_555
Na8 O15 2.719087 1_455
Na8 O25 2.782161 1_554
Na8 O20 2.835534 1_455
Na9 O38 2.485167 1_555
Na9 O43 2.572831 1_555
Na9 O37 2.574724 1_445
Na9 O36 2.582951 1_545
Na9 O42 2.603510 1_455
Na9 O44 2.674042 1_445
Na10 O45 2.532536 1_456
Na10 O41 2.536543 1_455
Na10 O40 2.542736 1_555
Na10 O47 2.595837 1_566
Na10 O39 2.621559 1_565
Na10 O46 2.665991 1_466
Na11 O50 2.409116 1_555
Na11 O48 2.420484 1_555
Na11 O49 2.576114 1_555
Na11 O55 2.625851 1_555
Na11 O54 2.656965 1_555
Na11 O56 2.657664 1_555
Na12 O52 2.445545 1_555
Na12 O53 2.452790 1_555
Na12 O57 2.581662 1_555
Na12 O51 2.588009 1_555
Na12 O59 2.621757 1_555
Na12 O58 2.632958 1_555
Na13 O60 2.536135 1_555
Na13 O62 2.559998 1_555
Na13 O61 2.571065 1_555
Na13 O66 2.593175 1_555
Na13 O68 2.645795 1_555
Na13 O67 2.648434 1_555
Na14 O64 2.523415 1_555
Na14 O65 2.548937 1_555
Na14 O69 2.601537 1_555
Na14 O71 2.604956 1_555
Na14 O70 2.622462 1_555
Na14 O63 2.627391 1_555
O0 Si0 1.632916 1_545
O0 Ta0 1.948404 1_555
O1 P0 1.545711 1_555
O1 Ta0 2.040697 1_665
O2 Si1 1.640617 1_655
O2 Ta0 1.939890 1_655
O3 P1 1.536605 1_555
O3 Ta1 2.047705 1_445
O4 Si2 1.632814 1_655
O4 Ta1 1.944521 1_555
O5 Si3 1.635091 1_545
O5 Ta1 1.941439 1_545
O6 Si3 1.673467 1_555
O6 Ta2 1.977129 1_555
O7 P1 1.576841 1_555
O7 Ta2 2.039966 1_445
O8 Si2 1.674344 1_555
O8 Ta2 1.974310 1_455
O9 P0 1.565909 1_555
O9 Ta3 2.075210 1_655
O10 Si1 1.663437 1_555
O10 Ta3 1.999263 1_545
O11 Si0 1.675603 1_555
O11 Ta3 1.918987 1_555
O12 Si4 1.607460 1_555
O12 Zn0 2.017149 1_555
O13 Si5 1.606524 1_555
O13 Zn0 2.034821 1_555
O14 Si6 1.593045 1_555
O14 Zn0 2.016495 1_555
O15 Si7 1.613461 1_555
O15 Zn1 2.026926 1_555
O16 P2 1.533319 1_555
O16 Zn1 2.091080 1_555
O17 Si8 1.599190 1_555
O17 Zn1 1.995651 1_555
O18 Si8 1.644150 1_555
O18 Ta4 1.951427 1_554
O19 Si7 1.644993 1_555
O19 Ta4 1.950009 1_554
O20 P2 1.547535 1_555
O20 Ta4 2.113514 1_554
O21 Si5 1.641747 1_555
O21 Ta5 1.957921 1_555
O22 Si6 1.647079 1_555
O22 Ta5 1.992990 1_555
O23 Si4 1.649306 1_555
O23 Ta5 1.991572 1_555
O24 Si9 1.622509 1_555
O24 Ta6 1.939249 1_556
O25 Si10 1.638041 1_555
O25 Ta6 1.948042 1_556
O26 Si11 1.624774 1_555
O26 Ta6 1.934990 1_556
O27 Si12 1.634760 1_555
O27 Ta7 1.961493 1_555
O28 Si13 1.630444 1_555
O28 Ta7 1.920396 1_555
O29 Si14 1.632725 1_555
O29 Ta7 1.969572 1_555
O30 Si14 1.669085 1_555
O30 Ta8 1.908613 1_555
O31 Si12 1.658010 1_555
O31 Ta8 1.939655 1_555
O32 Si13 1.651893 1_555
O32 Ta8 1.940498 1_555
O33 Si10 1.661962 1_555
O33 Ta9 1.937836 1_555
O34 Si11 1.673592 1_555
O34 Ta9 1.905758 1_555
O35 Si9 1.651772 1_555
O35 Ta9 1.945143 1_555
O36 Si14 1.627990 1_555
O36 Ta0 1.998226 1_565
O37 Si12 1.632579 1_555
O37 Ta0 1.991056 1_665
O38 Si13 1.637559 1_555
O38 Ta0 1.965615 1_555
O39 Si10 1.631526 1_555
O39 Ta1 1.987371 1_445
O40 Si11 1.627789 1_555
O40 Ta1 1.997033 1_455
O41 Si9 1.637334 1_555
O41 Ta1 1.962587 1_555
O42 Si4 1.658451 1_555
O42 Ta2 1.999798 1_545
O43 Si5 1.659131 1_555
O43 Ta2 1.992058 1_445
O44 Si6 1.699712 1_555
O44 Ta2 1.989861 1_555
O45 Si7 1.656056 1_555
O45 Ta3 1.962660 1_655
O46 P2 1.582542 1_555
O46 Ta3 2.115513 1_645
O47 Si8 1.697572 1_555
O47 Ta3 1.959462 1_545
O48 Si3 1.600616 1_545
O48 Zn0 2.275726 1_555
O49 P1 1.512848 1_555
O49 Zn0 2.410681 1_555
O50 Si2 1.597741 1_655
O50 Zn0 2.288363 1_555
O51 P0 1.514301 1_555
O51 Zn1 2.376635 1_555
O52 Si1 1.605644 1_655
O52 Zn1 2.256212 1_555
O53 Si0 1.600270 1_545
O53 Zn1 2.258175 1_555
O54 Si9 1.633060 1_555
O54 Ta4 1.967894 1_555
O55 Si10 1.626003 1_655
O55 Ta4 2.020687 1_555
O56 Si11 1.622219 1_545
O56 Ta4 2.005428 1_555
O57 Si12 1.627666 1_545
O57 Ta5 2.013362 1_555
O58 Si13 1.620941 1_555
O58 Ta5 2.005183 1_555
O59 Si14 1.623239 1_655
O59 Ta5 2.015962 1_555
O60 Si8 1.659644 1_555
O60 Ta6 2.018411 1_555
O61 Si7 1.661245 1_455
O61 Ta6 2.003077 1_555
O62 P2 1.553523 1_565
O62 Ta6 2.064409 1_555
O63 Si5 1.666418 1_565
O63 Ta7 2.037934 1_555
O64 Si6 1.650018 1_555
O64 Ta7 2.011072 1_555
O65 Si4 1.644781 1_455
O65 Ta7 1.990890 1_555
O66 Si0 1.663618 1_555
O66 Ta8 2.042389 1_555
O67 P0 1.576645 1_555
O67 Ta8 2.146869 1_555
O68 Si1 1.670022 1_555
O68 Ta8 2.043000 1_555
O69 P1 1.573887 1_555
O69 Ta9 2.158571 1_555
O70 Si2 1.668551 1_555
O70 Ta9 2.032204 1_555
O71 Si3 1.668198 1_555
O71 Ta9 2.049121 1_555
