# generated using pymatgen
data_K2AgF4
_symmetry_space_group_name_H-M   'P 1'
_cell_length_a   5.99434796
_cell_length_b   6.51539017
_cell_length_c   7.02315966
_cell_angle_alpha   89.99853857
_cell_angle_beta   115.30906240
_cell_angle_gamma   89.99665029
_symmetry_Int_Tables_number   1
_chemical_formula_structural   K2AgF4
_chemical_formula_sum   'K4 Ag2 F8'
_cell_volume   247.96508111
_cell_formula_units_Z   2
loop_
 _symmetry_equiv_pos_site_id
 _symmetry_equiv_pos_as_xyz
  1  'x, y, z'
loop_
 _atom_site_type_symbol
 _atom_site_label
 _atom_site_symmetry_multiplicity
 _atom_site_fract_x
 _atom_site_fract_y
 _atom_site_fract_z
 _atom_site_occupancy
  K  K0  1  0.63866163  0.02820061  0.27977884  1
  K  K1  1  0.36134722  0.97180762  0.72023280  1
  K  K2  1  0.86136038  0.52817576  0.72023566  1
  K  K3  1  0.13864717  0.47180245  0.27975865  1
  Ag  Ag0  1  -0.00000310  -0.00000498  0.00000224  1
  Ag  Ag1  1  0.50000427  0.49999453  -0.00000391  1
  F  F0  1  0.21399365  0.23453048  0.95649919  1
  F  F1  1  0.78599661  0.76547965  0.04350130  1
  F  F2  1  0.28595049  0.73453456  0.04348061  1
  F  F3  1  0.71404542  0.26547648  0.95651751  1
  F  F4  1  0.66491777  0.43400653  0.32852084  1
  F  F5  1  0.33507745  0.56599577  0.67147294  1
  F  F6  1  0.83509555  0.93400761  0.67150608  1
  F  F7  1  0.16490650  0.06599293  0.32849624  1
loop_
_geom_bond_atom_site_label_1
_geom_bond_atom_site_label_2
_geom_bond_distance
_geom_bond_site_symmetry_2
Ag0 F1 2.099719 1_445
Ag0 F0 2.099812 1_554
Ag0 F6 2.129513 1_444
Ag0 F7 2.129513 1_555
Ag0 F2 2.361133 1_545
Ag0 F3 2.361217 1_454
Ag1 F3 2.099741 1_554
Ag1 F2 2.099913 1_555
Ag1 F4 2.129644 1_555
Ag1 F5 2.129652 1_554
Ag1 F0 2.361514 1_554
Ag1 F1 2.361531 1_555
F0 K1 2.777909 1_545
F0 K2 2.807555 1_455
F0 K0 2.915486 1_556
F0 K3 2.936825 1_556
F1 K0 2.777895 1_565
F1 K3 2.807737 1_655
F1 K1 2.915388 1_554
F1 K2 2.937021 1_554
F2 K3 2.777845 1_555
F2 K0 2.808172 1_565
F2 K2 2.915412 1_454
F2 K1 2.936872 1_554
F3 K2 2.777773 1_555
F3 K1 2.808120 1_545
F3 K3 2.915340 1_656
F3 K0 2.936924 1_556
F4 K2 2.561611 1_555
F4 K0 2.662074 1_555
F4 K3 3.012205 1_655
F4 K3 3.034128 1_555
F5 K3 2.561645 1_555
F5 K1 2.662125 1_555
F5 K2 3.012146 1_455
F5 K2 3.034213 1_555
F6 K0 2.561658 1_565
F6 K2 2.662197 1_555
F6 K1 3.012165 1_555
F6 K1 3.034132 1_655
F7 K1 2.561704 1_545
F7 K3 2.662058 1_555
F7 K0 3.012167 1_555
F7 K0 3.034109 1_455
