# generated using pymatgen
data_NaLaTiP2SO12
_symmetry_space_group_name_H-M   'P 1'
_cell_length_a   9.07377752
_cell_length_b   9.26946011
_cell_length_c   23.33642454
_cell_angle_alpha   87.63227905
_cell_angle_beta   90.00000000
_cell_angle_gamma   119.30409438
_symmetry_Int_Tables_number   1
_chemical_formula_structural   NaLaTiP2SO12
_chemical_formula_sum   'Na6 La6 Ti6 P12 S6 O72'
_cell_volume   1709.71033077
_cell_formula_units_Z   6
loop_
 _symmetry_equiv_pos_site_id
 _symmetry_equiv_pos_as_xyz
  1  'x, y, z'
loop_
 _atom_site_type_symbol
 _atom_site_label
 _atom_site_symmetry_multiplicity
 _atom_site_fract_x
 _atom_site_fract_y
 _atom_site_fract_z
 _atom_site_occupancy
  Na  Na0  1  0.98118151  0.98475950  0.49208797  1
  Na  Na1  1  0.00357799  0.98475950  0.99208797  1
  Na  Na2  1  0.64784851  0.31809250  0.82542097  1
  Na  Na3  1  0.67024499  0.31809250  0.32542097  1
  Na  Na4  1  0.31451451  0.65142650  0.15875497  1
  Na  Na5  1  0.33691099  0.65142650  0.65875497  1
  La  La0  1  0.99499072  0.00536171  0.64262483  1
  La  La1  1  0.01037099  0.00536171  0.14262483  1
  La  La2  1  0.66165772  0.33869471  0.97595783  1
  La  La3  1  0.67703799  0.33869471  0.47595783  1
  La  La4  1  0.32832372  0.67202871  0.30929183  1
  La  La5  1  0.34370399  0.67202871  0.80929183  1
  Ti  Ti0  1  0.01755444  0.02399564  0.35419275  1
  Ti  Ti1  1  0.00644120  0.02399564  0.85419275  1
  Ti  Ti2  1  0.68422144  0.35732864  0.68752575  1
  Ti  Ti3  1  0.67310820  0.35732864  0.18752575  1
  Ti  Ti4  1  0.35088744  0.69066264  0.02085975  1
  Ti  Ti5  1  0.33977420  0.69066264  0.52085975  1
  P  P0  1  0.31174974  0.03918739  0.25186437  1
  P  P1  1  0.97175201  0.27749835  0.24924157  1
  P  P2  1  0.30574634  0.27749835  0.74924157  1
  P  P3  1  0.72743765  0.03918739  0.75186437  1
  P  P4  1  0.97841674  0.37252039  0.58519737  1
  P  P5  1  0.63841901  0.61083135  0.58257457  1
  P  P6  1  0.97241334  0.61083135  0.08257457  1
  P  P7  1  0.39410465  0.37252039  0.08519737  1
  P  P8  1  0.64508274  0.70585439  0.91853137  1
  P  P9  1  0.30508501  0.94416535  0.91590857  1
  P  P10  1  0.63907934  0.94416535  0.41590857  1
  P  P11  1  0.06077065  0.70585439  0.41853137  1
  S  S0  1  0.71951869  0.68952837  0.25080537  1
  S  S1  1  0.97000968  0.68952837  0.75080537  1
  S  S2  1  0.38618569  0.02286137  0.58413837  1
  S  S3  1  0.63667668  0.02286137  0.08413837  1
  S  S4  1  0.05285169  0.35619537  0.91747237  1
  S  S5  1  0.30334268  0.35619537  0.41747237  1
  O  O0  1  0.19911604  0.04448045  0.30456326  1
  O  O1  1  0.81788859  0.77286172  0.30084434  1
  O  O2  1  0.96258041  0.16154754  0.30520415  1
  O  O3  1  0.19896713  0.16154754  0.80520415  1
  O  O4  1  0.95497313  0.77286172  0.80084434  1
  O  O5  1  0.84536440  0.04448045  0.80456326  1
  O  O6  1  0.79548878  0.00481595  0.69799417  1
  O  O7  1  0.20460212  0.19866419  0.69703210  1
  O  O8  1  -0.00385088  0.78293420  0.69636536  1
  O  O9  1  0.78678508  0.78293420  0.19636536  1
  O  O10  1  -0.00593793  0.19866419  0.19703210  1
  O  O11  1  0.20932717  0.00481595  0.19799417  1
  O  O12  1  0.86578304  0.37781345  0.63789626  1
  O  O13  1  0.48455559  0.10619472  0.63417734  1
  O  O14  1  0.62924741  0.49488054  0.63853715  1
  O  O15  1  0.86563413  0.49488054  0.13853715  1
  O  O16  1  0.62164013  0.10619472  0.13417734  1
  O  O17  1  0.51203140  0.37781345  0.13789626  1
  O  O18  1  0.46215578  0.33814895  0.03132717  1
  O  O19  1  0.87126912  0.53199719  0.03036510  1
  O  O20  1  0.66281612  0.11626720  0.02969836  1
  O  O21  1  0.45345208  0.11626720  0.52969836  1
  O  O22  1  0.66072907  0.53199719  0.53036510  1
  O  O23  1  0.87599417  0.33814895  0.53132717  1
  O  O24  1  0.53244904  0.71114745  0.97123026  1
  O  O25  1  0.15122159  0.43952872  0.96751134  1
  O  O26  1  0.29591341  0.82821454  0.97187115  1
  O  O27  1  0.53230013  0.82821454  0.47187115  1
  O  O28  1  0.28830613  0.43952872  0.46751134  1
  O  O29  1  0.17869740  0.71114745  0.47123026  1
  O  O30  1  0.12882178  0.67148295  0.36466117  1
  O  O31  1  0.53793512  0.86533119  0.36369910  1
  O  O32  1  0.32948212  0.44960120  0.36303236  1
  O  O33  1  0.12011808  0.44960120  0.86303236  1
  O  O34  1  0.32739507  0.86533119  0.86369910  1
  O  O35  1  0.54266017  0.67148295  0.86466117  1
  O  O36  1  0.06209481  0.87500100  0.41176793  1
  O  O37  1  0.81479505  0.94905573  0.41062412  1
  O  O38  1  0.13591058  0.19173598  0.41257413  1
  O  O39  1  0.05582541  0.19173598  0.91257413  1
  O  O40  1  0.13426068  0.94905573  0.91062412  1
  O  O41  1  0.81290620  0.87500100  0.91176793  1
  O  O42  1  0.02252769  0.23457342  0.59379530  1
  O  O43  1  0.20633546  0.97730111  0.58920322  1
  O  O44  1  0.78356929  0.78669775  0.58921504  1
  O  O45  1  0.00312845  0.78669775  0.08921504  1
  O  O46  1  0.77096565  0.97730111  0.08920322  1
  O  O47  1  0.21204573  0.23457342  0.09379530  1
  O  O48  1  0.72876181  0.20833400  0.74510093  1
  O  O49  1  0.48146205  0.28238873  0.74395712  1
  O  O50  1  0.80257758  0.52506898  0.74590713  1
  O  O51  1  0.72249241  0.52506898  0.24590713  1
  O  O52  1  0.80092768  0.28238873  0.24395712  1
  O  O53  1  0.47957320  0.20833400  0.24510093  1
  O  O54  1  0.68919469  0.56790642  0.92712830  1
  O  O55  1  0.87300246  0.31063411  0.92253622  1
  O  O56  1  0.45023629  0.12003075  0.92254804  1
  O  O57  1  0.66979545  0.12003075  0.42254804  1
  O  O58  1  0.43763265  0.31063411  0.42253622  1
  O  O59  1  0.87871273  0.56790642  0.42712830  1
  O  O60  1  0.39542781  0.54166800  0.07843493  1
  O  O61  1  0.14812805  0.61572273  0.07729112  1
  O  O62  1  0.46924358  0.85840298  0.07924113  1
  O  O63  1  0.38915841  0.85840298  0.57924113  1
  O  O64  1  0.46759368  0.61572273  0.57729112  1
  O  O65  1  0.14623920  0.54166800  0.57843493  1
  O  O66  1  0.35586069  0.90124042  0.26046230  1
  O  O67  1  0.53966846  0.64396811  0.25587022  1
  O  O68  1  0.11690229  0.45336475  0.25588204  1
  O  O69  1  0.33646145  0.45336475  0.75588204  1
  O  O70  1  0.10429865  0.64396811  0.75587022  1
  O  O71  1  0.54537873  0.90124042  0.76046230  1
loop_
_geom_bond_atom_site_label_1
_geom_bond_atom_site_label_2
_geom_bond_distance
_geom_bond_site_symmetry_2
Na0 O37 2.359205 1_555
Na0 O36 2.444630 1_655
Na0 O38 2.482793 1_665
Na0 O44 2.856037 1_555
Na1 O40 2.359205 1_555
Na1 O41 2.444630 1_455
Na1 O39 2.482793 1_565
Na1 O45 2.856037 1_556
Na2 O49 2.359205 1_555
Na2 O48 2.444630 1_555
Na2 O50 2.482793 1_555
Na2 O56 2.856037 1_555
Na3 O52 2.359205 1_555
Na3 O53 2.444630 1_555
Na3 O51 2.482793 1_555
Na3 O57 2.856037 1_555
Na4 O61 2.359205 1_555
Na4 O60 2.444630 1_555
Na4 O62 2.482793 1_555
Na4 O68 2.856037 1_555
Na5 O64 2.359205 1_555
Na5 O65 2.444630 1_555
Na5 O63 2.482793 1_555
Na5 O69 2.856037 1_555
La0 O6 2.221949 1_555
La0 O42 2.270553 1_655
La0 O7 2.300452 1_655
La0 O8 2.373062 1_645
La0 O44 2.396763 1_545
La0 O43 2.411320 1_645
La1 O11 2.221949 1_555
La1 O47 2.270553 1_555
La1 O10 2.300452 1_555
La1 O9 2.373062 1_445
La1 O45 2.396763 1_545
La1 O46 2.411320 1_445
La2 O18 2.221949 1_556
La2 O54 2.270553 1_555
La2 O19 2.300452 1_556
La2 O20 2.373062 1_556
La2 O56 2.396763 1_555
La2 O55 2.411320 1_555
La3 O23 2.221949 1_555
La3 O59 2.270553 1_555
La3 O22 2.300452 1_555
La3 O21 2.373062 1_555
La3 O57 2.396763 1_555
La3 O58 2.411320 1_555
La4 O30 2.221949 1_555
La4 O66 2.270553 1_555
La4 O31 2.300452 1_555
La4 O32 2.373062 1_555
La4 O68 2.396763 1_555
La4 O67 2.411320 1_555
La5 O35 2.221949 1_555
La5 O71 2.270553 1_555
La5 O34 2.300452 1_555
La5 O33 2.373062 1_555
La5 O69 2.396763 1_555
La5 O70 2.411320 1_555
O0 P0 1.616603 1_555
O0 Ti0 1.940908 1_555
O1 S0 1.468535 1_555
O1 Ti0 2.522360 1_665
O2 P1 1.632218 1_555
O2 Ti0 1.919278 1_655
O3 P2 1.632218 1_555
O3 Ti1 1.919278 1_555
O4 S1 1.468535 1_555
O4 Ti1 2.522360 1_665
O5 P3 1.616603 1_555
O5 Ti1 1.940908 1_655
O6 P3 1.512898 1_555
O7 P2 1.509239 1_555
O8 S1 1.458766 1_455
O9 S0 1.458766 1_555
O10 P1 1.509239 1_455
O11 P0 1.512898 1_555
O12 P4 1.616603 1_555
O12 Ti2 1.940908 1_555
O13 S2 1.468535 1_555
O13 Ti2 2.522360 1_555
O14 P5 1.632218 1_555
O14 Ti2 1.919278 1_555
O15 P6 1.632218 1_555
O15 Ti3 1.919278 1_555
O16 S3 1.468535 1_555
O16 Ti3 2.522360 1_555
O17 P7 1.616603 1_555
O17 Ti3 1.940908 1_555
O18 P7 1.512898 1_555
O19 P6 1.509239 1_555
O20 S3 1.458766 1_555
O21 S2 1.458766 1_555
O22 P5 1.509239 1_555
O23 P4 1.512898 1_555
O24 P8 1.616603 1_555
O24 Ti4 1.940908 1_556
O25 S4 1.468535 1_555
O25 Ti4 2.522360 1_556
O26 P9 1.632218 1_555
O26 Ti4 1.919278 1_556
O27 P10 1.632218 1_555
O27 Ti5 1.919278 1_555
O28 S5 1.468535 1_555
O28 Ti5 2.522360 1_555
O29 P11 1.616603 1_555
O29 Ti5 1.940908 1_555
O30 P11 1.512898 1_555
O31 P10 1.509239 1_555
O32 S5 1.458766 1_555
O33 S4 1.458766 1_555
O34 P9 1.509239 1_555
O35 P8 1.512898 1_555
O36 P11 1.563481 1_555
O36 Ti0 2.066179 1_565
O37 P10 1.577396 1_555
O37 Ti0 2.067608 1_665
O38 S5 1.546736 1_555
O38 Ti0 1.991874 1_555
O39 S4 1.546740 1_555
O39 Ti1 1.991874 1_555
O40 P9 1.577387 1_555
O40 Ti1 2.067608 1_565
O41 P8 1.563485 1_555
O41 Ti1 2.066179 1_665
O42 P4 1.521617 1_455
O43 S2 1.475372 1_565
O44 P5 1.528174 1_555
O45 P6 1.528177 1_455
O46 S3 1.475363 1_565
O47 P7 1.521623 1_555
O48 P3 1.563481 1_555
O48 Ti2 2.066179 1_555
O49 P2 1.577396 1_555
O49 Ti2 2.067608 1_555
O50 S1 1.546736 1_555
O50 Ti2 1.991874 1_555
O51 S0 1.546740 1_555
O51 Ti3 1.991874 1_555
O52 P1 1.577387 1_555
O52 Ti3 2.067608 1_555
O53 P0 1.563485 1_555
O53 Ti3 2.066179 1_555
O54 P8 1.521629 1_555
O55 S4 1.475359 1_655
O56 P9 1.528168 1_545
O57 P10 1.528161 1_545
O58 S5 1.475377 1_555
O59 P11 1.521617 1_655
O60 P7 1.563493 1_555
O60 Ti4 2.066179 1_555
O61 P6 1.577381 1_455
O61 Ti4 2.067608 1_555
O62 S3 1.546733 1_565
O62 Ti4 1.991874 1_555
O63 S2 1.546724 1_565
O63 Ti5 1.991874 1_555
O64 P5 1.577399 1_555
O64 Ti5 2.067608 1_555
O65 P4 1.563484 1_455
O65 Ti5 2.066179 1_555
O66 P0 1.521617 1_565
O67 S0 1.475372 1_555
O68 P1 1.528174 1_455
O69 P2 1.528177 1_555
O70 S1 1.475363 1_455
O71 P3 1.521623 1_565
