# generated using pymatgen
data_Ho5(Ge5Ir2)2
_symmetry_space_group_name_H-M   'P 1'
_cell_length_a   13.84245100
_cell_length_b   13.84245100
_cell_length_c   4.35966400
_cell_angle_alpha   90.00000000
_cell_angle_beta   90.00000000
_cell_angle_gamma   90.00000000
_symmetry_Int_Tables_number   1
_chemical_formula_structural   Ho5(Ge5Ir2)2
_chemical_formula_sum   'Ho10 Ge20 Ir8'
_cell_volume   835.37025852
_cell_formula_units_Z   2
loop_
 _symmetry_equiv_pos_site_id
 _symmetry_equiv_pos_as_xyz
  1  'x, y, z'
loop_
 _atom_site_type_symbol
 _atom_site_label
 _atom_site_symmetry_multiplicity
 _atom_site_fract_x
 _atom_site_fract_y
 _atom_site_fract_z
 _atom_site_occupancy
  Ho  Ho0  1  0.00000000  0.00000000  0.00000000  1
  Ho  Ho1  1  0.50000000  0.50000000  0.00000000  1
  Ho  Ho2  1  0.20441100  0.70441100  0.50000000  1
  Ho  Ho3  1  0.29558900  0.20441100  0.50000000  1
  Ho  Ho4  1  0.70441100  0.79558900  0.50000000  1
  Ho  Ho5  1  0.79558900  0.29558900  0.50000000  1
  Ho  Ho6  1  0.40302700  0.90302700  0.00000000  1
  Ho  Ho7  1  0.09697300  0.40302700  0.00000000  1
  Ho  Ho8  1  0.59697300  0.09697300  0.00000000  1
  Ho  Ho9  1  0.90302700  0.59697300  0.00000000  1
  Ge  Ge0  1  0.97950200  0.14880200  0.50000000  1
  Ge  Ge1  1  0.02049800  0.85119800  0.50000000  1
  Ge  Ge2  1  0.14880200  0.02049800  0.50000000  1
  Ge  Ge3  1  0.85119800  0.97950200  0.50000000  1
  Ge  Ge4  1  0.64880200  0.47950200  0.50000000  1
  Ge  Ge5  1  0.52049800  0.64880200  0.50000000  1
  Ge  Ge6  1  0.47950200  0.35119800  0.50000000  1
  Ge  Ge7  1  0.35119800  0.52049800  0.50000000  1
  Ge  Ge8  1  0.29717500  0.36624500  0.00000000  1
  Ge  Ge9  1  0.70282500  0.63375500  0.00000000  1
  Ge  Ge10  1  0.36624500  0.70282500  0.00000000  1
  Ge  Ge11  1  0.63375500  0.29717500  0.00000000  1
  Ge  Ge12  1  0.86624500  0.79717500  0.00000000  1
  Ge  Ge13  1  0.20282500  0.86624500  0.00000000  1
  Ge  Ge14  1  0.79717500  0.13375500  0.00000000  1
  Ge  Ge15  1  0.13375500  0.20282500  0.00000000  1
  Ge  Ge16  1  0.89629000  0.39629000  0.00000000  1
  Ge  Ge17  1  0.60371000  0.89629000  0.00000000  1
  Ge  Ge18  1  0.10371000  0.60371000  0.00000000  1
  Ge  Ge19  1  0.39629000  0.10371000  0.00000000  1
  Ir  Ir0  1  0.27329700  0.54843700  0.00000000  1
  Ir  Ir1  1  0.45156300  0.27329700  0.00000000  1
  Ir  Ir2  1  0.54843700  0.72670300  0.00000000  1
  Ir  Ir3  1  0.72670300  0.45156300  0.00000000  1
  Ir  Ir4  1  0.77329700  0.95156300  0.00000000  1
  Ir  Ir5  1  0.22670300  0.04843700  0.00000000  1
  Ir  Ir6  1  0.04843700  0.77329700  0.00000000  1
  Ir  Ir7  1  0.95156300  0.22670300  0.00000000  1
loop_
_geom_bond_atom_site_label_1
_geom_bond_atom_site_label_2
_geom_bond_distance
_geom_bond_site_symmetry_2
Ho0 Ir7 3.208953 1_455
Ho0 Ir4 3.208953 1_445
Ho0 Ir5 3.208953 1_555
Ho0 Ir6 3.208953 1_545
Ho1 Ir2 3.208953 1_555
Ho1 Ir0 3.208953 1_555
Ho1 Ir1 3.208953 1_555
Ho1 Ir3 3.208953 1_555
Ho2 Ir6 3.212861 1_555
Ho2 Ir6 3.212861 1_556
Ho2 Ir0 3.212861 1_556
Ho2 Ir0 3.212861 1_555
Ho3 Ir5 3.212861 1_555
Ho3 Ir1 3.212861 1_556
Ho3 Ir5 3.212861 1_556
Ho3 Ir1 3.212861 1_555
Ho4 Ir4 3.212861 1_555
Ho4 Ir4 3.212861 1_556
Ho4 Ir2 3.212861 1_555
Ho4 Ir2 3.212861 1_556
Ho5 Ir3 3.212861 1_555
Ho5 Ir3 3.212861 1_556
Ho5 Ir7 3.212861 1_555
Ho5 Ir7 3.212861 1_556
Ho6 Ir2 3.163665 1_555
Ho6 Ir5 3.163665 1_565
Ho7 Ir7 3.163665 1_455
Ho7 Ir0 3.163665 1_555
Ho8 Ir1 3.163665 1_555
Ho8 Ir4 3.163665 1_545
Ho9 Ir3 3.163665 1_555
Ho9 Ir6 3.163665 1_655
Ge0 Ir7 2.462531 1_556
Ge0 Ir7 2.462531 1_555
Ge0 Ge2 2.940483 1_655
Ge0 Ge3 2.940483 1_545
Ge0 Ho0 3.012456 1_656
Ge0 Ho0 3.012456 1_655
Ge0 Ho5 3.257256 1_555
Ge1 Ir6 2.462531 1_555
Ge1 Ir6 2.462531 1_556
Ge1 Ge2 2.940483 1_565
Ge1 Ge3 2.940483 1_455
Ge1 Ho0 3.012456 1_566
Ge1 Ho0 3.012456 1_565
Ge1 Ho2 3.257256 1_555
Ge2 Ir5 2.462531 1_555
Ge2 Ir5 2.462531 1_556
Ge2 Ho0 3.012456 1_555
Ge2 Ho0 3.012456 1_556
Ge2 Ho3 3.257256 1_555
Ge3 Ir4 2.462531 1_556
Ge3 Ir4 2.462531 1_555
Ge3 Ho0 3.012456 1_666
Ge3 Ho0 3.012456 1_665
Ge3 Ho4 3.257256 1_555
Ge4 Ir3 2.462531 1_556
Ge4 Ir3 2.462531 1_555
Ge4 Ge6 2.940483 1_555
Ge4 Ge5 2.940483 1_555
Ge4 Ho1 3.012456 1_555
Ge4 Ho1 3.012456 1_556
Ge4 Ho5 3.257256 1_555
Ge5 Ir2 2.462531 1_555
Ge5 Ir2 2.462531 1_556
Ge5 Ge7 2.940483 1_555
Ge5 Ho1 3.012456 1_555
Ge5 Ho1 3.012456 1_556
Ge5 Ho4 3.257256 1_555
Ge6 Ir1 2.462531 1_556
Ge6 Ir1 2.462531 1_555
Ge6 Ge7 2.940483 1_555
Ge6 Ho1 3.012456 1_555
Ge6 Ho1 3.012456 1_556
Ge6 Ho3 3.257256 1_555
Ge7 Ir0 2.462531 1_556
Ge7 Ir0 2.462531 1_555
Ge7 Ho1 3.012456 1_555
Ge7 Ho1 3.012456 1_556
Ge7 Ho2 3.257256 1_555
Ge8 Ir1 2.494523 1_555
Ge8 Ir0 2.543551 1_555
Ge8 Ho7 2.817670 1_555
Ge8 Ho3 3.125788 1_555
Ge8 Ho3 3.125788 1_554
Ge8 Ho1 3.363128 1_555
Ge9 Ir2 2.494523 1_555
Ge9 Ir3 2.543551 1_555
Ge9 Ho9 2.817670 1_555
Ge9 Ho4 3.125788 1_555
Ge9 Ho4 3.125788 1_554
Ge9 Ho1 3.363128 1_555
Ge10 Ir0 2.494523 1_555
Ge10 Ir2 2.543551 1_555
Ge10 Ho6 2.817670 1_555
Ge10 Ho2 3.125788 1_554
Ge10 Ho2 3.125788 1_555
Ge10 Ho1 3.363128 1_555
Ge11 Ir3 2.494523 1_555
Ge11 Ir1 2.543551 1_555
Ge11 Ho8 2.817670 1_555
Ge11 Ho5 3.125788 1_555
Ge11 Ho5 3.125788 1_554
Ge11 Ho1 3.363128 1_555
Ge12 Ir4 2.494523 1_555
Ge12 Ir6 2.543551 1_655
Ge12 Ho9 2.817670 1_555
Ge12 Ho4 3.125788 1_555
Ge12 Ho4 3.125788 1_554
Ge12 Ho0 3.363128 1_665
Ge13 Ir6 2.494523 1_555
Ge13 Ir5 2.543551 1_565
Ge13 Ho6 2.817670 1_555
Ge13 Ho2 3.125788 1_555
Ge13 Ho2 3.125788 1_554
Ge13 Ho0 3.363128 1_565
Ge14 Ir7 2.494523 1_555
Ge14 Ir4 2.543551 1_545
Ge14 Ho8 2.817670 1_555
Ge14 Ho5 3.125788 1_554
Ge14 Ho5 3.125788 1_555
Ge14 Ho0 3.363128 1_655
Ge15 Ir5 2.494523 1_555
Ge15 Ir7 2.543551 1_455
Ge15 Ho7 2.817670 1_555
Ge15 Ho3 3.125788 1_555
Ge15 Ho3 3.125788 1_554
Ge15 Ho0 3.363128 1_555
Ge16 Ir7 2.469039 1_555
Ge16 Ir3 2.469039 1_555
Ge16 Ho7 2.779509 1_655
Ge16 Ho9 2.779509 1_555
Ge16 Ho5 2.939023 1_554
Ge16 Ho5 2.939023 1_555
Ge17 Ir4 2.469039 1_555
Ge17 Ir2 2.469039 1_555
Ge17 Ho8 2.779509 1_565
Ge17 Ho6 2.779509 1_555
Ge17 Ho4 2.939023 1_555
Ge17 Ho4 2.939023 1_554
Ge18 Ir0 2.469039 1_555
Ge18 Ir6 2.469039 1_555
Ge18 Ho7 2.779509 1_555
Ge18 Ho9 2.779509 1_455
Ge18 Ho2 2.939023 1_554
Ge18 Ho2 2.939023 1_555
Ge19 Ir5 2.469039 1_555
Ge19 Ir1 2.469039 1_555
Ge19 Ho6 2.779509 1_545
Ge19 Ho8 2.779509 1_555
Ge19 Ho3 2.939023 1_554
Ge19 Ho3 2.939023 1_555
