# generated using pymatgen
data_MoBr3
_symmetry_space_group_name_H-M   'P 1'
_cell_length_a   6.08320666
_cell_length_b   6.84598127
_cell_length_c   11.85969664
_cell_angle_alpha   90.00000000
_cell_angle_beta   90.00000000
_cell_angle_gamma   90.00000000
_symmetry_Int_Tables_number   1
_chemical_formula_structural   MoBr3
_chemical_formula_sum   'Mo4 Br12'
_cell_volume   493.90322005
_cell_formula_units_Z   4
loop_
 _symmetry_equiv_pos_site_id
 _symmetry_equiv_pos_as_xyz
  1  'x, y, z'
loop_
 _atom_site_type_symbol
 _atom_site_label
 _atom_site_symmetry_multiplicity
 _atom_site_fract_x
 _atom_site_fract_y
 _atom_site_fract_z
 _atom_site_occupancy
  Mo  Mo0  1  0.72744247  0.25434392  0.50000000  1
  Mo  Mo1  1  0.22744247  0.74565608  -0.00000000  1
  Mo  Mo2  1  0.27255753  0.25434392  0.50000000  1
  Mo  Mo3  1  0.77255753  0.74565608  -0.00000000  1
  Br  Br0  1  0.50000000  0.09694787  0.65704795  1
  Br  Br1  1  -0.00000000  0.90305213  0.84295205  1
  Br  Br2  1  0.50000000  0.09694787  0.34295205  1
  Br  Br3  1  -0.00000000  0.90305213  0.15704795  1
  Br  Br4  1  -0.00000000  0.43146755  -0.00000000  1
  Br  Br5  1  0.50000000  0.56853245  0.50000000  1
  Br  Br6  1  0.50000000  0.04305078  -0.00000000  1
  Br  Br7  1  -0.00000000  0.95694922  0.50000000  1
  Br  Br8  1  -0.00000000  0.40211555  0.35120345  1
  Br  Br9  1  0.50000000  0.59788445  0.14879655  1
  Br  Br10  1  -0.00000000  0.40211555  0.64879655  1
  Br  Br11  1  0.50000000  0.59788445  0.85120345  1
loop_
_geom_bond_atom_site_label_1
_geom_bond_atom_site_label_2
_geom_bond_distance
_geom_bond_site_symmetry_2
Br0 Mo2 2.558207 1_555
Br0 Mo0 2.558207 1_555
Br1 Mo3 2.558207 1_456
Br1 Mo1 2.558207 1_556
Br2 Mo2 2.558207 1_555
Br2 Mo0 2.558207 1_555
Br3 Mo3 2.558207 1_455
Br3 Mo1 2.558207 1_555
Br4 Mo3 2.557496 1_455
Br4 Mo1 2.557496 1_555
Br5 Mo2 2.557496 1_555
Br5 Mo0 2.557496 1_555
Br6 Mo1 2.625675 1_545
Br6 Mo3 2.625675 1_545
Br7 Mo0 2.625675 1_465
Br7 Mo2 2.625675 1_565
Br8 Mo0 2.624226 1_455
Br8 Mo2 2.624226 1_555
Br9 Mo1 2.624226 1_555
Br9 Mo3 2.624226 1_555
Br10 Mo2 2.624226 1_555
Br10 Mo0 2.624226 1_455
Br11 Mo3 2.624226 1_556
Br11 Mo1 2.624226 1_556
