# generated using pymatgen
data_MgCd2Te2(MoO6)2
_symmetry_space_group_name_H-M   'P 1'
_cell_length_a   5.43106315
_cell_length_b   5.37282967
_cell_length_c   10.33471489
_cell_angle_alpha   90.00000000
_cell_angle_beta   90.00000000
_cell_angle_gamma   84.17094960
_symmetry_Int_Tables_number   1
_chemical_formula_structural   MgCd2Te2(MoO6)2
_chemical_formula_sum   'Mg1 Cd2 Te2 Mo2 O12'
_cell_volume   300.00950337
_cell_formula_units_Z   1
loop_
 _symmetry_equiv_pos_site_id
 _symmetry_equiv_pos_as_xyz
  1  'x, y, z'
loop_
 _atom_site_type_symbol
 _atom_site_label
 _atom_site_symmetry_multiplicity
 _atom_site_fract_x
 _atom_site_fract_y
 _atom_site_fract_z
 _atom_site_occupancy
  Mg  Mg0  1  0.50000000  0.50000000  0.03523227  1
  Cd  Cd0  1  -0.00000000  0.00000000  0.48184289  1
  Cd  Cd1  1  0.50000000  0.50000000  0.47010103  1
  Te  Te0  1  -0.00000000  0.50000000  0.26538564  1
  Te  Te1  1  0.50000000  0.00000000  0.72602595  1
  Mo  Mo0  1  0.50000000  0.00000000  0.24207918  1
  Mo  Mo1  1  -0.00000000  0.50000000  0.80810816  1
  O  O0  1  0.34276329  0.23763596  0.11837669  1
  O  O1  1  0.22399504  0.62686396  0.90698989  1
  O  O2  1  0.65723671  0.76236404  0.11837669  1
  O  O3  1  0.77600496  0.37313604  0.90698989  1
  O  O4  1  0.25438059  0.76774995  0.31329830  1
  O  O5  1  0.16940840  0.25693991  0.71006430  1
  O  O6  1  0.74561941  0.23225005  0.31329830  1
  O  O7  1  0.83059160  0.74306009  0.71006430  1
  O  O8  1  0.20727268  0.28971468  0.38831312  1
  O  O9  1  0.33260259  0.80128658  0.61285564  1
  O  O10  1  0.79272732  0.71028532  0.38831312  1
  O  O11  1  0.66739741  0.19871342  0.61285564  1
loop_
_geom_bond_atom_site_label_1
_geom_bond_atom_site_label_2
_geom_bond_distance
_geom_bond_site_symmetry_2
Mg0 O0 1.923329 1_555
Mg0 O2 1.923329 1_555
Mg0 O1 2.064126 1_554
Mg0 O3 2.064126 1_554
Cd0 O8 2.231689 1_555
Cd0 O10 2.231689 1_445
Cd0 O11 2.417527 1_455
Cd0 O9 2.417527 1_545
Cd0 O6 2.479860 1_455
Cd0 O4 2.479860 1_545
Cd1 O10 2.209829 1_555
Cd1 O8 2.209829 1_555
Cd1 O9 2.307509 1_555
Cd1 O11 2.307509 1_555
Cd1 O6 2.466830 1_555
Cd1 O4 2.466830 1_555
Mo0 O0 1.942248 1_555
Mo0 O2 1.942248 1_545
Mo0 O4 2.053398 1_545
Mo0 O6 2.053398 1_555
Mo0 O8 2.594574 1_555
Mo0 O10 2.594574 1_545
Mo1 O1 1.776877 1_555
Mo1 O3 1.776877 1_455
Mo1 O5 1.826084 1_555
Mo1 O7 1.826084 1_455
O0 Te0 2.688449 1_555
O2 Te0 2.688449 1_655
O4 Te0 2.151066 1_555
O5 Te1 2.157129 1_555
O6 Te0 2.151066 1_655
O7 Te1 2.157129 1_565
O8 Te0 1.974680 1_555
O9 Te1 1.879232 1_565
O10 Te0 1.974680 1_655
O11 Te1 1.879232 1_555
