# generated using pymatgen
data_Na6Sc4Ti4Si5S7O48
_symmetry_space_group_name_H-M   'P 1'
_cell_length_a   17.73162819
_cell_length_b   8.83800258
_cell_length_c   22.75979719
_cell_angle_alpha   90.05042351
_cell_angle_beta   89.92716422
_cell_angle_gamma   119.94299766
_symmetry_Int_Tables_number   1
_chemical_formula_structural   Na6Sc4Ti4Si5S7O48
_chemical_formula_sum   'Na18 Sc12 Ti12 Si15 S21 O144'
_cell_volume   3090.65522695
_cell_formula_units_Z   3
loop_
 _symmetry_equiv_pos_site_id
 _symmetry_equiv_pos_as_xyz
  1  'x, y, z'
loop_
 _atom_site_type_symbol
 _atom_site_label
 _atom_site_symmetry_multiplicity
 _atom_site_fract_x
 _atom_site_fract_y
 _atom_site_fract_z
 _atom_site_occupancy
  Na  Na0  1  0.00001073  0.63236129  0.25410291  1
  Na  Na1  1  0.49895382  0.63043187  0.25028105  1
  Na  Na2  1  0.99951045  0.37188177  0.74901094  1
  Na  Na3  1  0.50043652  0.36287174  0.75296451  1
  Na  Na4  1  0.66463697  0.30353228  0.91713757  1
  Na  Na5  1  0.16598357  0.02221743  0.42517242  1
  Na  Na6  1  0.99946675  0.99805223  0.50625758  1
  Na  Na7  1  0.50075202  0.99301869  0.50108449  1
  Na  Na8  1  0.00216372  0.00617334  0.99505544  1
  Na  Na9  1  0.49988895  0.00242168  0.00171822  1
  Na  Na10  1  0.33116588  0.32837627  0.83681561  1
  Na  Na11  1  0.83049432  0.32955681  0.82430298  1
  Na  Na12  1  0.33877442  0.34329166  0.32916408  1
  Na  Na13  1  0.82857657  0.33129354  0.34004658  1
  Na  Na14  1  0.18038503  0.66419036  0.16497820  1
  Na  Na15  1  0.67143387  0.66293744  0.16297288  1
  Na  Na16  1  0.17300884  0.68228724  0.66493084  1
  Na  Na17  1  0.67853958  0.68484585  0.67078769  1
  Sc  Sc0  1  0.99588881  0.98801037  0.35803153  1
  Sc  Sc1  1  0.50191380  0.01149441  0.85484652  1
  Sc  Sc2  1  0.32299741  0.33163170  0.67968065  1
  Sc  Sc3  1  0.82539457  0.31406471  0.69092450  1
  Sc  Sc4  1  0.33138924  0.34589227  0.18724547  1
  Sc  Sc5  1  0.82173464  0.31600151  0.17954785  1
  Sc  Sc6  1  0.83058363  0.31846462  0.98633802  1
  Sc  Sc7  1  0.33233906  0.34717481  0.48844954  1
  Sc  Sc8  1  0.16937360  0.66512322  0.31451089  1
  Sc  Sc9  1  0.66784223  0.64937069  0.31451549  1
  Sc  Sc10  1  0.16961193  0.68847646  0.81392725  1
  Sc  Sc11  1  0.66683124  0.66052039  0.81006428  1
  Ti  Ti0  1  0.49843094  0.01183383  0.35084954  1
  Ti  Ti1  1  0.99829625  0.98470004  0.85027025  1
  Ti  Ti2  1  0.99911447  0.98343869  0.64940133  1
  Ti  Ti3  1  0.51010992  0.00113707  0.64138061  1
  Ti  Ti4  1  0.00256469  0.01754329  0.13795157  1
  Ti  Ti5  1  0.49802130  0.01441948  0.14847803  1
  Ti  Ti6  1  0.32499710  0.31723315  0.97725940  1
  Ti  Ti7  1  0.82540930  0.33398340  0.47829824  1
  Ti  Ti8  1  0.16503183  0.66589967  0.01665526  1
  Ti  Ti9  1  0.66334713  0.64872683  0.02437096  1
  Ti  Ti10  1  0.16283218  0.67695526  0.52688150  1
  Ti  Ti11  1  0.66322335  0.65854393  0.51947001  1
  Si  Si0  1  0.35628454  0.71975698  0.25040934  1
  Si  Si1  1  0.49945495  0.29308952  0.24943304  1
  Si  Si2  1  0.64311561  0.28606413  0.74957616  1
  Si  Si3  1  0.00154728  0.70755685  0.74921598  1
  Si  Si4  1  0.85738103  0.99483994  0.75044871  1
  Si  Si5  1  0.18168108  0.04287199  0.58196692  1
  Si  Si6  1  0.69157107  0.04010797  0.58154093  1
  Si  Si7  1  0.33288562  0.63726353  0.58366464  1
  Si  Si8  1  0.82889421  0.03120677  0.08265871  1
  Si  Si9  1  0.19134020  0.34330118  0.08199096  1
  Si  Si10  1  0.68142706  0.32224298  0.08189537  1
  Si  Si11  1  0.51854299  0.38025568  0.91749239  1
  Si  Si12  1  0.16124312  0.95603874  0.91809909  1
  Si  Si13  1  0.66186236  0.36710677  0.41792841  1
  Si  Si14  1  0.01993844  0.65499456  0.41672726  1
  S  S0  1  0.14284496  0.00087544  0.24937735  1
  S  S1  1  0.64368618  0.00373822  0.25136821  1
  S  S2  1  0.85751765  0.71423291  0.24747587  1
  S  S3  1  0.99873505  0.28689961  0.24862061  1
  S  S4  1  0.14368298  0.28359188  0.75152809  1
  S  S5  1  0.49736373  0.70964857  0.74911341  1
  S  S6  1  0.35624988  0.00046077  0.74786502  1
  S  S7  1  0.48250635  0.33422361  0.58386118  1
  S  S8  1  0.97790777  0.33155847  0.58184643  1
  S  S9  1  0.83187318  0.62447388  0.58139033  1
  S  S10  1  0.47892600  0.62624175  0.08197832  1
  S  S11  1  0.98322503  0.63156064  0.08514182  1
  S  S12  1  0.33143620  0.03942145  0.08201818  1
  S  S13  1  0.31005082  0.66219282  0.91826001  1
  S  S14  1  0.81373453  0.67052100  0.91829799  1
  S  S15  1  0.02157420  0.37684836  0.91638812  1
  S  S16  1  0.66711844  0.95360893  0.91782873  1
  S  S17  1  0.31420205  0.95794681  0.41787138  1
  S  S18  1  0.80927790  0.95716981  0.41813922  1
  S  S19  1  0.16775830  0.37683313  0.41726240  1
  S  S20  1  0.52134214  0.66675625  0.41633722  1
  O  O0  1  0.10345021  0.02239405  0.30460875  1
  O  O1  1  0.60201396  0.02560535  0.30493279  1
  O  O2  1  0.42093843  0.81696734  0.30792489  1
  O  O3  1  0.90979004  0.79586069  0.30186747  1
  O  O4  1  0.49173781  0.17120400  0.30704895  1
  O  O5  1  0.98899723  0.18393204  0.30196378  1
  O  O6  1  0.10198690  0.17819053  0.80506618  1
  O  O7  1  0.60029191  0.17803277  0.81055300  1
  O  O8  1  0.48419470  0.78660722  0.80251750  1
  O  O9  1  0.99310423  0.81327981  0.80705533  1
  O  O10  1  0.40704793  0.02182158  0.80232146  1
  O  O11  1  0.92208761  0.02342201  0.80817673  1
  O  O12  1  0.39768475  0.98023882  0.69501986  1
  O  O13  1  0.91112294  0.98033074  0.69274751  1
  O  O14  1  0.09113220  0.20447785  0.69770597  1
  O  O15  1  0.57609861  0.17556450  0.69445478  1
  O  O16  1  0.01632626  0.83518883  0.69213235  1
  O  O17  1  0.50552629  0.81376553  0.69579650  1
  O  O18  1  0.40995103  0.83856178  0.19265383  1
  O  O19  1  0.90249055  0.81928489  0.19554729  1
  O  O20  1  0.00766213  0.19750894  0.19573671  1
  O  O21  1  0.51432527  0.19591840  0.19224206  1
  O  O22  1  0.08575935  0.97587299  0.19838071  1
  O  O23  1  0.59110598  0.97776475  0.19766727  1
  O  O24  1  0.44522144  0.36318821  0.63802062  1
  O  O25  1  0.94546673  0.36754649  0.63681205  1
  O  O26  1  0.24376314  0.12187852  0.63869553  1
  O  O27  1  0.74821415  0.11382143  0.63955899  1
  O  O28  1  0.31374222  0.51335864  0.64061750  1
  O  O29  1  0.81801650  0.52220299  0.63442918  1
  O  O30  1  0.44487780  0.52369579  0.13743591  1
  O  O31  1  0.94506311  0.52774340  0.13935219  1
  O  O32  1  0.31793992  0.11502291  0.13532068  1
  O  O33  1  0.81512243  0.11617886  0.14162119  1
  O  O34  1  0.24583104  0.37430710  0.14116539  1
  O  O35  1  0.74312722  0.36754461  0.13927692  1
  O  O36  1  0.23782219  0.30786364  0.02602963  1
  O  O37  1  0.72429218  0.29858497  0.02192103  1
  O  O38  1  0.42290005  0.53626785  0.03143440  1
  O  O39  1  0.92852217  0.55262164  0.03312938  1
  O  O40  1  0.34516133  0.14851814  0.02922057  1
  O  O41  1  0.85638812  0.15827637  0.02629112  1
  O  O42  1  0.22342229  0.14835211  0.52086759  1
  O  O43  1  0.73944218  0.16925822  0.52501263  1
  O  O44  1  0.35604682  0.55748977  0.52639634  1
  O  O45  1  0.84531488  0.54267015  0.52820119  1
  O  O46  1  0.42876827  0.31002722  0.53163790  1
  O  O47  1  0.92309449  0.31129172  0.53058724  1
  O  O48  1  0.26459828  0.68437643  0.97035511  1
  O  O49  1  0.77311890  0.69456041  0.97153167  1
  O  O50  1  0.07743408  0.46795945  0.96933079  1
  O  O51  1  0.58819687  0.48713143  0.97149751  1
  O  O52  1  0.15306405  0.82854397  0.97441205  1
  O  O53  1  0.66033579  0.85387543  0.97061115  1
  O  O54  1  0.27319662  0.85217482  0.47060934  1
  O  O55  1  0.76668577  0.84528398  0.46979730  1
  O  O56  1  0.15734951  0.45885605  0.46933209  1
  O  O57  1  0.65245664  0.47547112  0.47398994  1
  O  O58  1  0.08987413  0.69343108  0.47005639  1
  O  O59  1  0.57643253  0.68628671  0.46878954  1
  O  O60  1  0.05913062  0.63264748  0.35408989  1
  O  O61  1  0.56264476  0.64861195  0.36175054  1
  O  O62  1  0.25887121  0.87695561  0.36479575  1
  O  O63  1  0.75930750  0.88336590  0.36386635  1
  O  O64  1  0.17936783  0.47864982  0.36293124  1
  O  O65  1  0.68404538  0.48907245  0.36030994  1
  O  O66  1  0.06337955  0.47751892  0.86233010  1
  O  O67  1  0.55696505  0.48558862  0.85639359  1
  O  O68  1  0.18339445  0.87746992  0.86114216  1
  O  O69  1  0.67841051  0.87580129  0.86371946  1
  O  O70  1  0.25859210  0.63323057  0.86452467  1
  O  O71  1  0.75903953  0.63998257  0.86553171  1
  O  O72  1  0.01472306  0.83868316  0.41288281  1
  O  O73  1  0.51342141  0.82508768  0.41334264  1
  O  O74  1  0.40097420  0.97216717  0.41101849  1
  O  O75  1  0.89787364  0.97562801  0.41347241  1
  O  O76  1  0.08851725  0.19768995  0.41117784  1
  O  O77  1  0.57675998  0.17253849  0.41088717  1
  O  O78  1  0.01388271  0.20284440  0.91417960  1
  O  O79  1  0.51275199  0.18790947  0.91706530  1
  O  O80  1  0.07651669  0.98036068  0.91248124  1
  O  O81  1  0.58728709  0.97190092  0.91488254  1
  O  O82  1  0.39667101  0.81919185  0.91510882  1
  O  O83  1  0.90093583  0.83041971  0.91207712  1
  O  O84  1  0.49284607  0.17855095  0.58853128  1
  O  O85  1  0.98815568  0.17543587  0.58661368  1
  O  O86  1  0.08523128  0.02237311  0.59080051  1
  O  O87  1  0.59309759  0.01895441  0.58864034  1
  O  O88  1  0.41727766  0.83224849  0.59599025  1
  O  O89  1  0.91053162  0.80257776  0.58585818  1
  O  O90  1  0.48844938  0.80177519  0.08787915  1
  O  O91  1  0.99436456  0.81006678  0.09244604  1
  O  O92  1  0.41026301  0.01912489  0.08698285  1
  O  O93  1  0.91673224  0.00727505  0.09521619  1
  O  O94  1  0.09176270  0.16574660  0.09156921  1
  O  O95  1  0.58511708  0.14898930  0.09183521  1
  O  O96  1  0.34969671  0.16291915  0.74474798  1
  O  O97  1  0.85804782  0.17822033  0.74764963  1
  O  O98  1  0.23111605  0.30136169  0.74791179  1
  O  O99  1  0.73865066  0.31081740  0.74517437  1
  O  O100  1  0.42214681  0.52741651  0.74362504  1
  O  O101  1  0.91701824  0.51964506  0.74507770  1
  O  O102  1  0.35306856  0.53191292  0.24721330  1
  O  O103  1  0.85097524  0.53913250  0.24466946  1
  O  O104  1  0.41308913  0.30851685  0.24563972  1
  O  O105  1  0.92269436  0.31408994  0.24407284  1
  O  O106  1  0.23006401  0.15194652  0.24414339  1
  O  O107  1  0.73143927  0.16163156  0.24786840  1
  O  O108  1  0.31973006  0.50569441  0.92626547  1
  O  O109  1  0.82405809  0.51368769  0.92355778  1
  O  O110  1  0.42281428  0.35920737  0.93213091  1
  O  O111  1  0.93621911  0.36597834  0.92269762  1
  O  O112  1  0.24965237  0.14879983  0.92805063  1
  O  O113  1  0.74402801  0.13740254  0.92076424  1
  O  O114  1  0.32379128  0.13473927  0.42209458  1
  O  O115  1  0.82122923  0.13456106  0.42534201  1
  O  O116  1  0.24451665  0.34916434  0.41975182  1
  O  O117  1  0.74995200  0.35046475  0.42788900  1
  O  O118  1  0.43506192  0.50637316  0.42154684  1
  O  O119  1  0.92381617  0.48795497  0.42958973  1
  O  O120  1  0.17355017  0.50602086  0.06858889  1
  O  O121  1  0.66988282  0.49679018  0.07482038  1
  O  O122  1  0.07115897  0.65014797  0.07752410  1
  O  O123  1  0.56798369  0.64826857  0.07449478  1
  O  O124  1  0.25381773  0.86038005  0.07375656  1
  O  O125  1  0.74468661  0.84020398  0.07170022  1
  O  O126  1  0.16969421  0.84377151  0.57545501  1
  O  O127  1  0.67408927  0.84177775  0.56577099  1
  O  O128  1  0.24516313  0.65096673  0.56993875  1
  O  O129  1  0.75401668  0.64777482  0.57265495  1
  O  O130  1  0.06813082  0.48773248  0.57332713  1
  O  O131  1  0.57104143  0.49410632  0.57650820  1
  O  O132  1  0.14796959  0.83708257  0.25315078  1
  O  O133  1  0.65144016  0.84461990  0.25687098  1
  O  O134  1  0.26066190  0.70078211  0.25455966  1
  O  O135  1  0.77115099  0.69913370  0.25222809  1
  O  O136  1  0.07855518  0.46322672  0.25077029  1
  O  O137  1  0.58439148  0.48891001  0.25339263  1
  O  O138  1  0.15097731  0.45792208  0.75710582  1
  O  O139  1  0.64368765  0.47203031  0.74991747  1
  O  O140  1  0.08735662  0.68502116  0.75320986  1
  O  O141  1  0.57792694  0.69700624  0.75163565  1
  O  O142  1  0.26870670  0.84269435  0.75278096  1
  O  O143  1  0.76235202  0.82555028  0.75475313  1
loop_
_geom_bond_atom_site_label_1
_geom_bond_atom_site_label_2
_geom_bond_distance
_geom_bond_site_symmetry_2
Na0 O132 2.327746 1_555
Na0 O103 2.352875 1_455
Na0 O105 2.448248 1_455
Na0 O136 2.501537 1_555
Na0 O60 2.506205 1_555
Na0 O31 2.779945 1_455
Na0 O3 2.851243 1_455
Na0 O22 2.920790 1_555
Na1 O102 2.281744 1_555
Na1 O137 2.399277 1_555
Na1 O133 2.409905 1_555
Na1 O104 2.469693 1_555
Na1 O30 2.739462 1_555
Na1 O61 2.750117 1_555
Na1 O23 2.919136 1_555
Na1 O2 2.936151 1_555
Na2 O97 2.221844 1_555
Na2 O101 2.400102 1_555
Na2 O138 2.405760 1_655
Na2 O140 2.406474 1_655
Na2 O25 2.722162 1_555
Na2 O66 2.784557 1_655
Na2 O14 2.929748 1_655
Na2 O11 2.994073 1_555
Na3 O139 2.222813 1_555
Na3 O96 2.363788 1_555
Na3 O100 2.470574 1_555
Na3 O141 2.561052 1_555
Na3 O67 2.576565 1_555
Na3 O24 2.794958 1_555
Na3 O10 2.847450 1_555
Na3 O15 2.919310 1_555
Na4 O79 2.355856 1_555
Na4 O113 2.491617 1_555
Na4 O109 2.494224 1_555
Na4 O81 2.541887 1_545
Na4 O37 2.619370 1_556
Na4 O7 2.675014 1_555
Na4 O71 2.838271 1_555
Na4 O51 2.861573 1_555
Na5 O72 2.358187 1_545
Na5 O42 2.427277 1_555
Na5 O114 2.458748 1_555
Na5 O116 2.507436 1_555
Na5 O76 2.553788 1_555
Na5 O58 2.719475 1_545
Na5 O62 2.889863 1_545
Na5 O0 2.961168 1_555
Na6 O86 2.396191 1_665
Na6 O89 2.456061 1_555
Na6 O85 2.480061 1_565
Na6 O72 2.635743 1_655
Na6 O75 2.719646 1_555
Na6 O76 2.739723 1_665
Na7 O87 2.517462 1_565
Na7 O77 2.532202 1_565
Na7 O73 2.562749 1_555
Na7 O88 2.602551 1_555
Na7 O84 2.625372 1_565
Na7 O74 2.655035 1_555
Na8 O80 2.369696 1_545
Na8 O78 2.469166 1_555
Na8 O83 2.534054 1_445
Na8 O94 2.665507 1_556
Na8 O93 2.738154 1_456
Na8 O91 2.775438 1_446
Na9 O79 2.466324 1_554
Na9 O95 2.493504 1_555
Na9 O92 2.557186 1_555
Na9 O90 2.584058 1_545
Na9 O81 2.605562 1_544
Na9 O82 2.627285 1_544
Na10 O112 2.574483 1_555
Na10 O98 2.623732 1_555
Na10 O108 2.636728 1_555
Na10 O110 2.643313 1_555
Na10 O96 2.666403 1_555
Na10 O100 2.713034 1_555
Na11 O99 2.379216 1_555
Na11 O97 2.391105 1_555
Na11 O101 2.419261 1_555
Na11 O113 2.730100 1_555
Na11 O109 2.818285 1_555
Na11 O111 2.835509 1_555
Na12 O104 2.416926 1_555
Na12 O102 2.429945 1_555
Na12 O118 2.638293 1_555
Na12 O106 2.658855 1_555
Na12 O116 2.669191 1_555
Na12 O114 2.730946 1_555
Na13 O117 2.489492 1_555
Na13 O115 2.566703 1_555
Na13 O119 2.567474 1_555
Na13 O107 2.653661 1_555
Na13 O103 2.742376 1_555
Na13 O105 2.796967 1_555
Na14 O134 2.415445 1_555
Na14 O120 2.570552 1_555
Na14 O124 2.599635 1_555
Na14 O136 2.650132 1_555
Na14 O122 2.738190 1_555
Na14 O132 2.749701 1_555
Na15 O121 2.477296 1_555
Na15 O125 2.534642 1_555
Na15 O137 2.571099 1_555
Na15 O135 2.607435 1_555
Na15 O123 2.684829 1_555
Na15 O133 2.798482 1_555
Na16 O126 2.505323 1_555
Na16 O140 2.524464 1_555
Na16 O142 2.547385 1_555
Na16 O128 2.594846 1_555
Na16 O130 2.751923 1_555
Na16 O138 2.778076 1_555
Na17 O143 2.359068 1_555
Na17 O139 2.450687 1_555
Na17 O141 2.600561 1_555
Na17 O129 2.704765 1_555
Na17 O127 2.785378 1_555
Na17 O131 2.806378 1_555
O0 S0 1.494748 1_555
O0 Sc0 2.150459 1_445
O1 S1 1.486422 1_555
O1 Ti0 2.062180 1_555
O2 Si0 1.668710 1_555
O2 Ti0 1.856517 1_565
O3 S2 1.498626 1_555
O3 Sc0 2.064381 1_555
O4 Si1 1.659396 1_555
O4 Ti0 1.778043 1_555
O5 S3 1.475298 1_555
O5 Sc0 2.203892 1_545
O6 S4 1.487057 1_555
O6 Ti1 2.054963 1_445
O7 Si2 1.640166 1_555
O7 Sc1 1.913286 1_555
O8 S5 1.466586 1_555
O8 Sc1 2.200217 1_565
O9 Si3 1.662948 1_655
O9 Ti1 1.769041 1_555
O10 S6 1.488552 1_555
O10 Sc1 2.103705 1_555
O11 Si4 1.679411 1_545
O11 Ti1 1.823870 1_545
O12 S6 1.465193 1_565
O12 Ti3 2.263875 1_565
O13 Si4 1.663641 1_555
O13 Ti2 1.833498 1_555
O14 S4 1.486180 1_555
O14 Ti2 2.122745 1_445
O15 Si2 1.668194 1_555
O15 Ti3 1.845100 1_555
O16 Si3 1.653982 1_555
O16 Ti2 1.777044 1_455
O17 S5 1.486201 1_555
O17 Ti3 2.037590 1_565
O18 Si0 1.654613 1_555
O18 Ti5 1.855000 1_565
O19 S2 1.468063 1_555
O19 Ti4 2.198092 1_665
O20 S3 1.490172 1_455
O20 Ti4 2.029970 1_555
O21 Si1 1.650630 1_555
O21 Ti5 1.784319 1_555
O22 S0 1.483183 1_565
O22 Ti4 2.179857 1_565
O23 S1 1.484762 1_565
O23 Ti5 2.149818 1_565
O24 S7 1.479317 1_555
O24 Sc2 2.250679 1_555
O25 S8 1.475529 1_555
O25 Sc3 2.294107 1_555
O26 Si5 1.612786 1_555
O26 Sc2 1.918562 1_555
O27 Si6 1.589187 1_555
O27 Sc3 1.988532 1_555
O28 Si7 1.620165 1_555
O28 Sc2 1.913884 1_555
O29 S9 1.453973 1_555
O29 Sc3 2.301987 1_555
O30 S10 1.494285 1_555
O30 Sc4 2.155134 1_555
O31 S11 1.483958 1_555
O31 Sc5 2.243608 1_555
O32 S12 1.460451 1_555
O32 Sc4 2.264412 1_555
O33 Si8 1.613991 1_555
O33 Sc5 1.915362 1_555
O34 Si9 1.600271 1_555
O34 Sc4 1.961984 1_555
O35 Si10 1.621200 1_555
O35 Sc5 1.904786 1_555
O36 Si9 1.629096 1_555
O36 Ti6 1.869848 1_554
O37 Si10 1.624859 1_555
O37 Sc6 1.976036 1_554
O38 S10 1.468085 1_555
O38 Ti6 2.219876 1_554
O39 S11 1.467945 1_555
O39 Sc6 2.201328 1_554
O40 S12 1.483220 1_555
O40 Ti6 2.070321 1_554
O41 Si8 1.612189 1_555
O41 Sc6 1.921080 1_554
O42 Si5 1.631419 1_555
O42 Sc7 1.993194 1_555
O43 Si6 1.646586 1_555
O43 Ti7 1.832138 1_555
O44 Si7 1.628100 1_555
O44 Sc7 1.896232 1_555
O45 S9 1.488202 1_555
O45 Ti7 2.040530 1_555
O46 S7 1.471545 1_555
O46 Sc7 2.136072 1_555
O47 S8 1.471912 1_555
O47 Ti7 2.192988 1_555
O48 S13 1.499572 1_555
O48 Ti8 1.990426 1_556
O49 S14 1.477099 1_555
O49 Ti9 2.146339 1_556
O50 S15 1.512130 1_555
O50 Ti8 1.980272 1_556
O51 Si11 1.663020 1_555
O51 Ti9 1.834319 1_556
O52 Si12 1.665030 1_555
O52 Ti8 1.828426 1_556
O53 S16 1.459535 1_555
O53 Ti9 2.210886 1_556
O54 S17 1.471225 1_555
O54 Ti10 2.199976 1_555
O55 S18 1.478105 1_555
O55 Ti11 2.083994 1_555
O56 S19 1.447591 1_555
O56 Ti10 2.291149 1_555
O57 Si13 1.652228 1_555
O57 Ti11 1.847979 1_555
O58 Si14 1.645894 1_555
O58 Ti10 1.886824 1_555
O59 S20 1.497820 1_555
O59 Ti11 2.034863 1_555
O60 Si14 1.639612 1_555
O60 Sc8 2.037379 1_555
O61 S20 1.490019 1_555
O61 Sc9 2.148873 1_555
O62 S17 1.494860 1_555
O62 Sc8 2.090017 1_555
O63 S18 1.469961 1_555
O63 Sc9 2.195694 1_555
O64 S19 1.482432 1_555
O64 Sc8 2.063302 1_555
O65 Si13 1.616879 1_555
O65 Sc9 1.893583 1_555
O66 S15 1.481916 1_555
O66 Sc10 2.174942 1_555
O67 Si11 1.622121 1_555
O67 Sc11 2.070799 1_555
O68 Si12 1.608202 1_555
O68 Sc10 1.895913 1_555
O69 S16 1.471373 1_555
O69 Sc11 2.181765 1_555
O70 S13 1.470698 1_555
O70 Sc10 2.197393 1_555
O71 S14 1.482155 1_555
O71 Sc11 2.145185 1_555
O72 Si14 1.673891 1_555
O72 Sc0 1.963604 1_455
O73 S20 1.476107 1_555
O73 Ti0 2.293631 1_565
O74 S17 1.487896 1_555
O74 Ti0 2.091536 1_565
O75 S18 1.499847 1_555
O75 Sc0 2.104640 1_555
O76 S19 1.509795 1_555
O76 Sc0 2.134850 1_445
O77 Si13 1.633863 1_555
O77 Ti0 1.961029 1_555
O78 S15 1.475333 1_555
O78 Ti1 2.318046 1_445
O79 Si11 1.651123 1_555
O79 Sc1 2.042276 1_555
O80 Si12 1.625574 1_555
O80 Ti1 1.997038 1_455
O81 S16 1.504358 1_555
O81 Sc1 2.194548 1_565
O82 S13 1.470339 1_555
O82 Sc1 2.254681 1_565
O83 S14 1.492114 1_555
O83 Ti1 2.113217 1_555
O84 S7 1.479849 1_555
O84 Ti3 2.117196 1_555
O85 S8 1.482998 1_555
O85 Ti2 2.300741 1_545
O86 Si5 1.639498 1_555
O86 Ti2 1.923557 1_445
O87 Si6 1.668342 1_555
O87 Ti3 1.842691 1_555
O88 Si7 1.647287 1_555
O88 Ti3 1.885103 1_565
O89 S9 1.497266 1_555
O89 Ti2 2.146880 1_555
O90 S10 1.480357 1_555
O90 Ti5 2.267293 1_565
O91 S11 1.498043 1_555
O91 Ti4 2.046232 1_665
O92 S12 1.499773 1_555
O92 Ti5 2.110057 1_555
O93 Si8 1.697751 1_555
O93 Ti4 1.770971 1_655
O94 Si9 1.691524 1_555
O94 Ti4 1.806014 1_555
O95 Si10 1.643588 1_555
O95 Ti5 1.904092 1_555
O96 S6 1.498943 1_555
O96 Sc2 2.313210 1_555
O97 Si4 1.616159 1_545
O97 Sc3 2.035201 1_555
O98 S4 1.480406 1_555
O98 Sc2 2.167178 1_555
O99 Si2 1.599112 1_555
O99 Sc3 1.960178 1_555
O100 S5 1.498020 1_555
O100 Sc2 2.273379 1_555
O101 Si3 1.590183 1_655
O101 Sc3 2.124651 1_555
O102 Si0 1.634009 1_555
O102 Sc4 2.019899 1_555
O103 S2 1.494336 1_555
O103 Sc5 2.308814 1_555
O104 Si1 1.606253 1_555
O104 Sc4 2.111277 1_555
O105 S3 1.486707 1_555
O105 Sc5 2.323503 1_555
O106 S0 1.458465 1_555
O106 Sc4 2.183288 1_555
O107 S1 1.485627 1_555
O107 Sc5 2.158594 1_555
O108 S13 1.487687 1_555
O108 Ti6 2.070991 1_555
O109 S14 1.490883 1_555
O109 Sc6 2.288241 1_555
O110 Si11 1.646303 1_555
O110 Ti6 1.885404 1_555
O111 S15 1.474724 1_655
O111 Sc6 2.234224 1_555
O112 Si12 1.656890 1_545
O112 Ti6 1.808513 1_555
O113 S16 1.513756 1_545
O113 Sc6 2.166453 1_555
O114 S17 1.487983 1_545
O114 Sc7 2.353784 1_555
O115 S18 1.482464 1_545
O115 Ti7 2.104910 1_555
O116 S19 1.499313 1_555
O116 Sc7 2.214393 1_555
O117 Si13 1.656227 1_555
O117 Ti7 1.823862 1_555
O118 S20 1.482847 1_555
O118 Sc7 2.248168 1_555
O119 Si14 1.630267 1_655
O119 Ti7 1.937224 1_555
O120 Si9 1.647608 1_555
O120 Ti8 1.906039 1_555
O121 Si10 1.662332 1_555
O121 Ti9 1.814771 1_555
O122 S11 1.493939 1_455
O122 Ti8 2.114801 1_555
O123 S10 1.501024 1_555
O123 Ti9 2.036918 1_555
O124 S12 1.503171 1_565
O124 Ti8 2.102802 1_555
O125 Si8 1.620278 1_565
O125 Ti9 1.915347 1_555
O126 Si5 1.670260 1_565
O126 Ti10 1.796944 1_555
O127 Si6 1.659559 1_565
O127 Ti11 1.859080 1_555
O128 Si7 1.649570 1_555
O128 Ti10 1.866298 1_555
O129 S9 1.507433 1_555
O129 Ti11 2.055300 1_555
O130 S8 1.515728 1_455
O130 Ti10 1.982211 1_555
O131 S7 1.508135 1_555
O131 Ti11 2.023759 1_555
O132 S0 1.497577 1_565
O132 Sc8 2.232708 1_555
O133 S1 1.485129 1_565
O133 Sc9 2.299906 1_555
O134 Si0 1.621014 1_555
O134 Sc8 2.016721 1_555
O135 S2 1.473211 1_555
O135 Sc9 2.179220 1_555
O136 S3 1.494100 1_455
O136 Sc8 2.239347 1_555
O137 Si1 1.633896 1_555
O137 Sc9 2.010700 1_555
O138 S4 1.485752 1_555
O138 Sc10 2.293025 1_555
O139 Si2 1.638542 1_555
O139 Sc11 2.032850 1_555
O140 Si3 1.632765 1_555
O140 Sc10 1.999623 1_555
O141 S5 1.488623 1_555
O141 Sc11 2.207046 1_555
O142 S6 1.485072 1_565
O142 Sc10 2.118552 1_555
O143 Si4 1.603289 1_555
O143 Sc11 2.027935 1_555
