# generated using pymatgen
data_Na6Zn4SiS5O24
_symmetry_space_group_name_H-M   'P 1'
_cell_length_a   9.08162994
_cell_length_b   9.00832180
_cell_length_c   22.03714663
_cell_angle_alpha   88.03267703
_cell_angle_beta   90.78606065
_cell_angle_gamma   120.13864609
_symmetry_Int_Tables_number   1
_chemical_formula_structural   Na6Zn4SiS5O24
_chemical_formula_sum   'Na18 Zn12 Si3 S15 O72'
_cell_volume   1558.20854298
_cell_formula_units_Z   3
loop_
 _symmetry_equiv_pos_site_id
 _symmetry_equiv_pos_as_xyz
  1  'x, y, z'
loop_
 _atom_site_type_symbol
 _atom_site_label
 _atom_site_symmetry_multiplicity
 _atom_site_fract_x
 _atom_site_fract_y
 _atom_site_fract_z
 _atom_site_occupancy
  Na  Na0  1  0.62525555  0.99932302  0.24994375  1
  Na  Na1  1  0.36224219  0.34759570  0.25353306  1
  Na  Na2  1  0.01208347  0.64826177  0.24418457  1
  Na  Na3  1  0.63347299  0.64392935  0.74087009  1
  Na  Na4  1  0.98443853  0.34922845  0.75644377  1
  Na  Na5  1  0.37554467  0.00233223  0.75117730  1
  Na  Na6  1  0.31488307  0.34238185  0.58665532  1
  Na  Na7  1  0.01931789  0.69748346  0.57775256  1
  Na  Na8  1  0.66968564  0.95533022  0.58845173  1
  Na  Na9  1  0.29561393  0.96470064  0.08928506  1
  Na  Na10  1  0.70356255  0.03529526  0.91135035  1
  Na  Na11  1  0.70170846  0.66616746  0.42366447  1
  Na  Na12  1  0.00149624  0.00240314  0.49724502  1
  Na  Na13  1  0.00015877  0.99991678  0.00047284  1
  Na  Na14  1  0.66672847  0.33614184  0.83551961  1
  Na  Na15  1  0.64736268  0.30304958  0.33562255  1
  Na  Na16  1  0.33135139  0.66374774  0.16476630  1
  Na  Na17  1  0.35887779  0.67695143  0.66739561  1
  Zn  Zn0  1  0.02728162  0.01312724  0.34525593  1
  Zn  Zn1  1  0.98875959  0.00225236  0.84610588  1
  Zn  Zn2  1  0.96299057  0.97015612  0.65442863  1
  Zn  Zn3  1  0.00634928  0.99838588  0.15580542  1
  Zn  Zn4  1  0.66295848  0.32885424  0.67911414  1
  Zn  Zn5  1  0.65652909  0.32372937  0.17678320  1
  Zn  Zn6  1  0.67159018  0.34297903  0.98805132  1
  Zn  Zn7  1  0.67060852  0.34160065  0.48853706  1
  Zn  Zn8  1  0.32808914  0.65692385  0.01263391  1
  Zn  Zn9  1  0.34637838  0.66474166  0.51210670  1
  Zn  Zn10  1  0.33208724  0.68521788  0.32229292  1
  Zn  Zn11  1  0.34551894  0.67694119  0.82391653  1
  Si  Si0  1  0.30471972  0.00143424  0.24637341  1
  Si  Si1  1  0.69194648  0.00279446  0.75124212  1
  Si  Si2  1  0.66661117  0.63114747  0.58186860  1
  S  S0  1  0.70432944  0.70472606  0.25237202  1
  S  S1  1  0.99838592  0.29294790  0.24956601  1
  S  S2  1  0.29027744  0.29112276  0.74955450  1
  S  S3  1  0.00501400  0.70605239  0.75179322  1
  S  S4  1  0.96795522  0.33515488  0.58311722  1
  S  S5  1  0.36648003  0.03341473  0.58287989  1
  S  S6  1  0.96331629  0.62957984  0.08360140  1
  S  S7  1  0.66894184  0.03113579  0.08186401  1
  S  S8  1  0.36739479  0.33707220  0.08239599  1
  S  S9  1  0.63252638  0.66290142  0.91738783  1
  S  S10  1  0.03625377  0.37042004  0.91629197  1
  S  S11  1  0.33120908  0.96872877  0.91820754  1
  S  S12  1  0.64226925  0.97465323  0.41652008  1
  S  S13  1  0.32949716  0.36817916  0.41564807  1
  S  S14  1  0.03119947  0.66274651  0.41758904  1
  O  O0  1  0.22128901  0.04967272  0.30169477  1
  O  O1  1  0.80003015  0.78143972  0.30905917  1
  O  O2  1  0.95791289  0.17965276  0.30485512  1
  O  O3  1  0.20540177  0.17768182  0.80304823  1
  O  O4  1  0.98838491  0.79730442  0.80289331  1
  O  O5  1  0.81261072  0.04214630  0.81139181  1
  O  O6  1  0.76826498  0.96293894  0.69078563  1
  O  O7  1  0.19777675  0.21217150  0.69242975  1
  O  O8  1  0.03880223  0.80877679  0.69307748  1
  O  O9  1  0.78364818  0.82238289  0.19890052  1
  O  O10  1  0.01990608  0.21238304  0.19546554  1
  O  O11  1  0.18756670  0.95848445  0.18478261  1
  O  O12  1  0.89361668  0.35407158  0.64019588  1
  O  O13  1  0.46787185  0.09901072  0.63959833  1
  O  O14  1  0.63493366  0.51070085  0.64346383  1
  O  O15  1  0.88148728  0.53285694  0.14180621  1
  O  O16  1  0.64603588  0.11291198  0.13645012  1
  O  O17  1  0.45981122  0.35611697  0.14115175  1
  O  O18  1  0.45977575  0.31443987  0.03187169  1
  O  O19  1  0.86411045  0.53922387  0.03034576  1
  O  O20  1  0.68806710  0.13627599  0.02538160  1
  O  O21  1  0.45724853  0.14360394  0.52939667  1
  O  O22  1  0.69696154  0.54983142  0.52145305  1
  O  O23  1  0.85054643  0.30008892  0.53148079  1
  O  O24  1  0.54091362  0.68636930  0.96791673  1
  O  O25  1  0.13618466  0.46050294  0.96942154  1
  O  O26  1  0.31258971  0.86316792  0.97444995  1
  O  O27  1  0.55517451  0.86497753  0.47190299  1
  O  O28  1  0.31898451  0.44894744  0.47227602  1
  O  O29  1  0.13190117  0.67378860  0.47284533  1
  O  O30  1  0.11533783  0.65566423  0.36134620  1
  O  O31  1  0.54174313  0.89496735  0.36056438  1
  O  O32  1  0.34645895  0.47911690  0.36080845  1
  O  O33  1  0.11811049  0.46674646  0.85808872  1
  O  O34  1  0.35407908  0.88726907  0.86340446  1
  O  O35  1  0.54017273  0.64351338  0.85864096  1
  O  O36  1  0.00765624  0.81646914  0.41576014  1
  O  O37  1  0.80911787  0.98053369  0.41361210  1
  O  O38  1  0.17428989  0.19724994  0.41364889  1
  O  O39  1  0.01707546  0.19521517  0.91726241  1
  O  O40  1  0.18025086  0.98926013  0.91265725  1
  O  O41  1  0.80448813  0.82263415  0.91472132  1
  O  O42  1  0.00255720  0.18979454  0.58739227  1
  O  O43  1  0.19995207  0.02773521  0.58676245  1
  O  O44  1  0.84022776  0.82292649  0.58433509  1
  O  O45  1  0.98138816  0.80382951  0.08260427  1
  O  O46  1  0.81984338  0.01041153  0.08761000  1
  O  O47  1  0.19567373  0.17843366  0.08466198  1
  O  O48  1  0.67423272  0.17697578  0.74374023  1
  O  O49  1  0.46687876  0.31956895  0.74958498  1
  O  O50  1  0.84528974  0.53646643  0.74877044  1
  O  O51  1  0.69798335  0.53675910  0.24609963  1
  O  O52  1  0.85357793  0.32673861  0.24298043  1
  O  O53  1  0.49963818  0.17098061  0.24177269  1
  O  O54  1  0.65045682  0.50846664  0.92487889  1
  O  O55  1  0.86039603  0.34753466  0.91802558  1
  O  O56  1  0.49327114  0.13898620  0.92118033  1
  O  O57  1  0.66137212  0.14681376  0.42099232  1
  O  O58  1  0.48730588  0.35497540  0.41662894  1
  O  O59  1  0.85836048  0.50554580  0.41927475  1
  O  O60  1  0.35061251  0.49252862  0.07505048  1
  O  O61  1  0.13935104  0.65240698  0.08190716  1
  O  O62  1  0.50684077  0.86086317  0.07874540  1
  O  O63  1  0.33498208  0.85464765  0.57750806  1
  O  O64  1  0.49533508  0.65290357  0.57870385  1
  O  O65  1  0.13436908  0.49856859  0.57474208  1
  O  O66  1  0.32272409  0.82714805  0.25476606  1
  O  O67  1  0.52562047  0.67143513  0.25549847  1
  O  O68  1  0.15948567  0.46173376  0.25545971  1
  O  O69  1  0.29965570  0.46154361  0.75326457  1
  O  O70  1  0.15233010  0.67699451  0.75811765  1
  O  O71  1  0.50107965  0.82902650  0.75766123  1
loop_
_geom_bond_atom_site_label_1
_geom_bond_atom_site_label_2
_geom_bond_distance
_geom_bond_site_symmetry_2
Na0 O53 2.339184 1_565
Na0 O66 2.383913 1_555
Na0 O31 2.564967 1_555
Na0 O67 2.617737 1_555
Na0 O52 2.618905 1_565
Na0 O16 2.642224 1_565
Na0 O2 2.887309 1_565
Na0 O9 2.888771 1_555
Na1 O53 2.487195 1_555
Na1 O68 2.521097 1_555
Na1 O0 2.521830 1_555
Na1 O67 2.524688 1_555
Na1 O17 2.627406 1_555
Na1 O51 2.646599 1_555
Na1 O32 2.717555 1_555
Na2 O66 2.460183 1_555
Na2 O51 2.504166 1_455
Na2 O52 2.505859 1_455
Na2 O15 2.535153 1_455
Na2 O68 2.626428 1_555
Na2 O11 2.719719 1_555
Na2 O30 2.726281 1_555
Na3 O14 2.498384 1_555
Na3 O49 2.528602 1_555
Na3 O71 2.535865 1_555
Na3 O50 2.552859 1_555
Na3 O69 2.637195 1_555
Na3 O6 2.694774 1_555
Na3 O35 2.740475 1_555
Na4 O48 2.457862 1_555
Na4 O69 2.513102 1_655
Na4 O33 2.531705 1_655
Na4 O70 2.555243 1_655
Na4 O50 2.566212 1_555
Na4 O5 2.653448 1_555
Na4 O12 2.686145 1_555
Na5 O71 2.350534 1_545
Na5 O48 2.359893 1_555
Na5 O49 2.543553 1_555
Na5 O13 2.585319 1_555
Na5 O70 2.594955 1_545
Na5 O34 2.619781 1_545
Na6 O64 2.431458 1_555
Na6 O42 2.453480 1_555
Na6 O43 2.480368 1_555
Na6 O7 2.562798 1_555
Na6 O65 2.648596 1_555
Na6 O28 2.660238 1_555
Na6 O14 2.814144 1_555
Na7 O44 2.409695 1_455
Na7 O63 2.479296 1_555
Na7 O65 2.489407 1_555
Na7 O43 2.590758 1_565
Na7 O29 2.598752 1_555
Na7 O8 2.734919 1_555
Na7 O22 2.825292 1_455
Na8 O64 2.382110 1_555
Na8 O44 2.386621 1_555
Na8 O6 2.405302 1_555
Na8 O42 2.680871 1_665
Na8 O63 2.710484 1_555
Na8 O27 2.749711 1_555
Na8 O23 2.930151 1_565
Na8 O13 2.973858 1_565
Na9 O11 2.321263 1_555
Na9 O61 2.443500 1_555
Na9 O45 2.472974 1_455
Na9 O47 2.506003 1_565
Na9 O62 2.537274 1_555
Na9 O26 2.752396 1_554
Na9 O16 2.954383 1_565
Na9 O18 2.968309 1_565
Na10 O5 2.413721 1_555
Na10 O55 2.441624 1_555
Na10 O39 2.466321 1_655
Na10 O41 2.503438 1_545
Na10 O56 2.526527 1_555
Na10 O20 2.730802 1_556
Na10 O34 2.953432 1_545
Na10 O24 2.955479 1_545
Na11 O22 2.355040 1_555
Na11 O36 2.408938 1_655
Na11 O59 2.491468 1_555
Na11 O37 2.491826 1_555
Na11 O58 2.492832 1_555
Na11 O1 2.684183 1_555
Na12 O44 2.434877 1_445
Na12 O38 2.455311 1_555
Na12 O37 2.465545 1_445
Na12 O36 2.517235 1_545
Na12 O43 2.590810 1_555
Na12 O42 2.647572 1_555
Na13 O45 2.431410 1_455
Na13 O39 2.448698 1_564
Na13 O47 2.535358 1_565
Na13 O41 2.558228 1_454
Na13 O46 2.575290 1_465
Na13 O40 2.585818 1_554
Na14 O55 2.480648 1_555
Na14 O56 2.498244 1_555
Na14 O50 2.539763 1_555
Na14 O48 2.540124 1_555
Na14 O49 2.560407 1_555
Na14 O54 2.599561 1_555
Na15 O57 2.351125 1_555
Na15 O53 2.445950 1_555
Na15 O58 2.515901 1_555
Na15 O59 2.649824 1_555
Na15 O51 2.702520 1_555
Na15 O52 2.719280 1_555
Na16 O61 2.476209 1_555
Na16 O62 2.509282 1_555
Na16 O66 2.535145 1_555
Na16 O68 2.593442 1_555
Na16 O60 2.609257 1_555
Na16 O67 2.627816 1_555
Na17 O64 2.401649 1_555
Na17 O71 2.416909 1_555
Na17 O69 2.522555 1_555
Na17 O63 2.579271 1_555
Na17 O70 2.760306 1_555
Na17 O65 2.780168 1_555
O0 Si0 1.625280 1_555
O0 Zn0 1.891151 1_555
O1 S0 1.489914 1_555
O1 Zn0 2.235026 1_665
O2 S1 1.487099 1_555
O2 Zn0 2.069252 1_655
O3 S2 1.476265 1_555
O3 Zn1 2.023538 1_455
O4 S3 1.469531 1_655
O4 Zn1 2.104699 1_565
O5 Si1 1.638855 1_555
O5 Zn1 1.948931 1_555
O6 Si1 1.640836 1_565
O6 Zn2 1.921804 1_555
O7 S2 1.492904 1_555
O7 Zn2 2.325746 1_445
O8 S3 1.506076 1_555
O8 Zn2 2.053493 1_455
O9 S0 1.483796 1_555
O9 Zn3 2.058012 1_655
O10 S1 1.481398 1_455
O10 Zn3 2.090373 1_545
O11 Si0 1.645282 1_565
O11 Zn3 1.948053 1_555
O12 S4 1.490151 1_555
O12 Zn4 2.175596 1_555
O13 S5 1.494013 1_555
O13 Zn4 2.140566 1_555
O14 Si2 1.642762 1_555
O14 Zn4 1.921013 1_555
O15 S6 1.501959 1_555
O15 Zn5 2.096564 1_555
O16 S7 1.501521 1_555
O16 Zn5 2.082679 1_555
O17 S8 1.500405 1_555
O17 Zn5 2.088667 1_555
O18 S8 1.482600 1_555
O18 Zn6 2.058215 1_554
O19 S6 1.466884 1_555
O19 Zn6 2.003858 1_554
O20 S7 1.495438 1_555
O20 Zn6 2.082695 1_554
O21 S5 1.476011 1_555
O21 Zn7 2.052722 1_555
O22 Si2 1.632461 1_555
O22 Zn7 1.933896 1_555
O23 S4 1.478081 1_555
O23 Zn7 2.062214 1_555
O24 S9 1.481561 1_555
O24 Zn8 2.072830 1_556
O25 S10 1.466120 1_555
O25 Zn8 2.012098 1_556
O26 S11 1.494115 1_555
O26 Zn8 2.081284 1_556
O27 S12 1.500095 1_555
O27 Zn9 2.033691 1_555
O28 S13 1.493707 1_555
O28 Zn9 2.058345 1_555
O29 S14 1.488439 1_555
O29 Zn9 2.158121 1_555
O30 S14 1.484756 1_555
O30 Zn10 2.047144 1_555
O31 S12 1.497029 1_555
O31 Zn10 2.087925 1_555
O32 S13 1.500182 1_555
O32 Zn10 2.077644 1_555
O33 S10 1.500908 1_555
O33 Zn11 2.106066 1_555
O34 S11 1.503646 1_555
O34 Zn11 2.077648 1_555
O35 S9 1.499538 1_555
O35 Zn11 2.069515 1_555
O36 S14 1.502736 1_555
O36 Zn0 2.255162 1_565
O37 S12 1.491558 1_555
O37 Zn0 2.397542 1_665
O38 S13 1.477549 1_555
O38 Zn0 2.167454 1_555
O39 S10 1.497855 1_555
O39 Zn1 2.296480 1_455
O40 S11 1.475511 1_555
O40 Zn1 2.304680 1_465
O41 S9 1.500994 1_555
O41 Zn1 2.210743 1_565
O42 S4 1.492051 1_455
O42 Zn2 2.307856 1_445
O43 S5 1.490864 1_555
O43 Zn2 2.457186 1_445
O44 Si2 1.656008 1_555
O44 Zn2 1.999138 1_555
O45 S6 1.493452 1_555
O45 Zn3 2.347433 1_655
O46 S7 1.476315 1_555
O46 Zn3 2.289620 1_645
O47 S8 1.495343 1_555
O47 Zn3 2.268013 1_545
O48 Si1 1.658361 1_555
O48 Zn4 1.978265 1_555
O49 S2 1.491712 1_555
O49 Zn4 2.346720 1_555
O50 S3 1.490448 1_655
O50 Zn4 2.369287 1_555
O51 S0 1.496153 1_555
O51 Zn5 2.370192 1_555
O52 S1 1.495629 1_555
O52 Zn5 2.283331 1_555
O53 Si0 1.660080 1_555
O53 Zn5 1.981559 1_555
O54 S9 1.483301 1_555
O54 Zn6 2.082009 1_555
O55 S10 1.505029 1_655
O55 Zn6 2.306668 1_555
O56 S11 1.503415 1_545
O56 Zn6 2.302856 1_555
O57 S12 1.478132 1_545
O57 Zn7 2.308621 1_555
O58 S13 1.496234 1_555
O58 Zn7 2.326528 1_555
O59 S14 1.495477 1_655
O59 Zn7 2.192283 1_555
O60 S8 1.486151 1_555
O60 Zn8 2.069673 1_555
O61 S6 1.506803 1_455
O61 Zn8 2.295120 1_555
O62 S7 1.503866 1_565
O62 Zn8 2.292821 1_555
O63 S5 1.496253 1_565
O63 Zn9 2.316404 1_555
O64 Si2 1.662817 1_555
O64 Zn9 2.018635 1_555
O65 S4 1.496682 1_455
O65 Zn9 2.211332 1_555
O66 Si0 1.662211 1_565
O66 Zn10 1.957406 1_555
O67 S0 1.497198 1_555
O67 Zn10 2.360910 1_555
O68 S1 1.497907 1_455
O68 Zn10 2.377095 1_555
O69 S2 1.499307 1_555
O69 Zn11 2.395981 1_555
O70 S3 1.490601 1_555
O70 Zn11 2.260911 1_555
O71 Si1 1.655828 1_565
O71 Zn11 1.995071 1_555
