# generated using pymatgen
data_V3(PO4)4
_symmetry_space_group_name_H-M   'P 1'
_cell_length_a   5.05417021
_cell_length_b   8.21363763
_cell_length_c   13.94313222
_cell_angle_alpha   81.84022084
_cell_angle_beta   90.00000000
_cell_angle_gamma   90.00000000
_symmetry_Int_Tables_number   1
_chemical_formula_structural   V3(PO4)4
_chemical_formula_sum   'V6 P8 O32'
_cell_volume   572.96301833
_cell_formula_units_Z   2
loop_
 _symmetry_equiv_pos_site_id
 _symmetry_equiv_pos_as_xyz
  1  'x, y, z'
loop_
 _atom_site_type_symbol
 _atom_site_label
 _atom_site_symmetry_multiplicity
 _atom_site_fract_x
 _atom_site_fract_y
 _atom_site_fract_z
 _atom_site_occupancy
  V  V0  1  0.50000000  0.50000000  -0.00000000  1
  V  V1  1  0.10594680  0.01674037  0.80381626  1
  V  V2  1  0.60594680  0.48325963  0.69618374  1
  V  V3  1  0.00000000  0.00000000  0.50000000  1
  V  V4  1  0.39405320  0.51674037  0.30381626  1
  V  V5  1  0.89405320  0.98325963  0.19618374  1
  P  P0  1  0.00425951  0.61471173  0.85299156  1
  P  P1  1  0.57790245  0.18890657  0.88276523  1
  P  P2  1  0.50425951  0.88528827  0.64700844  1
  P  P3  1  0.07790245  0.31109343  0.61723477  1
  P  P4  1  0.92209755  0.68890657  0.38276523  1
  P  P5  1  0.49574049  0.11471173  0.35299156  1
  P  P6  1  0.42209755  0.81109343  0.11723477  1
  P  P7  1  0.99574049  0.38528827  0.14700844  1
  O  O0  1  0.60033921  0.28727396  0.96626052  1
  O  O1  1  0.79788338  0.59192903  0.93398916  1
  O  O2  1  0.27646763  0.55073342  0.88475106  1
  O  O3  1  0.31918554  0.08756142  0.89621179  1
  O  O4  1  0.01565996  0.80348749  0.82025325  1
  O  O5  1  0.81193976  0.07694129  0.87829657  1
  O  O6  1  0.54587301  0.30446841  0.78517374  1
  O  O7  1  0.91950159  0.53390452  0.76672214  1
  O  O8  1  0.41950159  0.96609548  0.73327786  1
  O  O9  1  0.51565996  0.69651251  0.67974675  1
  O  O10  1  0.04587301  0.19553159  0.71482626  1
  O  O11  1  0.77646763  0.94926658  0.61524894  1
  O  O12  1  0.31193976  0.42305871  0.62170343  1
  O  O13  1  0.81918554  0.41243858  0.60378821  1
  O  O14  1  0.29788338  0.90807097  0.56601084  1
  O  O15  1  0.10033921  0.21272604  0.53373948  1
  O  O16  1  0.89966079  0.78727396  0.46626052  1
  O  O17  1  0.70211662  0.09192903  0.43398916  1
  O  O18  1  0.18081446  0.58756142  0.39621179  1
  O  O19  1  0.68806024  0.57694129  0.37829657  1
  O  O20  1  0.22353237  0.05073342  0.38475106  1
  O  O21  1  0.95412699  0.80446841  0.28517374  1
  O  O22  1  0.48434004  0.30348749  0.32025325  1
  O  O23  1  0.58049841  0.03390452  0.26672214  1
  O  O24  1  0.08049841  0.46609548  0.23327786  1
  O  O25  1  0.45412699  0.69553159  0.21482626  1
  O  O26  1  0.18806024  0.92305871  0.12170343  1
  O  O27  1  0.98434004  0.19651251  0.17974675  1
  O  O28  1  0.68081446  0.91243858  0.10378821  1
  O  O29  1  0.72353237  0.44926658  0.11524894  1
  O  O30  1  0.20211662  0.40807097  0.06601084  1
  O  O31  1  0.39966079  0.71272604  0.03373948  1
loop_
_geom_bond_atom_site_label_1
_geom_bond_atom_site_label_2
_geom_bond_distance
_geom_bond_site_symmetry_2
O0 P1 1.512609 1_555
O0 V0 1.940289 1_556
O1 P0 1.529201 1_655
O1 V0 1.867265 1_556
O2 P0 1.516236 1_555
O2 V0 1.960145 1_556
O3 P1 1.547118 1_555
O3 V1 1.836385 1_555
O4 P0 1.554006 1_555
O4 V1 1.792998 1_565
O5 P1 1.505011 1_555
O5 V1 1.917500 1_655
O6 P1 1.553095 1_555
O6 V2 1.808616 1_555
O7 P0 1.515768 1_655
O7 V2 1.941124 1_555
O8 P2 1.515768 1_555
O8 V1 1.941124 1_565
O9 P2 1.554006 1_555
O9 V2 1.792998 1_555
O10 P3 1.553095 1_555
O10 V1 1.808616 1_555
O11 P2 1.516236 1_555
O11 V3 1.960145 1_665
O12 P3 1.505011 1_555
O12 V2 1.917500 1_555
O13 P3 1.547118 1_655
O13 V2 1.836385 1_555
O14 P2 1.529201 1_555
O14 V3 1.867265 1_565
O15 P3 1.512609 1_555
O15 V3 1.940289 1_555
O16 P4 1.512609 1_555
O16 V3 1.940289 1_665
O17 P5 1.529201 1_555
O17 V3 1.867265 1_655
O18 P4 1.547118 1_455
O18 V4 1.836385 1_555
O19 P4 1.505011 1_555
O19 V4 1.917500 1_555
O20 P5 1.516236 1_555
O20 V3 1.960145 1_555
O21 P4 1.553095 1_555
O21 V5 1.808616 1_555
O22 P5 1.554006 1_555
O22 V4 1.792998 1_555
O23 P5 1.515768 1_555
O23 V5 1.941124 1_545
O24 P7 1.515768 1_455
O24 V4 1.941124 1_555
O25 P6 1.553095 1_555
O25 V4 1.808616 1_555
O26 P6 1.505011 1_555
O26 V5 1.917500 1_455
O27 P7 1.554006 1_555
O27 V5 1.792998 1_545
O28 P6 1.547118 1_555
O28 V5 1.836385 1_555
O29 P7 1.516236 1_555
O29 V0 1.960145 1_555
O30 P7 1.529201 1_455
O30 V0 1.867265 1_555
O31 P6 1.512609 1_555
O31 V0 1.940289 1_555
