# generated using pymatgen
data_U2Ga8Ru
_symmetry_space_group_name_H-M   'P 1'
_cell_length_a   4.30100200
_cell_length_b   4.30100200
_cell_length_c   11.02196100
_cell_angle_alpha   90.00000000
_cell_angle_beta   90.00000000
_cell_angle_gamma   90.00000000
_symmetry_Int_Tables_number   1
_chemical_formula_structural   U2Ga8Ru
_chemical_formula_sum   'U2 Ga8 Ru1'
_cell_volume   203.89104840
_cell_formula_units_Z   1
loop_
 _symmetry_equiv_pos_site_id
 _symmetry_equiv_pos_as_xyz
  1  'x, y, z'
loop_
 _atom_site_type_symbol
 _atom_site_label
 _atom_site_symmetry_multiplicity
 _atom_site_fract_x
 _atom_site_fract_y
 _atom_site_fract_z
 _atom_site_occupancy
  U  U0  1  0.00000000  0.00000000  0.69112600  1
  U  U1  1  0.00000000  0.00000000  0.30887400  1
  Ga  Ga0  1  0.00000000  0.50000000  0.50000000  1
  Ga  Ga1  1  0.50000000  0.00000000  0.50000000  1
  Ga  Ga2  1  0.50000000  0.50000000  0.69101900  1
  Ga  Ga3  1  0.50000000  0.50000000  0.30898100  1
  Ga  Ga4  1  0.00000000  0.50000000  0.87665600  1
  Ga  Ga5  1  0.50000000  0.00000000  0.87665600  1
  Ga  Ga6  1  0.00000000  0.50000000  0.12334400  1
  Ga  Ga7  1  0.50000000  0.00000000  0.12334400  1
  Ru  Ru0  1  0.00000000  0.00000000  0.00000000  1
loop_
_geom_bond_atom_site_label_1
_geom_bond_atom_site_label_2
_geom_bond_distance
_geom_bond_site_symmetry_2
Ga0 Ga2 3.009548 1_455
Ga0 Ga2 3.009548 1_555
Ga0 Ga3 3.009548 1_555
Ga0 Ga3 3.009548 1_455
Ga0 U0 3.010373 1_555
Ga0 U1 3.010373 1_555
Ga0 U0 3.010373 1_565
Ga0 U1 3.010373 1_565
Ga0 Ga1 3.041268 1_565
Ga0 Ga1 3.041268 1_465
Ga0 Ga1 3.041268 1_455
Ga0 Ga1 3.041268 1_555
Ga1 Ga2 3.009548 1_555
Ga1 Ga2 3.009548 1_545
Ga1 Ga3 3.009548 1_545
Ga1 Ga3 3.009548 1_555
Ga1 U0 3.010373 1_555
Ga1 U1 3.010373 1_555
Ga1 U1 3.010373 1_655
Ga1 U0 3.010373 1_655
Ga2 Ga4 2.968352 1_555
Ga2 Ga5 2.968352 1_565
Ga2 Ga4 2.968352 1_655
Ga2 Ga5 2.968352 1_555
Ga2 U0 3.041268 1_655
Ga2 U0 3.041268 1_555
Ga2 U0 3.041268 1_665
Ga2 U0 3.041268 1_565
Ga3 Ga6 2.968352 1_555
Ga3 Ga6 2.968352 1_655
Ga3 Ga7 2.968352 1_565
Ga3 Ga7 2.968352 1_555
Ga3 U1 3.041268 1_655
Ga3 U1 3.041268 1_665
Ga3 U1 3.041268 1_555
Ga3 U1 3.041268 1_565
Ga4 Ru0 2.544185 1_556
Ga4 Ru0 2.544185 1_566
Ga4 Ga6 2.718986 1_556
Ga4 U0 2.967539 1_565
Ga4 U0 2.967539 1_555
Ga4 Ga5 3.041268 1_465
Ga4 Ga5 3.041268 1_565
Ga4 Ga5 3.041268 1_455
Ga4 Ga5 3.041268 1_555
Ga5 Ru0 2.544185 1_556
Ga5 Ru0 2.544185 1_656
Ga5 Ga7 2.718986 1_556
Ga5 U0 2.967539 1_655
Ga5 U0 2.967539 1_555
Ga6 Ru0 2.544185 1_565
Ga6 Ru0 2.544185 1_555
Ga6 U1 2.967539 1_555
Ga6 U1 2.967539 1_565
Ga6 Ga7 3.041268 1_565
Ga6 Ga7 3.041268 1_555
Ga6 Ga7 3.041268 1_455
Ga6 Ga7 3.041268 1_465
Ga7 Ru0 2.544185 1_655
Ga7 Ru0 2.544185 1_555
Ga7 U1 2.967539 1_555
Ga7 U1 2.967539 1_655
