# generated using pymatgen
data_MgCo4(AgO2)4
_symmetry_space_group_name_H-M   'P 1'
_cell_length_a   3.09659345
_cell_length_b   3.09659345
_cell_length_c   26.88789689
_cell_angle_alpha   91.35305955
_cell_angle_beta   88.64694045
_cell_angle_gamma   121.15698789
_symmetry_Int_Tables_number   1
_chemical_formula_structural   MgCo4(AgO2)4
_chemical_formula_sum   'Mg1 Co4 Ag4 O8'
_cell_volume   220.55349816
_cell_formula_units_Z   1
loop_
 _symmetry_equiv_pos_site_id
 _symmetry_equiv_pos_as_xyz
  1  'x, y, z'
loop_
 _atom_site_type_symbol
 _atom_site_label
 _atom_site_symmetry_multiplicity
 _atom_site_fract_x
 _atom_site_fract_y
 _atom_site_fract_z
 _atom_site_occupancy
  Mg  Mg0  1  0.15213746  0.84786254  0.31338272  1
  Co  Co0  1  0.30739126  0.69260874  0.09870724  1
  Co  Co1  1  0.66683855  0.33316145  0.86755495  1
  Co  Co2  1  0.69319545  0.30680455  0.63746877  1
  Co  Co3  1  0.47490851  0.52509149  0.41515538  1
  Ag  Ag0  1  -0.01373698  0.01373698  0.98307477  1
  Ag  Ag1  1  0.10141517  0.89858483  0.52311769  1
  Ag  Ag2  1  0.66226335  0.33773665  0.21794351  1
  Ag  Ag3  1  0.33066975  0.66933025  0.75201733  1
  O  O0  1  -0.02287425  0.02287425  0.06099893  1
  O  O1  1  -0.00358502  0.00358502  0.90462556  1
  O  O2  1  0.05464488  -0.05464488  0.60094853  1
  O  O3  1  0.14139735  0.85860265  0.44398653  1
  O  O4  1  0.64153672  0.35846328  0.13540284  1
  O  O5  1  0.33586053  0.66413947  0.83009408  1
  O  O6  1  0.33339125  0.66660875  0.67378122  1
  O  O7  1  0.47787901  0.52212099  0.34121893  1
loop_
_geom_bond_atom_site_label_1
_geom_bond_atom_site_label_2
_geom_bond_distance
_geom_bond_site_symmetry_2
Mg0 O7 1.928532 1_555
Mg0 O7 1.928618 1_565
Mg0 O7 1.928618 1_455
Co0 O4 2.009975 1_455
Co0 O4 2.009975 1_565
Co0 O0 2.032214 1_665
Co0 O0 2.032214 1_555
Co0 O0 2.073650 1_565
Co0 O4 2.078234 1_555
Co1 O1 2.025559 1_555
Co1 O1 2.025559 1_665
Co1 O5 2.027304 1_655
Co1 O5 2.027304 1_545
Co1 O1 2.061665 1_655
Co1 O5 2.073610 1_555
Co2 O2 1.968885 1_665
Co2 O2 1.968885 1_555
Co2 O6 1.969557 1_655
Co2 O6 1.969557 1_545
Co2 O6 2.148909 1_555
Co2 O2 2.159218 1_655
Co3 O3 1.938861 1_545
Co3 O3 1.938861 1_655
Co3 O3 1.939619 1_555
Co3 O7 1.987626 1_555
Ag0 O0 2.094460 1_556
Ag0 O1 2.108560 1_555
Ag1 O2 2.101060 1_565
Ag1 O3 2.132749 1_555
Ag2 O4 2.225185 1_555
Ag3 O5 2.100265 1_555
Ag3 O6 2.103258 1_555
