# generated using pymatgen
data_Tl2Te2O5
_symmetry_space_group_name_H-M   'P 1'
_cell_length_a   12.06456458
_cell_length_b   7.24779161
_cell_length_c   8.53308292
_cell_angle_alpha   65.30139125
_cell_angle_beta   90.00000000
_cell_angle_gamma   90.00000000
_symmetry_Int_Tables_number   1
_chemical_formula_structural   Tl2Te2O5
_chemical_formula_sum   'Tl8 Te8 O20'
_cell_volume   677.88653550
_cell_formula_units_Z   4
loop_
 _symmetry_equiv_pos_site_id
 _symmetry_equiv_pos_as_xyz
  1  'x, y, z'
loop_
 _atom_site_type_symbol
 _atom_site_label
 _atom_site_symmetry_multiplicity
 _atom_site_fract_x
 _atom_site_fract_y
 _atom_site_fract_z
 _atom_site_occupancy
  Tl  Tl0  1  0.55764417  0.21747697  0.01666694  1
  Tl  Tl1  1  0.05764417  0.78252303  0.48333306  1
  Tl  Tl2  1  0.44235583  0.78252303  0.98333306  1
  Tl  Tl3  1  0.94235583  0.21747697  0.51666694  1
  Tl  Tl4  1  0.71215444  0.51770811  0.21739443  1
  Tl  Tl5  1  0.21215444  0.48229189  0.28260557  1
  Tl  Tl6  1  0.28784556  0.48229189  0.78260557  1
  Tl  Tl7  1  0.78784556  0.51770811  0.71739443  1
  Te  Te0  1  0.70250741  0.93715794  0.79132704  1
  Te  Te1  1  0.20250741  0.06284206  0.70867296  1
  Te  Te2  1  0.29749259  0.06284206  0.20867296  1
  Te  Te3  1  0.79749259  0.93715794  0.29132704  1
  Te  Te4  1  0.47038168  0.20830062  0.51168885  1
  Te  Te5  1  0.97038168  0.79169938  0.98831115  1
  Te  Te6  1  0.52961832  0.79169938  0.48831115  1
  Te  Te7  1  0.02961832  0.20830062  0.01168885  1
  O  O0  1  0.65150198  0.87613276  0.01528220  1
  O  O1  1  0.15150198  0.12386724  0.48471780  1
  O  O2  1  0.34849802  0.12386724  0.98471780  1
  O  O3  1  0.84849802  0.87613276  0.51528220  1
  O  O4  1  0.62787138  0.72772957  0.75843941  1
  O  O5  1  0.12787138  0.27227043  0.74156059  1
  O  O6  1  0.37212862  0.27227043  0.24156059  1
  O  O7  1  0.87212862  0.72772957  0.25843941  1
  O  O8  1  0.40491247  0.94787930  0.56697504  1
  O  O9  1  0.90491247  0.05212070  0.93302496  1
  O  O10  1  0.59508753  0.05212070  0.43302496  1
  O  O11  1  0.09508753  0.94787930  0.06697504  1
  O  O12  1  0.32732875  0.27339504  0.60056551  1
  O  O13  1  0.82732875  0.72660496  0.89943449  1
  O  O14  1  0.67267125  0.72660496  0.39943449  1
  O  O15  1  0.17267125  0.27339504  0.10056551  1
  O  O16  1  0.95710850  0.11179733  0.23337426  1
  O  O17  1  0.45710850  0.88820267  0.26662574  1
  O  O18  1  0.04289150  0.88820267  0.76662574  1
  O  O19  1  0.54289150  0.11179733  0.73337426  1
loop_
_geom_bond_atom_site_label_1
_geom_bond_atom_site_label_2
_geom_bond_distance
_geom_bond_site_symmetry_2
O0 Te0 1.876156 1_554
O0 Tl4 2.552300 1_555
O0 Tl2 2.656321 1_554
O0 Tl0 2.725331 1_565
O1 Te1 1.876156 1_555
O1 Tl5 2.552300 1_555
O1 Tl3 2.656321 1_455
O1 Tl1 2.725331 1_545
O2 Te2 1.876156 1_556
O2 Tl6 2.552300 1_555
O2 Tl0 2.656321 1_556
O2 Tl2 2.725331 1_545
O3 Te3 1.876156 1_555
O3 Tl7 2.552300 1_555
O3 Tl1 2.656321 1_655
O3 Tl3 2.725331 1_565
O4 Te0 1.884024 1_555
O4 Te6 2.457668 1_555
O4 Tl7 2.571039 1_555
O5 Te1 1.884024 1_555
O5 Te7 2.457668 1_556
O5 Tl6 2.571039 1_555
O6 Te2 1.884024 1_555
O6 Te4 2.457668 1_555
O6 Tl5 2.571039 1_555
O7 Te3 1.884024 1_555
O7 Te5 2.457668 1_554
O7 Tl4 2.571039 1_555
O8 Te4 1.914388 1_565
O8 Te6 2.151852 1_555
O9 Te5 1.914388 1_545
O9 Te7 2.151852 1_656
O10 Te6 1.914388 1_545
O10 Te4 2.151852 1_555
O11 Te7 1.914388 1_565
O11 Te5 2.151852 1_454
O12 Te4 2.018759 1_555
O12 Te1 2.066671 1_555
O12 Tl6 2.626325 1_555
O13 Te5 2.018759 1_555
O13 Te0 2.066671 1_555
O13 Tl7 2.626325 1_555
O14 Te6 2.018759 1_555
O14 Te3 2.066671 1_555
O14 Tl4 2.626325 1_555
O15 Te7 2.018759 1_555
O15 Te2 2.066671 1_555
O15 Tl5 2.626325 1_555
O16 Te7 1.930587 1_655
O16 Te3 2.243187 1_545
O16 Tl1 2.731683 1_645
O16 Tl3 2.830072 1_555
O17 Te6 1.930587 1_555
O17 Te2 2.243187 1_565
O17 Tl0 2.731683 1_565
O17 Tl2 2.830072 1_554
O18 Te5 1.930587 1_455
O18 Te1 2.243187 1_565
O18 Tl3 2.731683 1_465
O18 Tl1 2.830072 1_555
O19 Te4 1.930587 1_555
O19 Te0 2.243187 1_545
O19 Tl2 2.731683 1_545
O19 Tl0 2.830072 1_556
