# generated using pymatgen
data_MgAlSbO4
_symmetry_space_group_name_H-M   'P 1'
_cell_length_a   3.02453127
_cell_length_b   5.60975794
_cell_length_c   5.60975794
_cell_angle_alpha   103.19550848
_cell_angle_beta   90.00000000
_cell_angle_gamma   90.00000000
_symmetry_Int_Tables_number   1
_chemical_formula_structural   MgAlSbO4
_chemical_formula_sum   'Mg1 Al1 Sb1 O4'
_cell_volume   92.66707638
_cell_formula_units_Z   1
loop_
 _symmetry_equiv_pos_site_id
 _symmetry_equiv_pos_as_xyz
  1  'x, y, z'
loop_
 _atom_site_type_symbol
 _atom_site_label
 _atom_site_symmetry_multiplicity
 _atom_site_fract_x
 _atom_site_fract_y
 _atom_site_fract_z
 _atom_site_occupancy
  Mg  Mg0  1  0.00000000  0.69181314  0.30818686  1
  Al  Al0  1  0.50000000  0.42433944  0.57566056  1
  Sb  Sb0  1  0.00000000  0.03623183  0.96376817  1
  O  O0  1  0.00000000  0.66318587  0.66931110  1
  O  O1  1  0.50000000  0.22302251  0.77697749  1
  O  O2  1  0.50000000  0.82516231  0.17483769  1
  O  O3  1  0.00000000  0.33068890  0.33681413  1
loop_
_geom_bond_atom_site_label_1
_geom_bond_atom_site_label_2
_geom_bond_distance
_geom_bond_site_symmetry_2
Mg0 O2 1.913532 1_555
Mg0 O2 1.913532 1_455
Mg0 O0 2.068397 1_555
Mg0 O3 2.068397 1_555
Al0 O1 1.770057 1_555
Al0 O0 2.009187 1_655
Al0 O0 2.009187 1_555
Al0 O3 2.009187 1_655
Al0 O3 2.009187 1_555
O0 Sb0 2.351540 1_565
O1 Sb0 2.232536 1_555
O1 Sb0 2.232536 1_655
O2 Sb0 2.393942 1_664
O2 Sb0 2.393942 1_564
O3 Sb0 2.351540 1_554
