# generated using pymatgen
data_MgV2Zn2(SiO5)2
_symmetry_space_group_name_H-M   'P 1'
_cell_length_a   5.70157006
_cell_length_b   7.69436696
_cell_length_c   8.35648971
_cell_angle_alpha   91.11491271
_cell_angle_beta   38.52908370
_cell_angle_gamma   108.47270147
_symmetry_Int_Tables_number   1
_chemical_formula_structural   MgV2Zn2(SiO5)2
_chemical_formula_sum   'Mg1 V2 Zn2 Si2 O10'
_cell_volume   199.75131089
_cell_formula_units_Z   1
loop_
 _symmetry_equiv_pos_site_id
 _symmetry_equiv_pos_as_xyz
  1  'x, y, z'
loop_
 _atom_site_type_symbol
 _atom_site_label
 _atom_site_symmetry_multiplicity
 _atom_site_fract_x
 _atom_site_fract_y
 _atom_site_fract_z
 _atom_site_occupancy
  Mg  Mg0  1  0.48645900  0.99754900  0.01487200  1
  V  V0  1  0.50131300  0.49886800  0.50133600  1
  V  V1  1  0.50197100  0.00016700  0.49900200  1
  Zn  Zn0  1  0.43194000  0.29517900  0.23833700  1
  Zn  Zn1  1  0.57128000  0.70567100  0.76286600  1
  Si  Si0  1  0.54773300  0.26376700  0.80490000  1
  Si  Si1  1  0.45773000  0.73292400  0.19330200  1
  O  O0  1  0.76890900  0.14757200  0.58758000  1
  O  O1  1  0.51446800  0.43896800  0.73520100  1
  O  O2  1  0.24007100  0.85441200  0.40469500  1
  O  O3  1  0.49194700  0.56063500  0.26589800  1
  O  O4  1  0.18878100  0.67343500  0.15626300  1
  O  O5  1  0.89944300  0.91654100  0.88699500  1
  O  O6  1  0.81034200  0.32104100  0.84691300  1
  O  O7  1  0.10170200  0.07932700  0.11003800  1
  O  O8  1  0.46802300  0.74090400  0.59505200  1
  O  O9  1  0.53727400  0.25795200  0.40402700  1
loop_
_geom_bond_atom_site_label_1
_geom_bond_atom_site_label_2
_geom_bond_distance
_geom_bond_site_symmetry_2
Mg0 O7 1.991610 1_565
Mg0 O5 2.010519 1_554
Mg0 O6 2.177956 1_564
Mg0 O4 2.188793 1_555
Mg0 O2 2.407775 1_555
Mg0 O0 2.580927 1_564
O0 Si0 1.660047 1_555
O0 Zn0 2.060272 1_655
O0 V1 2.187850 1_555
O1 Si0 1.599340 1_555
O1 Zn1 2.011714 1_555
O1 V0 2.079325 1_555
O2 Si1 1.665941 1_555
O2 Zn1 2.078356 1_455
O2 V1 2.203208 1_565
O3 Si1 1.594929 1_555
O3 Zn0 2.001027 1_555
O3 V0 2.077588 1_555
O4 Si1 1.717267 1_555
O4 Zn1 2.024010 1_554
O4 V0 2.147859 1_455
O5 Si1 1.640284 1_556
O5 V1 1.995371 1_665
O6 Si0 1.719771 1_555
O6 Zn0 2.026166 1_556
O6 V0 2.161003 1_655
O7 Si0 1.640512 1_554
O7 V1 1.999035 1_455
O8 Zn1 1.947892 1_555
O8 V0 2.013013 1_555
O8 V1 2.058090 1_565
O9 Zn0 1.945578 1_555
O9 V0 2.015142 1_555
O9 V1 2.040335 1_555
