# generated using pymatgen
data_MgV3CuO8
_symmetry_space_group_name_H-M   'P 1'
_cell_length_a   6.27379067
_cell_length_b   6.27379196
_cell_length_c   7.08887643
_cell_angle_alpha   75.15019357
_cell_angle_beta   104.84980720
_cell_angle_gamma   143.79555366
_symmetry_Int_Tables_number   1
_chemical_formula_structural   MgV3CuO8
_chemical_formula_sum   'Mg1 V3 Cu1 O8'
_cell_volume   158.70514615
_cell_formula_units_Z   1
loop_
 _symmetry_equiv_pos_site_id
 _symmetry_equiv_pos_as_xyz
  1  'x, y, z'
loop_
 _atom_site_type_symbol
 _atom_site_label
 _atom_site_symmetry_multiplicity
 _atom_site_fract_x
 _atom_site_fract_y
 _atom_site_fract_z
 _atom_site_occupancy
  Mg  Mg0  1  0.82486000  0.17514000  0.99455700  1
  V  V0  1  0.40564200  0.59435800  0.30680200  1
  V  V1  1  0.60199800  0.39800200  0.71565000  1
  V  V2  1  0.28252000  0.71748000  0.63710700  1
  Cu  Cu0  1  0.69881800  0.30118200  0.29914700  1
  O  O0  1  0.13188600  0.86811400  0.68068100  1
  O  O1  1  0.23612400  0.76387600  0.35865900  1
  O  O2  1  0.36318800  0.63681200  0.02757400  1
  O  O3  1  0.43328200  0.56671800  0.63488700  1
  O  O4  1  0.55834100  0.44165900  0.38708800  1
  O  O5  1  0.64256200  0.35743800  0.96443300  1
  O  O6  1  0.76994900  0.23005100  0.69532000  1
  O  O7  1  0.86332700  0.13667300  0.28809600  1
loop_
_geom_bond_atom_site_label_1
_geom_bond_atom_site_label_2
_geom_bond_distance
_geom_bond_site_symmetry_2
Mg0 O2 2.001502 1_656
Mg0 O2 2.001502 1_546
Mg0 O7 2.006403 1_556
Mg0 O6 2.044373 1_555
Mg0 O5 2.126568 1_555
Cu0 O4 1.938772 1_555
Cu0 O7 1.984577 1_555
Cu0 O1 2.018585 1_655
Cu0 O1 2.018585 1_545
Cu0 O5 2.285080 1_554
O0 V2 1.903214 1_555
O0 V1 2.009013 1_455
O0 V1 2.009013 1_565
O1 V2 1.900895 1_555
O1 V0 2.150219 1_555
O2 V0 1.906299 1_555
O3 V2 1.802374 1_555
O3 V1 1.937902 1_555
O3 V0 2.259282 1_555
O4 V0 1.755456 1_555
O4 V1 2.245439 1_555
O5 V1 1.698295 1_555
O6 V2 2.006515 1_655
O6 V2 2.006515 1_545
O6 V1 2.046641 1_555
O7 V0 2.009018 1_655
O7 V0 2.009019 1_545
