# generated using pymatgen
data_MgAg2(GeO3)2
_symmetry_space_group_name_H-M   'P 1'
_cell_length_a   5.89992759
_cell_length_b   7.51851607
_cell_length_c   2.90948568
_cell_angle_alpha   90.00000000
_cell_angle_beta   90.00000000
_cell_angle_gamma   78.44765019
_symmetry_Int_Tables_number   1
_chemical_formula_structural   MgAg2(GeO3)2
_chemical_formula_sum   'Mg1 Ag2 Ge2 O6'
_cell_volume   126.44650351
_cell_formula_units_Z   1
loop_
 _symmetry_equiv_pos_site_id
 _symmetry_equiv_pos_as_xyz
  1  'x, y, z'
loop_
 _atom_site_type_symbol
 _atom_site_label
 _atom_site_symmetry_multiplicity
 _atom_site_fract_x
 _atom_site_fract_y
 _atom_site_fract_z
 _atom_site_occupancy
  Mg  Mg0  1  -0.00000000  0.75000000  0.00000000  1
  Ag  Ag0  1  0.07528181  0.06444880  0.50000000  1
  Ag  Ag1  1  0.92471819  0.43555120  0.50000000  1
  Ge  Ge0  1  0.50000000  0.25000000  0.00000000  1
  Ge  Ge1  1  0.50000000  0.75000000  0.00000000  1
  O  O0  1  0.29485239  0.32358841  0.50000000  1
  O  O1  1  0.25873726  0.73690635  0.50000000  1
  O  O2  1  0.40211253  0.00005443  0.00000000  1
  O  O3  1  0.59788747  0.49994557  0.00000000  1
  O  O4  1  0.70514761  0.17641159  0.50000000  1
  O  O5  1  0.74126274  0.76309365  0.50000000  1
loop_
_geom_bond_atom_site_label_1
_geom_bond_atom_site_label_2
_geom_bond_distance
_geom_bond_site_symmetry_2
Mg0 O5 2.096682 1_455
Mg0 O5 2.096682 1_454
Mg0 O1 2.096682 1_554
Mg0 O1 2.096682 1_555
Ag0 O4 2.177422 1_455
Ag0 O2 2.386422 1_556
Ag0 O2 2.386422 1_555
Ag0 O1 2.483646 1_545
Ag0 O0 2.546599 1_555
Ag1 O0 2.177422 1_655
Ag1 O3 2.386422 1_555
Ag1 O3 2.386422 1_556
Ag1 O5 2.483646 1_555
Ag1 O4 2.546599 1_555
Ge0 O0 1.902403 1_555
Ge0 O0 1.902403 1_554
Ge0 O4 1.902403 1_555
Ge0 O4 1.902403 1_554
Ge0 O3 2.073572 1_555
Ge0 O2 2.073572 1_555
Ge1 O3 1.852890 1_555
Ge1 O2 1.852890 1_565
Ge1 O1 2.051403 1_555
Ge1 O1 2.051403 1_554
Ge1 O5 2.051403 1_554
Ge1 O5 2.051403 1_555
