# generated using pymatgen
data_CsLi2Br3
_symmetry_space_group_name_H-M   'P 1'
_cell_length_a   4.67979079
_cell_length_b   5.62912254
_cell_length_c   7.55852266
_cell_angle_alpha   112.25411999
_cell_angle_beta   107.90329191
_cell_angle_gamma   89.98419740
_symmetry_Int_Tables_number   1
_chemical_formula_structural   CsLi2Br3
_chemical_formula_sum   'Cs1 Li2 Br3'
_cell_volume   173.82837057
_cell_formula_units_Z   1
loop_
 _symmetry_equiv_pos_site_id
 _symmetry_equiv_pos_as_xyz
  1  'x, y, z'
loop_
 _atom_site_type_symbol
 _atom_site_label
 _atom_site_symmetry_multiplicity
 _atom_site_fract_x
 _atom_site_fract_y
 _atom_site_fract_z
 _atom_site_occupancy
  Cs  Cs0  1  0.50239590  0.00043516  0.00256540  1
  Li  Li0  1  0.80514625  0.29963158  0.61844168  1
  Li  Li1  1  0.19444922  0.69858131  0.38636795  1
  Br  Br0  1  0.77920529  0.77836653  0.55834382  1
  Br  Br1  1  0.22194065  0.22086401  0.44672465  1
  Br  Br2  1  0.00264569  0.49960642  0.00187449  1
loop_
_geom_bond_atom_site_label_1
_geom_bond_atom_site_label_2
_geom_bond_distance
_geom_bond_site_symmetry_2
Br0 Li1 2.598363 1_555
Br0 Li1 2.603463 1_655
Br0 Li0 2.790647 1_565
Br0 Li0 2.894211 1_555
Br0 Cs0 3.742829 1_566
Br0 Cs0 3.758610 1_666
Br1 Li0 2.591718 1_555
Br1 Li0 2.608798 1_455
Br1 Li1 2.795793 1_545
Br1 Li1 2.889469 1_555
Br1 Cs0 3.747784 1_455
Br1 Cs0 3.753114 1_555
Br2 Li0 2.530512 1_454
Br2 Li1 2.537209 1_555
Br2 Cs0 3.655840 1_555
Br2 Cs0 3.660381 1_455
Br2 Cs0 3.660967 1_565
Br2 Cs0 3.663519 1_465
