# generated using pymatgen
data_Na4GeSe4
_symmetry_space_group_name_H-M   'P 1'
_cell_length_a   7.22912656
_cell_length_b   9.54941634
_cell_length_c   28.91710840
_cell_angle_alpha   90.00000000
_cell_angle_beta   90.00000000
_cell_angle_gamma   90.00000000
_symmetry_Int_Tables_number   1
_chemical_formula_structural   Na4GeSe4
_chemical_formula_sum   'Na32 Ge8 Se32'
_cell_volume   1996.26190590
_cell_formula_units_Z   8
loop_
 _symmetry_equiv_pos_site_id
 _symmetry_equiv_pos_as_xyz
  1  'x, y, z'
loop_
 _atom_site_type_symbol
 _atom_site_label
 _atom_site_symmetry_multiplicity
 _atom_site_fract_x
 _atom_site_fract_y
 _atom_site_fract_z
 _atom_site_occupancy
  Na  Na0  1  0.53110159  0.75000000  0.86015889  1
  Na  Na1  1  0.03110159  0.25000000  0.63984111  1
  Na  Na2  1  0.46889841  0.25000000  0.13984111  1
  Na  Na3  1  0.96889841  0.75000000  0.36015889  1
  Na  Na4  1  0.54875855  0.25000000  0.89581612  1
  Na  Na5  1  0.04875855  0.75000000  0.60418388  1
  Na  Na6  1  0.45124145  0.75000000  0.10418388  1
  Na  Na7  1  0.95124145  0.25000000  0.39581612  1
  Na  Na8  1  0.40634253  0.44297413  0.75632081  1
  Na  Na9  1  0.90634253  0.55702587  0.74367919  1
  Na  Na10  1  0.59365747  0.94297413  0.24367919  1
  Na  Na11  1  0.09365747  0.05702587  0.25632081  1
  Na  Na12  1  0.59365747  0.55702587  0.24367919  1
  Na  Na13  1  0.09365747  0.44297413  0.25632081  1
  Na  Na14  1  0.40634253  0.05702587  0.75632081  1
  Na  Na15  1  0.90634253  0.94297413  0.74367919  1
  Na  Na16  1  0.24400888  0.45393519  0.52345766  1
  Na  Na17  1  0.74400888  0.54606481  0.97654234  1
  Na  Na18  1  0.75599112  0.95393519  0.47654234  1
  Na  Na19  1  0.25599112  0.04606481  0.02345766  1
  Na  Na20  1  0.75599112  0.54606481  0.47654234  1
  Na  Na21  1  0.25599112  0.45393519  0.02345766  1
  Na  Na22  1  0.24400888  0.04606481  0.52345766  1
  Na  Na23  1  0.74400888  0.95393519  0.97654234  1
  Na  Na24  1  0.57048425  0.49875274  0.63409609  1
  Na  Na25  1  0.07048425  0.50124726  0.86590391  1
  Na  Na26  1  0.42951575  -0.00124726  0.36590391  1
  Na  Na27  1  0.92951575  1.00124726  0.13409609  1
  Na  Na28  1  0.42951575  0.50124726  0.36590391  1
  Na  Na29  1  0.92951575  0.49875274  0.13409609  1
  Na  Na30  1  0.57048425  1.00124726  0.63409609  1
  Na  Na31  1  0.07048425  -0.00124726  0.86590391  1
  Ge  Ge0  1  0.82110820  0.25000000  0.79038759  1
  Ge  Ge1  1  0.32110820  0.75000000  0.70961241  1
  Ge  Ge2  1  0.17889180  0.75000000  0.20961241  1
  Ge  Ge3  1  0.67889180  0.25000000  0.29038759  1
  Ge  Ge4  1  0.70819759  0.25000000  0.54446424  1
  Ge  Ge5  1  0.20819759  0.75000000  0.95553576  1
  Ge  Ge6  1  0.29180241  0.75000000  0.45553576  1
  Ge  Ge7  1  0.79180241  0.25000000  0.04446424  1
  Se  Se0  1  0.71840497  0.25000000  0.71123870  1
  Se  Se1  1  0.21840497  0.75000000  0.78876130  1
  Se  Se2  1  0.28159503  0.75000000  0.28876130  1
  Se  Se3  1  0.78159503  0.25000000  0.21123870  1
  Se  Se4  1  0.64912361  0.75000000  0.69592819  1
  Se  Se5  1  0.14912361  0.25000000  0.80407181  1
  Se  Se6  1  0.35087639  0.25000000  0.30407181  1
  Se  Se7  1  0.85087639  0.75000000  0.19592819  1
  Se  Se8  1  0.19779621  0.54645049  0.67318727  1
  Se  Se9  1  0.69779621  0.45354951  0.82681273  1
  Se  Se10  1  0.80220379  0.04645049  0.32681273  1
  Se  Se11  1  0.30220379  0.95354951  0.17318727  1
  Se  Se12  1  0.80220379  0.45354951  0.32681273  1
  Se  Se13  1  0.30220379  0.54645049  0.17318727  1
  Se  Se14  1  0.19779621  0.95354951  0.67318727  1
  Se  Se15  1  0.69779621  0.04645049  0.82681273  1
  Se  Se16  1  0.35989665  0.75000000  0.53608322  1
  Se  Se17  1  0.85989665  0.25000000  0.96391678  1
  Se  Se18  1  0.64010335  0.25000000  0.46391678  1
  Se  Se19  1  0.14010335  0.75000000  0.03608322  1
  Se  Se20  1  0.41873910  0.25000000  0.58428447  1
  Se  Se21  1  0.91873910  0.75000000  0.91571553  1
  Se  Se22  1  0.58126090  0.75000000  0.41571553  1
  Se  Se23  1  0.08126090  0.25000000  0.08428447  1
  Se  Se24  1  0.37774541  0.54731817  0.93049040  1
  Se  Se25  1  0.87774541  0.45268183  0.56950960  1
  Se  Se26  1  0.62225459  0.04731817  0.06950960  1
  Se  Se27  1  0.12225459  0.95268183  0.43049040  1
  Se  Se28  1  0.62225459  0.45268183  0.06950960  1
  Se  Se29  1  0.12225459  0.54731817  0.43049040  1
  Se  Se30  1  0.37774541  0.95268183  0.93049040  1
  Se  Se31  1  0.87774541  0.04731817  0.56950960  1
loop_
_geom_bond_atom_site_label_1
_geom_bond_atom_site_label_2
_geom_bond_distance
_geom_bond_site_symmetry_2
Na0 Se24 3.018522 1_555
Na0 Se30 3.018522 1_555
Na0 Se1 3.061468 1_555
Na0 Se15 3.224306 1_565
Na0 Se9 3.224306 1_555
Na0 Se21 3.230130 1_555
Na1 Se31 3.018522 1_455
Na1 Se25 3.018522 1_455
Na1 Se0 3.061468 1_455
Na1 Se8 3.224306 1_555
Na1 Se14 3.224306 1_545
Na1 Se20 3.230130 1_555
Na2 Se28 3.018522 1_555
Na2 Se26 3.018522 1_555
Na2 Se3 3.061468 1_555
Na2 Se11 3.224306 1_545
Na2 Se13 3.224306 1_555
Na2 Se23 3.230130 1_555
Na3 Se29 3.018522 1_655
Na3 Se27 3.018522 1_655
Na3 Se2 3.061468 1_655
Na3 Se12 3.224306 1_555
Na3 Se10 3.224306 1_565
Na3 Se22 3.230130 1_555
Na4 Se15 2.986742 1_555
Na4 Se9 2.986742 1_555
Na4 Se17 2.989514 1_555
Na4 Se30 3.254979 1_545
Na4 Se24 3.254979 1_555
Na5 Se14 2.986742 1_555
Na5 Se8 2.986742 1_555
Na5 Se16 2.989514 1_555
Na5 Se31 3.254979 1_465
Na5 Se25 3.254979 1_455
Na6 Se13 2.986742 1_555
Na6 Se11 2.986742 1_555
Na6 Se19 2.989514 1_555
Na6 Se28 3.254979 1_555
Na6 Se26 3.254979 1_565
Na7 Se12 2.986742 1_555
Na7 Se10 2.986742 1_555
Na7 Se18 2.989514 1_555
Na7 Se27 3.254979 1_645
Na7 Se29 3.254979 1_655
Na8 Se9 2.933364 1_555
Na8 Se5 2.959757 1_555
Na8 Se8 3.004734 1_555
Na8 Se0 3.191336 1_555
Na8 Se1 3.364819 1_555
Na9 Se8 2.933364 1_655
Na9 Se4 2.959757 1_555
Na9 Se9 3.004734 1_555
Na9 Se1 3.191336 1_655
Na9 Se0 3.364819 1_555
Na10 Se11 2.933364 1_555
Na10 Se7 2.959757 1_555
Na10 Se10 3.004734 1_565
Na10 Se2 3.191336 1_555
Na10 Se3 3.364819 1_565
Na11 Se10 2.933364 1_455
Na11 Se6 2.959757 1_555
Na11 Se11 3.004734 1_545
Na11 Se3 3.191336 1_455
Na11 Se2 3.364819 1_545
Na12 Se13 2.933364 1_555
Na12 Se7 2.959757 1_555
Na12 Se12 3.004734 1_555
Na12 Se2 3.191336 1_555
Na12 Se3 3.364819 1_555
Na13 Se12 2.933364 1_455
Na13 Se6 2.959757 1_555
Na13 Se13 3.004734 1_555
Na13 Se3 3.191336 1_455
Na13 Se2 3.364819 1_555
Na14 Se15 2.933364 1_555
Na14 Se5 2.959757 1_555
Na14 Se14 3.004734 1_545
Na14 Se0 3.191336 1_555
Na14 Se1 3.364819 1_545
Na15 Se14 2.933364 1_655
Na15 Se4 2.959757 1_555
Na15 Se15 3.004734 1_565
Na15 Se1 3.191336 1_655
Na15 Se0 3.364819 1_565
Na16 Se20 2.912388 1_555
Na16 Se25 2.963815 1_455
Na16 Se29 2.965996 1_555
Na16 Se16 2.971274 1_555
Na17 Se21 2.912388 1_555
Na17 Se24 2.963815 1_555
Na17 Se28 2.965996 1_556
Na17 Se17 2.971274 1_555
Na18 Se22 2.912388 1_555
Na18 Se27 2.963815 1_655
Na18 Se31 2.965996 1_565
Na18 Se18 2.971274 1_565
Na19 Se23 2.912388 1_555
Na19 Se26 2.963815 1_555
Na19 Se30 2.965996 1_544
Na19 Se19 2.971274 1_545
Na20 Se22 2.912388 1_555
Na20 Se29 2.963815 1_655
Na20 Se25 2.965996 1_555
Na20 Se18 2.971274 1_555
Na21 Se23 2.912388 1_555
Na21 Se28 2.963815 1_555
Na21 Se24 2.965996 1_554
Na21 Se19 2.971274 1_555
Na22 Se20 2.912388 1_555
Na22 Se31 2.963815 1_455
Na22 Se27 2.965996 1_545
Na22 Se16 2.971274 1_545
Na23 Se21 2.912388 1_555
Na23 Se30 2.963815 1_555
Na23 Se26 2.965996 1_566
Na23 Se17 2.971274 1_565
Na24 Se25 2.935226 1_555
Na24 Se8 2.957033 1_555
Na24 Se20 2.986785 1_555
Na24 Se4 3.045754 1_555
Na24 Se0 3.429639 1_555
Na25 Se24 2.935226 1_555
Na25 Se9 2.957033 1_455
Na25 Se21 2.986785 1_455
Na25 Se5 3.045754 1_555
Na25 Se1 3.429639 1_555
Na26 Se27 2.935226 1_545
Na26 Se10 2.957033 1_555
Na26 Se22 2.986785 1_545
Na26 Se6 3.045754 1_555
Na26 Se2 3.429639 1_545
Na27 Se26 2.935226 1_565
Na27 Se11 2.957033 1_655
Na27 Se23 2.986785 1_665
Na27 Se7 3.045754 1_555
Na27 Se3 3.429639 1_565
Na28 Se29 2.935226 1_555
Na28 Se12 2.957033 1_555
Na28 Se22 2.986785 1_555
Na28 Se6 3.045754 1_555
Na28 Se2 3.429639 1_555
Na29 Se28 2.935226 1_555
Na29 Se13 2.957033 1_655
Na29 Se23 2.986785 1_655
Na29 Se7 3.045754 1_555
Na29 Se3 3.429639 1_555
Na30 Se31 2.935226 1_565
Na30 Se14 2.957033 1_555
Na30 Se20 2.986785 1_565
Na30 Se4 3.045754 1_555
Na30 Se0 3.429639 1_565
Na31 Se30 2.935226 1_545
Na31 Se15 2.957033 1_455
Na31 Se21 2.986785 1_445
Na31 Se5 3.045754 1_555
Na31 Se1 3.429639 1_545
Ge0 Se15 2.383778 1_555
Ge0 Se9 2.383778 1_555
Ge0 Se5 2.404055 1_655
Ge0 Se0 2.406169 1_555
Ge0 Na9 3.286354 1_555
Ge0 Na15 3.286354 1_545
Ge1 Se14 2.383778 1_555
Ge1 Se8 2.383778 1_555
Ge1 Se4 2.404055 1_555
Ge1 Se1 2.406169 1_555
Ge1 Na14 3.286354 1_565
Ge1 Na8 3.286354 1_555
Ge2 Se11 2.383778 1_555
Ge2 Se13 2.383778 1_555
Ge2 Se7 2.404055 1_455
Ge2 Se2 2.406169 1_555
Ge2 Na11 3.286354 1_565
Ge2 Na13 3.286354 1_555
Ge3 Se10 2.383778 1_555
Ge3 Se12 2.383778 1_555
Ge3 Se6 2.404055 1_555
Ge3 Se3 2.406169 1_555
Ge3 Na10 3.286354 1_545
Ge3 Na12 3.286354 1_555
Ge4 Se18 2.380650 1_555
Ge4 Se20 2.388433 1_555
Ge4 Se25 2.402697 1_555
Ge4 Se31 2.402697 1_555
Ge5 Se19 2.380650 1_556
Ge5 Se21 2.388433 1_455
Ge5 Se24 2.402697 1_555
Ge5 Se30 2.402697 1_555
Ge6 Se16 2.380650 1_555
Ge6 Se22 2.388433 1_555
Ge6 Se29 2.402697 1_555
Ge6 Se27 2.402697 1_555
Ge7 Se17 2.380650 1_554
Ge7 Se23 2.388433 1_655
Ge7 Se26 2.402697 1_555
Ge7 Se28 2.402697 1_555
