# generated using pymatgen
data_KC2
_symmetry_space_group_name_H-M   'P 1'
_cell_length_a   4.38206800
_cell_length_b   4.38206800
_cell_length_c   4.84556960
_cell_angle_alpha   116.88316397
_cell_angle_beta   116.88316397
_cell_angle_gamma   90.00000000
_symmetry_Int_Tables_number   1
_chemical_formula_structural   KC2
_chemical_formula_sum   'K1 C2'
_cell_volume   71.53624214
_cell_formula_units_Z   1
loop_
 _symmetry_equiv_pos_site_id
 _symmetry_equiv_pos_as_xyz
  1  'x, y, z'
loop_
 _atom_site_type_symbol
 _atom_site_label
 _atom_site_symmetry_multiplicity
 _atom_site_fract_x
 _atom_site_fract_y
 _atom_site_fract_z
 _atom_site_occupancy
  K  K0  1  0.25000000  0.75000000  0.50000000  1
  C  C0  1  0.66507100  0.16507100  0.33014300  1
  C  C1  1  0.83492800  0.33492800  0.66985700  1
loop_
_geom_bond_atom_site_label_1
_geom_bond_atom_site_label_2
_geom_bond_distance
_geom_bond_site_symmetry_2
C0 C1 1.265556 1_555
C0 K0 3.092579 1_544
C0 K0 3.162538 1_545
C0 K0 3.162541 1_555
C0 K0 3.162541 1_645
C0 K0 3.162544 1_655
C1 K0 3.092579 1_656
C1 K0 3.162538 1_545
C1 K0 3.162541 1_555
C1 K0 3.162541 1_645
C1 K0 3.162544 1_655
