# generated using pymatgen
data_Mg(Sb2O5)2
_symmetry_space_group_name_H-M   'P 1'
_cell_length_a   10.70020300
_cell_length_b   5.56086123
_cell_length_c   4.01759200
_cell_angle_alpha   111.18086778
_cell_angle_beta   90.00000000
_cell_angle_gamma   90.00000000
_symmetry_Int_Tables_number   1
_chemical_formula_structural   Mg(Sb2O5)2
_chemical_formula_sum   'Mg1 Sb4 O10'
_cell_volume   222.90658511
_cell_formula_units_Z   1
loop_
 _symmetry_equiv_pos_site_id
 _symmetry_equiv_pos_as_xyz
  1  'x, y, z'
loop_
 _atom_site_type_symbol
 _atom_site_label
 _atom_site_symmetry_multiplicity
 _atom_site_fract_x
 _atom_site_fract_y
 _atom_site_fract_z
 _atom_site_occupancy
  Mg  Mg0  1  0.00000000  0.11154500  0.55552100  1
  Sb  Sb0  1  0.17804500  0.75945400  0.87951100  1
  Sb  Sb1  1  0.31914200  0.22718500  0.61334700  1
  Sb  Sb2  1  0.68085800  0.22718500  0.61334700  1
  Sb  Sb3  1  0.82195500  0.75945400  0.87951100  1
  O  O0  1  0.00000000  0.93428700  0.96714400  1
  O  O1  1  0.13052200  0.39119700  0.69540200  1
  O  O2  1  0.16229700  0.84754000  0.42366200  1
  O  O3  1  0.26606100  0.11402300  0.05685100  1
  O  O4  1  0.34703500  0.60751800  0.80359800  1
  O  O5  1  0.50000000  0.13176000  0.56592500  1
  O  O6  1  0.65296500  0.60751800  0.80359800  1
  O  O7  1  0.86947800  0.39119700  0.69540200  1
  O  O8  1  0.73393900  0.11402300  0.05685100  1
  O  O9  1  0.83770300  0.84754000  0.42366200  1
loop_
_geom_bond_atom_site_label_1
_geom_bond_atom_site_label_2
_geom_bond_distance
_geom_bond_site_symmetry_2
Mg0 O1 2.013249 1_555
Mg0 O7 2.013249 1_455
Mg0 O0 2.208093 1_544
Mg0 O0 2.210069 1_545
Mg0 O2 2.211278 1_545
Mg0 O9 2.211278 1_445
O0 Sb0 2.109809 1_555
O0 Sb3 2.109809 1_455
O1 Sb0 1.976033 1_555
O1 Sb1 2.190128 1_555
O2 Sb0 2.066561 1_555
O2 Sb0 2.067333 1_554
O2 Sb1 2.586837 1_565
O3 Sb0 2.065692 1_544
O3 Sb1 2.168085 1_555
O3 Sb1 2.168805 1_554
O4 Sb0 1.972395 1_555
O4 Sb1 1.994557 1_555
O5 Sb2 1.997471 1_555
O5 Sb1 1.997471 1_555
O6 Sb3 1.972395 1_555
O6 Sb2 1.994557 1_555
O7 Sb3 1.976033 1_555
O7 Sb2 2.190128 1_555
O8 Sb3 2.065692 1_544
O8 Sb2 2.168085 1_555
O8 Sb2 2.168805 1_554
O9 Sb3 2.066561 1_555
O9 Sb3 2.067333 1_554
O9 Sb2 2.586837 1_565
