# generated using pymatgen
data_KClO3
_symmetry_space_group_name_H-M   'P 1'
_cell_length_a   5.70128900
_cell_length_b   4.75118400
_cell_length_c   7.23610403
_cell_angle_alpha   70.72898769
_cell_angle_beta   90.00000000
_cell_angle_gamma   90.00000000
_symmetry_Int_Tables_number   1
_chemical_formula_structural   KClO3
_chemical_formula_sum   'K2 Cl2 O6'
_cell_volume   185.02780732
_cell_formula_units_Z   2
loop_
 _symmetry_equiv_pos_site_id
 _symmetry_equiv_pos_as_xyz
  1  'x, y, z'
loop_
 _atom_site_type_symbol
 _atom_site_label
 _atom_site_symmetry_multiplicity
 _atom_site_fract_x
 _atom_site_fract_y
 _atom_site_fract_z
 _atom_site_occupancy
  K  K0  1  0.75000000  0.64839500  0.70971100  1
  K  K1  1  0.25000000  0.35160500  0.29028900  1
  Cl  Cl0  1  0.75000000  0.93879000  0.18092600  1
  Cl  Cl1  1  0.25000000  0.06121000  0.81907400  1
  O  O0  1  0.03769300  0.16554600  0.69057300  1
  O  O1  1  0.53769300  0.83445400  0.30942700  1
  O  O2  1  0.96230700  0.83445400  0.30942700  1
  O  O3  1  0.46230700  0.16554600  0.69057300  1
  O  O4  1  0.25000000  0.72564100  0.88313500  1
  O  O5  1  0.75000000  0.27435900  0.11686500  1
loop_
_geom_bond_atom_site_label_1
_geom_bond_atom_site_label_2
_geom_bond_distance
_geom_bond_site_symmetry_2
K0 O0 2.860441 1_655
K0 O3 2.860441 1_555
K0 O5 2.895220 1_556
K0 O0 2.919271 1_665
K0 O3 2.919271 1_565
K0 O2 2.991012 1_555
K0 O1 2.991012 1_555
K0 O4 3.184288 1_555
K0 O4 3.184288 1_655
K1 O1 2.860441 1_555
K1 O2 2.860441 1_455
K1 O4 2.895220 1_554
K1 O1 2.919271 1_545
K1 O2 2.919271 1_445
K1 O3 2.991012 1_555
K1 O0 2.991012 1_555
K1 O5 3.184288 1_455
K1 O5 3.184288 1_555
Cl0 O5 1.506319 1_565
Cl0 O2 1.507057 1_555
Cl0 O1 1.507057 1_555
Cl1 O4 1.506319 1_545
Cl1 O3 1.507057 1_555
Cl1 O0 1.507057 1_555
