# generated using pymatgen
data_Na18Ca8Ta4Si9(SO8)9
_symmetry_space_group_name_H-M   'P 1'
_cell_length_a   9.35466062
_cell_length_b   9.33360173
_cell_length_c   22.94671789
_cell_angle_alpha   90.51935384
_cell_angle_beta   90.21269605
_cell_angle_gamma   119.97801317
_symmetry_Int_Tables_number   1
_chemical_formula_structural   Na18Ca8Ta4Si9(SO8)9
_chemical_formula_sum   'Na18 Ca8 Ta4 Si9 S9 O72'
_cell_volume   1735.35042336
_cell_formula_units_Z   1
loop_
 _symmetry_equiv_pos_site_id
 _symmetry_equiv_pos_as_xyz
  1  'x, y, z'
loop_
 _atom_site_type_symbol
 _atom_site_label
 _atom_site_symmetry_multiplicity
 _atom_site_fract_x
 _atom_site_fract_y
 _atom_site_fract_z
 _atom_site_occupancy
  Na  Na0  1  0.67217683  0.03729889  0.26334827  1
  Na  Na1  1  0.33082431  0.32022959  0.25951727  1
  Na  Na2  1  0.99593414  0.64422408  0.23962418  1
  Na  Na3  1  0.64608983  0.64512759  0.73050867  1
  Na  Na4  1  0.98823763  0.32785343  0.73626351  1
  Na  Na5  1  0.36756642  0.04297121  0.75347592  1
  Na  Na6  1  0.29667284  0.34634290  0.59164523  1
  Na  Na7  1  0.01934532  0.67961864  0.58501359  1
  Na  Na8  1  0.67512665  0.94872462  0.57875605  1
  Na  Na9  1  0.27370758  0.93913132  0.08143010  1
  Na  Na10  1  0.68223268  0.70563155  0.08218215  1
  Na  Na11  1  0.03042452  0.34915249  0.09635477  1
  Na  Na12  1  0.95743386  0.99408452  0.49819831  1
  Na  Na13  1  0.01946703  0.97551411  0.99236190  1
  Na  Na14  1  0.64370796  0.31210773  0.82473426  1
  Na  Na15  1  0.66249992  0.30891635  0.33372535  1
  Na  Na16  1  0.28835161  0.65775331  0.16989711  1
  Na  Na17  1  0.33941936  0.64188355  0.65253459  1
  Ca  Ca0  1  0.99897939  0.00911843  0.35223263  1
  Ca  Ca1  1  0.01217859  0.01265799  0.85081507  1
  Ca  Ca2  1  0.99017095  0.01125678  0.65012506  1
  Ca  Ca3  1  0.01621152  0.00550761  0.15845341  1
  Ca  Ca4  1  0.66822176  0.33501216  0.68238679  1
  Ca  Ca5  1  0.67224349  0.33316439  0.18556329  1
  Ca  Ca6  1  0.32515688  0.67145799  0.01150683  1
  Ca  Ca7  1  0.34295231  0.66892541  0.51251075  1
  Ta  Ta0  1  0.66960330  0.33694095  0.97570434  1
  Ta  Ta1  1  0.67620499  0.33082532  0.48270094  1
  Ta  Ta2  1  0.33187889  0.67580716  0.32181156  1
  Ta  Ta3  1  0.34265341  0.68137355  0.81868823  1
  Si  Si0  1  0.30428076  0.99272778  0.24922821  1
  Si  Si1  1  0.00928873  0.31295577  0.24877503  1
  Si  Si2  1  0.30749666  0.31373225  0.75218413  1
  Si  Si3  1  0.69473560  0.99749070  0.75150434  1
  Si  Si4  1  0.96925558  0.33459289  0.58489354  1
  Si  Si5  1  0.67075802  0.62995104  0.58196494  1
  Si  Si6  1  0.96153802  0.63107202  0.08281940  1
  Si  Si7  1  0.33479344  0.97144323  0.92486472  1
  Si  Si8  1  0.63477267  0.97792142  0.42411673  1
  S  S0  1  0.68007204  0.69761906  0.25113552  1
  S  S1  1  0.01400165  0.69903915  0.75458838  1
  S  S2  1  0.37410240  0.04569026  0.57925069  1
  S  S3  1  0.67342620  0.04627134  0.07770992  1
  S  S4  1  0.38043025  0.33290720  0.07809625  1
  S  S5  1  0.62673073  0.65501608  0.91949294  1
  S  S6  1  0.02254905  0.37206237  0.91960395  1
  S  S7  1  0.35329851  0.37745767  0.41577664  1
  S  S8  1  0.02672984  0.65215085  0.41801251  1
  O  O0  1  0.19944947  0.02266307  0.29720097  1
  O  O1  1  0.79532149  0.77756216  0.29914891  1
  O  O2  1  0.95552764  0.16078718  0.29175464  1
  O  O3  1  0.21910268  0.16740942  0.79801316  1
  O  O4  1  0.98938800  0.78189027  0.80321808  1
  O  O5  1  0.81274449  0.01934425  0.80474711  1
  O  O6  1  0.73982773  0.93654600  0.69097743  1
  O  O7  1  0.20439781  0.27074934  0.69032471  1
  O  O8  1  0.05301884  0.79419015  0.69945496  1
  O  O9  1  0.74089801  0.79161573  0.19588413  1
  O  O10  1  0.06485249  0.26939639  0.18573070  1
  O  O11  1  0.20585086  0.93554406  0.18625635  1
  O  O12  1  0.88843087  0.34958706  0.64435249  1
  O  O13  1  0.46376019  0.11398711  0.63447304  1
  O  O14  1  0.65367330  0.53386573  0.64142869  1
  O  O15  1  0.87488617  0.53840718  0.14196778  1
  O  O16  1  0.64716983  0.11476035  0.13211209  1
  O  O17  1  0.46688004  0.34465405  0.13308253  1
  O  O18  1  0.48219641  0.32400263  0.02750067  1
  O  O19  1  0.83050606  0.50295970  0.02706022  1
  O  O20  1  0.67534977  0.15316770  0.02737228  1
  O  O21  1  0.48000105  0.15328401  0.52894601  1
  O  O22  1  0.66504257  0.49929839  0.52586175  1
  O  O23  1  0.83566839  0.32611249  0.52829210  1
  O  O24  1  0.55574032  0.66738682  0.97509576  1
  O  O25  1  0.10802642  0.44322792  0.97453953  1
  O  O26  1  0.33426238  0.89181590  0.98615996  1
  O  O27  1  0.55474029  0.89290748  0.48392661  1
  O  O28  1  0.33507854  0.44868406  0.46998128  1
  O  O29  1  0.11642037  0.67142952  0.47184672  1
  O  O30  1  0.12539242  0.63315242  0.36705707  1
  O  O31  1  0.49641777  0.85128308  0.36858700  1
  O  O32  1  0.36204595  0.48782720  0.36466940  1
  O  O33  1  0.10737894  0.47918075  0.86942791  1
  O  O34  1  0.35063369  0.85086404  0.87087895  1
  O  O35  1  0.51104779  0.63395655  0.87002780  1
  O  O36  1  0.00085283  0.78995846  0.40619137  1
  O  O37  1  0.81266235  0.00067233  0.41333032  1
  O  O38  1  0.21320787  0.21160191  0.40706485  1
  O  O39  1  0.98816453  0.20182683  0.91323795  1
  O  O40  1  0.18333284  0.00125369  0.91680079  1
  O  O41  1  0.79158978  0.78962258  0.91088607  1
  O  O42  1  0.97291585  0.16423395  0.57579940  1
  O  O43  1  0.21854300  0.04928036  0.57709726  1
  O  O44  1  0.84903971  0.79877712  0.57576994  1
  O  O45  1  0.96708608  0.80831859  0.07538344  1
  O  O46  1  0.83386960  0.05079056  0.07783551  1
  O  O47  1  0.21706066  0.18164288  0.07509331  1
  O  O48  1  0.65058577  0.14475266  0.74946625  1
  O  O49  1  0.50087342  0.36380061  0.75044787  1
  O  O50  1  0.87581091  0.52864963  0.74897076  1
  O  O51  1  0.64193862  0.52399551  0.24488161  1
  O  O52  1  0.86319205  0.36010741  0.24966137  1
  O  O53  1  0.49425704  0.14423403  0.24884547  1
  O  O54  1  0.63222408  0.49141744  0.92122744  1
  O  O55  1  0.85055919  0.36150202  0.92221111  1
  O  O56  1  0.51632523  0.15896785  0.92570405  1
  O  O57  1  0.63597713  0.16125002  0.42205330  1
  O  O58  1  0.51191890  0.37371342  0.41507428  1
  O  O59  1  0.86244445  0.49198853  0.41845683  1
  O  O60  1  0.36727545  0.48377422  0.07249783  1
  O  O61  1  0.14196874  0.64136582  0.08088166  1
  O  O62  1  0.53876845  0.87258335  0.07223961  1
  O  O63  1  0.34165828  0.87475591  0.57345170  1
  O  O64  1  0.51063016  0.65448648  0.57822204  1
  O  O65  1  0.14458193  0.50347268  0.57720906  1
  O  O66  1  0.31535656  0.81834057  0.26732601  1
  O  O67  1  0.51556394  0.69070427  0.26272161  1
  O  O68  1  0.18504443  0.49081366  0.26951162  1
  O  O69  1  0.30664817  0.48927987  0.77626558  1
  O  O70  1  0.16933774  0.68280305  0.76589300  1
  O  O71  1  0.50367316  0.82304485  0.76884095  1
loop_
_geom_bond_atom_site_label_1
_geom_bond_atom_site_label_2
_geom_bond_distance
_geom_bond_site_symmetry_2
Na0 O53 2.353529 1_555
Na0 O2 2.387419 1_555
Na0 O52 2.647761 1_555
Na1 O0 2.571433 1_555
Na1 O68 2.571545 1_555
Na1 O51 2.586023 1_555
Na1 O53 2.756987 1_555
Na1 O32 2.797166 1_555
Na1 O10 2.838465 1_555
Na2 O52 2.312936 1_555
Na2 O15 2.470366 1_555
Na2 O66 2.662359 1_655
Na2 O11 2.737053 1_655
Na2 O51 2.920912 1_555
Na3 O14 2.301737 1_555
Na3 O49 2.326215 1_555
Na3 O6 2.580154 1_555
Na3 O71 2.738493 1_555
Na3 O50 2.883701 1_555
Na3 O69 2.955985 1_555
Na4 O12 2.354441 1_555
Na4 O7 2.562593 1_655
Na4 O50 2.581802 1_555
Na4 O69 2.730316 1_655
Na4 O48 2.758865 1_555
Na5 O48 2.326024 1_555
Na5 O3 2.433780 1_555
Na5 O49 2.607599 1_555
Na5 O13 2.856738 1_555
Na5 O71 2.929275 1_545
Na5 O70 2.934677 1_545
Na5 O8 2.946081 1_545
Na6 O7 2.409387 1_555
Na6 O43 2.507900 1_555
Na6 O65 2.524950 1_555
Na6 O64 2.576963 1_555
Na6 O42 2.651436 1_455
Na6 O28 2.923769 1_555
Na7 O44 2.364851 1_455
Na7 O65 2.455327 1_555
Na7 O63 2.646779 1_555
Na7 O29 2.767161 1_555
Na7 O8 2.783028 1_555
Na8 O27 2.376910 1_555
Na8 O64 2.384592 1_555
Na8 O42 2.493002 1_565
Na8 O44 2.623877 1_555
Na8 O6 2.659502 1_555
Na8 O63 2.840080 1_555
Na9 O26 2.353042 1_554
Na9 O61 2.412359 1_555
Na9 O11 2.486294 1_555
Na9 O45 2.496306 1_455
Na9 O47 2.574776 1_565
Na9 O62 2.849401 1_555
Na10 O45 2.344598 1_555
Na10 O62 2.524958 1_555
Na10 O60 2.628292 1_555
Na10 O24 2.665752 1_554
Na10 O9 2.695154 1_555
Na10 O46 2.800134 1_565
Na11 O10 2.264146 1_555
Na11 O61 2.414511 1_555
Na11 O46 2.484396 1_455
Na11 O60 2.806527 1_555
Na11 O47 2.907070 1_555
Na11 O25 2.921305 1_554
Na11 O15 2.979779 1_455
Na12 O42 2.330426 1_565
Na12 O37 2.386674 1_565
Na12 O44 2.396810 1_555
Na13 O40 2.252360 1_565
Na13 O45 2.366715 1_456
Na13 O47 2.660075 1_566
Na13 O41 2.695447 1_455
Na13 O39 2.920248 1_465
Na13 O46 2.928180 1_466
Na14 O48 2.340828 1_555
Na14 O49 2.359267 1_555
Na14 O56 2.685063 1_555
Na14 O50 2.743717 1_555
Na14 O54 2.798114 1_555
Na14 O55 2.831551 1_555
Na15 O57 2.404551 1_555
Na15 O53 2.477632 1_555
Na15 O52 2.573156 1_555
Na15 O58 2.585532 1_555
Na15 O59 2.630094 1_555
Na15 O51 2.946224 1_555
Na16 O61 2.415589 1_555
Na16 O66 2.620170 1_555
Na16 O68 2.676365 1_555
Na16 O67 2.906981 1_555
Na17 O64 2.307047 1_555
Na17 O65 2.358314 1_555
Na17 O63 2.836214 1_555
Ca0 O2 2.168308 1_555
Ca0 O37 2.211888 1_555
Ca0 O0 2.216089 1_655
Ca0 O38 2.307435 1_655
Ca0 O1 2.367413 1_545
Ca0 O36 2.408163 1_645
Ca1 O3 2.134560 1_555
Ca1 O5 2.169074 1_455
Ca1 O40 2.241143 1_555
Ca1 O4 2.318259 1_445
Ca1 O39 2.360632 1_455
Ca1 O41 2.504418 1_445
Ca2 O6 2.290329 1_545
Ca2 O42 2.290416 1_555
Ca2 O7 2.414199 1_655
Ca2 O44 2.427473 1_545
Ca2 O43 2.603407 1_655
Ca2 O8 2.637933 1_645
Ca3 O11 2.266583 1_545
Ca3 O10 2.348469 1_555
Ca3 O9 2.503119 1_445
Ca3 O45 2.513317 1_445
Ca3 O47 2.624635 1_555
Ca3 O46 2.687304 1_455
Ca4 O14 2.151688 1_555
Ca4 O12 2.181559 1_555
Ca4 O13 2.263417 1_555
Ca4 O48 2.304055 1_555
Ca4 O49 2.322286 1_555
Ca4 O50 2.406761 1_555
Ca5 O15 2.164209 1_555
Ca5 O52 2.223110 1_555
Ca5 O53 2.262901 1_555
Ca5 O16 2.278063 1_555
Ca5 O17 2.311588 1_555
Ca5 O51 2.359896 1_555
Ca6 O26 2.103016 1_554
Ca6 O25 2.239095 1_554
Ca6 O61 2.257680 1_555
Ca6 O24 2.333885 1_554
Ca6 O62 2.375374 1_555
Ca6 O60 2.431613 1_555
Ca7 O27 2.149713 1_555
Ca7 O64 2.224766 1_555
Ca7 O28 2.235015 1_555
Ca7 O65 2.287064 1_555
Ca7 O29 2.323177 1_555
Ca7 O63 2.370885 1_555
O0 Si0 1.589912 1_545
O1 S0 1.450969 1_555
O2 Si1 1.599394 1_655
O3 Si2 1.599624 1_555
O4 S1 1.435417 1_655
O5 Si3 1.585366 1_545
O6 Si3 1.631057 1_555
O7 Si2 1.642822 1_555
O8 S1 1.490759 1_555
O9 S0 1.492492 1_555
O10 Si1 1.653602 1_555
O11 Si0 1.644913 1_555
O12 Si4 1.600859 1_555
O13 S2 1.469251 1_555
O14 Si5 1.603825 1_555
O15 Si6 1.605025 1_555
O16 S3 1.473793 1_555
O17 S4 1.469477 1_555
O18 S4 1.531875 1_555
O18 Ta0 2.075382 1_554
O19 Si6 1.750797 1_555
O19 Ta0 1.917905 1_554
O20 S3 1.527452 1_555
O20 Ta0 2.116421 1_554
O21 S2 1.535469 1_555
O21 Ta1 2.061001 1_555
O22 Si5 1.747332 1_555
O22 Ta1 1.897643 1_555
O23 Si4 1.772593 1_555
O23 Ta1 1.837517 1_555
O24 S5 1.470552 1_555
O25 S6 1.454728 1_555
O26 Si7 1.595622 1_555
O27 Si8 1.583487 1_555
O28 S7 1.455304 1_555
O29 S8 1.449053 1_555
O30 S8 1.555077 1_555
O30 Ta2 2.054612 1_555
O31 Si8 1.768483 1_555
O31 Ta2 1.907951 1_555
O32 S7 1.543242 1_555
O32 Ta2 2.156202 1_555
O33 S6 1.479790 1_555
O33 Ta3 2.381007 1_555
O34 Si7 1.722187 1_555
O34 Ta3 1.946636 1_555
O35 S5 1.507438 1_555
O35 Ta3 2.181191 1_555
O36 S8 1.450375 1_555
O37 Si8 1.589482 1_545
O38 S7 1.455635 1_555
O39 S6 1.460870 1_655
O40 Si7 1.584963 1_545
O41 S5 1.437470 1_555
O42 Si4 1.619094 1_555
O43 S2 1.472893 1_555
O44 Si5 1.632247 1_555
O45 Si6 1.639530 1_555
O46 S3 1.480259 1_555
O47 S4 1.474741 1_555
O48 Si3 1.621815 1_545
O49 Si2 1.627399 1_555
O50 S1 1.468841 1_655
O51 S0 1.480432 1_555
O52 Si1 1.631882 1_655
O53 Si0 1.626957 1_545
O54 S5 1.554139 1_555
O54 Ta0 2.072930 1_555
O55 S6 1.563400 1_655
O55 Ta0 2.014331 1_555
O56 Si7 1.725247 1_545
O56 Ta0 1.924759 1_555
O57 Si8 1.706603 1_545
O57 Ta1 1.986051 1_555
O58 S7 1.501749 1_555
O58 Ta1 2.353418 1_555
O59 S8 1.516965 1_655
O59 Ta1 2.216206 1_555
O60 S4 1.480140 1_555
O61 Si6 1.642767 1_455
O62 S3 1.478178 1_565
O63 S2 1.472135 1_565
O64 Si5 1.626609 1_555
O65 Si4 1.621519 1_455
O66 Si0 1.735783 1_555
O66 Ta2 1.895015 1_555
O67 S0 1.532060 1_555
O67 Ta2 2.142989 1_555
O68 Si1 1.713976 1_555
O68 Ta2 1.971905 1_555
O69 Si2 1.728204 1_555
O69 Ta3 1.907379 1_555
O70 S1 1.555563 1_555
O70 Ta3 2.025790 1_555
O71 Si3 1.764276 1_555
O71 Ta3 1.837254 1_555
