# generated using pymatgen
data_K4MgNb2(CuS4)2
_symmetry_space_group_name_H-M   'P 1'
_cell_length_a   5.57896496
_cell_length_b   7.56973148
_cell_length_c   12.26223262
_cell_angle_alpha   86.18665990
_cell_angle_beta   74.94917690
_cell_angle_gamma   66.24248131
_symmetry_Int_Tables_number   1
_chemical_formula_structural   K4MgNb2(CuS4)2
_chemical_formula_sum   'K4 Mg1 Nb2 Cu2 S8'
_cell_volume   457.28168769
_cell_formula_units_Z   1
loop_
 _symmetry_equiv_pos_site_id
 _symmetry_equiv_pos_as_xyz
  1  'x, y, z'
loop_
 _atom_site_type_symbol
 _atom_site_label
 _atom_site_symmetry_multiplicity
 _atom_site_fract_x
 _atom_site_fract_y
 _atom_site_fract_z
 _atom_site_occupancy
  K  K0  1  0.92402900  0.76456100  0.08080200  1
  K  K1  1  0.26247600  0.75899400  0.34749100  1
  K  K2  1  0.05917100  0.23211300  0.89384500  1
  K  K3  1  0.70672100  0.18984000  0.62134600  1
  Mg  Mg0  1  0.65890200  0.65371400  0.55302000  1
  Nb  Nb0  1  0.16871400  0.70469600  0.74013000  1
  Nb  Nb1  1  0.84783400  0.26501500  0.25164400  1
  Cu  Cu0  1  0.63318500  0.73725000  0.77537500  1
  Cu  Cu1  1  0.35380100  0.25733900  0.24921800  1
  S  S0  1  0.75961700  0.94766900  0.84733900  1
  S  S1  1  0.04167900  0.51342200  0.64282500  1
  S  S2  1  0.64473300  0.07759300  0.36274100  1
  S  S3  1  0.56717100  0.44370400  0.13988500  1
  S  S4  1  0.26205200  0.05926300  0.14050100  1
  S  S5  1  0.90869500  0.47853100  0.36269900  1
  S  S6  1  0.34123400  0.95158700  0.66342800  1
  S  S7  1  0.41951000  0.52952400  0.86104700  1
loop_
_geom_bond_atom_site_label_1
_geom_bond_atom_site_label_2
_geom_bond_distance
_geom_bond_site_symmetry_2
K0 S0 3.281710 1_554
K0 S7 3.297639 1_654
K0 S4 3.365511 1_565
K0 S3 3.646999 1_555
K0 S3 3.659572 1_655
K0 S4 3.659585 1_665
K1 S3 3.218418 1_555
K1 S2 3.279797 1_465
K1 S4 3.292417 1_565
K1 S5 3.401483 1_455
K1 S5 3.416013 1_555
K2 S6 3.281021 1_545
K2 S0 3.363309 1_445
K2 S3 3.464313 1_456
K2 S7 3.480946 1_455
K2 S4 3.492753 1_556
K2 S7 3.518223 1_555
K2 S0 3.529648 1_545
K2 S1 3.624256 1_555
K3 S6 3.157435 1_545
K3 S0 3.231123 1_545
K3 S6 3.425034 1_645
K3 S2 3.473034 1_555
K3 Mg0 3.474629 1_555
K3 S1 3.477183 1_555
K3 S7 3.613590 1_555
K3 S1 3.686555 1_655
Mg0 S6 2.449109 1_555
Mg0 S1 2.477762 1_655
Mg0 S5 2.525981 1_555
Nb0 S7 2.288114 1_555
Nb0 S1 2.349071 1_555
Nb0 S0 2.387711 1_455
Nb0 S6 2.459504 1_555
Nb1 S3 2.306676 1_555
Nb1 S4 2.317351 1_655
Nb1 S2 2.321437 1_555
Nb1 S5 2.357351 1_555
Cu0 S0 2.286648 1_555
Cu0 S7 2.374326 1_555
Cu0 S6 2.430102 1_555
Cu0 S1 2.457150 1_655
Cu1 S3 2.340351 1_555
Cu1 S4 2.350743 1_555
Cu1 S2 2.359162 1_555
Cu1 S5 2.464037 1_455
