# generated using pymatgen
data_Sr(Sb3Ru)4
_symmetry_space_group_name_H-M   'P 1'
_cell_length_a   8.10180967
_cell_length_b   8.10196949
_cell_length_c   8.10196911
_cell_angle_alpha   109.47186228
_cell_angle_beta   109.47065650
_cell_angle_gamma   109.47189649
_symmetry_Int_Tables_number   1
_chemical_formula_structural   Sr(Sb3Ru)4
_chemical_formula_sum   'Sr1 Sb12 Ru4'
_cell_volume   409.39006006
_cell_formula_units_Z   1
loop_
 _symmetry_equiv_pos_site_id
 _symmetry_equiv_pos_as_xyz
  1  'x, y, z'
loop_
 _atom_site_type_symbol
 _atom_site_label
 _atom_site_symmetry_multiplicity
 _atom_site_fract_x
 _atom_site_fract_y
 _atom_site_fract_z
 _atom_site_occupancy
  Sr  Sr0  1  0.00000000  0.00000000  -0.00000000  1
  Sb  Sb0  1  0.34319212  0.15894219  0.50216719  1
  Sb  Sb1  1  0.84106026  0.49783201  0.65681089  1
  Sb  Sb2  1  0.18422513  0.34319071  0.84103442  1
  Sb  Sb3  1  0.15893974  0.81574863  0.65677075  1
  Sb  Sb4  1  0.49783151  0.65678669  0.84104583  1
  Sb  Sb5  1  0.84106026  0.18425137  0.34322925  1
  Sb  Sb6  1  0.81577487  0.65680929  0.15896558  1
  Sb  Sb7  1  0.50216849  0.34321331  0.15895417  1
  Sb  Sb8  1  0.15893974  0.50216799  0.34318911  1
  Sb  Sb9  1  0.65680788  0.84105781  0.49783281  1
  Sb  Sb10  1  0.34319112  0.84102393  0.18424993  1
  Sb  Sb11  1  0.65680888  0.15897607  0.81575007  1
  Ru  Ru0  1  0.50000000  0.50000000  0.50000000  1
  Ru  Ru1  1  0.00000000  0.50000000  -0.00000000  1
  Ru  Ru2  1  0.00000000  0.00000000  0.50000000  1
  Ru  Ru3  1  0.50000000  0.00000000  -0.00000000  1
loop_
_geom_bond_atom_site_label_1
_geom_bond_atom_site_label_2
_geom_bond_distance
_geom_bond_site_symmetry_2
Sb0 Sb11 2.933669 1_555
Sb0 Sb10 2.974203 1_545
Sb0 Sr0 3.538486 1_555
Sb1 Sb5 2.933638 1_555
Sb1 Sb3 2.974181 1_655
Sb1 Sr0 3.538469 1_666
Sb2 Sb4 2.933742 1_555
Sb2 Sb7 2.974246 1_556
Sb2 Sr0 3.538359 1_556
Sb3 Sb8 2.933638 1_555
Sb3 Sr0 3.538478 1_566
Sb4 Sb6 2.974246 1_556
Sb4 Sr0 3.538434 1_666
Sb5 Sb8 2.974181 1_655
Sb5 Sr0 3.538478 1_655
Sb6 Sb7 2.933742 1_555
Sb6 Sr0 3.538359 1_665
Sb7 Sr0 3.538434 1_555
Sb8 Sr0 3.538469 1_555
Sb9 Sr0 3.538486 1_666
Sb10 Sb9 2.933669 1_555
Sb10 Sr0 3.538484 1_565
Sb11 Sb9 2.974203 1_545
Sb11 Sr0 3.538484 1_656
Ru0 Sb7 2.637436 1_555
Ru0 Sb4 2.637436 1_555
Ru0 Sb9 2.637536 1_555
Ru0 Sb0 2.637536 1_555
Ru0 Sb1 2.637543 1_555
Ru0 Sb8 2.637543 1_555
Ru1 Sb11 2.637211 1_454
Ru1 Sb10 2.637211 1_555
Ru1 Sb8 2.637263 1_555
Ru1 Sb1 2.637263 1_454
Ru1 Sb2 2.637310 1_554
Ru1 Sb6 2.637310 1_455
Ru2 Sb0 2.637218 1_555
Ru2 Sb9 2.637218 1_445
Ru2 Sb3 2.637273 1_545
Ru2 Sb5 2.637273 1_455
Ru2 Sb2 2.637312 1_555
Ru2 Sb6 2.637312 1_445
Ru3 Sb4 2.637428 1_544
Ru3 Sb7 2.637428 1_555
Ru3 Sb10 2.637544 1_545
Ru3 Sb11 2.637544 1_554
Ru3 Sb3 2.637546 1_544
Ru3 Sb5 2.637546 1_555
