# generated using pymatgen
data_K3Al2As3
_symmetry_space_group_name_H-M   'P 1'
_cell_length_a   6.00275243
_cell_length_b   7.57837094
_cell_length_c   10.51705566
_cell_angle_alpha   110.30393637
_cell_angle_beta   90.00000000
_cell_angle_gamma   90.00000000
_symmetry_Int_Tables_number   1
_chemical_formula_structural   K3Al2As3
_chemical_formula_sum   'K6 Al4 As6'
_cell_volume   448.70492569
_cell_formula_units_Z   2
loop_
 _symmetry_equiv_pos_site_id
 _symmetry_equiv_pos_as_xyz
  1  'x, y, z'
loop_
 _atom_site_type_symbol
 _atom_site_label
 _atom_site_symmetry_multiplicity
 _atom_site_fract_x
 _atom_site_fract_y
 _atom_site_fract_z
 _atom_site_occupancy
  K  K0  1  0.25000000  0.56401254  0.42679077  1
  K  K1  1  0.75000000  0.87058097  0.92180415  1
  K  K2  1  0.75000000  0.52274394  0.14859949  1
  K  K3  1  0.25000000  0.47725606  0.85140051  1
  K  K4  1  0.75000000  0.43598746  0.57320923  1
  K  K5  1  0.25000000  0.12941903  0.07819585  1
  Al  Al0  1  0.99957058  0.97192320  0.34271665  1
  Al  Al1  1  0.49957058  0.02807680  0.65728335  1
  Al  Al2  1  0.50042942  0.97192320  0.34271665  1
  Al  Al3  1  0.00042942  0.02807680  0.65728335  1
  As  As0  1  0.25000000  0.18788797  0.53002926  1
  As  As1  1  0.75000000  0.81211203  0.46997074  1
  As  As2  1  0.25000000  0.74576737  0.18235790  1
  As  As3  1  0.75000000  0.25423263  0.81764210  1
  As  As4  1  0.25000000  0.84663451  0.74812050  1
  As  As5  1  0.75000000  0.15336549  0.25187950  1
loop_
_geom_bond_atom_site_label_1
_geom_bond_atom_site_label_2
_geom_bond_distance
_geom_bond_site_symmetry_2
Al0 As5 2.441187 1_565
Al0 As2 2.456731 1_655
Al0 As0 2.565481 1_665
Al0 As1 2.574326 1_555
Al1 As4 2.441187 1_545
Al1 As3 2.456731 1_555
Al1 As1 2.565481 1_545
Al1 As0 2.574326 1_555
Al2 As5 2.441187 1_565
Al2 As2 2.456731 1_555
Al2 As0 2.565481 1_565
Al2 As1 2.574326 1_555
Al3 As4 2.441187 1_545
Al3 As3 2.456731 1_455
Al3 As1 2.565481 1_445
Al3 As0 2.574326 1_555
As0 K3 3.329974 1_555
As0 K0 3.384018 1_555
As0 K4 3.486694 1_455
As0 K4 3.486694 1_555
As1 K2 3.329974 1_555
As1 K4 3.384018 1_555
As1 K0 3.486694 1_555
As1 K0 3.486694 1_655
As2 K0 3.311074 1_555
As2 K3 3.367569 1_554
As2 K2 3.402129 1_555
As2 K2 3.402129 1_455
As2 K5 3.444386 1_565
As3 K4 3.311074 1_555
As3 K2 3.367569 1_556
As3 K3 3.402129 1_555
As3 K3 3.402129 1_655
As3 K1 3.444386 1_545
As4 K0 3.314322 1_555
As4 K3 3.335568 1_555
As4 K5 3.388282 1_566
As4 K1 3.485363 1_455
As4 K1 3.485363 1_555
As5 K4 3.314322 1_555
As5 K2 3.335568 1_555
As5 K1 3.388282 1_544
As5 K5 3.485363 1_555
As5 K5 3.485363 1_655
