# generated using pymatgen
data_Na10Y4Si7Ge4S5O48
_symmetry_space_group_name_H-M   'P 1'
_cell_length_a   18.22825727
_cell_length_b   9.29714977
_cell_length_c   22.62758836
_cell_angle_alpha   90.03869433
_cell_angle_beta   85.53050808
_cell_angle_gamma   120.34014264
_symmetry_Int_Tables_number   1
_chemical_formula_structural   Na10Y4Si7Ge4S5O48
_chemical_formula_sum   'Na30 Y12 Si21 Ge12 S15 O144'
_cell_volume   3296.11916135
_cell_formula_units_Z   3
loop_
 _symmetry_equiv_pos_site_id
 _symmetry_equiv_pos_as_xyz
  1  'x, y, z'
loop_
 _atom_site_type_symbol
 _atom_site_label
 _atom_site_symmetry_multiplicity
 _atom_site_fract_x
 _atom_site_fract_y
 _atom_site_fract_z
 _atom_site_occupancy
  Na  Na0  1  0.18068857  0.35748441  0.23829645  1
  Na  Na1  1  0.68162034  0.36064825  0.23869612  1
  Na  Na2  1  0.99388740  0.63998851  0.25427372  1
  Na  Na3  1  0.49504571  0.64028694  0.25342961  1
  Na  Na4  1  0.49294733  0.34249430  0.76061865  1
  Na  Na5  1  0.18074831  0.00719000  0.74183362  1
  Na  Na6  1  0.67774905  0.00559092  0.74237540  1
  Na  Na7  1  0.65441218  0.34219381  0.58383629  1
  Na  Na8  1  0.01242043  0.68799534  0.57685682  1
  Na  Na9  1  0.82931175  0.96919816  0.59160914  1
  Na  Na10  1  0.48669739  0.67540626  0.92036877  1
  Na  Na11  1  0.99131996  0.67893023  0.91781914  1
  Na  Na12  1  0.84411491  0.02078221  0.90906499  1
  Na  Na13  1  0.15817803  0.30245766  0.92356865  1
  Na  Na14  1  0.48669092  0.29902848  0.41778747  1
  Na  Na15  1  0.98192981  0.29217397  0.41786668  1
  Na  Na16  1  0.34081770  0.66712690  0.40658542  1
  Na  Na17  1  0.84448771  0.67423055  0.40841808  1
  Na  Na18  1  0.02748927  0.01932541  0.50341905  1
  Na  Na19  1  0.51609176  0.99272250  0.50183410  1
  Na  Na20  1  0.01071637  0.00648164  0.00699162  1
  Na  Na21  1  0.51727616  0.03739012  0.00196185  1
  Na  Na22  1  0.34047701  0.33739047  0.83624683  1
  Na  Na23  1  0.84366547  0.34496741  0.83108611  1
  Na  Na24  1  0.33124103  0.30978261  0.33230390  1
  Na  Na25  1  0.83214926  0.30859722  0.33613943  1
  Na  Na26  1  0.17835887  0.66407240  0.16520727  1
  Na  Na27  1  0.67911461  0.66519863  0.16512800  1
  Na  Na28  1  0.17756926  0.66933739  0.67357125  1
  Na  Na29  1  0.67594005  0.67741647  0.67087199  1
  Y  Y0  1  0.00314424  0.99869949  0.35263618  1
  Y  Y1  1  0.50339058  0.00115152  0.35196810  1
  Y  Y2  1  0.00008442  0.00429989  0.84923648  1
  Y  Y3  1  0.49369177  0.00310209  0.85706599  1
  Y  Y4  1  0.33533837  0.33287407  0.68522061  1
  Y  Y5  1  0.83876706  0.33805187  0.68830244  1
  Y  Y6  1  0.33748580  0.34309452  0.18288629  1
  Y  Y7  1  0.83695029  0.34087233  0.18296091  1
  Y  Y8  1  0.15960761  0.64955930  0.02099428  1
  Y  Y9  1  0.65923660  0.64877585  0.02369470  1
  Y  Y10  1  0.16799551  0.67613713  0.52057954  1
  Y  Y11  1  0.65850171  0.67353950  0.52144704  1
  Si  Si0  1  0.34972971  0.72418287  0.25140665  1
  Si  Si1  1  0.85046847  0.72443170  0.25139444  1
  Si  Si2  1  0.00072158  0.30295050  0.25528548  1
  Si  Si3  1  0.50118195  0.30404911  0.25503636  1
  Si  Si4  1  0.00215572  0.69729730  0.75445765  1
  Si  Si5  1  0.50096130  0.69869211  0.75617287  1
  Si  Si6  1  0.35058698  0.97762556  0.74888053  1
  Si  Si7  1  0.84591552  0.97167331  0.75331823  1
  Si  Si8  1  0.18035729  0.05146224  0.58905458  1
  Si  Si9  1  0.68434339  0.05752198  0.58850023  1
  Si  Si10  1  0.83421780  0.63606027  0.58302218  1
  Si  Si11  1  0.18013867  0.30868033  0.08858158  1
  Si  Si12  1  0.67968117  0.30981363  0.08992941  1
  Si  Si13  1  0.01643749  0.38469851  0.91732828  1
  Si  Si14  1  0.51424224  0.38431464  0.91908462  1
  Si  Si15  1  0.16821557  0.96539953  0.91652750  1
  Si  Si16  1  0.66819016  0.96742387  0.91922638  1
  Si  Si17  1  0.16807797  0.36922083  0.41761617  1
  Si  Si18  1  0.66751877  0.36874911  0.42080819  1
  Si  Si19  1  0.01538201  0.64581856  0.42037808  1
  Si  Si20  1  0.51295176  0.64663410  0.41708267  1
  Ge  Ge0  1  0.98791042  0.94010536  0.64983429  1
  Ge  Ge1  1  0.49871917  0.95843784  0.65470606  1
  Ge  Ge2  1  0.99324391  0.03856976  0.15021638  1
  Ge  Ge3  1  0.49593381  0.03492044  0.15162000  1
  Ge  Ge4  1  0.31813635  0.27652126  0.97823713  1
  Ge  Ge5  1  0.81591673  0.30926912  0.97243357  1
  Ge  Ge6  1  0.31757867  0.33820843  0.47543885  1
  Ge  Ge7  1  0.82072182  0.37226071  0.47989835  1
  Ge  Ge8  1  0.15650304  0.60857964  0.31306704  1
  Ge  Ge9  1  0.65623400  0.61149889  0.31365667  1
  Ge  Ge10  1  0.15622894  0.70379727  0.81228838  1
  Ge  Ge11  1  0.65533431  0.70580341  0.81413326  1
  S  S0  1  0.14676343  0.98003231  0.24517864  1
  S  S1  1  0.64685873  0.97927809  0.24537236  1
  S  S2  1  0.14516924  0.31532029  0.74814543  1
  S  S3  1  0.64215920  0.30215748  0.74462470  1
  S  S4  1  0.48011408  0.30603881  0.57912514  1
  S  S5  1  0.98165176  0.31268023  0.57725005  1
  S  S6  1  0.34306089  0.63908205  0.57890044  1
  S  S7  1  0.48256112  0.66301331  0.08164933  1
  S  S8  1  0.98224445  0.65913523  0.08052477  1
  S  S9  1  0.34110470  0.04404166  0.08156778  1
  S  S10  1  0.84134593  0.04277094  0.08029022  1
  S  S11  1  0.30888651  0.64149095  0.91601828  1
  S  S12  1  0.81182760  0.64225359  0.91794880  1
  S  S13  1  0.31194658  0.98228806  0.41494092  1
  S  S14  1  0.80968671  0.97295927  0.41552054  1
  O  O0  1  0.11154220  0.00495536  0.30334122  1
  O  O1  1  0.61166916  0.00415775  0.30360905  1
  O  O2  1  0.40335721  0.78731140  0.30863671  1
  O  O3  1  0.90448961  0.78573734  0.30853491  1
  O  O4  1  0.49296775  0.20932425  0.31642710  1
  O  O5  1  0.99373923  0.20844391  0.31640156  1
  O  O6  1  0.11131326  0.23121581  0.80856899  1
  O  O7  1  0.59878813  0.20182496  0.79970829  1
  O  O8  1  0.49419069  0.78506614  0.81514060  1
  O  O9  1  0.99904804  0.78790538  0.81411146  1
  O  O10  1  0.41418825  0.03514406  0.79984598  1
  O  O11  1  0.89405825  0.99904750  0.81219062  1
  O  O12  1  0.40478179  0.94955553  0.68677243  1
  O  O13  1  0.90262718  0.95528582  0.69104336  1
  O  O14  1  0.09363939  0.21142214  0.70189520  1
  O  O15  1  0.59509418  0.21102749  0.69193127  1
  O  O16  1  0.01439966  0.81286694  0.69257247  1
  O  O17  1  0.52023079  0.82210415  0.69494226  1
  O  O18  1  0.40705147  0.86227765  0.19264134  1
  O  O19  1  0.90789511  0.86282029  0.19279256  1
  O  O20  1  0.01900173  0.21295879  0.19606077  1
  O  O21  1  0.51806524  0.21032949  0.19636380  1
  O  O22  1  0.09468696  0.97563851  0.19741926  1
  O  O23  1  0.59402991  0.97394435  0.19782954  1
  O  O24  1  0.43482001  0.30954296  0.63570433  1
  O  O25  1  0.93484289  0.32217334  0.63176473  1
  O  O26  1  0.22982951  0.12920402  0.64635102  1
  O  O27  1  0.73139752  0.12817880  0.64709209  1
  O  O28  1  0.33136611  0.53242212  0.63029590  1
  O  O29  1  0.81975061  0.50511613  0.63397877  1
  O  O30  1  0.43949012  0.56816328  0.13929269  1
  O  O31  1  0.93754625  0.56415259  0.13753237  1
  O  O32  1  0.32940552  0.12347855  0.13379809  1
  O  O33  1  0.83105012  0.12700270  0.13208929  1
  O  O34  1  0.22610060  0.31584090  0.14679590  1
  O  O35  1  0.72425541  0.31354433  0.14840848  1
  O  O36  1  0.23684050  0.28426530  0.02648482  1
  O  O37  1  0.73765465  0.28782896  0.02892907  1
  O  O38  1  0.44027986  0.56572852  0.03084241  1
  O  O39  1  0.94065719  0.56420810  0.02865901  1
  O  O40  1  0.35336676  0.14626229  0.02472583  1
  O  O41  1  0.85227940  0.13487075  0.02323884  1
  O  O42  1  0.23762934  0.18538509  0.52711748  1
  O  O43  1  0.73586455  0.20632637  0.53007802  1
  O  O44  1  0.35002595  0.56097335  0.52084979  1
  O  O45  1  0.85155408  0.56477509  0.51701593  1
  O  O46  1  0.43963396  0.31970170  0.52695435  1
  O  O47  1  0.93848523  0.31355879  0.52450241  1
  O  O48  1  0.26985403  0.65243134  0.97340662  1
  O  O49  1  0.77100897  0.65328795  0.97444527  1
  O  O50  1  0.07806349  0.45019276  0.96963355  1
  O  O51  1  0.56970771  0.47091854  0.97240704  1
  O  O52  1  0.15391242  0.84006363  0.96944093  1
  O  O53  1  0.66932035  0.85448575  0.97143520  1
  O  O54  1  0.27185621  0.89332876  0.47225032  1
  O  O55  1  0.77186739  0.88660704  0.47425894  1
  O  O56  1  0.16640055  0.48088770  0.47033038  1
  O  O57  1  0.66340098  0.46371880  0.47886617  1
  O  O58  1  0.06409437  0.67083430  0.47881499  1
  O  O59  1  0.56755201  0.67766668  0.47147261  1
  O  O60  1  0.06954178  0.61156494  0.35974041  1
  O  O61  1  0.56281324  0.60828518  0.35518103  1
  O  O62  1  0.26562977  0.89694314  0.36398707  1
  O  O63  1  0.76084673  0.87680428  0.36610175  1
  O  O64  1  0.18580327  0.47778311  0.35257587  1
  O  O65  1  0.68232512  0.48370039  0.35781657  1
  O  O66  1  0.06628291  0.53187067  0.85904836  1
  O  O67  1  0.56380002  0.52163222  0.85595373  1
  O  O68  1  0.18035206  0.89293975  0.85031322  1
  O  O69  1  0.68544274  0.89245818  0.85372154  1
  O  O70  1  0.26258996  0.64276020  0.86492974  1
  O  O71  1  0.76732867  0.63129584  0.86586838  1
  O  O72  1  0.99344465  0.79003398  0.40902616  1
  O  O73  1  0.48693931  0.78587201  0.40750076  1
  O  O74  1  0.39860585  0.00100948  0.41268907  1
  O  O75  1  0.89641032  0.98810024  0.41260955  1
  O  O76  1  0.08497985  0.18577794  0.41828263  1
  O  O77  1  0.58513925  0.18444918  0.41836231  1
  O  O78  1  0.99267046  0.19474299  0.90671732  1
  O  O79  1  0.49273631  0.19776926  0.91036609  1
  O  O80  1  0.09112622  0.00772670  0.91664560  1
  O  O81  1  0.58492075  0.98471825  0.91873274  1
  O  O82  1  0.39784817  0.78206530  0.91389080  1
  O  O83  1  0.90041645  0.79216144  0.91504536  1
  O  O84  1  0.48719344  0.15513046  0.57723483  1
  O  O85  1  0.98357785  0.15516167  0.57916352  1
  O  O86  1  0.08349191  0.03757240  0.59584175  1
  O  O87  1  0.58512732  0.03945842  0.59506434  1
  O  O88  1  0.42575306  0.80186079  0.58075042  1
  O  O89  1  0.92729139  0.81395527  0.58851635  1
  O  O90  1  0.48214879  0.82200879  0.08126640  1
  O  O91  1  0.98257558  0.81813699  0.08040739  1
  O  O92  1  0.42335755  0.04275955  0.08334679  1
  O  O93  1  0.92502173  0.04167598  0.08468397  1
  O  O94  1  0.08229317  0.12998575  0.09385134  1
  O  O95  1  0.58185826  0.13122470  0.09393142  1
  O  O96  1  0.33028250  0.12743354  0.73814320  1
  O  O97  1  0.82375884  0.11653625  0.74148914  1
  O  O98  1  0.23330002  0.33772005  0.74305499  1
  O  O99  1  0.72865659  0.32634062  0.74374901  1
  O  O100  1  0.42842065  0.50520744  0.74970059  1
  O  O101  1  0.92445490  0.51034929  0.75136529  1
  O  O102  1  0.33089811  0.53565990  0.23925470  1
  O  O103  1  0.83189782  0.53628053  0.23866913  1
  O  O104  1  0.42767913  0.35052564  0.24870776  1
  O  O105  1  0.92720759  0.34937051  0.24917651  1
  O  O106  1  0.23581124  0.12387018  0.24020756  1
  O  O107  1  0.73580530  0.12209054  0.24017291  1
  O  O108  1  0.30997310  0.47999768  0.91525574  1
  O  O109  1  0.82233490  0.48825171  0.92034506  1
  O  O110  1  0.41856991  0.38227880  0.93041028  1
  O  O111  1  0.92184527  0.38136895  0.93108202  1
  O  O112  1  0.25926124  0.15024336  0.91991809  1
  O  O113  1  0.76144594  0.15490883  0.91847997  1
  O  O114  1  0.32226431  0.15382320  0.41679063  1
  O  O115  1  0.82088543  0.14131519  0.41506844  1
  O  O116  1  0.26038995  0.36788455  0.41881399  1
  O  O117  1  0.76143268  0.37274691  0.41844804  1
  O  O118  1  0.41863879  0.45860930  0.42818559  1
  O  O119  1  0.91987667  0.45930130  0.42713853  1
  O  O120  1  0.16708219  0.46611959  0.08103438  1
  O  O121  1  0.66611310  0.46681330  0.08370847  1
  O  O122  1  0.07003237  0.68634105  0.08316648  1
  O  O123  1  0.57127076  0.69311603  0.08395673  1
  O  O124  1  0.26821109  0.87258774  0.07873414  1
  O  O125  1  0.76993930  0.86859739  0.08111663  1
  O  O126  1  0.16042747  0.86261482  0.57917023  1
  O  O127  1  0.67442373  0.87864874  0.57775420  1
  O  O128  1  0.27055498  0.66952145  0.57952335  1
  O  O129  1  0.75786064  0.67677182  0.58254946  1
  O  O130  1  0.06819440  0.46298607  0.57911630  1
  O  O131  1  0.56812249  0.45602386  0.58329512  1
  O  O132  1  0.14516988  0.81866540  0.24703461  1
  O  O133  1  0.64548600  0.81819175  0.24698982  1
  O  O134  1  0.25364223  0.71198759  0.26055824  1
  O  O135  1  0.75373961  0.70970951  0.26106212  1
  O  O136  1  0.09612086  0.48585053  0.25269679  1
  O  O137  1  0.59706310  0.48540606  0.25265871  1
  O  O138  1  0.15105783  0.47943568  0.74762536  1
  O  O139  1  0.64308072  0.46194818  0.74460068  1
  O  O140  1  0.09837815  0.71066732  0.75065679  1
  O  O141  1  0.59627821  0.70735817  0.75270390  1
  O  O142  1  0.25633509  0.79878748  0.76077534  1
  O  O143  1  0.75123809  0.78562228  0.76127256  1
loop_
_geom_bond_atom_site_label_1
_geom_bond_atom_site_label_2
_geom_bond_distance
_geom_bond_site_symmetry_2
Na0 O34 2.275392 1_555
Na0 O102 2.380860 1_555
Na0 O136 2.384648 1_555
Na0 O106 2.817885 1_555
Na1 O35 2.250500 1_555
Na1 O137 2.355972 1_555
Na1 O103 2.377168 1_555
Na1 O107 2.848530 1_555
Na2 O105 2.344068 1_555
Na2 O132 2.385969 1_655
Na2 O103 2.656889 1_555
Na2 O3 2.813514 1_555
Na2 O136 2.866212 1_655
Na2 O31 2.866799 1_555
Na2 O60 2.923821 1_655
Na2 O22 2.934881 1_655
Na3 O104 2.335535 1_555
Na3 O133 2.373341 1_555
Na3 O102 2.685263 1_555
Na3 O61 2.780457 1_555
Na3 O30 2.804366 1_555
Na3 O2 2.864010 1_555
Na3 O137 2.869146 1_555
Na3 O23 2.908277 1_555
Na4 O100 2.361432 1_555
Na4 O139 2.372674 1_555
Na4 O10 2.583510 1_555
Na4 O96 2.700457 1_555
Na4 O67 2.711393 1_555
Na5 O26 2.330648 1_555
Na5 O96 2.360640 1_555
Na5 O140 2.380454 1_545
Na5 O68 2.673303 1_545
Na5 O98 2.718775 1_555
Na5 O142 2.937061 1_545
Na5 O16 2.947981 1_545
Na6 O97 2.316506 1_555
Na6 O27 2.335052 1_555
Na6 O141 2.394752 1_545
Na6 O99 2.638842 1_555
Na6 O69 2.771552 1_545
Na6 O17 2.799244 1_545
Na7 O131 2.297585 1_555
Na7 O87 2.437464 1_555
Na7 O57 2.588628 1_555
Na7 O43 2.625055 1_555
Na7 O15 2.626508 1_555
Na7 O84 2.655747 1_555
Na7 O129 2.701541 1_555
Na7 O29 2.929768 1_555
Na8 O126 2.348206 1_555
Na8 O89 2.370777 1_455
Na8 O58 2.379048 1_555
Na9 O129 2.365038 1_555
Na9 O85 2.437506 1_565
Na9 O127 2.552373 1_555
Na9 O13 2.740201 1_555
Na9 O89 2.804007 1_555
Na9 O55 2.890546 1_555
Na10 O82 2.299453 1_555
Na10 O110 2.357663 1_555
Na10 O81 2.502992 1_555
Na10 O8 2.557232 1_555
Na10 O38 2.608946 1_556
Na10 O108 2.799379 1_555
Na10 O67 2.802058 1_555
Na11 O83 2.374121 1_555
Na11 O111 2.397846 1_555
Na11 O9 2.522028 1_555
Na11 O39 2.632155 1_556
Na11 O80 2.651252 1_665
Na11 O109 2.662747 1_555
Na11 O66 2.665846 1_655
Na11 O52 2.905903 1_655
Na12 O78 2.346170 1_555
Na12 O11 2.355602 1_545
Na12 O113 2.391479 1_555
Na12 O41 2.778190 1_556
Na13 O80 2.381728 1_555
Na13 O108 2.391906 1_555
Na13 O50 2.625425 1_555
Na13 O78 2.715981 1_455
Na13 O6 2.777091 1_555
Na13 O112 2.831074 1_555
Na13 O36 2.876394 1_556
Na13 O70 2.986888 1_555
Na14 O118 2.368267 1_555
Na14 O74 2.408796 1_555
Na14 O4 2.453953 1_555
Na14 O77 2.508040 1_555
Na14 O46 2.590404 1_555
Na14 O114 2.594033 1_555
Na14 O61 2.804932 1_555
Na15 O119 2.340070 1_555
Na15 O75 2.452044 1_545
Na15 O5 2.452220 1_555
Na15 O47 2.519801 1_555
Na15 O76 2.527247 1_655
Na15 O115 2.541255 1_555
Na15 O60 2.825748 1_655
Na16 O73 2.313339 1_555
Na16 O2 2.404779 1_555
Na16 O116 2.404829 1_555
Na16 O74 2.735534 1_565
Na16 O44 2.815242 1_555
Na17 O72 2.363105 1_555
Na17 O3 2.418986 1_555
Na17 O117 2.420797 1_555
Na17 O75 2.577491 1_555
Na17 O45 2.697340 1_555
Na17 O65 2.901948 1_555
Na18 O76 2.292422 1_555
Na18 O86 2.366795 1_555
Na18 O85 2.444907 1_455
Na18 O89 2.573511 1_445
Na18 O72 2.890578 1_445
Na19 O88 2.375507 1_555
Na19 O77 2.386715 1_565
Na19 O87 2.466330 1_565
Na19 O84 2.475534 1_565
Na19 O73 2.770528 1_555
Na20 O91 2.247821 1_445
Na20 O93 2.392745 1_455
Na20 O94 2.401407 1_555
Na20 O80 2.417353 1_554
Na21 O81 2.356643 1_544
Na21 O95 2.412367 1_555
Na21 O92 2.432998 1_555
Na21 O90 2.484007 1_545
Na21 O79 2.746182 1_554
Na22 O112 2.401844 1_555
Na22 O100 2.413959 1_555
Na22 O108 2.418643 1_555
Na22 O110 2.571324 1_555
Na22 O96 2.909389 1_555
Na22 O98 2.985219 1_555
Na23 O101 2.255886 1_555
Na23 O113 2.479192 1_555
Na23 O109 2.530269 1_555
Na23 O111 2.698024 1_555
Na23 O97 2.842977 1_555
Na23 O99 2.934090 1_555
Na24 O114 2.345042 1_555
Na24 O104 2.371025 1_555
Na24 O116 2.470013 1_555
Na24 O118 2.732627 1_555
Na24 O106 2.806915 1_555
Na24 O102 2.977319 1_555
Na25 O115 2.296660 1_555
Na25 O105 2.413339 1_555
Na25 O117 2.426323 1_555
Na25 O119 2.646867 1_555
Na25 O107 2.884280 1_555
Na26 O136 2.438099 1_555
Na26 O132 2.561304 1_555
Na26 O124 2.562659 1_555
Na26 O134 2.565006 1_555
Na26 O120 2.594422 1_555
Na26 O122 2.893601 1_555
Na27 O137 2.443551 1_555
Na27 O125 2.506410 1_555
Na27 O121 2.544420 1_555
Na27 O133 2.555478 1_555
Na27 O135 2.573737 1_555
Na27 O123 2.895533 1_555
Na28 O138 2.274722 1_555
Na28 O140 2.332566 1_555
Na28 O142 2.469029 1_555
Na28 O128 2.614675 1_555
Na28 O126 2.926743 1_555
Na28 O130 3.002979 1_555
Na29 O141 2.367135 1_555
Na29 O129 2.401644 1_555
Na29 O139 2.406564 1_555
Na29 O143 2.473873 1_555
Na29 O127 2.829700 1_555
Na29 O131 2.922470 1_555
Ge0 O16 1.794189 1_655
Ge0 O13 1.817038 1_555
Ge0 O86 1.850413 1_665
Ge0 O89 1.857177 1_555
Ge1 O12 1.768870 1_555
Ge1 O17 1.774426 1_555
Ge1 O87 1.827838 1_565
Ge1 O88 2.253019 1_555
Ge1 O15 2.317455 1_565
Ge2 O19 1.794086 1_545
Ge2 O20 1.797165 1_655
Ge2 O94 1.808004 1_655
Ge2 O93 2.017390 1_555
Ge3 O18 1.789763 1_545
Ge3 O95 1.795811 1_555
Ge3 O21 1.801136 1_555
Ge3 O92 2.134984 1_555
Ge3 O23 2.434822 1_545
Ge3 O90 2.463997 1_545
Ge4 O112 1.793659 1_555
Ge4 O36 1.802377 1_556
Ge4 O110 1.834019 1_555
Ge4 O40 1.969333 1_556
Ge4 O108 2.439856 1_555
Ge5 O37 1.771410 1_556
Ge5 O113 1.811866 1_555
Ge5 O111 1.861408 1_555
Ge5 O109 1.989056 1_555
Ge5 O41 2.365779 1_556
Ge6 O42 1.776160 1_555
Ge6 O116 1.817618 1_555
Ge6 O118 1.844227 1_555
Ge6 O44 2.132920 1_555
Ge6 O114 2.198696 1_555
Ge7 O45 1.811096 1_555
Ge7 O117 1.827726 1_555
Ge7 O43 1.838387 1_555
Ge7 O119 1.879952 1_555
Ge8 O64 1.815280 1_555
Ge8 O136 1.828361 1_555
Ge8 O60 1.847249 1_555
Ge8 O134 1.850710 1_555
Ge9 O65 1.811889 1_555
Ge9 O137 1.842586 1_555
Ge9 O135 1.855072 1_555
Ge9 O61 1.866241 1_555
Ge10 O68 1.817051 1_555
Ge10 O140 1.832566 1_555
Ge10 O66 1.856588 1_555
Ge10 O142 1.873546 1_555
Ge11 O69 1.796510 1_555
Ge11 O141 1.827592 1_555
Ge11 O143 1.844487 1_555
Ge11 O67 1.865773 1_555
O0 S0 1.488669 1_545
O0 Y0 2.166159 1_545
O1 S1 1.489691 1_545
O1 Y1 2.168287 1_555
O2 Si0 1.610486 1_555
O2 Y1 2.202827 1_565
O3 Si1 1.611417 1_555
O3 Y0 2.197684 1_655
O4 Si3 1.601151 1_555
O4 Y1 2.196831 1_555
O5 Si2 1.600587 1_655
O5 Y0 2.205909 1_645
O6 S2 1.498013 1_555
O6 Y2 2.190625 1_555
O7 S3 1.466848 1_555
O7 Y3 2.192693 1_555
O8 Si5 1.585388 1_555
O8 Y3 2.241412 1_565
O9 Si4 1.603002 1_655
O9 Y2 2.154388 1_665
O10 Si6 1.594107 1_545
O10 Y3 2.143467 1_555
O11 Si7 1.601745 1_555
O11 Y2 2.144151 1_665
O12 Si6 1.750032 1_555
O13 Si7 1.734733 1_555
O14 S2 1.464851 1_555
O15 S3 1.516318 1_555
O16 Si4 1.695943 1_555
O17 Si5 1.696648 1_555
O18 Si0 1.714284 1_555
O19 Si1 1.713127 1_555
O20 Si2 1.678536 1_555
O21 Si3 1.679927 1_555
O22 S0 1.480300 1_555
O23 S1 1.483317 1_555
O24 S4 1.477886 1_555
O24 Y4 2.161284 1_555
O25 S5 1.472860 1_555
O25 Y5 2.153418 1_555
O26 Si8 1.593414 1_555
O26 Y4 2.154115 1_555
O27 Si9 1.591151 1_555
O27 Y5 2.220633 1_555
O28 S6 1.459658 1_555
O28 Y4 2.268160 1_555
O29 Si10 1.584694 1_555
O29 Y5 2.157901 1_555
O30 S7 1.495932 1_555
O30 Y6 2.143613 1_555
O31 S8 1.489451 1_555
O31 Y7 2.142858 1_555
O32 S9 1.451319 1_555
O32 Y6 2.267824 1_555
O33 S10 1.461245 1_555
O33 Y7 2.256193 1_555
O34 Si11 1.599073 1_555
O34 Y6 2.142863 1_555
O35 Si12 1.597303 1_555
O35 Y7 2.149060 1_555
O36 Si11 1.761917 1_555
O37 Si12 1.747629 1_555
O38 S7 1.471796 1_555
O39 S8 1.480625 1_555
O40 S9 1.532869 1_555
O41 S10 1.492788 1_555
O42 Si8 1.750842 1_555
O43 Si9 1.743524 1_555
O44 S6 1.527984 1_555
O45 Si10 1.704850 1_555
O46 S4 1.478121 1_555
O47 S5 1.482108 1_555
O48 S11 1.460056 1_555
O48 Y8 2.192546 1_556
O49 S12 1.458451 1_555
O49 Y9 2.225881 1_556
O50 Si13 1.596444 1_555
O50 Y8 2.116267 1_556
O51 Si14 1.578822 1_555
O51 Y9 2.076222 1_556
O52 Si15 1.582928 1_555
O52 Y8 2.171624 1_556
O53 Si16 1.589296 1_555
O53 Y9 2.168837 1_556
O54 S13 1.463845 1_555
O54 Y10 2.162343 1_555
O55 S14 1.478448 1_555
O55 Y11 2.204053 1_555
O56 Si17 1.589413 1_555
O56 Y10 2.130230 1_555
O57 Si18 1.600340 1_555
O57 Y11 2.213984 1_555
O58 Si19 1.601536 1_555
O58 Y10 2.160341 1_555
O59 Si20 1.577588 1_555
O59 Y11 2.094081 1_555
O60 Si19 1.750596 1_555
O61 Si20 1.744534 1_555
O62 S13 1.464721 1_555
O63 S14 1.480526 1_555
O64 Si17 1.699256 1_555
O65 Si18 1.702152 1_555
O66 Si13 1.731044 1_555
O67 Si14 1.767130 1_555
O68 Si15 1.686750 1_555
O69 Si16 1.711438 1_555
O70 S11 1.486877 1_555
O71 S12 1.456851 1_555
O72 Si19 1.606780 1_655
O72 Y0 2.246017 1_655
O73 Si20 1.607520 1_555
O73 Y1 2.239006 1_565
O74 S13 1.495953 1_545
O74 Y1 2.263734 1_555
O75 S14 1.510668 1_555
O75 Y0 2.243112 1_655
O76 Si17 1.609331 1_555
O76 Y0 2.275421 1_545
O77 Si18 1.614728 1_555
O77 Y1 2.271921 1_555
O78 Si13 1.614600 1_655
O78 Y2 2.248586 1_655
O79 Si14 1.589105 1_555
O79 Y3 2.180836 1_555
O80 Si15 1.639370 1_545
O80 Y2 2.328661 1_555
O81 Si16 1.605948 1_555
O81 Y3 2.321804 1_565
O82 S11 1.478803 1_555
O82 Y3 2.225977 1_565
O83 S12 1.504756 1_555
O83 Y2 2.317395 1_665
O84 S4 1.472722 1_555
O85 S5 1.483259 1_555
O86 Si8 1.698624 1_555
O87 Si9 1.724063 1_555
O88 S6 1.506416 1_555
O89 Si10 1.681384 1_555
O90 S7 1.482050 1_555
O91 S8 1.475227 1_555
O92 S9 1.509041 1_555
O93 S10 1.541344 1_555
O94 Si11 1.711421 1_555
O95 Si12 1.711312 1_555
O96 Si6 1.634358 1_545
O96 Y4 2.213306 1_555
O97 Si7 1.617260 1_545
O97 Y5 2.268799 1_555
O98 S2 1.506848 1_555
O98 Y4 2.208924 1_555
O99 S3 1.474421 1_555
O99 Y5 2.236381 1_555
O100 Si5 1.622523 1_555
O100 Y4 2.282756 1_555
O101 Si4 1.600049 1_655
O101 Y5 2.204189 1_555
O102 Si0 1.634540 1_555
O102 Y6 2.244262 1_555
O103 Si1 1.635155 1_555
O103 Y7 2.246295 1_555
O104 Si3 1.617784 1_555
O104 Y6 2.278757 1_555
O105 Si2 1.616867 1_655
O105 Y7 2.282684 1_555
O106 S0 1.488125 1_545
O106 Y6 2.254781 1_555
O107 S1 1.483629 1_545
O107 Y7 2.248416 1_555
O108 S11 1.511598 1_555
O109 S12 1.538954 1_555
O110 Si14 1.733310 1_555
O111 Si13 1.712691 1_655
O112 Si15 1.688731 1_545
O113 Si16 1.711823 1_545
O114 S13 1.509500 1_545
O115 S14 1.472624 1_545
O116 Si17 1.691316 1_555
O117 Si18 1.690048 1_555
O118 Si20 1.723845 1_555
O119 Si19 1.723416 1_655
O120 Si11 1.608398 1_555
O120 Y8 2.244906 1_555
O121 Si12 1.606852 1_555
O121 Y9 2.228365 1_555
O122 S8 1.494736 1_455
O122 Y8 2.228793 1_555
O123 S7 1.500584 1_555
O123 Y9 2.219608 1_555
O124 S9 1.477812 1_565
O124 Y8 2.485553 1_555
O125 S10 1.477710 1_565
O125 Y9 2.485089 1_555
O126 Si8 1.622462 1_565
O126 Y10 2.234380 1_555
O127 Si9 1.599983 1_565
O127 Y11 2.199809 1_555
O128 S6 1.483921 1_555
O128 Y10 2.404691 1_555
O129 Si10 1.617158 1_555
O129 Y11 2.351160 1_555
O130 S5 1.492096 1_455
O130 Y10 2.230900 1_555
O131 S4 1.513400 1_555
O131 Y11 2.245197 1_555
O132 S0 1.486349 1_555
O133 S1 1.485589 1_555
O134 Si0 1.693042 1_555
O135 Si1 1.694570 1_555
O136 Si2 1.707582 1_555
O137 Si3 1.705518 1_555
O138 S2 1.474486 1_555
O139 S3 1.477184 1_555
O140 Si4 1.689820 1_555
O141 Si5 1.693739 1_555
O142 Si6 1.682644 1_555
O143 Si7 1.714344 1_555
