# generated using pymatgen
data_KH3(CO2)2
_symmetry_space_group_name_H-M   'P 1'
_cell_length_a   7.55441500
_cell_length_b   7.63724000
_cell_length_c   17.95619300
_cell_angle_alpha   90.00000000
_cell_angle_beta   90.00000000
_cell_angle_gamma   90.00000000
_symmetry_Int_Tables_number   1
_chemical_formula_structural   KH3(CO2)2
_chemical_formula_sum   'K8 H24 C16 O32'
_cell_volume   1035.98040784
_cell_formula_units_Z   8
loop_
 _symmetry_equiv_pos_site_id
 _symmetry_equiv_pos_as_xyz
  1  'x, y, z'
loop_
 _atom_site_type_symbol
 _atom_site_label
 _atom_site_symmetry_multiplicity
 _atom_site_fract_x
 _atom_site_fract_y
 _atom_site_fract_z
 _atom_site_occupancy
  K  K0  1  0.71572500  0.06378000  0.03647800  1
  K  K1  1  0.21572500  0.93622000  0.46352200  1
  K  K2  1  0.78427500  0.56378000  0.96352200  1
  K  K3  1  0.28427500  0.43622000  0.53647800  1
  K  K4  1  0.28427500  0.93622000  0.96352200  1
  K  K5  1  0.78427500  0.06378000  0.53647800  1
  K  K6  1  0.21572500  0.43622000  0.03647800  1
  K  K7  1  0.71572500  0.56378000  0.46352200  1
  H  H0  1  0.94886500  0.43032000  0.27192400  1
  H  H1  1  0.44886500  0.56968000  0.22807600  1
  H  H2  1  0.55113500  0.93032000  0.72807600  1
  H  H3  1  0.05113500  0.06968000  0.77192400  1
  H  H4  1  0.05113500  0.56968000  0.72807600  1
  H  H5  1  0.55113500  0.43032000  0.77192400  1
  H  H6  1  0.44886500  0.06968000  0.27192400  1
  H  H7  1  0.94886500  0.93032000  0.22807600  1
  H  H8  1  0.74188500  0.31256600  0.19921200  1
  H  H9  1  0.24188500  0.68743400  0.30078800  1
  H  H10  1  0.75811500  0.81256600  0.80078800  1
  H  H11  1  0.25811500  0.18743400  0.69921200  1
  H  H12  1  0.25811500  0.68743400  0.80078800  1
  H  H13  1  0.75811500  0.31256600  0.69921200  1
  H  H14  1  0.24188500  0.18743400  0.19921200  1
  H  H15  1  0.74188500  0.81256600  0.30078800  1
  H  H16  1  0.62766000  0.24789000  0.34332700  1
  H  H17  1  0.12766000  0.75211000  0.15667300  1
  H  H18  1  0.87234000  0.74789000  0.65667300  1
  H  H19  1  0.37234000  0.25211000  0.84332700  1
  H  H20  1  0.37234000  0.75211000  0.65667300  1
  H  H21  1  0.87234000  0.24789000  0.84332700  1
  H  H22  1  0.12766000  0.25211000  0.34332700  1
  H  H23  1  0.62766000  0.74789000  0.15667300  1
  C  C0  1  0.85389000  0.37342400  0.16861300  1
  C  C1  1  0.35389000  0.62657600  0.33138700  1
  C  C2  1  0.64611000  0.87342400  0.83138700  1
  C  C3  1  0.14611000  0.12657600  0.66861300  1
  C  C4  1  0.14611000  0.62657600  0.83138700  1
  C  C5  1  0.64611000  0.37342400  0.66861300  1
  C  C6  1  0.35389000  0.12657600  0.16861300  1
  C  C7  1  0.85389000  0.87342400  0.33138700  1
  C  C8  1  0.52393800  0.18371400  0.37766700  1
  C  C9  1  0.02393800  0.81628600  0.12233300  1
  C  C10  1  0.97606200  0.68371400  0.62233300  1
  C  C11  1  0.47606200  0.31628600  0.87766700  1
  C  C12  1  0.47606200  0.81628600  0.62233300  1
  C  C13  1  0.97606200  0.18371400  0.87766700  1
  C  C14  1  0.02393800  0.31628600  0.37766700  1
  C  C15  1  0.52393800  0.68371400  0.12233300  1
  O  O0  1  0.85653200  0.37334600  0.09941500  1
  O  O1  1  0.35653200  0.62665400  0.40058500  1
  O  O2  1  0.64346800  0.87334600  0.90058500  1
  O  O3  1  0.14346800  0.12665400  0.59941500  1
  O  O4  1  0.14346800  0.62665400  0.90058500  1
  O  O5  1  0.64346800  0.37334600  0.59941500  1
  O  O6  1  0.35653200  0.12665400  0.09941500  1
  O  O7  1  0.85653200  0.87334600  0.40058500  1
  O  O8  1  0.97803900  0.44181200  0.20970600  1
  O  O9  1  0.47803900  0.55818800  0.29029400  1
  O  O10  1  0.52196100  0.94181200  0.79029400  1
  O  O11  1  0.02196100  0.05818800  0.70970600  1
  O  O12  1  0.02196100  0.55818800  0.79029400  1
  O  O13  1  0.52196100  0.44181200  0.70970600  1
  O  O14  1  0.47803900  0.05818800  0.20970600  1
  O  O15  1  0.97803900  0.94181200  0.29029400  1
  O  O16  1  0.51593700  0.21712600  0.44592700  1
  O  O17  1  0.01593700  0.78287400  0.05407300  1
  O  O18  1  0.98406300  0.71712600  0.55407300  1
  O  O19  1  0.48406300  0.28287400  0.94592700  1
  O  O20  1  0.48406300  0.78287400  0.55407300  1
  O  O21  1  0.98406300  0.21712600  0.94592700  1
  O  O22  1  0.01593700  0.28287400  0.44592700  1
  O  O23  1  0.51593700  0.71712600  0.05407300  1
  O  O24  1  0.91821300  0.42149300  0.34319400  1
  O  O25  1  0.41821300  0.57850700  0.15680600  1
  O  O26  1  0.58178700  0.92149300  0.65680600  1
  O  O27  1  0.08178700  0.07850700  0.84319400  1
  O  O28  1  0.08178700  0.57850700  0.65680600  1
  O  O29  1  0.58178700  0.42149300  0.84319400  1
  O  O30  1  0.41821300  0.07850700  0.34319400  1
  O  O31  1  0.91821300  0.92149300  0.15680600  1
loop_
_geom_bond_atom_site_label_1
_geom_bond_atom_site_label_2
_geom_bond_distance
_geom_bond_site_symmetry_2
K0 O0 2.828112 1_555
K0 O21 2.850363 1_554
K0 O31 2.861664 1_545
K0 O2 2.892646 1_544
K0 O19 2.916558 1_554
K0 O6 2.978383 1_555
K0 O23 3.063804 1_545
K0 O17 3.137805 1_645
K1 O1 2.828112 1_555
K1 O20 2.850363 1_555
K1 O30 2.861664 1_565
K1 O3 2.892646 1_565
K1 O18 2.916558 1_455
K1 O7 2.978383 1_455
K1 O22 3.063804 1_565
K1 O16 3.137805 1_565
K2 O2 2.828112 1_555
K2 O23 2.850363 1_556
K2 O29 2.861664 1_555
K2 O0 2.892646 1_556
K2 O17 2.916558 1_656
K2 O4 2.978383 1_655
K2 O21 3.063804 1_555
K2 O19 3.137805 1_555
K3 O3 2.828112 1_555
K3 O22 2.850363 1_555
K3 O28 2.861664 1_555
K3 O1 2.892646 1_555
K3 O16 2.916558 1_555
K3 O5 2.978383 1_555
K3 O20 3.063804 1_555
K3 O18 3.137805 1_455
K4 O4 2.828112 1_555
K4 O17 2.850363 1_556
K4 O27 2.861664 1_565
K4 O6 2.892646 1_566
K4 O23 2.916558 1_556
K4 O2 2.978383 1_555
K4 O19 3.063804 1_565
K4 O21 3.137805 1_465
K5 O5 2.828112 1_555
K5 O16 2.850363 1_555
K5 O26 2.861664 1_545
K5 O7 2.892646 1_545
K5 O22 2.916558 1_655
K5 O3 2.978383 1_655
K5 O18 3.063804 1_545
K5 O20 3.137805 1_545
K6 O6 2.828112 1_555
K6 O19 2.850363 1_554
K6 O25 2.861664 1_555
K6 O4 2.892646 1_554
K6 O21 2.916558 1_454
K6 O0 2.978383 1_455
K6 O17 3.063804 1_555
K6 O23 3.137805 1_555
K7 O7 2.828112 1_555
K7 O18 2.850363 1_555
K7 O24 2.861664 1_555
K7 O5 2.892646 1_555
K7 O20 2.916558 1_555
K7 O1 2.978383 1_555
K7 O16 3.063804 1_555
K7 O22 3.137805 1_655
H0 O8 1.142107 1_555
H0 O24 1.302264 1_555
H1 O9 1.142107 1_555
H1 O25 1.302264 1_555
H2 O10 1.142107 1_555
H2 O26 1.302264 1_555
H3 O11 1.142107 1_555
H3 O27 1.302264 1_555
H4 O12 1.142107 1_555
H4 O28 1.302264 1_555
H5 O13 1.142107 1_555
H5 O29 1.302264 1_555
H6 O14 1.142107 1_555
H6 O30 1.302264 1_555
H7 O15 1.142107 1_555
H7 O31 1.302264 1_555
C0 H8 1.110789 1_555
C0 O0 1.242693 1_555
C0 O8 1.302634 1_555
C1 H9 1.110789 1_555
C1 O1 1.242693 1_555
C1 O9 1.302634 1_555
C2 H10 1.110789 1_555
C2 O2 1.242693 1_555
C2 O10 1.302634 1_555
C3 H11 1.110789 1_555
C3 O3 1.242693 1_555
C3 O11 1.302634 1_555
C4 H12 1.110789 1_555
C4 O4 1.242693 1_555
C4 O12 1.302634 1_555
C5 H13 1.110789 1_555
C5 O5 1.242693 1_555
C5 O13 1.302634 1_555
C6 H14 1.110789 1_555
C6 O6 1.242693 1_555
C6 O14 1.302634 1_555
C7 H15 1.110789 1_555
C7 O7 1.242693 1_555
C7 O15 1.302634 1_555
C8 H16 1.111038 1_555
C8 O16 1.253429 1_555
C8 O30 1.290996 1_555
C9 H17 1.111038 1_555
C9 O17 1.253429 1_555
C9 O31 1.290996 1_455
C10 H18 1.111038 1_555
C10 O18 1.253429 1_555
C10 O28 1.290996 1_655
C11 H19 1.111038 1_555
C11 O19 1.253429 1_555
C11 O29 1.290996 1_555
C12 H20 1.111038 1_555
C12 O20 1.253429 1_555
C12 O26 1.290996 1_555
C13 H21 1.111038 1_555
C13 O21 1.253429 1_555
C13 O27 1.290996 1_655
C14 H22 1.111038 1_555
C14 O22 1.253429 1_555
C14 O24 1.290996 1_455
C15 H23 1.111038 1_555
C15 O23 1.253429 1_555
C15 O25 1.290996 1_555
