# generated using pymatgen
data_EuCuSF
_symmetry_space_group_name_H-M   'P 1'
_cell_length_a   3.92046100
_cell_length_b   3.92046100
_cell_length_c   8.63066000
_cell_angle_alpha   90.00000000
_cell_angle_beta   90.00000000
_cell_angle_gamma   90.00000000
_symmetry_Int_Tables_number   1
_chemical_formula_structural   EuCuSF
_chemical_formula_sum   'Eu2 Cu2 S2 F2'
_cell_volume   132.65336893
_cell_formula_units_Z   2
loop_
 _symmetry_equiv_pos_site_id
 _symmetry_equiv_pos_as_xyz
  1  'x, y, z'
loop_
 _atom_site_type_symbol
 _atom_site_label
 _atom_site_symmetry_multiplicity
 _atom_site_fract_x
 _atom_site_fract_y
 _atom_site_fract_z
 _atom_site_occupancy
  Eu  Eu0  1  0.00000000  0.50000000  0.32350100  1
  Eu  Eu1  1  0.50000000  0.00000000  0.67649900  1
  Cu  Cu0  1  0.50000000  0.50000000  0.00000000  1
  Cu  Cu1  1  0.00000000  0.00000000  0.00000000  1
  S  S0  1  0.50000000  0.00000000  0.16504500  1
  S  S1  1  0.00000000  0.50000000  0.83495500  1
  F  F0  1  0.50000000  0.50000000  0.50000000  1
  F  F1  1  0.00000000  0.00000000  0.50000000  1
loop_
_geom_bond_atom_site_label_1
_geom_bond_atom_site_label_2
_geom_bond_distance
_geom_bond_site_symmetry_2
Eu0 F0 2.482530 1_455
Eu0 F0 2.482530 1_555
Eu0 F1 2.482530 1_555
Eu0 F1 2.482530 1_565
Eu0 S0 3.091162 1_455
Eu0 S0 3.091162 1_555
Eu0 S0 3.091162 1_565
Eu0 S0 3.091162 1_465
Eu1 F1 2.482530 1_555
Eu1 F1 2.482530 1_655
Eu1 F0 2.482530 1_545
Eu1 F0 2.482530 1_555
Eu1 S1 3.091162 1_655
Eu1 S1 3.091162 1_545
Eu1 S1 3.091162 1_645
Eu1 S1 3.091162 1_555
Cu0 S0 2.423129 1_565
Cu0 S0 2.423129 1_555
Cu0 S1 2.423129 1_654
Cu0 S1 2.423129 1_554
Cu1 S0 2.423129 1_455
Cu1 S0 2.423129 1_555
Cu1 S1 2.423129 1_544
Cu1 S1 2.423129 1_554
