# generated using pymatgen
data_MgCr4(WO6)2
_symmetry_space_group_name_H-M   'P 1'
_cell_length_a   4.77225500
_cell_length_b   4.77224000
_cell_length_c   9.25078200
_cell_angle_alpha   90.00019515
_cell_angle_beta   90.00014636
_cell_angle_gamma   90.00002401
_symmetry_Int_Tables_number   1
_chemical_formula_structural   MgCr4(WO6)2
_chemical_formula_sum   'Mg1 Cr4 W2 O12'
_cell_volume   210.68051190
_cell_formula_units_Z   1
loop_
 _symmetry_equiv_pos_site_id
 _symmetry_equiv_pos_as_xyz
  1  'x, y, z'
loop_
 _atom_site_type_symbol
 _atom_site_label
 _atom_site_symmetry_multiplicity
 _atom_site_fract_x
 _atom_site_fract_y
 _atom_site_fract_z
 _atom_site_occupancy
  Mg  Mg0  1  0.99998600  0.49999000  0.75000300  1
  Cr  Cr0  1  0.00001400  0.00000500  0.33459500  1
  Cr  Cr1  1  0.49999700  0.50000900  0.16540400  1
  Cr  Cr2  1  0.49999800  0.49999800  0.84151900  1
  Cr  Cr3  1  0.99999800  0.99999800  0.65847900  1
  W  W0  1  0.00000200  0.99999900  0.00873100  1
  W  W1  1  0.49999900  0.49999900  0.49127000  1
  O  O0  1  0.29056900  0.30042300  0.99576200  1
  O  O1  1  0.19958000  0.79057300  0.50423600  1
  O  O2  1  0.80041700  0.20942500  0.50423600  1
  O  O3  1  0.70943700  0.69957800  0.99576100  1
  O  O4  1  0.69425300  0.69769000  0.66773900  1
  O  O5  1  0.30574300  0.30230800  0.66773800  1
  O  O6  1  0.69220700  0.69425800  0.33192800  1
  O  O7  1  0.19425900  0.80779300  0.16807200  1
  O  O8  1  0.80574400  0.19221000  0.16807200  1
  O  O9  1  0.80230000  0.19424700  0.83226400  1
  O  O10  1  0.30779400  0.30574300  0.33192700  1
  O  O11  1  0.19770100  0.80575400  0.83226300  1
loop_
_geom_bond_atom_site_label_1
_geom_bond_atom_site_label_2
_geom_bond_distance
_geom_bond_site_symmetry_2
Mg0 O9 1.896847 1_555
Mg0 O4 1.896854 1_555
Mg0 O5 1.896904 1_655
Mg0 O11 1.896983 1_655
Cr0 O7 2.018353 1_545
Cr0 O8 2.018394 1_455
Cr0 O10 2.070468 1_555
Cr0 O6 2.070589 1_445
Cr0 O1 2.090141 1_545
Cr0 O2 2.090180 1_455
Cr1 O6 2.018361 1_555
Cr1 O10 2.018384 1_555
Cr1 O7 2.070482 1_555
Cr1 O8 2.070563 1_555
Cr1 O0 2.090177 1_554
Cr1 O3 2.090183 1_554
Cr2 O0 1.985440 1_555
Cr2 O3 1.985460 1_555
Cr2 O9 2.053687 1_555
Cr2 O11 2.053687 1_555
Cr2 O5 2.081786 1_555
Cr2 O4 2.081792 1_555
Cr3 O1 1.985441 1_655
Cr3 O2 1.985445 1_565
Cr3 O4 2.053688 1_555
Cr3 O5 2.053694 1_665
Cr3 O11 2.081818 1_655
Cr3 O9 2.081823 1_565
O0 W0 1.998175 1_546
O1 W1 1.998180 1_555
O2 W1 1.998176 1_555
O3 W0 1.998157 1_656
O4 W1 2.101048 1_555
O5 W1 2.101053 1_555
O6 W1 1.968147 1_555
O7 W0 1.968128 1_555
O8 W0 1.968140 1_645
O9 W0 2.101050 1_646
O10 W1 1.968132 1_555
O11 W0 2.101043 1_556
