# generated using pymatgen
data_Hf2Zr9Ta6Ti5Nb5B54
_symmetry_space_group_name_H-M   'P 1'
_cell_length_a   9.35801324
_cell_length_b   9.35549814
_cell_length_c   10.20907105
_cell_angle_alpha   90.00724653
_cell_angle_beta   89.98845561
_cell_angle_gamma   119.98544625
_symmetry_Int_Tables_number   1
_chemical_formula_structural   Hf2Zr9Ta6Ti5Nb5B54
_chemical_formula_sum   'Hf2 Zr9 Ta6 Ti5 Nb5 B54'
_cell_volume   774.16065120
_cell_formula_units_Z   1
loop_
 _symmetry_equiv_pos_site_id
 _symmetry_equiv_pos_as_xyz
  1  'x, y, z'
loop_
 _atom_site_type_symbol
 _atom_site_label
 _atom_site_symmetry_multiplicity
 _atom_site_fract_x
 _atom_site_fract_y
 _atom_site_fract_z
 _atom_site_occupancy
  Hf  Hf0  1  0.66560700  0.88621900  0.00179400  1
  Hf  Hf1  1  0.00059300  0.55505500  0.00188000  1
  Zr  Zr0  1  0.33439100  0.22454900  0.66385800  1
  Zr  Zr1  1  0.00126500  0.22266000  0.66379700  1
  Zr  Zr2  1  0.33298400  0.88813000  0.00236100  1
  Zr  Zr3  1  0.99908200  0.55559200  0.66411300  1
  Zr  Zr4  1  0.33303800  0.88858400  0.66380300  1
  Zr  Zr5  1  0.66655600  0.88673300  0.66406100  1
  Zr  Zr6  1  0.66662700  0.22320500  0.33330500  1
  Zr  Zr7  1  0.00011300  0.88977300  0.00328200  1
  Zr  Zr8  1  0.66617400  0.22365600  0.00238800  1
  Ta  Ta0  1  0.00407300  0.22427800  0.00234200  1
  Ta  Ta1  1  0.66280500  0.55449200  0.00227700  1
  Ta  Ta2  1  0.00237900  0.22317100  0.33398000  1
  Ta  Ta3  1  0.66561000  0.55671800  0.33450000  1
  Ta  Ta4  1  0.99907500  0.88858400  0.33237800  1
  Ta  Ta5  1  0.33507900  0.55493200  0.66010200  1
  Ti  Ti0  1  0.66586300  0.55579300  0.66304100  1
  Ti  Ti1  1  0.66701100  0.22431200  0.66436800  1
  Ti  Ti2  1  0.33207800  0.88728600  0.33400600  1
  Ti  Ti3  1  0.33382800  0.55430900  0.33417900  1
  Ti  Ti4  1  0.33282600  0.22402500  0.33471900  1
  Nb  Nb0  1  0.99823600  0.88746900  0.66400100  1
  Nb  Nb1  1  0.66686100  0.88627200  0.33405700  1
  Nb  Nb2  1  0.00078400  0.55624400  0.33422000  1
  Nb  Nb3  1  0.33386300  0.55190700  0.00567300  1
  Nb  Nb4  1  0.33312800  0.22671200  0.00163300  1
  B  B0  1  0.11391800  0.44546700  0.49379000  1
  B  B1  1  0.11240700  0.77817500  0.17291600  1
  B  B2  1  0.44386200  0.11131900  0.49445800  1
  B  B3  1  0.11286200  0.11114300  0.49296200  1
  B  B4  1  0.77625500  0.77616400  0.16958000  1
  B  B5  1  0.44279500  0.77555500  0.17394900  1
  B  B6  1  0.77980600  0.11093700  0.16856300  1
  B  B7  1  0.77702200  0.44647800  0.16880800  1
  B  B8  1  0.44275700  0.44374300  0.17403800  1
  B  B9  1  0.11367100  0.44457800  0.17218300  1
  B  B10  1  0.44094100  0.11087000  0.17367700  1
  B  B11  1  0.11378200  0.11368600  0.17250800  1
  B  B12  1  0.77686000  0.11128000  0.49797000  1
  B  B13  1  0.88520000  0.66475300  0.83277400  1
  B  B14  1  0.55503600  0.66389000  0.83176500  1
  B  B15  1  0.77486300  0.44472700  0.50078900  1
  B  B16  1  0.88770400  0.66611300  0.16970900  1
  B  B17  1  0.22274300  0.00037200  0.49130500  1
  B  B18  1  0.55415100  0.99996300  0.49619200  1
  B  B19  1  0.88982900  0.99947100  0.49523400  1
  B  B20  1  0.22500100  0.33511300  0.49196200  1
  B  B21  1  0.55542600  0.33478200  0.49854200  1
  B  B22  1  0.88774800  0.33292500  0.49842400  1
  B  B23  1  0.22421100  0.66698400  0.49239200  1
  B  B24  1  0.55403500  0.66348800  0.49651200  1
  B  B25  1  0.88703600  0.66648300  0.49792900  1
  B  B26  1  0.22264800  0.00146300  0.83357000  1
  B  B27  1  0.55712800  0.00195000  0.83177100  1
  B  B28  1  0.88887200  0.00031000  0.83479000  1
  B  B29  1  0.22383200  0.33552100  0.83433100  1
  B  B30  1  0.55736700  0.33592900  0.82979300  1
  B  B31  1  0.88788200  0.33261000  0.83315600  1
  B  B32  1  0.22312500  0.66450500  0.83366100  1
  B  B33  1  0.55291000  0.66402000  0.17199300  1
  B  B34  1  0.22376700  0.66616000  0.17410800  1
  B  B35  1  0.89174900  0.33376400  0.16856900  1
  B  B36  1  0.44659200  0.44647600  0.83141500  1
  B  B37  1  0.11183000  0.77935500  0.49341100  1
  B  B38  1  0.44301300  0.77619600  0.49238400  1
  B  B39  1  0.77721300  0.77508400  0.49831500  1
  B  B40  1  0.11178600  0.11234900  0.83429000  1
  B  B41  1  0.44647300  0.11363500  0.83160100  1
  B  B42  1  0.77812200  0.11227600  0.83345000  1
  B  B43  1  0.11284400  0.44467800  0.83424900  1
  B  B44  1  0.77547200  0.44457200  0.83038200  1
  B  B45  1  0.55201500  0.33406500  0.17132200  1
  B  B46  1  0.10977400  0.77726800  0.83337900  1
  B  B47  1  0.44385300  0.77463100  0.83340600  1
  B  B48  1  0.77603600  0.77440200  0.83226100  1
  B  B49  1  0.22368500  0.00192600  0.17524200  1
  B  B50  1  0.55342900  0.99741800  0.17180800  1
  B  B51  1  0.88991800  0.00135300  0.17010300  1
  B  B52  1  0.22390000  0.33400400  0.17385700  1
  B  B53  1  0.44501900  0.44506300  0.49439000  1
loop_
_geom_bond_atom_site_label_1
_geom_bond_atom_site_label_2
_geom_bond_distance
_geom_bond_site_symmetry_2
B0 B20 1.794312 1_555
B0 B23 1.795077 1_555
B0 B22 1.833822 1_455
B0 Ti3 2.414868 1_555
B0 Ta2 2.430321 1_555
B0 Nb2 2.438573 1_555
B0 Ta5 2.469287 1_555
B0 Zr1 2.504477 1_555
B0 Zr3 2.518998 1_455
B1 B34 1.809962 1_555
B1 B49 1.813280 1_565
B1 B16 1.821624 1_455
B1 Ti2 2.424032 1_555
B1 Ta4 2.436365 1_455
B1 Nb2 2.438481 1_555
B1 Zr2 2.495462 1_555
B1 Zr7 2.508254 1_555
B1 Hf1 2.513491 1_555
B2 B21 1.811264 1_555
B2 Ti4 2.438690 1_555
B2 Zr6 2.442555 1_555
B2 Ti2 2.445153 1_545
B2 Zr0 2.499211 1_555
B2 Zr4 2.499352 1_545
B2 Ti1 2.506309 1_555
B3 Ti4 2.405929 1_555
B3 Ta2 2.426103 1_555
B3 Ta4 2.437328 1_445
B3 Zr0 2.503940 1_555
B3 Zr1 2.511717 1_555
B3 Nb0 2.516955 1_445
B4 B51 1.824810 1_565
B4 Nb1 2.445738 1_555
B4 Ta3 2.448909 1_555
B4 Ta4 2.454628 1_555
B4 Hf0 2.476536 1_555
B4 Ta1 2.478781 1_555
B4 Zr7 2.484741 1_655
B5 B50 1.797954 1_555
B5 Ti3 2.427024 1_555
B5 Ti2 2.432619 1_555
B5 Nb1 2.443625 1_555
B5 Nb3 2.497236 1_555
B5 Zr2 2.513333 1_555
B5 Hf0 2.519842 1_555
B6 Ta2 2.471349 1_655
B6 Zr6 2.482816 1_555
B6 Nb1 2.483763 1_545
B6 Ta0 2.486601 1_655
B6 Hf0 2.492935 1_545
B6 Zr8 2.498591 1_555
B7 Ta3 2.466926 1_555
B7 Zr6 2.468589 1_555
B7 Ta1 2.476854 1_555
B7 Nb2 2.478423 1_655
B7 Zr8 2.479228 1_555
B7 Hf1 2.487569 1_655
B8 Ti3 2.415534 1_555
B8 Ti4 2.420962 1_555
B8 Ta3 2.438763 1_555
B8 Nb3 2.459420 1_555
B8 Nb4 2.488128 1_555
B8 Ta1 2.501017 1_555
B9 Ti3 2.433198 1_555
B9 Ta2 2.438755 1_555
B9 Nb2 2.458836 1_555
B9 Nb3 2.464700 1_555
B9 Ta0 2.488590 1_555
B9 Hf1 2.511034 1_555
B10 B49 1.761034 1_555
B10 B45 1.808778 1_555
B10 B50 1.830800 1_545
B10 Ti4 2.432447 1_555
B10 Ti2 2.441833 1_545
B10 Zr6 2.450112 1_555
B10 Zr2 2.513452 1_545
B10 Nb4 2.524194 1_555
B10 Zr8 2.527810 1_555
B11 B52 1.785353 1_555
B11 B49 1.796286 1_555
B11 B51 1.814696 1_455
B11 Ti4 2.428095 1_555
B11 Ta2 2.433047 1_555
B11 Ta4 2.447784 1_445
B11 Nb4 2.490812 1_555
B11 Ta0 2.491071 1_555
B11 Zr7 2.505396 1_545
B12 B22 1.796059 1_555
B12 B18 1.805254 1_545
B12 B19 1.821504 1_545
B12 Zr6 2.463213 1_555
B12 Nb1 2.474878 1_545
B12 Ta2 2.478575 1_655
B12 Ti1 2.479151 1_555
B12 Zr1 2.485057 1_655
B12 Zr5 2.487271 1_545
B13 B48 1.772962 1_555
B13 B44 1.784358 1_555
B13 B46 1.820290 1_655
B13 Ti0 2.482812 1_555
B13 Nb0 2.495252 1_555
B13 Zr3 2.496045 1_555
B13 Ta1 2.498603 1_556
B13 Hf1 2.511727 1_656
B13 Zr7 2.520971 1_656
B14 B36 1.761772 1_555
B14 B48 1.791316 1_555
B14 B47 1.798237 1_555
B14 Ti0 2.472373 1_555
B14 Ta1 2.475426 1_556
B14 Zr5 2.488423 1_555
B14 Ta5 2.500197 1_555
B14 Hf0 2.501742 1_556
B14 Nb3 2.522927 1_556
B15 B21 1.778792 1_555
B15 B25 1.797237 1_555
B15 B22 1.820712 1_555
B15 Ti0 2.433564 1_555
B15 Ti1 2.445325 1_555
B15 Zr3 2.466621 1_555
B15 Ta3 2.469196 1_555
B15 Zr6 2.479145 1_555
B15 Nb2 2.498840 1_655
B16 B7 1.779811 1_555
B16 B4 1.794739 1_555
B16 Ta4 2.451050 1_555
B16 Ta3 2.463785 1_555
B16 Nb2 2.466870 1_655
B16 Zr7 2.484304 1_655
B16 Hf1 2.495429 1_655
B16 Ta1 2.499170 1_555
B17 B3 1.787934 1_555
B17 B37 1.791100 1_545
B17 B2 1.792571 1_555
B17 Ti2 2.413693 1_545
B17 Ti4 2.416704 1_555
B17 Ta4 2.433138 1_445
B17 Zr4 2.518041 1_545
B17 Zr0 2.530415 1_555
B17 Nb0 2.533545 1_445
B18 B2 1.795995 1_565
B18 B38 1.813674 1_555
B18 Ti2 2.445971 1_555
B18 Zr6 2.457240 1_565
B18 Nb1 2.470600 1_555
B18 Zr4 2.477740 1_555
B18 Ti1 2.500536 1_565
B18 Zr5 2.506129 1_555
B19 B3 1.807932 1_665
B19 B39 1.818551 1_555
B19 Ta4 2.438155 1_555
B19 Nb1 2.444372 1_555
B19 Ta2 2.448730 1_665
B19 Nb0 2.481810 1_555
B19 Zr1 2.496421 1_665
B19 Zr5 2.498986 1_555
B20 B53 1.783525 1_555
B20 B3 1.814924 1_555
B20 Ti4 2.392150 1_555
B20 Ti3 2.397888 1_555
B20 Ta2 2.420394 1_555
B20 Ta5 2.473713 1_555
B20 Zr0 2.501421 1_555
B20 Zr1 2.522940 1_555
B21 B53 1.788656 1_555
B21 Ti0 2.455102 1_555
B21 Ta3 2.457475 1_555
B21 Ti4 2.460405 1_555
B21 Zr0 2.461148 1_555
B21 Zr6 2.470394 1_555
B21 Ti1 2.470708 1_555
B22 Zr6 2.460681 1_555
B22 Ti1 2.463845 1_555
B22 Nb2 2.466838 1_655
B22 Zr3 2.473200 1_555
B22 Ta2 2.474533 1_655
B22 Zr1 2.477808 1_655
B23 B38 1.773493 1_555
B23 B37 1.821102 1_555
B23 Ti2 2.408744 1_555
B23 Ti3 2.419111 1_555
B23 Nb2 2.426563 1_555
B23 Ta5 2.489009 1_555
B23 Zr4 2.507374 1_555
B23 Zr3 2.530276 1_455
B24 B53 1.770093 1_555
B24 B39 1.809058 1_555
B24 B38 1.813306 1_555
B24 Ta3 2.421784 1_555
B24 Ti3 2.435849 1_555
B24 Ta5 2.436815 1_555
B24 Nb1 2.451548 1_555
B24 Ti0 2.460833 1_555
B24 Zr5 2.489645 1_555
B25 B39 1.769816 1_555
B25 B37 1.822642 1_655
B25 Ta3 2.450705 1_555
B25 Ti0 2.460534 1_555
B25 Nb0 2.465979 1_555
B25 Nb2 2.467024 1_655
B25 Ta4 2.468983 1_555
B25 Zr3 2.478419 1_555
B26 B40 1.796748 1_555
B26 B41 1.814316 1_555
B26 B46 1.816735 1_545
B26 Zr7 2.500889 1_546
B26 Zr2 2.501041 1_546
B26 Zr0 2.503994 1_555
B26 Zr4 2.505092 1_545
B26 Nb4 2.505114 1_556
B26 Nb0 2.511327 1_445
B27 B42 1.791345 1_555
B27 B41 1.801537 1_555
B27 B47 1.842109 1_545
B27 Ti1 2.483508 1_555
B27 Zr4 2.498163 1_545
B27 Zr5 2.498837 1_545
B27 Zr8 2.502330 1_556
B27 Hf0 2.513077 1_546
B27 Zr2 2.516556 1_546
B28 B42 1.804639 1_555
B28 B40 1.806837 1_655
B28 B48 1.830779 1_545
B28 Hf0 2.486228 1_546
B28 Zr7 2.487814 1_646
B28 Ta0 2.494103 1_656
B28 Nb0 2.506146 1_545
B28 Zr5 2.507313 1_545
B28 Zr1 2.508801 1_655
B29 B43 1.783769 1_555
B29 B36 1.805818 1_555
B29 B40 1.808434 1_555
B29 Nb4 2.457939 1_556
B29 Ta0 2.472667 1_556
B29 Nb3 2.476801 1_556
B29 Zr0 2.499930 1_555
B29 Zr1 2.507335 1_555
B29 Ta5 2.515024 1_555
B30 B44 1.767858 1_555
B30 B36 1.793356 1_555
B30 B41 1.801408 1_555
B30 Ti1 2.462760 1_555
B30 Ti0 2.464271 1_555
B30 Zr0 2.477333 1_555
B30 Ta1 2.497704 1_556
B30 Zr8 2.512973 1_556
B30 Nb4 2.526042 1_556
B31 B42 1.785435 1_555
B31 B44 1.818223 1_555
B31 B43 1.823461 1_655
B31 Ti1 2.485103 1_555
B31 Zr8 2.492717 1_556
B31 Hf1 2.493238 1_656
B31 Zr3 2.498664 1_555
B31 Zr1 2.502616 1_655
B31 Ta0 2.509080 1_656
B32 B43 1.781336 1_555
B32 B47 1.789106 1_555
B32 B46 1.832116 1_555
B32 Hf1 2.490389 1_556
B32 Zr2 2.500004 1_556
B32 Zr3 2.509127 1_455
B32 Zr4 2.510914 1_555
B32 Nb3 2.521854 1_556
B32 Ta5 2.521963 1_555
B33 B8 1.785091 1_555
B33 B5 1.796057 1_555
B33 B4 1.810485 1_555
B33 Ti3 2.427749 1_555
B33 Ta3 2.435537 1_555
B33 Nb1 2.445716 1_555
B33 Nb3 2.457027 1_555
B33 Ta1 2.482297 1_555
B33 Hf0 2.502306 1_555
B34 B5 1.775325 1_555
B34 B9 1.795659 1_555
B34 Ti2 2.423986 1_555
B34 Ti3 2.429966 1_555
B34 Nb2 2.436758 1_555
B34 Nb3 2.502101 1_555
B34 Zr2 2.511982 1_555
B34 Hf1 2.522863 1_555
B35 B9 1.799166 1_655
B35 B6 1.805640 1_555
B35 B7 1.842890 1_555
B35 Ta2 2.462887 1_655
B35 Ta0 2.471635 1_655
B35 Nb2 2.471907 1_655
B35 Hf1 2.472222 1_655
B35 Zr6 2.481413 1_555
B35 Zr8 2.494579 1_555
B36 Ti0 2.472360 1_555
B36 Ta1 2.472850 1_556
B36 Zr0 2.481966 1_555
B36 Nb4 2.488465 1_556
B36 Ta5 2.497375 1_555
B36 Nb3 2.507891 1_556
B37 Ti2 2.415537 1_555
B37 Nb2 2.430989 1_555
B37 Ta4 2.437062 1_455
B37 Zr4 2.498400 1_555
B37 Nb0 2.501926 1_455
B37 Zr3 2.514964 1_455
B38 Ti3 2.416930 1_555
B38 Ti2 2.419042 1_555
B38 Nb1 2.429820 1_555
B38 Ta5 2.479377 1_555
B38 Zr4 2.511515 1_555
B38 Zr5 2.521117 1_555
B39 Ta3 2.434825 1_555
B39 Ti0 2.446673 1_555
B39 Nb1 2.456708 1_555
B39 Nb0 2.464122 1_555
B39 Ta4 2.470493 1_555
B39 Zr5 2.471159 1_555
B40 Ta0 2.471824 1_556
B40 Nb4 2.477817 1_556
B40 Zr7 2.495928 1_546
B40 Zr1 2.496482 1_555
B40 Zr0 2.506406 1_555
B40 Nb0 2.518523 1_445
B41 Ti1 2.471695 1_555
B41 Zr0 2.489691 1_555
B41 Zr8 2.492434 1_556
B41 Zr4 2.502038 1_545
B41 Nb4 2.525433 1_556
B41 Zr2 2.525566 1_546
B42 Zr8 2.499568 1_556
B42 Ti1 2.499995 1_555
B42 Zr1 2.504047 1_655
B42 Hf0 2.511857 1_546
B42 Ta0 2.515597 1_656
B42 Zr5 2.516083 1_545
B43 Ta0 2.476879 1_556
B43 Hf1 2.486279 1_556
B43 Zr1 2.502933 1_555
B43 Nb3 2.504807 1_556
B43 Zr3 2.516424 1_455
B43 Ta5 2.530739 1_555
B44 Ti1 2.461333 1_555
B44 Ti0 2.474147 1_555
B44 Zr3 2.483029 1_555
B44 Zr8 2.507694 1_556
B44 Ta1 2.516215 1_556
B44 Hf1 2.529109 1_656
B45 B8 1.774161 1_555
B45 B7 1.823963 1_555
B45 Ti4 2.436831 1_555
B45 Ta3 2.455757 1_555
B45 Zr6 2.464504 1_555
B45 Nb4 2.479956 1_555
B45 Ta1 2.483753 1_555
B45 Zr8 2.506884 1_555
B46 Hf1 2.490397 1_556
B46 Zr3 2.492524 1_455
B46 Nb0 2.493857 1_455
B46 Zr7 2.499618 1_556
B46 Zr2 2.500093 1_556
B46 Zr4 2.504191 1_555
B47 Hf0 2.487368 1_556
B47 Zr5 2.499285 1_555
B47 Zr2 2.505819 1_556
B47 Ta5 2.509907 1_555
B47 Zr4 2.513211 1_555
B47 Nb3 2.520042 1_556
B48 Ti0 2.474363 1_555
B48 Zr5 2.485976 1_555
B48 Ta1 2.487835 1_556
B48 Nb0 2.488745 1_555
B48 Hf0 2.497440 1_556
B48 Zr7 2.519749 1_656
B49 Ta4 2.426342 1_445
B49 Ti4 2.426910 1_555
B49 Ti2 2.427921 1_545
B49 Zr7 2.523271 1_545
B49 Zr2 2.526237 1_545
B49 Nb4 2.541686 1_555
B50 B6 1.835188 1_565
B50 Ti2 2.441318 1_555
B50 Nb1 2.460924 1_555
B50 Zr6 2.462856 1_565
B50 Zr2 2.487226 1_555
B50 Hf0 2.507448 1_555
B50 Zr8 2.520450 1_565
B51 B6 1.780182 1_555
B51 Ta4 2.445283 1_545
B51 Ta2 2.455594 1_655
B51 Nb1 2.463864 1_545
B51 Zr7 2.475565 1_645
B51 Ta0 2.489437 1_655
B51 Hf0 2.501980 1_545
B52 B8 1.773942 1_555
B52 B9 1.789162 1_555
B52 Ti4 2.417461 1_555
B52 Ti3 2.421913 1_555
B52 Ta2 2.428016 1_555
B52 Nb3 2.462961 1_555
B52 Nb4 2.483582 1_555
B52 Ta0 2.498368 1_555
B53 Ta3 2.420879 1_555
B53 Ti4 2.421873 1_555
B53 Ti3 2.422107 1_555
B53 Ta5 2.456211 1_555
B53 Ti0 2.483896 1_555
B53 Zr0 2.487258 1_555
