# generated using pymatgen
data_Na2ScSn(PO4)3
_symmetry_space_group_name_H-M   'P 1'
_cell_length_a   8.89733919
_cell_length_b   8.89733890
_cell_length_c   22.83041407
_cell_angle_alpha   90.03292544
_cell_angle_beta   89.96707456
_cell_angle_gamma   120.43571704
_symmetry_Int_Tables_number   1
_chemical_formula_structural   Na2ScSn(PO4)3
_chemical_formula_sum   'Na12 Sc6 Sn6 P18 O72'
_cell_volume   1558.26390132
_cell_formula_units_Z   6
loop_
 _symmetry_equiv_pos_site_id
 _symmetry_equiv_pos_as_xyz
  1  'x, y, z'
loop_
 _atom_site_type_symbol
 _atom_site_label
 _atom_site_symmetry_multiplicity
 _atom_site_fract_x
 _atom_site_fract_y
 _atom_site_fract_z
 _atom_site_occupancy
  Na  Na0  1  0.36553762  0.36217380  0.24951228  1
  Na  Na1  1  0.63782620  0.63446238  0.74951228  1
  Na  Na2  1  0.03220462  0.69550680  0.58284528  1
  Na  Na3  1  0.30449320  0.96779538  0.08284528  1
  Na  Na4  1  0.69887062  0.02884080  0.91617928  1
  Na  Na5  1  0.97115920  0.30112938  0.41617928  1
  Na  Na6  1  0.99999646  0.99966087  0.49854180  1
  Na  Na7  1  0.00033913  0.00000354  0.99854180  1
  Na  Na8  1  0.66666346  0.33299387  0.83187480  1
  Na  Na9  1  0.66700613  0.33333654  0.33187480  1
  Na  Na10  1  0.33332946  0.66632787  0.16520880  1
  Na  Na11  1  0.33367213  0.66667054  0.66520880  1
  Sc  Sc0  1  0.99864318  0.99259497  0.35269695  1
  Sc  Sc1  1  0.00740503  0.00135682  0.85269695  1
  Sc  Sc2  1  0.66531018  0.32592797  0.68602995  1
  Sc  Sc3  1  0.67407203  0.33468982  0.18602995  1
  Sc  Sc4  1  0.33197618  0.65926197  0.01936395  1
  Sc  Sc5  1  0.34073803  0.66802382  0.51936395  1
  Sn  Sn0  1  0.00131719  0.00678320  0.64927972  1
  Sn  Sn1  1  0.99321680  0.99868281  0.14927972  1
  Sn  Sn2  1  0.66798419  0.34011620  0.98261272  1
  Sn  Sn3  1  0.65988380  0.33201581  0.48261272  1
  Sn  Sn4  1  0.33465019  0.67345020  0.31594672  1
  Sn  Sn5  1  0.32654980  0.66534981  0.81594672  1
  P  P0  1  0.29051258  0.99725451  0.24993116  1
  P  P1  1  0.70653054  0.70790728  0.25091026  1
  P  P2  1  0.99912834  0.29203122  0.25205140  1
  P  P3  1  0.29209272  0.29346946  0.75091026  1
  P  P4  1  0.00274549  0.70948742  0.74993116  1
  P  P5  1  0.70796878  0.00087166  0.75205140  1
  P  P6  1  0.95717958  0.33058751  0.58326416  1
  P  P7  1  0.37319754  0.04124028  0.58424326  1
  P  P8  1  0.66579534  0.62536422  0.58538440  1
  P  P9  1  0.95875972  0.62680246  0.08424326  1
  P  P10  1  0.66941249  0.04282042  0.08326416  1
  P  P11  1  0.37463578  0.33420466  0.08538440  1
  P  P12  1  0.62384558  0.66392151  0.91659816  1
  P  P13  1  0.03986354  0.37457428  0.91757726  1
  P  P14  1  0.33246134  0.95869822  0.91871840  1
  P  P15  1  0.62542572  0.96013646  0.41757726  1
  P  P16  1  0.33607849  0.37615442  0.41659816  1
  P  P17  1  0.04130178  0.66753866  0.41871840  1
  O  O0  1  0.20576634  0.03054713  0.30272565  1
  O  O1  1  0.81918585  0.79270695  0.30437980  1
  O  O2  1  0.97486112  0.18413396  0.30695603  1
  O  O3  1  0.20729305  0.18081415  0.80437980  1
  O  O4  1  0.96945287  0.79423366  0.80272565  1
  O  O5  1  0.81586604  0.02513888  0.80695603  1
  O  O6  1  0.78439991  0.95773094  0.69653727  1
  O  O7  1  0.18009483  0.21760451  0.69456355  1
  O  O8  1  0.03492190  0.81822115  0.69236686  1
  O  O9  1  0.78239549  0.81990517  0.19456355  1
  O  O10  1  0.04226906  0.21560009  0.19653727  1
  O  O11  1  0.18177885  0.96507810  0.19236686  1
  O  O12  1  0.87243334  0.36388013  0.63605865  1
  O  O13  1  0.48585285  0.12603995  0.63771280  1
  O  O14  1  0.64152812  0.51746696  0.64028903  1
  O  O15  1  0.87396005  0.51414715  0.13771280  1
  O  O16  1  0.63611987  0.12756666  0.13605865  1
  O  O17  1  0.48253304  0.35847188  0.14028903  1
  O  O18  1  0.45106691  0.29106394  0.02987027  1
  O  O19  1  0.84676183  0.55093751  0.02789655  1
  O  O20  1  0.70158890  0.15155415  0.02569986  1
  O  O21  1  0.44906249  0.15323817  0.52789655  1
  O  O22  1  0.70893606  0.54893309  0.52987027  1
  O  O23  1  0.84844585  0.29841110  0.52569986  1
  O  O24  1  0.53909934  0.69721413  0.96939265  1
  O  O25  1  0.15251885  0.45937395  0.97104680  1
  O  O26  1  0.30819412  0.85080096  0.97362303  1
  O  O27  1  0.54062605  0.84748115  0.47104680  1
  O  O28  1  0.30278587  0.46090066  0.46939265  1
  O  O29  1  0.14919904  0.69180588  0.47362303  1
  O  O30  1  0.11773291  0.62439794  0.36320427  1
  O  O31  1  0.51342783  0.88427151  0.36123055  1
  O  O32  1  0.36825490  0.48488815  0.35903386  1
  O  O33  1  0.11572849  0.48657217  0.86123055  1
  O  O34  1  0.37560206  0.88226709  0.86320427  1
  O  O35  1  0.51511185  0.63174510  0.85903386  1
  O  O36  1  0.02105416  0.82630853  0.41098860  1
  O  O37  1  0.81004804  0.98757921  0.41082452  1
  O  O38  1  0.16933545  0.19648008  0.41011455  1
  O  O39  1  0.01242079  0.18995196  0.91082452  1
  O  O40  1  0.17369147  0.97894584  0.91098860  1
  O  O41  1  0.80351992  0.83066455  0.91011455  1
  O  O42  1  0.97440659  0.16546982  0.58877672  1
  O  O43  1  0.18537319  0.01706306  0.58922670  1
  O  O44  1  0.83935766  0.80821976  0.58961619  1
  O  O45  1  0.98293694  0.81462681  0.08922670  1
  O  O46  1  0.83453018  0.02559341  0.08877672  1
  O  O47  1  0.19178024  0.16064234  0.08961619  1
  O  O48  1  0.68772116  0.15964153  0.74432160  1
  O  O49  1  0.47671504  0.32091221  0.74415752  1
  O  O50  1  0.83600245  0.52981308  0.74344755  1
  O  O51  1  0.67908779  0.52328496  0.24415752  1
  O  O52  1  0.84035847  0.31227884  0.24432160  1
  O  O53  1  0.47018692  0.16399755  0.24344755  1
  O  O54  1  0.64107359  0.49880282  0.92210972  1
  O  O55  1  0.85204019  0.35039606  0.92255970  1
  O  O56  1  0.50602466  0.14155276  0.92294919  1
  O  O57  1  0.64960394  0.14795981  0.42255970  1
  O  O58  1  0.50119718  0.35892641  0.42210972  1
  O  O59  1  0.85844724  0.49397534  0.42294919  1
  O  O60  1  0.35438716  0.49297553  0.07765560  1
  O  O61  1  0.14338104  0.65424621  0.07749152  1
  O  O62  1  0.50266845  0.86314708  0.07678155  1
  O  O63  1  0.34575379  0.85661896  0.57749152  1
  O  O64  1  0.50702447  0.64561284  0.57765560  1
  O  O65  1  0.13685292  0.49733155  0.57678155  1
  O  O66  1  0.30773959  0.83213682  0.25544372  1
  O  O67  1  0.51870619  0.68373006  0.25589370  1
  O  O68  1  0.17269066  0.47488676  0.25628319  1
  O  O69  1  0.31626994  0.48129381  0.75589370  1
  O  O70  1  0.16786318  0.69226041  0.75544372  1
  O  O71  1  0.52511324  0.82730934  0.75628319  1
loop_
_geom_bond_atom_site_label_1
_geom_bond_atom_site_label_2
_geom_bond_distance
_geom_bond_site_symmetry_2
Na0 O53 2.378664 1_555
Na0 O68 2.390918 1_555
Na0 O51 2.408478 1_555
Na0 O67 2.472506 1_555
Na0 O17 2.708213 1_555
Na0 O32 2.723047 1_555
Na0 O10 2.763714 1_555
Na0 O0 2.820523 1_555
Na1 O50 2.378664 1_555
Na1 O71 2.390918 1_555
Na1 O49 2.408478 1_555
Na1 O69 2.472506 1_555
Na1 O14 2.708213 1_555
Na1 O35 2.723047 1_555
Na1 O6 2.763714 1_555
Na1 O4 2.820523 1_555
Na2 O65 2.378647 1_555
Na2 O44 2.390918 1_455
Na2 O63 2.408469 1_555
Na2 O43 2.472506 1_565
Na2 O29 2.708187 1_555
Na2 O8 2.723047 1_555
Na2 O22 2.763714 1_455
Na2 O12 2.820523 1_455
Na3 O62 2.378647 1_555
Na3 O47 2.390918 1_565
Na3 O61 2.408469 1_555
Na3 O45 2.472506 1_455
Na3 O26 2.708187 1_554
Na3 O11 2.723047 1_555
Na3 O18 2.763714 1_565
Na3 O16 2.820523 1_565
Na4 O41 2.378664 1_545
Na4 O56 2.390901 1_555
Na4 O39 2.408478 1_655
Na4 O55 2.472496 1_555
Na4 O5 2.708213 1_555
Na4 O20 2.723020 1_556
Na4 O34 2.763714 1_545
Na4 O24 2.820523 1_545
Na5 O38 2.378664 1_655
Na5 O59 2.390901 1_555
Na5 O37 2.408478 1_545
Na5 O57 2.472497 1_555
Na5 O2 2.708213 1_555
Na5 O23 2.723020 1_555
Na5 O30 2.763714 1_655
Na5 O28 2.820523 1_655
Na6 O37 2.588021 1_555
Na6 O36 2.588112 1_655
Na6 O38 2.596108 1_665
Na6 O43 2.603005 1_665
Na6 O44 2.607986 1_555
Na6 O42 2.609313 1_565
Na7 O39 2.588021 1_555
Na7 O40 2.588112 1_545
Na7 O41 2.596108 1_445
Na7 O45 2.603005 1_446
Na7 O47 2.607986 1_556
Na7 O46 2.609313 1_456
Na8 O49 2.588021 1_555
Na8 O48 2.588112 1_555
Na8 O50 2.596108 1_555
Na8 O55 2.603005 1_555
Na8 O56 2.607986 1_555
Na8 O54 2.609313 1_555
Na9 O51 2.588021 1_555
Na9 O52 2.588112 1_555
Na9 O53 2.596108 1_555
Na9 O57 2.603005 1_555
Na9 O59 2.607986 1_555
Na9 O58 2.609313 1_555
Na10 O61 2.588021 1_555
Na10 O60 2.588112 1_555
Na10 O62 2.596108 1_555
Na10 O67 2.603005 1_555
Na10 O68 2.607986 1_555
Na10 O66 2.609313 1_555
Na11 O63 2.588021 1_555
Na11 O64 2.588112 1_555
Na11 O65 2.596108 1_555
Na11 O69 2.603005 1_555
Na11 O71 2.607986 1_555
Na11 O70 2.609313 1_555
O0 P0 1.527715 1_545
O0 Sc0 2.044320 1_445
O1 P1 1.516005 1_555
O1 Sc0 2.012957 1_555
O2 P2 1.526610 1_555
O2 Sc0 2.099332 1_545
O3 P3 1.516005 1_555
O3 Sc1 2.012957 1_555
O4 P4 1.527715 1_655
O4 Sc1 2.044320 1_665
O5 P5 1.526610 1_555
O5 Sc1 2.099332 1_655
O6 P5 1.574487 1_565
O6 Sn0 2.055270 1_665
O7 P3 1.556433 1_555
O7 Sn0 2.023419 1_555
O8 P4 1.570189 1_555
O8 Sn0 2.093366 1_565
O9 P1 1.556433 1_555
O9 Sn1 2.023419 1_555
O10 P2 1.574487 1_455
O10 Sn1 2.055270 1_445
O11 P0 1.570189 1_555
O11 Sn1 2.093366 1_455
O12 P6 1.527715 1_555
O12 Sc2 2.044320 1_555
O13 P7 1.516005 1_555
O13 Sc2 2.012957 1_555
O14 P8 1.526610 1_555
O14 Sc2 2.099332 1_555
O15 P9 1.516005 1_555
O15 Sc3 2.012957 1_555
O16 P10 1.527715 1_555
O16 Sc3 2.044320 1_555
O17 P11 1.526610 1_555
O17 Sc3 2.099332 1_555
O18 P11 1.574487 1_555
O18 Sn2 2.055270 1_554
O19 P9 1.556433 1_555
O19 Sn2 2.023419 1_554
O20 P10 1.570189 1_555
O20 Sn2 2.093366 1_554
O21 P7 1.556433 1_555
O21 Sn3 2.023419 1_555
O22 P8 1.574487 1_555
O22 Sn3 2.055270 1_555
O23 P6 1.570189 1_555
O23 Sn3 2.093366 1_555
O24 P12 1.527715 1_555
O24 Sc4 2.044320 1_556
O25 P13 1.516005 1_555
O25 Sc4 2.012957 1_556
O26 P14 1.526610 1_555
O26 Sc4 2.099332 1_556
O27 P15 1.516005 1_555
O27 Sc5 2.012957 1_555
O28 P16 1.527715 1_555
O28 Sc5 2.044320 1_555
O29 P17 1.526610 1_555
O29 Sc5 2.099332 1_555
O30 P17 1.574487 1_555
O30 Sn4 2.055270 1_555
O31 P15 1.556433 1_555
O31 Sn4 2.023419 1_555
O32 P16 1.570189 1_555
O32 Sn4 2.093366 1_555
O33 P13 1.556433 1_555
O33 Sn5 2.023419 1_555
O34 P14 1.574487 1_555
O34 Sn5 2.055270 1_555
O35 P12 1.570189 1_555
O35 Sn5 2.093366 1_555
O36 P17 1.522259 1_555
O36 Sc0 2.073944 1_455
O37 P15 1.541128 1_555
O37 Sc0 2.121422 1_555
O38 P16 1.541307 1_555
O38 Sc0 2.126953 1_445
O39 P13 1.541128 1_555
O39 Sc1 2.121422 1_555
O40 P14 1.522259 1_555
O40 Sc1 2.073944 1_565
O41 P12 1.541307 1_555
O41 Sc1 2.126953 1_665
O42 P6 1.557556 1_555
O42 Sn0 2.074581 1_655
O43 P7 1.577187 1_555
O43 Sn0 2.101352 1_555
O44 P8 1.579720 1_555
O44 Sn0 2.115028 1_665
O45 P9 1.577187 1_555
O45 Sn1 2.101352 1_555
O46 P10 1.557556 1_555
O46 Sn1 2.074581 1_545
O47 P11 1.579720 1_555
O47 Sn1 2.115028 1_445
O48 P5 1.522259 1_555
O48 Sc2 2.073944 1_555
O49 P3 1.541128 1_555
O49 Sc2 2.121422 1_555
O50 P4 1.541307 1_655
O50 Sc2 2.126953 1_555
O51 P1 1.541128 1_555
O51 Sc3 2.121422 1_555
O52 P2 1.522259 1_555
O52 Sc3 2.073944 1_555
O53 P0 1.541307 1_545
O53 Sc3 2.126953 1_555
O54 P12 1.557568 1_555
O54 Sn2 2.074581 1_555
O55 P13 1.577173 1_655
O55 Sn2 2.101352 1_555
O56 P14 1.579717 1_545
O56 Sn2 2.115028 1_555
O57 P15 1.577173 1_545
O57 Sn3 2.101352 1_555
O58 P16 1.557568 1_555
O58 Sn3 2.074581 1_555
O59 P17 1.579717 1_655
O59 Sn3 2.115028 1_555
O60 P11 1.522270 1_555
O60 Sc4 2.073944 1_555
O61 P9 1.541114 1_455
O61 Sc4 2.121422 1_555
O62 P10 1.541304 1_565
O62 Sc4 2.126953 1_555
O63 P7 1.541114 1_565
O63 Sc5 2.121422 1_555
O64 P8 1.522270 1_555
O64 Sc5 2.073944 1_555
O65 P6 1.541304 1_455
O65 Sc5 2.126953 1_555
O66 P0 1.557556 1_555
O66 Sn4 2.074581 1_555
O67 P1 1.577187 1_555
O67 Sn4 2.101352 1_555
O68 P2 1.579720 1_455
O68 Sn4 2.115028 1_555
O69 P3 1.577187 1_555
O69 Sn5 2.101352 1_555
O70 P4 1.557556 1_555
O70 Sn5 2.074581 1_555
O71 P5 1.579720 1_565
O71 Sn5 2.115028 1_555
