# generated using pymatgen
data_TbSbRh
_symmetry_space_group_name_H-M   'P 1'
_cell_length_a   4.55490416
_cell_length_b   7.18579450
_cell_length_c   7.79482228
_cell_angle_alpha   90.00000000
_cell_angle_beta   90.00000000
_cell_angle_gamma   90.00000000
_symmetry_Int_Tables_number   1
_chemical_formula_structural   TbSbRh
_chemical_formula_sum   'Tb4 Sb4 Rh4'
_cell_volume   255.12925113
_cell_formula_units_Z   4
loop_
 _symmetry_equiv_pos_site_id
 _symmetry_equiv_pos_as_xyz
  1  'x, y, z'
loop_
 _atom_site_type_symbol
 _atom_site_label
 _atom_site_symmetry_multiplicity
 _atom_site_fract_x
 _atom_site_fract_y
 _atom_site_fract_z
 _atom_site_occupancy
  Tb  Tb0  1  0.25000000  0.51066459  0.79781918  1
  Tb  Tb1  1  0.75000000  0.48933541  0.20218082  1
  Tb  Tb2  1  0.25000000  0.01066459  0.70218082  1
  Tb  Tb3  1  0.75000000  0.98933541  0.29781918  1
  Sb  Sb0  1  0.25000000  0.19382117  0.09088746  1
  Sb  Sb1  1  0.75000000  0.30617883  0.59088746  1
  Sb  Sb2  1  0.25000000  0.69382117  0.40911254  1
  Sb  Sb3  1  0.75000000  0.80617883  0.90911254  1
  Rh  Rh0  1  0.75000000  0.19484348  0.91822450  1
  Rh  Rh1  1  0.25000000  0.30515652  0.41822450  1
  Rh  Rh2  1  0.75000000  0.69484348  0.58177550  1
  Rh  Rh3  1  0.25000000  0.80515652  0.08177550  1
loop_
_geom_bond_atom_site_label_1
_geom_bond_atom_site_label_2
_geom_bond_distance
_geom_bond_site_symmetry_2
Sb0 Tb3 3.153991 1_545
Sb0 Tb3 3.153991 1_445
Sb0 Tb0 3.225251 1_554
Sb0 Tb1 3.232435 1_455
Sb0 Tb1 3.232435 1_555
Sb0 Tb2 3.303404 1_554
Sb1 Tb0 3.153991 1_655
Sb1 Tb0 3.153991 1_555
Sb1 Tb3 3.225251 1_545
Sb1 Tb2 3.232435 1_555
Sb1 Tb2 3.232435 1_655
Sb1 Tb1 3.303404 1_555
Sb2 Tb1 3.153991 1_455
Sb2 Tb1 3.153991 1_555
Sb2 Tb2 3.225251 1_565
Sb2 Tb3 3.232435 1_555
Sb2 Tb3 3.232435 1_455
Sb2 Tb0 3.303404 1_555
Sb3 Tb2 3.153991 1_665
Sb3 Tb2 3.153991 1_565
Sb3 Tb1 3.225251 1_556
Sb3 Tb0 3.232435 1_555
Sb3 Tb0 3.232435 1_655
Sb3 Tb3 3.303404 1_556
Rh0 Sb0 2.645416 1_656
Rh0 Sb0 2.645416 1_556
Rh0 Sb1 2.674019 1_555
Rh0 Sb3 2.793767 1_545
Rh0 Tb1 3.062224 1_556
Rh0 Tb2 3.126387 1_655
Rh0 Tb2 3.126387 1_555
Rh0 Tb3 3.306915 1_546
Rh0 Tb0 3.349318 1_655
Rh0 Tb0 3.349318 1_555
Rh1 Sb1 2.645416 1_555
Rh1 Sb1 2.645416 1_455
Rh1 Sb0 2.674019 1_555
Rh1 Sb2 2.793767 1_555
Rh1 Tb2 3.062224 1_555
Rh1 Tb1 3.126387 1_455
Rh1 Tb1 3.126387 1_555
Rh1 Tb0 3.306915 1_555
Rh1 Tb3 3.349318 1_545
Rh1 Tb3 3.349318 1_445
Rh2 Sb2 2.645416 1_655
Rh2 Sb2 2.645416 1_555
Rh2 Sb3 2.674019 1_555
Rh2 Sb1 2.793767 1_555
Rh2 Tb3 3.062224 1_555
Rh2 Tb0 3.126387 1_655
Rh2 Tb0 3.126387 1_555
Rh2 Tb1 3.306915 1_555
Rh2 Tb2 3.349318 1_665
Rh2 Tb2 3.349318 1_565
Rh3 Sb3 2.645416 1_454
Rh3 Sb3 2.645416 1_554
Rh3 Sb2 2.674019 1_555
Rh3 Sb0 2.793767 1_565
Rh3 Tb0 3.062224 1_554
Rh3 Tb3 3.126387 1_455
Rh3 Tb3 3.126387 1_555
Rh3 Tb2 3.306915 1_564
Rh3 Tb1 3.349318 1_455
Rh3 Tb1 3.349318 1_555
