# generated using pymatgen
data_MgMn2(CoO4)2
_symmetry_space_group_name_H-M   'P 1'
_cell_length_a   5.94566009
_cell_length_b   5.81552734
_cell_length_c   5.78944491
_cell_angle_alpha   87.75104729
_cell_angle_beta   117.66767594
_cell_angle_gamma   60.46217259
_symmetry_Int_Tables_number   1
_chemical_formula_structural   MgMn2(CoO4)2
_chemical_formula_sum   'Mg1 Mn2 Co2 O8'
_cell_volume   144.60781414
_cell_formula_units_Z   1
loop_
 _symmetry_equiv_pos_site_id
 _symmetry_equiv_pos_as_xyz
  1  'x, y, z'
loop_
 _atom_site_type_symbol
 _atom_site_label
 _atom_site_symmetry_multiplicity
 _atom_site_fract_x
 _atom_site_fract_y
 _atom_site_fract_z
 _atom_site_occupancy
  Mg  Mg0  1  0.50000000  0.00000000  0.50000000  1
  Mn  Mn0  1  0.50000000  0.50000000  0.00000000  1
  Mn  Mn1  1  0.00000000  0.50000000  0.50000000  1
  Co  Co0  1  0.50000000  0.00000000  0.00000000  1
  Co  Co1  1  0.00000000  0.50000000  0.00000000  1
  O  O0  1  0.55935000  0.70878500  0.78709600  1
  O  O1  1  0.94914800  0.74187500  0.21060300  1
  O  O2  1  0.02515200  0.27120300  0.26990200  1
  O  O3  1  0.54705900  0.73012100  0.25203100  1
  O  O4  1  0.45294100  0.26987900  0.74796900  1
  O  O5  1  0.97484800  0.72879700  0.73009800  1
  O  O6  1  0.05085200  0.25812500  0.78939700  1
  O  O7  1  0.44065000  0.29121500  0.21290400  1
loop_
_geom_bond_atom_site_label_1
_geom_bond_atom_site_label_2
_geom_bond_distance
_geom_bond_site_symmetry_2
Mg0 O5 2.045696 1_545
Mg0 O2 2.045696 1_555
Mg0 O0 2.097735 1_545
Mg0 O7 2.097735 1_555
Mg0 O4 2.172421 1_555
Mg0 O3 2.172421 1_545
Mn0 O7 1.956276 1_555
Mn0 O0 1.956276 1_554
Mn0 O3 2.035094 1_555
Mn0 O4 2.035094 1_554
Mn0 O2 2.273927 1_655
Mn0 O5 2.273927 1_454
Mn1 O5 1.922320 1_455
Mn1 O2 1.922320 1_555
Mn1 O6 1.949976 1_555
Mn1 O1 1.949976 1_455
Mn1 O3 1.951824 1_455
Mn1 O4 1.951824 1_555
Co0 O4 1.918006 1_554
Co0 O3 1.918006 1_545
Co0 O1 1.936853 1_545
Co0 O6 1.936853 1_554
Co0 O7 2.119081 1_555
Co0 O0 2.119081 1_544
Co1 O0 1.898588 1_454
Co1 O7 1.898588 1_555
Co1 O1 1.901125 1_455
Co1 O6 1.901125 1_554
Co1 O5 1.912610 1_454
Co1 O2 1.912610 1_555
