# generated using pymatgen
data_Na3Hf4SiP5O24
_symmetry_space_group_name_H-M   'P 1'
_cell_length_a   8.91077258
_cell_length_b   8.87834920
_cell_length_c   23.11611780
_cell_angle_alpha   89.99522988
_cell_angle_beta   90.03853768
_cell_angle_gamma   119.86395554
_symmetry_Int_Tables_number   1
_chemical_formula_structural   Na3Hf4SiP5O24
_chemical_formula_sum   'Na9 Hf12 Si3 P15 O72'
_cell_volume   1585.93991348
_cell_formula_units_Z   3
loop_
 _symmetry_equiv_pos_site_id
 _symmetry_equiv_pos_as_xyz
  1  'x, y, z'
loop_
 _atom_site_type_symbol
 _atom_site_label
 _atom_site_symmetry_multiplicity
 _atom_site_fract_x
 _atom_site_fract_y
 _atom_site_fract_z
 _atom_site_occupancy
  Na  Na0  1  0.36686376  0.00079085  0.74941110  1
  Na  Na1  1  0.66423624  0.97039996  0.58529500  1
  Na  Na2  1  0.66962620  0.69553195  0.08240662  1
  Na  Na3  1  0.01365144  0.00088652  0.49975476  1
  Na  Na4  1  0.00966647  0.00552016  0.99918336  1
  Na  Na5  1  0.67641093  0.33932327  0.83401842  1
  Na  Na6  1  0.66665331  0.33329267  0.33329158  1
  Na  Na7  1  0.32028234  0.66544599  0.16728212  1
  Na  Na8  1  0.32828884  0.65532934  0.66655510  1
  Hf  Hf0  1  0.99955466  0.99970660  0.35323914  1
  Hf  Hf1  1  0.99366006  0.00026513  0.85357396  1
  Hf  Hf2  1  0.00245823  0.99882036  0.64732573  1
  Hf  Hf3  1  0.00647223  0.00292924  0.14756155  1
  Hf  Hf4  1  0.66987122  0.33285739  0.68584519  1
  Hf  Hf5  1  0.67198981  0.33498705  0.18713819  1
  Hf  Hf6  1  0.66925718  0.33554436  0.98032013  1
  Hf  Hf7  1  0.66070496  0.33136791  0.47932268  1
  Hf  Hf8  1  0.32434640  0.66663649  0.01937468  1
  Hf  Hf9  1  0.32794529  0.66533628  0.51880081  1
  Hf  Hf10  1  0.33379838  0.66696397  0.31343744  1
  Hf  Hf11  1  0.33754015  0.66488253  0.81439193  1
  Si  Si0  1  0.70778020  0.00003582  0.74894397  1
  Si  Si1  1  0.37201041  0.04168826  0.58329915  1
  Si  Si2  1  0.95914995  0.62438849  0.08387398  1
  P  P0  1  0.29110053  0.00055257  0.25080383  1
  P  P1  1  0.70910848  0.71014695  0.24960732  1
  P  P2  1  0.00031030  0.29045243  0.25066985  1
  P  P3  1  0.28866663  0.29000903  0.75029800  1
  P  P4  1  0.99887120  0.70906561  0.75147474  1
  P  P5  1  0.95747957  0.33498855  0.58263740  1
  P  P6  1  0.66648249  0.62339987  0.58266544  1
  P  P7  1  0.66685321  0.04319672  0.08350106  1
  P  P8  1  0.37788601  0.33241421  0.08298553  1
  P  P9  1  0.62454564  0.66574087  0.91826999  1
  P  P10  1  0.04256874  0.37576859  0.91646711  1
  P  P11  1  0.33326412  0.95937329  0.91554802  1
  P  P12  1  0.62441524  0.95669267  0.41693076  1
  P  P13  1  0.33277489  0.37630781  0.41600724  1
  P  P14  1  0.04222802  0.66613319  0.41581703  1
  O  O0  1  0.20146622  0.02399350  0.30418055  1
  O  O1  1  0.82372072  0.80017937  0.30270370  1
  O  O2  1  0.97680992  0.17785706  0.30428698  1
  O  O3  1  0.20702207  0.17241025  0.80362641  1
  O  O4  1  0.97672377  0.79820733  0.80502431  1
  O  O5  1  0.82893133  0.02621272  0.80494768  1
  O  O6  1  0.79103178  0.97163223  0.69000420  1
  O  O7  1  0.17792394  0.20399036  0.69609814  1
  O  O8  1  0.03459435  0.82623876  0.69753812  1
  O  O9  1  0.79191281  0.81827725  0.19420980  1
  O  O10  1  0.02552096  0.20509972  0.19640164  1
  O  O11  1  0.17884595  0.97433869  0.19651466  1
  O  O12  1  0.87450755  0.36369254  0.63717364  1
  O  O13  1  0.49301002  0.12594621  0.64137931  1
  O  O14  1  0.64165891  0.51397803  0.63707778  1
  O  O15  1  0.86476610  0.50486530  0.14028083  1
  O  O16  1  0.63655695  0.12607138  0.13734369  1
  O  O17  1  0.49260586  0.36307104  0.13672130  1
  O  O18  1  0.46063516  0.30320165  0.02876498  1
  O  O19  1  0.83246796  0.53567211  0.02792678  1
  O  O20  1  0.69149922  0.15425734  0.02947235  1
  O  O21  1  0.47135154  0.16246278  0.52754428  1
  O  O22  1  0.69469256  0.53857600  0.52896457  1
  O  O23  1  0.84158222  0.30480365  0.52946047  1
  O  O24  1  0.54270898  0.69083200  0.97344697  1
  O  O25  1  0.15468720  0.46361800  0.97039390  1
  O  O26  1  0.31007469  0.84437664  0.96885598  1
  O  O27  1  0.54170060  0.84867511  0.47231418  1
  O  O28  1  0.30774273  0.46162524  0.47028781  1
  O  O29  1  0.15450198  0.69247810  0.47010137  1
  O  O30  1  0.13200527  0.64278310  0.36247436  1
  O  O31  1  0.50958615  0.86651006  0.36393441  1
  O  O32  1  0.35651694  0.48884256  0.36236854  1
  O  O33  1  0.12848593  0.48706782  0.86256067  1
  O  O34  1  0.35633785  0.87346097  0.86043680  1
  O  O35  1  0.51094071  0.64322650  0.86470385  1
  O  O36  1  0.02472334  0.83010181  0.40934940  1
  O  O37  1  0.80504393  0.97446017  0.40949578  1
  O  O38  1  0.17128521  0.19432078  0.40920612  1
  O  O39  1  0.02694894  0.19490015  0.91123907  1
  O  O40  1  0.17044538  0.97680143  0.91030341  1
  O  O41  1  0.80608291  0.82733892  0.91099842  1
  O  O42  1  0.96741228  0.16655223  0.58957465  1
  O  O43  1  0.18089729  0.01943539  0.58840428  1
  O  O44  1  0.82453371  0.80923643  0.58885958  1
  O  O45  1  0.96878855  0.81331834  0.09046909  1
  O  O46  1  0.82750427  0.02061355  0.09087226  1
  O  O47  1  0.19546727  0.17520506  0.09038492  1
  O  O48  1  0.67982023  0.16962397  0.74535721  1
  O  O49  1  0.46955590  0.30724746  0.74302461  1
  O  O50  1  0.83750101  0.53035435  0.74404725  1
  O  O51  1  0.68802003  0.52693604  0.24406770  1
  O  O52  1  0.83591782  0.30686407  0.24503155  1
  O  O53  1  0.47135266  0.16222932  0.24397658  1
  O  O54  1  0.64019926  0.50016881  0.92212341  1
  O  O55  1  0.86057856  0.35514705  0.92315977  1
  O  O56  1  0.49671413  0.13891676  0.92249909  1
  O  O57  1  0.64519948  0.13968601  0.42249676  1
  O  O58  1  0.49704495  0.35953808  0.42153998  1
  O  O59  1  0.86208107  0.50443283  0.42263841  1
  O  O60  1  0.36883104  0.50160496  0.07551627  1
  O  O61  1  0.15065695  0.64653313  0.07770336  1
  O  O62  1  0.51091851  0.85659733  0.07584368  1
  O  O63  1  0.36545235  0.85394596  0.57633213  1
  O  O64  1  0.50613645  0.64678417  0.57546716  1
  O  O65  1  0.13927169  0.49312054  0.57606824  1
  O  O66  1  0.30872521  0.83666096  0.25726742  1
  O  O67  1  0.52834333  0.69222498  0.25710890  1
  O  O68  1  0.16198806  0.47233606  0.25741627  1
  O  O69  1  0.30630626  0.47003180  0.75720740  1
  O  O70  1  0.16425135  0.69436931  0.75816421  1
  O  O71  1  0.51073399  0.83332348  0.75659676  1
loop_
_geom_bond_atom_site_label_1
_geom_bond_atom_site_label_2
_geom_bond_distance
_geom_bond_site_symmetry_2
Na0 O71 2.404104 1_545
Na0 O49 2.404719 1_555
Na0 O70 2.410528 1_545
Na0 O48 2.422772 1_555
Na0 O13 2.737523 1_555
Na0 O34 2.787088 1_545
Na0 O8 2.834029 1_545
Na0 O3 2.843406 1_555
Na1 O63 2.336276 1_555
Na1 O42 2.378068 1_565
Na1 O44 2.475812 1_555
Na1 O64 2.502013 1_555
Na1 O6 2.668214 1_555
Na1 O27 2.828868 1_555
Na1 O13 2.831469 1_565
Na1 O23 2.882265 1_565
Na2 O45 2.336184 1_555
Na2 O60 2.361678 1_555
Na2 O62 2.466079 1_555
Na2 O46 2.510698 1_565
Na2 O24 2.752073 1_554
Na2 O19 2.785615 1_555
Na2 O9 2.805080 1_555
Na2 O17 2.853476 1_555
Na3 O43 2.489773 1_555
Na3 O36 2.612660 1_545
Na3 O38 2.627659 1_555
Na3 O44 2.669487 1_445
Na3 O42 2.692450 1_455
Na3 O37 2.724727 1_445
Na4 O40 2.589709 1_545
Na4 O39 2.593367 1_555
Na4 O45 2.622755 1_446
Na4 O47 2.639543 1_556
Na4 O41 2.662051 1_445
Na4 O46 2.714092 1_456
Na5 O48 2.552951 1_555
Na5 O55 2.593230 1_555
Na5 O54 2.598387 1_555
Na5 O50 2.615612 1_555
Na5 O56 2.660760 1_555
Na5 O49 2.715722 1_555
Na6 O52 2.617090 1_555
Na6 O58 2.618173 1_555
Na6 O57 2.629837 1_555
Na6 O51 2.630573 1_555
Na6 O53 2.638436 1_555
Na6 O59 2.639602 1_555
Na7 O61 2.518680 1_555
Na7 O66 2.608621 1_555
Na7 O68 2.620160 1_555
Na7 O67 2.713179 1_555
Na7 O62 2.714174 1_555
Na7 O60 2.726050 1_555
Na8 O69 2.610582 1_555
Na8 O65 2.620344 1_555
Na8 O71 2.628696 1_555
Na8 O63 2.643428 1_555
Na8 O64 2.659891 1_555
Na8 O70 2.692578 1_555
Hf0 O2 2.035170 1_565
Hf0 O0 2.045966 1_665
Hf0 O1 2.047294 1_555
Hf0 O36 2.082237 1_655
Hf0 O37 2.088439 1_555
Hf0 O38 2.089365 1_665
Hf1 O5 1.950814 1_555
Hf1 O4 2.056938 1_545
Hf1 O39 2.083350 1_655
Hf1 O41 2.088062 1_545
Hf1 O3 2.095825 1_655
Hf1 O40 2.137431 1_645
Hf2 O43 2.032212 1_565
Hf2 O6 2.032361 1_455
Hf2 O7 2.048282 1_565
Hf2 O8 2.052618 1_555
Hf2 O44 2.124435 1_455
Hf2 O42 2.135323 1_465
Hf3 O11 2.022401 1_545
Hf3 O45 2.031077 1_445
Hf3 O10 2.054729 1_555
Hf3 O47 2.088039 1_555
Hf3 O9 2.094463 1_445
Hf3 O46 2.128758 1_455
Hf4 O13 2.007446 1_555
Hf4 O48 2.031781 1_555
Hf4 O12 2.042397 1_555
Hf4 O14 2.078887 1_555
Hf4 O50 2.122543 1_555
Hf4 O49 2.140982 1_555
Hf5 O15 1.954705 1_555
Hf5 O16 2.069213 1_555
Hf5 O52 2.085081 1_555
Hf5 O17 2.090414 1_555
Hf5 O51 2.100997 1_555
Hf5 O53 2.132396 1_555
Hf6 O19 1.976846 1_556
Hf6 O20 2.058619 1_556
Hf6 O18 2.064822 1_556
Hf6 O54 2.095037 1_555
Hf6 O55 2.095260 1_555
Hf6 O56 2.126634 1_555
Hf7 O21 1.954658 1_555
Hf7 O22 2.058625 1_555
Hf7 O58 2.081823 1_555
Hf7 O23 2.091087 1_555
Hf7 O57 2.099231 1_555
Hf7 O59 2.134197 1_555
Hf8 O61 1.993218 1_555
Hf8 O26 2.017295 1_554
Hf8 O25 2.025015 1_554
Hf8 O62 2.125408 1_555
Hf8 O24 2.132094 1_554
Hf8 O60 2.136722 1_555
Hf9 O29 2.020517 1_555
Hf9 O63 2.031464 1_555
Hf9 O28 2.058381 1_555
Hf9 O27 2.084968 1_555
Hf9 O65 2.087928 1_555
Hf9 O64 2.126448 1_555
Hf10 O32 2.034572 1_555
Hf10 O30 2.045128 1_555
Hf10 O31 2.046731 1_555
Hf10 O66 2.083336 1_555
Hf10 O67 2.089673 1_555
Hf10 O68 2.090425 1_555
Hf11 O35 2.017527 1_555
Hf11 O71 2.026593 1_555
Hf11 O33 2.067853 1_555
Hf11 O34 2.069159 1_555
Hf11 O69 2.082778 1_555
Hf11 O70 2.131224 1_555
O0 P0 1.539668 1_555
O1 P1 1.540751 1_555
O2 P2 1.539806 1_655
O3 P3 1.543885 1_555
O4 P4 1.534158 1_555
O5 Si0 1.625948 1_555
O6 Si0 1.630315 1_565
O7 P3 1.541016 1_555
O8 P4 1.551971 1_455
O9 P1 1.549698 1_555
O10 P2 1.538987 1_555
O11 P0 1.547949 1_565
O12 P5 1.545899 1_555
O13 Si1 1.649132 1_555
O14 P6 1.536536 1_555
O15 Si2 1.626662 1_555
O16 P7 1.536815 1_555
O17 P8 1.543790 1_555
O18 P8 1.540665 1_555
O19 Si2 1.637064 1_555
O20 P7 1.537803 1_555
O21 Si1 1.628033 1_555
O22 P6 1.536363 1_555
O23 P5 1.540170 1_555
O24 P9 1.539909 1_555
O25 P10 1.543659 1_555
O26 P11 1.547135 1_555
O27 P12 1.548912 1_555
O28 P13 1.538421 1_555
O29 P14 1.547758 1_555
O30 P14 1.539467 1_555
O31 P12 1.539945 1_555
O32 P13 1.539495 1_555
O33 P10 1.537215 1_555
O34 P11 1.550400 1_555
O35 P9 1.547515 1_555
O36 P14 1.546616 1_555
O37 P12 1.546790 1_555
O38 P13 1.546064 1_555
O39 P10 1.545975 1_555
O40 P11 1.538476 1_555
O41 P9 1.546755 1_555
O42 P5 1.549721 1_555
O43 Si1 1.618101 1_555
O44 P6 1.553019 1_555
O45 Si2 1.643408 1_555
O46 P7 1.550486 1_555
O47 P8 1.536391 1_555
O48 Si0 1.646057 1_555
O49 P3 1.550638 1_555
O50 P4 1.530429 1_555
O51 P1 1.546987 1_555
O52 P2 1.548015 1_655
O53 P0 1.539290 1_555
O54 P9 1.546762 1_555
O55 P10 1.546586 1_655
O56 P11 1.541334 1_545
O57 P12 1.546215 1_545
O58 P13 1.548529 1_555
O59 P14 1.538820 1_655
O60 P8 1.553503 1_555
O61 Si2 1.623963 1_455
O62 P7 1.553671 1_565
O63 Si1 1.646433 1_565
O64 P6 1.551572 1_555
O65 P5 1.534152 1_455
O66 P0 1.546538 1_565
O67 P1 1.547596 1_555
O68 P2 1.546092 1_555
O69 P3 1.534475 1_555
O70 P4 1.550421 1_455
O71 Si0 1.648405 1_565
