# generated using pymatgen
data_Cs2MgTi2Cu2(OF5)2
_symmetry_space_group_name_H-M   'P 1'
_cell_length_a   7.53051819
_cell_length_b   7.66798419
_cell_length_c   7.52541165
_cell_angle_alpha   63.42832812
_cell_angle_beta   59.47632351
_cell_angle_gamma   63.42586341
_symmetry_Int_Tables_number   1
_chemical_formula_structural   Cs2MgTi2Cu2(OF5)2
_chemical_formula_sum   'Cs2 Mg1 Ti2 Cu2 O2 F10'
_cell_volume   320.82757163
_cell_formula_units_Z   1
loop_
 _symmetry_equiv_pos_site_id
 _symmetry_equiv_pos_as_xyz
  1  'x, y, z'
loop_
 _atom_site_type_symbol
 _atom_site_label
 _atom_site_symmetry_multiplicity
 _atom_site_fract_x
 _atom_site_fract_y
 _atom_site_fract_z
 _atom_site_occupancy
  Cs  Cs0  1  0.42502539  0.31009983  0.42567179  1
  Cs  Cs1  1  0.60125530  0.64648165  0.60170850  1
  Mg  Mg0  1  0.10987507  0.35295818  0.10997240  1
  Ti  Ti0  1  0.50878935  0.98429304  0.02284452  1
  Ti  Ti1  1  0.02246390  0.98460071  0.50916524  1
  Cu  Cu0  1  0.02632227  0.92685853  0.02695281  1
  Cu  Cu1  1  0.84908555  0.68078919  0.84949222  1
  O  O0  1  0.25633718  0.07181221  0.25685753  1
  O  O1  1  0.74922846  0.95963106  0.74971513  1
  F  F0  1  0.10213496  0.03194713  0.68745209  1
  F  F1  1  0.11518749  0.59444098  0.11526145  1
  F  F2  1  0.19509941  0.70958684  0.56471541  1
  F  F3  1  0.68644551  0.03122712  0.10358506  1
  F  F4  1  0.40755134  0.28494216  0.87363920  1
  F  F5  1  0.56373685  0.70924288  0.19564370  1
  F  F6  1  0.87328421  0.28516091  0.40768400  1
  F  F7  1  0.34348257  0.93446067  0.92927249  1
  F  F8  1  0.92912225  0.93440673  0.34384140  1
  F  F9  1  0.94985892  0.39741719  0.94973906  1
loop_
_geom_bond_atom_site_label_1
_geom_bond_atom_site_label_2
_geom_bond_distance
_geom_bond_site_symmetry_2
Cs0 F5 3.120719 1_555
Cs0 F2 3.123800 1_555
Cs0 F3 3.216636 1_555
Cs0 F0 3.218338 1_555
Cs0 F4 3.226362 1_555
Cs0 F6 3.229730 1_555
Cs0 F1 3.476043 1_555
Cs1 F2 3.014412 1_555
Cs1 F5 3.014806 1_555
Cs1 F6 3.083407 1_555
Cs1 F4 3.084081 1_555
Cs1 F7 3.300735 1_555
Cs1 F8 3.303554 1_555
Mg0 O0 2.016185 1_555
Cu0 F8 2.130372 1_455
Cu0 F7 2.133299 1_554
Cu0 F0 2.142623 1_564
Cu0 F3 2.145868 1_465
Cu0 F1 2.190169 1_555
Cu1 O1 1.843817 1_555
Cu1 F9 1.872474 1_555
Cu1 F2 2.418704 1_655
Cu1 F5 2.419462 1_556
O0 Ti1 1.917064 1_545
O0 Ti0 1.918555 1_545
O1 Ti0 1.949332 1_556
O1 Ti1 1.950947 1_655
F0 Ti1 1.933961 1_545
F1 Mg0 1.888321 1_555
F2 Ti1 1.903260 1_555
F3 Ti0 1.934078 1_545
F4 Ti0 2.034192 1_546
F4 Mg0 2.047969 1_556
F5 Ti0 1.903302 1_555
F6 Ti1 2.034016 1_645
F6 Mg0 2.048419 1_655
F7 Ti0 1.936036 1_556
F8 Ti1 1.936195 1_655
F9 Mg0 1.939823 1_656
