# generated using pymatgen
data_NaLa2Y2PS5O24
_symmetry_space_group_name_H-M   'P 1'
_cell_length_a   9.39251150
_cell_length_b   9.39470106
_cell_length_c   24.59084419
_cell_angle_alpha   89.99806864
_cell_angle_beta   90.01057063
_cell_angle_gamma   119.87113919
_symmetry_Int_Tables_number   1
_chemical_formula_structural   NaLa2Y2PS5O24
_chemical_formula_sum   'Na3 La6 Y6 P3 S15 O72'
_cell_volume   1881.61698542
_cell_formula_units_Z   3
loop_
 _symmetry_equiv_pos_site_id
 _symmetry_equiv_pos_as_xyz
  1  'x, y, z'
loop_
 _atom_site_type_symbol
 _atom_site_label
 _atom_site_symmetry_multiplicity
 _atom_site_fract_x
 _atom_site_fract_y
 _atom_site_fract_z
 _atom_site_occupancy
  Na  Na0  1  0.99916599  0.99328088  0.99742575  1
  Na  Na1  1  0.65996862  0.33225044  0.83729799  1
  Na  Na2  1  0.67195423  0.33237350  0.33132376  1
  La  La0  1  0.99964866  0.99279037  0.85304535  1
  La  La1  1  0.00155861  0.00739451  0.15173406  1
  La  La2  1  0.67396419  0.33380464  0.18645581  1
  La  La3  1  0.65993614  0.33355255  0.97944491  1
  La  La4  1  0.33874212  0.67327037  0.01770832  1
  La  La5  1  0.34129522  0.67323164  0.81411223  1
  Y  Y0  1  0.99818175  0.00633510  0.35388784  1
  Y  Y1  1  0.00053058  0.00042233  0.64574499  1
  Y  Y2  1  0.66599048  0.33326585  0.68343762  1
  Y  Y3  1  0.66722927  0.33343459  0.48244425  1
  Y  Y4  1  0.33314457  0.66705809  0.52041512  1
  Y  Y5  1  0.32720283  0.66023649  0.31181119  1
  P  P0  1  0.00157784  0.29396053  0.25396100  1
  P  P1  1  0.63011386  0.66710592  0.91624560  1
  P  P2  1  0.33356086  0.96332263  0.91622080  1
  S  S0  1  0.29173788  0.99713878  0.25391902  1
  S  S1  1  0.70517191  0.70844252  0.25386063  1
  S  S2  1  0.29545828  0.28976435  0.74713940  1
  S  S3  1  0.99378489  0.70261130  0.74664715  1
  S  S4  1  0.71160747  0.00750406  0.74692549  1
  S  S5  1  0.95753256  0.33362674  0.58314119  1
  S  S6  1  0.37620149  0.04278119  0.58305899  1
  S  S7  1  0.66664922  0.62409091  0.58308725  1
  S  S8  1  0.96219999  0.63140050  0.08294691  1
  S  S9  1  0.66934652  0.03900610  0.08292927  1
  S  S10  1  0.36935685  0.33160943  0.08375257  1
  S  S11  1  0.03719456  0.37037629  0.91618668  1
  S  S12  1  0.62160498  0.95703692  0.41655551  1
  S  S13  1  0.33561146  0.37756567  0.41669984  1
  S  S14  1  0.04215687  0.66565016  0.41657784  1
  O  O0  1  0.20601342  0.01945796  0.30116803  1
  O  O1  1  0.81404607  0.79249413  0.30107764  1
  O  O2  1  0.97797638  0.17957463  0.30286744  1
  O  O3  1  0.22545791  0.19193317  0.79686779  1
  O  O4  1  0.96500916  0.77202706  0.79649245  1
  O  O5  1  0.80839833  0.03457955  0.79682419  1
  O  O6  1  0.79814815  0.98801221  0.69898926  1
  O  O7  1  0.19013221  0.20277140  0.69906540  1
  O  O8  1  0.01303018  0.80933546  0.69897051  1
  O  O9  1  0.77616481  0.80130902  0.20319228  1
  O  O10  1  0.02521782  0.21908001  0.20124704  1
  O  O11  1  0.19777334  0.97300680  0.20329422  1
  O  O12  1  0.87936329  0.36093502  0.63155246  1
  O  O13  1  0.48139357  0.12050393  0.63152313  1
  O  O14  1  0.63934064  0.51871602  0.63151823  1
  O  O15  1  0.88123664  0.53220357  0.13242257  1
  O  O16  1  0.65078720  0.11917308  0.13243127  1
  O  O17  1  0.46867749  0.34923140  0.13286522  1
  O  O18  1  0.44673721  0.30783639  0.03501145  1
  O  O19  1  0.86061535  0.55243796  0.03454942  1
  O  O20  1  0.69212996  0.13985575  0.03448510  1
  O  O21  1  0.45554830  0.14872181  0.53441007  1
  O  O22  1  0.69316858  0.54439976  0.53442379  1
  O  O23  1  0.85147352  0.30699457  0.53444316  1
  O  O24  1  0.54800132  0.68579969  0.96787459  1
  O  O25  1  0.13395442  0.44746819  0.96578170  1
  O  O26  1  0.31156091  0.86089114  0.96770107  1
  O  O27  1  0.54271074  0.85572726  0.46594573  1
  O  O28  1  0.31249541  0.45661143  0.46591307  1
  O  O29  1  0.14395235  0.68749927  0.46586399  1
  O  O30  1  0.11906263  0.63787782  0.36818822  1
  O  O31  1  0.51859869  0.88086196  0.36805517  1
  O  O32  1  0.36300871  0.48133561  0.36821790  1
  O  O33  1  0.11588318  0.46832824  0.86699733  1
  O  O34  1  0.35146732  0.87925055  0.86478202  1
  O  O35  1  0.52652014  0.64582019  0.86494528  1
  O  O36  1  0.02322925  0.81074598  0.40827272  1
  O  O37  1  0.78613182  0.97517818  0.40899908  1
  O  O38  1  0.19051587  0.21323822  0.40871366  1
  O  O39  1  0.01990894  0.20497243  0.91207143  1
  O  O40  1  0.17963787  0.98356987  0.91258851  1
  O  O41  1  0.80193986  0.82301352  0.91242573  1
  O  O42  1  0.97521592  0.18768323  0.59213018  1
  O  O43  1  0.21267436  0.02519230  0.59209208  1
  O  O44  1  0.81227899  0.78728788  0.59216862  1
  O  O45  1  0.97867582  0.79684395  0.08851890  1
  O  O46  1  0.81767487  0.02094255  0.08789680  1
  O  O47  1  0.20407442  0.18174077  0.08817024  1
  O  O48  1  0.69229823  0.15585605  0.73886395  1
  O  O49  1  0.46301402  0.30801886  0.73904105  1
  O  O50  1  0.84455740  0.53607880  0.73863904  1
  O  O51  1  0.68706912  0.54203409  0.24919823  1
  O  O52  1  0.84565771  0.31166208  0.24929679  1
  O  O53  1  0.45671968  0.14647466  0.24904321  1
  O  O54  1  0.65031789  0.51344886  0.91930529  1
  O  O55  1  0.87195585  0.35323975  0.92015740  1
  O  O56  1  0.48936452  0.13488284  0.91956890  1
  O  O57  1  0.64154450  0.12539712  0.42464909  1
  O  O58  1  0.48440596  0.35842832  0.42468453  1
  O  O59  1  0.87471311  0.51631216  0.42459172  1
  O  O60  1  0.35219245  0.47745523  0.07820770  1
  O  O61  1  0.12419625  0.64553835  0.07804027  1
  O  O62  1  0.52242476  0.87647566  0.07878676  1
  O  O63  1  0.35883532  0.87887086  0.57350075  1
  O  O64  1  0.52007981  0.64152556  0.57345501  1
  O  O65  1  0.12116764  0.47980863  0.57349138  1
  O  O66  1  0.31122716  0.85202232  0.26229947  1
  O  O67  1  0.54189087  0.69180805  0.26231643  1
  O  O68  1  0.15357798  0.46408447  0.26317971  1
  O  O69  1  0.31140416  0.45196487  0.75229335  1
  O  O70  1  0.13928691  0.68573950  0.75231434  1
  O  O71  1  0.54903864  0.86137269  0.75159116  1
loop_
_geom_bond_atom_site_label_1
_geom_bond_atom_site_label_2
_geom_bond_distance
_geom_bond_site_symmetry_2
Na0 O40 2.718328 1_655
Na0 O41 2.721489 1_555
Na0 O39 2.830660 1_665
Na0 O45 2.847234 1_556
Na0 O46 2.892344 1_566
Na0 O47 2.902203 1_666
Na1 O54 2.669617 1_555
Na1 O56 2.672096 1_555
Na1 O55 2.786129 1_555
Na1 O49 2.981774 1_555
Na1 O48 3.033053 1_555
Na1 O50 3.041869 1_555
Na2 O52 2.661934 1_555
Na2 O51 2.774831 1_555
Na2 O53 2.777186 1_555
Na2 O57 2.928497 1_555
Na2 O59 2.931523 1_555
Na2 O58 2.977381 1_555
La0 O40 2.270318 1_655
La0 O41 2.274893 1_555
La0 O4 2.381014 1_555
La0 O39 2.395600 1_665
La0 O3 2.440348 1_665
La0 O5 2.448225 1_565
La1 O10 2.246490 1_555
La1 O47 2.375221 1_555
La1 O46 2.383579 1_455
La1 O11 2.387592 1_545
La1 O9 2.397820 1_445
La1 O45 2.439678 1_445
La2 O52 2.316261 1_555
La2 O15 2.327223 1_555
La2 O16 2.332601 1_555
La2 O17 2.398521 1_555
La2 O51 2.445990 1_555
La2 O53 2.460384 1_555
La3 O54 2.281112 1_555
La3 O56 2.288894 1_555
La3 O18 2.335482 1_556
La3 O19 2.399159 1_556
La3 O55 2.399917 1_555
La3 O20 2.404691 1_556
La4 O26 2.265454 1_554
La4 O24 2.269160 1_554
La4 O62 2.365450 1_555
La4 O25 2.401083 1_554
La4 O61 2.409944 1_555
La4 O60 2.417595 1_555
La5 O35 2.258536 1_555
La5 O34 2.263560 1_555
La5 O33 2.412578 1_555
La5 O71 2.420891 1_555
La5 O69 2.475808 1_555
La5 O70 2.478747 1_555
O0 S0 1.486873 1_545
O0 Y0 2.295138 1_455
O1 S1 1.487514 1_555
O1 Y0 2.291723 1_565
O2 P0 1.553397 1_655
O2 Y0 2.136921 1_555
O3 S2 1.473329 1_555
O4 S3 1.475302 1_555
O5 S4 1.471768 1_555
O6 S4 1.494128 1_565
O6 Y1 2.263053 1_665
O7 S2 1.496138 1_555
O7 Y1 2.265294 1_555
O8 S3 1.493979 1_455
O8 Y1 2.271427 1_565
O9 S1 1.476146 1_555
O10 P0 1.542818 1_555
O11 S0 1.476622 1_555
O12 S5 1.486633 1_555
O12 Y2 2.279020 1_555
O13 S6 1.486834 1_555
O13 Y2 2.275630 1_555
O14 S7 1.487046 1_555
O14 Y2 2.272067 1_555
O15 S8 1.490418 1_555
O16 S9 1.486721 1_555
O17 S10 1.483916 1_555
O18 S10 1.475381 1_555
O19 S8 1.473669 1_555
O20 S9 1.469923 1_555
O21 S6 1.496186 1_555
O21 Y3 2.271865 1_555
O22 S7 1.496835 1_555
O22 Y3 2.267248 1_555
O23 S5 1.496768 1_555
O23 Y3 2.262475 1_555
O24 P1 1.540403 1_555
O25 S11 1.477119 1_555
O26 P2 1.540552 1_555
O27 S12 1.492590 1_555
O27 Y4 2.309931 1_555
O28 S13 1.491290 1_555
O28 Y4 2.315356 1_555
O29 S14 1.493085 1_555
O29 Y4 2.309352 1_555
O30 S14 1.481175 1_555
O30 Y5 2.319464 1_555
O31 S12 1.476679 1_555
O31 Y5 2.393419 1_555
O32 S13 1.479236 1_555
O32 Y5 2.329086 1_555
O33 S11 1.476143 1_555
O34 P2 1.544221 1_555
O35 P1 1.543990 1_555
O36 S14 1.474042 1_555
O36 Y0 2.377107 1_465
O37 S12 1.479645 1_555
O37 Y0 2.304210 1_565
O38 S13 1.477623 1_555
O38 Y0 2.315374 1_455
O39 S11 1.483229 1_555
O40 P2 1.551824 1_555
O41 P1 1.550546 1_555
O42 S5 1.477551 1_555
O42 Y1 2.303517 1_655
O43 S6 1.477512 1_555
O43 Y1 2.303100 1_555
O44 S7 1.477307 1_555
O44 Y1 2.311747 1_665
O45 S8 1.489618 1_555
O46 S9 1.489999 1_555
O47 S10 1.492313 1_555
O48 S4 1.505459 1_555
O48 Y2 2.259791 1_555
O49 S2 1.509003 1_555
O49 Y2 2.260744 1_555
O50 S3 1.505540 1_555
O50 Y2 2.258803 1_555
O51 S1 1.490424 1_555
O52 P0 1.558220 1_655
O53 S0 1.489441 1_545
O54 P1 1.548678 1_555
O55 S11 1.481669 1_655
O56 P2 1.548088 1_545
O57 S12 1.510424 1_545
O57 Y3 2.329887 1_555
O58 S13 1.508051 1_555
O58 Y3 2.328507 1_555
O59 S14 1.510908 1_655
O59 Y3 2.332217 1_555
O60 S10 1.463552 1_555
O61 S8 1.464951 1_455
O62 S9 1.465349 1_565
O63 S6 1.484225 1_565
O63 Y4 2.289953 1_555
O64 S7 1.484115 1_555
O64 Y4 2.293509 1_555
O65 S5 1.483967 1_455
O65 Y4 2.296561 1_555
O66 S0 1.477563 1_555
O66 Y5 2.240619 1_555
O67 S1 1.476831 1_555
O67 Y5 2.245124 1_555
O68 P0 1.539830 1_555
O68 Y5 2.119296 1_555
O69 S2 1.460551 1_555
O70 S3 1.458740 1_455
O71 S4 1.463348 1_565
