# generated using pymatgen
data_Ba2YMgRuO6
_symmetry_space_group_name_H-M   'P 1'
_cell_length_a   6.29318843
_cell_length_b   6.29318891
_cell_length_c   6.10949500
_cell_angle_alpha   60.96097262
_cell_angle_beta   60.96097023
_cell_angle_gamma   56.11676786
_symmetry_Int_Tables_number   1
_chemical_formula_structural   Ba2YMgRuO6
_chemical_formula_sum   'Ba2 Y1 Mg1 Ru1 O6'
_cell_volume   167.75304091
_cell_formula_units_Z   1
loop_
 _symmetry_equiv_pos_site_id
 _symmetry_equiv_pos_as_xyz
  1  'x, y, z'
loop_
 _atom_site_type_symbol
 _atom_site_label
 _atom_site_symmetry_multiplicity
 _atom_site_fract_x
 _atom_site_fract_y
 _atom_site_fract_z
 _atom_site_occupancy
  Ba  Ba0  1  0.81012300  0.81012300  0.68987700  1
  Ba  Ba1  1  0.18987700  0.18987700  0.31012300  1
  Y  Y0  1  0.00000000  0.00000000  0.00000000  1
  Mg  Mg0  1  0.50000000  0.50000000  0.00000000  1
  Ru  Ru0  1  0.50000000  0.50000000  0.50000000  1
  O  O0  1  0.27094800  0.72905200  0.75652000  1
  O  O1  1  0.27094800  0.72905200  0.24348000  1
  O  O2  1  0.72905200  0.27094800  0.75652000  1
  O  O3  1  0.26472800  0.26472800  0.73527200  1
  O  O4  1  0.72905200  0.27094800  0.24348000  1
  O  O5  1  0.73527200  0.73527200  0.26472800  1
loop_
_geom_bond_atom_site_label_1
_geom_bond_atom_site_label_2
_geom_bond_distance
_geom_bond_site_symmetry_2
Ba0 O0 2.851544 1_655
Ba0 O1 2.851544 1_655
Ba0 O2 2.851544 1_565
Ba0 O4 2.851544 1_565
Ba0 Mg0 2.876655 1_556
Ba0 O3 2.989933 1_565
Ba0 O3 2.989933 1_655
Ba0 O5 3.132658 1_555
Ba0 O5 3.132658 1_556
Ba1 O4 2.851544 1_455
Ba1 O2 2.851544 1_455
Ba1 O1 2.851544 1_545
Ba1 O0 2.851544 1_545
Ba1 Mg0 2.876655 1_555
Ba1 O5 2.989933 1_545
Ba1 O5 2.989933 1_455
Ba1 O3 3.132658 1_555
Ba1 O3 3.132658 1_554
Mg0 O1 2.012870 1_555
Mg0 O4 2.012870 1_555
Mg0 O2 2.012870 1_554
Mg0 O0 2.012870 1_554
O0 Ru0 2.072440 1_555
O0 Y0 2.187661 1_566
O1 Ru0 2.072440 1_555
O1 Y0 2.187661 1_565
O2 Ru0 2.072440 1_555
O2 Y0 2.187661 1_656
O3 Ru0 2.182348 1_555
O3 Y0 2.455577 1_556
O4 Ru0 2.072440 1_555
O4 Y0 2.187661 1_655
O5 Ru0 2.182348 1_555
O5 Y0 2.455577 1_665
