# generated using pymatgen
data_MgMnCo3O8
_symmetry_space_group_name_H-M   'P 1'
_cell_length_a   2.99042408
_cell_length_b   2.99343669
_cell_length_c   20.04814257
_cell_angle_alpha   89.85357116
_cell_angle_beta   95.35474240
_cell_angle_gamma   58.73465245
_symmetry_Int_Tables_number   1
_chemical_formula_structural   MgMnCo3O8
_chemical_formula_sum   'Mg1 Mn1 Co3 O8'
_cell_volume   152.45701401
_cell_formula_units_Z   1
loop_
 _symmetry_equiv_pos_site_id
 _symmetry_equiv_pos_as_xyz
  1  'x, y, z'
loop_
 _atom_site_type_symbol
 _atom_site_label
 _atom_site_symmetry_multiplicity
 _atom_site_fract_x
 _atom_site_fract_y
 _atom_site_fract_z
 _atom_site_occupancy
  Mg  Mg0  1  0.50732191  0.21999920  0.62123583  1
  Mn  Mn0  1  0.99858032  0.00113590  0.00237772  1
  Co  Co0  1  0.50287238  0.49618781  0.25097111  1
  Co  Co1  1  0.10086162  0.99195893  0.49287119  1
  Co  Co2  1  0.39704661  0.67007973  0.76438869  1
  O  O0  1  0.13150825  0.18394492  0.20652809  1
  O  O1  1  0.70714620  0.64695531  0.04963049  1
  O  O2  1  0.22362671  0.86453084  0.67556913  1
  O  O3  1  0.40500715  0.35145984  0.45145697  1
  O  O4  1  0.87414249  0.80851630  0.29529041  1
  O  O5  1  0.77878069  0.58011838  0.55855861  1
  O  O6  1  0.28961045  0.35576055  0.95491119  1
  O  O7  1  0.75016222  0.99601931  0.80287756  1
loop_
_geom_bond_atom_site_label_1
_geom_bond_atom_site_label_2
_geom_bond_distance
_geom_bond_site_symmetry_2
Mg0 O2 2.024806 1_645
Mg0 O2 2.028032 1_555
Mg0 O2 2.035216 1_545
Mg0 O5 2.119389 1_555
Mg0 O5 2.120267 1_545
Mg0 O5 2.128806 1_455
Mn0 O1 1.949260 1_645
Mn0 O1 1.951642 1_555
Mn0 O6 1.951794 1_554
Mn0 O6 1.952933 1_644
Mn0 O1 1.972079 1_545
Mn0 O6 1.974405 1_654
Co0 O4 1.920940 1_455
Co0 O4 1.921919 1_545
Co0 O0 1.922107 1_655
Co0 O0 1.923117 1_565
Co0 O4 1.947775 1_555
Co0 O0 1.948799 1_555
Co1 O3 1.877792 1_465
Co1 O3 1.879254 1_555
Co1 O3 1.956281 1_565
Co1 O5 2.061575 1_465
Co1 O5 2.064723 1_555
Co1 O5 2.375444 1_455
Co2 O2 1.813158 1_555
Co2 O7 1.846652 1_545
Co2 O7 1.893049 1_555
Co2 O7 1.900737 1_455
