# generated using pymatgen
data_MgNi2(SbO3)4
_symmetry_space_group_name_H-M   'P 1'
_cell_length_a   5.33121495
_cell_length_b   5.33121145
_cell_length_c   9.49422343
_cell_angle_alpha   85.70191885
_cell_angle_beta   94.29797846
_cell_angle_gamma   103.17787882
_symmetry_Int_Tables_number   1
_chemical_formula_structural   MgNi2(SbO3)4
_chemical_formula_sum   'Mg1 Ni2 Sb4 O12'
_cell_volume   261.53295700
_cell_formula_units_Z   1
loop_
 _symmetry_equiv_pos_site_id
 _symmetry_equiv_pos_as_xyz
  1  'x, y, z'
loop_
 _atom_site_type_symbol
 _atom_site_label
 _atom_site_symmetry_multiplicity
 _atom_site_fract_x
 _atom_site_fract_y
 _atom_site_fract_z
 _atom_site_occupancy
  Mg  Mg0  1  0.29268297  0.70731870  0.35350256  1
  Ni  Ni0  1  -0.01105184  0.01105156  0.00564507  1
  Ni  Ni1  1  0.58124137  0.41875755  0.51376821  1
  Sb  Sb0  1  0.44907905  0.55092172  0.81451572  1
  Sb  Sb1  1  0.95232905  0.04766971  0.34048423  1
  Sb  Sb2  1  0.56252947  0.43746752  0.14286487  1
  Sb  Sb3  1  0.01140006  0.98860093  0.67305410  1
  O  O0  1  0.70686160  0.67170548  0.66802153  1
  O  O1  1  0.32829480  0.29313895  0.66802230  1
  O  O2  1  0.66371076  0.73551288  0.35721739  1
  O  O3  1  0.11866957  0.88133369  0.20342655  1
  O  O4  1  0.80559125  0.19440821  0.15753253  1
  O  O5  1  0.86810096  0.13189874  0.81719110  1
  O  O6  1  0.32689414  0.29009028  0.97370000  1
  O  O7  1  0.13783490  0.86216748  0.50317462  1
  O  O8  1  0.81992685  0.18007196  0.50927033  1
  O  O9  1  0.70990916  0.67310527  0.97370036  1
  O  O10  1  0.26448357  0.33629118  0.35721795  1
  O  O11  1  0.21706932  0.78293217  0.81054759  1
loop_
_geom_bond_atom_site_label_1
_geom_bond_atom_site_label_2
_geom_bond_distance
_geom_bond_site_symmetry_2
Mg0 O3 1.935882 1_555
Mg0 O10 1.947096 1_555
Mg0 O2 1.947103 1_555
Mg0 O7 2.011143 1_555
Ni0 O5 1.968543 1_454
Ni0 O3 2.076380 1_545
Ni0 O6 2.084039 1_554
Ni0 O9 2.084041 1_444
Ni0 O4 2.202007 1_455
Ni1 O8 1.998705 1_555
Ni1 O1 2.036921 1_555
Ni1 O0 2.036923 1_555
Ni1 O2 2.153452 1_555
Ni1 O10 2.153460 1_555
O0 Sb0 1.996635 1_555
O0 Sb3 2.059678 1_655
O1 Sb0 1.996633 1_555
O1 Sb3 2.059674 1_545
O2 Sb1 1.997938 1_565
O2 Sb2 2.624261 1_555
O3 Sb1 1.992616 1_465
O4 Sb2 2.022159 1_555
O4 Sb1 2.027995 1_555
O5 Sb3 1.902490 1_645
O6 Sb0 2.015345 1_555
O6 Sb2 2.052230 1_556
O7 Sb3 2.010747 1_555
O7 Sb1 2.080852 1_465
O8 Sb1 2.032422 1_555
O8 Sb3 2.121617 1_645
O9 Sb0 2.015345 1_555
O9 Sb2 2.052234 1_556
O10 Sb1 1.997941 1_455
O10 Sb2 2.624264 1_555
O11 Sb0 1.935157 1_555
O11 Sb3 2.056115 1_555
