# generated using pymatgen
data_Na3Ca2Ti2P3(SO8)3
_symmetry_space_group_name_H-M   'P 1'
_cell_length_a   8.93428594
_cell_length_b   8.88378902
_cell_length_c   23.20847349
_cell_angle_alpha   90.11516472
_cell_angle_beta   89.82320221
_cell_angle_gamma   119.93855407
_symmetry_Int_Tables_number   1
_chemical_formula_structural   Na3Ca2Ti2P3(SO8)3
_chemical_formula_sum   'Na9 Ca6 Ti6 P9 S9 O72'
_cell_volume   1596.25301172
_cell_formula_units_Z   3
loop_
 _symmetry_equiv_pos_site_id
 _symmetry_equiv_pos_as_xyz
  1  'x, y, z'
loop_
 _atom_site_type_symbol
 _atom_site_label
 _atom_site_symmetry_multiplicity
 _atom_site_fract_x
 _atom_site_fract_y
 _atom_site_fract_z
 _atom_site_occupancy
  Na  Na0  1  0.66622320  0.69244231  0.08503354  1
  Na  Na1  1  0.33100307  0.29642957  0.91588310  1
  Na  Na2  1  0.33034948  0.03445226  0.41554051  1
  Na  Na3  1  0.98933339  0.00083014  0.50219186  1
  Na  Na4  1  0.00285638  0.99693104  0.00182637  1
  Na  Na5  1  0.68125411  0.33555311  0.83081785  1
  Na  Na6  1  0.67985691  0.34429930  0.33014632  1
  Na  Na7  1  0.31795771  0.66059045  0.16564536  1
  Na  Na8  1  0.33437151  0.67155156  0.66466855  1
  Ca  Ca0  1  0.99374636  0.00007542  0.34370966  1
  Ca  Ca1  1  0.99191105  0.99263563  0.84303943  1
  Ca  Ca2  1  0.67521490  0.33653935  0.98389573  1
  Ca  Ca3  1  0.67077476  0.33780382  0.48366943  1
  Ca  Ca4  1  0.31967036  0.66517551  0.02472206  1
  Ca  Ca5  1  0.33323243  0.66751650  0.52541543  1
  Ti  Ti0  1  0.00923554  -0.00001081  0.65594396  1
  Ti  Ti1  1  0.01723402  0.00774669  0.15595345  1
  Ti  Ti2  1  0.65686178  0.32304181  0.68564603  1
  Ti  Ti3  1  0.66764047  0.34151211  0.18558055  1
  Ti  Ti4  1  0.33258215  0.66182467  0.30549122  1
  Ti  Ti5  1  0.33238102  0.67128406  0.80513381  1
  P  P0  1  0.30666985  0.00388672  0.25089133  1
  P  P1  1  0.70064211  0.70065606  0.24763373  1
  P  P2  1  0.99481584  0.29847163  0.24829732  1
  P  P3  1  0.30225890  0.30045915  0.75030655  1
  P  P4  1  0.99403088  0.69365934  0.74802327  1
  P  P5  1  0.70273166  0.00170381  0.74782938  1
  P  P6  1  0.36359364  0.04363140  0.58742528  1
  P  P7  1  0.95659565  0.63671685  0.09039098  1
  P  P8  1  0.36809924  0.32079499  0.08714749  1
  S  S0  1  0.95386246  0.31823332  0.59004371  1
  S  S1  1  0.68164414  0.63622365  0.59020595  1
  S  S2  1  0.68164393  0.04462702  0.08936987  1
  S  S3  1  0.61836671  0.66783449  0.91426722  1
  S  S4  1  0.04774283  0.38169204  0.91114573  1
  S  S5  1  0.33402623  0.95532711  0.91185015  1
  S  S6  1  0.61802240  0.95075858  0.41297557  1
  S  S7  1  0.33398662  0.38004976  0.41269091  1
  S  S8  1  0.04852020  0.66527889  0.41211268  1
  O  O0  1  0.24848260  0.04350787  0.30716417  1
  O  O1  1  0.80265256  0.75876014  0.30229898  1
  O  O2  1  0.95343219  0.19946474  0.30368880  1
  O  O3  1  0.24820588  0.20432982  0.80690892  1
  O  O4  1  0.95194672  0.75197394  0.80325954  1
  O  O5  1  0.80076117  0.04759199  0.80344033  1
  O  O6  1  0.79762059  0.96818432  0.69767485  1
  O  O7  1  0.17078846  0.19898773  0.70077144  1
  O  O8  1  0.02951790  0.82649883  0.69775582  1
  O  O9  1  0.78793463  0.82168441  0.19522347  1
  O  O10  1  0.02916938  0.20111711  0.19800259  1
  O  O11  1  0.17321602  0.97292406  0.20094516  1
  O  O12  1  0.85402597  0.33626623  0.63834137  1
  O  O13  1  0.49320916  0.16221004  0.63576463  1
  O  O14  1  0.66681535  0.51995099  0.63848811  1
  O  O15  1  0.84530176  0.51124832  0.13983284  1
  O  O16  1  0.66225087  0.13913540  0.13835647  1
  O  O17  1  0.49616212  0.33410745  0.13517370  1
  O  O18  1  0.42232002  0.28783545  0.02791565  1
  O  O19  1  0.85388012  0.57587971  0.03421066  1
  O  O20  1  0.70442680  0.13497782  0.03437038  1
  O  O21  1  0.42160108  0.13257271  0.52883174  1
  O  O22  1  0.70840344  0.57209189  0.53498619  1
  O  O23  1  0.86404972  0.29365700  0.53493252  1
  O  O24  1  0.54023992  0.67653159  0.96940647  1
  O  O25  1  0.14223453  0.45995280  0.96466364  1
  O  O26  1  0.32304103  0.86397736  0.96507926  1
  O  O27  1  0.53675041  0.85967002  0.46658966  1
  O  O28  1  0.32261721  0.46078432  0.46595267  1
  O  O29  1  0.14348922  0.68122759  0.46543012  1
  O  O30  1  0.14705893  0.65781386  0.36008611  1
  O  O31  1  0.51017001  0.85286190  0.36119840  1
  O  O32  1  0.33950274  0.48383583  0.36038197  1
  O  O33  1  0.14707002  0.48869307  0.85948777  1
  O  O34  1  0.33854088  0.85532754  0.85964367  1
  O  O35  1  0.50840632  0.65894740  0.86350764  1
  O  O36  1  0.03551576  0.82587232  0.40907135  1
  O  O37  1  0.79290835  0.97542902  0.41034422  1
  O  O38  1  0.18212812  0.20127105  0.41027680  1
  O  O39  1  0.03501697  0.20833701  0.90811703  1
  O  O40  1  0.18184537  0.98113807  0.90955927  1
  O  O41  1  0.79326524  0.81871606  0.91111802  1
  O  O42  1  0.97137296  0.16029778  0.59901440  1
  O  O43  1  0.18310576  0.02829947  0.60202178  1
  O  O44  1  0.83790362  0.81252437  0.59912657  1
  O  O45  1  0.97130413  0.81840748  0.10240376  1
  O  O46  1  0.83680347  0.02205694  0.09654897  1
  O  O47  1  0.18511602  0.16164173  0.10135785  1
  O  O48  1  0.66711575  0.15284468  0.73255824  1
  O  O49  1  0.48506774  0.33118423  0.73400035  1
  O  O50  1  0.84513434  0.51123533  0.73194912  1
  O  O51  1  0.66421522  0.51166923  0.23466937  1
  O  O52  1  0.84487317  0.33077879  0.23269135  1
  O  O53  1  0.48669093  0.15436556  0.23401917  1
  O  O54  1  0.62304841  0.50115748  0.91213671  1
  O  O55  1  0.87602552  0.36679816  0.91088095  1
  O  O56  1  0.49313881  0.13008954  0.91011164  1
  O  O57  1  0.62324337  0.12250003  0.41217488  1
  O  O58  1  0.49305237  0.36414284  0.41115996  1
  O  O59  1  0.87625459  0.50809307  0.41174911  1
  O  O60  1  0.36527250  0.49235338  0.08986675  1
  O  O61  1  0.13307324  0.65233040  0.09151414  1
  O  O62  1  0.52747072  0.86702531  0.08815804  1
  O  O63  1  0.34827196  0.86578825  0.59185743  1
  O  O64  1  0.52449380  0.65070266  0.59018471  1
  O  O65  1  0.12657917  0.47455863  0.59012948  1
  O  O66  1  0.31668721  0.83211610  0.25592543  1
  O  O67  1  0.51499517  0.68157114  0.25678370  1
  O  O68  1  0.16568984  0.48224029  0.25537352  1
  O  O69  1  0.31742857  0.48456006  0.75595931  1
  O  O70  1  0.16596751  0.68331264  0.75527140  1
  O  O71  1  0.51701768  0.83374731  0.75625517  1
loop_
_geom_bond_atom_site_label_1
_geom_bond_atom_site_label_2
_geom_bond_distance
_geom_bond_site_symmetry_2
Na0 O60 2.372800 1_555
Na0 O45 2.409271 1_555
Na0 O62 2.421889 1_555
Na0 O46 2.552167 1_565
Na0 O19 2.643913 1_555
Na0 O9 2.792825 1_555
Na0 O24 2.889035 1_554
Na1 O54 2.320770 1_555
Na1 O39 2.361065 1_555
Na1 O40 2.432441 1_545
Na1 O56 2.536650 1_555
Na1 O3 2.648060 1_555
Na1 O18 2.740082 1_556
Na2 O57 2.328411 1_555
Na2 O36 2.350344 1_545
Na2 O38 2.434222 1_555
Na2 O58 2.540177 1_555
Na2 O0 2.634166 1_555
Na2 O21 2.762694 1_555
Na3 O42 2.700755 1_555
Na3 O37 2.701932 1_545
Na3 O44 2.725317 1_545
Na3 O38 2.760333 1_655
Na3 O36 2.806757 1_645
Na3 O43 2.832929 1_655
Na4 O40 2.713676 1_554
Na4 O46 2.718831 1_465
Na4 O41 2.738007 1_454
Na4 O45 2.758267 1_455
Na4 O47 2.785677 1_565
Na4 O39 2.795295 1_564
Na5 O55 2.468522 1_555
Na5 O56 2.544684 1_555
Na5 O54 2.596750 1_555
Na5 O50 2.749096 1_555
Na5 O48 2.762838 1_555
Na5 O49 2.842316 1_555
Na6 O59 2.498784 1_555
Na6 O58 2.573840 1_555
Na6 O57 2.603272 1_555
Na6 O51 2.713484 1_555
Na6 O52 2.731068 1_555
Na6 O53 2.811533 1_555
Na7 O61 2.364304 1_555
Na7 O60 2.474063 1_555
Na7 O68 2.557742 1_555
Na7 O62 2.582099 1_555
Na7 O66 2.591620 1_555
Na7 O67 2.702146 1_555
Na8 O63 2.375930 1_555
Na8 O64 2.490470 1_555
Na8 O65 2.503321 1_555
Na8 O70 2.613948 1_555
Na8 O71 2.630460 1_555
Na8 O69 2.651909 1_555
Ca0 O2 2.185303 1_555
Ca0 O1 2.186990 1_545
Ca0 O0 2.271743 1_655
Ca0 O37 2.291576 1_545
Ca0 O38 2.327330 1_655
Ca0 O36 2.329117 1_645
Ca1 O4 2.187002 1_555
Ca1 O5 2.200736 1_565
Ca1 O3 2.275823 1_665
Ca1 O41 2.299756 1_555
Ca1 O39 2.314480 1_665
Ca1 O40 2.337348 1_655
Ca2 O19 2.246408 1_556
Ca2 O20 2.263520 1_556
Ca2 O18 2.312518 1_556
Ca2 O55 2.379975 1_555
Ca2 O54 2.413391 1_555
Ca2 O56 2.443146 1_555
Ca3 O22 2.271041 1_555
Ca3 O23 2.289445 1_555
Ca3 O21 2.306657 1_555
Ca3 O59 2.379932 1_555
Ca3 O57 2.402679 1_555
Ca3 O58 2.407650 1_555
Ca4 O25 2.213238 1_554
Ca4 O61 2.233854 1_555
Ca4 O26 2.234415 1_554
Ca4 O24 2.308279 1_554
Ca4 O60 2.333784 1_555
Ca4 O62 2.348005 1_555
Ca5 O27 2.231597 1_555
Ca5 O29 2.246795 1_555
Ca5 O28 2.259035 1_555
Ca5 O63 2.291842 1_555
Ca5 O65 2.331788 1_555
Ca5 O64 2.339524 1_555
O0 P0 1.508778 1_555
O1 P1 1.497198 1_555
O2 P2 1.496656 1_555
O3 P3 1.509025 1_555
O4 P4 1.497305 1_555
O5 P5 1.499168 1_555
O6 P5 1.551384 1_565
O6 Ti0 2.012193 1_665
O7 P3 1.568834 1_555
O7 Ti0 1.935448 1_555
O8 P4 1.576076 1_455
O8 Ti0 1.906781 1_565
O9 P1 1.551204 1_555
O9 Ti1 2.091481 1_665
O10 P2 1.569525 1_455
O10 Ti1 1.930247 1_555
O11 P0 1.587719 1_565
O11 Ti1 1.889104 1_565
O12 S0 1.487769 1_555
O12 Ti2 2.025857 1_555
O13 P6 1.579553 1_555
O13 Ti2 1.854201 1_555
O14 S1 1.485701 1_555
O14 Ti2 2.029195 1_555
O15 P7 1.561934 1_555
O15 Ti3 1.878169 1_555
O16 S2 1.472289 1_555
O16 Ti3 2.083715 1_555
O17 P8 1.561317 1_555
O17 Ti3 1.905311 1_555
O18 P8 1.531665 1_555
O19 P7 1.530948 1_555
O20 S2 1.467810 1_555
O21 P6 1.527540 1_555
O22 S1 1.468092 1_555
O23 S0 1.468959 1_555
O24 S3 1.476052 1_555
O25 S4 1.468318 1_555
O26 S5 1.455379 1_555
O27 S6 1.463670 1_555
O28 S7 1.456406 1_555
O29 S8 1.468664 1_555
O30 S8 1.512879 1_555
O30 Ti4 2.069385 1_555
O31 S6 1.515041 1_555
O31 Ti4 2.094111 1_555
O32 S7 1.511666 1_555
O32 Ti4 2.057458 1_555
O33 S4 1.511455 1_555
O33 Ti5 2.068416 1_555
O34 S5 1.513284 1_555
O34 Ti5 2.044265 1_555
O35 S3 1.512790 1_555
O35 Ti5 2.122840 1_555
O36 S8 1.489899 1_555
O37 S6 1.466550 1_555
O38 S7 1.488513 1_555
O39 S4 1.488107 1_555
O40 S5 1.488512 1_555
O41 S3 1.467240 1_555
O42 S0 1.502293 1_555
O42 Ti0 2.092727 1_655
O43 P6 1.584662 1_555
O43 Ti0 1.908341 1_555
O44 S1 1.504295 1_555
O44 Ti0 2.077161 1_665
O45 P7 1.577030 1_555
O45 Ti1 1.961643 1_665
O46 S2 1.506194 1_555
O46 Ti1 2.175895 1_655
O47 P8 1.572220 1_555
O47 Ti1 1.916451 1_555
O48 P5 1.568052 1_555
O48 Ti2 1.904052 1_555
O49 P3 1.561058 1_555
O49 Ti2 1.928803 1_555
O50 P4 1.544015 1_555
O50 Ti2 1.994067 1_555
O51 P1 1.571116 1_555
O51 Ti3 1.903412 1_555
O52 P2 1.547693 1_555
O52 Ti3 1.968163 1_555
O53 P0 1.542520 1_555
O53 Ti3 1.988718 1_555
O54 S3 1.502747 1_555
O55 S4 1.472639 1_655
O56 S5 1.493261 1_545
O57 S6 1.503130 1_545
O58 S7 1.496993 1_555
O59 S8 1.474319 1_655
O60 P8 1.538015 1_555
O61 P7 1.512564 1_455
O62 S2 1.489396 1_565
O63 P6 1.519923 1_565
O64 S1 1.472447 1_555
O65 S0 1.473368 1_455
O66 P0 1.577135 1_565
O66 Ti4 1.963306 1_555
O67 P1 1.594412 1_555
O67 Ti4 1.915392 1_555
O68 P2 1.592363 1_455
O68 Ti4 1.936571 1_555
O69 P3 1.577492 1_555
O69 Ti5 1.960650 1_555
O70 P4 1.593436 1_455
O70 Ti5 1.931536 1_555
O71 P5 1.595510 1_565
O71 Ti5 1.926065 1_555
