# generated using pymatgen
data_Na10Ta7Ga(SiO4)12
_symmetry_space_group_name_H-M   'P 1'
_cell_length_a   17.97623616
_cell_length_b   8.99577138
_cell_length_c   22.50688191
_cell_angle_alpha   90.02248514
_cell_angle_beta   89.97708285
_cell_angle_gamma   120.00543709
_symmetry_Int_Tables_number   1
_chemical_formula_structural   Na10Ta7Ga(SiO4)12
_chemical_formula_sum   'Na30 Ta21 Ga3 Si36 O144'
_cell_volume   3151.80468377
_cell_formula_units_Z   3
loop_
 _symmetry_equiv_pos_site_id
 _symmetry_equiv_pos_as_xyz
  1  'x, y, z'
loop_
 _atom_site_type_symbol
 _atom_site_label
 _atom_site_symmetry_multiplicity
 _atom_site_fract_x
 _atom_site_fract_y
 _atom_site_fract_z
 _atom_site_occupancy
  Na  Na0  1  0.81631239  0.01192221  0.24616243  1
  Na  Na1  1  0.18294455  0.36582300  0.24907126  1
  Na  Na2  1  0.68887811  0.36515336  0.24540515  1
  Na  Na3  1  0.99364350  0.61895652  0.24608356  1
  Na  Na4  1  0.31653315  0.62143291  0.74691230  1
  Na  Na5  1  0.81697082  0.62156380  0.74631338  1
  Na  Na6  1  0.99367793  0.36543678  0.74606193  1
  Na  Na7  1  0.49346007  0.36461760  0.74608632  1
  Na  Na8  1  0.18915405  0.01238059  0.74717036  1
  Na  Na9  1  0.68936117  0.01299830  0.74658536  1
  Na  Na10  1  0.15306175  0.33727524  0.58468878  1
  Na  Na11  1  0.65426564  0.33713213  0.58408294  1
  Na  Na12  1  0.33361820  0.97203091  0.58427036  1
  Na  Na13  1  0.83422095  0.97450266  0.58395332  1
  Na  Na14  1  0.65226524  0.97051048  0.08511444  1
  Na  Na15  1  0.83230580  0.69299650  0.08406840  1
  Na  Na16  1  0.01552237  0.33619080  0.08309653  1
  Na  Na17  1  0.48362959  0.29971226  0.41670781  1
  Na  Na18  1  0.99985530  0.99031365  0.49658395  1
  Na  Na19  1  0.50143548  0.98389045  0.49791386  1
  Na  Na20  1  0.00535305  0.99947899  0.99667379  1
  Na  Na21  1  0.49499207  0.00111726  0.99902298  1
  Na  Na22  1  0.33286073  0.33299717  0.83342649  1
  Na  Na23  1  0.83358511  0.33318205  0.83247671  1
  Na  Na24  1  0.33320500  0.33352501  0.33211155  1
  Na  Na25  1  0.83288078  0.33200663  0.33155064  1
  Na  Na26  1  0.17553878  0.68624209  0.16396791  1
  Na  Na27  1  0.65707467  0.65497669  0.16608756  1
  Na  Na28  1  0.16184539  0.66683060  0.66566712  1
  Na  Na29  1  0.66208629  0.66727150  0.66540301  1
  Ta  Ta0  1  0.99945202  -0.00001559  0.35617069  1
  Ta  Ta1  1  0.50002633  0.99673892  0.35446578  1
  Ta  Ta2  1  0.00012178  0.00075365  0.85668331  1
  Ta  Ta3  1  0.49987674  0.99904436  0.85675089  1
  Ta  Ta4  1  0.99995687  0.99631577  0.64505307  1
  Ta  Ta5  1  0.50041930  0.99723840  0.64507402  1
  Ta  Ta6  1  0.00315686  0.00009159  0.14464141  1
  Ta  Ta7  1  0.49692478  0.99905003  0.14397554  1
  Ta  Ta8  1  0.33635008  0.33369586  0.18749345  1
  Ta  Ta9  1  0.33293091  0.33259334  0.97682226  1
  Ta  Ta10  1  0.83354286  0.33395853  0.97722158  1
  Ta  Ta11  1  0.33050679  0.33498293  0.47845363  1
  Ta  Ta12  1  0.83444732  0.33395941  0.47718099  1
  Ta  Ta13  1  0.16955184  0.67299673  0.02130089  1
  Ta  Ta14  1  0.66369784  0.66002176  0.02015711  1
  Ta  Ta15  1  0.16424411  0.66622852  0.52004820  1
  Ta  Ta16  1  0.66554758  0.66854225  0.52055437  1
  Ta  Ta17  1  0.16895414  0.67104183  0.31263330  1
  Ta  Ta18  1  0.66469982  0.66648910  0.31201542  1
  Ta  Ta19  1  0.16685488  0.66642055  0.81452586  1
  Ta  Ta20  1  0.66671768  0.66651647  0.81435097  1
  Ga  Ga0  1  0.33368384  0.33342627  0.68550864  1
  Ga  Ga1  1  0.83362943  0.33376561  0.68512193  1
  Ga  Ga2  1  0.83259496  0.33316616  0.18502114  1
  Si  Si0  1  0.14526316  0.00028887  0.25112142  1
  Si  Si1  1  0.64463433  0.00092952  0.24806921  1
  Si  Si2  1  0.35634512  0.71144865  0.24987993  1
  Si  Si3  1  0.85584797  0.70906631  0.24937301  1
  Si  Si4  1  0.99842696  0.28892391  0.24965039  1
  Si  Si5  1  0.49847550  0.28587855  0.25093455  1
  Si  Si6  1  0.14563210  0.28867496  0.74954316  1
  Si  Si7  1  0.64557950  0.28857823  0.74974011  1
  Si  Si8  1  0.99860127  0.70828209  0.75069271  1
  Si  Si9  1  0.49847524  0.70787512  0.75044777  1
  Si  Si10  1  0.35549821  0.00273646  0.74987771  1
  Si  Si11  1  0.85547883  0.00285240  0.74994515  1
  Si  Si12  1  0.47645097  0.33755205  0.58551851  1
  Si  Si13  1  0.97639786  0.33752353  0.58638359  1
  Si  Si14  1  0.19026356  0.04545409  0.58619668  1
  Si  Si15  1  0.69131893  0.04828077  0.58538960  1
  Si  Si16  1  0.33406228  0.61955239  0.58588295  1
  Si  Si17  1  0.83441263  0.61784339  0.58504273  1
  Si  Si18  1  0.47628237  0.62088533  0.08209238  1
  Si  Si19  1  0.97664483  0.61759628  0.08553995  1
  Si  Si20  1  0.33316393  0.04737233  0.08242719  1
  Si  Si21  1  0.83272325  0.04724034  0.08544224  1
  Si  Si22  1  0.19148644  0.33604950  0.08367802  1
  Si  Si23  1  0.69006837  0.33299738  0.08547716  1
  Si  Si24  1  0.31176702  0.66511960  0.91672562  1
  Si  Si25  1  0.81187497  0.66683910  0.91738449  1
  Si  Si26  1  0.02230100  0.37798858  0.91813541  1
  Si  Si27  1  0.52000370  0.37473955  0.91584054  1
  Si  Si28  1  0.16706156  0.95732295  0.91665648  1
  Si  Si29  1  0.66686412  0.95697238  0.91747907  1
  Si  Si30  1  0.31161769  0.95641141  0.41784211  1
  Si  Si31  1  0.81096770  0.95541199  0.41650308  1
  Si  Si32  1  0.16600957  0.37696781  0.41630862  1
  Si  Si33  1  0.66867822  0.37843818  0.41607078  1
  Si  Si34  1  0.02166624  0.66605164  0.41514394  1
  Si  Si35  1  0.52166534  0.66939992  0.41695849  1
  O  O0  1  0.09844760  0.03361451  0.30732338  1
  O  O1  1  0.59464694  0.02806592  0.30519775  1
  O  O2  1  0.41576308  0.80724904  0.30801494  1
  O  O3  1  0.91968008  0.80916667  0.30539898  1
  O  O4  1  0.48627929  0.17327984  0.31106642  1
  O  O5  1  0.98564179  0.16267052  0.30577097  1
  O  O6  1  0.09578949  0.16158988  0.80531310  1
  O  O7  1  0.59574782  0.16107779  0.80532552  1
  O  O8  1  0.48487800  0.80607245  0.80662158  1
  O  O9  1  0.98493759  0.80700089  0.80670157  1
  O  O10  1  0.41919787  0.02953570  0.80545002  1
  O  O11  1  0.91886934  0.02923709  0.80560866  1
  O  O12  1  0.39945687  0.96628618  0.69055230  1
  O  O13  1  0.89925427  0.96606432  0.69070770  1
  O  O14  1  0.08345146  0.20165770  0.69034224  1
  O  O15  1  0.58346710  0.20225523  0.69040097  1
  O  O16  1  0.01727947  0.83829019  0.69307990  1
  O  O17  1  0.51725485  0.83843591  0.69299896  1
  O  O18  1  0.40292663  0.83258171  0.19237549  1
  O  O19  1  0.89998206  0.83433217  0.19079134  1
  O  O20  1  0.01703570  0.20023797  0.19118896  1
  O  O21  1  0.51627241  0.19354561  0.19444447  1
  O  O22  1  0.08193157  0.96628233  0.19335817  1
  O  O23  1  0.58558406  0.97175215  0.18931860  1
  O  O24  1  0.43675569  0.36565633  0.64565698  1
  O  O25  1  0.93798571  0.36654384  0.64712372  1
  O  O26  1  0.24858300  0.12097529  0.64515857  1
  O  O27  1  0.74847992  0.12060559  0.64526681  1
  O  O28  1  0.31145109  0.50075083  0.64447240  1
  O  O29  1  0.81122422  0.50141446  0.64457407  1
  O  O30  1  0.43053663  0.50175056  0.14098466  1
  O  O31  1  0.93846742  0.50187379  0.14520414  1
  O  O32  1  0.32008095  0.14036892  0.14126194  1
  O  O33  1  0.81146989  0.12147890  0.14494607  1
  O  O34  1  0.24715360  0.35971114  0.14423367  1
  O  O35  1  0.74902220  0.37819634  0.14499157  1
  O  O36  1  0.23718194  0.30655878  0.02655816  1
  O  O37  1  0.73649666  0.29926785  0.02836973  1
  O  O38  1  0.41681208  0.52701014  0.02496976  1
  O  O39  1  0.91299301  0.52879374  0.02837181  1
  O  O40  1  0.34700428  0.16691989  0.02508727  1
  O  O41  1  0.85120414  0.17413329  0.02850468  1
  O  O42  1  0.23633288  0.17107881  0.52827633  1
  O  O43  1  0.73602594  0.17288892  0.52797340  1
  O  O44  1  0.34743750  0.52610513  0.52738663  1
  O  O45  1  0.84748381  0.52498273  0.52702025  1
  O  O46  1  0.41635094  0.30132572  0.52602763  1
  O  O47  1  0.91349088  0.29911953  0.52887624  1
  O  O48  1  0.26251638  0.69139866  0.97331364  1
  O  O49  1  0.76485741  0.69223174  0.97563172  1
  O  O50  1  0.08113315  0.46915138  0.97658270  1
  O  O51  1  0.58278471  0.47436068  0.97252368  1
  O  O52  1  0.15375384  0.83259209  0.97315148  1
  O  O53  1  0.65442589  0.83807854  0.97584520  1
  O  O54  1  0.26622960  0.84003391  0.47683119  1
  O  O55  1  0.76475802  0.83681788  0.47539897  1
  O  O56  1  0.15540024  0.47079158  0.47557779  1
  O  O57  1  0.65178211  0.46918095  0.47423490  1
  O  O58  1  0.08351438  0.69104749  0.47248792  1
  O  O59  1  0.58221048  0.69250320  0.47449235  1
  O  O60  1  0.06808666  0.64005280  0.35641756  1
  O  O61  1  0.56840545  0.63497448  0.36012066  1
  O  O62  1  0.25022837  0.85928313  0.36048884  1
  O  O63  1  0.75110729  0.86081531  0.35799351  1
  O  O64  1  0.17940129  0.49540664  0.35750352  1
  O  O65  1  0.67925034  0.49583269  0.35736035  1
  O  O66  1  0.06895609  0.49653483  0.85843617  1
  O  O67  1  0.56793393  0.49450631  0.85676952  1
  O  O68  1  0.17928593  0.86369770  0.85685966  1
  O  O69  1  0.67919899  0.86225590  0.85821377  1
  O  O70  1  0.25284658  0.64099483  0.85684228  1
  O  O71  1  0.75213671  0.64144010  0.85807245  1
  O  O72  1  0.01356448  0.83756612  0.40947685  1
  O  O73  1  0.51269140  0.83895195  0.41093226  1
  O  O74  1  0.40810126  0.98275119  0.41133012  1
  O  O75  1  0.90518826  0.97237861  0.40974181  1
  O  O76  1  0.08091193  0.18837486  0.41025824  1
  O  O77  1  0.57972621  0.19248441  0.41035667  1
  O  O78  1  0.01348604  0.18967857  0.90948299  1
  O  O79  1  0.51356796  0.18868506  0.90940541  1
  O  O80  1  0.08109477  0.97342240  0.90950812  1
  O  O81  1  0.58123859  0.97308218  0.90957895  1
  O  O82  1  0.40535270  0.83788762  0.90938332  1
  O  O83  1  0.90553785  0.83852628  0.90990114  1
  O  O84  1  0.48685097  0.16280244  0.58933230  1
  O  O85  1  0.98715341  0.16326227  0.58996537  1
  O  O86  1  0.09588684  0.03405435  0.58959517  1
  O  O87  1  0.59594781  0.03358022  0.58992697  1
  O  O88  1  0.41766007  0.81577909  0.58924530  1
  O  O89  1  0.91720220  0.81548802  0.58952033  1
  O  O90  1  0.49072237  0.81539824  0.08916859  1
  O  O91  1  0.98356572  0.80833063  0.09028962  1
  O  O92  1  0.41850195  0.02734300  0.09060895  1
  O  O93  1  0.91937107  0.02684383  0.08987476  1
  O  O94  1  0.09343910  0.16608095  0.09025694  1
  O  O95  1  0.59532948  0.15874587  0.08978406  1
  O  O96  1  0.34520064  0.17095814  0.74597695  1
  O  O97  1  0.84496510  0.17083497  0.74630494  1
  O  O98  1  0.24002196  0.30869784  0.74518062  1
  O  O99  1  0.74003833  0.30880682  0.74531343  1
  O  O100  1  0.41409892  0.52011586  0.74523803  1
  O  O101  1  0.91404245  0.52050846  0.74550038  1
  O  O102  1  0.34200607  0.51758465  0.24472496  1
  O  O103  1  0.84619283  0.52050644  0.24578467  1
  O  O104  1  0.41469208  0.30916642  0.24437812  1
  O  O105  1  0.91345321  0.30685549  0.24580886  1
  O  O106  1  0.23803826  0.17416457  0.24416540  1
  O  O107  1  0.73928939  0.17182946  0.24594094  1
  O  O108  1  0.31979814  0.49466117  0.92236168  1
  O  O109  1  0.81941545  0.49473678  0.92361260  1
  O  O110  1  0.42708028  0.35936986  0.92198030  1
  O  O111  1  0.92802521  0.36152672  0.92384051  1
  O  O112  1  0.25212766  0.14448564  0.92247821  1
  O  O113  1  0.75275359  0.14426961  0.92371947  1
  O  O114  1  0.32390756  0.14925453  0.42339636  1
  O  O115  1  0.81953284  0.14340206  0.42396372  1
  O  O116  1  0.25238348  0.35991088  0.42305478  1
  O  O117  1  0.75281871  0.35833148  0.42278953  1
  O  O118  1  0.42937483  0.49202671  0.42370388  1
  O  O119  1  0.92821911  0.49447089  0.42362840  1
  O  O120  1  0.17536498  0.49996198  0.07805241  1
  O  O121  1  0.68069570  0.50511130  0.07561067  1
  O  O122  1  0.07165946  0.63779266  0.07594806  1
  O  O123  1  0.57432148  0.64875625  0.07741816  1
  O  O124  1  0.24820727  0.85573632  0.07715395  1
  O  O125  1  0.74912631  0.85259840  0.07643281  1
  O  O126  1  0.18071421  0.85557578  0.57607892  1
  O  O127  1  0.68122520  0.85671262  0.57601421  1
  O  O128  1  0.24952048  0.64519219  0.57628924  1
  O  O129  1  0.74967187  0.64453212  0.57553643  1
  O  O130  1  0.07551345  0.49855220  0.57690695  1
  O  O131  1  0.57572483  0.49826482  0.57674621  1
  O  O132  1  0.15015320  0.82396554  0.25600162  1
  O  O133  1  0.65533767  0.82994933  0.25647243  1
  O  O134  1  0.25930822  0.68623809  0.25636883  1
  O  O135  1  0.76082815  0.69503590  0.25570468  1
  O  O136  1  0.08659299  0.47818086  0.25589577  1
  O  O137  1  0.58744973  0.47404907  0.25637093  1
  O  O138  1  0.15186784  0.47828004  0.75531881  1
  O  O139  1  0.65216315  0.47856239  0.75548332  1
  O  O140  1  0.08693244  0.69504265  0.75531339  1
  O  O141  1  0.58716709  0.69569294  0.75527326  1
  O  O142  1  0.26057744  0.82546697  0.75521545  1
  O  O143  1  0.76056531  0.82536278  0.75548277  1
loop_
_geom_bond_atom_site_label_1
_geom_bond_atom_site_label_2
_geom_bond_distance
_geom_bond_site_symmetry_2
Na0 O105 2.335557 1_555
Na0 O107 2.445076 1_555
Na0 O33 2.501237 1_555
Na0 O135 2.514693 1_545
Na0 O133 2.523725 1_545
Na0 O63 2.821977 1_545
Na0 O19 2.961025 1_545
Na0 O5 2.962699 1_555
Na1 O106 2.381844 1_555
Na1 O136 2.407438 1_555
Na1 O102 2.478866 1_555
Na1 O134 2.502381 1_555
Na1 O34 2.638946 1_555
Na1 O64 2.718590 1_555
Na1 O20 2.892944 1_555
Na1 O0 2.901462 1_555
Na2 O107 2.328535 1_555
Na2 O103 2.448996 1_555
Na2 O137 2.476047 1_555
Na2 O35 2.482266 1_555
Na2 O135 2.587239 1_555
Na2 O65 2.821687 1_555
Na2 O21 2.921778 1_555
Na2 O1 2.956276 1_555
Na3 O103 2.337150 1_555
Na3 O105 2.431606 1_555
Na3 O132 2.485397 1_655
Na3 O31 2.490639 1_555
Na3 O136 2.561483 1_655
Na3 O60 2.782400 1_655
Na3 O22 2.954849 1_655
Na3 O3 2.958048 1_555
Na4 O100 2.346670 1_555
Na4 O98 2.436756 1_555
Na4 O142 2.502332 1_555
Na4 O28 2.530167 1_555
Na4 O138 2.577471 1_555
Na4 O70 2.768049 1_555
Na4 O8 2.949063 1_555
Na4 O12 2.971761 1_555
Na5 O101 2.336288 1_555
Na5 O99 2.436638 1_555
Na5 O143 2.508099 1_555
Na5 O29 2.511732 1_555
Na5 O139 2.581186 1_555
Na5 O71 2.814783 1_555
Na5 O9 2.951389 1_555
Na5 O13 2.962282 1_555
Na6 O97 2.351700 1_555
Na6 O25 2.443919 1_555
Na6 O101 2.448025 1_555
Na6 O138 2.504687 1_655
Na6 O140 2.583329 1_655
Na6 O66 2.832504 1_655
Na6 O11 2.947100 1_555
Na6 O14 2.953413 1_655
Na7 O96 2.343976 1_555
Na7 O100 2.447094 1_555
Na7 O24 2.481874 1_555
Na7 O139 2.511954 1_555
Na7 O141 2.594705 1_555
Na7 O67 2.792696 1_555
Na7 O10 2.937765 1_555
Na7 O15 2.946600 1_555
Na8 O98 2.346442 1_555
Na8 O96 2.429439 1_555
Na8 O140 2.512593 1_545
Na8 O26 2.514572 1_555
Na8 O142 2.582261 1_545
Na8 O68 2.771309 1_545
Na8 O6 2.929324 1_555
Na8 O16 2.939854 1_545
Na9 O99 2.342490 1_555
Na9 O97 2.422388 1_555
Na9 O27 2.497478 1_555
Na9 O141 2.513213 1_545
Na9 O143 2.586289 1_545
Na9 O69 2.817617 1_545
Na9 O7 2.931388 1_555
Na9 O17 2.938477 1_545
Na10 O86 2.388535 1_555
Na10 O128 2.431329 1_555
Na10 O130 2.470229 1_555
Na10 O85 2.586458 1_455
Na10 O14 2.679885 1_555
Na10 O56 2.725215 1_555
Na10 O28 2.809558 1_555
Na10 O42 2.885015 1_555
Na11 O87 2.389554 1_555
Na11 O129 2.425288 1_555
Na11 O131 2.483739 1_555
Na11 O84 2.609565 1_555
Na11 O15 2.696888 1_555
Na11 O57 2.753350 1_555
Na11 O29 2.798151 1_555
Na11 O43 2.847256 1_555
Na12 O126 2.409725 1_555
Na12 O84 2.412008 1_565
Na12 O88 2.528791 1_555
Na12 O128 2.552746 1_555
Na12 O12 2.681226 1_555
Na12 O54 2.699289 1_555
Na12 O26 2.838182 1_565
Na12 O46 2.881042 1_565
Na13 O85 2.406378 1_565
Na13 O127 2.409215 1_555
Na13 O89 2.534067 1_555
Na13 O129 2.577691 1_555
Na13 O13 2.690094 1_555
Na13 O55 2.741501 1_555
Na13 O47 2.816772 1_565
Na13 O27 2.833779 1_565
Na14 O95 2.378882 1_565
Na14 O125 2.458013 1_555
Na14 O123 2.512876 1_555
Na14 O90 2.517016 1_555
Na14 O23 2.636011 1_555
Na14 O53 2.740963 1_554
Na14 O33 2.821802 1_565
Na14 O37 2.862310 1_565
Na15 O91 2.380776 1_555
Na15 O121 2.390325 1_555
Na15 O125 2.544450 1_555
Na15 O93 2.604739 1_565
Na15 O19 2.705378 1_555
Na15 O49 2.724064 1_554
Na15 O35 2.811064 1_555
Na15 O39 2.827911 1_555
Na16 O122 2.380591 1_555
Na16 O93 2.438081 1_455
Na16 O120 2.491101 1_555
Na16 O94 2.544330 1_555
Na16 O50 2.675398 1_554
Na16 O20 2.729609 1_555
Na16 O41 2.838070 1_455
Na16 O31 2.855824 1_455
Na17 O77 2.366696 1_555
Na17 O118 2.378271 1_555
Na17 O74 2.473047 1_545
Na17 O114 2.492273 1_555
Na17 O4 2.645955 1_555
Na17 O46 2.744422 1_555
Na17 O61 2.906020 1_555
Na17 O57 2.920642 1_555
Na18 O72 2.475603 1_655
Na18 O75 2.543632 1_555
Na18 O76 2.544892 1_665
Na18 O89 2.592142 1_555
Na18 O86 2.615350 1_665
Na18 O85 2.691145 1_565
Na19 O73 2.415573 1_555
Na19 O88 2.550005 1_555
Na19 O74 2.568669 1_555
Na19 O87 2.572469 1_565
Na19 O77 2.597037 1_565
Na19 O84 2.703988 1_565
Na20 O80 2.464596 1_555
Na20 O83 2.555827 1_455
Na20 O78 2.559701 1_565
Na20 O94 2.610839 1_566
Na20 O91 2.622638 1_456
Na20 O93 2.688367 1_466
Na21 O82 2.541021 1_545
Na21 O79 2.542732 1_555
Na21 O92 2.552863 1_556
Na21 O90 2.605338 1_546
Na21 O95 2.622871 1_556
Na21 O81 2.628322 1_545
Na22 O96 2.523623 1_555
Na22 O98 2.532820 1_555
Na22 O100 2.539172 1_555
Na22 O110 2.549062 1_555
Na22 O108 2.552569 1_555
Na22 O112 2.556940 1_555
Na23 O97 2.496496 1_555
Na23 O101 2.515211 1_555
Na23 O99 2.521504 1_555
Na23 O111 2.597111 1_555
Na23 O113 2.597537 1_555
Na23 O109 2.598429 1_555
Na24 O102 2.524911 1_555
Na24 O104 2.532033 1_555
Na24 O106 2.539166 1_555
Na24 O116 2.588224 1_555
Na24 O114 2.592716 1_555
Na24 O118 2.608922 1_555
Na25 O107 2.489007 1_555
Na25 O105 2.489629 1_555
Na25 O103 2.501034 1_555
Na25 O117 2.585039 1_555
Na25 O115 2.618680 1_555
Na25 O119 2.619778 1_555
Na26 O124 2.420168 1_555
Na26 O120 2.557240 1_555
Na26 O134 2.568101 1_555
Na26 O132 2.568374 1_555
Na26 O122 2.605731 1_555
Na26 O136 2.710671 1_555
Na27 O123 2.473418 1_555
Na27 O137 2.511510 1_555
Na27 O133 2.581354 1_555
Na27 O121 2.591187 1_555
Na27 O135 2.647067 1_555
Na27 O125 2.651083 1_555
Na28 O140 2.507603 1_555
Na28 O130 2.518200 1_555
Na28 O126 2.547498 1_555
Na28 O138 2.584315 1_555
Na28 O142 2.591519 1_555
Na28 O128 2.621542 1_555
Na29 O141 2.512421 1_555
Na29 O131 2.518448 1_555
Na29 O127 2.546739 1_555
Na29 O139 2.592994 1_555
Na29 O143 2.597963 1_555
Na29 O129 2.632678 1_555
Ga0 O24 1.945038 1_555
Ga0 O28 1.970150 1_555
Ga0 O26 1.973103 1_555
Ga0 O100 2.070984 1_555
Ga0 O98 2.076498 1_555
Ga0 O96 2.082193 1_555
Ga1 O25 1.945032 1_555
Ga1 O29 1.969369 1_555
Ga1 O27 1.971975 1_555
Ga1 O101 2.080705 1_555
Ga1 O99 2.082503 1_555
Ga1 O97 2.094402 1_555
Ga2 O31 1.959425 1_555
Ga2 O35 1.960305 1_555
Ga2 O33 1.964618 1_555
Ga2 O103 2.087260 1_555
Ga2 O107 2.089173 1_555
Ga2 O105 2.094398 1_555
O0 Si0 1.627681 1_555
O0 Ta0 1.981743 1_455
O1 Si1 1.654845 1_555
O1 Ta1 1.929110 1_545
O2 Si2 1.635589 1_555
O2 Ta1 1.926271 1_555
O3 Si3 1.638416 1_555
O3 Ta0 1.961258 1_565
O4 Si5 1.638422 1_555
O4 Ta1 1.982735 1_545
O5 Si4 1.636455 1_555
O5 Ta0 1.963431 1_555
O6 Si6 1.631272 1_555
O6 Ta2 1.974526 1_555
O7 Si7 1.629639 1_555
O7 Ta3 1.980315 1_545
O8 Si9 1.628910 1_555
O8 Ta3 1.972231 1_555
O9 Si8 1.629440 1_555
O9 Ta2 1.975033 1_665
O10 Si10 1.630501 1_555
O10 Ta3 1.977683 1_545
O11 Si11 1.629351 1_555
O11 Ta2 1.973919 1_655
O12 Si10 1.665159 1_565
O12 Ta5 1.978002 1_555
O13 Si11 1.663007 1_565
O13 Ta4 1.978115 1_555
O14 Si6 1.662164 1_555
O14 Ta4 1.982606 1_445
O15 Si7 1.663295 1_555
O15 Ta5 1.979096 1_545
O16 Si8 1.664334 1_455
O16 Ta4 1.931435 1_455
O17 Si9 1.664187 1_555
O17 Ta5 1.931241 1_555
O18 Si2 1.628278 1_555
O18 Ta7 1.937364 1_555
O19 Si3 1.656452 1_555
O19 Ta6 1.993959 1_665
O20 Si4 1.656929 1_455
O20 Ta6 1.987699 1_555
O21 Si5 1.635045 1_555
O21 Ta7 1.965349 1_545
O22 Si0 1.653000 1_565
O22 Ta6 1.931904 1_565
O23 Si1 1.632889 1_565
O23 Ta7 2.008679 1_555
O24 Si12 1.607650 1_555
O25 Si13 1.610308 1_555
O26 Si14 1.615466 1_555
O27 Si15 1.620825 1_555
O28 Si16 1.616308 1_555
O29 Si17 1.621719 1_555
O30 Si18 1.643317 1_555
O30 Ta8 1.920322 1_555
O31 Si19 1.625966 1_555
O32 Si20 1.644477 1_555
O32 Ta8 1.919089 1_555
O33 Si21 1.624693 1_555
O34 Si22 1.640748 1_555
O34 Ta8 1.987568 1_555
O35 Si23 1.628614 1_555
O36 Si22 1.617008 1_555
O36 Ta9 1.966201 1_554
O37 Si23 1.640966 1_555
O37 Ta10 1.979939 1_554
O38 Si18 1.614381 1_555
O38 Ta9 1.966964 1_554
O39 Si19 1.639847 1_555
O39 Ta10 1.983221 1_554
O40 Si20 1.617764 1_555
O40 Ta9 1.960563 1_554
O41 Si21 1.636190 1_555
O41 Ta10 1.989544 1_554
O42 Si14 1.651237 1_555
O42 Ta11 1.949512 1_555
O43 Si15 1.634511 1_555
O43 Ta12 1.993053 1_555
O44 Si16 1.642819 1_555
O44 Ta11 1.933119 1_555
O45 Si17 1.628996 1_555
O45 Ta12 1.965203 1_555
O46 Si12 1.647691 1_555
O46 Ta11 2.021971 1_555
O47 Si13 1.638125 1_555
O47 Ta12 1.979379 1_555
O48 Si24 1.634017 1_555
O48 Ta13 1.925787 1_556
O49 Si25 1.636197 1_555
O49 Ta14 1.966423 1_556
O50 Si26 1.629197 1_555
O50 Ta13 1.996656 1_556
O51 Si27 1.641051 1_555
O51 Ta14 1.903833 1_556
O52 Si28 1.632610 1_555
O52 Ta13 1.930150 1_556
O53 Si29 1.637452 1_555
O53 Ta14 1.963789 1_556
O54 Si30 1.634106 1_555
O54 Ta15 1.970941 1_555
O55 Si31 1.642918 1_555
O55 Ta16 1.950542 1_555
O56 Si32 1.639544 1_555
O56 Ta15 1.958875 1_555
O57 Si33 1.648982 1_555
O57 Ta16 1.979710 1_555
O58 Si34 1.644163 1_555
O58 Ta15 1.904520 1_555
O59 Si35 1.636832 1_555
O59 Ta16 1.920906 1_555
O60 Si34 1.640768 1_555
O60 Ta17 1.956990 1_555
O61 Si35 1.642374 1_555
O61 Ta18 1.938280 1_555
O62 Si30 1.638109 1_555
O62 Ta17 1.920298 1_555
O63 Si31 1.643354 1_555
O63 Ta18 1.955390 1_555
O64 Si32 1.639865 1_555
O64 Ta17 1.962049 1_555
O65 Si33 1.642437 1_555
O65 Ta18 1.967191 1_555
O66 Si26 1.658825 1_555
O66 Ta19 1.928521 1_555
O67 Si27 1.656047 1_555
O67 Ta20 1.926326 1_555
O68 Si28 1.659190 1_555
O68 Ta19 1.925978 1_555
O69 Si29 1.655962 1_555
O69 Ta20 1.931094 1_555
O70 Si24 1.660264 1_555
O70 Ta19 1.924549 1_555
O71 Si25 1.656183 1_555
O71 Ta20 1.929982 1_555
O72 Si34 1.625715 1_555
O72 Ta0 2.002713 1_465
O73 Si35 1.617740 1_555
O73 Ta1 2.001644 1_555
O74 Si30 1.635421 1_555
O74 Ta1 2.043266 1_555
O75 Si31 1.629858 1_555
O75 Ta0 1.991108 1_565
O76 Si32 1.625171 1_555
O76 Ta0 2.004006 1_455
O77 Si33 1.642066 1_555
O77 Ta1 2.052364 1_545
O78 Si26 1.632158 1_555
O78 Ta2 1.987102 1_555
O79 Si27 1.625363 1_555
O79 Ta3 1.988476 1_545
O80 Si28 1.630662 1_555
O80 Ta2 1.988034 1_565
O81 Si29 1.626398 1_555
O81 Ta3 1.987623 1_555
O82 Si24 1.630308 1_555
O82 Ta3 1.981964 1_555
O83 Si25 1.627182 1_555
O83 Ta2 1.993317 1_665
O84 Si12 1.675585 1_555
O84 Ta5 2.053467 1_545
O85 Si13 1.674678 1_555
O85 Ta4 2.047693 1_545
O86 Si14 1.649395 1_555
O86 Ta4 2.014959 1_445
O87 Si15 1.655369 1_555
O87 Ta5 2.008349 1_545
O88 Si16 1.651321 1_555
O88 Ta5 2.006927 1_555
O89 Si17 1.655200 1_555
O89 Ta4 2.000223 1_555
O90 Si18 1.643185 1_555
O90 Ta7 2.019335 1_555
O91 Si19 1.660497 1_555
O91 Ta6 1.996821 1_665
O92 Si20 1.642074 1_555
O92 Ta7 1.963493 1_545
O93 Si21 1.660036 1_555
O93 Ta6 2.051835 1_655
O94 Si22 1.664595 1_555
O94 Ta6 1.984410 1_555
O95 Si23 1.642220 1_555
O95 Ta7 2.034346 1_545
O96 Si10 1.616258 1_555
O97 Si11 1.616079 1_555
O98 Si6 1.617199 1_555
O99 Si7 1.617755 1_555
O100 Si9 1.613962 1_555
O101 Si8 1.615377 1_555
O102 Si2 1.634488 1_555
O102 Ta8 2.058205 1_555
O103 Si3 1.618435 1_555
O104 Si5 1.627822 1_555
O104 Ta8 1.995899 1_555
O105 Si4 1.616581 1_555
O106 Si0 1.625853 1_555
O106 Ta8 2.067053 1_555
O107 Si1 1.626259 1_555
O108 Si24 1.615501 1_555
O108 Ta9 2.007383 1_555
O109 Si25 1.626346 1_555
O109 Ta10 1.995280 1_555
O110 Si27 1.611623 1_555
O110 Ta9 2.009176 1_555
O111 Si26 1.630748 1_655
O111 Ta10 1.991727 1_555
O112 Si28 1.617165 1_545
O112 Ta9 2.002692 1_555
O113 Si29 1.624977 1_545
O113 Ta10 1.998036 1_555
O114 Si30 1.640245 1_545
O114 Ta11 2.035028 1_555
O115 Si31 1.628235 1_545
O115 Ta12 1.995995 1_555
O116 Si32 1.641918 1_555
O116 Ta11 1.973263 1_555
O117 Si33 1.617763 1_555
O117 Ta12 2.005816 1_555
O118 Si35 1.635175 1_555
O118 Ta11 2.039935 1_555
O119 Si34 1.627088 1_655
O119 Ta12 1.986077 1_555
O120 Si22 1.643712 1_555
O120 Ta13 2.056627 1_555
O121 Si23 1.654126 1_555
O121 Ta14 2.005139 1_555
O122 Si19 1.638984 1_455
O122 Ta13 2.037377 1_555
O123 Si18 1.654638 1_555
O123 Ta14 2.021909 1_555
O124 Si20 1.638626 1_565
O124 Ta13 1.989190 1_555
O125 Si21 1.653334 1_565
O125 Ta14 2.074299 1_555
O126 Si14 1.644810 1_565
O126 Ta15 2.018295 1_555
O127 Si15 1.653550 1_565
O127 Ta16 2.006078 1_555
O128 Si16 1.661424 1_555
O128 Ta15 2.068791 1_555
O129 Si17 1.670333 1_555
O129 Ta16 2.047742 1_555
O130 Si13 1.654376 1_455
O130 Ta15 2.012608 1_555
O131 Si12 1.653277 1_555
O131 Ta16 2.019690 1_555
O132 Si0 1.635637 1_565
O132 Ta17 2.024358 1_555
O133 Si1 1.653718 1_565
O133 Ta18 2.000605 1_555
O134 Si2 1.649153 1_555
O134 Ta17 2.009186 1_555
O135 Si3 1.654701 1_555
O135 Ta18 2.052545 1_555
O136 Si4 1.652707 1_455
O136 Ta17 2.064800 1_555
O137 Si5 1.652462 1_555
O137 Ta18 2.022137 1_555
O138 Si6 1.657497 1_555
O138 Ta19 2.062823 1_555
O139 Si7 1.658047 1_555
O139 Ta20 2.058819 1_555
O140 Si8 1.653962 1_455
O140 Ta19 2.068394 1_555
O141 Si9 1.655488 1_555
O141 Ta20 2.063738 1_555
O142 Si10 1.657546 1_565
O142 Ta19 2.063071 1_555
O143 Si11 1.658694 1_565
O143 Ta20 2.057193 1_555
