# generated using pymatgen
data_KFe2S3
_symmetry_space_group_name_H-M   'P 1'
_cell_length_a   7.04983649
_cell_length_b   7.04983649
_cell_length_c   5.26064240
_cell_angle_alpha   90.00000000
_cell_angle_beta   90.00000000
_cell_angle_gamma   99.51304965
_symmetry_Int_Tables_number   1
_chemical_formula_structural   KFe2S3
_chemical_formula_sum   'K2 Fe4 S6'
_cell_volume   257.85941813
_cell_formula_units_Z   2
loop_
 _symmetry_equiv_pos_site_id
 _symmetry_equiv_pos_as_xyz
  1  'x, y, z'
loop_
 _atom_site_type_symbol
 _atom_site_label
 _atom_site_symmetry_multiplicity
 _atom_site_fract_x
 _atom_site_fract_y
 _atom_site_fract_z
 _atom_site_occupancy
  K  K0  1  0.66738249  0.33261751  0.75000000  1
  K  K1  1  0.33261751  0.66738249  0.25000000  1
  Fe  Fe0  1  0.86373523  0.86373523  0.00000000  1
  Fe  Fe1  1  0.13626477  0.13626477  0.50000000  1
  Fe  Fe2  1  0.13626477  0.13626477  -0.00000000  1
  Fe  Fe3  1  0.86373523  0.86373523  0.50000000  1
  S  S0  1  0.38582256  0.17255187  0.25000000  1
  S  S1  1  0.61417744  0.82744813  0.75000000  1
  S  S2  1  0.17255187  0.38582256  0.75000000  1
  S  S3  1  0.87079547  0.12920453  0.25000000  1
  S  S4  1  0.12920453  0.87079547  0.75000000  1
  S  S5  1  0.82744813  0.61417744  0.25000000  1
loop_
_geom_bond_atom_site_label_1
_geom_bond_atom_site_label_2
_geom_bond_distance
_geom_bond_site_symmetry_2
K0 S5 3.375146 1_555
K0 S5 3.375146 1_556
K0 S0 3.375146 1_555
K0 S0 3.375146 1_556
K0 S3 3.422164 1_556
K0 S3 3.422164 1_555
K0 S2 3.518869 1_655
K0 S1 3.518869 1_545
K0 S1 3.569686 1_555
K0 S2 3.569686 1_555
K1 S1 3.375146 1_555
K1 S1 3.375146 1_554
K1 S2 3.375146 1_554
K1 S2 3.375146 1_555
K1 S4 3.422164 1_555
K1 S4 3.422164 1_554
K1 S0 3.518869 1_565
K1 S5 3.518869 1_455
K1 S5 3.569686 1_555
K1 S0 3.569686 1_555
Fe0 S5 2.177523 1_555
Fe0 S1 2.177523 1_554
Fe0 S3 2.281206 1_565
Fe0 S4 2.281206 1_654
Fe1 S2 2.177523 1_555
Fe1 S0 2.177523 1_555
Fe1 S3 2.281206 1_455
Fe1 S4 2.281206 1_545
Fe2 S0 2.177523 1_555
Fe2 S2 2.177523 1_554
Fe2 S4 2.281206 1_544
Fe2 S3 2.281206 1_455
Fe3 S5 2.177523 1_555
Fe3 S1 2.177523 1_555
Fe3 S3 2.281206 1_565
Fe3 S4 2.281206 1_655
