# generated using pymatgen
data_Sr2YMgTlCu2O7
_symmetry_space_group_name_H-M   'P 1'
_cell_length_a   3.86148888
_cell_length_b   3.86148888
_cell_length_c   15.44063428
_cell_angle_alpha   90.00000000
_cell_angle_beta   90.00000000
_cell_angle_gamma   90.00000000
_symmetry_Int_Tables_number   1
_chemical_formula_structural   Sr2YMgTlCu2O7
_chemical_formula_sum   'Sr2 Y1 Mg1 Tl1 Cu2 O7'
_cell_volume   230.23678577
_cell_formula_units_Z   1
loop_
 _symmetry_equiv_pos_site_id
 _symmetry_equiv_pos_as_xyz
  1  'x, y, z'
loop_
 _atom_site_type_symbol
 _atom_site_label
 _atom_site_symmetry_multiplicity
 _atom_site_fract_x
 _atom_site_fract_y
 _atom_site_fract_z
 _atom_site_occupancy
  Sr  Sr0  1  0.50000000  0.50000000  0.79588424  1
  Sr  Sr1  1  0.50000000  0.50000000  0.10799876  1
  Y  Y0  1  0.50000000  0.50000000  0.56040518  1
  Mg  Mg0  1  0.50000000  0.50000000  0.36950392  1
  Tl  Tl0  1  0.00000000  0.00000000  0.95551503  1
  Cu  Cu0  1  -0.00000000  -0.00000000  0.66165793  1
  Cu  Cu1  1  -0.00000000  -0.00000000  0.42861341  1
  O  O0  1  0.50000000  -0.00000000  0.63253352  1
  O  O1  1  -0.00000000  0.50000000  0.63253352  1
  O  O2  1  0.50000000  -0.00000000  0.42093752  1
  O  O3  1  -0.00000000  0.50000000  0.42093752  1
  O  O4  1  0.00000000  0.00000000  0.79939596  1
  O  O5  1  0.00000000  0.00000000  0.11382116  1
  O  O6  1  0.50000000  0.50000000  0.95442934  1
loop_
_geom_bond_atom_site_label_1
_geom_bond_atom_site_label_2
_geom_bond_distance
_geom_bond_site_symmetry_2
Mg0 O3 2.087696 1_655
Mg0 O2 2.087696 1_555
Mg0 O3 2.087696 1_555
Mg0 O2 2.087696 1_565
Cu0 O1 1.982424 1_545
Cu0 O0 1.982424 1_555
Cu0 O0 1.982424 1_455
Cu0 O1 1.982424 1_555
Cu0 O4 2.126763 1_555
Cu1 O3 1.934379 1_545
Cu1 O2 1.934379 1_455
Cu1 O2 1.934379 1_555
Cu1 O3 1.934379 1_555
O0 Y0 2.228928 1_545
O0 Y0 2.228928 1_555
O1 Y0 2.228928 1_555
O1 Y0 2.228928 1_455
O4 Tl0 2.410577 1_555
O4 Sr0 2.731023 1_455
O4 Sr0 2.731023 1_445
O4 Sr0 2.731023 1_545
O4 Sr0 2.731023 1_555
O5 Tl0 2.444347 1_554
O5 Sr1 2.731965 1_455
O5 Sr1 2.731965 1_555
O5 Sr1 2.731965 1_445
O5 Sr1 2.731965 1_545
O6 Sr1 2.371209 1_556
O6 Sr0 2.448037 1_555
O6 Tl0 2.730536 1_565
O6 Tl0 2.730536 1_665
O6 Tl0 2.730536 1_655
O6 Tl0 2.730536 1_555
