# generated using pymatgen
data_K6Mg(SbS4)2
_symmetry_space_group_name_H-M   'P 1'
_cell_length_a   8.14496327
_cell_length_b   8.16300223
_cell_length_c   8.15762594
_cell_angle_alpha   97.96869198
_cell_angle_beta   89.77221272
_cell_angle_gamma   90.35246155
_symmetry_Int_Tables_number   1
_chemical_formula_structural   K6Mg(SbS4)2
_chemical_formula_sum   'K6 Mg1 Sb2 S8'
_cell_volume   537.12889666
_cell_formula_units_Z   1
loop_
 _symmetry_equiv_pos_site_id
 _symmetry_equiv_pos_as_xyz
  1  'x, y, z'
loop_
 _atom_site_type_symbol
 _atom_site_label
 _atom_site_symmetry_multiplicity
 _atom_site_fract_x
 _atom_site_fract_y
 _atom_site_fract_z
 _atom_site_occupancy
  K  K0  1  0.01305100  0.30320100  0.69551100  1
  K  K1  1  0.45964500  0.69809200  0.30399900  1
  K  K2  1  0.51312300  0.17741300  0.25670400  1
  K  K3  1  0.02694000  0.84374300  0.74424700  1
  K  K4  1  0.51226800  0.74249500  0.82264900  1
  K  K5  1  0.02922700  0.25590700  0.15450400  1
  Mg  Mg0  1  0.82916300  0.59369300  0.40489700  1
  Sb  Sb0  1  0.52285100  0.23512100  0.76396800  1
  Sb  Sb1  1  0.05463400  0.77192900  0.22841700  1
  S  S0  1  0.12050900  0.55470600  0.44498100  1
  S  S1  1  0.62862500  0.45857300  0.54108500  1
  S  S2  1  0.23242600  0.93454000  0.06496500  1
  S  S3  1  0.72610600  0.08836900  0.91089300  1
  S  S4  1  0.84612000  0.91833000  0.41093600  1
  S  S5  1  0.34807000  0.03536600  0.59926100  1
  S  S6  1  0.84710400  0.58855800  0.08078900  1
  S  S7  1  0.34907100  0.39996500  0.96386100  1
loop_
_geom_bond_atom_site_label_1
_geom_bond_atom_site_label_2
_geom_bond_distance
_geom_bond_site_symmetry_2
K0 S0 3.207002 1_555
K0 S3 3.520792 1_455
K0 S5 3.524608 1_555
K0 S7 3.528193 1_555
K0 S1 3.677334 1_455
K1 S1 3.249678 1_555
K1 S0 3.260503 1_555
K1 Mg0 3.272282 1_555
K1 Sb1 3.430626 1_555
K1 S2 3.474034 1_555
K1 S5 3.518817 1_565
K1 S7 3.543064 1_554
K1 S4 3.663232 1_555
K1 S6 3.689437 1_555
K2 S1 3.170001 1_555
K2 S2 3.273683 1_545
K2 S3 3.302083 1_554
K2 S5 3.436583 1_555
K2 S7 3.471484 1_554
K2 S4 3.774590 1_545
K3 S2 3.110860 1_556
K3 S4 3.230286 1_455
K3 S0 3.243125 1_555
K3 S3 3.334746 1_465
K3 S5 3.335416 1_565
K4 S1 3.174769 1_555
K4 S2 3.272486 1_556
K4 S3 3.302892 1_565
K4 S7 3.427395 1_555
K4 S5 3.477293 1_565
K4 S6 3.777925 1_556
K5 S2 3.109186 1_545
K5 S6 3.231872 1_455
K5 S0 3.241324 1_555
K5 S7 3.320433 1_554
K5 S3 3.340524 1_454
Mg0 S1 2.328499 1_555
Mg0 S0 2.425626 1_655
Mg0 S6 2.641944 1_555
Mg0 S4 2.646398 1_555
Mg0 Sb1 2.844098 1_655
S0 Sb1 2.727809 1_555
S1 Sb0 2.874531 1_555
S2 Sb1 2.467515 1_555
S3 Sb0 2.459789 1_555
S4 Sb1 2.457834 1_655
S5 Sb0 2.422798 1_555
S6 Sb1 2.456288 1_655
S7 Sb0 2.422781 1_555
