# generated using pymatgen
data_InSbS3
_symmetry_space_group_name_H-M   'P 1'
_cell_length_a   3.83957740
_cell_length_b   9.40747945
_cell_length_c   13.58207990
_cell_angle_alpha   90.00000000
_cell_angle_beta   90.00000000
_cell_angle_gamma   90.00000000
_symmetry_Int_Tables_number   1
_chemical_formula_structural   InSbS3
_chemical_formula_sum   'In4 Sb4 S12'
_cell_volume   490.59485125
_cell_formula_units_Z   4
loop_
 _symmetry_equiv_pos_site_id
 _symmetry_equiv_pos_as_xyz
  1  'x, y, z'
loop_
 _atom_site_type_symbol
 _atom_site_label
 _atom_site_symmetry_multiplicity
 _atom_site_fract_x
 _atom_site_fract_y
 _atom_site_fract_z
 _atom_site_occupancy
  In  In0  1  0.75000000  0.85192301  0.04480903  1
  In  In1  1  0.25000000  0.14807699  0.95519097  1
  In  In2  1  0.75000000  0.35192301  0.45519097  1
  In  In3  1  0.25000000  0.64807699  0.54480903  1
  Sb  Sb0  1  0.75000000  0.46996656  0.85484021  1
  Sb  Sb1  1  0.25000000  0.53003344  0.14515979  1
  Sb  Sb2  1  0.75000000  0.96996656  0.64515979  1
  Sb  Sb3  1  0.25000000  0.03003344  0.35484021  1
  S  S0  1  0.25000000  0.80960498  0.70343335  1
  S  S1  1  0.75000000  0.19039502  0.29656665  1
  S  S2  1  0.25000000  0.30960498  0.79656665  1
  S  S3  1  0.75000000  0.69039502  0.20343335  1
  S  S4  1  0.25000000  0.16026283  0.51523585  1
  S  S5  1  0.75000000  0.83973717  0.48476415  1
  S  S6  1  0.25000000  0.66026283  0.98476415  1
  S  S7  1  0.75000000  0.33973717  0.01523585  1
  S  S8  1  0.75000000  0.99654357  0.88496603  1
  S  S9  1  0.25000000  0.00345643  0.11503397  1
  S  S10  1  0.75000000  0.49654357  0.61503397  1
  S  S11  1  0.25000000  0.50345643  0.38496603  1
loop_
_geom_bond_atom_site_label_1
_geom_bond_atom_site_label_2
_geom_bond_distance
_geom_bond_site_symmetry_2
In0 S8 2.562078 1_554
In0 S9 2.574395 1_565
In0 S9 2.574395 1_665
In0 S3 2.636426 1_555
In0 S6 2.757106 1_654
In0 S6 2.757106 1_554
In1 S9 2.562078 1_556
In1 S8 2.574395 1_445
In1 S8 2.574395 1_545
In1 S2 2.636426 1_555
In1 S7 2.757106 1_456
In1 S7 2.757106 1_556
In2 S10 2.562078 1_555
In2 S11 2.574395 1_555
In2 S11 2.574395 1_655
In2 S1 2.636426 1_555
In2 S4 2.757106 1_555
In2 S4 2.757106 1_655
In3 S11 2.562078 1_555
In3 S10 2.574395 1_455
In3 S10 2.574395 1_555
In3 S0 2.636426 1_555
In3 S5 2.757106 1_455
In3 S5 2.757106 1_555
S0 Sb2 2.566689 1_555
S0 Sb2 2.566689 1_455
S1 Sb3 2.566689 1_555
S1 Sb3 2.566689 1_655
S2 Sb0 2.566689 1_455
S2 Sb0 2.566689 1_555
S3 Sb1 2.566689 1_655
S3 Sb1 2.566689 1_555
S4 Sb3 2.499367 1_555
S5 Sb2 2.499367 1_555
S6 Sb1 2.499367 1_556
S7 Sb0 2.499367 1_554
