# generated using pymatgen
data_Ba2MgNb4O12
_symmetry_space_group_name_H-M   'P 1'
_cell_length_a   6.07313471
_cell_length_b   5.78768802
_cell_length_c   9.82354598
_cell_angle_alpha   96.42353500
_cell_angle_beta   95.15306493
_cell_angle_gamma   99.35908261
_symmetry_Int_Tables_number   1
_chemical_formula_structural   Ba2MgNb4O12
_chemical_formula_sum   'Ba2 Mg1 Nb4 O12'
_cell_volume   336.49616254
_cell_formula_units_Z   1
loop_
 _symmetry_equiv_pos_site_id
 _symmetry_equiv_pos_as_xyz
  1  'x, y, z'
loop_
 _atom_site_type_symbol
 _atom_site_label
 _atom_site_symmetry_multiplicity
 _atom_site_fract_x
 _atom_site_fract_y
 _atom_site_fract_z
 _atom_site_occupancy
  Ba  Ba0  1  0.00000000  0.00000000  0.00000000  1
  Ba  Ba1  1  0.00000000  0.50000000  0.50000000  1
  Mg  Mg0  1  0.50000000  0.50000000  0.50000000  1
  Nb  Nb0  1  0.56110362  0.39938977  0.13727741  1
  Nb  Nb1  1  0.37521000  0.91485954  0.34099340  1
  Nb  Nb2  1  0.43889638  0.60061023  0.86272259  1
  Nb  Nb3  1  0.62479000  0.08514046  0.65900660  1
  O  O0  1  0.84376506  0.33465205  0.16350325  1
  O  O1  1  0.07352825  0.85254545  0.34428734  1
  O  O2  1  0.15623494  0.66534795  0.83649675  1
  O  O3  1  0.92647175  0.14745455  0.65571266  1
  O  O4  1  0.37435355  0.11234412  0.19153138  1
  O  O5  1  0.48445361  0.60330124  0.30500372  1
  O  O6  1  0.58490160  0.19286425  0.45400893  1
  O  O7  1  0.60997405  0.70443833  0.04833029  1
  O  O8  1  0.41509840  0.80713575  0.54599107  1
  O  O9  1  0.39002595  0.29556167  0.95166971  1
  O  O10  1  0.51554639  0.39669876  0.69499628  1
  O  O11  1  0.62564645  0.88765588  0.80846862  1
loop_
_geom_bond_atom_site_label_1
_geom_bond_atom_site_label_2
_geom_bond_distance
_geom_bond_site_symmetry_2
Ba0 O0 2.721568 1_455
Ba0 O2 2.721568 1_544
Ba0 O4 2.758396 1_555
Ba0 O11 2.758396 1_444
Ba0 O7 2.797884 1_445
Ba0 O9 2.797884 1_554
Ba1 O3 2.688361 1_455
Ba1 O1 2.688361 1_555
Ba1 O6 2.806670 1_455
Ba1 O8 2.806670 1_555
Ba1 Mg0 3.036567 1_455
Ba1 Mg0 3.036567 1_555
Ba1 O2 3.343124 1_555
Ba1 O0 3.343124 1_455
Mg0 O6 1.946822 1_555
Mg0 O8 1.946822 1_555
Mg0 O10 2.068296 1_555
Mg0 O5 2.068296 1_555
Nb0 O0 1.817956 1_555
Nb0 O9 1.994136 1_554
Nb0 O4 2.006057 1_555
Nb0 O7 2.046947 1_555
Nb0 O5 2.050775 1_555
Nb1 O1 1.812803 1_555
Nb1 O4 1.959142 1_565
Nb1 O5 2.026151 1_555
Nb1 O6 2.030548 1_565
Nb1 O8 2.178356 1_555
Nb2 O2 1.817956 1_555
Nb2 O7 1.994136 1_556
Nb2 O11 2.006057 1_555
Nb2 O9 2.046947 1_555
Nb2 O10 2.050775 1_555
Nb3 O3 1.812803 1_555
Nb3 O11 1.959142 1_545
Nb3 O10 2.026151 1_555
Nb3 O8 2.030548 1_545
Nb3 O6 2.178356 1_555
