# generated using pymatgen
data_K4MgV6O16
_symmetry_space_group_name_H-M   'P 1'
_cell_length_a   5.93827800
_cell_length_b   8.88914300
_cell_length_c   8.88914300
_cell_angle_alpha   90.00000000
_cell_angle_beta   90.00000000
_cell_angle_gamma   90.00000000
_symmetry_Int_Tables_number   1
_chemical_formula_structural   K4MgV6O16
_chemical_formula_sum   'K4 Mg1 V6 O16'
_cell_volume   469.22410081
_cell_formula_units_Z   1
loop_
 _symmetry_equiv_pos_site_id
 _symmetry_equiv_pos_as_xyz
  1  'x, y, z'
loop_
 _atom_site_type_symbol
 _atom_site_label
 _atom_site_symmetry_multiplicity
 _atom_site_fract_x
 _atom_site_fract_y
 _atom_site_fract_z
 _atom_site_occupancy
  K  K0  1  0.16074200  0.70329300  0.12684200  1
  K  K1  1  0.16074200  0.87315800  0.70329300  1
  K  K2  1  0.16074200  0.12684200  0.29670700  1
  K  K3  1  0.16074200  0.29670700  0.87315800  1
  Mg  Mg0  1  0.33138400  0.50000000  0.50000000  1
  V  V0  1  0.63740700  0.86104700  0.36568100  1
  V  V1  1  0.63740700  0.36568100  0.13895300  1
  V  V2  1  0.63740700  0.13895300  0.63431900  1
  V  V3  1  0.63740700  0.63431900  0.86104700  1
  V  V4  1  0.62522500  0.00000000  0.00000000  1
  V  V5  1  0.72866700  0.50000000  0.50000000  1
  O  O0  1  0.02524000  0.50000000  0.50000000  1
  O  O1  1  0.90622800  0.00000000  0.00000000  1
  O  O2  1  0.52879100  0.50000000  0.00000000  1
  O  O3  1  0.52879100  0.00000000  0.50000000  1
  O  O4  1  0.92044700  0.63781300  0.86633800  1
  O  O5  1  0.92044700  0.13366200  0.63781300  1
  O  O6  1  0.92044700  0.86633800  0.36218700  1
  O  O7  1  0.92044700  0.36218700  0.13366200  1
  O  O8  1  0.53921500  0.58153400  0.67893100  1
  O  O9  1  0.53921500  0.41846600  0.32106900  1
  O  O10  1  0.51600700  0.18958800  0.09383000  1
  O  O11  1  0.51600700  0.90617000  0.18958800  1
  O  O12  1  0.51600700  0.09383000  0.81041200  1
  O  O13  1  0.51600700  0.81041200  0.90617000  1
  O  O14  1  0.53921500  0.32106900  0.58153400  1
  O  O15  1  0.53921500  0.67893100  0.41846600  1
loop_
_geom_bond_atom_site_label_1
_geom_bond_atom_site_label_2
_geom_bond_distance
_geom_bond_site_symmetry_2
K0 O4 2.781585 1_454
K0 O11 2.830906 1_555
K0 O6 2.917746 1_455
K0 O13 3.034002 1_554
K0 O2 3.051828 1_555
K0 O1 3.242191 1_465
K0 O7 3.351671 1_455
K1 O5 2.781585 1_465
K1 O13 2.830906 1_555
K1 O4 2.917746 1_455
K1 O12 3.034002 1_565
K1 O3 3.051828 1_565
K1 O1 3.242191 1_466
K1 O6 3.351671 1_455
K2 O6 2.781585 1_445
K2 O10 2.830906 1_555
K2 O7 2.917746 1_455
K2 O11 3.034002 1_545
K2 O3 3.051828 1_555
K2 O1 3.242191 1_455
K2 O5 3.351671 1_455
K3 O7 2.781585 1_456
K3 O12 2.830906 1_555
K3 O5 2.917746 1_455
K3 O10 3.034002 1_556
K3 O2 3.051828 1_556
K3 O1 3.242191 1_456
K3 O4 3.351671 1_455
Mg0 O0 1.817968 1_555
Mg0 O8 2.139687 1_555
Mg0 O15 2.139687 1_555
Mg0 O14 2.139687 1_555
Mg0 O9 2.139687 1_555
O0 V5 1.761133 1_455
O1 V4 1.668674 1_555
O2 V3 1.835009 1_554
O2 V1 1.835009 1_555
O3 V2 1.835009 1_555
O3 V0 1.835009 1_545
O4 V3 1.681715 1_555
O5 V2 1.681715 1_555
O6 V0 1.681715 1_555
O7 V1 1.681715 1_555
O8 V3 1.783493 1_555
O8 V5 2.078649 1_555
O9 V1 1.783493 1_555
O9 V5 2.078649 1_555
O10 V1 1.769408 1_555
O10 V4 1.989085 1_555
O11 V0 1.769408 1_555
O11 V4 1.989085 1_565
O12 V2 1.769408 1_555
O12 V4 1.989085 1_556
O13 V3 1.769408 1_555
O13 V4 1.989085 1_566
O14 V2 1.783493 1_555
O14 V5 2.078649 1_555
O15 V0 1.783493 1_555
O15 V5 2.078649 1_555
