# generated using pymatgen
data_Na10Mg6Si3Sn2(S3O16)3
_symmetry_space_group_name_H-M   'P 1'
_cell_length_a   17.80600269
_cell_length_b   8.94160881
_cell_length_c   22.39850537
_cell_angle_alpha   90.14768443
_cell_angle_beta   89.78438302
_cell_angle_gamma   120.03844238
_symmetry_Int_Tables_number   1
_chemical_formula_structural   Na10Mg6Si3Sn2(S3O16)3
_chemical_formula_sum   'Na30 Mg18 Si9 Sn6 S27 O144'
_cell_volume   3087.16749903
_cell_formula_units_Z   3
loop_
 _symmetry_equiv_pos_site_id
 _symmetry_equiv_pos_as_xyz
  1  'x, y, z'
loop_
 _atom_site_type_symbol
 _atom_site_label
 _atom_site_symmetry_multiplicity
 _atom_site_fract_x
 _atom_site_fract_y
 _atom_site_fract_z
 _atom_site_occupancy
  Na  Na0  1  0.31581854  0.00108009  0.24381617  1
  Na  Na1  1  0.18876075  0.35812696  0.24926718  1
  Na  Na2  1  0.49711924  0.63595251  0.25465340  1
  Na  Na3  1  0.30868166  0.61674132  0.74001577  1
  Na  Na4  1  0.81514813  0.63103094  0.74322690  1
  Na  Na5  1  0.00229508  0.35226674  0.75315345  1
  Na  Na6  1  0.18241744  0.01657284  0.75665053  1
  Na  Na7  1  0.68942302  0.02114178  0.74903149  1
  Na  Na8  1  0.16382300  0.35243229  0.58998389  1
  Na  Na9  1  0.83011765  0.70005070  0.08117135  1
  Na  Na10  1  0.48252579  0.65144361  0.91778094  1
  Na  Na11  1  0.35286745  0.04270238  0.91765100  1
  Na  Na12  1  0.85490867  0.03966672  0.92169889  1
  Na  Na13  1  0.65973820  0.30308128  0.91701524  1
  Na  Na14  1  0.98097655  0.31099827  0.41616353  1
  Na  Na15  1  0.15877878  0.01590716  0.41570835  1
  Na  Na16  1  0.35507034  0.66906783  0.42316276  1
  Na  Na17  1  0.85207716  0.66255268  0.41606798  1
  Na  Na18  1  0.99368826  0.97103570  0.49811734  1
  Na  Na19  1  0.50465230  0.00206828  0.50075890  1
  Na  Na20  1  0.01075856  0.02241126  0.99969666  1
  Na  Na21  1  0.49958412  0.01609658  0.99858918  1
  Na  Na22  1  0.32811473  0.32861803  0.83471808  1
  Na  Na23  1  0.83471216  0.33261616  0.82813604  1
  Na  Na24  1  0.33401326  0.33417865  0.32832642  1
  Na  Na25  1  0.83047242  0.33438140  0.33373159  1
  Na  Na26  1  0.16214888  0.67317776  0.16157110  1
  Na  Na27  1  0.67843188  0.69735913  0.16207229  1
  Na  Na28  1  0.17516670  0.66391570  0.66126255  1
  Na  Na29  1  0.66299698  0.65087664  0.66108109  1
  Mg  Mg0  1  0.00065838  0.98577941  0.34900986  1
  Mg  Mg1  1  0.50385686  0.00142530  0.35184761  1
  Mg  Mg2  1  0.00551517  0.01371147  0.85026834  1
  Mg  Mg3  1  0.50334383  0.01692188  0.85034642  1
  Mg  Mg4  1  0.33295882  0.34458362  0.68011213  1
  Mg  Mg5  1  0.83049965  0.32329531  0.68347047  1
  Mg  Mg6  1  0.33044234  0.33681564  0.18366984  1
  Mg  Mg7  1  0.83240297  0.31913941  0.18096359  1
  Mg  Mg8  1  0.33045833  0.32919739  0.98236767  1
  Mg  Mg9  1  0.84092734  0.32384098  0.98962994  1
  Mg  Mg10  1  0.34386016  0.35549430  0.48844510  1
  Mg  Mg11  1  0.82959738  0.33167139  0.48204077  1
  Mg  Mg12  1  0.16463306  0.66339518  0.01668078  1
  Mg  Mg13  1  0.66367036  0.66448817  0.02094519  1
  Mg  Mg14  1  0.16929117  0.68091300  0.52011450  1
  Mg  Mg15  1  0.66377373  0.66417709  0.51671034  1
  Mg  Mg16  1  0.67060760  0.66781983  0.31812161  1
  Mg  Mg17  1  0.16551811  0.65474748  0.81800304  1
  Si  Si0  1  0.14782508  0.00442885  0.25089738  1
  Si  Si1  1  0.35313663  0.70575014  0.25594607  1
  Si  Si2  1  0.15167916  0.29762043  0.75028231  1
  Si  Si3  1  0.64773344  0.29157551  0.75096897  1
  Si  Si4  1  0.85067205  0.99823490  0.75687771  1
  Si  Si5  1  0.33354919  0.63990223  0.58235951  1
  Si  Si6  1  0.83059747  0.02999542  0.08240096  1
  Si  Si7  1  0.51713551  0.37094711  0.92089411  1
  Si  Si8  1  0.01684543  0.66347103  0.42064653  1
  Sn  Sn0  1  0.99411457  0.00257079  0.65271683  1
  Sn  Sn1  1  0.50034790  0.00631528  0.64538055  1
  Sn  Sn2  1  -0.00013070  0.00015313  0.14830105  1
  Sn  Sn3  1  0.49627609  0.99524505  0.15079549  1
  Sn  Sn4  1  0.16089884  0.67254716  0.31439956  1
  Sn  Sn5  1  0.66098932  0.64978418  0.81518975  1
  S  S0  1  0.64882585  0.00249837  0.25146437  1
  S  S1  1  0.84739921  0.69493692  0.25033359  1
  S  S2  1  0.99643840  0.29059460  0.25334050  1
  S  S3  1  0.50565012  0.29848154  0.25026518  1
  S  S4  1  0.00190449  0.70958844  0.75086001  1
  S  S5  1  0.49899605  0.70890659  0.75220155  1
  S  S6  1  0.35147669  0.00079555  0.75182397  1
  S  S7  1  0.48215521  0.33849441  0.58359232  1
  S  S8  1  0.97794509  0.32865892  0.58264238  1
  S  S9  1  0.18349090  0.03687630  0.58469304  1
  S  S10  1  0.68773077  0.03596501  0.58239349  1
  S  S11  1  0.83467443  0.63222369  0.58385662  1
  S  S12  1  0.47925613  0.62943536  0.08446365  1
  S  S13  1  0.98175003  0.62531335  0.08408947  1
  S  S14  1  0.33419288  0.03725872  0.08328299  1
  S  S15  1  0.18784485  0.34005904  0.08271041  1
  S  S16  1  0.68373654  0.32527871  0.08454895  1
  S  S17  1  0.31283378  0.66547192  0.91648201  1
  S  S18  1  0.81810589  0.66403511  0.91876961  1
  S  S19  1  0.01879823  0.37424155  0.91677906  1
  S  S20  1  0.16368994  0.95363910  0.91696948  1
  S  S21  1  0.66648858  0.96039973  0.91699684  1
  S  S22  1  0.31762913  0.97026739  0.41783079  1
  S  S23  1  0.81108267  0.95792944  0.41694756  1
  S  S24  1  0.16634100  0.37178946  0.41729595  1
  S  S25  1  0.66396065  0.37225902  0.41742082  1
  S  S26  1  0.52099584  0.66633417  0.41490587  1
  O  O0  1  0.10928992  0.04276011  0.31007767  1
  O  O1  1  0.60468587  0.02477729  0.30280627  1
  O  O2  1  0.41181519  0.79490704  0.31326564  1
  O  O3  1  0.90101950  0.78316538  0.30314464  1
  O  O4  1  0.49177085  0.18478910  0.30083952  1
  O  O5  1  0.98659001  0.18997464  0.30751350  1
  O  O6  1  0.10257988  0.15709094  0.80111250  1
  O  O7  1  0.61008461  0.17634633  0.81015596  1
  O  O8  1  0.48534152  0.78596607  0.80656475  1
  O  O9  1  0.98262587  0.78706756  0.80168505  1
  O  O10  1  0.40185530  0.01899255  0.80606094  1
  O  O11  1  0.90680829  0.02389336  0.81526830  1
  O  O12  1  0.38926361  0.95827070  0.69864916  1
  O  O13  1  0.88521071  0.93085267  0.69783780  1
  O  O14  1  0.09035960  0.22231159  0.68622386  1
  O  O15  1  0.58546218  0.19963305  0.69224592  1
  O  O16  1  0.02125960  0.82007867  0.69523050  1
  O  O17  1  0.51215934  0.81899524  0.69890787  1
  O  O18  1  0.39039298  0.84230174  0.19716180  1
  O  O19  1  0.88680675  0.80164376  0.19418233  1
  O  O20  1  0.01098266  0.20917315  0.19930718  1
  O  O21  1  0.52341891  0.22770366  0.19360392  1
  O  O22  1  0.08639579  0.97425456  0.19208324  1
  O  O23  1  0.59171598  0.96512229  0.19539685  1
  O  O24  1  0.43910074  0.34817460  0.63818750  1
  O  O25  1  0.93599943  0.33857517  0.63791966  1
  O  O26  1  0.23232194  0.12219249  0.63927015  1
  O  O27  1  0.73335527  0.11044349  0.63923466  1
  O  O28  1  0.32023401  0.52568962  0.64185779  1
  O  O29  1  0.82917585  0.53640286  0.63860672  1
  O  O30  1  0.43623022  0.53281287  0.13908877  1
  O  O31  1  0.94047989  0.53013710  0.13870594  1
  O  O32  1  0.32899578  0.12174204  0.13838024  1
  O  O33  1  0.82249057  0.12617239  0.13972757  1
  O  O34  1  0.23391740  0.35743214  0.13929153  1
  O  O35  1  0.73725284  0.34580849  0.13659033  1
  O  O36  1  0.23234795  0.31803191  0.03125545  1
  O  O37  1  0.72140806  0.30193456  0.02863930  1
  O  O38  1  0.42761754  0.55105181  0.03032838  1
  O  O39  1  0.92643944  0.54655869  0.03110308  1
  O  O40  1  0.34369456  0.13868008  0.02932881  1
  O  O41  1  0.84845148  0.12915104  0.01882416  1
  O  O42  1  0.22516893  0.14301994  0.53086352  1
  O  O43  1  0.73252424  0.14648911  0.53124565  1
  O  O44  1  0.34735901  0.55903794  0.52072281  1
  O  O45  1  0.84458750  0.55051831  0.52967406  1
  O  O46  1  0.43041014  0.31332941  0.52983642  1
  O  O47  1  0.92708096  0.30884510  0.52890472  1
  O  O48  1  0.27074745  0.69656552  0.96788383  1
  O  O49  1  0.77515339  0.69354972  0.96978848  1
  O  O50  1  0.07129068  0.46661323  0.96867147  1
  O  O51  1  0.58724781  0.46901540  0.97187332  1
  O  O52  1  0.15711586  0.84775560  0.96894489  1
  O  O53  1  0.65883376  0.85195189  0.96745096  1
  O  O54  1  0.27409230  0.84988329  0.46679058  1
  O  O55  1  0.77145717  0.84587994  0.46950850  1
  O  O56  1  0.15886714  0.46201680  0.46938147  1
  O  O57  1  0.65335240  0.45522222  0.47116481  1
  O  O58  1  0.08709109  0.70772337  0.47180155  1
  O  O59  1  0.57270975  0.67818404  0.46708232  1
  O  O60  1  0.05467373  0.60775728  0.35936726  1
  O  O61  1  0.56125857  0.65296008  0.35835730  1
  O  O62  1  0.26502700  0.89719905  0.36001302  1
  O  O63  1  0.76078786  0.87823123  0.36247599  1
  O  O64  1  0.18444219  0.48067294  0.36148366  1
  O  O65  1  0.67950314  0.48218468  0.36397924  1
  O  O66  1  0.05792374  0.46602379  0.85995432  1
  O  O67  1  0.55437688  0.50155636  0.85959125  1
  O  O68  1  0.17786468  0.87722156  0.86119320  1
  O  O69  1  0.68418040  0.89020095  0.86018899  1
  O  O70  1  0.26521748  0.64702755  0.86046545  1
  O  O71  1  0.76384747  0.63302440  0.86188050  1
  O  O72  1  0.00451840  0.83244296  0.41228823  1
  O  O73  1  0.51067969  0.82275560  0.41427022  1
  O  O74  1  0.40466593  0.99048549  0.41048956  1
  O  O75  1  0.90107661  0.98206840  0.41122495  1
  O  O76  1  0.08396943  0.20458816  0.41150926  1
  O  O77  1  0.58652946  0.19827185  0.41063077  1
  O  O78  1  0.00902662  0.19794588  0.91600867  1
  O  O79  1  0.50512791  0.17741168  0.91297516  1
  O  O80  1  0.08518143  0.96932932  0.91329645  1
  O  O81  1  0.58392675  0.96339436  0.91188923  1
  O  O82  1  0.40281088  0.82040996  0.91213025  1
  O  O83  1  0.90447510  0.81811127  0.91145707  1
  O  O84  1  0.49353670  0.18071982  0.58516521  1
  O  O85  1  0.98734437  0.16590829  0.58404107  1
  O  O86  1  0.09414426  0.02637846  0.58708324  1
  O  O87  1  0.59884135  0.02064266  0.58434794  1
  O  O88  1  0.42419660  0.83593315  0.58708009  1
  O  O89  1  0.91844893  0.81076079  0.58610436  1
  O  O90  1  0.48849062  0.81087878  0.08768877  1
  O  O91  1  0.99001641  0.80357139  0.08639514  1
  O  O92  1  0.41791043  0.02583438  0.08481317  1
  O  O93  1  0.92193257  0.00432920  0.08786392  1
  O  O94  1  0.09890599  0.17860997  0.08495812  1
  O  O95  1  0.59338476  0.16164436  0.08939006  1
  O  O96  1  0.34516149  0.15684616  0.74290274  1
  O  O97  1  0.84656687  0.17199391  0.74384116  1
  O  O98  1  0.24836519  0.31991414  0.74457747  1
  O  O99  1  0.74607005  0.32639417  0.74152438  1
  O  O100  1  0.42582129  0.53381333  0.74468767  1
  O  O101  1  0.92649718  0.53489705  0.74081509  1
  O  O102  1  0.34671526  0.52101255  0.24399336  1
  O  O103  1  0.84059622  0.52463418  0.24343573  1
  O  O104  1  0.42533166  0.30924900  0.24228585  1
  O  O105  1  0.92401707  0.32171151  0.24666773  1
  O  O106  1  0.24592407  0.16646668  0.24171385  1
  O  O107  1  0.73388313  0.15658731  0.24402984  1
  O  O108  1  0.32222544  0.51067273  0.92352539  1
  O  O109  1  0.82203257  0.50310901  0.92474379  1
  O  O110  1  0.42041401  0.35024841  0.92479040  1
  O  O111  1  0.93003807  0.35468600  0.91977183  1
  O  O112  1  0.24325586  0.12878073  0.92237819  1
  O  O113  1  0.74054703  0.14044879  0.92104016  1
  O  O114  1  0.32125954  0.13836413  0.42518134  1
  O  O115  1  0.82124765  0.13223247  0.42391066  1
  O  O116  1  0.24065991  0.33956073  0.42071024  1
  O  O117  1  0.74371283  0.35657458  0.42285015  1
  O  O118  1  0.43179924  0.50904836  0.41743193  1
  O  O119  1  0.92025491  0.49124296  0.42442312  1
  O  O120  1  0.17634012  0.49210664  0.07624936  1
  O  O121  1  0.67220711  0.47696215  0.08122755  1
  O  O122  1  0.06942915  0.64790066  0.07745045  1
  O  O123  1  0.56653436  0.65254567  0.08050794  1
  O  O124  1  0.25886270  0.86082392  0.07927069  1
  O  O125  1  0.75057087  0.82876208  0.07884030  1
  O  O126  1  0.17035350  0.86242294  0.58128353  1
  O  O127  1  0.67596761  0.86087428  0.57587049  1
  O  O128  1  0.24506208  0.65349535  0.57834044  1
  O  O129  1  0.75904441  0.65738250  0.57979245  1
  O  O130  1  0.06669181  0.47782737  0.57908735  1
  O  O131  1  0.56970249  0.49420180  0.57925821  1
  O  O132  1  0.15761079  0.82886819  0.25161898  1
  O  O133  1  0.65421300  0.84193349  0.25605441  1
  O  O134  1  0.25204948  0.67319664  0.25939962  1
  O  O135  1  0.76046932  0.67796642  0.25524289  1
  O  O136  1  0.08192362  0.46003707  0.25449269  1
  O  O137  1  0.57953444  0.47595276  0.25671425  1
  O  O138  1  0.15858462  0.48767090  0.75494049  1
  O  O139  1  0.65687247  0.48604956  0.75223235  1
  O  O140  1  0.08063716  0.69485053  0.75839288  1
  O  O141  1  0.58311528  0.70866414  0.75474624  1
  O  O142  1  0.26201311  0.84777949  0.75669526  1
  O  O143  1  0.74935790  0.83014702  0.75971087  1
loop_
_geom_bond_atom_site_label_1
_geom_bond_atom_site_label_2
_geom_bond_distance
_geom_bond_site_symmetry_2
Na0 O106 2.362500 1_555
Na0 O132 2.447908 1_545
Na0 O104 2.452968 1_555
Na0 O32 2.559651 1_555
Na0 O134 2.583806 1_545
Na0 O18 2.596192 1_545
Na0 O62 2.758286 1_545
Na1 O106 2.396907 1_555
Na1 O102 2.437802 1_555
Na1 O134 2.465439 1_555
Na1 O136 2.489225 1_555
Na1 O34 2.589279 1_555
Na1 O64 2.755520 1_555
Na1 O0 2.796377 1_555
Na1 O20 2.973990 1_555
Na2 O102 2.352319 1_555
Na2 O133 2.461723 1_555
Na2 O137 2.511010 1_555
Na2 O104 2.550383 1_555
Na2 O61 2.562647 1_555
Na2 O30 2.781001 1_555
Na2 O2 2.861382 1_555
Na2 O23 2.881270 1_555
Na3 O98 2.314082 1_555
Na3 O138 2.343894 1_555
Na3 O28 2.386209 1_555
Na3 O100 2.542002 1_555
Na3 O142 2.609638 1_555
Na3 O12 2.803718 1_555
Na3 O70 2.853290 1_555
Na4 O99 2.362137 1_555
Na4 O139 2.450134 1_555
Na4 O101 2.525485 1_555
Na4 O13 2.536375 1_555
Na4 O29 2.542932 1_555
Na4 O143 2.600000 1_555
Na4 O71 2.809926 1_555
Na4 O9 2.899744 1_555
Na5 O138 2.416464 1_555
Na5 O97 2.420432 1_455
Na5 O66 2.595166 1_555
Na5 O101 2.603145 1_455
Na5 O140 2.657911 1_555
Na5 O14 2.802510 1_555
Na5 O25 2.819040 1_455
Na5 O11 2.907387 1_455
Na6 O98 2.370987 1_555
Na6 O140 2.518325 1_545
Na6 O6 2.522402 1_555
Na6 O96 2.534124 1_555
Na6 O142 2.535391 1_545
Na6 O68 2.637181 1_545
Na6 O26 2.783696 1_555
Na6 O16 2.860708 1_545
Na7 O99 2.395905 1_555
Na7 O97 2.425293 1_555
Na7 O143 2.437504 1_545
Na7 O141 2.472087 1_545
Na7 O27 2.582227 1_555
Na7 O69 2.735381 1_545
Na7 O7 2.781100 1_555
Na7 O17 2.965563 1_545
Na8 O128 2.347228 1_555
Na8 O14 2.485868 1_555
Na8 O130 2.500800 1_555
Na8 O86 2.534091 1_555
Na8 O28 2.683657 1_555
Na8 O85 2.725597 1_455
Na8 O56 2.892580 1_555
Na8 O42 2.911523 1_555
Na9 O125 2.228536 1_555
Na9 O93 2.375754 1_565
Na9 O121 2.503945 1_555
Na9 O91 2.517985 1_555
Na9 O49 2.673195 1_554
Na9 O19 2.709396 1_555
Na10 O110 2.349432 1_555
Na10 O81 2.452714 1_555
Na10 O108 2.479744 1_555
Na10 O82 2.542173 1_555
Na10 O67 2.612833 1_555
Na10 O38 2.689062 1_556
Na10 O8 2.758432 1_555
Na10 O53 2.947644 1_555
Na11 O79 2.353988 1_555
Na11 O110 2.392127 1_555
Na11 O112 2.432059 1_555
Na11 O82 2.554302 1_545
Na11 O40 2.673285 1_556
Na11 O10 2.686832 1_555
Na11 O48 2.908245 1_545
Na11 O68 2.983705 1_545
Na12 O41 2.338228 1_556
Na12 O78 2.379069 1_655
Na12 O111 2.439949 1_555
Na12 O83 2.550057 1_545
Na12 O11 2.582438 1_555
Na12 O113 2.606986 1_555
Na12 O49 2.891458 1_545
Na12 O69 2.979980 1_545
Na13 O79 2.398766 1_555
Na13 O113 2.507927 1_555
Na13 O109 2.531305 1_555
Na13 O7 2.606438 1_555
Na13 O81 2.637306 1_545
Na13 O51 2.696908 1_555
Na13 O37 2.736612 1_556
Na13 O71 2.862081 1_555
Na14 O119 2.354206 1_555
Na14 O76 2.454449 1_655
Na14 O115 2.473960 1_555
Na14 O75 2.548921 1_545
Na14 O60 2.626819 1_655
Na14 O5 2.682595 1_555
Na14 O47 2.694745 1_555
Na15 O72 2.394039 1_545
Na15 O116 2.507725 1_555
Na15 O114 2.538907 1_555
Na15 O0 2.581167 1_555
Na15 O76 2.623216 1_555
Na15 O58 2.699214 1_545
Na15 O42 2.829271 1_555
Na15 O62 2.871908 1_545
Na16 O44 2.373916 1_555
Na16 O73 2.406356 1_555
Na16 O118 2.425945 1_555
Na16 O74 2.565466 1_555
Na16 O116 2.612432 1_555
Na16 O2 2.683926 1_555
Na16 O54 2.821905 1_555
Na16 O64 2.978697 1_555
Na17 O72 2.356560 1_655
Na17 O119 2.391654 1_555
Na17 O117 2.438493 1_555
Na17 O75 2.537848 1_555
Na17 O45 2.715360 1_555
Na17 O3 2.715974 1_555
Na17 O65 2.908675 1_555
Na17 O55 2.917783 1_555
Na18 O72 2.343690 1_655
Na18 O89 2.409379 1_555
Na18 O86 2.559458 1_665
Na18 O75 2.589404 1_555
Na18 O85 2.632689 1_565
Na18 O76 2.710156 1_665
Na19 O88 2.420892 1_545
Na19 O87 2.467571 1_555
Na19 O84 2.542320 1_555
Na19 O73 2.547497 1_545
Na19 O77 2.591145 1_555
Na19 O74 2.666436 1_545
Na20 O94 2.423915 1_556
Na20 O78 2.458096 1_555
Na20 O93 2.479864 1_456
Na20 O80 2.516381 1_545
Na20 O91 2.650864 1_446
Na20 O83 2.715376 1_445
Na21 O79 2.374423 1_555
Na21 O92 2.440730 1_556
Na21 O95 2.540753 1_556
Na21 O82 2.601953 1_545
Na21 O81 2.632589 1_545
Na21 O90 2.653676 1_546
Na22 O98 2.451339 1_555
Na22 O110 2.552135 1_555
Na22 O112 2.573681 1_555
Na22 O108 2.601979 1_555
Na22 O96 2.669502 1_555
Na22 O100 2.693794 1_555
Na23 O97 2.441039 1_555
Na23 O99 2.488451 1_555
Na23 O101 2.608174 1_555
Na23 O111 2.611815 1_555
Na23 O113 2.683619 1_555
Na23 O109 2.716845 1_555
Na24 O102 2.458636 1_555
Na24 O106 2.475007 1_555
Na24 O118 2.596980 1_555
Na24 O104 2.597060 1_555
Na24 O116 2.664754 1_555
Na24 O114 2.727879 1_555
Na25 O119 2.532642 1_555
Na25 O117 2.586907 1_555
Na25 O103 2.593244 1_555
Na25 O105 2.598744 1_555
Na25 O107 2.606589 1_555
Na25 O115 2.663297 1_555
Na26 O122 2.444286 1_555
Na26 O132 2.471739 1_555
Na26 O124 2.505637 1_555
Na26 O120 2.593736 1_555
Na26 O136 2.697597 1_555
Na26 O134 2.718457 1_555
Na27 O125 2.233442 1_555
Na27 O123 2.586959 1_555
Na27 O135 2.607176 1_555
Na27 O133 2.612595 1_555
Na27 O121 2.634272 1_555
Na27 O137 2.831484 1_555
Na28 O128 2.259445 1_555
Na28 O138 2.553400 1_555
Na28 O126 2.556732 1_555
Na28 O130 2.584672 1_555
Na28 O142 2.669229 1_555
Na28 O140 2.842224 1_555
Na29 O131 2.400159 1_555
Na29 O129 2.474036 1_555
Na29 O139 2.491045 1_555
Na29 O127 2.608230 1_555
Na29 O143 2.711833 1_555
Na29 O141 2.720173 1_555
Mg0 O0 1.940215 1_565
Mg0 O72 1.999630 1_555
Mg0 O3 2.066742 1_455
Mg0 O5 2.174561 1_465
Mg0 O75 2.238263 1_455
Mg0 O76 2.254768 1_565
Mg1 O2 1.953268 1_545
Mg1 O1 2.021026 1_555
Mg1 O4 2.098707 1_555
Mg1 O77 2.099336 1_555
Mg1 O74 2.159746 1_545
Mg1 O73 2.174641 1_545
Mg2 O6 1.901998 1_555
Mg2 O11 1.970500 1_455
Mg2 O9 2.149948 1_445
Mg2 O80 2.178140 1_545
Mg2 O78 2.184252 1_555
Mg2 O83 2.240011 1_445
Mg3 O7 1.932889 1_555
Mg3 O79 1.993108 1_555
Mg3 O10 2.072915 1_555
Mg3 O8 2.158311 1_545
Mg3 O81 2.212219 1_545
Mg3 O82 2.247628 1_545
Mg4 O28 1.945214 1_555
Mg4 O98 2.013721 1_555
Mg4 O24 2.093047 1_555
Mg4 O26 2.106576 1_555
Mg4 O100 2.212113 1_555
Mg4 O96 2.285346 1_555
Mg5 O99 1.994613 1_555
Mg5 O97 2.034809 1_555
Mg5 O27 2.074439 1_555
Mg5 O25 2.077939 1_555
Mg5 O29 2.167114 1_555
Mg5 O101 2.217557 1_555
Mg6 O106 1.993919 1_555
Mg6 O102 2.033700 1_555
Mg6 O30 2.075210 1_555
Mg6 O34 2.075344 1_555
Mg6 O32 2.160691 1_555
Mg6 O104 2.252678 1_555
Mg7 O33 1.884007 1_555
Mg7 O35 2.081714 1_555
Mg7 O31 2.125865 1_555
Mg7 O107 2.150487 1_555
Mg7 O105 2.192662 1_555
Mg7 O103 2.252869 1_555
Mg8 O110 1.986977 1_555
Mg8 O36 2.018024 1_556
Mg8 O40 2.115902 1_556
Mg8 O108 2.154597 1_555
Mg8 O112 2.155308 1_555
Mg8 O38 2.156222 1_556
Mg9 O41 1.927719 1_556
Mg9 O39 2.027943 1_556
Mg9 O111 2.141834 1_555
Mg9 O37 2.213689 1_556
Mg9 O113 2.305919 1_555
Mg9 O109 2.313108 1_555
Mg10 O44 1.928480 1_555
Mg10 O46 1.992723 1_555
Mg10 O118 2.169586 1_555
Mg10 O42 2.225543 1_555
Mg10 O114 2.268736 1_555
Mg10 O116 2.335925 1_555
Mg11 O119 1.998758 1_555
Mg11 O43 2.018355 1_555
Mg11 O117 2.122174 1_555
Mg11 O45 2.123029 1_555
Mg11 O47 2.127435 1_555
Mg11 O115 2.149791 1_555
Mg12 O50 2.022527 1_554
Mg12 O52 2.027236 1_554
Mg12 O48 2.068271 1_554
Mg12 O122 2.119929 1_555
Mg12 O120 2.121726 1_555
Mg12 O124 2.221824 1_555
Mg13 O51 1.932598 1_554
Mg13 O125 1.990794 1_555
Mg13 O53 2.099636 1_554
Mg13 O123 2.140387 1_555
Mg13 O49 2.188364 1_554
Mg13 O121 2.219513 1_555
Mg14 O58 1.932698 1_555
Mg14 O128 1.981739 1_555
Mg14 O54 2.088392 1_555
Mg14 O126 2.114146 1_555
Mg14 O56 2.187029 1_555
Mg14 O130 2.247825 1_555
Mg15 O59 2.024387 1_555
Mg15 O57 2.051957 1_555
Mg15 O55 2.075735 1_555
Mg15 O127 2.122310 1_555
Mg15 O131 2.126730 1_555
Mg15 O129 2.235958 1_555
Mg16 O63 2.020625 1_555
Mg16 O65 2.026952 1_555
Mg16 O61 2.085505 1_555
Mg16 O135 2.095328 1_555
Mg16 O137 2.164286 1_555
Mg16 O133 2.216062 1_555
Mg17 O138 2.011973 1_555
Mg17 O66 2.039334 1_555
Mg17 O70 2.048556 1_555
Mg17 O68 2.120200 1_555
Mg17 O140 2.180788 1_555
Mg17 O142 2.200542 1_555
O0 Si0 1.603630 1_555
O1 S0 1.458985 1_555
O2 Si1 1.595758 1_555
O3 S1 1.477419 1_555
O4 S3 1.459470 1_555
O5 S2 1.469223 1_555
O6 Si2 1.593596 1_555
O7 Si3 1.605401 1_555
O8 S5 1.475715 1_555
O9 S4 1.457685 1_655
O10 S6 1.472419 1_555
O11 Si4 1.594040 1_545
O12 S6 1.504535 1_565
O12 Sn1 2.157464 1_565
O13 Si4 1.688410 1_555
O13 Sn0 1.984068 1_565
O14 Si2 1.724820 1_555
O14 Sn0 1.997922 1_455
O15 Si3 1.651706 1_555
O15 Sn1 1.940769 1_555
O16 S4 1.519747 1_555
O16 Sn0 2.145733 1_465
O17 S5 1.490570 1_555
O17 Sn1 2.156856 1_565
O18 Si1 1.689772 1_555
O18 Sn3 1.978533 1_555
O19 S1 1.521124 1_555
O19 Sn2 2.162390 1_665
O20 S2 1.497903 1_455
O20 Sn2 2.111366 1_555
O21 S3 1.518095 1_555
O21 Sn3 2.112066 1_545
O22 Si0 1.648689 1_565
O22 Sn2 1.938758 1_565
O23 S0 1.545989 1_565
O23 Sn3 2.104982 1_555
O24 S7 1.466085 1_555
O25 S8 1.468821 1_555
O26 S9 1.473588 1_555
O27 S10 1.478572 1_555
O28 Si5 1.624007 1_555
O29 S11 1.472437 1_555
O30 S12 1.471767 1_555
O31 S13 1.460577 1_555
O32 S14 1.471915 1_555
O33 Si6 1.589442 1_555
O34 S15 1.477325 1_555
O35 S16 1.460344 1_555
O36 S15 1.463976 1_555
O37 S16 1.481303 1_555
O38 S12 1.471653 1_555
O39 S13 1.478013 1_555
O40 S14 1.470372 1_555
O41 Si6 1.623547 1_555
O42 S9 1.482984 1_555
O43 S10 1.461202 1_555
O44 Si5 1.630814 1_555
O45 S11 1.469921 1_555
O46 S7 1.465841 1_555
O47 S8 1.465222 1_555
O48 S17 1.471353 1_555
O49 S18 1.467786 1_555
O50 S19 1.461890 1_555
O51 Si7 1.594019 1_555
O52 S20 1.469377 1_555
O53 S21 1.451956 1_555
O54 S22 1.458252 1_555
O55 S23 1.476393 1_555
O56 S24 1.459833 1_555
O57 S25 1.472771 1_555
O58 Si8 1.595887 1_555
O59 S26 1.461066 1_555
O60 Si8 1.706242 1_555
O60 Sn4 1.954299 1_555
O61 S26 1.486867 1_555
O62 S22 1.540572 1_555
O62 Sn4 2.188953 1_555
O63 S23 1.470801 1_555
O64 S24 1.517770 1_555
O64 Sn4 2.228042 1_555
O65 S25 1.485523 1_555
O66 S19 1.484978 1_555
O67 Si7 1.707362 1_555
O67 Sn5 1.955266 1_555
O68 S20 1.502414 1_555
O69 S21 1.517595 1_555
O69 Sn5 2.216057 1_555
O70 S17 1.478934 1_555
O71 S18 1.540516 1_555
O71 Sn5 2.181865 1_555
O72 Si8 1.643098 1_555
O73 S26 1.499177 1_555
O74 S22 1.476234 1_555
O75 S23 1.511003 1_555
O76 S24 1.486031 1_555
O77 S25 1.482316 1_555
O78 S19 1.496927 1_555
O79 Si7 1.643211 1_555
O80 S20 1.475776 1_555
O81 S21 1.488516 1_555
O82 S17 1.507649 1_555
O83 S18 1.472424 1_555
O84 S7 1.522858 1_555
O84 Sn1 2.113557 1_555
O85 S8 1.546242 1_555
O85 Sn0 2.168641 1_555
O86 S9 1.546783 1_555
O86 Sn0 2.231864 1_455
O87 S10 1.519290 1_555
O87 Sn1 2.172293 1_555
O88 Si5 1.690168 1_555
O88 Sn1 1.949293 1_565
O89 S11 1.546684 1_555
O89 Sn0 2.161340 1_565
O90 S12 1.548170 1_555
O90 Sn3 2.120261 1_555
O91 S13 1.526317 1_555
O91 Sn2 2.173402 1_665
O92 S14 1.544855 1_555
O92 Sn3 2.146115 1_545
O93 Si6 1.757227 1_555
O93 Sn2 1.956018 1_655
O94 S15 1.518366 1_555
O94 Sn2 2.201042 1_555
O95 S16 1.543914 1_555
O95 Sn3 2.124210 1_545
O96 S6 1.469098 1_555
O97 Si4 1.618871 1_545
O98 Si2 1.635492 1_555
O99 Si3 1.630765 1_555
O100 S5 1.461218 1_555
O101 S4 1.481242 1_655
O102 Si1 1.619328 1_555
O103 S1 1.473655 1_555
O104 S3 1.492115 1_555
O105 S2 1.457233 1_555
O106 Si0 1.630264 1_555
O107 S0 1.459455 1_555
O108 S17 1.483846 1_555
O109 S18 1.481596 1_555
O110 Si7 1.639438 1_555
O111 S19 1.501839 1_655
O112 S20 1.501134 1_545
O113 S21 1.487849 1_545
O114 S22 1.480537 1_545
O115 S23 1.484149 1_545
O116 S24 1.490888 1_555
O117 S25 1.500608 1_555
O118 S26 1.505684 1_555
O119 Si8 1.638488 1_655
O120 S15 1.480322 1_555
O121 S16 1.471941 1_555
O122 S13 1.477505 1_455
O123 S12 1.463984 1_555
O124 S14 1.475710 1_565
O125 Si6 1.645497 1_565
O126 S9 1.458773 1_565
O127 S10 1.478867 1_565
O128 Si5 1.642635 1_555
O129 S11 1.475377 1_555
O130 S8 1.473746 1_455
O131 S7 1.484784 1_555
O132 Si0 1.663994 1_565
O132 Sn4 2.006794 1_555
O133 S0 1.489880 1_565
O134 Si1 1.674839 1_555
O134 Sn4 2.031607 1_555
O135 S1 1.481446 1_555
O136 S2 1.517999 1_455
O136 Sn4 2.171297 1_555
O137 S3 1.476469 1_555
O138 Si2 1.644326 1_555
O139 Si3 1.663602 1_555
O139 Sn5 2.005002 1_555
O140 S4 1.482583 1_555
O141 S5 1.500211 1_555
O141 Sn5 2.186662 1_555
O142 S6 1.496296 1_565
O143 Si4 1.674064 1_555
O143 Sn5 2.018909 1_555
