# generated using pymatgen
data_K5V3F14
_symmetry_space_group_name_H-M   'P 1'
_cell_length_a   7.78491800
_cell_length_b   7.78491800
_cell_length_c   11.93086500
_cell_angle_alpha   90.00000000
_cell_angle_beta   90.00000000
_cell_angle_gamma   90.00000000
_symmetry_Int_Tables_number   1
_chemical_formula_structural   K5V3F14
_chemical_formula_sum   'K10 V6 F28'
_cell_volume   723.06945610
_cell_formula_units_Z   2
loop_
 _symmetry_equiv_pos_site_id
 _symmetry_equiv_pos_as_xyz
  1  'x, y, z'
loop_
 _atom_site_type_symbol
 _atom_site_label
 _atom_site_symmetry_multiplicity
 _atom_site_fract_x
 _atom_site_fract_y
 _atom_site_fract_z
 _atom_site_occupancy
  K  K0  1  0.21734300  0.28265700  0.75000000  1
  K  K1  1  0.71734300  0.21734300  0.75000000  1
  K  K2  1  0.28265700  0.78265700  0.75000000  1
  K  K3  1  0.78265700  0.71734300  0.75000000  1
  K  K4  1  0.78265700  0.71734300  0.25000000  1
  K  K5  1  0.28265700  0.78265700  0.25000000  1
  K  K6  1  0.71734300  0.21734300  0.25000000  1
  K  K7  1  0.21734300  0.28265700  0.25000000  1
  K  K8  1  0.00000000  0.00000000  0.00000000  1
  K  K9  1  0.50000000  0.50000000  0.50000000  1
  V  V0  1  0.50000000  0.50000000  0.00000000  1
  V  V1  1  0.00000000  0.00000000  0.50000000  1
  V  V2  1  0.50000000  0.00000000  0.00000000  1
  V  V3  1  0.00000000  0.50000000  0.00000000  1
  V  V4  1  0.00000000  0.50000000  0.50000000  1
  V  V5  1  0.50000000  0.00000000  0.50000000  1
  F  F0  1  0.50000000  0.50000000  0.83567500  1
  F  F1  1  0.00000000  0.00000000  0.66432500  1
  F  F2  1  0.50000000  0.50000000  0.16432500  1
  F  F3  1  0.00000000  0.00000000  0.33567500  1
  F  F4  1  0.42692300  0.74698800  0.00000000  1
  F  F5  1  0.57307700  0.25301200  0.00000000  1
  F  F6  1  0.24698800  0.92692300  0.50000000  1
  F  F7  1  0.74698800  0.57307700  0.00000000  1
  F  F8  1  0.25301200  0.42692300  0.00000000  1
  F  F9  1  0.07307700  0.24698800  0.50000000  1
  F  F10  1  0.92692300  0.75301200  0.50000000  1
  F  F11  1  0.75301200  0.07307700  0.50000000  1
  F  F12  1  0.67460700  0.95846700  0.88578900  1
  F  F13  1  0.32539300  0.04153300  0.88578900  1
  F  F14  1  0.45846700  0.17460700  0.61421100  1
  F  F15  1  0.95846700  0.32539300  0.88578900  1
  F  F16  1  0.45846700  0.17460700  0.38578900  1
  F  F17  1  0.82539300  0.45846700  0.38578900  1
  F  F18  1  0.17460700  0.54153300  0.38578900  1
  F  F19  1  0.95846700  0.32539300  0.11421100  1
  F  F20  1  0.04153300  0.67460700  0.11421100  1
  F  F21  1  0.54153300  0.82539300  0.38578900  1
  F  F22  1  0.67460700  0.95846700  0.11421100  1
  F  F23  1  0.32539300  0.04153300  0.11421100  1
  F  F24  1  0.54153300  0.82539300  0.61421100  1
  F  F25  1  0.17460700  0.54153300  0.61421100  1
  F  F26  1  0.82539300  0.45846700  0.61421100  1
  F  F27  1  0.04153300  0.67460700  0.88578900  1
loop_
_geom_bond_atom_site_label_1
_geom_bond_atom_site_label_2
_geom_bond_distance
_geom_bond_site_symmetry_2
F0 V0 1.960539 1_556
F0 K1 2.957995 1_555
F0 K0 2.957995 1_555
F0 K3 2.957995 1_555
F0 K2 2.957995 1_555
F1 V1 1.960539 1_555
F1 K2 2.957995 1_545
F1 K0 2.957995 1_555
F1 K3 2.957995 1_445
F1 K1 2.957995 1_455
F2 V0 1.960539 1_555
F2 K4 2.957995 1_555
F2 K7 2.957995 1_555
F2 K6 2.957995 1_555
F2 K5 2.957995 1_555
F3 V1 1.960539 1_555
F3 K7 2.957995 1_555
F3 K5 2.957995 1_545
F3 K4 2.957995 1_445
F3 K6 2.957995 1_455
F4 V0 2.005177 1_555
F4 V2 2.050189 1_565
F5 V0 2.005177 1_555
F5 V2 2.050189 1_555
F6 V1 2.005177 1_565
F6 V5 2.050189 1_565
F7 V0 2.005177 1_555
F7 V3 2.050189 1_655
F8 V0 2.005177 1_555
F8 V3 2.050189 1_555
F9 V1 2.005177 1_555
F9 V4 2.050189 1_555
F10 V1 2.005177 1_665
F10 V4 2.050189 1_655
F11 V1 2.005177 1_655
F11 V5 2.050189 1_555
F12 V2 1.951671 1_566
F12 K1 2.607086 1_565
F12 K3 2.618364 1_555
F12 K8 2.894514 1_666
F13 V2 1.951671 1_556
F13 K2 2.607086 1_545
F13 K0 2.618364 1_555
F13 K8 2.894514 1_556
F14 V5 1.951671 1_555
F14 K1 2.607086 1_555
F14 K0 2.618364 1_555
F14 K9 2.894514 1_555
F15 V3 1.951671 1_656
F15 K0 2.607086 1_655
F15 K1 2.618364 1_555
F15 K8 2.894514 1_656
F16 V5 1.951671 1_555
F16 K6 2.607086 1_555
F16 K7 2.618364 1_555
F16 K9 2.894514 1_555
F17 V4 1.951671 1_655
F17 K4 2.607086 1_555
F17 K6 2.618364 1_555
F17 K9 2.894514 1_555
F18 V4 1.951671 1_555
F18 K7 2.607086 1_555
F18 K5 2.618364 1_555
F18 K9 2.894514 1_555
F19 V3 1.951671 1_655
F19 K7 2.607086 1_655
F19 K6 2.618364 1_555
F19 K8 2.894514 1_655
F20 V3 1.951671 1_555
F20 K4 2.607086 1_455
F20 K5 2.618364 1_555
F20 K8 2.894514 1_565
F21 V5 1.951671 1_565
F21 K5 2.607086 1_555
F21 K4 2.618364 1_555
F21 K9 2.894514 1_555
F22 V2 1.951671 1_565
F22 K6 2.607086 1_565
F22 K4 2.618364 1_555
F22 K8 2.894514 1_665
F23 V2 1.951671 1_555
F23 K5 2.607086 1_545
F23 K7 2.618364 1_555
F23 K8 2.894514 1_555
F24 V5 1.951671 1_565
F24 K2 2.607086 1_555
F24 K3 2.618364 1_555
F24 K9 2.894514 1_555
F25 V4 1.951671 1_555
F25 K0 2.607086 1_555
F25 K2 2.618364 1_555
F25 K9 2.894514 1_555
F26 V4 1.951671 1_655
F26 K3 2.607086 1_555
F26 K1 2.618364 1_555
F26 K9 2.894514 1_555
F27 V3 1.951671 1_556
F27 K3 2.607086 1_455
F27 K2 2.618364 1_555
F27 K8 2.894514 1_566
