# generated using pymatgen
data_Cd3AsCl3
_symmetry_space_group_name_H-M   'P 1'
_cell_length_a   7.11882431
_cell_length_b   8.13165212
_cell_length_c   13.29421838
_cell_angle_alpha   90.00000000
_cell_angle_beta   90.00000000
_cell_angle_gamma   90.00000000
_symmetry_Int_Tables_number   1
_chemical_formula_structural   Cd3AsCl3
_chemical_formula_sum   'Cd12 As4 Cl12'
_cell_volume   769.57309186
_cell_formula_units_Z   4
loop_
 _symmetry_equiv_pos_site_id
 _symmetry_equiv_pos_as_xyz
  1  'x, y, z'
loop_
 _atom_site_type_symbol
 _atom_site_label
 _atom_site_symmetry_multiplicity
 _atom_site_fract_x
 _atom_site_fract_y
 _atom_site_fract_z
 _atom_site_occupancy
  Cd  Cd0  1  0.50568979  0.75000000  0.76054403  1
  Cd  Cd1  1  0.00568979  0.25000000  0.73945597  1
  Cd  Cd2  1  0.49431021  0.25000000  0.23945597  1
  Cd  Cd3  1  0.99431021  0.75000000  0.26054403  1
  Cd  Cd4  1  0.50000000  0.50000000  0.50000000  1
  Cd  Cd5  1  -0.00000000  0.50000000  -0.00000000  1
  Cd  Cd6  1  0.50000000  -0.00000000  0.50000000  1
  Cd  Cd7  1  -0.00000000  -0.00000000  -0.00000000  1
  Cd  Cd8  1  0.00127323  0.75000000  0.58757597  1
  Cd  Cd9  1  0.50127323  0.25000000  0.91242403  1
  Cd  Cd10  1  0.99872677  0.25000000  0.41242403  1
  Cd  Cd11  1  0.49872677  0.75000000  0.08757597  1
  As  As0  1  0.85429462  0.75000000  0.08350419  1
  As  As1  1  0.35429462  0.25000000  0.41649581  1
  As  As2  1  0.14570538  0.25000000  0.91649581  1
  As  As3  1  0.64570538  0.75000000  0.58350419  1
  Cl  Cl0  1  0.80158821  0.01957700  0.33239954  1
  Cl  Cl1  1  0.30158821  0.98042300  0.16760046  1
  Cl  Cl2  1  0.19841179  0.51957700  0.66760046  1
  Cl  Cl3  1  0.69841179  0.48042300  0.83239954  1
  Cl  Cl4  1  0.19841179  0.98042300  0.66760046  1
  Cl  Cl5  1  0.69841179  0.01957700  0.83239954  1
  Cl  Cl6  1  0.80158821  0.48042300  0.33239954  1
  Cl  Cl7  1  0.30158821  0.51957700  0.16760046  1
  Cl  Cl8  1  0.30542678  0.75000000  0.91762305  1
  Cl  Cl9  1  0.80542678  0.25000000  0.58237695  1
  Cl  Cl10  1  0.69457322  0.25000000  0.08237695  1
  Cl  Cl11  1  0.19457322  0.75000000  0.41762305  1
loop_
_geom_bond_atom_site_label_1
_geom_bond_atom_site_label_2
_geom_bond_distance
_geom_bond_site_symmetry_2
Cd0 Cl8 2.528478 1_555
Cd0 Cl5 2.756831 1_565
Cd0 Cl3 2.756831 1_555
Cd0 Cl4 3.134092 1_555
Cd0 Cl2 3.134092 1_555
Cd1 Cl9 2.528478 1_455
Cd1 Cl2 2.756831 1_555
Cd1 Cl4 2.756831 1_545
Cd1 Cl3 3.134092 1_455
Cd1 Cl5 3.134092 1_455
Cd2 Cl10 2.528478 1_555
Cd2 Cl1 2.756831 1_545
Cd2 Cl7 2.756831 1_555
Cd2 Cl6 3.134092 1_555
Cd2 Cl0 3.134092 1_555
Cd3 Cl11 2.528478 1_655
Cd3 Cl0 2.756831 1_565
Cd3 Cl6 2.756831 1_555
Cd3 Cl7 3.134092 1_655
Cd3 Cl1 3.134092 1_655
Cd4 Cl2 3.098267 1_555
Cd4 Cl6 3.098267 1_555
Cd4 Cl9 3.171680 1_555
Cd4 Cl11 3.171680 1_555
Cd5 Cl3 3.098267 1_454
Cd5 Cl7 3.098267 1_555
Cd5 Cl10 3.171680 1_455
Cd5 Cl8 3.171680 1_554
Cd6 Cl4 3.098267 1_545
Cd6 Cl0 3.098267 1_555
Cd6 Cl11 3.171680 1_545
Cd6 Cl9 3.171680 1_555
Cd7 Cl5 3.098267 1_454
Cd7 Cl1 3.098267 1_545
Cd7 Cl10 3.171680 1_455
Cd7 Cl8 3.171680 1_544
Cd8 Cl2 2.571410 1_555
Cd8 Cl4 2.571410 1_555
Cd8 Cl11 2.645452 1_555
Cd9 Cl3 2.571410 1_555
Cd9 Cl5 2.571410 1_555
Cd9 Cl10 2.645452 1_556
Cd10 Cl0 2.571410 1_555
Cd10 Cl6 2.571410 1_555
Cd10 Cl9 2.645452 1_555
Cd11 Cl1 2.571410 1_555
Cd11 Cl7 2.571410 1_555
Cd11 Cl8 2.645452 1_554
As0 Cd11 2.531804 1_555
As0 Cd7 2.537912 1_665
As0 Cd5 2.537912 1_655
As0 Cd3 2.555967 1_555
As1 Cd10 2.531804 1_455
As1 Cd4 2.537912 1_555
As1 Cd6 2.537912 1_555
As1 Cd2 2.555967 1_555
As2 Cd9 2.531804 1_555
As2 Cd7 2.537912 1_556
As2 Cd5 2.537912 1_556
As2 Cd1 2.555967 1_555
As3 Cd8 2.531804 1_655
As3 Cd4 2.537912 1_555
As3 Cd6 2.537912 1_565
As3 Cd0 2.555967 1_555
