# generated using pymatgen
data_MgMn3TeO8
_symmetry_space_group_name_H-M   'P 1'
_cell_length_a   10.58032600
_cell_length_b   10.54770422
_cell_length_c   14.88916703
_cell_angle_alpha   19.87263169
_cell_angle_beta   20.04027157
_cell_angle_gamma   34.45172416
_symmetry_Int_Tables_number   1
_chemical_formula_structural   MgMn3TeO8
_chemical_formula_sum   'Mg1 Mn3 Te1 O8'
_cell_volume   166.98525070
_cell_formula_units_Z   1
loop_
 _symmetry_equiv_pos_site_id
 _symmetry_equiv_pos_as_xyz
  1  'x, y, z'
loop_
 _atom_site_type_symbol
 _atom_site_label
 _atom_site_symmetry_multiplicity
 _atom_site_fract_x
 _atom_site_fract_y
 _atom_site_fract_z
 _atom_site_occupancy
  Mg  Mg0  1  0.49988876  0.99992714  0.50012342  1
  Mn  Mn0  1  0.99990275  0.49987052  0.00011859  1
  Mn  Mn1  1  0.50019446  0.00030997  0.99967356  1
  Mn  Mn2  1  0.50004276  0.49998762  0.99999711  1
  Te  Te0  1  0.99987896  0.99989059  0.00014390  1
  O  O0  1  0.93420790  0.00002180  0.31255947  1
  O  O1  1  0.01481041  0.55759089  0.20970691  1
  O  O2  1  0.53926034  0.99983355  0.23858709  1
  O  O3  1  0.06576291  0.00001336  0.68746951  1
  O  O4  1  0.45709444  0.44231261  0.32498264  1
  O  O5  1  0.98501258  0.44224934  0.79052512  1
  O  O6  1  0.46089950  0.00028957  0.76122350  1
  O  O7  1  0.54304524  0.55770703  0.67488919  1
loop_
_geom_bond_atom_site_label_1
_geom_bond_atom_site_label_2
_geom_bond_distance
_geom_bond_site_symmetry_2
Mg0 O4 2.150703 1_565
Mg0 O5 2.150726 1_564
Mg0 O1 2.150727 1_556
Mg0 O7 2.151045 1_555
Mg0 O3 2.191571 1_565
Mg0 O0 2.192167 1_565
Mn0 O0 1.938361 1_555
Mn0 O3 1.939787 1_664
Mn0 O6 2.127393 1_555
Mn0 O2 2.128084 1_654
Mn0 O4 2.186427 1_555
Mn0 O7 2.187433 1_654
Mn1 O1 2.225998 1_655
Mn1 O7 2.226460 1_555
Mn1 O5 2.228019 1_446
Mn1 O4 2.228280 1_546
Mn1 O3 2.268983 1_655
Mn1 O0 2.269311 1_456
Mn2 O0 1.938856 1_565
Mn2 O3 1.938875 1_556
Mn2 O2 2.128988 1_546
Mn2 O6 2.129067 1_565
Mn2 O5 2.185653 1_555
Mn2 O1 2.186432 1_556
O1 Te0 1.963778 1_455
O2 Te0 1.961396 1_555
O4 Te0 1.964134 1_446
O5 Te0 1.964078 1_546
O6 Te0 1.962257 1_446
O7 Te0 1.963186 1_555
