# generated using pymatgen
data_Hf2Fe
_symmetry_space_group_name_H-M   'P 1'
_cell_length_a   8.51577526
_cell_length_b   8.51581277
_cell_length_c   8.51574975
_cell_angle_alpha   60.00024070
_cell_angle_beta   60.00009504
_cell_angle_gamma   60.00027877
_symmetry_Int_Tables_number   1
_chemical_formula_structural   Hf2Fe
_chemical_formula_sum   'Hf16 Fe8'
_cell_volume   436.67688683
_cell_formula_units_Z   8
loop_
 _symmetry_equiv_pos_site_id
 _symmetry_equiv_pos_as_xyz
  1  'x, y, z'
loop_
 _atom_site_type_symbol
 _atom_site_label
 _atom_site_symmetry_multiplicity
 _atom_site_fract_x
 _atom_site_fract_y
 _atom_site_fract_z
 _atom_site_occupancy
  Hf  Hf0  1  0.50000000  0.50000000  0.50000000  1
  Hf  Hf1  1  0.50000000  0.50000000  0.00000000  1
  Hf  Hf2  1  -0.00000000  0.50000000  0.50000000  1
  Hf  Hf3  1  0.50000000  0.00000000  0.50000000  1
  Hf  Hf4  1  0.68475896  0.06522748  0.06524642  1
  Hf  Hf5  1  0.93475190  0.93479544  0.31522683  1
  Hf  Hf6  1  0.31522719  0.31523275  0.93477053  1
  Hf  Hf7  1  0.93476743  0.31522706  0.31521280  1
  Hf  Hf8  1  0.93476743  0.31522706  0.93479171  1
  Hf  Hf9  1  0.31524104  0.93477252  0.31523186  1
  Hf  Hf10  1  0.06523257  0.68477294  0.06520829  1
  Hf  Hf11  1  0.06524810  0.06520456  0.68477317  1
  Hf  Hf12  1  0.68477281  0.68476725  0.06522947  1
  Hf  Hf13  1  0.68475896  0.06522748  0.68476814  1
  Hf  Hf14  1  0.31524104  0.93477252  0.93475458  1
  Hf  Hf15  1  0.06523257  0.68477294  0.68478720  1
  Fe  Fe0  1  0.71401663  0.71406242  0.71405480  1
  Fe  Fe1  1  0.28598337  0.28593758  0.64213485  1
  Fe  Fe2  1  0.64213762  0.28594847  0.28595695  1
  Fe  Fe3  1  0.28597885  0.64213517  0.28594299  1
  Fe  Fe4  1  0.35786238  0.71405153  0.71404305  1
  Fe  Fe5  1  0.71402115  0.35786483  0.71405701  1
  Fe  Fe6  1  0.71401663  0.71406242  0.35786515  1
  Fe  Fe7  1  0.28598337  0.28593758  0.28594520  1
loop_
_geom_bond_atom_site_label_1
_geom_bond_atom_site_label_2
_geom_bond_distance
_geom_bond_site_symmetry_2
Hf0 Hf6 3.079606 1_555
Hf0 Hf12 3.079606 1_555
Hf0 Hf13 3.079624 1_555
Hf0 Hf9 3.079624 1_555
Hf0 Hf15 3.079624 1_555
Hf0 Hf7 3.079624 1_555
Hf1 Hf12 3.079600 1_555
Hf1 Hf6 3.079600 1_554
Hf1 Hf4 3.079622 1_555
Hf1 Hf10 3.079623 1_555
Hf1 Hf8 3.079623 1_554
Hf1 Hf14 3.079624 1_554
Hf2 Hf8 3.079755 1_455
Hf2 Hf7 3.079762 1_455
Hf2 Hf5 3.079786 1_455
Hf3 Hf4 3.079481 1_555
Hf3 Hf9 3.079488 1_545
Hf3 Hf5 3.079511 1_545
Hf4 Hf9 3.178045 1_545
Hf4 Hf5 3.178104 1_545
Hf4 Hf6 3.178238 1_554
Hf4 Hf8 3.178297 1_554
Hf5 Hf7 3.239691 1_565
Hf5 Hf8 3.239699 1_564
Hf5 Hf9 3.240084 1_655
Hf6 Hf7 3.239835 1_456
Hf6 Hf8 3.239844 1_455
Hf6 Hf9 3.239933 1_546
Hf7 Hf8 3.239571 1_554
Hf7 Hf9 3.239967 1_645
Hf10 Hf2 3.079755 1_555
Hf10 Hf6 3.178140 1_554
Hf10 Hf7 3.178299 1_455
Hf10 Hf14 3.178300 1_554
Hf10 Hf5 3.178455 1_455
Hf10 Hf15 3.239571 1_554
Hf10 Hf11 3.239699 1_564
Hf10 Hf12 3.239844 1_455
Hf10 Hf4 3.239967 1_465
Hf11 Hf3 3.079511 1_555
Hf11 Hf2 3.079786 1_555
Hf11 Hf9 3.178104 1_545
Hf11 Hf14 3.178111 1_545
Hf11 Hf7 3.178454 1_455
Hf11 Hf8 3.178455 1_455
Hf11 Hf15 3.239691 1_545
Hf11 Hf13 3.240084 1_455
Hf11 Hf4 3.240092 1_456
Hf12 Hf7 3.178140 1_555
Hf12 Hf8 3.178140 1_554
Hf12 Hf14 3.178234 1_554
Hf12 Hf9 3.178238 1_555
Hf12 Hf15 3.239835 1_654
Hf12 Hf13 3.239933 1_564
Hf12 Hf4 3.239941 1_565
Hf13 Hf3 3.079488 1_555
Hf13 Hf14 3.178045 1_545
Hf13 Hf5 3.178104 1_545
Hf13 Hf6 3.178238 1_555
Hf13 Hf7 3.178303 1_555
Hf13 Hf15 3.239967 1_645
Hf13 Hf4 3.240058 1_556
Hf14 Hf3 3.079488 1_565
Hf14 Hf6 3.239937 1_565
Hf14 Hf8 3.239967 1_465
Hf14 Hf9 3.240049 1_556
Hf14 Hf5 3.240088 1_456
Hf15 Hf2 3.079762 1_555
Hf15 Hf6 3.178140 1_555
Hf15 Hf8 3.178299 1_455
Hf15 Hf9 3.178303 1_555
Hf15 Hf5 3.178454 1_455
Fe0 Hf3 2.649395 1_565
Fe0 Hf1 2.649442 1_556
Fe0 Hf2 2.649704 1_655
Fe0 Hf13 2.763759 1_565
Fe0 Hf12 2.763835 1_556
Fe0 Hf15 2.764130 1_655
Fe0 Fe4 3.033026 1_555
Fe0 Fe6 3.033222 1_555
Fe0 Fe5 3.033283 1_555
Fe0 Hf14 3.060130 1_555
Fe0 Hf5 3.060528 1_555
Fe0 Hf8 3.060636 1_555
Fe1 Hf3 2.649400 1_555
Fe1 Hf0 2.649441 1_555
Fe1 Hf2 2.649709 1_555
Fe1 Hf14 2.763755 1_545
Fe1 Hf6 2.763835 1_555
Fe1 Hf8 2.764123 1_455
Fe1 Fe2 3.033030 1_555
Fe1 Fe7 3.033222 1_555
Fe1 Fe3 3.033287 1_555
Fe1 Hf13 3.060127 1_555
Fe1 Hf11 3.060537 1_555
Fe1 Hf15 3.060636 1_555
Fe2 Hf3 2.649488 1_555
Fe2 Hf1 2.649537 1_555
Fe2 Hf0 2.649537 1_555
Fe2 Hf5 2.763680 1_545
Fe2 Hf7 2.763769 1_555
Fe2 Hf8 2.763774 1_554
Fe2 Fe7 3.033026 1_555
Fe2 Fe3 3.033106 1_555
Fe2 Hf4 3.060334 1_555
Fe2 Hf13 3.060341 1_555
Fe2 Hf12 3.060460 1_555
Fe3 Hf1 2.649427 1_555
Fe3 Hf0 2.649427 1_555
Fe3 Hf2 2.649677 1_555
Fe3 Hf14 2.763925 1_554
Fe3 Hf9 2.763926 1_555
Fe3 Hf5 2.764204 1_455
Fe3 Fe7 3.033283 1_555
Fe3 Hf12 3.060252 1_555
Fe3 Hf10 3.060623 1_555
Fe3 Hf15 3.060630 1_555
Fe4 Hf3 2.649488 1_565
Fe4 Hf1 2.649537 1_556
Fe4 Hf0 2.649537 1_555
Fe4 Hf11 2.763680 1_565
Fe4 Hf15 2.763769 1_555
Fe4 Hf10 2.763774 1_556
Fe4 Fe6 3.033030 1_555
Fe4 Fe5 3.033106 1_555
Fe4 Hf9 3.060341 1_555
Fe4 Hf14 3.060341 1_555
Fe4 Hf6 3.060460 1_555
Fe5 Hf1 2.649427 1_556
Fe5 Hf0 2.649427 1_555
Fe5 Hf2 2.649677 1_655
Fe5 Hf13 2.763926 1_555
Fe5 Hf4 2.763930 1_556
Fe5 Hf11 2.764204 1_655
Fe5 Fe6 3.033287 1_555
Fe5 Hf6 3.060252 1_555
Fe5 Hf8 3.060623 1_555
Fe5 Hf7 3.060630 1_555
Fe6 Hf3 2.649400 1_565
Fe6 Hf0 2.649441 1_555
Fe6 Hf2 2.649709 1_655
Fe6 Hf4 2.763751 1_565
Fe6 Hf12 2.763835 1_555
Fe6 Hf10 2.764123 1_655
Fe6 Hf9 3.060127 1_555
Fe6 Hf5 3.060537 1_555
Fe6 Hf7 3.060636 1_555
Fe7 Hf3 2.649395 1_555
Fe7 Hf1 2.649442 1_555
Fe7 Hf2 2.649704 1_555
Fe7 Hf9 2.763759 1_545
Fe7 Hf6 2.763835 1_554
Fe7 Hf7 2.764130 1_455
Fe7 Hf4 3.060126 1_555
Fe7 Hf11 3.060528 1_555
Fe7 Hf10 3.060636 1_555
