# generated using pymatgen
data_Na6In4Ga4Si3(S3O16)3
_symmetry_space_group_name_H-M   'P 1'
_cell_length_a   17.60416582
_cell_length_b   8.80713191
_cell_length_c   22.75473000
_cell_angle_alpha   90.26963484
_cell_angle_beta   89.28516302
_cell_angle_gamma   119.93905980
_symmetry_Int_Tables_number   1
_chemical_formula_structural   Na6In4Ga4Si3(S3O16)3
_chemical_formula_sum   'Na18 In12 Ga12 Si9 S27 O144'
_cell_volume   3056.92061941
_cell_formula_units_Z   3
loop_
 _symmetry_equiv_pos_site_id
 _symmetry_equiv_pos_as_xyz
  1  'x, y, z'
loop_
 _atom_site_type_symbol
 _atom_site_label
 _atom_site_symmetry_multiplicity
 _atom_site_fract_x
 _atom_site_fract_y
 _atom_site_fract_z
 _atom_site_occupancy
  Na  Na0  1  0.00495995  0.64305444  0.25448889  1
  Na  Na1  1  0.50294942  0.36818746  0.74144659  1
  Na  Na2  1  0.16195950  0.30685447  0.91139620  1
  Na  Na3  1  0.66166547  0.30264069  0.91054833  1
  Na  Na4  1  0.16346589  0.02453699  0.41771981  1
  Na  Na5  1  0.66078663  0.01373866  0.41737139  1
  Na  Na6  1  0.99510390  0.98747412  0.49727469  1
  Na  Na7  1  0.49067770  0.00096575  0.50049528  1
  Na  Na8  1  0.99278511  0.99907874  0.99377304  1
  Na  Na9  1  0.49450034  0.00202347  0.99420877  1
  Na  Na10  1  0.33291014  0.33307578  0.82826869  1
  Na  Na11  1  0.84107392  0.33580217  0.83283831  1
  Na  Na12  1  0.34189753  0.34773742  0.33680698  1
  Na  Na13  1  0.83110172  0.32911513  0.33455770  1
  Na  Na14  1  0.17453111  0.68162743  0.17295464  1
  Na  Na15  1  0.66380408  0.68057911  0.17212187  1
  Na  Na16  1  0.16779995  0.65052876  0.67018043  1
  Na  Na17  1  0.66483292  0.65281342  0.66585072  1
  In  In0  1  0.00147357  0.00663577  0.64899911  1
  In  In1  1  0.50564630  0.01710787  0.64824295  1
  In  In2  1  0.00645807  0.00081092  0.15092869  1
  In  In3  1  0.50075794  0.99297282  0.15076367  1
  In  In4  1  0.83121008  0.33767957  0.68892867  1
  In  In5  1  0.33131105  0.32657441  0.18975233  1
  In  In6  1  0.16067789  0.65437610  0.01360832  1
  In  In7  1  0.66434458  0.65717437  0.01367220  1
  In  In8  1  0.16636420  0.67235815  0.51467567  1
  In  In9  1  0.64838120  0.64908717  0.51906720  1
  In  In10  1  0.65983329  0.67074229  0.31768275  1
  In  In11  1  0.15965704  0.64688986  0.81569282  1
  Ga  Ga0  1  0.00267201  0.99150738  0.35194939  1
  Ga  Ga1  1  0.50589382  0.98921213  0.34756532  1
  Ga  Ga2  1  0.00789096  0.03033222  0.84368314  1
  Ga  Ga3  1  0.50299013  0.01828922  0.84721642  1
  Ga  Ga4  1  0.32667301  0.33148557  0.68081774  1
  Ga  Ga5  1  0.82385635  0.31578530  0.18660978  1
  Ga  Ga6  1  0.34189941  0.33328386  0.97951726  1
  Ga  Ga7  1  0.83757042  0.33145286  0.98207260  1
  Ga  Ga8  1  0.35135787  0.35585962  0.48662109  1
  Ga  Ga9  1  0.84188388  0.34962825  0.48098735  1
  Ga  Ga10  1  0.16201298  0.67470929  0.31998534  1
  Ga  Ga11  1  0.65940356  0.65080368  0.81667156  1
  Si  Si0  1  0.14855928  0.99582932  0.25429051  1
  Si  Si1  1  0.65106878  0.00410968  0.24903302  1
  Si  Si2  1  0.15479755  0.29768688  0.74742931  1
  Si  Si3  1  0.65039861  0.30295306  0.75555911  1
  Si  Si4  1  0.47344386  0.32721894  0.58866259  1
  Si  Si5  1  0.01053419  0.35645298  0.91754019  1
  Si  Si6  1  0.51524840  0.36329864  0.91480899  1
  Si  Si7  1  0.01485932  0.66439400  0.41531447  1
  Si  Si8  1  0.50998208  0.66668623  0.41576753  1
  S  S0  1  0.34899584  0.70912227  0.25328535  1
  S  S1  1  0.85233366  0.70390173  0.24916011  1
  S  S2  1  0.00017989  0.29258588  0.25108336  1
  S  S3  1  0.50136541  0.28783992  0.25150674  1
  S  S4  1  0.00093427  0.71579783  0.75217956  1
  S  S5  1  0.50211947  0.71790975  0.75352614  1
  S  S6  1  0.35141739  0.99606116  0.75276953  1
  S  S7  1  0.84921360  0.98914113  0.75354064  1
  S  S8  1  0.97705107  0.33154622  0.58222026  1
  S  S9  1  0.18943345  0.04575325  0.57959463  1
  S  S10  1  0.69392447  0.04899257  0.57889226  1
  S  S11  1  0.33032426  0.62091045  0.58295460  1
  S  S12  1  0.83473054  0.63084754  0.58100588  1
  S  S13  1  0.47679557  0.62209247  0.08211665  1
  S  S14  1  0.97294299  0.61502268  0.08555819  1
  S  S15  1  0.33278794  0.03685672  0.08089311  1
  S  S16  1  0.83327320  0.04342202  0.08372127  1
  S  S17  1  0.19036868  0.33546809  0.07986898  1
  S  S18  1  0.69308752  0.33571154  0.08102799  1
  S  S19  1  0.32114861  0.67043993  0.91843950  1
  S  S20  1  0.81786355  0.67105129  0.91597844  1
  S  S21  1  0.16713116  0.96738899  0.91813971  1
  S  S22  1  0.66576367  0.95963943  0.91611079  1
  S  S23  1  0.31825297  0.96433128  0.41362180  1
  S  S24  1  0.81949986  0.96658703  0.41818880  1
  S  S25  1  0.16399410  0.37214310  0.41368753  1
  S  S26  1  0.66772917  0.36769239  0.41626206  1
  O  O0  1  0.10016725  0.02512288  0.31111915  1
  O  O1  1  0.60743741  0.03242465  0.30912725  1
  O  O2  1  0.40586126  0.80281884  0.30280400  1
  O  O3  1  0.90892874  0.79028667  0.30066365  1
  O  O4  1  0.48929741  0.17477756  0.30214107  1
  O  O5  1  0.98255004  0.17645340  0.30168682  1
  O  O6  1  0.11414379  0.18749264  0.80986311  1
  O  O7  1  0.60717615  0.18610216  0.81502093  1
  O  O8  1  0.48879661  0.80457436  0.80568698  1
  O  O9  1  0.98883922  0.80563191  0.80370437  1
  O  O10  1  0.40627743  0.01699070  0.80522131  1
  O  O11  1  0.90571961  0.01145768  0.80449254  1
  O  O12  1  0.38635903  0.95864143  0.69878125  1
  O  O13  1  0.88213459  0.95280346  0.69791764  1
  O  O14  1  0.09095071  0.21454214  0.69169939  1
  O  O15  1  0.58700430  0.22353965  0.69918913  1
  O  O16  1  0.00454015  0.80003011  0.69533384  1
  O  O17  1  0.51164237  0.81275790  0.69795001  1
  O  O18  1  0.38023964  0.80750826  0.19652977  1
  O  O19  1  0.88612062  0.81123684  0.19475483  1
  O  O20  1  0.01172195  0.21985075  0.19452391  1
  O  O21  1  0.50552647  0.21127108  0.19372707  1
  O  O22  1  0.08683609  0.94090237  0.19535891  1
  O  O23  1  0.59413666  0.96730784  0.18956372  1
  O  O24  1  0.42636585  0.34869414  0.64933581  1
  O  O25  1  0.93743581  0.35126405  0.63745364  1
  O  O26  1  0.23782801  0.13299211  0.63317654  1
  O  O27  1  0.74187261  0.13319998  0.63313630  1
  O  O28  1  0.31614820  0.51535832  0.63662402  1
  O  O29  1  0.82357715  0.53159734  0.63575407  1
  O  O30  1  0.43710404  0.52363128  0.13708189  1
  O  O31  1  0.93074677  0.51368715  0.14049092  1
  O  O32  1  0.32140850  0.11400706  0.13566649  1
  O  O33  1  0.82385058  0.12811572  0.13793774  1
  O  O34  1  0.23876333  0.34959112  0.13379654  1
  O  O35  1  0.74510186  0.35141785  0.13372298  1
  O  O36  1  0.23474107  0.32011311  0.02568197  1
  O  O37  1  0.73554251  0.31805899  0.02555875  1
  O  O38  1  0.42461706  0.53159146  0.02952039  1
  O  O39  1  0.92214573  0.52790839  0.03221854  1
  O  O40  1  0.34289008  0.14521053  0.02831233  1
  O  O41  1  0.84281140  0.14719180  0.03014940  1
  O  O42  1  0.23073947  0.14557410  0.52435910  1
  O  O43  1  0.73758887  0.15809851  0.52506461  1
  O  O44  1  0.33548344  0.53393887  0.52823214  1
  O  O45  1  0.84633810  0.54272758  0.52834296  1
  O  O46  1  0.41884884  0.30542258  0.52936263  1
  O  O47  1  0.92497959  0.31727522  0.52965406  1
  O  O48  1  0.28561179  0.71219942  0.97212282  1
  O  O49  1  0.78617242  0.71463175  0.97158927  1
  O  O50  1  0.07761206  0.42560366  0.97397133  1
  O  O51  1  0.58076309  0.43283245  0.97177615  1
  O  O52  1  0.15596573  0.86747507  0.97323853  1
  O  O53  1  0.65532625  0.86355060  0.97205553  1
  O  O54  1  0.28578713  0.85726421  0.46835844  1
  O  O55  1  0.78187831  0.85327179  0.47009352  1
  O  O56  1  0.15201435  0.44667935  0.46934041  1
  O  O57  1  0.65859205  0.44958729  0.47037649  1
  O  O58  1  0.08266626  0.72372646  0.47021168  1
  O  O59  1  0.58065198  0.73105903  0.46961848  1
  O  O60  1  0.05705697  0.62845840  0.35570837  1
  O  O61  1  0.54705278  0.61502135  0.35821590  1
  O  O62  1  0.25727369  0.87229216  0.36371578  1
  O  O63  1  0.76487559  0.89199918  0.36501492  1
  O  O64  1  0.17964278  0.48861696  0.36239696  1
  O  O65  1  0.68774787  0.47954437  0.36380518  1
  O  O66  1  0.05130064  0.48556099  0.86190033  1
  O  O67  1  0.56039522  0.49082838  0.85793104  1
  O  O68  1  0.18686029  0.89143513  0.86672469  1
  O  O69  1  0.68345666  0.87745166  0.86497857  1
  O  O70  1  0.26297821  0.63435943  0.86746829  1
  O  O71  1  0.75652033  0.63716692  0.86677943  1
  O  O72  1  0.00459211  0.84069708  0.40919867  1
  O  O73  1  0.50351774  0.84649981  0.40805420  1
  O  O74  1  0.40702424  0.99764594  0.40224336  1
  O  O75  1  0.90997079  0.99912002  0.40778305  1
  O  O76  1  0.08154459  0.19827558  0.40815592  1
  O  O77  1  0.58597953  0.19512562  0.41013954  1
  O  O78  1  0.00371641  0.16365544  0.90700453  1
  O  O79  1  0.50322107  0.16543797  0.90784719  1
  O  O80  1  0.08642993  0.97940837  0.91196447  1
  O  O81  1  0.58511729  0.97174930  0.91065152  1
  O  O82  1  0.41036070  0.81584577  0.90851921  1
  O  O83  1  0.90700722  0.81397966  0.90527048  1
  O  O84  1  0.48217753  0.15113830  0.58565549  1
  O  O85  1  0.98155984  0.16721346  0.58294733  1
  O  O86  1  0.09882488  0.01973765  0.58168337  1
  O  O87  1  0.60416324  0.02350208  0.58101080  1
  O  O88  1  0.41204260  0.79148533  0.58687756  1
  O  O89  1  0.91689681  0.80614489  0.58414505  1
  O  O90  1  0.48179316  0.79603632  0.08303397  1
  O  O91  1  0.97942093  0.79042574  0.08647596  1
  O  O92  1  0.41360814  0.02166194  0.08379973  1
  O  O93  1  0.91362009  0.02745709  0.08709038  1
  O  O94  1  0.10100053  0.17611481  0.08167775  1
  O  O95  1  0.60430421  0.17963462  0.08321661  1
  O  O96  1  0.35112512  0.16382933  0.74869352  1
  O  O97  1  0.84694043  0.15551303  0.74888281  1
  O  O98  1  0.25055487  0.30687165  0.73992011  1
  O  O99  1  0.74636378  0.31886302  0.75236816  1
  O  O100  1  0.42615931  0.53702894  0.75113774  1
  O  O101  1  0.92486390  0.53344917  0.75189415  1
  O  O102  1  0.34679235  0.53802197  0.24859912  1
  O  O103  1  0.85418827  0.53566469  0.24177604  1
  O  O104  1  0.42466584  0.31690608  0.25077692  1
  O  O105  1  0.92447566  0.32590255  0.24504711  1
  O  O106  1  0.24363378  0.17225089  0.25092954  1
  O  O107  1  0.74727198  0.18886204  0.24446752  1
  O  O108  1  0.32119481  0.50113009  0.92704183  1
  O  O109  1  0.81670377  0.49954349  0.92425274  1
  O  O110  1  0.41952544  0.34927672  0.92320412  1
  O  O111  1  0.91457569  0.33927813  0.92756611  1
  O  O112  1  0.24234742  0.15247550  0.92514880  1
  O  O113  1  0.74151325  0.14380522  0.92192342  1
  O  O114  1  0.31690927  0.13206350  0.42039386  1
  O  O115  1  0.82249756  0.13930367  0.42632052  1
  O  O116  1  0.23827052  0.33891295  0.41825463  1
  O  O117  1  0.74222225  0.33024693  0.42289144  1
  O  O118  1  0.41245170  0.49627338  0.42541992  1
  O  O119  1  0.91907879  0.48773638  0.42371439  1
  O  O120  1  0.18296865  0.49668271  0.07868235  1
  O  O121  1  0.68787044  0.49920327  0.07967467  1
  O  O122  1  0.06231433  0.63629758  0.08237139  1
  O  O123  1  0.56645892  0.64542402  0.07847366  1
  O  O124  1  0.25350834  0.85978748  0.07604020  1
  O  O125  1  0.75340221  0.86708172  0.07982443  1
  O  O126  1  0.18389796  0.87063059  0.57969150  1
  O  O127  1  0.69199602  0.87980858  0.57603469  1
  O  O128  1  0.25197941  0.64512782  0.57907017  1
  O  O129  1  0.75787861  0.65285179  0.57532355  1
  O  O130  1  0.06635059  0.48675858  0.57856866  1
  O  O131  1  0.57084324  0.50487152  0.58839497  1
  O  O132  1  0.15802938  0.81856757  0.26025034  1
  O  O133  1  0.66828363  0.83903937  0.25247535  1
  O  O134  1  0.25877403  0.67754524  0.26244328  1
  O  O135  1  0.76200984  0.66585912  0.25779442  1
  O  O136  1  0.08131318  0.46682551  0.25705467  1
  O  O137  1  0.58377807  0.45808164  0.25400432  1
  O  O138  1  0.17001162  0.49570035  0.75165900  1
  O  O139  1  0.65782819  0.49814969  0.75940065  1
  O  O140  1  0.08347259  0.71052273  0.75496353  1
  O  O141  1  0.58415353  0.70636748  0.75848559  1
  O  O142  1  0.26133406  0.85039017  0.76069360  1
  O  O143  1  0.75987370  0.84060375  0.76358241  1
loop_
_geom_bond_atom_site_label_1
_geom_bond_atom_site_label_2
_geom_bond_distance
_geom_bond_site_symmetry_2
Na0 O132 2.348838 1_555
Na0 O103 2.352426 1_455
Na0 O105 2.430489 1_455
Na0 O136 2.510815 1_555
Na0 O60 2.517071 1_555
Na0 O22 2.641931 1_555
Na0 O3 2.788238 1_455
Na0 O31 2.881794 1_455
Na1 O96 2.366492 1_555
Na1 O139 2.412314 1_555
Na1 O24 2.464997 1_555
Na1 O100 2.466416 1_555
Na1 O15 2.563515 1_555
Na1 O141 2.611096 1_555
Na1 O67 2.857363 1_555
Na2 O78 2.420705 1_555
Na2 O112 2.425869 1_555
Na2 O108 2.478700 1_555
Na2 O80 2.501451 1_545
Na2 O6 2.508748 1_555
Na2 O50 2.609472 1_555
Na2 O70 2.710001 1_555
Na2 O36 2.889467 1_556
Na3 O7 2.397260 1_555
Na3 O109 2.417752 1_555
Na3 O79 2.425559 1_555
Na3 O113 2.444371 1_555
Na3 O81 2.527581 1_545
Na3 O51 2.617188 1_555
Na3 O71 2.745168 1_555
Na3 O37 2.909297 1_556
Na4 O114 2.376430 1_555
Na4 O116 2.400206 1_555
Na4 O72 2.443758 1_545
Na4 O76 2.584975 1_555
Na4 O58 2.587389 1_545
Na4 O0 2.683078 1_555
Na4 O42 2.685938 1_555
Na4 O62 2.859916 1_545
Na5 O73 2.412639 1_545
Na5 O117 2.419436 1_555
Na5 O59 2.466168 1_545
Na5 O115 2.497715 1_555
Na5 O77 2.533995 1_555
Na5 O1 2.681720 1_555
Na5 O43 2.790536 1_555
Na5 O63 2.796627 1_545
Na6 O72 2.428646 1_655
Na6 O89 2.473951 1_555
Na6 O75 2.575833 1_555
Na6 O86 2.582305 1_665
Na6 O85 2.588278 1_565
Na6 O76 2.648242 1_665
Na7 O84 2.385976 1_555
Na7 O73 2.567980 1_545
Na7 O88 2.569173 1_545
Na7 O77 2.655078 1_555
Na7 O87 2.660715 1_555
Na7 O74 2.684482 1_545
Na8 O78 2.403166 1_665
Na8 O80 2.533466 1_655
Na8 O83 2.565389 1_555
Na8 O93 2.604303 1_566
Na8 O94 2.676213 1_666
Na8 O91 2.733955 1_556
Na9 O79 2.399001 1_555
Na9 O82 2.510414 1_545
Na9 O92 2.526630 1_556
Na9 O81 2.564175 1_545
Na9 O90 2.654162 1_546
Na9 O95 2.708350 1_556
Na10 O98 2.435376 1_555
Na10 O100 2.452786 1_555
Na10 O96 2.457745 1_555
Na10 O110 2.621844 1_555
Na10 O112 2.710267 1_555
Na10 O108 2.747086 1_555
Na11 O99 2.445464 1_555
Na11 O101 2.449035 1_555
Na11 O97 2.512299 1_555
Na11 O111 2.520089 1_555
Na11 O113 2.650610 1_555
Na11 O109 2.675366 1_555
Na12 O118 2.394905 1_555
Na12 O104 2.519460 1_555
Na12 O116 2.558175 1_555
Na12 O106 2.566503 1_555
Na12 O114 2.568692 1_555
Na12 O102 2.593795 1_555
Na13 O107 2.477532 1_555
Na13 O119 2.521534 1_555
Na13 O117 2.534812 1_555
Na13 O105 2.610294 1_555
Na13 O115 2.636215 1_555
Na13 O103 2.684841 1_555
Na14 O132 2.407791 1_555
Na14 O134 2.544877 1_555
Na14 O136 2.605942 1_555
Na14 O124 2.652688 1_555
Na14 O120 2.734491 1_555
Na14 O122 2.759908 1_555
Na15 O133 2.273042 1_555
Na15 O137 2.551370 1_555
Na15 O125 2.638275 1_555
Na15 O135 2.667626 1_555
Na15 O123 2.669976 1_555
Na15 O121 2.788910 1_555
Na16 O138 2.318813 1_555
Na16 O128 2.547392 1_555
Na16 O140 2.628063 1_555
Na16 O130 2.666249 1_555
Na16 O142 2.684967 1_555
Na16 O126 2.748150 1_555
Na17 O131 2.332597 1_555
Na17 O139 2.501020 1_555
Na17 O129 2.615637 1_555
Na17 O141 2.695822 1_555
Na17 O127 2.731684 1_555
Na17 O143 2.788618 1_555
In0 O14 1.980035 1_555
In0 O16 2.131436 1_545
In0 O13 2.197697 1_445
In0 O85 2.215838 1_455
In0 O89 2.217796 1_445
In0 O86 2.243975 1_555
In1 O84 2.027220 1_555
In1 O15 2.030535 1_555
In1 O17 2.177448 1_545
In1 O12 2.205314 1_545
In1 O87 2.277841 1_555
In1 O88 2.318748 1_545
In2 O22 2.022032 1_545
In2 O20 2.126022 1_555
In2 O19 2.168501 1_445
In2 O91 2.218609 1_445
In2 O94 2.242635 1_555
In2 O93 2.298155 1_455
In3 O23 1.985399 1_555
In3 O21 2.117161 1_565
In3 O18 2.180735 1_555
In3 O90 2.214646 1_555
In3 O92 2.277783 1_565
In3 O95 2.313112 1_565
In4 O99 2.010886 1_555
In4 O27 2.128280 1_555
In4 O25 2.146291 1_555
In4 O29 2.156721 1_555
In4 O101 2.223076 1_555
In4 O97 2.232781 1_555
In5 O106 2.009410 1_555
In5 O30 2.157440 1_555
In5 O34 2.168063 1_555
In5 O32 2.169732 1_555
In5 O102 2.194155 1_555
In5 O104 2.198650 1_555
In6 O50 2.021457 1_554
In6 O52 2.132272 1_554
In6 O48 2.195992 1_554
In6 O120 2.203012 1_555
In6 O124 2.245962 1_555
In6 O122 2.265303 1_555
In7 O51 2.023139 1_554
In7 O53 2.129215 1_554
In7 O49 2.154697 1_554
In7 O123 2.216848 1_555
In7 O121 2.230044 1_555
In7 O125 2.298071 1_555
In8 O58 2.026380 1_555
In8 O56 2.136472 1_555
In8 O54 2.173968 1_555
In8 O126 2.186843 1_555
In8 O128 2.212547 1_555
In8 O130 2.229661 1_555
In9 O59 2.027111 1_555
In9 O131 2.049305 1_555
In9 O57 2.153818 1_555
In9 O127 2.200366 1_555
In9 O129 2.313614 1_555
In9 O55 2.394538 1_555
In10 O61 2.004841 1_555
In10 O133 2.053238 1_555
In10 O63 2.193138 1_555
In10 O137 2.218083 1_555
In10 O65 2.243647 1_555
In10 O135 2.260500 1_555
In11 O66 2.005415 1_555
In11 O138 2.036341 1_555
In11 O142 2.178392 1_555
In11 O140 2.196850 1_555
In11 O70 2.227907 1_555
In11 O68 2.275345 1_555
Ga0 O0 1.830905 1_565
Ga0 O72 1.877359 1_555
Ga0 O3 2.082135 1_455
Ga0 O75 2.082901 1_455
Ga0 O76 2.092458 1_565
Ga0 O5 2.165699 1_465
Ga1 O1 1.841299 1_565
Ga1 O73 1.854287 1_555
Ga1 O2 1.994199 1_555
Ga1 O4 2.079591 1_565
Ga1 O74 2.158020 1_555
Ga1 O77 2.185767 1_565
Ga2 O6 1.843005 1_555
Ga2 O78 1.878239 1_555
Ga2 O11 1.948894 1_455
Ga2 O9 2.045610 1_445
Ga2 O80 2.281651 1_545
Ga2 O83 2.309542 1_445
Ga3 O7 1.831920 1_555
Ga3 O79 1.887055 1_555
Ga3 O10 1.957805 1_555
Ga3 O8 2.004468 1_545
Ga3 O82 2.201911 1_545
Ga3 O81 2.234050 1_545
Ga4 O98 1.821828 1_555
Ga4 O24 1.822185 1_555
Ga4 O26 1.993186 1_555
Ga4 O28 1.996869 1_555
Ga4 O96 2.328842 1_555
Ga4 O100 2.404735 1_555
Ga5 O107 1.807137 1_555
Ga5 O33 1.985209 1_555
Ga5 O35 1.987034 1_555
Ga5 O31 2.091474 1_555
Ga5 O103 2.138378 1_555
Ga5 O105 2.194036 1_555
Ga6 O110 1.815246 1_555
Ga6 O38 1.987328 1_556
Ga6 O40 2.005830 1_556
Ga6 O108 2.075844 1_555
Ga6 O112 2.094657 1_555
Ga6 O36 2.099726 1_556
Ga7 O111 1.801758 1_555
Ga7 O37 1.991070 1_556
Ga7 O39 1.991201 1_556
Ga7 O41 2.001871 1_556
Ga7 O109 2.151909 1_555
Ga7 O113 2.170480 1_555
Ga8 O46 1.764808 1_555
Ga8 O118 1.810152 1_555
Ga8 O44 1.962472 1_555
Ga8 O42 2.172624 1_555
Ga8 O114 2.307677 1_555
Ga8 O116 2.486801 1_555
Ga9 O119 1.829062 1_555
Ga9 O47 1.976570 1_555
Ga9 O45 1.977691 1_555
Ga9 O43 2.025079 1_555
Ga9 O115 2.110202 1_555
Ga9 O117 2.147477 1_555
Ga10 O60 1.858747 1_555
Ga10 O132 1.888120 1_555
Ga10 O62 1.985715 1_555
Ga10 O64 2.060067 1_555
Ga10 O134 2.125743 1_555
Ga10 O136 2.202431 1_555
Ga11 O67 1.850637 1_555
Ga11 O139 1.858435 1_555
Ga11 O143 2.096769 1_555
Ga11 O141 2.108141 1_555
Ga11 O71 2.119499 1_555
Ga11 O69 2.125876 1_555
O0 Si0 1.628867 1_545
O1 Si1 1.638227 1_555
O2 S0 1.465458 1_555
O3 S1 1.486292 1_555
O4 S3 1.468909 1_555
O5 S2 1.467525 1_655
O6 Si2 1.663330 1_555
O7 Si3 1.635411 1_555
O8 S5 1.486453 1_555
O9 S4 1.482934 1_655
O10 S6 1.496724 1_545
O11 S7 1.484528 1_545
O12 S6 1.475074 1_555
O13 S7 1.484342 1_555
O14 Si2 1.616461 1_555
O15 Si3 1.621136 1_555
O16 S4 1.479022 1_555
O17 S5 1.479876 1_555
O18 S0 1.496095 1_555
O19 S1 1.487077 1_555
O20 S2 1.491184 1_555
O21 S3 1.492404 1_555
O22 Si0 1.648779 1_555
O23 Si1 1.626708 1_565
O24 Si4 1.659562 1_555
O25 S8 1.480903 1_555
O26 S9 1.471877 1_555
O27 S10 1.475990 1_555
O28 S11 1.479657 1_555
O29 S12 1.478994 1_555
O30 S13 1.479223 1_555
O31 S14 1.495444 1_555
O32 S15 1.475424 1_555
O33 S16 1.488489 1_555
O34 S17 1.471718 1_555
O35 S18 1.481464 1_555
O36 S17 1.492857 1_555
O37 S18 1.505479 1_555
O38 S13 1.482926 1_555
O39 S14 1.481534 1_555
O40 S15 1.486556 1_555
O41 S16 1.483789 1_555
O42 S9 1.493607 1_555
O43 S10 1.504907 1_555
O44 S11 1.484288 1_555
O45 S12 1.491137 1_555
O46 Si4 1.620829 1_555
O47 S8 1.482484 1_555
O48 S19 1.491703 1_555
O49 S20 1.500458 1_555
O50 Si5 1.651302 1_555
O51 Si6 1.646318 1_555
O52 S21 1.488777 1_555
O53 S22 1.489823 1_555
O54 S23 1.490799 1_555
O55 S24 1.470165 1_555
O56 S25 1.484178 1_555
O57 S26 1.471338 1_555
O58 Si7 1.633041 1_555
O59 Si8 1.642608 1_555
O60 Si7 1.642284 1_555
O61 Si8 1.617829 1_555
O62 S23 1.500740 1_555
O63 S24 1.487027 1_555
O64 S25 1.487099 1_555
O65 S26 1.474259 1_555
O66 Si5 1.608494 1_555
O67 Si6 1.632555 1_555
O68 S21 1.466714 1_555
O69 S22 1.477416 1_555
O70 S19 1.481964 1_555
O71 S20 1.487913 1_555
O72 Si7 1.657040 1_555
O73 Si8 1.653686 1_555
O74 S23 1.458848 1_555
O75 S24 1.486768 1_555
O76 S25 1.500543 1_555
O77 S26 1.490027 1_555
O78 Si5 1.657868 1_555
O79 Si6 1.654233 1_555
O80 S21 1.484758 1_555
O81 S22 1.482583 1_555
O82 S19 1.464164 1_555
O83 S20 1.458832 1_555
O84 Si4 1.633990 1_555
O85 S8 1.488682 1_555
O86 S9 1.494147 1_555
O87 S10 1.481140 1_555
O88 S11 1.476177 1_555
O89 S12 1.501133 1_555
O90 S13 1.490051 1_555
O91 S14 1.491226 1_555
O92 S15 1.496343 1_555
O93 S16 1.492517 1_555
O94 S17 1.497163 1_555
O95 S18 1.479543 1_555
O96 S6 1.483473 1_545
O97 S7 1.489938 1_545
O98 Si2 1.653557 1_555
O99 Si3 1.624711 1_555
O100 S5 1.484440 1_555
O101 S4 1.491964 1_655
O102 S0 1.491267 1_555
O103 S1 1.506817 1_555
O104 S3 1.494838 1_555
O105 S2 1.508759 1_655
O106 Si0 1.619723 1_545
O107 Si1 1.665284 1_555
O108 S19 1.505244 1_555
O109 S20 1.513027 1_555
O110 Si6 1.635804 1_555
O111 Si5 1.632243 1_655
O112 S21 1.511381 1_545
O113 S22 1.506647 1_545
O114 S23 1.496392 1_545
O115 S24 1.506105 1_545
O116 S25 1.480490 1_555
O117 S26 1.512726 1_555
O118 Si8 1.634089 1_555
O119 Si7 1.635992 1_655
O120 S17 1.489534 1_555
O121 S18 1.488342 1_555
O122 S14 1.489529 1_455
O123 S13 1.487865 1_555
O124 S15 1.490552 1_565
O125 S16 1.489629 1_565
O126 S9 1.496090 1_565
O127 S10 1.474520 1_565
O128 S11 1.500774 1_555
O129 S12 1.466614 1_555
O130 S8 1.483129 1_455
O131 Si4 1.646223 1_555
O132 Si0 1.657038 1_555
O133 Si1 1.628781 1_565
O134 S0 1.481484 1_555
O135 S1 1.462961 1_555
O136 S2 1.492799 1_555
O137 S3 1.478548 1_555
O138 Si2 1.629459 1_555
O139 Si3 1.659689 1_555
O140 S4 1.478898 1_555
O141 S5 1.503103 1_555
O142 S6 1.468876 1_555
O143 S7 1.475569 1_555
