# generated using pymatgen
data_NbNiP
_symmetry_space_group_name_H-M   'P 1'
_cell_length_a   3.58880657
_cell_length_b   6.13078566
_cell_length_c   7.07341726
_cell_angle_alpha   90.00000000
_cell_angle_beta   90.00000000
_cell_angle_gamma   90.00000000
_symmetry_Int_Tables_number   1
_chemical_formula_structural   NbNiP
_chemical_formula_sum   'Nb4 Ni4 P4'
_cell_volume   155.63076851
_cell_formula_units_Z   4
loop_
 _symmetry_equiv_pos_site_id
 _symmetry_equiv_pos_as_xyz
  1  'x, y, z'
loop_
 _atom_site_type_symbol
 _atom_site_label
 _atom_site_symmetry_multiplicity
 _atom_site_fract_x
 _atom_site_fract_y
 _atom_site_fract_z
 _atom_site_occupancy
  Nb  Nb0  1  0.25000000  0.52063387  0.33314174  1
  Nb  Nb1  1  0.25000000  0.02063387  0.16685826  1
  Nb  Nb2  1  0.75000000  0.97936613  0.83314174  1
  Nb  Nb3  1  0.75000000  0.47936613  0.66685826  1
  Ni  Ni0  1  0.75000000  0.34928893  0.06847988  1
  Ni  Ni1  1  0.25000000  0.15071107  0.56847988  1
  Ni  Ni2  1  0.75000000  0.84928893  0.43152012  1
  Ni  Ni3  1  0.25000000  0.65071107  0.93152012  1
  P  P0  1  0.25000000  0.78507476  0.62024628  1
  P  P1  1  0.25000000  0.28507476  0.87975372  1
  P  P2  1  0.75000000  0.21492524  0.37975372  1
  P  P3  1  0.75000000  0.71492524  0.12024628  1
loop_
_geom_bond_atom_site_label_1
_geom_bond_atom_site_label_2
_geom_bond_distance
_geom_bond_site_symmetry_2
Nb0 P0 2.598572 1_555
Nb0 P2 2.615596 1_455
Nb0 P2 2.615596 1_555
Nb0 P3 2.628017 1_555
Nb0 P3 2.628017 1_455
Nb1 P1 2.598572 1_554
Nb1 P3 2.615596 1_545
Nb1 P3 2.615596 1_445
Nb1 P2 2.628017 1_555
Nb1 P2 2.628017 1_455
Nb2 P3 2.598572 1_556
Nb2 P1 2.615596 1_665
Nb2 P1 2.615596 1_565
Nb2 P0 2.628017 1_555
Nb2 P0 2.628017 1_655
Nb3 P2 2.598572 1_555
Nb3 P0 2.615596 1_555
Nb3 P0 2.615596 1_655
Nb3 P1 2.628017 1_555
Nb3 P1 2.628017 1_655
Ni0 P1 2.270888 1_654
Ni0 P1 2.270888 1_554
Ni0 P3 2.271347 1_555
Ni0 P2 2.350822 1_555
Ni1 P2 2.270888 1_555
Ni1 P2 2.270888 1_455
Ni1 P0 2.271347 1_545
Ni1 P1 2.350822 1_555
Ni2 P0 2.270888 1_555
Ni2 P0 2.270888 1_655
Ni2 P2 2.271347 1_565
Ni2 P3 2.350822 1_555
Ni3 P3 2.270888 1_456
Ni3 P3 2.270888 1_556
Ni3 P1 2.271347 1_555
Ni3 P0 2.350822 1_555
