# generated using pymatgen
data_BaPbO3
_symmetry_space_group_name_H-M   'P 1'
_cell_length_a   6.03843583
_cell_length_b   6.03843566
_cell_length_c   6.10385986
_cell_angle_alpha   119.64606449
_cell_angle_beta   119.64606249
_cell_angle_gamma   89.99999957
_symmetry_Int_Tables_number   1
_chemical_formula_structural   BaPbO3
_chemical_formula_sum   'Ba2 Pb2 O6'
_cell_volume   159.04492952
_cell_formula_units_Z   2
loop_
 _symmetry_equiv_pos_site_id
 _symmetry_equiv_pos_as_xyz
  1  'x, y, z'
loop_
 _atom_site_type_symbol
 _atom_site_label
 _atom_site_symmetry_multiplicity
 _atom_site_fract_x
 _atom_site_fract_y
 _atom_site_fract_z
 _atom_site_occupancy
  Ba  Ba0  1  0.25000000  0.75000000  0.50000000  1
  Ba  Ba1  1  0.75000000  0.25000000  0.50000000  1
  Pb  Pb0  1  0.50000000  0.50000000  -0.00000000  1
  Pb  Pb1  1  -0.00000000  -0.00000000  -0.00000000  1
  O  O0  1  0.70360943  0.20360943  0.00000000  1
  O  O1  1  0.79639057  0.70360943  -0.00000000  1
  O  O2  1  0.20360943  0.29639057  0.00000000  1
  O  O3  1  0.29639057  0.79639057  -0.00000000  1
  O  O4  1  0.25000000  0.25000000  0.50000000  1
  O  O5  1  0.75000000  0.75000000  0.50000000  1
loop_
_geom_bond_atom_site_label_1
_geom_bond_atom_site_label_2
_geom_bond_distance
_geom_bond_site_symmetry_2
Ba0 O2 2.789210 1_555
Ba0 O3 2.789210 1_556
Ba0 O0 2.789210 1_566
Ba0 O1 2.789210 1_455
Ba0 O4 3.019218 1_555
Ba0 O4 3.019218 1_565
Ba0 O5 3.019218 1_455
Ba0 O5 3.019218 1_555
Ba0 O2 3.341069 1_566
Ba0 O3 3.341069 1_555
Ba0 O0 3.341069 1_455
Ba0 O1 3.341069 1_556
Ba1 O1 2.789210 1_556
Ba1 O0 2.789210 1_555
Ba1 O3 2.789210 1_545
Ba1 O2 2.789210 1_656
Ba1 O5 3.019218 1_555
Ba1 O5 3.019218 1_545
Ba1 O4 3.019218 1_555
Ba1 O4 3.019218 1_655
Ba1 O1 3.341069 1_545
Ba1 O0 3.341069 1_556
Ba1 O3 3.341069 1_656
Ba1 O2 3.341069 1_555
O0 Pb0 2.171354 1_555
O0 Pb1 2.171354 1_655
O1 Pb1 2.171354 1_665
O1 Pb0 2.171354 1_555
O2 Pb1 2.171354 1_555
O2 Pb0 2.171354 1_555
O3 Pb0 2.171354 1_555
O3 Pb1 2.171354 1_565
O4 Pb0 2.180926 1_556
O4 Pb1 2.180926 1_555
O5 Pb1 2.180926 1_666
O5 Pb0 2.180926 1_555
