# generated using pymatgen
data_Na3MgTi2P2O10F
_symmetry_space_group_name_H-M   'P 1'
_cell_length_a   6.63487953
_cell_length_b   6.63487953
_cell_length_c   6.99378540
_cell_angle_alpha   118.83000894
_cell_angle_beta   118.83000894
_cell_angle_gamma   89.01691428
_symmetry_Int_Tables_number   1
_chemical_formula_structural   Na3MgTi2P2O10F
_chemical_formula_sum   'Na3 Mg1 Ti2 P2 O10 F1'
_cell_volume   226.79266555
_cell_formula_units_Z   1
loop_
 _symmetry_equiv_pos_site_id
 _symmetry_equiv_pos_as_xyz
  1  'x, y, z'
loop_
 _atom_site_type_symbol
 _atom_site_label
 _atom_site_symmetry_multiplicity
 _atom_site_fract_x
 _atom_site_fract_y
 _atom_site_fract_z
 _atom_site_occupancy
  Na  Na0  1  0.26914235  0.26328618  0.99974187  1
  Na  Na1  1  0.74362398  0.25637602  0.00000000  1
  Na  Na2  1  0.73671382  0.73085765  0.00025813  1
  Mg  Mg0  1  0.26762144  0.73237856  0.00000000  1
  Ti  Ti0  1  0.21011853  0.21054701  0.42065624  1
  Ti  Ti1  1  0.78945299  0.78988147  0.57934376  1
  P  P0  1  0.25860165  0.74139835  0.50000000  1
  P  P1  1  0.75860013  0.24139987  0.50000000  1
  O  O0  1  0.15800267  0.82918549  0.67914119  1
  O  O1  1  0.17081451  0.84199733  0.32085881  1
  O  O2  1  0.16408311  0.46536667  0.31219607  1
  O  O3  1  0.32985933  0.42384599  0.75411376  1
  O  O4  1  0.53463333  0.83591689  0.68780393  1
  O  O5  1  0.47887504  0.15024398  0.32083013  1
  O  O6  1  0.57615401  0.67014067  0.24588624  1
  O  O7  1  0.84975602  0.52112496  0.67916987  1
  O  O8  1  0.85171295  0.15311062  0.68772350  1
  O  O9  1  0.84688938  0.14828705  0.31227650  1
  F  F0  1  0.02291177  0.97708823  0.00000000  1
loop_
_geom_bond_atom_site_label_1
_geom_bond_atom_site_label_2
_geom_bond_distance
_geom_bond_site_symmetry_2
Na0 O8 2.381014 1_455
Na0 O2 2.381202 1_556
Na0 O5 2.473170 1_556
Na0 O0 2.473229 1_545
Na0 O3 2.587529 1_555
Na0 O6 2.593228 1_556
Na1 O9 2.409177 1_555
Na1 O8 2.409177 1_554
Na1 O4 2.410587 1_544
Na1 O2 2.410587 1_655
Na2 O9 2.381014 1_565
Na2 O4 2.381202 1_554
Na2 O7 2.473170 1_554
Na2 O1 2.473229 1_655
Na2 O6 2.587529 1_555
Na2 O3 2.593228 1_554
Mg0 O3 2.139885 1_554
Mg0 O6 2.139885 1_555
Mg0 O0 2.403570 1_554
Mg0 O1 2.403570 1_555
Mg0 O7 2.405526 1_454
Mg0 O5 2.405526 1_565
O0 P0 1.563275 1_555
O0 Ti1 2.175985 1_455
O1 P0 1.563275 1_555
O1 Ti0 2.175985 1_565
O2 P0 1.548448 1_555
O2 Ti0 2.126694 1_555
O3 Ti0 1.772423 1_555
O4 P0 1.548448 1_555
O4 Ti1 2.126694 1_555
O5 P1 1.563720 1_555
O5 Ti0 2.175768 1_555
O6 Ti1 1.772423 1_555
O7 P1 1.563720 1_555
O7 Ti1 2.175768 1_555
O8 P1 1.547765 1_555
O8 Ti1 2.126884 1_545
O9 P1 1.547765 1_555
O9 Ti0 2.126884 1_655
F0 Ti0 2.178125 1_565
F0 Ti1 2.178125 1_454
F0 Mg0 2.276361 1_555
F0 Na0 2.527329 1_564
F0 Na2 2.527329 1_455
F0 Na1 2.598017 1_465
