# generated using pymatgen
data_MgFe12(OF)12
_symmetry_space_group_name_H-M   'P 1'
_cell_length_a   9.74073839
_cell_length_b   14.50017992
_cell_length_c   3.08947590
_cell_angle_alpha   90.76567780
_cell_angle_beta   89.31058901
_cell_angle_gamma   90.32569632
_symmetry_Int_Tables_number   1
_chemical_formula_structural   MgFe12(OF)12
_chemical_formula_sum   'Mg1 Fe12 O12 F12'
_cell_volume   436.28796586
_cell_formula_units_Z   1
loop_
 _symmetry_equiv_pos_site_id
 _symmetry_equiv_pos_as_xyz
  1  'x, y, z'
loop_
 _atom_site_type_symbol
 _atom_site_label
 _atom_site_symmetry_multiplicity
 _atom_site_fract_x
 _atom_site_fract_y
 _atom_site_fract_z
 _atom_site_occupancy
  Mg  Mg0  1  0.98403500  0.16767100  0.90680000  1
  Fe  Fe0  1  0.02860600  0.98940700  0.08181500  1
  Fe  Fe1  1  0.01861100  0.35568600  0.00102100  1
  Fe  Fe2  1  0.00363100  0.66705400  0.00516600  1
  Fe  Fe3  1  0.25912300  0.15675100  0.48285400  1
  Fe  Fe4  1  0.26124300  0.49381500  0.50024300  1
  Fe  Fe5  1  0.25971400  0.84489900  0.51745200  1
  Fe  Fe6  1  0.49697400  0.34676900  0.98227100  1
  Fe  Fe7  1  0.51106800  0.98170000  0.99493700  1
  Fe  Fe8  1  0.52529100  0.66859700  0.00459300  1
  Fe  Fe9  1  0.71808700  0.14386000  0.45634100  1
  Fe  Fe10  1  0.72171100  0.49970800  0.49403000  1
  Fe  Fe11  1  0.73610300  0.83129000  0.50139800  1
  O  O0  1  0.05520200  0.27197100  0.49236400  1
  O  O1  1  0.09536800  0.92425700  0.56088200  1
  O  O2  1  0.15100700  0.09704500  0.00192300  1
  O  O3  1  0.16174800  0.44249800  0.00043300  1
  O  O4  1  0.35350100  0.89333600  0.01465600  1
  O  O5  1  0.40758800  0.40435400  0.48906000  1
  O  O6  1  0.60667700  0.93013500  0.49099300  1
  O  O7  1  0.59312900  0.60073600  0.49891400  1
  O  O8  1  0.63058900  0.09621100  0.96168800  1
  O  O9  1  0.65742700  0.43031900  0.99105800  1
  O  O10  1  0.66137000  0.76561600  0.00014000  1
  O  O11  1  0.90429000  0.08750400  0.41615900  1
  F  F0  1  0.10964100  0.59979400  0.50634300  1
  F  F1  1  0.16764300  0.76458800  0.01678100  1
  F  F2  1  0.35196000  0.23887300  0.96526800  1
  F  F3  1  0.34848500  0.57129000  0.00237700  1
  F  F4  1  0.40730600  0.05163400  0.49358000  1
  F  F5  1  0.40641600  0.72840900  0.50795800  1
  F  F6  1  0.58401900  0.26718400  0.47136900  1
  F  F7  1  0.81116900  0.23579800  0.95891800  1
  F  F8  1  0.85161600  0.89806500  0.01513800  1
  F  F9  1  0.83964900  0.56521200  0.00212800  1
  F  F10  1  0.90695600  0.41743800  0.50069900  1
  F  F11  1  0.90590500  0.73719100  0.50391300  1
loop_
_geom_bond_atom_site_label_1
_geom_bond_atom_site_label_2
_geom_bond_distance
_geom_bond_site_symmetry_2
Mg0 O2 1.954196 1_656
Mg0 O11 2.055075 1_555
Mg0 O0 2.103731 1_655
Mg0 O11 2.107185 1_556
Mg0 O0 2.446577 1_656
Fe0 O1 1.890357 1_555
Fe0 O1 1.961301 1_554
Fe0 O2 1.974970 1_565
Fe0 O11 2.122931 1_465
Fe1 O3 1.873116 1_555
Fe1 O0 1.992997 1_555
Fe1 O0 2.002640 1_554
Fe3 O2 2.014742 1_555
Fe3 O2 2.101523 1_556
Fe3 O0 2.602441 1_555
Fe4 O5 1.932521 1_555
Fe4 O3 1.966590 1_556
Fe4 O3 1.968365 1_555
Fe5 O4 1.919665 1_556
Fe5 O4 1.930949 1_555
Fe5 O1 1.979014 1_555
Fe6 O5 1.961449 1_556
Fe6 O5 1.962488 1_555
Fe6 O9 1.972261 1_555
Fe7 O6 1.947383 1_555
Fe7 O6 1.961629 1_556
Fe7 O4 1.994636 1_556
Fe7 O8 2.025512 1_565
Fe8 O10 1.927462 1_555
Fe8 O7 1.946044 1_554
Fe8 O7 1.951680 1_555
Fe9 O8 1.880334 1_554
Fe9 O8 1.905627 1_555
Fe9 O11 1.995397 1_555
Fe10 O7 1.932553 1_555
Fe10 O9 1.942514 1_555
Fe10 O9 1.947709 1_554
Fe11 O6 1.915052 1_555
Fe11 O10 1.953160 1_555
Fe11 O10 1.953287 1_556
F0 Fe2 2.079771 1_556
F0 Fe2 2.122550 1_555
F0 Fe4 2.137029 1_555
F1 Fe5 2.127541 1_555
F1 Fe2 2.127928 1_555
F1 Fe5 2.131454 1_554
F2 Fe6 2.102427 1_555
F2 Fe3 2.104708 1_555
F2 Fe3 2.190114 1_556
F3 Fe4 2.086614 1_555
F3 Fe4 2.089286 1_554
F3 Fe8 2.220208 1_555
F4 Fe7 2.087001 1_544
F4 Fe3 2.106011 1_555
F4 Fe7 2.130810 1_545
F5 Fe8 2.107953 1_555
F5 Fe8 2.130006 1_556
F5 Fe5 2.218359 1_555
F6 Fe6 2.102966 1_554
F6 Fe6 2.114771 1_555
F6 Fe9 2.219952 1_555
F7 Mg0 1.960929 1_555
F7 Fe9 2.229002 1_556
F7 Fe9 2.230465 1_555
F8 Fe11 2.108607 1_555
F8 Fe11 2.170765 1_554
F8 Fe0 2.178115 1_655
F9 Fe10 2.124997 1_555
F9 Fe10 2.162680 1_554
F9 Fe2 2.169187 1_655
F10 Fe1 2.074009 1_655
F10 Fe1 2.112452 1_656
F10 Fe10 2.169210 1_555
F11 Fe2 2.061199 1_655
F11 Fe2 2.104093 1_656
F11 Fe11 2.150290 1_555
