# generated using pymatgen
data_MgFeCoO4
_symmetry_space_group_name_H-M   'P 1'
_cell_length_a   5.21677490
_cell_length_b   10.58639534
_cell_length_c   10.13504937
_cell_angle_alpha   16.79088488
_cell_angle_beta   27.87544415
_cell_angle_gamma   32.19080644
_symmetry_Int_Tables_number   1
_chemical_formula_structural   MgFeCoO4
_chemical_formula_sum   'Mg1 Fe1 Co1 O4'
_cell_volume   75.59999841
_cell_formula_units_Z   1
loop_
 _symmetry_equiv_pos_site_id
 _symmetry_equiv_pos_as_xyz
  1  'x, y, z'
loop_
 _atom_site_type_symbol
 _atom_site_label
 _atom_site_symmetry_multiplicity
 _atom_site_fract_x
 _atom_site_fract_y
 _atom_site_fract_z
 _atom_site_occupancy
  Mg  Mg0  1  0.00000000  0.50000000  0.00000000  1
  Fe  Fe0  1  0.50000000  0.00000000  0.50000000  1
  Co  Co0  1  0.50000000  0.50000000  0.50000000  1
  O  O0  1  0.23035500  0.50000000  0.24001300  1
  O  O1  1  0.76964500  0.50000000  0.75998700  1
  O  O2  1  0.22588900  0.00000000  0.25873500  1
  O  O3  1  0.77411100  0.00000000  0.74126500  1
loop_
_geom_bond_atom_site_label_1
_geom_bond_atom_site_label_2
_geom_bond_distance
_geom_bond_site_symmetry_2
Mg0 O3 2.147480 1_464
Mg0 O2 2.147480 1_555
Mg0 O3 2.147480 1_455
Mg0 O2 2.147480 1_564
Mg0 O1 2.184248 1_554
Mg0 O0 2.184248 1_455
Fe0 O2 1.987123 1_655
Fe0 O3 1.987123 1_455
Fe0 O0 2.045636 1_555
Fe0 O1 2.045636 1_545
Fe0 O0 2.045636 1_546
Fe0 O1 2.045636 1_554
Co0 O0 1.926331 1_655
Co0 O1 1.926331 1_455
Co0 O2 2.151735 1_565
Co0 O3 2.151735 1_555
Co0 O2 2.151736 1_556
Co0 O3 2.151736 1_564
