# generated using pymatgen
data_TbFeSi
_symmetry_space_group_name_H-M   'P 1'
_cell_length_a   4.04578139
_cell_length_b   4.04578139
_cell_length_c   6.44184091
_cell_angle_alpha   90.00000000
_cell_angle_beta   90.00000000
_cell_angle_gamma   90.00000000
_symmetry_Int_Tables_number   1
_chemical_formula_structural   TbFeSi
_chemical_formula_sum   'Tb2 Fe2 Si2'
_cell_volume   105.44228769
_cell_formula_units_Z   2
loop_
 _symmetry_equiv_pos_site_id
 _symmetry_equiv_pos_as_xyz
  1  'x, y, z'
loop_
 _atom_site_type_symbol
 _atom_site_label
 _atom_site_symmetry_multiplicity
 _atom_site_fract_x
 _atom_site_fract_y
 _atom_site_fract_z
 _atom_site_occupancy
  Tb  Tb0  1  0.75000000  0.75000000  0.31222912  1
  Tb  Tb1  1  0.25000000  0.25000000  0.68777088  1
  Fe  Fe0  1  0.75000000  0.25000000  0.00000000  1
  Fe  Fe1  1  0.25000000  0.75000000  0.00000000  1
  Si  Si0  1  0.75000000  0.75000000  0.82331698  1
  Si  Si1  1  0.25000000  0.25000000  0.17668302  1
loop_
_geom_bond_atom_site_label_1
_geom_bond_atom_site_label_2
_geom_bond_distance
_geom_bond_site_symmetry_2
Fe0 Si1 2.321100 1_555
Fe0 Si0 2.321100 1_554
Fe0 Si0 2.321100 1_544
Fe0 Si1 2.321100 1_655
Fe0 Tb0 2.852637 1_555
Fe0 Tb0 2.852637 1_545
Fe0 Tb1 2.852637 1_554
Fe0 Tb1 2.852637 1_654
Fe1 Si1 2.321100 1_555
Fe1 Si0 2.321100 1_554
Fe1 Si0 2.321100 1_454
Fe1 Si1 2.321100 1_565
Fe1 Tb1 2.852637 1_564
Fe1 Tb0 2.852637 1_555
Fe1 Tb0 2.852637 1_455
Fe1 Tb1 2.852637 1_554
Si0 Tb1 2.991086 1_565
Si0 Tb1 2.991086 1_555
Si0 Tb1 2.991086 1_655
Si0 Tb1 2.991086 1_665
Si0 Tb0 3.292347 1_555
Si1 Tb0 2.991086 1_555
Si1 Tb0 2.991086 1_545
Si1 Tb0 2.991086 1_455
Si1 Tb0 2.991086 1_445
Si1 Tb1 3.292347 1_555
