# generated using pymatgen
data_MgMn2V2(BiO5)2
_symmetry_space_group_name_H-M   'P 1'
_cell_length_a   6.13992848
_cell_length_b   7.04809666
_cell_length_c   7.01021666
_cell_angle_alpha   113.58498998
_cell_angle_beta   99.60169028
_cell_angle_gamma   99.04246365
_symmetry_Int_Tables_number   1
_chemical_formula_structural   MgMn2V2(BiO5)2
_chemical_formula_sum   'Mg1 Mn2 V2 Bi2 O10'
_cell_volume   265.58150961
_cell_formula_units_Z   1
loop_
 _symmetry_equiv_pos_site_id
 _symmetry_equiv_pos_as_xyz
  1  'x, y, z'
loop_
 _atom_site_type_symbol
 _atom_site_label
 _atom_site_symmetry_multiplicity
 _atom_site_fract_x
 _atom_site_fract_y
 _atom_site_fract_z
 _atom_site_occupancy
  Mg  Mg0  1  0.38762523  0.28145767  0.62207894  1
  Mn  Mn0  1  0.25670220  0.31358236  0.16534454  1
  Mn  Mn1  1  0.76227743  0.69204535  0.82071413  1
  V  V0  1  0.65418516  0.15829995  0.88145126  1
  V  V1  1  0.34800063  0.81113818  0.12193080  1
  Bi  Bi0  1  0.15616517  0.74339634  0.56291028  1
  Bi  Bi1  1  0.82703465  0.22713570  0.42105682  1
  O  O0  1  0.23497797  0.62874807  0.22967247  1
  O  O1  1  0.41910155  0.11246645  0.31540422  1
  O  O2  1  0.61520582  0.77811729  0.07908937  1
  O  O3  1  0.56973424  0.87954847  0.70496261  1
  O  O4  1  0.79134647  0.53927153  0.48927486  1
  O  O5  1  0.72214714  0.34154730  0.75206582  1
  O  O6  1  0.88979418  0.20919754  0.10096166  1
  O  O7  1  0.11948943  0.79086284  0.90665104  1
  O  O8  1  0.36422608  0.21279452  0.87490560  1
  O  O9  1  0.21531964  0.43779743  0.51634060  1
loop_
_geom_bond_atom_site_label_1
_geom_bond_atom_site_label_2
_geom_bond_distance
_geom_bond_site_symmetry_2
Mg0 O9 1.908220 1_555
Mg0 O5 2.005435 1_555
Mg0 O8 2.036074 1_555
Mg0 O1 2.059072 1_555
Mn0 O0 2.113532 1_555
Mn0 O8 2.127057 1_554
Mn0 O6 2.166600 1_455
Mn0 O1 2.323295 1_555
Mn0 O9 2.332392 1_555
Mn1 O2 2.074289 1_556
Mn1 O7 2.098019 1_655
Mn1 O4 2.187807 1_555
Mn1 O3 2.198113 1_555
Mn1 O5 2.283133 1_555
Bi0 O9 2.144881 1_555
Bi0 O0 2.309504 1_555
Bi0 O4 2.315326 1_455
Bi0 O7 2.351355 1_555
Bi0 O3 2.446690 1_555
Bi1 O4 2.112143 1_555
Bi1 O6 2.297056 1_555
Bi1 O5 2.369360 1_555
Bi1 O1 2.396042 1_555
Bi1 O9 2.428340 1_655
O0 V1 1.837376 1_555
O1 V1 1.935621 1_545
O2 V1 1.750559 1_555
O3 V0 1.783300 1_565
O5 V0 1.886577 1_555
O6 V0 1.800524 1_554
O7 V1 1.823334 1_556
O8 V0 1.876428 1_555
