# generated using pymatgen
data_Na2YInSi(SO6)2
_symmetry_space_group_name_H-M   'P 1'
_cell_length_a   9.20283243
_cell_length_b   9.17738588
_cell_length_c   23.40891230
_cell_angle_alpha   90.75507795
_cell_angle_beta   89.79985533
_cell_angle_gamma   120.01420687
_symmetry_Int_Tables_number   1
_chemical_formula_structural   Na2YInSi(SO6)2
_chemical_formula_sum   'Na12 Y6 In6 Si6 S12 O72'
_cell_volume   1711.78685628
_cell_formula_units_Z   6
loop_
 _symmetry_equiv_pos_site_id
 _symmetry_equiv_pos_as_xyz
  1  'x, y, z'
loop_
 _atom_site_type_symbol
 _atom_site_label
 _atom_site_symmetry_multiplicity
 _atom_site_fract_x
 _atom_site_fract_y
 _atom_site_fract_z
 _atom_site_occupancy
  Na  Na0  1  0.00151284  0.62439776  0.25070719  1
  Na  Na1  1  0.37245894  0.99182265  0.75572923  1
  Na  Na2  1  0.65567266  0.97361325  0.59643040  1
  Na  Na3  1  0.02906216  0.34208988  0.09450898  1
  Na  Na4  1  0.98396518  0.67933394  0.92766236  1
  Na  Na5  1  0.32077406  0.00674803  0.43201415  1
  Na  Na6  1  0.02170944  0.97407126  0.50272289  1
  Na  Na7  1  0.01873371  0.98428775  0.00179854  1
  Na  Na8  1  0.65714059  0.28928486  0.83928878  1
  Na  Na9  1  0.71717801  0.34652478  0.33454054  1
  Na  Na10  1  0.32549897  0.65636631  0.16344919  1
  Na  Na11  1  0.34575325  0.67613213  0.66748549  1
  Y  Y0  1  0.99433892  0.00927943  0.35139376  1
  Y  Y1  1  0.00621685  0.99924678  0.65096225  1
  Y  Y2  1  0.66570209  0.32413931  0.68589219  1
  Y  Y3  1  0.66777342  0.32904210  0.18143565  1
  Y  Y4  1  0.67437516  0.34149690  0.48291142  1
  Y  Y5  1  0.31576234  0.64524395  0.31375314  1
  In  In0  1  0.99693953  0.00764294  0.85087748  1
  In  In1  1  0.00097914  0.99483789  0.14705135  1
  In  In2  1  0.65929915  0.33287956  0.98372709  1
  In  In3  1  0.32641584  0.68722290  0.01411988  1
  In  In4  1  0.31478756  0.66886675  0.51667227  1
  In  In5  1  0.35847282  0.69106765  0.82001938  1
  Si  Si0  1  0.00036422  0.29648392  0.24206667  1
  Si  Si1  1  0.70090812  0.99584731  0.74978800  1
  Si  Si2  1  0.36180314  0.02409803  0.58006317  1
  Si  Si3  1  0.96659617  0.63535603  0.08035322  1
  Si  Si4  1  0.32955281  0.97804659  0.91325097  1
  Si  Si5  1  0.02810125  0.66964735  0.41232292  1
  S  S0  1  0.29655757  0.99933179  0.25109552  1
  S  S1  1  0.70312021  0.70482872  0.24737941  1
  S  S2  1  0.29882940  0.30584855  0.75407802  1
  S  S3  1  0.00519839  0.70007521  0.75529673  1
  S  S4  1  0.97366226  0.33588698  0.58327220  1
  S  S5  1  0.65814301  0.63472249  0.58350012  1
  S  S6  1  0.66662040  0.02909241  0.07918114  1
  S  S7  1  0.36238715  0.33763649  0.08048410  1
  S  S8  1  0.62796890  0.66412424  0.91909353  1
  S  S9  1  0.04514079  0.37852113  0.91685471  1
  S  S10  1  0.62491327  0.95561719  0.41968734  1
  S  S11  1  0.33489958  0.37139885  0.42081403  1
  O  O0  1  0.21836986  0.01452925  0.30426461  1
  O  O1  1  0.80931691  0.78510706  0.29846984  1
  O  O2  1  0.99771774  0.19273819  0.29765401  1
  O  O3  1  0.22499676  0.19317592  0.80399814  1
  O  O4  1  0.98640605  0.77420877  0.80968920  1
  O  O5  1  0.81432399  0.00907225  0.80519372  1
  O  O6  1  0.78421763  0.98956153  0.68859522  1
  O  O7  1  0.19845525  0.22524605  0.70181838  1
  O  O8  1  0.03264143  0.81560379  0.70697547  1
  O  O9  1  0.78418988  0.80084637  0.19506415  1
  O  O10  1  0.00522648  0.20387291  0.18150381  1
  O  O11  1  0.18394360  0.96673096  0.20083463  1
  O  O12  1  0.89447682  0.36249880  0.63464907  1
  O  O13  1  0.48031115  0.12446413  0.63625644  1
  O  O14  1  0.65259830  0.54180100  0.63533270  1
  O  O15  1  0.87434220  0.51669186  0.13553742  1
  O  O16  1  0.63940010  0.10313840  0.13189666  1
  O  O17  1  0.45583750  0.34767683  0.13295524  1
  O  O18  1  0.44033411  0.31112682  0.02902916  1
  O  O19  1  0.85897713  0.54522808  0.02091630  1
  O  O20  1  0.68170305  0.13276434  0.02894037  1
  O  O21  1  0.45470258  0.12637642  0.52180686  1
  O  O22  1  0.68186878  0.55535324  0.53171896  1
  O  O23  1  0.87443685  0.32243310  0.53170224  1
  O  O24  1  0.53775575  0.67431233  0.97018881  1
  O  O25  1  0.13824745  0.44951087  0.97163771  1
  O  O26  1  0.28193439  0.84270223  0.96511168  1
  O  O27  1  0.55254205  0.86351073  0.47341069  1
  O  O28  1  0.32996087  0.46017092  0.47298564  1
  O  O29  1  0.15640305  0.70142852  0.46606630  1
  O  O30  1  0.11137636  0.65395724  0.35163553  1
  O  O31  1  0.52242859  0.85922595  0.36958322  1
  O  O32  1  0.35044321  0.46763898  0.36867818  1
  O  O33  1  0.13998188  0.48518592  0.86776521  1
  O  O34  1  0.35728001  0.90264661  0.85239708  1
  O  O35  1  0.53065427  0.63847512  0.86589499  1
  O  O36  1  0.02302523  0.84639803  0.41371928  1
  O  O37  1  0.79870902  0.98862325  0.41617215  1
  O  O38  1  0.17958758  0.20280646  0.41871755  1
  O  O39  1  0.01488446  0.20503354  0.91235620  1
  O  O40  1  0.15204256  0.98567536  0.91001805  1
  O  O41  1  0.79710874  0.81971172  0.91736195  1
  O  O42  1  0.97258607  0.17360827  0.58667214  1
  O  O43  1  0.17257059  0.99600331  0.58476021  1
  O  O44  1  0.80347751  0.81134383  0.58579074  1
  O  O45  1  0.99286245  0.82656183  0.08576390  1
  O  O46  1  0.82672476  0.02611737  0.08208712  1
  O  O47  1  0.18631129  0.19057914  0.08251312  1
  O  O48  1  0.66696366  0.15812668  0.75174712  1
  O  O49  1  0.47001183  0.32778512  0.74755742  1
  O  O50  1  0.85332502  0.53525917  0.74668277  1
  O  O51  1  0.68470254  0.53370835  0.24390200  1
  O  O52  1  0.83593196  0.32481664  0.24492071  1
  O  O53  1  0.46065857  0.15381030  0.24491687  1
  O  O54  1  0.65766122  0.51836401  0.92165316  1
  O  O55  1  0.88045408  0.37584374  0.91792880  1
  O  O56  1  0.49909975  0.16198904  0.92354929  1
  O  O57  1  0.62702976  0.12010234  0.41944823  1
  O  O58  1  0.47984732  0.34206078  0.42126796  1
  O  O59  1  0.84320942  0.50237443  0.41754600  1
  O  O60  1  0.35069617  0.49375006  0.07703871  1
  O  O61  1  0.14990860  0.63998102  0.07827575  1
  O  O62  1  0.52334862  0.85431126  0.07442897  1
  O  O63  1  0.36044424  0.84160420  0.58200513  1
  O  O64  1  0.50176227  0.64397124  0.58019428  1
  O  O65  1  0.14780862  0.47717958  0.57999882  1
  O  O66  1  0.32075521  0.85039147  0.25298489  1
  O  O67  1  0.53707131  0.69045247  0.25244893  1
  O  O68  1  0.16615925  0.48928377  0.24218353  1
  O  O69  1  0.30839113  0.47026584  0.76176410  1
  O  O70  1  0.15688538  0.68076786  0.75621324  1
  O  O71  1  0.51019255  0.82482506  0.75151784  1
loop_
_geom_bond_atom_site_label_1
_geom_bond_atom_site_label_2
_geom_bond_distance
_geom_bond_site_symmetry_2
Na0 O52 2.387404 1_455
Na0 O68 2.396726 1_555
Na0 O30 2.530457 1_555
Na0 O51 2.605887 1_455
Na0 O66 2.614976 1_555
Na0 O15 2.899935 1_455
Na0 O11 2.976268 1_555
Na0 O1 3.017682 1_455
Na1 O48 2.355287 1_565
Na1 O34 2.396288 1_555
Na1 O71 2.429785 1_555
Na1 O70 2.533771 1_555
Na1 O49 2.755752 1_565
Na1 O8 2.935033 1_555
Na1 O3 2.996021 1_565
Na1 O13 3.024938 1_565
Na2 O63 2.380369 1_555
Na2 O6 2.431432 1_555
Na2 O44 2.478783 1_555
Na2 O42 2.564766 1_565
Na2 O64 2.643755 1_555
Na2 O13 2.753329 1_565
Na3 O10 2.364504 1_555
Na3 O61 2.416185 1_555
Na3 O47 2.471116 1_555
Na3 O46 2.557405 1_455
Na3 O60 2.598219 1_555
Na3 O15 2.783866 1_455
Na4 O55 2.459144 1_555
Na4 O40 2.478469 1_655
Na4 O19 2.498032 1_556
Na4 O26 2.530795 1_655
Na4 O54 2.603669 1_555
Na4 O41 2.627227 1_555
Na4 O4 2.903199 1_555
Na5 O21 2.397118 1_555
Na5 O36 2.411393 1_545
Na5 O57 2.486213 1_555
Na5 O29 2.566135 1_545
Na5 O58 2.680870 1_555
Na5 O38 2.716441 1_555
Na6 O43 2.320529 1_555
Na6 O36 2.379832 1_555
Na6 O44 2.663384 1_455
Na6 O38 2.724367 1_565
Na6 O42 2.854256 1_465
Na6 O37 2.940203 1_455
Na7 O45 2.396299 1_455
Na7 O40 2.467366 1_554
Na7 O47 2.556897 1_565
Na7 O41 2.686181 1_454
Na7 O46 2.727373 1_465
Na7 O39 2.945045 1_564
Na8 O48 2.387266 1_555
Na8 O56 2.389880 1_555
Na8 O55 2.568660 1_555
Na8 O54 2.832042 1_555
Na8 O49 2.890696 1_555
Na8 O50 3.013164 1_555
Na9 O59 2.334385 1_555
Na9 O52 2.413720 1_555
Na9 O57 2.707291 1_555
Na9 O51 2.855923 1_555
Na9 O58 2.962334 1_555
Na9 O53 2.976967 1_555
Na10 O68 2.388432 1_555
Na10 O61 2.525996 1_555
Na10 O60 2.576043 1_555
Na10 O66 2.746689 1_555
Na10 O67 2.762469 1_555
Na10 O62 2.778852 1_555
Na11 O71 2.430196 1_555
Na11 O63 2.490228 1_555
Na11 O64 2.590641 1_555
Na11 O70 2.717225 1_555
Na11 O65 2.728802 1_555
Na11 O69 2.830743 1_555
In0 O5 2.000783 1_555
In0 O40 2.074546 1_645
In0 O3 2.228533 1_655
In0 O39 2.239134 1_655
In0 O4 2.294993 1_545
In0 O41 2.378315 1_545
In1 O10 2.053442 1_565
In1 O45 2.067796 1_455
In1 O9 2.212866 1_455
In1 O11 2.223663 1_555
In1 O47 2.325248 1_565
In1 O46 2.335763 1_465
In2 O56 2.064152 1_555
In2 O19 2.077568 1_556
In2 O18 2.193917 1_556
In2 O20 2.228708 1_556
In2 O54 2.258405 1_555
In2 O55 2.421034 1_555
In3 O26 2.037281 1_554
In3 O61 2.092262 1_555
In3 O62 2.193082 1_555
In3 O25 2.218644 1_554
In3 O24 2.251154 1_554
In3 O60 2.416622 1_555
In4 O29 2.018505 1_555
In4 O63 2.074329 1_555
In4 O28 2.224538 1_555
In4 O65 2.236515 1_555
In4 O27 2.264057 1_555
In4 O64 2.375763 1_555
In5 O34 2.080243 1_555
In5 O71 2.085494 1_555
In5 O35 2.165115 1_555
In5 O33 2.258636 1_555
In5 O69 2.274977 1_555
In5 O70 2.349840 1_555
O0 S0 1.475085 1_545
O0 Y0 2.314365 1_455
O1 S1 1.480838 1_555
O1 Y0 2.260462 1_565
O2 Si0 1.615417 1_655
O2 Y0 2.102719 1_555
O3 S2 1.489929 1_555
O4 S3 1.485713 1_655
O5 Si1 1.632449 1_545
O6 Si1 1.636294 1_555
O6 Y1 2.183054 1_655
O7 S2 1.482387 1_555
O7 Y1 2.264431 1_545
O8 S3 1.493030 1_555
O8 Y1 2.255958 1_555
O9 S1 1.482301 1_555
O10 Si0 1.655333 1_555
O11 S0 1.495622 1_555
O12 S4 1.483682 1_555
O12 Y2 2.290729 1_555
O13 Si2 1.655684 1_555
O13 Y2 2.109236 1_555
O14 S5 1.478290 1_555
O14 Y2 2.389537 1_555
O15 Si3 1.637061 1_555
O15 Y3 2.119739 1_555
O16 S6 1.481002 1_555
O16 Y3 2.260162 1_555
O17 S7 1.477134 1_555
O17 Y3 2.339993 1_555
O18 S7 1.478317 1_555
O19 Si3 1.661524 1_555
O20 S6 1.484554 1_555
O21 Si2 1.641482 1_555
O21 Y4 2.203454 1_555
O22 S5 1.476997 1_555
O22 Y4 2.228933 1_555
O23 S4 1.482362 1_555
O23 Y4 2.251018 1_555
O24 S8 1.482024 1_555
O25 S9 1.493450 1_555
O26 Si4 1.643212 1_555
O27 S10 1.482774 1_555
O28 S11 1.472329 1_555
O29 Si5 1.648679 1_555
O30 Si5 1.650343 1_555
O30 Y5 2.113677 1_555
O31 S10 1.481024 1_555
O31 Y5 2.322706 1_555
O32 S11 1.480148 1_555
O32 Y5 2.233889 1_555
O33 S9 1.486078 1_555
O34 Si4 1.649646 1_555
O35 S8 1.482377 1_555
O36 Si5 1.645870 1_555
O36 Y0 2.210829 1_465
O37 S10 1.473669 1_555
O37 Y0 2.285542 1_565
O38 S11 1.491756 1_555
O38 Y0 2.336739 1_455
O39 S9 1.475083 1_555
O40 Si4 1.671733 1_555
O41 S8 1.496974 1_555
O42 S4 1.487546 1_555
O42 Y1 2.341682 1_645
O43 Si2 1.631413 1_565
O43 Y1 2.184958 1_555
O44 S5 1.499485 1_555
O44 Y1 2.348196 1_655
O45 Si3 1.650361 1_555
O46 S6 1.489065 1_555
O47 S7 1.504224 1_555
O48 Si1 1.667705 1_545
O48 Y2 2.185774 1_555
O49 S2 1.492461 1_555
O49 Y2 2.317102 1_555
O50 S3 1.470023 1_655
O50 Y2 2.314742 1_555
O51 S1 1.494008 1_555
O51 Y3 2.308022 1_555
O52 Si0 1.659655 1_655
O52 Y3 2.163916 1_555
O53 S0 1.474262 1_545
O53 Y3 2.324678 1_555
O54 S8 1.495195 1_555
O55 S9 1.503571 1_655
O56 Si4 1.642924 1_545
O57 S10 1.499980 1_545
O57 Y4 2.358912 1_555
O58 S11 1.487098 1_555
O58 Y4 2.305352 1_555
O59 Si5 1.630053 1_655
O59 Y4 2.164082 1_555
O60 S7 1.492672 1_555
O61 Si3 1.666721 1_455
O62 S6 1.484669 1_565
O63 Si2 1.669815 1_565
O64 S5 1.485763 1_555
O65 S4 1.475967 1_455
O66 S0 1.492010 1_555
O66 Y5 2.356668 1_555
O67 S1 1.471083 1_555
O67 Y5 2.351484 1_555
O68 Si0 1.660668 1_555
O68 Y5 2.175426 1_555
O69 S2 1.475493 1_555
O70 S3 1.492749 1_555
O71 Si1 1.670571 1_555
