# generated using pymatgen
data_Sr2MgCuAg2(SO)2
_symmetry_space_group_name_H-M   'P 1'
_cell_length_a   3.97621829
_cell_length_b   3.97621985
_cell_length_c   12.26676562
_cell_angle_alpha   91.05940157
_cell_angle_beta   91.05941531
_cell_angle_gamma   89.96835845
_symmetry_Int_Tables_number   1
_chemical_formula_structural   Sr2MgCuAg2(SO)2
_chemical_formula_sum   'Sr2 Mg1 Cu1 Ag2 S2 O2'
_cell_volume   193.87516377
_cell_formula_units_Z   1
loop_
 _symmetry_equiv_pos_site_id
 _symmetry_equiv_pos_as_xyz
  1  'x, y, z'
loop_
 _atom_site_type_symbol
 _atom_site_label
 _atom_site_symmetry_multiplicity
 _atom_site_fract_x
 _atom_site_fract_y
 _atom_site_fract_z
 _atom_site_occupancy
  Sr  Sr0  1  0.44238869  0.44238868  0.11954277  1
  Sr  Sr1  1  0.42744234  0.42744234  0.84073647  1
  Mg  Mg0  1  0.86464514  0.86464514  0.40269457  1
  Cu  Cu0  1  0.93513214  0.93513214  0.97653866  1
  Ag  Ag0  1  0.88685311  0.38985271  0.56982643  1
  Ag  Ag1  1  0.38985271  0.88685311  0.56982643  1
  S  S0  1  0.91609531  0.91609531  0.71974096  1
  S  S1  1  -0.05006692  -0.05006692  0.21918123  1
  O  O0  1  0.43492534  0.93606514  0.97220624  1
  O  O1  1  0.93606514  0.43492534  0.97220624  1
loop_
_geom_bond_atom_site_label_1
_geom_bond_atom_site_label_2
_geom_bond_distance
_geom_bond_site_symmetry_2
Mg0 S1 2.313896 1_665
Cu0 O0 1.988662 1_555
Cu0 O1 1.988663 1_555
Cu0 O0 1.988987 1_655
Cu0 O1 1.988987 1_565
Cu0 S1 2.975427 1_666
Ag0 S0 2.657787 1_545
Ag0 S0 2.761116 1_555
Ag0 Mg0 2.812706 1_555
Ag0 Mg0 2.899541 1_545
Ag1 S0 2.657787 1_455
Ag1 S0 2.761115 1_555
Ag1 Mg0 2.812706 1_555
Ag1 Mg0 2.899541 1_455
S0 Sr1 3.157657 1_555
S0 Sr1 3.178495 1_655
S0 Sr1 3.178496 1_565
S0 Sr1 3.201926 1_665
S1 Sr0 3.056715 1_555
S1 Sr0 3.064923 1_455
S1 Sr0 3.064924 1_545
S1 Sr0 3.075950 1_445
O0 Sr1 2.556134 1_565
O0 Sr1 2.563101 1_555
O0 Sr0 2.680316 1_566
O0 Sr0 2.692535 1_556
O1 Sr1 2.556133 1_655
O1 Sr1 2.563100 1_555
O1 Sr0 2.680315 1_656
O1 Sr0 2.692535 1_556
