# generated using pymatgen
data_CaB2Rh3
_symmetry_space_group_name_H-M   'P 1'
_cell_length_a   11.13939346
_cell_length_b   11.13939431
_cell_length_c   5.82765520
_cell_angle_alpha   90.00000000
_cell_angle_beta   90.00000000
_cell_angle_gamma   119.99999752
_symmetry_Int_Tables_number   1
_chemical_formula_structural   CaB2Rh3
_chemical_formula_sum   'Ca8 B16 Rh24'
_cell_volume   626.24981772
_cell_formula_units_Z   8
loop_
 _symmetry_equiv_pos_site_id
 _symmetry_equiv_pos_as_xyz
  1  'x, y, z'
loop_
 _atom_site_type_symbol
 _atom_site_label
 _atom_site_symmetry_multiplicity
 _atom_site_fract_x
 _atom_site_fract_y
 _atom_site_fract_z
 _atom_site_occupancy
  Ca  Ca0_0  1  0.00000000  0.00000000  0.25000000  1
  Ca  Ca0_1  1  0.00000000  0.00000000  0.75000000  1
  Ca  Ca0_2  1  0.00000000  0.50000000  0.25000000  1
  Ca  Ca0_3  1  0.00000000  0.50000000  0.75000000  1
  Ca  Ca0_4  1  0.50000000  0.00000000  0.25000000  1
  Ca  Ca0_5  1  0.50000000  0.00000000  0.75000000  1
  Ca  Ca0_6  1  0.50000000  0.50000000  0.25000000  1
  Ca  Ca0_7  1  0.50000000  0.50000000  0.75000000  1
  B  B0_0  1  0.33333350  0.16666650  0.25000000  1
  B  B0_1  1  0.33333350  0.16666650  0.75000000  1
  B  B0_2  1  0.33333350  0.66666650  0.25000000  1
  B  B0_3  1  0.33333350  0.66666650  0.75000000  1
  B  B0_4  1  0.83333350  0.16666650  0.25000000  1
  B  B0_5  1  0.83333350  0.16666650  0.75000000  1
  B  B0_6  1  0.83333350  0.66666650  0.25000000  1
  B  B0_7  1  0.83333350  0.66666650  0.75000000  1
  B  B1_0  1  0.16666650  0.33333350  0.25000000  1
  B  B1_1  1  0.16666650  0.33333350  0.75000000  1
  B  B1_2  1  0.16666650  0.83333350  0.25000000  1
  B  B1_3  1  0.16666650  0.83333350  0.75000000  1
  B  B1_4  1  0.66666650  0.33333350  0.25000000  1
  B  B1_5  1  0.66666650  0.33333350  0.75000000  1
  B  B1_6  1  0.66666650  0.83333350  0.25000000  1
  B  B1_7  1  0.66666650  0.83333350  0.75000000  1
  Rh  Rh0_0  1  0.25000000  0.25000000  0.00000000  1
  Rh  Rh0_1  1  0.25000000  0.25000000  0.50000000  1
  Rh  Rh0_2  1  0.25000000  0.75000000  0.00000000  1
  Rh  Rh0_3  1  0.25000000  0.75000000  0.50000000  1
  Rh  Rh0_4  1  0.75000000  0.25000000  0.00000000  1
  Rh  Rh0_5  1  0.75000000  0.25000000  0.50000000  1
  Rh  Rh0_6  1  0.75000000  0.75000000  0.00000000  1
  Rh  Rh0_7  1  0.75000000  0.75000000  0.50000000  1
  Rh  Rh1_0  1  0.25000000  0.00000000  0.00000000  1
  Rh  Rh1_1  1  0.25000000  0.00000000  0.50000000  1
  Rh  Rh1_2  1  0.25000000  0.50000000  0.00000000  1
  Rh  Rh1_3  1  0.25000000  0.50000000  0.50000000  1
  Rh  Rh1_4  1  0.75000000  0.00000000  0.00000000  1
  Rh  Rh1_5  1  0.75000000  0.00000000  0.50000000  1
  Rh  Rh1_6  1  0.75000000  0.50000000  0.00000000  1
  Rh  Rh1_7  1  0.75000000  0.50000000  0.50000000  1
  Rh  Rh2_0  1  0.00000000  0.25000000  0.00000000  1
  Rh  Rh2_1  1  0.00000000  0.25000000  0.50000000  1
  Rh  Rh2_2  1  0.00000000  0.75000000  0.00000000  1
  Rh  Rh2_3  1  0.00000000  0.75000000  0.50000000  1
  Rh  Rh2_4  1  0.50000000  0.25000000  0.00000000  1
  Rh  Rh2_5  1  0.50000000  0.25000000  0.50000000  1
  Rh  Rh2_6  1  0.50000000  0.75000000  0.00000000  1
  Rh  Rh2_7  1  0.50000000  0.75000000  0.50000000  1
loop_
_geom_bond_atom_site_label_1
_geom_bond_atom_site_label_2
_geom_bond_distance
_geom_bond_site_symmetry_2
Ca0_0 Ca0_1 2.913828 1_555
Ca0_0 Ca0_1 2.913828 1_554
Ca0_0 Rh1_1 3.142925 1_555
Ca0_0 Rh1_5 3.142925 1_455
Ca0_0 Rh1_0 3.142925 1_555
Ca0_0 Rh1_4 3.142925 1_455
Ca0_0 Rh0_7 3.142925 1_445
Ca0_0 Rh0_6 3.142925 1_445
Ca0_0 Rh0_1 3.142925 1_555
Ca0_0 Rh0_0 3.142925 1_555
Ca0_0 Rh2_3 3.142925 1_545
Ca0_0 Rh2_0 3.142925 1_555
Ca0_0 Rh2_1 3.142925 1_555
Ca0_0 Rh2_2 3.142925 1_545
Ca0_1 Rh1_1 3.142925 1_555
Ca0_1 Rh1_5 3.142925 1_455
Ca0_1 Rh1_4 3.142925 1_456
Ca0_1 Rh1_0 3.142925 1_556
Ca0_1 Rh0_7 3.142925 1_445
Ca0_1 Rh0_6 3.142925 1_446
Ca0_1 Rh0_1 3.142925 1_555
Ca0_1 Rh0_0 3.142925 1_556
Ca0_1 Rh2_3 3.142925 1_545
Ca0_1 Rh2_0 3.142925 1_556
Ca0_1 Rh2_2 3.142925 1_546
Ca0_1 Rh2_1 3.142925 1_555
Ca0_2 Ca0_3 2.913828 1_554
Ca0_2 Ca0_3 2.913828 1_555
Ca0_2 Rh1_3 3.142925 1_555
Ca0_2 Rh1_2 3.142925 1_555
Ca0_2 Rh1_6 3.142925 1_455
Ca0_2 Rh1_7 3.142925 1_455
Ca0_2 Rh0_2 3.142925 1_555
Ca0_2 Rh0_5 3.142925 1_455
Ca0_2 Rh0_4 3.142925 1_455
Ca0_2 Rh0_3 3.142925 1_555
Ca0_2 Rh2_0 3.142925 1_555
Ca0_2 Rh2_3 3.142925 1_555
Ca0_2 Rh2_2 3.142925 1_555
Ca0_2 Rh2_1 3.142925 1_555
Ca0_3 Rh1_3 3.142925 1_555
Ca0_3 Rh1_2 3.142925 1_556
Ca0_3 Rh1_6 3.142925 1_456
Ca0_3 Rh1_7 3.142925 1_455
Ca0_3 Rh0_2 3.142925 1_556
Ca0_3 Rh0_5 3.142925 1_455
Ca0_3 Rh0_4 3.142925 1_456
Ca0_3 Rh0_3 3.142925 1_555
Ca0_3 Rh2_0 3.142925 1_556
Ca0_3 Rh2_2 3.142925 1_556
Ca0_3 Rh2_3 3.142925 1_555
Ca0_3 Rh2_1 3.142925 1_555
Ca0_4 Ca0_5 2.913828 1_555
Ca0_4 Ca0_5 2.913828 1_554
Ca0_4 Rh1_1 3.142925 1_555
Ca0_4 Rh1_0 3.142925 1_555
Ca0_4 Rh1_4 3.142925 1_555
Ca0_4 Rh1_5 3.142925 1_555
Ca0_4 Rh0_5 3.142925 1_555
Ca0_4 Rh0_4 3.142925 1_555
Ca0_4 Rh0_3 3.142925 1_545
Ca0_4 Rh0_2 3.142925 1_545
Ca0_4 Rh2_6 3.142925 1_545
Ca0_4 Rh2_5 3.142925 1_555
Ca0_4 Rh2_7 3.142925 1_545
Ca0_4 Rh2_4 3.142925 1_555
Ca0_5 Rh1_1 3.142925 1_555
Ca0_5 Rh1_0 3.142925 1_556
Ca0_5 Rh1_4 3.142925 1_556
Ca0_5 Rh1_5 3.142925 1_555
Ca0_5 Rh0_5 3.142925 1_555
Ca0_5 Rh0_2 3.142925 1_546
Ca0_5 Rh0_4 3.142925 1_556
Ca0_5 Rh0_3 3.142925 1_545
Ca0_5 Rh2_6 3.142925 1_546
Ca0_5 Rh2_5 3.142925 1_555
Ca0_5 Rh2_7 3.142925 1_545
Ca0_5 Rh2_4 3.142925 1_556
Ca0_6 Ca0_7 2.913828 1_555
Ca0_6 Ca0_7 2.913828 1_554
Ca0_6 Rh1_7 3.142925 1_555
Ca0_6 Rh1_6 3.142925 1_555
Ca0_6 Rh1_3 3.142925 1_555
Ca0_6 Rh1_2 3.142925 1_555
Ca0_6 Rh0_6 3.142925 1_555
Ca0_6 Rh0_7 3.142925 1_555
Ca0_6 Rh0_1 3.142925 1_555
Ca0_6 Rh0_0 3.142925 1_555
Ca0_6 Rh2_7 3.142925 1_555
Ca0_6 Rh2_6 3.142925 1_555
Ca0_6 Rh2_5 3.142925 1_555
Ca0_6 Rh2_4 3.142925 1_555
Ca0_7 Rh1_2 3.142925 1_556
Ca0_7 Rh1_7 3.142925 1_555
Ca0_7 Rh1_3 3.142925 1_555
Ca0_7 Rh1_6 3.142925 1_556
Ca0_7 Rh0_7 3.142925 1_555
Ca0_7 Rh0_1 3.142925 1_555
Ca0_7 Rh0_6 3.142925 1_556
Ca0_7 Rh0_0 3.142925 1_556
Ca0_7 Rh2_7 3.142925 1_555
Ca0_7 Rh2_6 3.142925 1_556
Ca0_7 Rh2_5 3.142925 1_555
Ca0_7 Rh2_4 3.142925 1_556
B0_0 Rh2_4 2.169728 1_555
B0_0 Rh2_5 2.169728 1_555
B0_0 Rh1_1 2.169728 1_555
B0_0 Rh1_0 2.169728 1_555
B0_0 Rh0_0 2.169732 1_555
B0_0 Rh0_1 2.169732 1_555
B0_0 Ca0_4 3.215663 1_555
B0_0 Ca0_0 3.215668 1_555
B0_0 Ca0_6 3.215668 1_555
B0_1 Rh2_4 2.169728 1_556
B0_1 Rh2_5 2.169728 1_555
B0_1 Rh1_1 2.169728 1_555
B0_1 Rh1_0 2.169728 1_556
B0_1 Rh0_0 2.169732 1_556
B0_1 Rh0_1 2.169732 1_555
B0_1 Ca0_5 3.215663 1_555
B0_1 Ca0_1 3.215668 1_555
B0_1 Ca0_7 3.215668 1_555
B0_2 Rh2_6 2.169728 1_555
B0_2 Rh2_7 2.169728 1_555
B0_2 Rh1_3 2.169728 1_555
B0_2 Rh1_2 2.169728 1_555
B0_2 Rh0_2 2.169732 1_555
B0_2 Rh0_3 2.169732 1_555
B0_2 Ca0_6 3.215663 1_555
B0_2 Ca0_2 3.215668 1_555
B0_2 Ca0_4 3.215668 1_565
B0_3 Rh2_6 2.169728 1_556
B0_3 Rh2_7 2.169728 1_555
B0_3 Rh1_3 2.169728 1_555
B0_3 Rh1_2 2.169728 1_556
B0_3 Rh0_3 2.169732 1_555
B0_3 Rh0_2 2.169732 1_556
B0_3 Ca0_7 3.215663 1_555
B0_3 Ca0_3 3.215668 1_555
B0_3 Ca0_5 3.215668 1_565
B0_4 Rh2_0 2.169728 1_655
B0_4 Rh2_1 2.169728 1_655
B0_4 Rh1_4 2.169728 1_555
B0_4 Rh1_5 2.169728 1_555
B0_4 Rh0_4 2.169732 1_555
B0_4 Rh0_5 2.169732 1_555
B0_4 Ca0_0 3.215663 1_655
B0_4 Ca0_4 3.215668 1_555
B0_4 Ca0_2 3.215668 1_655
B0_5 Rh2_0 2.169728 1_656
B0_5 Rh2_1 2.169728 1_655
B0_5 Rh1_4 2.169728 1_556
B0_5 Rh1_5 2.169728 1_555
B0_5 Rh0_4 2.169732 1_556
B0_5 Rh0_5 2.169732 1_555
B0_5 Ca0_1 3.215663 1_655
B0_5 Ca0_5 3.215668 1_555
B0_5 Ca0_3 3.215668 1_655
B0_6 Rh2_3 2.169728 1_655
B0_6 Rh2_2 2.169728 1_655
B0_6 Rh1_7 2.169728 1_555
B0_6 Rh1_6 2.169728 1_555
B0_6 Rh0_7 2.169732 1_555
B0_6 Rh0_6 2.169732 1_555
B0_6 Ca0_2 3.215663 1_655
B0_6 Ca0_6 3.215668 1_555
B0_6 Ca0_0 3.215668 1_665
B0_7 Rh2_2 2.169728 1_656
B0_7 Rh2_3 2.169728 1_655
B0_7 Rh1_7 2.169728 1_555
B0_7 Rh1_6 2.169728 1_556
B0_7 Rh0_7 2.169732 1_555
B0_7 Rh0_6 2.169732 1_556
B0_7 Ca0_3 3.215663 1_655
B0_7 Ca0_7 3.215668 1_555
B0_7 Ca0_1 3.215668 1_665
B1_0 Rh2_1 2.169728 1_555
B1_0 Rh2_0 2.169728 1_555
B1_0 Rh1_3 2.169728 1_555
B1_0 Rh1_2 2.169728 1_555
B1_0 Rh0_1 2.169732 1_555
B1_0 Rh0_0 2.169732 1_555
B1_0 Ca0_2 3.215663 1_555
B1_0 Ca0_6 3.215668 1_555
B1_0 Ca0_0 3.215668 1_555
B1_1 Rh2_1 2.169728 1_555
B1_1 Rh2_0 2.169728 1_556
B1_1 Rh1_3 2.169728 1_555
B1_1 Rh1_2 2.169728 1_556
B1_1 Rh0_0 2.169732 1_556
B1_1 Rh0_1 2.169732 1_555
B1_1 Ca0_3 3.215663 1_555
B1_1 Ca0_7 3.215668 1_555
B1_1 Ca0_1 3.215668 1_555
B1_2 Rh2_3 2.169728 1_555
B1_2 Rh2_2 2.169728 1_555
B1_2 Rh1_1 2.169728 1_565
B1_2 Rh1_0 2.169728 1_565
B1_2 Rh0_2 2.169732 1_555
B1_2 Rh0_3 2.169732 1_555
B1_2 Ca0_0 3.215663 1_565
B1_2 Ca0_4 3.215668 1_565
B1_2 Ca0_2 3.215668 1_555
B1_3 Rh2_3 2.169728 1_555
B1_3 Rh2_2 2.169728 1_556
B1_3 Rh1_0 2.169728 1_566
B1_3 Rh1_1 2.169728 1_565
B1_3 Rh0_3 2.169732 1_555
B1_3 Rh0_2 2.169732 1_556
B1_3 Ca0_1 3.215663 1_565
B1_3 Ca0_5 3.215668 1_565
B1_3 Ca0_3 3.215668 1_555
B1_4 Rh2_4 2.169728 1_555
B1_4 Rh2_5 2.169728 1_555
B1_4 Rh1_7 2.169728 1_555
B1_4 Rh1_6 2.169728 1_555
B1_4 Rh0_5 2.169732 1_555
B1_4 Rh0_4 2.169732 1_555
B1_4 Ca0_6 3.215663 1_555
B1_4 Ca0_2 3.215668 1_655
B1_4 Ca0_4 3.215668 1_555
B1_5 Rh2_5 2.169728 1_555
B1_5 Rh2_4 2.169728 1_556
B1_5 Rh1_7 2.169728 1_555
B1_5 Rh1_6 2.169728 1_556
B1_5 Rh0_5 2.169732 1_555
B1_5 Rh0_4 2.169732 1_556
B1_5 Ca0_7 3.215663 1_555
B1_5 Ca0_3 3.215668 1_655
B1_5 Ca0_5 3.215668 1_555
B1_6 Rh2_7 2.169728 1_555
B1_6 Rh2_6 2.169728 1_555
B1_6 Rh1_4 2.169728 1_565
B1_6 Rh1_5 2.169728 1_565
B1_6 Rh0_7 2.169732 1_555
B1_6 Rh0_6 2.169732 1_555
B1_6 Ca0_4 3.215663 1_565
B1_6 Ca0_0 3.215668 1_665
B1_6 Ca0_6 3.215668 1_555
B1_7 Rh2_6 2.169728 1_556
B1_7 Rh2_7 2.169728 1_555
B1_7 Rh1_4 2.169728 1_566
B1_7 Rh1_5 2.169728 1_565
B1_7 Rh0_7 2.169732 1_555
B1_7 Rh0_6 2.169732 1_556
B1_7 Ca0_5 3.215663 1_565
B1_7 Ca0_1 3.215668 1_665
B1_7 Ca0_7 3.215668 1_555
