# generated using pymatgen
data_Ca(NiGe)2
_symmetry_space_group_name_H-M   'P 1'
_cell_length_a   4.05287026
_cell_length_b   4.05287115
_cell_length_c   5.75311576
_cell_angle_alpha   110.62393215
_cell_angle_beta   110.62393828
_cell_angle_gamma   90.00001120
_symmetry_Int_Tables_number   1
_chemical_formula_structural   Ca(NiGe)2
_chemical_formula_sum   'Ca1 Ni2 Ge2'
_cell_volume   81.94044771
_cell_formula_units_Z   1
loop_
 _symmetry_equiv_pos_site_id
 _symmetry_equiv_pos_as_xyz
  1  'x, y, z'
loop_
 _atom_site_type_symbol
 _atom_site_label
 _atom_site_symmetry_multiplicity
 _atom_site_fract_x
 _atom_site_fract_y
 _atom_site_fract_z
 _atom_site_occupancy
  Ca  Ca0  1  0.00000000  0.00000000  0.00000000  1
  Ni  Ni0  1  0.25000000  0.75000000  0.50000000  1
  Ni  Ni1  1  0.75000000  0.25000000  0.50000000  1
  Ge  Ge0  1  0.36797810  0.36797810  0.73595620  1
  Ge  Ge1  1  0.63202190  0.63202190  0.26404380  1
loop_
_geom_bond_atom_site_label_1
_geom_bond_atom_site_label_2
_geom_bond_distance
_geom_bond_site_symmetry_2
Ca0 Ge0 3.154025 1_444
Ca0 Ge1 3.154025 1_555
Ca0 Ge1 3.154025 1_445
Ca0 Ge0 3.154025 1_554
Ca0 Ge1 3.154025 1_545
Ca0 Ge0 3.154025 1_454
Ca0 Ge1 3.154025 1_455
Ca0 Ge0 3.154025 1_544
Ca0 Ni0 3.213690 1_444
Ca0 Ni1 3.213690 1_555
Ca0 Ni0 3.213690 1_545
Ca0 Ni1 3.213690 1_454
Ca0 Ni0 3.213690 1_544
Ca0 Ni1 3.213690 1_455
Ca0 Ni0 3.213690 1_555
Ca0 Ni1 3.213690 1_444
Ge0 Ni1 2.343490 1_455
Ge0 Ni1 2.343490 1_555
Ge0 Ni0 2.343490 1_555
Ge0 Ni0 2.343490 1_545
Ge0 Ge1 2.634382 1_556
Ge1 Ni0 2.343490 1_655
Ge1 Ni0 2.343490 1_555
Ge1 Ni1 2.343490 1_555
Ge1 Ni1 2.343490 1_565
