# generated using pymatgen
data_LiNiO2
_symmetry_space_group_name_H-M   'P 1'
_cell_length_a   10.19731021
_cell_length_b   10.19731021
_cell_length_c   5.22675718
_cell_angle_alpha   80.91422730
_cell_angle_beta   80.91422730
_cell_angle_gamma   16.02184172
_symmetry_Int_Tables_number   1
_chemical_formula_structural   LiNiO2
_chemical_formula_sum   'Li4 Ni4 O8'
_cell_volume   148.08976686
_cell_formula_units_Z   4
loop_
 _symmetry_equiv_pos_site_id
 _symmetry_equiv_pos_as_xyz
  1  'x, y, z'
loop_
 _atom_site_type_symbol
 _atom_site_label
 _atom_site_symmetry_multiplicity
 _atom_site_fract_x
 _atom_site_fract_y
 _atom_site_fract_z
 _atom_site_occupancy
  Li  Li0  1  0.64119900  0.64119900  0.62958700  1
  Li  Li1  1  0.35880100  0.35880100  0.37041300  1
  Li  Li2  1  0.38984900  0.38984900  0.87909300  1
  Li  Li3  1  0.61015100  0.61015100  0.12090700  1
  Ni  Ni0  1  0.74764900  0.74764900  0.24917200  1
  Ni  Ni1  1  0.00000000  0.00000000  0.00000000  1
  Ni  Ni2  1  0.50000000  0.50000000  0.50000000  1
  Ni  Ni3  1  0.25235100  0.25235100  0.75082800  1
  O  O0  1  0.80472600  0.80472600  0.56855800  1
  O  O1  1  0.44852300  0.44852300  0.17298900  1
  O  O2  1  0.69891300  0.69891300  0.91617000  1
  O  O3  1  0.55147700  0.55147700  0.82701100  1
  O  O4  1  0.30108700  0.30108700  0.08383000  1
  O  O5  1  0.05327300  0.05327300  0.27087300  1
  O  O6  1  0.94672700  0.94672700  0.72912700  1
  O  O7  1  0.19527400  0.19527400  0.43144200  1
loop_
_geom_bond_atom_site_label_1
_geom_bond_atom_site_label_2
_geom_bond_distance
_geom_bond_site_symmetry_2
Li0 O3 1.936945 1_555
Li0 O7 1.980925 1_565
Li0 O7 1.980925 1_655
Li0 O2 2.039385 1_555
Li1 O1 1.936945 1_555
Li1 O0 1.980925 1_455
Li1 O0 1.980925 1_545
Li1 O4 2.039385 1_555
Li2 O6 1.914754 1_545
Li2 O6 1.914754 1_455
Li2 O4 1.935651 1_556
Li2 O1 2.084308 1_556
Li3 O5 1.914754 1_565
Li3 O5 1.914754 1_655
Li3 O2 1.935651 1_554
Li3 O3 2.084308 1_554
Ni0 O4 1.906215 1_655
Ni0 O4 1.906215 1_565
Ni0 O7 1.929923 1_565
Ni0 O7 1.929923 1_655
Ni0 O2 2.131793 1_554
Ni0 O0 2.174670 1_555
Ni1 O3 1.902127 1_544
Ni1 O3 1.902127 1_454
Ni1 O1 1.902127 1_545
Ni1 O1 1.902127 1_455
Ni1 O5 1.909917 1_555
Ni1 O6 1.909917 1_444
Ni2 O5 2.049481 1_565
Ni2 O5 2.049481 1_655
Ni2 O6 2.049481 1_545
Ni2 O6 2.049481 1_455
Ni2 O1 2.137498 1_555
Ni2 O3 2.137498 1_555
Ni3 O2 1.906215 1_545
Ni3 O2 1.906215 1_455
Ni3 O0 1.929923 1_455
Ni3 O0 1.929923 1_545
Ni3 O4 2.131793 1_556
Ni3 O7 2.174670 1_555
