# generated using pymatgen
data_Yb(As2Rh3)2
_symmetry_space_group_name_H-M   'P 1'
_cell_length_a   7.29181969
_cell_length_b   7.29181969
_cell_length_c   3.80897400
_cell_angle_alpha   90.00000000
_cell_angle_beta   90.00000000
_cell_angle_gamma   119.99999717
_symmetry_Int_Tables_number   1
_chemical_formula_structural   Yb(As2Rh3)2
_chemical_formula_sum   'Yb1 As4 Rh6'
_cell_volume   175.39228822
_cell_formula_units_Z   1
loop_
 _symmetry_equiv_pos_site_id
 _symmetry_equiv_pos_as_xyz
  1  'x, y, z'
loop_
 _atom_site_type_symbol
 _atom_site_label
 _atom_site_symmetry_multiplicity
 _atom_site_fract_x
 _atom_site_fract_y
 _atom_site_fract_z
 _atom_site_occupancy
  Yb  Yb0  1  0.00000000  0.00000000  0.00000000  1
  As  As0  1  0.81173500  0.62346900  0.50000000  1
  As  As1  1  0.33333300  0.66666700  0.00000000  1
  As  As2  1  0.37653100  0.18826500  0.50000000  1
  As  As3  1  0.81173500  0.18826500  0.50000000  1
  Rh  Rh0  1  0.53495000  0.06990000  0.00000000  1
  Rh  Rh1  1  0.60200800  0.80100400  0.50000000  1
  Rh  Rh2  1  0.19899600  0.39799200  0.50000000  1
  Rh  Rh3  1  0.53495000  0.46505000  0.00000000  1
  Rh  Rh4  1  0.19899600  0.80100400  0.50000000  1
  Rh  Rh5  1  0.93010000  0.46505000  0.00000000  1
loop_
_geom_bond_atom_site_label_1
_geom_bond_atom_site_label_2
_geom_bond_distance
_geom_bond_site_symmetry_2
As0 Rh4 2.448330 1_655
As0 Rh1 2.448336 1_555
As0 Rh5 2.589097 1_555
As0 Rh5 2.589097 1_556
As0 Rh3 2.589101 1_556
As0 Rh3 2.589101 1_555
As0 Yb0 3.046440 1_666
As0 Yb0 3.046440 1_665
As1 Rh5 2.546377 1_455
As1 Rh0 2.546377 1_565
As1 Rh3 2.546383 1_555
As1 Rh4 2.550626 1_555
As1 Rh4 2.550626 1_554
As1 Rh1 2.550630 1_554
As1 Rh2 2.550630 1_555
As1 Rh2 2.550630 1_554
As1 Rh1 2.550630 1_555
As2 Rh4 2.448330 1_545
As2 Rh2 2.448336 1_555
As2 Rh0 2.589097 1_556
As2 Rh0 2.589097 1_555
As2 Rh3 2.589101 1_555
As2 Rh3 2.589101 1_556
As2 Yb0 3.046440 1_555
As2 Yb0 3.046440 1_556
As3 Rh1 2.448330 1_545
As3 Rh2 2.448330 1_655
As3 Rh0 2.589102 1_555
As3 Rh0 2.589102 1_556
As3 Rh5 2.589102 1_555
As3 Rh5 2.589102 1_556
As3 Yb0 3.046435 1_655
As3 Yb0 3.046435 1_656
Rh1 Yb0 3.153355 1_666
Rh1 Yb0 3.153355 1_665
Rh2 Yb0 3.153355 1_555
Rh2 Yb0 3.153355 1_556
Rh4 Yb0 3.153355 1_566
Rh4 Yb0 3.153355 1_565
