# generated using pymatgen
data_BaMgVO3
_symmetry_space_group_name_H-M   'P 1'
_cell_length_a   4.01929606
_cell_length_b   4.01929606
_cell_length_c   5.66752867
_cell_angle_alpha   74.41764314
_cell_angle_beta   74.41764314
_cell_angle_gamma   89.70379408
_symmetry_Int_Tables_number   1
_chemical_formula_structural   BaMgVO3
_chemical_formula_sum   'Ba1 Mg1 V1 O3'
_cell_volume   84.72911701
_cell_formula_units_Z   1
loop_
 _symmetry_equiv_pos_site_id
 _symmetry_equiv_pos_as_xyz
  1  'x, y, z'
loop_
 _atom_site_type_symbol
 _atom_site_label
 _atom_site_symmetry_multiplicity
 _atom_site_fract_x
 _atom_site_fract_y
 _atom_site_fract_z
 _atom_site_occupancy
  Ba  Ba0  1  0.87790430  0.87790430  0.95199213  1
  Mg  Mg0  1  0.18936300  0.18936300  0.34492602  1
  V  V0  1  0.58320495  0.58320495  0.57744390  1
  O  O0  1  0.63893604  0.12025286  0.46156437  1
  O  O1  1  0.12025286  0.63893604  0.46156437  1
  O  O2  1  0.34033885  0.34033885  -0.03082379  1
loop_
_geom_bond_atom_site_label_1
_geom_bond_atom_site_label_2
_geom_bond_distance
_geom_bond_site_symmetry_2
Ba0 O2 2.673752 1_666
Ba0 O2 2.841677 1_566
Ba0 O2 2.841677 1_656
Ba0 O2 3.027926 1_556
Ba0 O0 3.093069 1_565
Ba0 O1 3.093069 1_655
Ba0 O1 3.197402 1_656
Ba0 O0 3.197402 1_566
Mg0 O2 1.971501 1_555
Mg0 O0 2.077782 1_555
Mg0 O1 2.077782 1_555
Mg0 O0 2.128508 1_455
Mg0 O1 2.128508 1_545
O0 V0 2.074898 1_545
O0 V0 2.125335 1_555
O1 V0 2.074898 1_455
O1 V0 2.125335 1_555
O2 V0 2.125095 1_554
