# generated using pymatgen
data_MgFe6(O5F)2
_symmetry_space_group_name_H-M   'P 1'
_cell_length_a   5.14657148
_cell_length_b   5.14657020
_cell_length_c   8.84297987
_cell_angle_alpha   89.84517892
_cell_angle_beta   90.15481587
_cell_angle_gamma   104.06563953
_symmetry_Int_Tables_number   1
_chemical_formula_structural   MgFe6(O5F)2
_chemical_formula_sum   'Mg1 Fe6 O10 F2'
_cell_volume   227.20179627
_cell_formula_units_Z   1
loop_
 _symmetry_equiv_pos_site_id
 _symmetry_equiv_pos_as_xyz
  1  'x, y, z'
loop_
 _atom_site_type_symbol
 _atom_site_label
 _atom_site_symmetry_multiplicity
 _atom_site_fract_x
 _atom_site_fract_y
 _atom_site_fract_z
 _atom_site_occupancy
  Mg  Mg0  1  0.69228102  0.30771898  0.00204605  1
  Fe  Fe0  1  0.03830822  0.96169278  0.00837478  1
  Fe  Fe1  1  0.99312969  0.00686931  0.33219102  1
  Fe  Fe2  1  0.00000278  -0.00000278  0.66083909  1
  Fe  Fe3  1  0.41577061  0.58422939  0.18660398  1
  Fe  Fe4  1  0.41039635  0.58960365  0.81409493  1
  Fe  Fe5  1  0.58496674  0.41503326  0.50144755  1
  O  O0  1  0.18549746  0.81450254  0.17742427  1
  O  O1  1  0.17427684  0.82572316  0.82961512  1
  O  O2  1  0.30901073  0.31828664  0.99549299  1
  O  O3  1  0.31916706  0.29948340  0.33704645  1
  O  O4  1  0.31035275  0.30548954  0.66508737  1
  O  O5  1  0.68171436  0.69099027  0.99549399  1
  O  O6  1  0.70051560  0.68083194  0.33704745  1
  O  O7  1  0.69450946  0.68964825  0.66508737  1
  O  O8  1  0.85898975  0.14101025  0.15292734  1
  O  O9  1  0.82839609  0.17160391  0.50080362  1
  F  F0  1  0.16595192  0.83404808  0.50040590  1
  F  F1  1  0.83120658  0.16879342  0.83082873  1
loop_
_geom_bond_atom_site_label_1
_geom_bond_atom_site_label_2
_geom_bond_distance
_geom_bond_site_symmetry_2
Mg0 O8 1.896809 1_555
Mg0 O2 1.987132 1_554
Mg0 O5 1.987135 1_554
Fe0 O0 1.910260 1_555
Fe0 O1 1.930848 1_554
Fe0 O8 1.940130 1_465
Fe0 O5 2.019648 1_454
Fe0 O2 2.019649 1_564
Fe1 O8 1.919889 1_555
Fe1 O3 1.963936 1_655
Fe1 O6 1.963936 1_545
Fe1 O9 2.005946 1_555
Fe1 O0 2.079533 1_645
Fe2 O7 1.950353 1_445
Fe2 O4 1.950353 1_555
Fe2 O9 1.982027 1_455
Fe2 O1 2.052551 1_545
Fe3 O0 1.870090 1_555
Fe3 O3 1.950262 1_555
Fe3 O6 1.950265 1_555
Fe3 O5 2.161762 1_554
Fe3 O2 2.161765 1_554
Fe4 O1 1.921425 1_555
Fe4 O7 1.944278 1_555
Fe4 O4 1.944281 1_555
Fe4 O2 2.105580 1_555
Fe4 O5 2.105591 1_555
Fe5 O9 1.975392 1_555
Fe5 O6 1.984174 1_555
Fe5 O3 1.984184 1_555
Fe5 O4 2.007152 1_555
Fe5 O7 2.007154 1_555
F0 Fe2 1.959400 1_565
F0 Fe1 2.040870 1_465
F1 Mg0 1.890772 1_556
F1 Fe2 2.037142 1_655
F1 Fe0 2.295919 1_646
