# generated using pymatgen
data_Na3TaTi(SiO4)3
_symmetry_space_group_name_H-M   'P 1'
_cell_length_a   9.01056117
_cell_length_b   9.00672148
_cell_length_c   22.10856780
_cell_angle_alpha   90.00000000
_cell_angle_beta   90.15989445
_cell_angle_gamma   119.98590687
_symmetry_Int_Tables_number   1
_chemical_formula_structural   Na3TaTi(SiO4)3
_chemical_formula_sum   'Na18 Ta6 Ti6 Si18 O72'
_cell_volume   1554.06513432
_cell_formula_units_Z   6
loop_
 _symmetry_equiv_pos_site_id
 _symmetry_equiv_pos_as_xyz
  1  'x, y, z'
loop_
 _atom_site_type_symbol
 _atom_site_label
 _atom_site_symmetry_multiplicity
 _atom_site_fract_x
 _atom_site_fract_y
 _atom_site_fract_z
 _atom_site_occupancy
  Na  Na0  1  0.98493230  0.96573494  0.49510932  1
  Na  Na1  1  0.98493230  0.01919735  0.99510932  1
  Na  Na2  1  0.66516854  0.33608336  0.82841951  1
  Na  Na3  1  0.66516854  0.32908418  0.32841951  1
  Na  Na4  1  0.32974044  0.66273831  0.16182259  1
  Na  Na5  1  0.32974044  0.66700313  0.66182259  1
  Na  Na6  1  0.37429256  0.37005579  0.24709315  1
  Na  Na7  1  0.99262660  0.62649946  0.24586761  1
  Na  Na8  1  0.99262660  0.36612713  0.74586761  1
  Na  Na9  1  0.37429256  0.00423677  0.74709315  1
  Na  Na10  1  0.29693051  0.34020519  0.57828520  1
  Na  Na11  1  0.66322518  0.96194914  0.58021916  1
  Na  Na12  1  0.29693051  0.95672432  0.07828520  1
  Na  Na13  1  0.66322518  0.70127505  0.08021916  1
  Na  Na14  1  0.96725587  0.67687166  0.91393573  1
  Na  Na15  1  0.33004528  0.29233844  0.91269109  1
  Na  Na16  1  0.96725587  0.29038520  0.41393573  1
  Na  Na17  1  0.33004528  0.03770783  0.41269109  1
  Ta  Ta0  1  -0.00050333  0.99781132  0.64405024  1
  Ta  Ta1  1  -0.00050333  0.00168535  0.14405024  1
  Ta  Ta2  1  0.66753883  0.32909436  0.97730155  1
  Ta  Ta3  1  0.66753883  0.33844346  0.47730155  1
  Ta  Ta4  1  0.33682142  0.66904680  0.31066691  1
  Ta  Ta5  1  0.33682142  0.66777562  0.81066691  1
  Ti  Ti0  1  0.99465196  0.99645421  0.35457368  1
  Ti  Ti1  1  0.99465196  0.99819775  0.85457368  1
  Ti  Ti2  1  0.66741177  0.34022508  0.68805767  1
  Ti  Ti3  1  0.66741177  0.32718569  0.18805767  1
  Ti  Ti4  1  0.32889039  0.65975208  0.02130615  1
  Ti  Ti5  1  0.32889039  0.66913931  0.52130615  1
  Si  Si0  1  0.29135473  0.00333912  0.25172001  1
  Si  Si1  1  0.71183851  0.71351366  0.24931842  1
  Si  Si2  1  0.99388669  0.28504383  0.25330926  1
  Si  Si3  1  0.29135473  0.28801561  0.75172001  1
  Si  Si4  1  0.99388669  0.70884285  0.75330926  1
  Si  Si5  1  0.71183851  0.99832485  0.74931842  1
  Si  Si6  1  0.95726812  0.33996552  0.58528001  1
  Si  Si7  1  0.37884679  0.04288232  0.58505895  1
  Si  Si8  1  0.66741263  0.62225255  0.58421060  1
  Si  Si9  1  0.95726812  0.61730160  0.08528001  1
  Si  Si10  1  0.66741263  0.04515908  0.08421060  1
  Si  Si11  1  0.37884679  0.33596346  0.08505895  1
  Si  Si12  1  0.62505399  0.67543285  0.92064694  1
  Si  Si13  1  0.04457724  0.37765446  0.91524814  1
  Si  Si14  1  0.33486652  0.95584232  0.91809680  1
  Si  Si15  1  0.62505399  0.94962214  0.42064694  1
  Si  Si16  1  0.33486652  0.37902519  0.41809680  1
  Si  Si17  1  0.04457724  0.66692378  0.41524814  1
  O  O0  1  0.19770422  0.02752971  0.31117685  1
  O  O1  1  0.83805712  0.82308897  0.30551433  1
  O  O2  1  0.98398565  0.18324316  0.31541096  1
  O  O3  1  0.19770422  0.17017451  0.81117685  1
  O  O4  1  0.98398565  0.80074249  0.81541096  1
  O  O5  1  0.83805712  0.01496815  0.80551433  1
  O  O6  1  0.79979734  0.98097335  0.68656817  1
  O  O7  1  0.16836470  0.19643576  0.69153197  1
  O  O8  1  0.01801688  0.83648809  0.69563970  1
  O  O9  1  0.79979734  0.81882399  0.18656817  1
  O  O10  1  0.01801688  0.18152879  0.19563970  1
  O  O11  1  0.16836470  0.97192893  0.19153197  1
  O  O12  1  0.86130195  0.34995854  0.64606976  1
  O  O13  1  0.49494198  0.13669893  0.64492035  1
  O  O14  1  0.64850679  0.49885253  0.64161972  1
  O  O15  1  0.86130195  0.51134241  0.14606976  1
  O  O16  1  0.64850679  0.14965326  0.14161972  1
  O  O17  1  0.49494198  0.35824204  0.14492035  1
  O  O18  1  0.47341060  0.31006564  0.02499188  1
  O  O19  1  0.83680597  0.52626154  0.02505971  1
  O  O20  1  0.68571041  0.15994396  0.02359913  1
  O  O21  1  0.47341060  0.16334396  0.52499188  1
  O  O22  1  0.68571041  0.52576545  0.52359913  1
  O  O23  1  0.83680597  0.31054344  0.52505971  1
  O  O24  1  0.53579176  0.68966974  0.98255332  1
  O  O25  1  0.17227371  0.48317498  0.97219226  1
  O  O26  1  0.31960573  0.84115870  0.97759500  1
  O  O27  1  0.53579176  0.84612302  0.48255332  1
  O  O28  1  0.31960573  0.47844803  0.47759500  1
  O  O29  1  0.17227371  0.68909974  0.47219226  1
  O  O30  1  0.13078382  0.63733125  0.35398548  1
  O  O31  1  0.49505370  0.84934223  0.36299795  1
  O  O32  1  0.34872854  0.48884570  0.35643920  1
  O  O33  1  0.13078382  0.49345357  0.85398548  1
  O  O34  1  0.34872854  0.85988384  0.85643920  1
  O  O35  1  0.49505370  0.64571247  0.86299795  1
  O  O36  1  0.03076363  0.83912705  0.41169369  1
  O  O37  1  0.81735497  0.97910790  0.41366243  1
  O  O38  1  0.16555005  0.18703297  0.41662811  1
  O  O39  1  0.03076363  0.19163658  0.91169369  1
  O  O40  1  0.16555005  0.97851709  0.91662811  1
  O  O41  1  0.81735497  0.83824708  0.91366243  1
  O  O42  1  0.97411102  0.16372935  0.58655965  1
  O  O43  1  0.19190309  0.03503421  0.58802869  1
  O  O44  1  0.83898445  0.81393927  0.58675173  1
  O  O45  1  0.97411102  0.81038167  0.08655965  1
  O  O46  1  0.83898445  0.02504518  0.08675173  1
  O  O47  1  0.19190309  0.15686888  0.08802869  1
  O  O48  1  0.69103807  0.16802227  0.74935189  1
  O  O49  1  0.47783898  0.30295203  0.74614068  1
  O  O50  1  0.83154735  0.51575746  0.74711273  1
  O  O51  1  0.69103807  0.52301481  0.24935189  1
  O  O52  1  0.83154735  0.31578889  0.24711273  1
  O  O53  1  0.47783898  0.17488595  0.24614068  1
  O  O54  1  0.63819623  0.49736176  0.92091988  1
  O  O55  1  0.85979816  0.37116480  0.92086180  1
  O  O56  1  0.50422721  0.15081741  0.91904649  1
  O  O57  1  0.63819623  0.14083347  0.42091988  1
  O  O58  1  0.50422721  0.35340880  0.41904649  1
  O  O59  1  0.85979816  0.48863236  0.42086180  1
  O  O60  1  0.36030882  0.50586761  0.08013192  1
  O  O61  1  0.15100120  0.64789494  0.07979049  1
  O  O62  1  0.49662134  0.85589824  0.08238983  1
  O  O63  1  0.36030882  0.85444221  0.58013192  1
  O  O64  1  0.49662134  0.64072410  0.58238983  1
  O  O65  1  0.15100120  0.50310727  0.57979049  1
  O  O66  1  0.30088697  0.82563952  0.25489229  1
  O  O67  1  0.51905668  0.69105856  0.25398328  1
  O  O68  1  0.17253738  0.47586857  0.25189999  1
  O  O69  1  0.30088697  0.47524845  0.75489229  1
  O  O70  1  0.17253738  0.69666981  0.75189999  1
  O  O71  1  0.51905668  0.82799911  0.75398328  1
loop_
_geom_bond_atom_site_label_1
_geom_bond_atom_site_label_2
_geom_bond_distance
_geom_bond_site_symmetry_2
Na0 O36 2.312339 1_655
Na0 O37 2.388210 1_555
Na0 O44 2.433373 1_555
Na0 O38 2.530869 1_665
Na0 O43 2.627322 1_665
Na0 O42 2.729894 1_565
Na1 O39 2.312339 1_655
Na1 O41 2.388210 1_545
Na1 O46 2.433373 1_556
Na1 O40 2.530869 1_645
Na1 O47 2.627322 1_656
Na1 O45 2.729894 1_546
Na2 O50 2.384870 1_555
Na2 O49 2.393030 1_555
Na2 O48 2.399224 1_555
Na2 O56 2.549379 1_555
Na2 O54 2.589782 1_555
Na2 O55 2.603549 1_555
Na3 O52 2.384870 1_555
Na3 O53 2.393030 1_555
Na3 O51 2.399224 1_555
Na3 O58 2.549379 1_555
Na3 O57 2.589782 1_555
Na3 O59 2.603549 1_555
Na4 O61 2.381046 1_555
Na4 O60 2.392858 1_555
Na4 O62 2.402424 1_555
Na4 O68 2.537302 1_555
Na4 O67 2.583063 1_555
Na4 O66 2.615040 1_555
Na5 O65 2.381046 1_555
Na5 O63 2.392858 1_555
Na5 O64 2.402424 1_555
Na5 O70 2.537302 1_555
Na5 O71 2.583063 1_555
Na5 O69 2.615040 1_555
Na6 O53 2.366527 1_555
Na6 O68 2.440755 1_555
Na6 O51 2.472859 1_555
Na6 O67 2.512536 1_555
Na6 O17 2.534775 1_555
Na6 O32 2.700268 1_555
Na7 O51 2.393485 1_555
Na7 O52 2.424679 1_555
Na7 O66 2.447242 1_655
Na7 O15 2.470377 1_555
Na7 O68 2.585253 1_655
Na7 O30 2.671125 1_655
Na8 O48 2.393487 1_555
Na8 O50 2.424671 1_555
Na8 O69 2.447241 1_655
Na8 O12 2.470375 1_555
Na8 O70 2.585261 1_655
Na8 O33 2.671127 1_655
Na9 O49 2.366519 1_555
Na9 O70 2.440748 1_545
Na9 O48 2.472859 1_555
Na9 O71 2.512528 1_545
Na9 O13 2.534772 1_555
Na9 O34 2.700264 1_545
Na10 O64 2.388080 1_555
Na10 O65 2.410699 1_555
Na10 O43 2.428547 1_555
Na10 O28 2.509163 1_555
Na10 O42 2.530301 1_455
Na10 O7 2.793590 1_555
Na11 O63 2.397013 1_555
Na11 O27 2.420318 1_555
Na11 O42 2.465478 1_565
Na11 O64 2.507075 1_555
Na11 O44 2.532797 1_555
Na11 O6 2.616306 1_555
Na12 O62 2.388067 1_555
Na12 O61 2.410682 1_555
Na12 O47 2.428556 1_565
Na12 O26 2.509155 1_554
Na12 O45 2.530301 1_455
Na12 O11 2.793592 1_555
Na13 O60 2.397010 1_555
Na13 O24 2.420321 1_554
Na13 O45 2.465477 1_555
Na13 O62 2.507090 1_555
Na13 O46 2.532804 1_565
Na13 O9 2.616307 1_555
Na14 O40 2.392567 1_655
Na14 O4 2.417830 1_555
Na14 O55 2.424505 1_555
Na14 O41 2.428839 1_555
Na14 O54 2.576809 1_555
Na14 O19 2.771260 1_556
Na15 O39 2.376997 1_555
Na15 O40 2.450850 1_545
Na15 O54 2.454520 1_555
Na15 O56 2.471061 1_555
Na15 O3 2.518575 1_555
Na15 O18 2.763064 1_556
Na16 O38 2.392574 1_655
Na16 O2 2.417834 1_555
Na16 O59 2.424488 1_555
Na16 O37 2.428846 1_545
Na16 O57 2.576808 1_555
Na16 O23 2.771255 1_555
Na17 O36 2.376999 1_545
Na17 O38 2.450843 1_555
Na17 O57 2.454524 1_555
Na17 O58 2.471046 1_555
Na17 O0 2.518574 1_555
Na17 O21 2.763061 1_555
O0 Si0 1.636287 1_555
O0 Ti0 1.960685 1_445
O1 Si1 1.637440 1_555
O1 Ti0 1.842465 1_555
O2 Si2 1.628692 1_555
O2 Ti0 1.936590 1_545
O3 Si3 1.636287 1_555
O3 Ti1 1.960685 1_445
O4 Si4 1.628693 1_555
O4 Ti1 1.936590 1_555
O5 Si5 1.637440 1_545
O5 Ti1 1.842465 1_545
O6 Si5 1.645348 1_555
O6 Ta0 1.970061 1_655
O7 Si3 1.660492 1_555
O7 Ta0 1.971744 1_545
O8 Si4 1.657194 1_455
O8 Ta0 1.918656 1_555
O9 Si1 1.645348 1_555
O9 Ta1 1.970061 1_665
O10 Si2 1.657194 1_455
O10 Ta1 1.918656 1_555
O11 Si0 1.660492 1_565
O11 Ta1 1.971744 1_565
O12 Si6 1.626767 1_555
O12 Ti2 1.943602 1_555
O13 Si7 1.633564 1_555
O13 Ti2 1.956808 1_555
O14 Si8 1.639269 1_555
O14 Ti2 1.834829 1_555
O15 Si9 1.626767 1_555
O15 Ti3 1.943602 1_555
O16 Si10 1.639269 1_555
O16 Ti3 1.834829 1_555
O17 Si11 1.633564 1_555
O17 Ti3 1.956808 1_555
O18 Si11 1.658009 1_555
O18 Ta2 1.977727 1_554
O19 Si9 1.650876 1_555
O19 Ta2 1.969344 1_554
O20 Si10 1.650012 1_555
O20 Ta2 1.908912 1_554
O21 Si7 1.658009 1_555
O21 Ta3 1.977727 1_555
O22 Si8 1.650012 1_555
O22 Ta3 1.908912 1_555
O23 Si6 1.650876 1_555
O23 Ta3 1.969344 1_555
O24 Si12 1.626596 1_555
O24 Ti4 1.946546 1_556
O25 Si13 1.646503 1_555
O25 Ti4 1.856853 1_556
O26 Si14 1.635605 1_555
O26 Ti4 1.935627 1_556
O27 Si15 1.626596 1_555
O27 Ti5 1.946546 1_555
O28 Si16 1.635605 1_555
O28 Ti5 1.935627 1_555
O29 Si17 1.646503 1_555
O29 Ti5 1.856853 1_555
O30 Si17 1.649760 1_555
O30 Ta4 1.981233 1_555
O31 Si15 1.657245 1_555
O31 Ta4 1.919595 1_555
O32 Si16 1.652159 1_555
O32 Ta4 1.960414 1_555
O33 Si13 1.649760 1_555
O33 Ta5 1.981233 1_555
O34 Si14 1.652159 1_555
O34 Ta5 1.960414 1_555
O35 Si12 1.657245 1_555
O35 Ta5 1.919595 1_555
O36 Si17 1.618685 1_555
O36 Ti0 2.041353 1_455
O37 Si15 1.624280 1_555
O37 Ti0 2.011298 1_555
O38 Si16 1.637532 1_555
O38 Ti0 2.132118 1_445
O39 Si13 1.618694 1_555
O39 Ti1 2.041353 1_445
O40 Si14 1.637527 1_555
O40 Ti1 2.132118 1_455
O41 Si12 1.624276 1_555
O41 Ti1 2.011298 1_555
O42 Si6 1.668579 1_555
O42 Ta0 2.059385 1_645
O43 Si7 1.651768 1_555
O43 Ta0 2.020668 1_545
O44 Si8 1.644823 1_555
O44 Ta0 2.008670 1_655
O45 Si9 1.668588 1_555
O45 Ta1 2.059385 1_665
O46 Si10 1.644818 1_555
O46 Ta1 2.008671 1_655
O47 Si11 1.651764 1_555
O47 Ta1 2.020668 1_555
O48 Si5 1.630193 1_545
O48 Ti2 2.148411 1_555
O49 Si3 1.622349 1_555
O49 Ti2 2.029419 1_555
O50 Si4 1.624477 1_555
O50 Ti2 2.010836 1_555
O51 Si1 1.630202 1_555
O51 Ti3 2.148411 1_555
O52 Si2 1.624471 1_555
O52 Ti3 2.010836 1_555
O53 Si0 1.622345 1_555
O53 Ti3 2.029419 1_555
O54 Si12 1.666191 1_555
O54 Ta2 2.078281 1_555
O55 Si13 1.641584 1_655
O55 Ta2 2.014348 1_555
O56 Si14 1.653535 1_545
O56 Ta2 2.007493 1_555
O57 Si15 1.666173 1_545
O57 Ta3 2.078281 1_555
O58 Si16 1.653545 1_555
O58 Ta3 2.007493 1_555
O59 Si17 1.641593 1_655
O59 Ta3 2.014348 1_555
O60 Si11 1.623861 1_555
O60 Ti4 2.020573 1_555
O61 Si9 1.630432 1_455
O61 Ti4 2.023106 1_555
O62 Si10 1.628843 1_565
O62 Ti4 2.132767 1_555
O63 Si7 1.623843 1_565
O63 Ti5 2.020573 1_555
O64 Si8 1.628853 1_555
O64 Ti5 2.132767 1_555
O65 Si6 1.630439 1_455
O65 Ti5 2.023106 1_555
O66 Si0 1.646585 1_565
O66 Ta4 2.017128 1_555
O67 Si1 1.648876 1_555
O67 Ta4 1.998045 1_555
O68 Si2 1.667626 1_455
O68 Ta4 2.078793 1_555
O69 Si3 1.646594 1_555
O69 Ta5 2.017128 1_555
O70 Si4 1.667621 1_455
O70 Ta5 2.078793 1_555
O71 Si5 1.648873 1_555
O71 Ta5 1.998045 1_555
