# generated using pymatgen
data_Bi2(MoO4)3
_symmetry_space_group_name_H-M   'P 1'
_cell_length_a   11.40764953
_cell_length_b   7.69546795
_cell_length_c   11.84755261
_cell_angle_alpha   65.68518407
_cell_angle_beta   89.99998247
_cell_angle_gamma   89.99997052
_symmetry_Int_Tables_number   1
_chemical_formula_structural   Bi2(MoO4)3
_chemical_formula_sum   'Bi8 Mo12 O48'
_cell_volume   947.80656234
_cell_formula_units_Z   4
loop_
 _symmetry_equiv_pos_site_id
 _symmetry_equiv_pos_as_xyz
  1  'x, y, z'
loop_
 _atom_site_type_symbol
 _atom_site_label
 _atom_site_symmetry_multiplicity
 _atom_site_fract_x
 _atom_site_fract_y
 _atom_site_fract_z
 _atom_site_occupancy
  Bi  Bi0  1  0.62930154  0.90701044  0.42237178  1
  Bi  Bi1  1  0.12930245  0.09298882  0.07762892  1
  Bi  Bi2  1  0.37069813  0.09298996  0.57762956  1
  Bi  Bi3  1  0.87069753  0.90700936  0.92237164  1
  Bi  Bi4  1  0.86722362  0.26106373  0.24182467  1
  Bi  Bi5  1  0.36722393  0.73893580  0.25817594  1
  Bi  Bi6  1  0.13277690  0.73893765  0.75817542  1
  Bi  Bi7  1  0.63277678  0.26106304  0.74182418  1
  Mo  Mo0  1  0.86820748  0.74055046  0.29519999  1
  Mo  Mo1  1  0.36820555  0.25944791  0.20480229  1
  Mo  Mo2  1  0.13179330  0.25945043  0.70480103  1
  Mo  Mo3  1  0.63179353  0.74055114  0.79519752  1
  Mo  Mo4  1  0.64841370  0.42389763  0.39312171  1
  Mo  Mo5  1  0.14841374  0.57610221  0.10687926  1
  Mo  Mo6  1  0.35158611  0.57610279  0.60687846  1
  Mo  Mo7  1  0.85158698  0.42389789  0.89311988  1
  Mo  Mo8  1  0.61544406  0.04773490  0.08108963  1
  Mo  Mo9  1  0.11544381  0.95226339  0.41891049  1
  Mo  Mo10  1  0.38455603  0.95226393  0.91891055  1
  Mo  Mo11  1  0.88455553  0.04773497  0.58108978  1
  O  O0  1  0.97276887  0.68947758  0.40561388  1
  O  O1  1  0.47276729  0.31052326  0.09438703  1
  O  O2  1  0.02723059  0.31052431  0.59438512  1
  O  O3  1  0.52723213  0.68947611  0.90561250  1
  O  O4  1  0.94251111  0.84742179  0.15353590  1
  O  O5  1  0.44251065  0.15257589  0.34646575  1
  O  O6  1  0.05748946  0.15257808  0.84646463  1
  O  O7  1  0.55748893  0.84742400  0.65353399  1
  O  O8  1  0.95152694  0.14208388  0.42483996  1
  O  O9  1  0.45152734  0.85791523  0.07515981  1
  O  O10  1  0.04847250  0.85791691  0.57516008  1
  O  O11  1  0.54847337  0.14208382  0.92484002  1
  O  O12  1  0.94217348  0.29702748  0.02234726  1
  O  O13  1  0.44217350  0.70297417  0.47765149  1
  O  O14  1  0.05782619  0.70297254  0.97765229  1
  O  O15  1  0.55782709  0.29702538  0.52234866  1
  O  O16  1  0.79246370  0.95288438  0.30116689  1
  O  O17  1  0.81110794  0.51688103  0.28965419  1
  O  O18  1  0.18888967  0.48312250  0.71034286  1
  O  O19  1  0.68889317  0.51688173  0.78965220  1
  O  O20  1  0.95214672  0.54205758  0.78017700  1
  O  O21  1  0.45214662  0.45794290  0.71982233  1
  O  O22  1  0.04785306  0.45794200  0.21982326  1
  O  O23  1  0.54785337  0.54205708  0.28017883  1
  O  O24  1  0.94829816  0.94096725  0.73841802  1
  O  O25  1  0.44829811  0.05903313  0.76158177  1
  O  O26  1  0.05170130  0.05903324  0.26158174  1
  O  O27  1  0.55170145  0.94096674  0.23841781  1
  O  O28  1  0.80392548  0.21998621  0.85355061  1
  O  O29  1  0.30392584  0.78001215  0.64644990  1
  O  O30  1  0.19607495  0.78001343  0.14644880  1
  O  O31  1  0.69607520  0.21998762  0.35355090  1
  O  O32  1  0.78811663  0.87564913  0.57688012  1
  O  O33  1  0.28811925  0.12435211  0.92312226  1
  O  O34  1  0.21188331  0.12434963  0.42312052  1
  O  O35  1  0.71188364  0.87564898  0.07687956  1
  O  O36  1  0.79261639  0.23280296  0.57209823  1
  O  O37  1  0.29261681  0.76719815  0.92790151  1
  O  O38  1  0.20738253  0.76719540  0.42790377  1
  O  O39  1  0.70738302  0.23280272  0.07209810  1
  O  O40  1  0.79322373  0.62150009  0.93066121  1
  O  O41  1  0.29322469  0.37850068  0.56933615  1
  O  O42  1  0.20677632  0.37849898  0.06933819  1
  O  O43  1  0.70677669  0.62149987  0.43066375  1
  O  O44  1  0.70753637  0.95288448  0.80116719  1
  O  O45  1  0.20753684  0.04711703  0.69883178  1
  O  O46  1  0.29246267  0.04711443  0.19883252  1
  O  O47  1  0.31110726  0.48311851  0.21034693  1
loop_
_geom_bond_atom_site_label_1
_geom_bond_atom_site_label_2
_geom_bond_distance
_geom_bond_site_symmetry_2
Bi0 O27 2.265556 1_555
Bi0 O16 2.287713 1_555
Bi0 O31 2.329970 1_565
Bi0 O43 2.332473 1_555
Bi0 O32 2.515475 1_555
Bi0 O13 2.569900 1_555
Bi0 O7 2.710667 1_555
Bi0 O5 2.742420 1_565
Bi1 O26 2.265550 1_555
Bi1 O46 2.287687 1_555
Bi1 O30 2.329953 1_545
Bi1 O42 2.332471 1_555
Bi1 O33 2.515472 1_554
Bi1 O12 2.569918 1_455
Bi1 O6 2.710687 1_554
Bi1 O4 2.742432 1_445
Bi2 O25 2.265535 1_555
Bi2 O45 2.287688 1_555
Bi2 O29 2.329969 1_545
Bi2 O41 2.332461 1_555
Bi2 O34 2.515482 1_555
Bi2 O15 2.569906 1_555
Bi2 O5 2.710686 1_555
Bi2 O7 2.742420 1_545
Bi3 O24 2.265551 1_555
Bi3 O44 2.287701 1_555
Bi3 O28 2.329961 1_565
Bi3 O40 2.332469 1_555
Bi3 O35 2.515463 1_556
Bi3 O14 2.569907 1_655
Bi3 O4 2.710692 1_556
Bi3 O6 2.742445 1_665
Bi4 O8 2.197674 1_555
Bi4 O31 2.306373 1_555
Bi4 O16 2.339436 1_545
Bi4 O17 2.350547 1_555
Bi4 O22 2.506804 1_655
Bi4 O26 2.569239 1_655
Bi4 O12 2.641287 1_555
Bi4 O39 2.788501 1_555
Bi5 O9 2.197682 1_555
Bi5 O30 2.306384 1_555
Bi5 O46 2.339434 1_565
Bi5 O47 2.350547 1_555
Bi5 O23 2.506802 1_555
Bi5 O27 2.569239 1_555
Bi5 O13 2.641271 1_555
Bi5 O38 2.788513 1_555
Bi6 O10 2.197680 1_555
Bi6 O29 2.306375 1_555
Bi6 O45 2.339434 1_565
Bi6 O18 2.350543 1_555
Bi6 O20 2.506818 1_455
Bi6 O24 2.569245 1_455
Bi6 O14 2.641281 1_555
Bi6 O37 2.788490 1_555
Bi7 O11 2.197679 1_555
Bi7 O28 2.306377 1_555
Bi7 O44 2.339427 1_545
Bi7 O19 2.350549 1_555
Bi7 O21 2.506815 1_555
Bi7 O25 2.569246 1_555
Bi7 O15 2.641269 1_555
Bi7 O36 2.788485 1_555
Mo0 O0 1.692651 1_555
Mo0 O4 1.753593 1_555
Mo0 O17 1.866656 1_555
Mo0 O16 1.875288 1_555
Mo0 O43 2.365490 1_555
Mo1 O1 1.692663 1_555
Mo1 O5 1.753596 1_555
Mo1 O47 1.866653 1_555
Mo1 O46 1.875294 1_555
Mo1 O42 2.365479 1_555
Mo2 O2 1.692678 1_555
Mo2 O6 1.753590 1_555
Mo2 O18 1.866643 1_555
Mo2 O45 1.875294 1_555
Mo2 O41 2.365502 1_555
Mo3 O3 1.692659 1_555
Mo3 O7 1.753594 1_555
Mo3 O19 1.866653 1_555
Mo3 O44 1.875292 1_555
Mo3 O40 2.365485 1_555
Mo4 O23 1.712108 1_555
Mo4 O15 1.770362 1_555
Mo4 O43 1.873614 1_555
Mo4 O31 1.893028 1_555
Mo4 O17 2.176451 1_555
Mo4 O36 2.607106 1_555
Mo5 O22 1.712120 1_555
Mo5 O14 1.770365 1_554
Mo5 O42 1.873612 1_555
Mo5 O30 1.893028 1_555
Mo5 O47 2.176445 1_555
Mo5 O37 2.607119 1_554
Mo6 O21 1.712117 1_555
Mo6 O13 1.770366 1_555
Mo6 O41 1.873608 1_555
Mo6 O29 1.893024 1_555
Mo6 O18 2.176455 1_555
Mo6 O38 2.607096 1_555
Mo7 O20 1.712104 1_555
Mo7 O12 1.770361 1_556
Mo7 O40 1.873609 1_555
Mo7 O28 1.893030 1_555
Mo7 O19 2.176448 1_555
Mo7 O39 2.607128 1_556
Mo8 O39 1.736291 1_555
Mo8 O35 1.738083 1_545
Mo8 O27 1.848507 1_545
Mo8 O11 1.852253 1_554
Mo8 O9 2.391607 1_545
Mo9 O38 1.736284 1_555
Mo9 O34 1.738085 1_565
Mo9 O26 1.848512 1_565
Mo9 O10 1.852256 1_555
Mo9 O8 2.391610 1_465
Mo10 O37 1.736283 1_555
Mo10 O33 1.738083 1_565
Mo10 O25 1.848511 1_565
Mo10 O9 1.852252 1_556
Mo10 O11 2.391613 1_565
Mo11 O36 1.736293 1_555
Mo11 O32 1.738077 1_545
Mo11 O24 1.848508 1_545
Mo11 O8 1.852258 1_555
Mo11 O10 2.391600 1_645
