# generated using pymatgen
data_La3MgTi4O12
_symmetry_space_group_name_H-M   'P 1'
_cell_length_a   5.49894117
_cell_length_b   5.49916989
_cell_length_c   9.22683570
_cell_angle_alpha   89.89341388
_cell_angle_beta   89.90688228
_cell_angle_gamma   89.82635197
_symmetry_Int_Tables_number   1
_chemical_formula_structural   La3MgTi4O12
_chemical_formula_sum   'La3 Mg1 Ti4 O12'
_cell_volume   279.01379914
_cell_formula_units_Z   1
loop_
 _symmetry_equiv_pos_site_id
 _symmetry_equiv_pos_as_xyz
  1  'x, y, z'
loop_
 _atom_site_type_symbol
 _atom_site_label
 _atom_site_symmetry_multiplicity
 _atom_site_fract_x
 _atom_site_fract_y
 _atom_site_fract_z
 _atom_site_occupancy
  La  La0  1  0.27495700  0.27503200  0.07718700  1
  La  La1  1  0.24663900  0.24659200  0.44191300  1
  La  La2  1  0.73522700  0.73511500  0.94739600  1
  Mg  Mg0  1  0.23923900  0.23911400  0.76624300  1
  Ti  Ti0  1  0.25804900  0.75541300  0.25778400  1
  Ti  Ti1  1  0.23425800  0.75064700  0.68954800  1
  Ti  Ti2  1  0.75538700  0.25810800  0.25787900  1
  Ti  Ti3  1  0.75070800  0.23418000  0.68956600  1
  O  O0  1  0.01192300  0.01199100  0.22537900  1
  O  O1  1  0.99176800  0.99166400  0.79006900  1
  O  O2  1  0.02417000  0.48801600  0.25714700  1
  O  O3  1  0.98784200  0.49575400  0.76759400  1
  O  O4  1  0.22225600  0.78414200  0.49238900  1
  O  O5  1  0.31289700  0.70733000  0.03861900  1
  O  O6  1  0.48800300  0.02419400  0.25709900  1
  O  O7  1  0.49583400  0.98771800  0.76751500  1
  O  O8  1  0.49435100  0.49437900  0.28853200  1
  O  O9  1  0.47851400  0.47849000  0.70718200  1
  O  O10  1  0.70721200  0.31315600  0.03861400  1
  O  O11  1  0.78406100  0.22226100  0.49234400  1
loop_
_geom_bond_atom_site_label_1
_geom_bond_atom_site_label_2
_geom_bond_distance
_geom_bond_site_symmetry_2
La0 O10 2.412568 1_555
La0 O5 2.412725 1_555
La0 O6 2.453343 1_555
La0 O2 2.453720 1_555
La0 O0 2.460285 1_555
La0 O8 2.595836 1_555
La1 O8 2.390160 1_555
La1 O2 2.480736 1_555
La1 O6 2.481080 1_555
La1 O4 2.588369 1_545
La1 O11 2.588969 1_455
La1 O0 2.711094 1_555
La1 Mg0 2.992958 1_555
La1 O11 2.994959 1_555
La1 O4 2.995965 1_555
La1 O9 3.045386 1_555
La2 O1 2.466876 1_555
La2 O10 2.472036 1_556
La2 O5 2.473968 1_556
La2 O3 2.530631 1_555
La2 O7 2.530751 1_555
Mg0 O1 1.939334 1_445
Mg0 O9 1.940751 1_555
Mg0 O7 1.972423 1_545
Mg0 O3 1.972613 1_455
O0 Ti0 1.974886 1_545
O0 Ti2 1.974915 1_455
O1 Ti3 2.093883 1_565
O1 Ti1 2.093993 1_655
O2 Ti2 1.947901 1_455
O2 Ti0 1.956484 1_555
O3 Ti3 2.075113 1_555
O3 Ti1 2.079427 1_655
O4 Ti1 1.829392 1_555
O4 Ti0 2.179256 1_555
O5 Ti0 2.061479 1_555
O6 Ti0 1.948070 1_545
O6 Ti2 1.956554 1_555
O7 Ti1 2.074687 1_555
O7 Ti3 2.079215 1_565
O8 Ti2 1.953801 1_555
O8 Ti0 1.953947 1_555
O9 Ti1 2.014464 1_555
O9 Ti3 2.014844 1_555
O10 Ti2 2.062478 1_555
O11 Ti3 1.829933 1_555
O11 Ti2 2.177895 1_555
