# generated using pymatgen
data_KSiH3
_symmetry_space_group_name_H-M   'P 1'
_cell_length_a   5.30126752
_cell_length_b   6.87685656
_cell_length_c   8.77103648
_cell_angle_alpha   90.00000000
_cell_angle_beta   90.00000000
_cell_angle_gamma   90.00000000
_symmetry_Int_Tables_number   1
_chemical_formula_structural   KSiH3
_chemical_formula_sum   'K4 Si4 H12'
_cell_volume   319.75739991
_cell_formula_units_Z   4
loop_
 _symmetry_equiv_pos_site_id
 _symmetry_equiv_pos_as_xyz
  1  'x, y, z'
loop_
 _atom_site_type_symbol
 _atom_site_label
 _atom_site_symmetry_multiplicity
 _atom_site_fract_x
 _atom_site_fract_y
 _atom_site_fract_z
 _atom_site_occupancy
  K  K0  1  0.25000000  0.35093464  0.68570441  1
  K  K1  1  0.75000000  0.64906536  0.31429559  1
  K  K2  1  0.75000000  0.85093464  0.81429559  1
  K  K3  1  0.25000000  0.14906536  0.18570441  1
  Si  Si0  1  0.25000000  0.84889653  0.54583818  1
  Si  Si1  1  0.75000000  0.15110347  0.45416182  1
  Si  Si2  1  0.75000000  0.34889653  0.95416182  1
  Si  Si3  1  0.25000000  0.65110347  0.04583818  1
  H  H0  1  0.96097519  0.29925910  0.41930957  1
  H  H1  1  0.46097519  0.70074090  0.58069043  1
  H  H2  1  0.03902481  0.79925910  0.08069043  1
  H  H3  1  0.53902481  0.20074090  0.91930957  1
  H  H4  1  0.03902481  0.70074090  0.58069043  1
  H  H5  1  0.53902481  0.29925910  0.41930957  1
  H  H6  1  0.96097519  0.20074090  0.91930957  1
  H  H7  1  0.46097519  0.79925910  0.08069043  1
  H  H8  1  0.25000000  0.69554579  0.87486865  1
  H  H9  1  0.75000000  0.30445421  0.12513035  1
  H  H10  1  0.75000000  0.19554579  0.62513135  1
  H  H11  1  0.25000000  0.80445421  0.37486865  1
loop_
_geom_bond_atom_site_label_1
_geom_bond_atom_site_label_2
_geom_bond_distance
_geom_bond_site_symmetry_2
H0 Si1 1.543499 1_555
H0 K3 2.759106 1_655
H0 K1 2.808210 1_555
H0 K0 2.816633 1_655
H1 Si0 1.543499 1_555
H1 K2 2.759106 1_555
H1 K0 2.808210 1_555
H1 K1 2.816633 1_555
H2 Si3 1.543499 1_555
H2 K1 2.759106 1_455
H2 K3 2.808210 1_565
H2 K2 2.816633 1_454
H3 Si2 1.543499 1_555
H3 K0 2.759106 1_555
H3 K2 2.808210 1_545
H3 K3 2.816633 1_556
H4 Si0 1.543499 1_555
H4 K2 2.759106 1_455
H4 K0 2.808210 1_555
H4 K1 2.816633 1_455
H5 Si1 1.543499 1_555
H5 K3 2.759106 1_555
H5 K1 2.808210 1_555
H5 K0 2.816633 1_555
H6 Si2 1.543499 1_555
H6 K0 2.759106 1_655
H6 K2 2.808210 1_545
H6 K3 2.816633 1_656
H7 Si3 1.543499 1_555
H7 K1 2.759106 1_555
H7 K3 2.808210 1_565
H7 K2 2.816633 1_554
H8 Si3 1.530407 1_556
H8 K0 2.892919 1_555
H8 K2 2.906889 1_555
H8 K2 2.906889 1_455
H9 Si2 1.530398 1_554
H9 K1 2.892924 1_555
H9 K3 2.906891 1_555
H9 K3 2.906891 1_655
H10 Si1 1.530407 1_555
H10 K2 2.892919 1_545
H10 K0 2.906889 1_655
H10 K0 2.906889 1_555
H11 Si0 1.530407 1_555
H11 K3 2.892919 1_565
H11 K1 2.906889 1_455
H11 K1 2.906889 1_555
