# generated using pymatgen
data_Na30Ca8Ta16Si27(SO16)9
_symmetry_space_group_name_H-M   'P 1'
_cell_length_a   18.29982206
_cell_length_b   9.13644424
_cell_length_c   22.87093972
_cell_angle_alpha   89.91022396
_cell_angle_beta   89.87692978
_cell_angle_gamma   119.94880184
_symmetry_Int_Tables_number   1
_chemical_formula_structural   Na30Ca8Ta16Si27(SO16)9
_chemical_formula_sum   'Na30 Ca8 Ta16 Si27 S9 O144'
_cell_volume   3313.29056337
_cell_formula_units_Z   1
loop_
 _symmetry_equiv_pos_site_id
 _symmetry_equiv_pos_as_xyz
  1  'x, y, z'
loop_
 _atom_site_type_symbol
 _atom_site_label
 _atom_site_symmetry_multiplicity
 _atom_site_fract_x
 _atom_site_fract_y
 _atom_site_fract_z
 _atom_site_occupancy
  Na  Na0  1  0.18066809  0.00425016  0.73881062  1
  Na  Na1  1  0.65971968  0.34137303  0.59040435  1
  Na  Na2  1  0.01093811  0.67190855  0.58939726  1
  Na  Na3  1  0.50858656  0.66805817  0.58924594  1
  Na  Na4  1  0.66001702  0.97855551  0.08886366  1
  Na  Na5  1  0.50682211  0.34879478  0.08851687  1
  Na  Na6  1  0.48190943  0.68245436  0.90914231  1
  Na  Na7  1  0.98403510  0.68431071  0.90980722  1
  Na  Na8  1  0.35672908  0.03460663  0.91902436  1
  Na  Na9  1  0.85655030  0.03478687  0.91607999  1
  Na  Na10  1  0.15953956  0.28942505  0.91874139  1
  Na  Na11  1  0.65995107  0.28758013  0.91587685  1
  Na  Na12  1  0.48263770  0.28386402  0.40729317  1
  Na  Na13  1  0.98351315  0.28652351  0.41748752  1
  Na  Na14  1  0.15976995  0.03437133  0.41707864  1
  Na  Na15  1  0.65875260  0.03024347  0.41530909  1
  Na  Na16  1  0.35827265  0.67887025  0.41640576  1
  Na  Na17  1  0.85638819  0.68082512  0.41606077  1
  Na  Na18  1  0.99942818  0.01154750  0.49641980  1
  Na  Na19  1  0.49528430  0.00278285  0.49438619  1
  Na  Na20  1  0.00055295  0.99874328  0.99311021  1
  Na  Na21  1  0.49406154  0.98638374  0.99372678  1
  Na  Na22  1  0.34883827  0.36946467  0.82763991  1
  Na  Na23  1  0.84068032  0.35154045  0.82351824  1
  Na  Na24  1  0.34225143  0.33126163  0.32248888  1
  Na  Na25  1  0.83212963  0.33251642  0.32681340  1
  Na  Na26  1  0.16670166  0.66556096  0.16014557  1
  Na  Na27  1  0.67247188  0.66234748  0.16821643  1
  Na  Na28  1  0.17125828  0.64921580  0.66578400  1
  Na  Na29  1  0.67338522  0.68370434  0.67002811  1
  Ca  Ca0  1  0.99969888  0.00071164  0.35178545  1
  Ca  Ca1  1  0.50028868  0.00233489  0.35060905  1
  Ca  Ca2  1  0.99856928  0.99583897  0.85223004  1
  Ca  Ca3  1  0.49985345  0.99719393  0.85171123  1
  Ca  Ca4  1  0.33881564  0.34318180  0.68127680  1
  Ca  Ca5  1  0.83611674  0.33646671  0.68316833  1
  Ca  Ca6  1  0.33584919  0.33414072  0.18203299  1
  Ca  Ca7  1  0.83416853  0.33525791  0.18094962  1
  Ta  Ta0  1  -0.00002910  0.99149304  0.64425739  1
  Ta  Ta1  1  0.49903201  0.98564768  0.64461826  1
  Ta  Ta2  1  0.00117327  0.99773549  0.13975943  1
  Ta  Ta3  1  0.49706832  0.01210907  0.14373145  1
  Ta  Ta4  1  0.33321153  0.33769207  0.98264675  1
  Ta  Ta5  1  0.83461399  0.33705108  0.98248071  1
  Ta  Ta6  1  0.33423206  0.33078135  0.48305884  1
  Ta  Ta7  1  0.83401509  0.33057802  0.48184216  1
  Ta  Ta8  1  0.16610860  0.66417378  0.02106858  1
  Ta  Ta9  1  0.66845390  0.66814628  0.01991935  1
  Ta  Ta10  1  0.16728659  0.66683529  0.52098130  1
  Ta  Ta11  1  0.66857386  0.66995282  0.51922054  1
  Ta  Ta12  1  0.16761773  0.66829620  0.31525921  1
  Ta  Ta13  1  0.66230466  0.65553860  0.31385381  1
  Ta  Ta14  1  0.16219310  0.66728867  0.81594439  1
  Ta  Ta15  1  0.66291535  0.66961718  0.81490139  1
  Si  Si0  1  0.50166104  0.30426275  0.25428609  1
  Si  Si1  1  0.00306709  0.69990964  0.75389272  1
  Si  Si2  1  0.50275830  0.69939862  0.75472485  1
  Si  Si3  1  0.48274556  0.32980692  0.58222368  1
  Si  Si4  1  0.98125242  0.32983071  0.58303398  1
  Si  Si5  1  0.18579322  0.03614752  0.58627522  1
  Si  Si6  1  0.68721829  0.03500481  0.58438343  1
  Si  Si7  1  0.33038549  0.62601358  0.58323101  1
  Si  Si8  1  0.83158731  0.62671961  0.58236313  1
  Si  Si9  1  0.48171165  0.63376566  0.08307437  1
  Si  Si10  1  0.98218687  0.62484438  0.08418632  1
  Si  Si11  1  0.32871713  0.03442267  0.08306197  1
  Si  Si12  1  0.83302897  0.03828989  0.08337019  1
  Si  Si13  1  0.18793020  0.33875923  0.08508736  1
  Si  Si14  1  0.68653648  0.33912930  0.08424422  1
  Si  Si15  1  0.30616838  0.65560591  0.91646419  1
  Si  Si16  1  0.80643655  0.65413261  0.91560984  1
  Si  Si17  1  0.01867703  0.38378467  0.91890770  1
  Si  Si18  1  0.51897299  0.38536933  0.91893930  1
  Si  Si19  1  0.17318498  0.96376604  0.91864310  1
  Si  Si20  1  0.67323905  0.96445401  0.91844492  1
  Si  Si21  1  0.30733525  0.96044374  0.41754825  1
  Si  Si22  1  0.80635497  0.95957655  0.41444911  1
  Si  Si23  1  0.17301160  0.38551825  0.41763627  1
  Si  Si24  1  0.67304869  0.38255199  0.41828589  1
  Si  Si25  1  0.01968064  0.65522218  0.41809482  1
  Si  Si26  1  0.51894664  0.65279776  0.41817777  1
  S  S0  1  0.14376569  0.98538864  0.25055155  1
  S  S1  1  0.64776943  0.98962208  0.25066193  1
  S  S2  1  0.34746520  0.71014396  0.25079618  1
  S  S3  1  0.85035766  0.71095062  0.25099105  1
  S  S4  1  0.00695613  0.30432029  0.25112244  1
  S  S5  1  0.14374678  0.29972689  0.75012600  1
  S  S6  1  0.64514974  0.30300059  0.74972032  1
  S  S7  1  0.34974870  0.98705371  0.75023429  1
  S  S8  1  0.84953520  0.98613851  0.75034144  1
  O  O0  1  0.10616639  0.99465800  0.30697633  1
  O  O1  1  0.60740388  -0.00332188  0.30571430  1
  O  O2  1  0.39029039  0.78123933  0.30689628  1
  O  O3  1  0.89336616  0.78342159  0.30713149  1
  O  O4  1  0.49982197  0.21471413  0.31466661  1
  O  O5  1  0.00164941  0.22028162  0.30772009  1
  O  O6  1  0.10562583  0.21403284  0.80575660  1
  O  O7  1  0.60467950  0.21509552  0.80453077  1
  O  O8  1  0.49936307  0.78379724  0.81474868  1
  O  O9  1  0.00601903  0.79161070  0.81387343  1
  O  O10  1  0.39373358  0.00683899  0.80543415  1
  O  O11  1  0.89315786  0.00465495  0.80627310  1
  O  O12  1  0.40068452  0.98166856  0.69908338  1
  O  O13  1  0.90081566  0.97553430  0.70001399  1
  O  O14  1  0.08770096  0.20375744  0.69920041  1
  O  O15  1  0.59089878  0.20828602  0.69712338  1
  O  O16  1  0.01335903  0.83554364  0.69606592  1
  O  O17  1  0.50929261  0.83059840  0.69579039  1
  O  O18  1  0.39741816  0.82251264  0.20049412  1
  O  O19  1  0.90108649  0.82278599  0.20079479  1
  O  O20  1  0.01348365  0.20573007  0.20133661  1
  O  O21  1  0.50878220  0.18744959  0.19592866  1
  O  O22  1  0.08655388  0.97019270  0.20068650  1
  O  O23  1  0.59506573  0.97731014  0.19835301  1
  O  O24  1  0.45393090  0.40502791  0.63368132  1
  O  O25  1  0.95274923  0.40644910  0.63429791  1
  O  O26  1  0.23259215  0.09105636  0.64698419  1
  O  O27  1  0.74015605  0.09929708  0.64172659  1
  O  O28  1  0.30791488  0.52087118  0.64136655  1
  O  O29  1  0.79681154  0.49920224  0.63549238  1
  O  O30  1  0.45408185  0.50200978  0.13488239  1
  O  O31  1  0.95184336  0.52202223  0.14280326  1
  O  O32  1  0.31051865  0.09791750  0.14179912  1
  O  O33  1  0.79787003  0.09289553  0.13730553  1
  O  O34  1  0.23967705  0.38129390  0.14309818  1
  O  O35  1  0.73832396  0.37849564  0.14229757  1
  O  O36  1  0.23417828  0.30295180  0.02631348  1
  O  O37  1  0.73174675  0.29861925  0.02643843  1
  O  O38  1  0.41853808  0.53953912  0.02427769  1
  O  O39  1  0.91662402  0.53198464  0.02670221  1
  O  O40  1  0.35215944  0.17015350  0.02576361  1
  O  O41  1  0.85054164  0.16549312  0.02505017  1
  O  O42  1  0.23722580  0.16627694  0.52939224  1
  O  O43  1  0.73307678  0.16655301  0.52609232  1
  O  O44  1  0.35229819  0.53536493  0.52588313  1
  O  O45  1  0.85321849  0.53705103  0.52452837  1
  O  O46  1  0.41931382  0.29889671  0.52361360  1
  O  O47  1  0.91773202  0.29744089  0.52364948  1
  O  O48  1  0.25316862  0.66622771  0.97105621  1
  O  O49  1  0.75155349  0.66153564  0.97078559  1
  O  O50  1  0.07929693  0.48687649  0.97207381  1
  O  O51  1  0.57581578  0.48680632  0.97502993  1
  O  O52  1  0.16386637  0.83641909  0.97033702  1
  O  O53  1  0.66597444  0.84566810  0.97353644  1
  O  O54  1  0.25157512  0.84114333  0.47094402  1
  O  O55  1  0.75373534  0.84223668  0.47026558  1
  O  O56  1  0.16314998  0.49124572  0.47041507  1
  O  O57  1  0.66635814  0.48657034  0.47354517  1
  O  O58  1  0.07667959  0.67197242  0.47419061  1
  O  O59  1  0.57655392  0.66623356  0.47403777  1
  O  O60  1  0.07157151  0.63505406  0.35940189  1
  O  O61  1  0.56976925  0.63276226  0.35986024  1
  O  O62  1  0.24736326  0.86138623  0.35778263  1
  O  O63  1  0.74750673  0.86390196  0.35658505  1
  O  O64  1  0.18456318  0.50737276  0.35774197  1
  O  O65  1  0.68454069  0.50620235  0.36015142  1
  O  O66  1  0.06816110  0.50526092  0.85885389  1
  O  O67  1  0.57041304  0.50674918  0.86027087  1
  O  O68  1  0.18413505  0.86775329  0.85711231  1
  O  O69  1  0.68444637  0.86307105  0.86014676  1
  O  O70  1  0.24645092  0.63379710  0.85727054  1
  O  O71  1  0.74755823  0.63193692  0.85716431  1
  O  O72  1  0.00807478  0.81844539  0.41597459  1
  O  O73  1  0.50866565  0.81717789  0.41725442  1
  O  O74  1  0.39832938  0.97551295  0.41804724  1
  O  O75  1  0.89978574  0.98291765  0.41629961  1
  O  O76  1  0.09096219  0.19973924  0.41614763  1
  O  O77  1  0.59269540  0.19525062  0.41938779  1
  O  O78  1  0.00736851  0.19844118  0.91649948  1
  O  O79  1  0.50895636  0.20065424  0.91779127  1
  O  O80  1  0.09339301  0.99230527  0.91859742  1
  O  O81  1  0.59236325  0.98928576  0.91931649  1
  O  O82  1  0.39817314  0.82175537  0.91725310  1
  O  O83  1  0.89815110  0.82063985  0.91849889  1
  O  O84  1  0.49074036  0.15996886  0.59440591  1
  O  O85  1  0.98548686  0.15561060  0.59534493  1
  O  O86  1  0.08967289  0.02200192  0.59172488  1
  O  O87  1  0.59223007  0.02716506  0.59216800  1
  O  O88  1  0.42216264  0.81419989  0.59099392  1
  O  O89  1  0.92137617  0.80918858  0.59323246  1
  O  O90  1  0.48990882  0.82007791  0.09626532  1
  O  O91  1  0.98754114  0.81670803  0.09318784  1
  O  O92  1  0.42150436  0.02965976  0.09051813  1
  O  O93  1  0.92028103  0.02624615  0.09627324  1
  O  O94  1  0.09195801  0.15796917  0.09451226  1
  O  O95  1  0.59127975  0.15694699  0.09258765  1
  O  O96  1  0.33185556  0.12674917  0.74489679  1
  O  O97  1  0.83489649  0.12747163  0.74392211  1
  O  O98  1  0.22592913  0.30843577  0.74512201  1
  O  O99  1  0.72866594  0.32137297  0.74598234  1
  O  O100  1  0.42543146  0.51259503  0.74899509  1
  O  O101  1  0.92476414  0.51490199  0.74982792  1
  O  O102  1  0.33225940  0.53914964  0.24547919  1
  O  O103  1  0.83730017  0.53983323  0.24697492  1
  O  O104  1  0.42511204  0.33835196  0.24963206  1
  O  O105  1  0.93398690  0.32859979  0.24715287  1
  O  O106  1  0.22752942  0.12962502  0.24578072  1
  O  O107  1  0.73270053  0.13734901  0.24849741  1
  O  O108  1  0.31192861  0.48000933  0.92160892  1
  O  O109  1  0.81240316  0.47964460  0.92301729  1
  O  O110  1  0.42727603  0.37811760  0.92190267  1
  O  O111  1  0.92717947  0.37775453  0.92267255  1
  O  O112  1  0.26200563  0.14636976  0.92332967  1
  O  O113  1  0.76169300  0.14706996  0.92294624  1
  O  O114  1  0.31111200  0.14447459  0.42212508  1
  O  O115  1  0.81166928  0.14585752  0.42179210  1
  O  O116  1  0.25995237  0.37552469  0.42425903  1
  O  O117  1  0.76209890  0.37745723  0.42255037  1
  O  O118  1  0.42659056  0.47764861  0.42235920  1
  O  O119  1  0.92783175  0.47801471  0.42092700  1
  O  O120  1  0.16392648  0.48408632  0.06927926  1
  O  O121  1  0.65907540  0.48252396  0.07175301  1
  O  O122  1  0.07823117  0.67062056  0.06890957  1
  O  O123  1  0.58063021  0.68019948  0.06910334  1
  O  O124  1  0.25637823  0.84197196  0.06851693  1
  O  O125  1  0.75764531  0.84434846  0.06829513  1
  O  O126  1  0.16087072  0.83984867  0.57123914  1
  O  O127  1  0.65953622  0.83738129  0.57046232  1
  O  O128  1  0.25739078  0.67304337  0.56808213  1
  O  O129  1  0.75743354  0.67200783  0.56777747  1
  O  O130  1  0.07763761  0.48469531  0.56758918  1
  O  O131  1  0.58098919  0.48286923  0.56858380  1
  O  O132  1  0.14689974  0.82100685  0.25157139  1
  O  O133  1  0.65219333  0.82815981  0.25127598  1
  O  O134  1  0.26304611  0.70799014  0.25183520  1
  O  O135  1  0.76707460  0.70770016  0.25123048  1
  O  O136  1  0.08835897  0.47553497  0.25214289  1
  O  O137  1  0.59611365  0.49197401  0.25449085  1
  O  O138  1  0.15204121  0.47160477  0.75032274  1
  O  O139  1  0.64994817  0.47301703  0.74984690  1
  O  O140  1  0.09888135  0.70421162  0.75208855  1
  O  O141  1  0.59665637  0.70069838  0.75440704  1
  O  O142  1  0.26670477  0.82247015  0.74999943  1
  O  O143  1  0.76721794  0.82051102  0.75092317  1
loop_
_geom_bond_atom_site_label_1
_geom_bond_atom_site_label_2
_geom_bond_distance
_geom_bond_site_symmetry_2
Na0 O26 2.275152 1_555
Na0 O140 2.397057 1_545
Na0 O96 2.416003 1_555
Na0 O98 2.476713 1_555
Na0 O142 2.813178 1_545
Na0 O16 2.830432 1_545
Na0 O68 2.991503 1_545
Na1 O29 2.416683 1_555
Na1 O131 2.420091 1_555
Na1 O87 2.495505 1_555
Na1 O129 2.681133 1_555
Na1 O84 2.683038 1_555
Na1 O15 2.733213 1_555
Na1 O43 2.942185 1_555
Na1 O57 2.957092 1_555
Na2 O25 2.340871 1_455
Na2 O126 2.417558 1_555
Na2 O89 2.513817 1_455
Na2 O130 2.597863 1_555
Na2 O86 2.776557 1_565
Na2 O16 2.852120 1_555
Na2 O58 2.894070 1_555
Na2 O45 2.919426 1_455
Na3 O24 2.323030 1_555
Na3 O127 2.436069 1_555
Na3 O88 2.528636 1_555
Na3 O131 2.660772 1_555
Na3 O87 2.845866 1_565
Na3 O17 2.852312 1_555
Na3 O44 2.882891 1_555
Na3 O59 2.914936 1_555
Na4 O123 2.407920 1_555
Na4 O33 2.463146 1_565
Na4 O95 2.508574 1_565
Na4 O125 2.664984 1_555
Na4 O90 2.704113 1_555
Na4 O23 2.767156 1_555
Na4 O37 2.908428 1_565
Na4 O53 2.929860 1_554
Na5 O30 2.316191 1_555
Na5 O121 2.449035 1_555
Na5 O92 2.528903 1_555
Na5 O123 2.664449 1_555
Na5 O40 2.854269 1_555
Na5 O95 2.859149 1_555
Na5 O21 2.872468 1_555
Na5 O51 2.882195 1_554
Na6 O8 2.305548 1_555
Na6 O82 2.439077 1_555
Na6 O110 2.456987 1_555
Na6 O81 2.518923 1_555
Na6 O108 2.725495 1_555
Na6 O38 2.906554 1_556
Na6 O67 3.007207 1_555
Na7 O9 2.352160 1_655
Na7 O83 2.452565 1_555
Na7 O111 2.469873 1_555
Na7 O80 2.518850 1_655
Na7 O109 2.753699 1_555
Na7 O39 2.977627 1_556
Na7 O66 2.986128 1_655
Na8 O112 2.413296 1_555
Na8 O82 2.414838 1_545
Na8 O79 2.417131 1_555
Na8 O10 2.727294 1_555
Na8 O110 2.734323 1_555
Na8 O40 2.759032 1_556
Na9 O78 2.394347 1_655
Na9 O113 2.422327 1_555
Na9 O83 2.428519 1_545
Na9 O11 2.647775 1_555
Na9 O111 2.733254 1_555
Na9 O41 2.790833 1_556
Na10 O80 2.356601 1_545
Na10 O108 2.442523 1_555
Na10 O78 2.477439 1_555
Na10 O6 2.731898 1_555
Na10 O112 2.771781 1_555
Na10 O36 2.789388 1_556
Na11 O81 2.365756 1_545
Na11 O109 2.450314 1_555
Na11 O79 2.464970 1_555
Na11 O7 2.700795 1_555
Na11 O113 2.743691 1_555
Na11 O37 2.830758 1_556
Na12 O4 2.277191 1_555
Na12 O74 2.456427 1_545
Na12 O118 2.473636 1_555
Na12 O77 2.533394 1_555
Na12 O114 2.755426 1_555
Na12 O46 2.930193 1_555
Na12 O61 2.964370 1_555
Na13 O75 2.408243 1_545
Na13 O119 2.425991 1_555
Na13 O76 2.460170 1_655
Na13 O5 2.642102 1_655
Na13 O47 2.731745 1_555
Na13 O115 2.741095 1_555
Na14 O76 2.401712 1_555
Na14 O114 2.432202 1_555
Na14 O72 2.476120 1_545
Na14 O0 2.663276 1_545
Na14 O116 2.720421 1_555
Na14 O42 2.894749 1_555
Na15 O77 2.358458 1_555
Na15 O73 2.448660 1_545
Na15 O115 2.453459 1_555
Na15 O1 2.642831 1_555
Na15 O117 2.771351 1_555
Na15 O43 2.855533 1_555
Na16 O73 2.387367 1_555
Na16 O74 2.429210 1_555
Na16 O116 2.443137 1_555
Na16 O2 2.632529 1_555
Na16 O118 2.693749 1_555
Na16 O44 2.801016 1_555
Na17 O72 2.408605 1_655
Na17 O117 2.429845 1_555
Na17 O75 2.461734 1_555
Na17 O3 2.625896 1_555
Na17 O119 2.752087 1_555
Na17 O45 2.792152 1_555
Na18 O76 2.496787 1_655
Na18 O75 2.508138 1_545
Na18 O72 2.609675 1_645
Na18 O85 2.694183 1_555
Na18 O86 2.710394 1_655
Na18 O89 2.774515 1_545
Na19 O74 2.414888 1_545
Na19 O77 2.461647 1_555
Na19 O73 2.543559 1_545
Na19 O88 2.704539 1_545
Na19 O84 2.725974 1_555
Na19 O87 2.796846 1_555
Na20 O80 2.425240 1_555
Na20 O83 2.459524 1_455
Na20 O78 2.485228 1_565
Na20 O91 2.766230 1_456
Na20 O94 2.808981 1_566
Na20 O93 2.853671 1_466
Na21 O82 2.405567 1_555
Na21 O81 2.464159 1_555
Na21 O79 2.525368 1_565
Na21 O92 2.708162 1_566
Na21 O90 2.772545 1_556
Na21 O95 2.822420 1_566
Na22 O100 2.249810 1_555
Na22 O110 2.571954 1_555
Na22 O108 2.603242 1_555
Na22 O98 2.775063 1_555
Na22 O96 2.814772 1_555
Na22 O112 2.864687 1_555
Na23 O101 2.263566 1_555
Na23 O99 2.622122 1_555
Na23 O97 2.704137 1_555
Na23 O111 2.710035 1_555
Na23 O109 2.724733 1_555
Na23 O113 2.833167 1_555
Na24 O104 2.229521 1_555
Na24 O106 2.653965 1_555
Na24 O102 2.660973 1_555
Na24 O118 2.711417 1_555
Na24 O114 2.727851 1_555
Na24 O116 2.906095 1_555
Na25 O107 2.546191 1_555
Na25 O103 2.596227 1_555
Na25 O105 2.616723 1_555
Na25 O115 2.667321 1_555
Na25 O117 2.668602 1_555
Na25 O119 2.677325 1_555
Na26 O136 2.643314 1_555
Na26 O134 2.644296 1_555
Na26 O120 2.645324 1_555
Na26 O124 2.648828 1_555
Na26 O132 2.653395 1_555
Na26 O122 2.658258 1_555
Na27 O135 2.464520 1_555
Na27 O137 2.464915 1_555
Na27 O133 2.570742 1_555
Na27 O121 2.690403 1_555
Na27 O125 2.793211 1_555
Na27 O123 2.877263 1_555
Na28 O138 2.431614 1_555
Na28 O142 2.555333 1_555
Na28 O140 2.561101 1_555
Na28 O128 2.676884 1_555
Na28 O130 2.773828 1_555
Na28 O126 2.840049 1_555
Na29 O143 2.410769 1_555
Na29 O141 2.434517 1_555
Na29 O139 2.526497 1_555
Na29 O127 2.751151 1_555
Na29 O129 2.827617 1_555
Na29 O131 2.922547 1_555
Ca0 O3 2.220019 1_545
Ca0 O0 2.224531 1_645
Ca0 O5 2.227863 1_655
Ca0 O72 2.280346 1_645
Ca0 O75 2.288541 1_545
Ca0 O76 2.291161 1_655
Ca1 O4 2.110098 1_555
Ca1 O1 2.234272 1_555
Ca1 O2 2.255446 1_545
Ca1 O74 2.334576 1_545
Ca1 O73 2.336757 1_545
Ca1 O77 2.341971 1_555
Ca2 O9 2.128007 1_655
Ca2 O11 2.235154 1_565
Ca2 O6 2.242077 1_665
Ca2 O83 2.297773 1_555
Ca2 O78 2.307578 1_665
Ca2 O80 2.320179 1_655
Ca3 O8 2.122201 1_555
Ca3 O7 2.231358 1_565
Ca3 O10 2.253585 1_565
Ca3 O82 2.298073 1_555
Ca3 O81 2.322696 1_555
Ca3 O79 2.338385 1_565
Ca4 O28 2.168573 1_555
Ca4 O24 2.177540 1_555
Ca4 O100 2.208023 1_555
Ca4 O26 2.289410 1_555
Ca4 O96 2.404644 1_555
Ca4 O98 2.414810 1_555
Ca5 O25 2.199661 1_555
Ca5 O27 2.211739 1_555
Ca5 O29 2.232272 1_555
Ca5 O101 2.234176 1_555
Ca5 O97 2.350800 1_555
Ca5 O99 2.380302 1_555
Ca6 O32 2.174576 1_555
Ca6 O34 2.199652 1_555
Ca6 O30 2.206365 1_555
Ca6 O104 2.237934 1_555
Ca6 O102 2.397753 1_555
Ca6 O106 2.413975 1_555
Ca7 O31 2.151396 1_555
Ca7 O35 2.170529 1_555
Ca7 O33 2.209532 1_555
Ca7 O103 2.383136 1_555
Ca7 O107 2.393881 1_555
Ca7 O105 2.399065 1_555
O0 S0 1.483465 1_555
O1 S1 1.476125 1_545
O2 S2 1.476826 1_555
O3 S3 1.480932 1_555
O4 Si0 1.595722 1_555
O5 S4 1.482041 1_555
O6 S5 1.471796 1_555
O7 S6 1.471027 1_555
O8 Si2 1.591801 1_555
O9 Si1 1.595453 1_555
O10 S7 1.460892 1_545
O11 S8 1.473935 1_545
O12 S7 1.510345 1_555
O12 Ta1 2.171861 1_555
O13 S8 1.517035 1_555
O13 Ta0 2.159912 1_655
O14 S5 1.512522 1_555
O14 Ta0 2.196624 1_545
O15 S6 1.527134 1_555
O15 Ta1 2.237832 1_545
O16 Si1 1.755286 1_555
O16 Ta0 1.959249 1_555
O17 Si2 1.766099 1_555
O17 Ta1 1.916525 1_555
O18 S2 1.505966 1_555
O18 Ta3 2.200058 1_565
O19 S3 1.506147 1_555
O19 Ta2 2.217468 1_655
O20 S4 1.494064 1_555
O20 Ta2 2.286418 1_545
O21 Si0 1.754992 1_555
O21 Ta3 1.923979 1_555
O22 S0 1.508826 1_555
O22 Ta2 2.201620 1_555
O23 S1 1.507041 1_555
O23 Ta3 2.335684 1_565
O24 Si3 1.580228 1_555
O25 Si4 1.581537 1_555
O26 Si5 1.578381 1_555
O27 Si6 1.563086 1_555
O28 Si7 1.568124 1_555
O29 Si8 1.578231 1_555
O30 Si9 1.579229 1_555
O31 Si10 1.568488 1_555
O32 Si11 1.563814 1_555
O33 Si12 1.582257 1_555
O34 Si13 1.564490 1_555
O35 Si14 1.567466 1_555
O36 Si13 1.703866 1_555
O36 Ta4 1.949215 1_554
O37 Si14 1.694677 1_555
O37 Ta5 2.002113 1_554
O38 Si9 1.703683 1_555
O38 Ta4 1.970388 1_554
O39 Si10 1.697558 1_555
O39 Ta5 1.946948 1_554
O40 Si11 1.703093 1_555
O40 Ta4 1.990581 1_554
O41 Si12 1.689355 1_555
O41 Ta5 1.985520 1_554
O42 Si5 1.692490 1_555
O42 Ta6 1.963719 1_555
O43 Si6 1.705650 1_555
O43 Ta7 1.976201 1_555
O44 Si7 1.702868 1_555
O44 Ta6 1.988089 1_555
O45 Si8 1.703655 1_555
O45 Ta7 1.995135 1_555
O46 Si3 1.704289 1_555
O46 Ta6 1.956420 1_555
O47 Si4 1.716977 1_555
O47 Ta7 1.954855 1_555
O48 Si15 1.611887 1_555
O48 Ta8 1.951713 1_556
O49 Si16 1.633520 1_555
O49 Ta9 1.914042 1_556
O50 Si17 1.600771 1_555
O50 Ta8 1.961460 1_556
O51 Si18 1.622823 1_555
O51 Ta9 1.970123 1_556
O52 Si19 1.605408 1_555
O52 Ta8 1.970646 1_556
O53 Si20 1.622971 1_555
O53 Ta9 1.956096 1_556
O54 Si21 1.612642 1_555
O54 Ta10 1.938847 1_555
O55 Si22 1.632762 1_555
O55 Ta11 1.922943 1_555
O56 Si23 1.612308 1_555
O56 Ta10 1.949825 1_555
O57 Si24 1.623181 1_555
O57 Ta11 1.959063 1_555
O58 Si25 1.613814 1_555
O58 Ta10 1.995458 1_555
O59 Si26 1.623474 1_555
O59 Ta11 1.963453 1_555
O60 Si25 1.705176 1_555
O60 Ta12 1.912900 1_555
O61 Si26 1.686082 1_555
O61 Ta13 1.912541 1_555
O62 Si21 1.706034 1_555
O62 Ta12 1.904919 1_555
O63 Si22 1.656830 1_555
O63 Ta13 2.014697 1_555
O64 Si23 1.708688 1_555
O64 Ta12 1.911527 1_555
O65 Si24 1.686769 1_555
O65 Ta13 1.923549 1_555
O66 Si17 1.710170 1_555
O66 Ta14 1.886901 1_555
O67 Si18 1.692334 1_555
O67 Ta15 1.905005 1_555
O68 Si19 1.722854 1_555
O68 Ta14 1.917030 1_555
O69 Si20 1.694169 1_555
O69 Ta15 1.913688 1_555
O70 Si15 1.690135 1_555
O70 Ta14 1.959815 1_555
O71 Si16 1.666645 1_555
O71 Ta15 1.997467 1_555
O72 Si25 1.608548 1_555
O73 Si26 1.604193 1_555
O74 Si21 1.600962 1_555
O75 Si22 1.614577 1_555
O76 Si23 1.610105 1_555
O77 Si24 1.605791 1_555
O78 Si17 1.601201 1_555
O79 Si18 1.604277 1_555
O80 Si19 1.606321 1_555
O81 Si20 1.605444 1_555
O82 Si15 1.608657 1_555
O83 Si16 1.608429 1_555
O84 Si3 1.652981 1_555
O84 Ta1 2.028492 1_545
O85 Si4 1.655536 1_555
O85 Ta0 1.990698 1_645
O86 Si5 1.702438 1_555
O86 Ta0 1.936354 1_545
O87 Si6 1.712518 1_555
O87 Ta1 1.958444 1_545
O88 Si7 1.710989 1_555
O88 Ta1 1.936489 1_555
O89 Si8 1.675990 1_555
O89 Ta0 1.956057 1_655
O90 Si9 1.660712 1_555
O90 Ta3 2.012699 1_565
O91 Si10 1.718880 1_555
O91 Ta2 1.878028 1_655
O92 Si11 1.728913 1_555
O92 Ta3 1.909728 1_555
O93 Si12 1.681066 1_555
O93 Ta2 1.907582 1_645
O94 Si13 1.720496 1_555
O94 Ta2 1.879800 1_545
O95 Si14 1.716448 1_555
O95 Ta3 1.949430 1_555
O96 S7 1.472436 1_545
O97 S8 1.451097 1_545
O98 S5 1.470022 1_555
O99 S6 1.454143 1_555
O100 Si2 1.588268 1_555
O101 Si1 1.581708 1_655
O102 S2 1.449008 1_555
O103 S3 1.461956 1_555
O104 Si0 1.583295 1_555
O105 S4 1.461763 1_655
O106 S0 1.442265 1_545
O107 S1 1.464487 1_545
O108 Si15 1.663472 1_555
O108 Ta4 2.072072 1_555
O109 Si16 1.659858 1_555
O109 Ta5 2.058537 1_555
O110 Si18 1.647205 1_555
O110 Ta4 2.093542 1_555
O111 Si17 1.649633 1_655
O111 Ta5 2.058701 1_555
O112 Si19 1.652446 1_545
O112 Ta4 2.082005 1_555
O113 Si20 1.649010 1_545
O113 Ta5 2.085686 1_555
O114 Si21 1.651470 1_545
O114 Ta6 2.075930 1_555
O115 Si22 1.664328 1_545
O115 Ta7 2.054836 1_555
O116 Si23 1.645782 1_555
O116 Ta6 2.093866 1_555
O117 Si24 1.656409 1_555
O117 Ta7 2.079181 1_555
O118 Si26 1.650697 1_555
O118 Ta6 2.074627 1_555
O119 Si25 1.653103 1_655
O119 Ta7 2.092315 1_555
O120 Si13 1.633452 1_555
O120 Ta8 1.962932 1_555
O121 Si14 1.645407 1_555
O121 Ta9 2.003301 1_555
O122 Si10 1.627602 1_455
O122 Ta8 1.968250 1_555
O123 Si9 1.670089 1_555
O123 Ta9 2.007431 1_555
O124 Si11 1.623096 1_565
O124 Ta8 1.969572 1_555
O125 Si12 1.650761 1_565
O125 Ta9 1.967135 1_555
O126 Si5 1.651885 1_565
O126 Ta10 2.006022 1_555
O127 Si6 1.645401 1_565
O127 Ta11 1.999546 1_555
O128 Si7 1.632056 1_555
O128 Ta10 1.948575 1_555
O129 Si8 1.638925 1_555
O129 Ta11 1.963479 1_555
O130 Si4 1.655841 1_455
O130 Ta10 1.964197 1_555
O131 Si3 1.664672 1_555
O131 Ta11 2.003989 1_555
O132 S0 1.531447 1_555
O132 Ta12 2.176297 1_555
O133 S1 1.517274 1_555
O133 Ta13 2.203505 1_555
O134 S2 1.535257 1_555
O134 Ta12 2.154167 1_555
O135 S3 1.509457 1_555
O135 Ta13 2.242357 1_555
O136 S4 1.529787 1_555
O136 Ta12 2.180748 1_555
O137 Si0 1.723135 1_555
O137 Ta13 1.936449 1_555
O138 S5 1.500367 1_555
O138 Ta14 2.271872 1_555
O139 S6 1.511433 1_555
O139 Ta15 2.254057 1_555
O140 Si1 1.734496 1_555
O140 Ta14 1.996246 1_555
O141 Si2 1.712420 1_555
O141 Ta15 1.953170 1_555
O142 S7 1.512961 1_555
O142 Ta14 2.283906 1_555
O143 S8 1.511008 1_555
O143 Ta15 2.244826 1_555
