# generated using pymatgen
data_MgAlCu(WO4)2
_symmetry_space_group_name_H-M   'P 1'
_cell_length_a   5.37470893
_cell_length_b   5.98269507
_cell_length_c   5.71244055
_cell_angle_alpha   102.85120348
_cell_angle_beta   122.24079775
_cell_angle_gamma   93.04052395
_symmetry_Int_Tables_number   1
_chemical_formula_structural   MgAlCu(WO4)2
_chemical_formula_sum   'Mg1 Al1 Cu1 W2 O8'
_cell_volume   148.15175020
_cell_formula_units_Z   1
loop_
 _symmetry_equiv_pos_site_id
 _symmetry_equiv_pos_as_xyz
  1  'x, y, z'
loop_
 _atom_site_type_symbol
 _atom_site_label
 _atom_site_symmetry_multiplicity
 _atom_site_fract_x
 _atom_site_fract_y
 _atom_site_fract_z
 _atom_site_occupancy
  Mg  Mg0  1  0.89965181  0.85210659  0.70983138  1
  Al  Al0  1  0.60881480  0.65612176  0.02175821  1
  Cu  Cu0  1  0.25604475  0.45340121  0.25778661  1
  W  W0  1  0.86094110  0.34304192  0.56820042  1
  W  W1  1  0.34136716  0.05554826  0.58630800  1
  O  O0  1  0.18217640  0.62157860  0.85096027  1
  O  O1  1  0.64486036  0.56428975  0.33476493  1
  O  O2  1  0.16967583  0.15387332  0.82060875  1
  O  O3  1  0.59163848  0.03607841  0.40892391  1
  O  O4  1  0.61014652  0.86529003  0.82730129  1
  O  O5  1  0.03298355  0.79663734  0.30817836  1
  O  O6  1  0.05315164  0.26433684  0.35942750  1
  O  O7  1  0.64454560  0.38524295  0.80870939  1
loop_
_geom_bond_atom_site_label_1
_geom_bond_atom_site_label_2
_geom_bond_distance
_geom_bond_site_symmetry_2
Mg0 O4 1.995295 1_555
Mg0 O2 2.000013 1_665
Mg0 O0 2.066035 1_655
Mg0 O1 2.099769 1_555
Mg0 O3 2.214824 1_565
Mg0 O5 2.707188 1_655
Al0 O4 1.850905 1_554
Al0 O7 1.883976 1_554
Al0 O1 1.901346 1_555
Al0 O0 1.930211 1_554
Al0 O5 1.945797 1_655
Cu0 O6 1.908548 1_555
Cu0 O1 1.934763 1_555
Cu0 O5 2.470507 1_555
Cu0 O2 2.519435 1_554
Cu0 O0 2.582422 1_554
O0 W0 1.971998 1_455
O1 W0 2.043264 1_555
O2 W1 2.003525 1_555
O2 W0 2.117930 1_455
O3 W0 1.965981 1_555
O3 W1 2.065945 1_555
O4 W1 2.006819 1_565
O5 W1 1.869228 1_565
O6 W0 1.956427 1_455
O6 W1 2.103090 1_555
O7 W1 2.120236 1_555
O7 W0 2.210386 1_555
