# generated using pymatgen
data_MgTi3V5O16
_symmetry_space_group_name_H-M   'P 1'
_cell_length_a   5.88249745
_cell_length_b   5.96686813
_cell_length_c   9.72708483
_cell_angle_alpha   89.77479164
_cell_angle_beta   89.75644613
_cell_angle_gamma   119.76451666
_symmetry_Int_Tables_number   1
_chemical_formula_structural   MgTi3V5O16
_chemical_formula_sum   'Mg1 Ti3 V5 O16'
_cell_volume   296.36897010
_cell_formula_units_Z   1
loop_
 _symmetry_equiv_pos_site_id
 _symmetry_equiv_pos_as_xyz
  1  'x, y, z'
loop_
 _atom_site_type_symbol
 _atom_site_label
 _atom_site_symmetry_multiplicity
 _atom_site_fract_x
 _atom_site_fract_y
 _atom_site_fract_z
 _atom_site_occupancy
  Mg  Mg0  1  0.00835081  0.01661150  0.99212080  1
  Ti  Ti0  1  0.11891499  0.77832360  0.22993146  1
  Ti  Ti1  1  0.23830923  0.35637163  0.22892215  1
  Ti  Ti2  1  0.32886090  0.11676170  0.69650490  1
  V  V0  1  0.33547268  0.66549966  0.49578702  1
  V  V1  1  0.66316114  0.89023706  0.23471334  1
  V  V2  1  0.67918271  0.33691174  0.97495130  1
  V  V3  1  0.84878237  0.18303818  0.69281384  1
  V  V4  1  0.78652239  0.64438454  0.71311319  1
  O  O0  1  0.14390005  0.80851665  0.60357724  1
  O  O1  1  0.04559255  0.50848153  0.34267245  1
  O  O2  1  0.34151354  0.68599183  0.12490938  1
  O  O3  1  0.01750293  0.01759778  0.31083412  1
  O  O4  1  0.99073368  0.99399291  0.80008812  1
  O  O5  1  0.15925585  0.32636329  0.60253716  1
  O  O6  1  0.47793073  0.97179934  0.34439693  1
  O  O7  1  0.51250623  0.54871790  0.34185242  1
  O  O8  1  0.34159330  0.19081173  0.09467431  1
  O  O9  1  0.65408106  0.83426283  0.60514561  1
  O  O10  1  0.52227731  0.48418854  0.83208801  1
  O  O11  1  0.51446536  0.04196377  0.82368700  1
  O  O12  1  0.65187076  0.32823799  0.60067921  1
  O  O13  1  0.84875309  0.68844988  0.10122057  1
  O  O14  1  0.94287141  0.46490689  0.82646644  1
  O  O15  1  0.84322093  0.17506552  0.10203406  1
loop_
_geom_bond_atom_site_label_1
_geom_bond_atom_site_label_2
_geom_bond_distance
_geom_bond_site_symmetry_2
Mg0 O4 1.872916 1_445
Mg0 O15 1.972695 1_456
Mg0 O8 1.979896 1_556
Mg0 O13 1.997928 1_446
O0 Ti2 1.848856 1_565
O0 V0 2.012293 1_555
O0 V4 2.107715 1_455
O1 Ti0 1.809335 1_555
O1 Ti1 2.086151 1_555
O1 V0 2.109519 1_555
O2 Ti0 1.941919 1_555
O2 V1 1.985945 1_555
O2 Ti1 2.013478 1_555
O3 Ti1 1.944155 1_555
O3 Ti0 1.965713 1_545
O3 V1 1.978721 1_445
O4 V3 1.997963 1_565
O4 Ti2 2.009613 1_665
O4 V4 2.011196 1_555
O5 V3 1.807694 1_455
O5 V0 2.034519 1_555
O5 Ti2 2.152368 1_555
O6 V1 1.755876 1_555
O6 Ti0 2.154527 1_555
O6 V0 2.158413 1_555
O7 Ti1 1.820028 1_555
O7 V1 2.050970 1_555
O7 V0 2.127799 1_555
O8 Ti1 1.910385 1_555
O8 V2 2.076855 1_554
O8 Ti0 2.502692 1_545
O9 V0 1.951859 1_555
O9 V4 1.966610 1_555
O9 V3 2.006399 1_565
O10 V4 1.780444 1_555
O10 V2 2.088521 1_555
O10 Ti2 2.323623 1_555
O11 Ti2 1.847339 1_555
O11 V3 2.126824 1_555
O11 V2 2.130828 1_555
O12 Ti2 1.914842 1_555
O12 V3 1.973492 1_555
O12 V4 1.980414 1_555
O13 Ti0 1.885922 1_655
O13 V2 2.203781 1_554
O13 V1 2.373410 1_555
O14 V2 1.967609 1_555
O14 V3 1.980966 1_555
O14 V4 2.045910 1_555
O15 V1 1.964623 1_545
O15 V2 2.077927 1_554
O15 Ti1 2.373545 1_655
