# generated using pymatgen
data_Cs2MgMnV2(BrO3)2
_symmetry_space_group_name_H-M   'P 1'
_cell_length_a   6.22669400
_cell_length_b   5.59787426
_cell_length_c   9.68458396
_cell_angle_alpha   106.79868821
_cell_angle_beta   90.00000000
_cell_angle_gamma   90.00000000
_symmetry_Int_Tables_number   1
_chemical_formula_structural   Cs2MgMnV2(BrO3)2
_chemical_formula_sum   'Cs2 Mg1 Mn1 V2 Br2 O6'
_cell_volume   323.16293047
_cell_formula_units_Z   1
loop_
 _symmetry_equiv_pos_site_id
 _symmetry_equiv_pos_as_xyz
  1  'x, y, z'
loop_
 _atom_site_type_symbol
 _atom_site_label
 _atom_site_symmetry_multiplicity
 _atom_site_fract_x
 _atom_site_fract_y
 _atom_site_fract_z
 _atom_site_occupancy
  Cs  Cs0  1  0.12194400  0.67022300  0.34044600  1
  Cs  Cs1  1  0.12194400  0.32977700  0.65955400  1
  Mg  Mg0  1  0.85009300  0.50000000  0.00000000  1
  Mn  Mn0  1  0.41542800  0.00000000  0.00000000  1
  V  V0  1  0.59009800  0.80760100  0.61520300  1
  V  V1  1  0.59009800  0.19239900  0.38479700  1
  Br  Br0  1  0.43220800  0.50000000  0.00000000  1
  Br  Br1  1  0.95138900  0.00000000  0.00000000  1
  O  O0  1  0.49673400  0.50000000  0.50000000  1
  O  O1  1  0.45527400  0.89249300  0.78498500  1
  O  O2  1  0.86009000  0.81117800  0.62235500  1
  O  O3  1  0.86009000  0.18882200  0.37764500  1
  O  O4  1  0.49673400  0.00000000  0.50000000  1
  O  O5  1  0.45527400  0.10750700  0.21501400  1
loop_
_geom_bond_atom_site_label_1
_geom_bond_atom_site_label_2
_geom_bond_distance
_geom_bond_site_symmetry_2
Cs0 O2 3.080539 1_455
Cs0 O4 3.097246 1_565
Cs0 O0 3.097246 1_555
Cs0 O3 3.257523 1_465
Cs0 O3 3.257528 1_455
Cs0 Mg0 3.581630 1_455
Cs0 O5 3.673460 1_555
Cs0 O5 3.673461 1_565
Cs1 O3 3.080539 1_455
Cs1 O4 3.097246 1_555
Cs1 O0 3.097246 1_555
Cs1 O2 3.257523 1_445
Cs1 O2 3.257528 1_455
Cs1 Mg0 3.581630 1_456
Cs1 O1 3.673456 1_545
Cs1 O1 3.673459 1_555
Mn0 O5 2.008841 1_555
Mn0 O1 2.008850 1_544
Br0 Mg0 2.602042 1_555
Br0 Mn0 2.800887 1_565
Br0 Mn0 2.800887 1_555
Br0 Cs0 3.700681 1_555
Br0 Cs1 3.700681 1_554
Br1 Mg0 2.869125 1_555
Br1 Mg0 2.869125 1_545
Br1 Mn0 2.889429 1_655
O0 V0 1.853987 1_555
O0 V1 1.853987 1_555
O1 V0 1.783975 1_555
O2 V0 1.682465 1_555
O3 V1 1.682465 1_555
O4 V0 1.853992 1_545
O4 V1 1.853992 1_555
O5 V1 1.783983 1_555
