# generated using pymatgen
data_La2InRh2
_symmetry_space_group_name_H-M   'P 1'
_cell_length_a   7.68141307
_cell_length_b   7.68141307
_cell_length_c   3.96905262
_cell_angle_alpha   90.00000000
_cell_angle_beta   90.00000000
_cell_angle_gamma   90.00000000
_symmetry_Int_Tables_number   1
_chemical_formula_structural   La2InRh2
_chemical_formula_sum   'La4 In2 Rh4'
_cell_volume   234.19040449
_cell_formula_units_Z   2
loop_
 _symmetry_equiv_pos_site_id
 _symmetry_equiv_pos_as_xyz
  1  'x, y, z'
loop_
 _atom_site_type_symbol
 _atom_site_label
 _atom_site_symmetry_multiplicity
 _atom_site_fract_x
 _atom_site_fract_y
 _atom_site_fract_z
 _atom_site_occupancy
  La  La0  1  0.17142447  0.32857553  0.50000000  1
  La  La1  1  0.67142447  0.17142447  0.50000000  1
  La  La2  1  0.82857553  0.67142447  0.50000000  1
  La  La3  1  0.32857553  0.82857553  0.50000000  1
  In  In0  1  0.00000000  -0.00000000  0.00000000  1
  In  In1  1  0.50000000  0.50000000  0.00000000  1
  Rh  Rh0  1  0.13464676  0.63464676  -0.00000000  1
  Rh  Rh1  1  0.63464676  0.86535324  -0.00000000  1
  Rh  Rh2  1  0.36535324  0.13464676  0.00000000  1
  Rh  Rh3  1  0.86535324  0.36535324  0.00000000  1
loop_
_geom_bond_atom_site_label_1
_geom_bond_atom_site_label_2
_geom_bond_distance
_geom_bond_site_symmetry_2
La0 Rh2 2.894208 1_555
La0 Rh2 2.894208 1_556
La0 Rh0 3.089601 1_555
La0 Rh3 3.089601 1_455
La0 Rh3 3.089601 1_456
La0 Rh0 3.089601 1_556
La1 Rh3 2.894208 1_556
La1 Rh3 2.894208 1_555
La1 Rh1 3.089601 1_546
La1 Rh1 3.089601 1_545
La1 Rh2 3.089601 1_556
La1 Rh2 3.089601 1_555
La2 Rh1 2.894208 1_555
La2 Rh1 2.894208 1_556
La2 Rh3 3.089601 1_556
La2 Rh3 3.089601 1_555
La2 Rh0 3.089601 1_655
La2 Rh0 3.089601 1_656
La3 Rh0 2.894208 1_556
La3 Rh0 2.894208 1_555
La3 Rh1 3.089601 1_555
La3 Rh1 3.089601 1_556
La3 Rh2 3.089601 1_566
La3 Rh2 3.089601 1_565
In0 Rh1 2.990949 1_445
In0 Rh2 2.990949 1_555
In0 Rh3 2.990949 1_455
In0 Rh0 2.990949 1_545
In0 La1 3.470224 1_454
In0 La1 3.470224 1_455
In0 La0 3.470224 1_554
In0 La2 3.470224 1_445
In0 La2 3.470224 1_444
In0 La0 3.470224 1_555
In0 La3 3.470224 1_544
In0 La3 3.470224 1_545
In1 Rh2 2.990949 1_555
In1 Rh1 2.990949 1_555
In1 Rh0 2.990949 1_555
In1 Rh3 2.990949 1_555
In1 La3 3.470224 1_554
In1 La1 3.470224 1_554
In1 La0 3.470224 1_554
In1 La3 3.470224 1_555
In1 La0 3.470224 1_555
In1 La2 3.470224 1_554
In1 La1 3.470224 1_555
In1 La2 3.470224 1_555
