# generated using pymatgen
data_Na30Ca8Nb16Si27(SO16)9
_symmetry_space_group_name_H-M   'P 1'
_cell_length_a   18.36379588
_cell_length_b   9.16462877
_cell_length_c   22.82672217
_cell_angle_alpha   89.88748488
_cell_angle_beta   89.85731235
_cell_angle_gamma   119.91320615
_symmetry_Int_Tables_number   1
_chemical_formula_structural   Na30Ca8Nb16Si27(SO16)9
_chemical_formula_sum   'Na30 Ca8 Nb16 Si27 S9 O144'
_cell_volume   3329.86302618
_cell_formula_units_Z   1
loop_
 _symmetry_equiv_pos_site_id
 _symmetry_equiv_pos_as_xyz
  1  'x, y, z'
loop_
 _atom_site_type_symbol
 _atom_site_label
 _atom_site_symmetry_multiplicity
 _atom_site_fract_x
 _atom_site_fract_y
 _atom_site_fract_z
 _atom_site_occupancy
  Na  Na0  1  0.18113486  0.00478306  0.73820259  1
  Na  Na1  1  0.65995816  0.34159807  0.59179891  1
  Na  Na2  1  0.01063856  0.66939937  0.58927407  1
  Na  Na3  1  0.50853123  0.66522182  0.58891656  1
  Na  Na4  1  0.66014516  0.97881234  0.09043933  1
  Na  Na5  1  0.50659466  0.35127425  0.08850121  1
  Na  Na6  1  0.48130491  0.68315438  0.90884897  1
  Na  Na7  1  0.98357584  0.68475750  0.90920232  1
  Na  Na8  1  0.35726154  0.03622046  0.91871294  1
  Na  Na9  1  0.85700668  0.03623059  0.91518245  1
  Na  Na10  1  0.15949243  0.28873011  0.91801839  1
  Na  Na11  1  0.65981977  0.28670900  0.91511571  1
  Na  Na12  1  0.48204784  0.28249433  0.40665582  1
  Na  Na13  1  0.98286448  0.28509285  0.41654139  1
  Na  Na14  1  0.15945238  0.03533647  0.41634709  1
  Na  Na15  1  0.65873677  0.03078831  0.41444975  1
  Na  Na16  1  0.35886746  0.67833727  0.41574276  1
  Na  Na17  1  0.85709999  0.68064321  0.41516891  1
  Na  Na18  1  0.99888370  0.01252318  0.49567753  1
  Na  Na19  1  0.49491711  0.00375887  0.49379170  1
  Na  Na20  1  0.00033525  0.99862480  0.99188019  1
  Na  Na21  1  0.49357938  0.98436518  0.99315947  1
  Na  Na22  1  0.34959217  0.37092902  0.82736926  1
  Na  Na23  1  0.84073914  0.35189171  0.82269550  1
  Na  Na24  1  0.34223970  0.33148867  0.32184113  1
  Na  Na25  1  0.83219335  0.33283320  0.32631048  1
  Na  Na26  1  0.16656854  0.66541278  0.16110438  1
  Na  Na27  1  0.67483487  0.66424478  0.16891283  1
  Na  Na28  1  0.17305345  0.64693616  0.66645615  1
  Na  Na29  1  0.67553790  0.68585620  0.67056535  1
  Ca  Ca0  1  0.99957269  0.00075095  0.35140349  1
  Ca  Ca1  1  0.50024930  0.00113158  0.35058400  1
  Ca  Ca2  1  0.99860635  0.99642814  0.85201261  1
  Ca  Ca3  1  0.49969463  0.99826766  0.85151481  1
  Ca  Ca4  1  0.33882074  0.34249549  0.68120433  1
  Ca  Ca5  1  0.83616306  0.33633543  0.68311752  1
  Ca  Ca6  1  0.33605525  0.33502678  0.18209077  1
  Ca  Ca7  1  0.83392976  0.33498348  0.18123693  1
  Nb  Nb0  1  0.99977284  0.98974885  0.64426792  1
  Nb  Nb1  1  0.49902567  0.98398247  0.64461370  1
  Nb  Nb2  1  0.00107110  0.99740341  0.13967427  1
  Nb  Nb3  1  0.49691488  0.01345143  0.14380031  1
  Nb  Nb4  1  0.33338805  0.33897659  0.98263414  1
  Nb  Nb5  1  0.83446912  0.33740794  0.98248482  1
  Nb  Nb6  1  0.33428902  0.32982925  0.48321584  1
  Nb  Nb7  1  0.83405211  0.32958846  0.48164884  1
  Nb  Nb8  1  0.16630535  0.66451618  0.02112287  1
  Nb  Nb9  1  0.66856393  0.66839745  0.02011896  1
  Nb  Nb10  1  0.16712595  0.66626785  0.52118915  1
  Nb  Nb11  1  0.66894855  0.67007161  0.51929312  1
  Nb  Nb12  1  0.16747540  0.66815367  0.31554940  1
  Nb  Nb13  1  0.66189722  0.65449274  0.31409638  1
  Nb  Nb14  1  0.16176813  0.66812036  0.81604226  1
  Nb  Nb15  1  0.66250988  0.66987629  0.81512588  1
  Si  Si0  1  0.50202460  0.30606930  0.25509645  1
  Si  Si1  1  0.00375316  0.69915341  0.75471064  1
  Si  Si2  1  0.50317107  0.69842551  0.75556204  1
  Si  Si3  1  0.48328871  0.32984021  0.58238085  1
  Si  Si4  1  0.98131379  0.32944683  0.58327895  1
  Si  Si5  1  0.18544861  0.03487882  0.58693036  1
  Si  Si6  1  0.68700950  0.03395277  0.58485979  1
  Si  Si7  1  0.33046955  0.62593836  0.58350519  1
  Si  Si8  1  0.83136490  0.62564381  0.58235681  1
  Si  Si9  1  0.48205718  0.63482510  0.08329622  1
  Si  Si10  1  0.98230492  0.62472887  0.08463002  1
  Si  Si11  1  0.32875793  0.03482623  0.08338927  1
  Si  Si12  1  0.83276935  0.03824752  0.08352804  1
  Si  Si13  1  0.18772172  0.33877146  0.08558411  1
  Si  Si14  1  0.68613295  0.33934624  0.08478118  1
  Si  Si15  1  0.30642312  0.65585321  0.91606717  1
  Si  Si16  1  0.80669516  0.65403794  0.91531061  1
  Si  Si17  1  0.01795229  0.38282880  0.91891233  1
  Si  Si18  1  0.51826083  0.38452645  0.91916243  1
  Si  Si19  1  0.17324731  0.96588102  0.91867456  1
  Si  Si20  1  0.67320414  0.96633279  0.91864938  1
  Si  Si21  1  0.30770486  0.96129658  0.41750611  1
  Si  Si22  1  0.80665952  0.96034606  0.41390862  1
  Si  Si23  1  0.17300094  0.38401038  0.41757140  1
  Si  Si24  1  0.67306390  0.38058406  0.41848930  1
  Si  Si25  1  0.01886182  0.65520336  0.41825410  1
  Si  Si26  1  0.51819895  0.65216650  0.41836440  1
  S  S0  1  0.14400139  0.98455394  0.25106645  1
  S  S1  1  0.64855874  0.98927447  0.25088067  1
  S  S2  1  0.34667601  0.70947291  0.25134375  1
  S  S3  1  0.84975649  0.70956686  0.25143654  1
  S  S4  1  0.00719875  0.30621509  0.25166181  1
  S  S5  1  0.14435474  0.30022195  0.75044217  1
  S  S6  1  0.64575292  0.30458902  0.74979217  1
  S  S7  1  0.34885510  0.98690991  0.75046267  1
  S  S8  1  0.84902200  0.98560122  0.75074076  1
  O  O0  1  0.10625953  0.99011128  0.30781765  1
  O  O1  1  0.60727601  0.99187964  0.30617733  1
  O  O2  1  0.38764194  0.78052439  0.30799834  1
  O  O3  1  0.89091156  0.78311346  0.30801012  1
  O  O4  1  0.50229490  0.21804656  0.31524771  1
  O  O5  1  0.00398066  0.22573856  0.30881405  1
  O  O6  1  0.10552417  0.21843471  0.80665653  1
  O  O7  1  0.60442435  0.21943783  0.80489752  1
  O  O8  1  0.50169954  0.78465801  0.81567817  1
  O  O9  1  0.00887582  0.79286130  0.81464354  1
  O  O10  1  0.39093502  0.00199265  0.80651976  1
  O  O11  1  0.89047713  -0.00020756  0.80736039  1
  O  O12  1  0.40147946  0.98570998  0.69957279  1
  O  O13  1  0.90174858  0.97853268  0.70071602  1
  O  O14  1  0.08892382  0.20162902  0.69959971  1
  O  O15  1  0.59288157  0.20788251  0.69706206  1
  O  O16  1  0.01212092  0.83360123  0.69678548  1
  O  O17  1  0.50799918  0.82884836  0.69659532  1
  O  O18  1  0.39804738  0.82136913  0.20119424  1
  O  O19  1  0.90194996  0.82008708  0.20114964  1
  O  O20  1  0.01213100  0.20515235  0.20195413  1
  O  O21  1  0.50740827  0.18720552  0.19650261  1
  O  O22  1  0.08780818  0.97370429  0.20109889  1
  O  O23  1  0.59734100  0.98213896  0.19830507  1
  O  O24  1  0.45369984  0.40595756  0.63289728  1
  O  O25  1  0.95267467  0.40788244  0.63365211  1
  O  O26  1  0.23190447  0.09104649  0.64752562  1
  O  O27  1  0.73983082  0.09895034  0.64198421  1
  O  O28  1  0.30840718  0.52230758  0.64175310  1
  O  O29  1  0.79613238  0.49765168  0.63516643  1
  O  O30  1  0.45371164  0.50067615  0.13414005  1
  O  O31  1  0.95176205  0.52237781  0.14304928  1
  O  O32  1  0.31122362  0.09861766  0.14210106  1
  O  O33  1  0.79712507  0.09298059  0.13690025  1
  O  O34  1  0.23921656  0.38057107  0.14340294  1
  O  O35  1  0.73790602  0.37773152  0.14259596  1
  O  O36  1  0.23451468  0.30406781  0.02677206  1
  O  O37  1  0.73204431  0.30029230  0.02675551  1
  O  O38  1  0.41876854  0.54023021  0.02427992  1
  O  O39  1  0.91672424  0.53149256  0.02705952  1
  O  O40  1  0.35156743  0.17011946  0.02592373  1
  O  O41  1  0.85041137  0.16533022  0.02504373  1
  O  O42  1  0.23800058  0.16568007  0.53032568  1
  O  O43  1  0.73355979  0.16553796  0.52641228  1
  O  O44  1  0.35185762  0.53435918  0.52615554  1
  O  O45  1  0.85281806  0.53611425  0.52439661  1
  O  O46  1  0.41981979  0.29923974  0.52356639  1
  O  O47  1  0.91787093  0.29721707  0.52367780  1
  O  O48  1  0.25241039  0.66199087  0.97108076  1
  O  O49  1  0.75011311  0.65655651  0.97059687  1
  O  O50  1  0.07801447  0.48814822  0.97207701  1
  O  O51  1  0.57402045  0.48842200  0.97534411  1
  O  O52  1  0.16589272  0.83902961  0.97021725  1
  O  O53  1  0.66822729  0.84931026  0.97385729  1
  O  O54  1  0.25038785  0.84358542  0.47090892  1
  O  O55  1  0.75241952  0.84455019  0.46997240  1
  O  O56  1  0.16491465  0.49258559  0.47032582  1
  O  O57  1  0.66854108  0.48738144  0.47387781  1
  O  O58  1  0.07471570  0.66823653  0.47472113  1
  O  O59  1  0.57485645  0.66124197  0.47427968  1
  O  O60  1  0.07216033  0.63779960  0.35964379  1
  O  O61  1  0.56932446  0.63329673  0.35969933  1
  O  O62  1  0.24843247  0.86096796  0.35745615  1
  O  O63  1  0.74809767  0.86277996  0.35601275  1
  O  O64  1  0.18342622  0.50534981  0.35752107  1
  O  O65  1  0.68264454  0.50311690  0.36018986  1
  O  O66  1  0.06780378  0.50424574  0.85860880  1
  O  O67  1  0.57025878  0.50548210  0.86022151  1
  O  O68  1  0.18233329  0.86804985  0.85679967  1
  O  O69  1  0.68272874  0.86261002  0.86021580  1
  O  O70  1  0.24692082  0.63699051  0.85697710  1
  O  O71  1  0.74833086  0.63448104  0.85663647  1
  O  O72  1  0.00747529  0.81817206  0.41626004  1
  O  O73  1  0.50827538  0.81640755  0.41766669  1
  O  O74  1  0.39828405  0.97589309  0.41834354  1
  O  O75  1  0.89962980  0.98305474  0.41645869  1
  O  O76  1  0.09090217  0.19934904  0.41660839  1
  O  O77  1  0.59287245  0.19419942  0.42004541  1
  O  O78  1  0.00675972  0.19800019  0.91695890  1
  O  O79  1  0.50853587  0.20056971  0.91835601  1
  O  O80  1  0.09349544  0.99384137  0.91939189  1
  O  O81  1  0.59248567  0.99063373  0.91993719  1
  O  O82  1  0.39800054  0.82154576  0.91728262  1
  O  O83  1  0.89795545  0.82032542  0.91868015  1
  O  O84  1  0.49049750  0.15925045  0.59385955  1
  O  O85  1  0.98493414  0.15470410  0.59499744  1
  O  O86  1  0.08988737  0.02291437  0.59131442  1
  O  O87  1  0.59267724  0.02797378  0.59188151  1
  O  O88  1  0.42247657  0.81284475  0.59027828  1
  O  O89  1  0.92153019  0.80687599  0.59275014  1
  O  O90  1  0.48950517  0.82033466  0.09578068  1
  O  O91  1  0.98734346  0.81637806  0.09256696  1
  O  O92  1  0.42169461  0.03135243  0.08983136  1
  O  O93  1  0.92031895  0.02734563  0.09609529  1
  O  O94  1  0.09227076  0.15710264  0.09408320  1
  O  O95  1  0.59153018  0.15683357  0.09230361  1
  O  O96  1  0.33106841  0.12633586  0.74574104  1
  O  O97  1  0.83443232  0.12726389  0.74464029  1
  O  O98  1  0.22625395  0.30779640  0.74626724  1
  O  O99  1  0.72948646  0.32337000  0.74720404  1
  O  O100  1  0.42665048  0.51209961  0.74939794  1
  O  O101  1  0.92603203  0.51502711  0.75026188  1
  O  O102  1  0.33151697  0.53854000  0.24634343  1
  O  O103  1  0.83679657  0.53855401  0.24811919  1
  O  O104  1  0.42634467  0.34144555  0.25015090  1
  O  O105  1  0.93423120  0.33040786  0.24825414  1
  O  O106  1  0.22821704  0.12935956  0.24685496  1
  O  O107  1  0.73366977  0.13655377  0.24984492  1
  O  O108  1  0.31091695  0.47946973  0.92015021  1
  O  O109  1  0.81166233  0.47901285  0.92186024  1
  O  O110  1  0.42739337  0.37999185  0.92068868  1
  O  O111  1  0.92736459  0.37951936  0.92165267  1
  O  O112  1  0.26247152  0.14640416  0.92232859  1
  O  O113  1  0.76208923  0.14710566  0.92174187  1
  O  O114  1  0.31013699  0.14359954  0.42096063  1
  O  O115  1  0.81074346  0.14495242  0.42045517  1
  O  O116  1  0.26022497  0.37648149  0.42341940  1
  O  O117  1  0.76257080  0.37844895  0.42128014  1
  O  O118  1  0.42656331  0.47629561  0.42130591  1
  O  O119  1  0.92811800  0.47682383  0.41960577  1
  O  O120  1  0.16224885  0.48122419  0.06959086  1
  O  O121  1  0.65706657  0.47999567  0.07255588  1
  O  O122  1  0.07831368  0.67324925  0.06904048  1
  O  O123  1  0.58094847  0.68375467  0.06938673  1
  O  O124  1  0.25761424  0.84209886  0.06870123  1
  O  O125  1  0.75932788  0.84388066  0.06833538  1
  O  O126  1  0.15905103  0.83854782  0.57204162  1
  O  O127  1  0.65757698  0.83604790  0.57110888  1
  O  O128  1  0.25880233  0.67582497  0.56816281  1
  O  O129  1  0.75918564  0.67562515  0.56777852  1
  O  O130  1  0.07781852  0.48111365  0.56765111  1
  O  O131  1  0.58153982  0.48041671  0.56888567  1
  O  O132  1  0.14702645  0.82058151  0.25006049  1
  O  O133  1  0.65254262  0.82753183  0.24958798  1
  O  O134  1  0.26274155  0.70820337  0.25039695  1
  O  O135  1  0.76688811  0.70700961  0.24960885  1
  O  O136  1  0.08851609  0.47699398  0.25075117  1
  O  O137  1  0.59641502  0.49237040  0.25350515  1
  O  O138  1  0.15271848  0.47191604  0.74877300  1
  O  O139  1  0.65009903  0.47392661  0.74803042  1
  O  O140  1  0.09922823  0.70458334  0.75067136  1
  O  O141  1  0.59707015  0.70120911  0.75345553  1
  O  O142  1  0.26639162  0.82223382  0.74829886  1
  O  O143  1  0.76716383  0.82005688  0.74938060  1
loop_
_geom_bond_atom_site_label_1
_geom_bond_atom_site_label_2
_geom_bond_distance
_geom_bond_site_symmetry_2
Na0 O26 2.242180 1_555
Na0 O140 2.404180 1_545
Na0 O96 2.407380 1_555
Na0 O98 2.477913 1_555
Na0 O142 2.813532 1_545
Na0 O16 2.855208 1_545
Na0 O68 2.985646 1_545
Na1 O29 2.393665 1_555
Na1 O131 2.407131 1_555
Na1 O87 2.499183 1_555
Na1 O15 2.694568 1_555
Na1 O84 2.700227 1_555
Na1 O129 2.723435 1_555
Na1 O57 2.971386 1_555
Na1 O43 2.971966 1_555
Na2 O25 2.311720 1_455
Na2 O126 2.400865 1_555
Na2 O89 2.515438 1_455
Na2 O130 2.620438 1_555
Na2 O86 2.813355 1_565
Na2 O58 2.866978 1_555
Na2 O16 2.874380 1_555
Na2 O45 2.929565 1_455
Na3 O24 2.294954 1_555
Na3 O127 2.413675 1_555
Na3 O88 2.541839 1_555
Na3 O131 2.672052 1_555
Na3 O17 2.884325 1_555
Na3 O87 2.884843 1_565
Na3 O44 2.890394 1_555
Na3 O59 2.891571 1_555
Na4 O123 2.396749 1_555
Na4 O33 2.437154 1_565
Na4 O95 2.510304 1_565
Na4 O125 2.710243 1_555
Na4 O90 2.720640 1_555
Na4 O23 2.723020 1_555
Na4 O37 2.937799 1_565
Na4 O53 2.949347 1_554
Na5 O30 2.286902 1_555
Na5 O121 2.429346 1_555
Na5 O92 2.543289 1_555
Na5 O123 2.679839 1_555
Na5 O51 2.864257 1_554
Na5 O40 2.866540 1_555
Na5 O21 2.889108 1_555
Na5 O95 2.896195 1_555
Na6 O8 2.273677 1_555
Na6 O82 2.433215 1_555
Na6 O110 2.454552 1_555
Na6 O81 2.537806 1_555
Na6 O108 2.740463 1_555
Na6 O38 2.906608 1_556
Na7 O9 2.320324 1_655
Na7 O83 2.451599 1_555
Na7 O111 2.467207 1_555
Na7 O80 2.540588 1_655
Na7 O109 2.767967 1_555
Na7 O39 2.994429 1_556
Na7 O66 3.002277 1_655
Na8 O112 2.410248 1_555
Na8 O79 2.410906 1_555
Na8 O82 2.428910 1_545
Na8 O10 2.688541 1_555
Na8 O110 2.746003 1_555
Na8 O40 2.764856 1_556
Na9 O78 2.386780 1_655
Na9 O113 2.420526 1_555
Na9 O83 2.443513 1_545
Na9 O11 2.597564 1_555
Na9 O111 2.745497 1_555
Na9 O41 2.802945 1_556
Na10 O80 2.346547 1_545
Na10 O108 2.437913 1_555
Na10 O78 2.496596 1_555
Na10 O6 2.690970 1_555
Na10 O112 2.783500 1_555
Na10 O36 2.811728 1_556
Na11 O81 2.357011 1_545
Na11 O109 2.450872 1_555
Na11 O79 2.481555 1_555
Na11 O7 2.671723 1_555
Na11 O113 2.753910 1_555
Na11 O37 2.849950 1_556
Na12 O4 2.249620 1_555
Na12 O74 2.452936 1_545
Na12 O118 2.471877 1_555
Na12 O77 2.556310 1_555
Na12 O114 2.771001 1_555
Na12 O46 2.934727 1_555
Na12 O61 2.982011 1_555
Na13 O75 2.403885 1_545
Na13 O119 2.421823 1_555
Na13 O76 2.471566 1_655
Na13 O5 2.589234 1_655
Na13 O47 2.745265 1_555
Na13 O115 2.756339 1_555
Na14 O76 2.394010 1_555
Na14 O114 2.432312 1_555
Na14 O72 2.492017 1_545
Na14 O0 2.622141 1_545
Na14 O116 2.731003 1_555
Na14 O42 2.930714 1_555
Na15 O77 2.351312 1_555
Na15 O115 2.448480 1_555
Na15 O73 2.466574 1_545
Na15 O1 2.609127 1_545
Na15 O117 2.784943 1_555
Na15 O43 2.877902 1_555
Na16 O73 2.380988 1_555
Na16 O116 2.442025 1_555
Na16 O74 2.448687 1_555
Na16 O2 2.587680 1_555
Na16 O118 2.699222 1_555
Na16 O44 2.815280 1_555
Na17 O72 2.396655 1_655
Na17 O117 2.430075 1_555
Na17 O75 2.476601 1_555
Na17 O3 2.579266 1_555
Na17 O119 2.762218 1_555
Na17 O45 2.803462 1_555
Na18 O76 2.476220 1_655
Na18 O75 2.488462 1_545
Na18 O72 2.602949 1_645
Na18 O85 2.691674 1_555
Na18 O86 2.725430 1_655
Na18 O89 2.788833 1_545
Na19 O74 2.396934 1_545
Na19 O77 2.440861 1_555
Na19 O73 2.541164 1_545
Na19 O88 2.707523 1_545
Na19 O84 2.717012 1_555
Na19 O87 2.812509 1_555
Na20 O80 2.393239 1_555
Na20 O83 2.441121 1_455
Na20 O78 2.459494 1_565
Na20 O91 2.777361 1_456
Na20 O94 2.826616 1_566
Na20 O93 2.873734 1_466
Na21 O82 2.391713 1_555
Na21 O81 2.444651 1_555
Na21 O79 2.521651 1_565
Na21 O92 2.711781 1_566
Na21 O90 2.761503 1_556
Na21 O95 2.838005 1_566
Na22 O100 2.235291 1_555
Na22 O110 2.546234 1_555
Na22 O108 2.585491 1_555
Na22 O98 2.758648 1_555
Na22 O96 2.805612 1_555
Na22 O112 2.859022 1_555
Na23 O101 2.250368 1_555
Na23 O99 2.588134 1_555
Na23 O97 2.683956 1_555
Na23 O111 2.704731 1_555
Na23 O109 2.718652 1_555
Na23 O113 2.825522 1_555
Na24 O104 2.217657 1_555
Na24 O106 2.628205 1_555
Na24 O102 2.640258 1_555
Na24 O118 2.700693 1_555
Na24 O114 2.719822 1_555
Na24 O116 2.901809 1_555
Na25 O107 2.517518 1_555
Na25 O103 2.564074 1_555
Na25 O105 2.590637 1_555
Na25 O117 2.651758 1_555
Na25 O115 2.653866 1_555
Na25 O119 2.662891 1_555
Na26 O136 2.593591 1_555
Na26 O134 2.599555 1_555
Na26 O132 2.605954 1_555
Na26 O120 2.664687 1_555
Na26 O124 2.671180 1_555
Na26 O122 2.679672 1_555
Na27 O135 2.400381 1_555
Na27 O137 2.448552 1_555
Na27 O133 2.533054 1_555
Na27 O121 2.695227 1_555
Na27 O125 2.794359 1_555
Na27 O123 2.913971 1_555
Na28 O138 2.372813 1_555
Na28 O142 2.508061 1_555
Na28 O140 2.553017 1_555
Na28 O128 2.673614 1_555
Na28 O130 2.799496 1_555
Na28 O126 2.869297 1_555
Na29 O143 2.353785 1_555
Na29 O141 2.421972 1_555
Na29 O139 2.488941 1_555
Na29 O127 2.757131 1_555
Na29 O129 2.828425 1_555
Na29 O131 2.950807 1_555
Ca0 O3 2.233656 1_545
Ca0 O0 2.240302 1_645
Ca0 O5 2.242430 1_655
Ca0 O72 2.290455 1_645
Ca0 O75 2.299688 1_545
Ca0 O76 2.306392 1_655
Ca1 O4 2.126742 1_555
Ca1 O1 2.248151 1_545
Ca1 O2 2.270823 1_545
Ca1 O73 2.339304 1_545
Ca1 O74 2.346105 1_545
Ca1 O77 2.358109 1_555
Ca2 O9 2.144777 1_655
Ca2 O11 2.248049 1_565
Ca2 O6 2.250300 1_665
Ca2 O83 2.310424 1_555
Ca2 O78 2.317086 1_665
Ca2 O80 2.336012 1_655
Ca3 O8 2.140319 1_555
Ca3 O7 2.243426 1_565
Ca3 O10 2.263432 1_565
Ca3 O82 2.307432 1_555
Ca3 O81 2.340860 1_555
Ca3 O79 2.346026 1_565
Ca4 O28 2.180172 1_555
Ca4 O24 2.183306 1_555
Ca4 O100 2.227586 1_555
Ca4 O26 2.293073 1_555
Ca4 O96 2.412703 1_555
Ca4 O98 2.430474 1_555
Ca5 O25 2.206481 1_555
Ca5 O27 2.218526 1_555
Ca5 O29 2.237352 1_555
Ca5 O101 2.254218 1_555
Ca5 O97 2.360723 1_555
Ca5 O99 2.396803 1_555
Ca6 O32 2.181702 1_555
Ca6 O34 2.205278 1_555
Ca6 O30 2.209352 1_555
Ca6 O104 2.254365 1_555
Ca6 O102 2.408722 1_555
Ca6 O106 2.431367 1_555
Ca7 O31 2.160983 1_555
Ca7 O35 2.176313 1_555
Ca7 O33 2.217468 1_555
Ca7 O103 2.393296 1_555
Ca7 O107 2.405122 1_555
Ca7 O105 2.413600 1_555
Nb0 O86 1.943942 1_665
Nb0 O16 1.963332 1_655
Nb0 O89 1.967402 1_555
Nb0 O85 2.007555 1_565
Nb0 O13 2.171311 1_555
Nb0 O14 2.212553 1_665
Nb1 O17 1.919502 1_555
Nb1 O88 1.947226 1_555
Nb1 O87 1.966060 1_565
Nb1 O84 2.047278 1_565
Nb1 O12 2.190914 1_555
Nb1 O15 2.259882 1_565
Nb2 O91 1.887708 1_455
Nb2 O94 1.889600 1_565
Nb2 O93 1.917298 1_465
Nb2 O22 2.214763 1_555
Nb2 O19 2.225163 1_455
Nb2 O20 2.305149 1_565
Nb3 O92 1.919987 1_555
Nb3 O21 1.929439 1_555
Nb3 O95 1.958064 1_555
Nb3 O90 2.029910 1_545
Nb3 O18 2.214276 1_545
Nb3 O23 2.359926 1_545
Nb4 O36 1.955620 1_556
Nb4 O38 1.973307 1_556
Nb4 O40 1.998403 1_556
Nb4 O108 2.094779 1_555
Nb4 O112 2.105183 1_555
Nb4 O110 2.111724 1_555
Nb5 O39 1.953411 1_556
Nb5 O41 1.993083 1_556
Nb5 O37 2.006442 1_556
Nb5 O109 2.076676 1_555
Nb5 O111 2.077678 1_555
Nb5 O113 2.106557 1_555
Nb6 O46 1.959420 1_555
Nb6 O42 1.969070 1_555
Nb6 O44 1.995993 1_555
Nb6 O118 2.093400 1_555
Nb6 O114 2.094465 1_555
Nb6 O116 2.117241 1_555
Nb7 O47 1.959426 1_555
Nb7 O43 1.981765 1_555
Nb7 O45 2.002933 1_555
Nb7 O115 2.070641 1_555
Nb7 O117 2.101283 1_555
Nb7 O119 2.113285 1_555
Nb8 O48 1.957863 1_554
Nb8 O50 1.974115 1_554
Nb8 O52 1.978150 1_554
Nb8 O120 1.979600 1_555
Nb8 O124 1.983444 1_555
Nb8 O122 1.983518 1_555
Nb9 O49 1.920010 1_554
Nb9 O53 1.966601 1_554
Nb9 O125 1.979517 1_555
Nb9 O51 1.984637 1_554
Nb9 O121 2.021283 1_555
Nb9 O123 2.022566 1_555
Nb10 O54 1.949790 1_555
Nb10 O56 1.956096 1_555
Nb10 O128 1.963149 1_555
Nb10 O130 1.975482 1_555
Nb10 O58 2.011140 1_555
Nb10 O126 2.025378 1_555
Nb11 O55 1.927098 1_555
Nb11 O57 1.967833 1_555
Nb11 O129 1.974517 1_555
Nb11 O59 1.979302 1_555
Nb11 O127 2.019657 1_555
Nb11 O131 2.019821 1_555
Nb12 O62 1.908239 1_555
Nb12 O60 1.912770 1_555
Nb12 O64 1.913521 1_555
Nb12 O134 2.179809 1_555
Nb12 O132 2.201133 1_555
Nb12 O136 2.201536 1_555
Nb13 O61 1.916333 1_555
Nb13 O65 1.923605 1_555
Nb13 O137 1.949597 1_555
Nb13 O63 2.016443 1_555
Nb13 O133 2.230806 1_555
Nb13 O135 2.274513 1_555
Nb14 O66 1.891660 1_555
Nb14 O68 1.919305 1_555
Nb14 O70 1.962379 1_555
Nb14 O140 2.011635 1_555
Nb14 O138 2.309301 1_555
Nb14 O142 2.312478 1_555
Nb15 O67 1.907622 1_555
Nb15 O69 1.916271 1_555
Nb15 O141 1.964513 1_555
Nb15 O71 2.000742 1_555
Nb15 O143 2.275831 1_555
Nb15 O139 2.286241 1_555
O0 S0 1.480584 1_555
O1 S1 1.477144 1_555
O2 S2 1.477157 1_555
O3 S3 1.481010 1_555
O4 Si0 1.592402 1_555
O5 S4 1.483845 1_555
O6 S5 1.474944 1_555
O7 S6 1.472386 1_555
O8 Si2 1.591773 1_555
O9 Si1 1.594579 1_555
O10 S7 1.467210 1_545
O11 S8 1.474336 1_545
O12 S7 1.512780 1_555
O13 S8 1.517566 1_555
O14 S5 1.513992 1_555
O15 S6 1.526016 1_555
O16 Si1 1.758952 1_555
O17 Si2 1.770790 1_555
O18 S2 1.509026 1_555
O19 S3 1.511263 1_555
O20 S4 1.496931 1_555
O21 Si0 1.760068 1_555
O22 S0 1.509859 1_555
O23 S1 1.507915 1_555
O24 Si3 1.577864 1_555
O25 Si4 1.578852 1_555
O26 Si5 1.573743 1_555
O27 Si6 1.558561 1_555
O28 Si7 1.562878 1_555
O29 Si8 1.575221 1_555
O30 Si9 1.575608 1_555
O31 Si10 1.561844 1_555
O32 Si11 1.558935 1_555
O33 Si12 1.578053 1_555
O34 Si13 1.558780 1_555
O35 Si14 1.563277 1_555
O36 Si13 1.705967 1_555
O37 Si14 1.700175 1_555
O38 Si9 1.710145 1_555
O39 Si10 1.701003 1_555
O40 Si11 1.704817 1_555
O41 Si12 1.690873 1_555
O42 Si5 1.694617 1_555
O43 Si6 1.710217 1_555
O44 Si7 1.703807 1_555
O45 Si8 1.703801 1_555
O46 Si3 1.709618 1_555
O47 Si4 1.720988 1_555
O48 Si15 1.616691 1_555
O49 Si16 1.640225 1_555
O50 Si17 1.603248 1_555
O51 Si18 1.624404 1_555
O52 Si19 1.609740 1_555
O53 Si20 1.625744 1_555
O54 Si21 1.616656 1_555
O55 Si22 1.640165 1_555
O56 Si23 1.616629 1_555
O57 Si24 1.627524 1_555
O58 Si25 1.616389 1_555
O59 Si26 1.624583 1_555
O60 Si25 1.709784 1_555
O61 Si26 1.691513 1_555
O62 Si21 1.709772 1_555
O63 Si22 1.659894 1_555
O64 Si23 1.712482 1_555
O65 Si24 1.690832 1_555
O66 Si17 1.715463 1_555
O67 Si18 1.697881 1_555
O68 Si19 1.726149 1_555
O69 Si20 1.697937 1_555
O70 Si15 1.692058 1_555
O71 Si16 1.670683 1_555
O72 Si25 1.608646 1_555
O73 Si26 1.603938 1_555
O74 Si21 1.601039 1_555
O75 Si22 1.614835 1_555
O76 Si23 1.610303 1_555
O77 Si24 1.605705 1_555
O78 Si17 1.602055 1_555
O79 Si18 1.604470 1_555
O80 Si19 1.607801 1_555
O81 Si20 1.605220 1_555
O82 Si15 1.608788 1_555
O83 Si16 1.609593 1_555
O84 Si3 1.653892 1_555
O85 Si4 1.656870 1_555
O86 Si5 1.705510 1_555
O87 Si6 1.712735 1_555
O88 Si7 1.711299 1_555
O89 Si8 1.678439 1_555
O90 Si9 1.661483 1_555
O91 Si10 1.722077 1_555
O92 Si11 1.729388 1_555
O93 Si12 1.685084 1_555
O94 Si13 1.722910 1_555
O95 Si14 1.715963 1_555
O96 S7 1.472056 1_545
O97 S8 1.457094 1_545
O98 S5 1.473428 1_555
O99 S6 1.460503 1_555
O100 Si2 1.587141 1_555
O101 Si1 1.579288 1_655
O102 S2 1.452748 1_555
O103 S3 1.465348 1_555
O104 Si0 1.580934 1_555
O105 S4 1.465425 1_655
O106 S0 1.453928 1_545
O107 S1 1.469988 1_545
O108 Si15 1.661634 1_555
O109 Si16 1.657912 1_555
O110 Si18 1.648619 1_555
O111 Si17 1.649646 1_655
O112 Si19 1.651157 1_545
O113 Si20 1.648611 1_545
O114 Si21 1.650967 1_545
O115 Si22 1.662771 1_545
O116 Si23 1.643012 1_555
O117 Si24 1.654914 1_555
O118 Si26 1.651656 1_555
O119 Si25 1.653134 1_655
O120 Si13 1.632350 1_555
O121 Si14 1.646165 1_555
O122 Si10 1.627008 1_455
O123 Si9 1.668588 1_555
O124 Si11 1.625417 1_565
O125 Si12 1.649509 1_565
O126 Si5 1.649625 1_565
O127 Si6 1.644872 1_565
O128 Si7 1.632648 1_555
O129 Si8 1.638483 1_555
O130 Si4 1.654696 1_455
O131 Si3 1.663386 1_555
O132 S0 1.531421 1_555
O133 S1 1.520457 1_555
O134 S2 1.535793 1_555
O135 S3 1.510909 1_555
O136 S4 1.532527 1_555
O137 Si0 1.722998 1_555
O138 S5 1.503222 1_555
O139 S6 1.514145 1_555
O140 Si1 1.731225 1_555
O141 Si2 1.712318 1_555
O142 S7 1.514784 1_555
O143 S8 1.512675 1_555
