# generated using pymatgen
data_Pr2InPd2
_symmetry_space_group_name_H-M   'P 1'
_cell_length_a   7.86700998
_cell_length_b   7.86700998
_cell_length_c   3.91372683
_cell_angle_alpha   90.00000000
_cell_angle_beta   90.00000000
_cell_angle_gamma   90.00000000
_symmetry_Int_Tables_number   1
_chemical_formula_structural   Pr2InPd2
_chemical_formula_sum   'Pr4 In2 Pd4'
_cell_volume   242.21995089
_cell_formula_units_Z   2
loop_
 _symmetry_equiv_pos_site_id
 _symmetry_equiv_pos_as_xyz
  1  'x, y, z'
loop_
 _atom_site_type_symbol
 _atom_site_label
 _atom_site_symmetry_multiplicity
 _atom_site_fract_x
 _atom_site_fract_y
 _atom_site_fract_z
 _atom_site_occupancy
  Pr  Pr0  1  0.32417732  0.82417732  0.50000000  1
  Pr  Pr1  1  0.82417732  0.67582268  0.50000000  1
  Pr  Pr2  1  0.17582268  0.32417732  0.50000000  1
  Pr  Pr3  1  0.67582268  0.17582268  0.50000000  1
  In  In0  1  0.00000000  -0.00000000  -0.00000000  1
  In  In1  1  0.50000000  0.50000000  -0.00000000  1
  Pd  Pd0  1  0.37300276  0.12699724  -0.00000000  1
  Pd  Pd1  1  0.87300276  0.37300276  0.00000000  1
  Pd  Pd2  1  0.12699724  0.62699724  -0.00000000  1
  Pd  Pd3  1  0.62699724  0.87300276  0.00000000  1
loop_
_geom_bond_atom_site_label_1
_geom_bond_atom_site_label_2
_geom_bond_distance
_geom_bond_site_symmetry_2
In0 Pd3 3.099835 1_445
In0 Pd2 3.099835 1_545
In0 Pd0 3.099835 1_555
In0 Pd1 3.099835 1_455
In0 Pr1 3.499516 1_445
In0 Pr3 3.499516 1_455
In0 Pr2 3.499516 1_555
In0 Pr2 3.499516 1_554
In0 Pr3 3.499516 1_454
In0 Pr1 3.499516 1_444
In0 Pr0 3.499516 1_544
In0 Pr0 3.499516 1_545
In1 Pd1 3.099835 1_555
In1 Pd0 3.099835 1_555
In1 Pd3 3.099835 1_555
In1 Pd2 3.099835 1_555
In1 Pr1 3.499516 1_555
In1 Pr0 3.499516 1_554
In1 Pr3 3.499516 1_555
In1 Pr1 3.499516 1_554
In1 Pr0 3.499516 1_555
In1 Pr2 3.499516 1_555
In1 Pr3 3.499516 1_554
In1 Pr2 3.499516 1_554
Pd0 Pd3 2.825849 1_545
Pd0 Pr2 2.939705 1_554
Pd0 Pr2 2.939705 1_555
Pd0 Pr0 3.106791 1_545
Pd0 Pr0 3.106791 1_544
Pd0 Pr3 3.106791 1_554
Pd0 Pr3 3.106791 1_555
Pd1 Pd2 2.825849 1_655
Pd1 Pr3 2.939705 1_554
Pd1 Pr3 2.939705 1_555
Pd1 Pr2 3.106791 1_654
Pd1 Pr1 3.106791 1_555
Pd1 Pr2 3.106791 1_655
Pd1 Pr1 3.106791 1_554
Pd2 Pr0 2.939705 1_554
Pd2 Pr0 2.939705 1_555
Pd2 Pr1 3.106791 1_454
Pd2 Pr2 3.106791 1_554
Pd2 Pr1 3.106791 1_455
Pd2 Pr2 3.106791 1_555
Pd3 Pr1 2.939705 1_555
Pd3 Pr1 2.939705 1_554
Pd3 Pr3 3.106791 1_565
Pd3 Pr3 3.106791 1_564
Pd3 Pr0 3.106791 1_554
Pd3 Pr0 3.106791 1_555
