# generated using pymatgen
data_Y5Si3
_symmetry_space_group_name_H-M   'P 1'
_cell_length_a   8.45266508
_cell_length_b   8.45266533
_cell_length_c   6.40122392
_cell_angle_alpha   90.00000000
_cell_angle_beta   90.00000000
_cell_angle_gamma   120.00000309
_symmetry_Int_Tables_number   1
_chemical_formula_structural   Y5Si3
_chemical_formula_sum   'Y10 Si6'
_cell_volume   396.07823026
_cell_formula_units_Z   2
loop_
 _symmetry_equiv_pos_site_id
 _symmetry_equiv_pos_as_xyz
  1  'x, y, z'
loop_
 _atom_site_type_symbol
 _atom_site_label
 _atom_site_symmetry_multiplicity
 _atom_site_fract_x
 _atom_site_fract_y
 _atom_site_fract_z
 _atom_site_occupancy
  Y  Y0  1  -0.00000000  0.75663944  0.75000000  1
  Y  Y1  1  0.00000000  0.24336056  0.25000000  1
  Y  Y2  1  0.75663944  0.75663944  0.25000000  1
  Y  Y3  1  0.75663944  -0.00000000  0.75000000  1
  Y  Y4  1  0.24336056  0.24336056  0.75000000  1
  Y  Y5  1  0.24336056  0.00000000  0.25000000  1
  Y  Y6  1  0.33333300  0.66666700  0.50000000  1
  Y  Y7  1  0.66666700  0.33333300  0.00000000  1
  Y  Y8  1  0.66666700  0.33333300  0.50000000  1
  Y  Y9  1  0.33333300  0.66666700  0.00000000  1
  Si  Si0  1  0.39386064  0.00000000  0.75000000  1
  Si  Si1  1  0.39386064  0.39386064  0.25000000  1
  Si  Si2  1  -0.00000000  0.60613936  0.25000000  1
  Si  Si3  1  0.00000000  0.39386064  0.75000000  1
  Si  Si4  1  0.60613936  0.60613936  0.75000000  1
  Si  Si5  1  0.60613936  -0.00000000  0.25000000  1
loop_
_geom_bond_atom_site_label_1
_geom_bond_atom_site_label_2
_geom_bond_distance
_geom_bond_site_symmetry_2
Si0 Y0 2.909736 1_545
Si0 Y4 2.909736 1_555
Si0 Y9 3.052838 1_546
Si0 Y6 3.052838 1_545
Si0 Y8 3.052840 1_555
Si0 Y7 3.052840 1_556
Si0 Y3 3.066448 1_555
Si0 Y5 3.444158 1_555
Si0 Y5 3.444158 1_556
Si1 Y1 2.909736 1_555
Si1 Y5 2.909736 1_555
Si1 Y7 3.052845 1_555
Si1 Y8 3.052845 1_555
Si1 Y9 3.052845 1_555
Si1 Y6 3.052845 1_555
Si1 Y2 3.066448 1_555
Si1 Y4 3.444158 1_555
Si1 Y4 3.444158 1_554
Si2 Y5 2.909736 1_565
Si2 Y2 2.909736 1_455
Si2 Y9 3.052838 1_555
Si2 Y6 3.052838 1_555
Si2 Y7 3.052840 1_455
Si2 Y8 3.052840 1_455
Si2 Y1 3.066448 1_555
Si2 Y0 3.444158 1_554
Si2 Y0 3.444158 1_555
Si3 Y3 2.909736 1_455
Si3 Y4 2.909736 1_555
Si3 Y8 3.052838 1_455
Si3 Y7 3.052838 1_456
Si3 Y6 3.052840 1_555
Si3 Y9 3.052840 1_556
Si3 Y0 3.066448 1_555
Si3 Y1 3.444158 1_555
Si3 Y1 3.444158 1_556
Si4 Y0 2.909736 1_655
Si4 Y3 2.909736 1_565
Si4 Y6 3.052845 1_555
Si4 Y9 3.052845 1_556
Si4 Y7 3.052845 1_556
Si4 Y8 3.052845 1_555
Si4 Y4 3.066448 1_555
Si4 Y2 3.444158 1_555
Si4 Y2 3.444158 1_556
Si5 Y1 2.909736 1_655
Si5 Y2 2.909736 1_545
Si5 Y7 3.052838 1_555
Si5 Y8 3.052838 1_555
Si5 Y6 3.052840 1_545
Si5 Y9 3.052840 1_545
Si5 Y5 3.066448 1_555
Si5 Y3 3.444158 1_554
Si5 Y3 3.444158 1_555
