# generated using pymatgen
data_MnSnAu
_symmetry_space_group_name_H-M   'P 1'
_cell_length_a   4.51346541
_cell_length_b   4.51346541
_cell_length_c   4.51346541
_cell_angle_alpha   60.00000000
_cell_angle_beta   60.00000000
_cell_angle_gamma   60.00000000
_symmetry_Int_Tables_number   1
_chemical_formula_structural   MnSnAu
_chemical_formula_sum   'Mn1 Sn1 Au1'
_cell_volume   65.01526820
_cell_formula_units_Z   1
loop_
 _symmetry_equiv_pos_site_id
 _symmetry_equiv_pos_as_xyz
  1  'x, y, z'
loop_
 _atom_site_type_symbol
 _atom_site_label
 _atom_site_symmetry_multiplicity
 _atom_site_fract_x
 _atom_site_fract_y
 _atom_site_fract_z
 _atom_site_occupancy
  Mn  Mn0  1  0.50000000  0.50000000  0.50000000  1
  Sn  Sn0  1  0.00000000  0.00000000  0.00000000  1
  Au  Au0  1  0.25000000  0.25000000  0.25000000  1
loop_
_geom_bond_atom_site_label_1
_geom_bond_atom_site_label_2
_geom_bond_distance
_geom_bond_site_symmetry_2
Mn0 Sn0 3.191502 1_556
Mn0 Sn0 3.191502 1_565
Mn0 Sn0 3.191502 1_656
Mn0 Sn0 3.191502 1_665
Mn0 Sn0 3.191502 1_566
Mn0 Sn0 3.191502 1_655
Au0 Mn0 2.763922 1_545
Au0 Sn0 2.763922 1_555
Au0 Sn0 2.763922 1_655
Au0 Mn0 2.763922 1_455
Au0 Mn0 2.763922 1_555
Au0 Sn0 2.763922 1_556
Au0 Mn0 2.763922 1_554
Au0 Sn0 2.763922 1_565
