# generated using pymatgen
data_Ca2B5H2ClO10
_symmetry_space_group_name_H-M   'P 1'
_cell_length_a   6.32379200
_cell_length_b   6.54845524
_cell_length_c   6.64597949
_cell_angle_alpha   73.86830226
_cell_angle_beta   61.91677229
_cell_angle_gamma   61.51572718
_symmetry_Int_Tables_number   1
_chemical_formula_structural   Ca2B5H2ClO10
_chemical_formula_sum   'Ca2 B5 H2 Cl1 O10'
_cell_volume   212.91580382
_cell_formula_units_Z   1
loop_
 _symmetry_equiv_pos_site_id
 _symmetry_equiv_pos_as_xyz
  1  'x, y, z'
loop_
 _atom_site_type_symbol
 _atom_site_label
 _atom_site_symmetry_multiplicity
 _atom_site_fract_x
 _atom_site_fract_y
 _atom_site_fract_z
 _atom_site_occupancy
  Ca  Ca0  1  0.89840600  0.45188900  0.44263300  1
  Ca  Ca1  1  0.99613500  0.00526600  0.99940600  1
  B  B0  1  0.52755700  0.47540800  0.13073900  1
  B  B1  1  0.39837000  0.32902600  0.91099600  1
  B  B2  1  0.93145900  0.54985000  0.97248500  1
  B  B3  1  0.51855100  0.88068800  0.99540200  1
  B  B4  1  0.28775100  0.44921500  0.57969900  1
  H  H0  1  0.57953200  0.97052100  0.46299100  1
  H  H1  1  0.82311300  0.92898400  0.50948300  1
  Cl  Cl0  1  0.18424500  0.98847600  0.53090400  1
  O  O0  1  0.77260400  0.88690800  0.41286600  1
  O  O1  1  0.32619100  0.45005000  0.35930900  1
  O  O2  1  0.41330000  0.72293800  0.04012700  1
  O  O3  1  0.77561900  0.42087300  0.14418900  1
  O  O4  1  0.59254800  0.30910500  0.97909100  1
  O  O5  1  0.36592100  0.10573400  0.94876600  1
  O  O6  1  0.48093000  0.39524700  0.65344400  1
  O  O7  1  0.13999700  0.50579100  0.03433400  1
  O  O8  1  0.76614200  0.80740800  0.98527200  1
  O  O9  1  0.03043000  0.48742300  0.73496600  1
loop_
_geom_bond_atom_site_label_1
_geom_bond_atom_site_label_2
_geom_bond_distance
_geom_bond_site_symmetry_2
Ca0 O7 2.429186 1_655
Ca0 O1 2.487414 1_655
Ca0 O6 2.496612 1_555
Ca0 O3 2.530330 1_555
Ca0 O0 2.541751 1_555
Ca0 O9 2.547454 1_655
Ca0 Cl0 2.756362 1_645
Ca1 O8 2.407622 1_545
Ca1 O4 2.412942 1_555
Ca1 O2 2.488524 1_646
Ca1 O0 2.520719 1_546
Ca1 O5 2.572529 1_655
Ca1 O3 2.617133 1_556
Ca1 Cl0 2.774930 1_645
Ca1 O7 2.918609 1_646
B0 O4 1.470940 1_554
B0 O3 1.475213 1_555
B0 O1 1.482221 1_555
B0 O2 1.504083 1_555
B1 O4 1.437803 1_555
B1 O7 1.464148 1_556
B1 O5 1.508952 1_555
B1 O6 1.533816 1_555
B2 O7 1.439739 1_656
B2 O3 1.478613 1_556
B2 O9 1.494996 1_655
B2 O8 1.502984 1_555
B3 O5 1.367685 1_565
B3 O8 1.374162 1_555
B3 O2 1.377465 1_556
B4 O1 1.366046 1_555
B4 O6 1.383157 1_555
B4 O9 1.396257 1_555
H0 O0 0.991084 1_555
H1 O0 0.982655 1_555
