# generated using pymatgen
data_ErSeI
_symmetry_space_group_name_H-M   'P 1'
_cell_length_a   4.18078402
_cell_length_b   5.57569841
_cell_length_c   9.57799181
_cell_angle_alpha   90.00000000
_cell_angle_beta   90.00000000
_cell_angle_gamma   90.00000000
_symmetry_Int_Tables_number   1
_chemical_formula_structural   ErSeI
_chemical_formula_sum   'Er2 Se2 I2'
_cell_volume   223.27056349
_cell_formula_units_Z   2
loop_
 _symmetry_equiv_pos_site_id
 _symmetry_equiv_pos_as_xyz
  1  'x, y, z'
loop_
 _atom_site_type_symbol
 _atom_site_label
 _atom_site_symmetry_multiplicity
 _atom_site_fract_x
 _atom_site_fract_y
 _atom_site_fract_z
 _atom_site_occupancy
  Er  Er0  1  0.75000000  0.25000000  0.88313888  1
  Er  Er1  1  0.25000000  0.75000000  0.11686112  1
  Se  Se0  1  0.75000000  0.75000000  0.91702427  1
  Se  Se1  1  0.25000000  0.25000000  0.08297573  1
  I  I0  1  0.25000000  0.25000000  0.65712782  1
  I  I1  1  0.75000000  0.75000000  0.34287218  1
loop_
_geom_bond_atom_site_label_1
_geom_bond_atom_site_label_2
_geom_bond_distance
_geom_bond_site_symmetry_2
Er0 Se0 2.806677 1_545
Er0 Se0 2.806677 1_555
Er0 Se1 2.834303 1_656
Er0 Se1 2.834303 1_556
Er0 I0 3.009286 1_655
Er0 I0 3.009286 1_555
Er1 Se1 2.806677 1_565
Er1 Se1 2.806677 1_555
Er1 Se0 2.834303 1_554
Er1 Se0 2.834303 1_454
Er1 I1 3.009286 1_555
Er1 I1 3.009286 1_455
