# generated using pymatgen
data_AgH2ClO5
_symmetry_space_group_name_H-M   'P 1'
_cell_length_a   8.05477700
_cell_length_b   8.13747600
_cell_length_c   13.75687900
_cell_angle_alpha   90.00000000
_cell_angle_beta   90.00000000
_cell_angle_gamma   90.00000000
_symmetry_Int_Tables_number   1
_chemical_formula_structural   AgH2ClO5
_chemical_formula_sum   'Ag8 H16 Cl8 O40'
_cell_volume   901.70226256
_cell_formula_units_Z   8
loop_
 _symmetry_equiv_pos_site_id
 _symmetry_equiv_pos_as_xyz
  1  'x, y, z'
loop_
 _atom_site_type_symbol
 _atom_site_label
 _atom_site_symmetry_multiplicity
 _atom_site_fract_x
 _atom_site_fract_y
 _atom_site_fract_z
 _atom_site_occupancy
  Ag  Ag0  1  0.88594500  0.23700000  0.16079300  1
  Ag  Ag1  1  0.38594500  0.76300000  0.33920700  1
  Ag  Ag2  1  0.61405500  0.73700000  0.83920700  1
  Ag  Ag3  1  0.11405500  0.26300000  0.66079300  1
  Ag  Ag4  1  0.11405500  0.76300000  0.83920700  1
  Ag  Ag5  1  0.61405500  0.23700000  0.66079300  1
  Ag  Ag6  1  0.38594500  0.26300000  0.16079300  1
  Ag  Ag7  1  0.88594500  0.73700000  0.33920700  1
  H  H0  1  0.65448900  0.40497500  0.03667400  1
  H  H1  1  0.15448900  0.59502500  0.46332600  1
  H  H2  1  0.84551100  0.90497500  0.96332600  1
  H  H3  1  0.34551100  0.09502500  0.53667400  1
  H  H4  1  0.34551100  0.59502500  0.96332600  1
  H  H5  1  0.84551100  0.40497500  0.53667400  1
  H  H6  1  0.15448900  0.09502500  0.03667400  1
  H  H7  1  0.65448900  0.90497500  0.46332600  1
  H  H8  1  0.65051400  0.50825600  0.13311000  1
  H  H9  1  0.15051400  0.49174400  0.36689000  1
  H  H10  1  0.84948600  0.00825600  0.86689000  1
  H  H11  1  0.34948600  0.99174400  0.63311000  1
  H  H12  1  0.34948600  0.49174400  0.86689000  1
  H  H13  1  0.84948600  0.50825600  0.63311000  1
  H  H14  1  0.15051400  0.99174400  0.13311000  1
  H  H15  1  0.65051400  0.00825600  0.36689000  1
  Cl  Cl0  1  0.61825400  0.36473900  0.37615200  1
  Cl  Cl1  1  0.11825400  0.63526100  0.12384800  1
  Cl  Cl2  1  0.88174600  0.86473900  0.62384800  1
  Cl  Cl3  1  0.38174600  0.13526100  0.87615200  1
  Cl  Cl4  1  0.38174600  0.63526100  0.62384800  1
  Cl  Cl5  1  0.88174600  0.36473900  0.87615200  1
  Cl  Cl6  1  0.11825400  0.13526100  0.37615200  1
  Cl  Cl7  1  0.61825400  0.86473900  0.12384800  1
  O  O0  1  0.64318900  0.39486700  0.10774400  1
  O  O1  1  0.14318900  0.60513300  0.39225600  1
  O  O2  1  0.85681100  0.89486700  0.89225600  1
  O  O3  1  0.35681100  0.10513300  0.60774400  1
  O  O4  1  0.35681100  0.60513300  0.89225600  1
  O  O5  1  0.85681100  0.39486700  0.60774400  1
  O  O6  1  0.14318900  0.10513300  0.10774400  1
  O  O7  1  0.64318900  0.89486700  0.39225600  1
  O  O8  1  0.50940700  0.46592600  0.31529300  1
  O  O9  1  0.00940700  0.53407400  0.18470700  1
  O  O10  1  0.99059300  0.96592600  0.68470700  1
  O  O11  1  0.49059300  0.03407400  0.81529300  1
  O  O12  1  0.49059300  0.53407400  0.68470700  1
  O  O13  1  0.99059300  0.46592600  0.81529300  1
  O  O14  1  0.00940700  0.03407400  0.31529300  1
  O  O15  1  0.50940700  0.96592600  0.18470700  1
  O  O16  1  0.67390100  0.22265900  0.31773600  1
  O  O17  1  0.17390100  0.77734100  0.18226400  1
  O  O18  1  0.82609900  0.72265900  0.68226400  1
  O  O19  1  0.32609900  0.27734100  0.81773600  1
  O  O20  1  0.32609900  0.77734100  0.68226400  1
  O  O21  1  0.82609900  0.22265900  0.81773600  1
  O  O22  1  0.17390100  0.27734100  0.31773600  1
  O  O23  1  0.67390100  0.72265900  0.18226400  1
  O  O24  1  0.76424000  0.46216600  0.40528900  1
  O  O25  1  0.26424000  0.53783400  0.09471100  1
  O  O26  1  0.73576000  0.96216600  0.59471100  1
  O  O27  1  0.23576000  0.03783400  0.90528900  1
  O  O28  1  0.23576000  0.53783400  0.59471100  1
  O  O29  1  0.73576000  0.46216600  0.90528900  1
  O  O30  1  0.26424000  0.03783400  0.40528900  1
  O  O31  1  0.76424000  0.96216600  0.09471100  1
  O  O32  1  0.53184600  0.30698600  0.46206600  1
  O  O33  1  0.03184600  0.69301400  0.03793400  1
  O  O34  1  0.96815400  0.80698600  0.53793400  1
  O  O35  1  0.46815400  0.19301400  0.96206600  1
  O  O36  1  0.46815400  0.69301400  0.53793400  1
  O  O37  1  0.96815400  0.30698600  0.96206600  1
  O  O38  1  0.03184600  0.19301400  0.46206600  1
  O  O39  1  0.53184600  0.80698600  0.03793400  1
loop_
_geom_bond_atom_site_label_1
_geom_bond_atom_site_label_2
_geom_bond_distance
_geom_bond_site_symmetry_2
Ag0 O6 2.444877 1_655
Ag0 O0 2.450768 1_555
Ag0 O31 2.605602 1_545
Ag0 O9 2.634608 1_655
Ag0 O16 2.755404 1_555
Ag1 O7 2.444877 1_555
Ag1 O1 2.450768 1_555
Ag1 O30 2.605602 1_565
Ag1 O8 2.634608 1_555
Ag1 O17 2.755404 1_555
Ag2 O4 2.444877 1_555
Ag2 O2 2.450768 1_555
Ag2 O29 2.605602 1_555
Ag2 O11 2.634608 1_565
Ag2 O18 2.755404 1_555
Ag3 O5 2.444877 1_455
Ag3 O3 2.450768 1_555
Ag3 O28 2.605602 1_555
Ag3 O10 2.634608 1_445
Ag3 O19 2.755404 1_555
Ag4 O2 2.444877 1_455
Ag4 O4 2.450768 1_555
Ag4 O27 2.605602 1_565
Ag4 O13 2.634608 1_455
Ag4 O20 2.755404 1_555
Ag5 O3 2.444877 1_555
Ag5 O5 2.450768 1_555
Ag5 O26 2.605602 1_545
Ag5 O12 2.634608 1_555
Ag5 O21 2.755404 1_555
Ag6 O0 2.444877 1_555
Ag6 O6 2.450768 1_555
Ag6 O25 2.605602 1_555
Ag6 O15 2.634608 1_545
Ag6 O22 2.755404 1_555
Ag7 O1 2.444877 1_655
Ag7 O7 2.450768 1_555
Ag7 O24 2.605602 1_555
Ag7 O14 2.634608 1_665
Ag7 O23 2.755404 1_555
H0 O0 0.985368 1_555
H1 O1 0.985368 1_555
H2 O2 0.985368 1_555
H3 O3 0.985368 1_555
H4 O4 0.985368 1_555
H5 O5 0.985368 1_555
H6 O6 0.985368 1_555
H7 O7 0.985368 1_555
H8 O0 0.988245 1_555
H9 O1 0.988245 1_555
H10 O2 0.988245 1_545
H11 O3 0.988245 1_565
H12 O4 0.988245 1_555
H13 O5 0.988245 1_555
H14 O6 0.988245 1_565
H15 O7 0.988245 1_545
Cl0 O32 1.449892 1_555
Cl0 O8 1.465477 1_555
Cl0 O24 1.473744 1_555
Cl0 O16 1.477649 1_555
Cl1 O33 1.449892 1_555
Cl1 O9 1.465477 1_555
Cl1 O25 1.473744 1_555
Cl1 O17 1.477649 1_555
Cl2 O34 1.449892 1_555
Cl2 O10 1.465477 1_555
Cl2 O26 1.473744 1_555
Cl2 O18 1.477649 1_555
Cl3 O35 1.449892 1_555
Cl3 O11 1.465477 1_555
Cl3 O27 1.473744 1_555
Cl3 O19 1.477649 1_555
Cl4 O36 1.449892 1_555
Cl4 O12 1.465477 1_555
Cl4 O28 1.473744 1_555
Cl4 O20 1.477649 1_555
Cl5 O37 1.449892 1_555
Cl5 O13 1.465477 1_555
Cl5 O29 1.473744 1_555
Cl5 O21 1.477649 1_555
Cl6 O38 1.449892 1_555
Cl6 O14 1.465477 1_555
Cl6 O30 1.473744 1_555
Cl6 O22 1.477649 1_555
Cl7 O39 1.449892 1_555
Cl7 O15 1.465477 1_555
Cl7 O31 1.473744 1_555
Cl7 O23 1.477649 1_555
