# generated using pymatgen
data_Na4HfMg3P2(SO6)4
_symmetry_space_group_name_H-M   'P 1'
_cell_length_a   8.83990974
_cell_length_b   8.83303291
_cell_length_c   22.60555534
_cell_angle_alpha   90.06895117
_cell_angle_beta   90.20835631
_cell_angle_gamma   120.00793627
_symmetry_Int_Tables_number   1
_chemical_formula_structural   Na4HfMg3P2(SO6)4
_chemical_formula_sum   'Na12 Hf3 Mg9 P6 S12 O72'
_cell_volume   1528.49224109
_cell_formula_units_Z   3
loop_
 _symmetry_equiv_pos_site_id
 _symmetry_equiv_pos_as_xyz
  1  'x, y, z'
loop_
 _atom_site_type_symbol
 _atom_site_label
 _atom_site_symmetry_multiplicity
 _atom_site_fract_x
 _atom_site_fract_y
 _atom_site_fract_z
 _atom_site_occupancy
  Na  Na0  1  0.63344530  0.99666396  0.25458812  1
  Na  Na1  1  0.36363090  0.36334805  0.25011569  1
  Na  Na2  1  0.30944412  0.34030851  0.59199772  1
  Na  Na3  1  0.66687219  0.95741085  0.58267696  1
  Na  Na4  1  0.97879759  0.67999006  0.91242144  1
  Na  Na5  1  0.32254858  0.29759317  0.90884655  1
  Na  Na6  1  0.98355664  0.97857639  0.49636008  1
  Na  Na7  1  0.98925812  0.00057855  0.99666144  1
  Na  Na8  1  0.65741716  0.32154141  0.82273793  1
  Na  Na9  1  0.67878527  0.33625452  0.33465700  1
  Na  Na10  1  0.32110019  0.66602878  0.16077259  1
  Na  Na11  1  0.32906715  0.65977988  0.66826936  1
  Hf  Hf0  1  0.66664242  0.32791381  0.98053169  1
  Hf  Hf1  1  0.66948056  0.33819969  0.47963347  1
  Hf  Hf2  1  0.33553778  0.66164699  0.81389677  1
  Mg  Mg0  1  0.99073143  0.99537339  0.35421598  1
  Mg  Mg1  1  0.99962788  0.00663668  0.84902039  1
  Mg  Mg2  1  0.99876349  0.99204731  0.65463043  1
  Mg  Mg3  1  0.00024032  0.99693547  0.14701097  1
  Mg  Mg4  1  0.65940628  0.34337244  0.68805123  1
  Mg  Mg5  1  0.67537161  0.34070862  0.18031377  1
  Mg  Mg6  1  0.33574626  0.66855283  0.01537587  1
  Mg  Mg7  1  0.34218165  0.67340949  0.51368639  1
  Mg  Mg8  1  0.33142553  0.67547213  0.32193067  1
  P  P0  1  0.29386621  0.28882909  0.74933499  1
  P  P1  1  0.66792356  0.62982001  0.58467709  1
  P  P2  1  0.63031614  0.67430011  0.91975046  1
  P  P3  1  0.04419765  0.37291245  0.91881033  1
  P  P4  1  0.32897268  0.95407541  0.91809528  1
  P  P5  1  0.63182522  0.96130572  0.41631272  1
  S  S0  1  0.28983373  0.99833825  0.24969369  1
  S  S1  1  0.70816304  0.70546379  0.24958294  1
  S  S2  1  0.00136362  0.29329021  0.24974683  1
  S  S3  1  0.99845664  0.70533815  0.75088636  1
  S  S4  1  0.70851016  0.00450208  0.74836607  1
  S  S5  1  0.96174562  0.33697600  0.58472126  1
  S  S6  1  0.37315939  0.03863984  0.58403380  1
  S  S7  1  0.96452408  0.63025440  0.08468601  1
  S  S8  1  0.66588842  0.03508054  0.08692897  1
  S  S9  1  0.36948479  0.33388397  0.08584675  1
  S  S10  1  0.32811504  0.37049232  0.41572178  1
  S  S11  1  0.04529043  0.67083386  0.41662631  1
  O  O0  1  0.21023509  0.02810613  0.30231906  1
  O  O1  1  0.81282574  0.78546990  0.30277875  1
  O  O2  1  0.97137877  0.18289737  0.30234591  1
  O  O3  1  0.20784279  0.18778742  0.80598078  1
  O  O4  1  0.97661341  0.78335262  0.80563560  1
  O  O5  1  0.81158754  0.02130228  0.80097445  1
  O  O6  1  0.78042122  0.97406799  0.69342940  1
  O  O7  1  0.18794390  0.21232767  0.69179566  1
  O  O8  1  0.02406414  0.81146770  0.69835418  1
  O  O9  1  0.78804405  0.81593018  0.19700655  1
  O  O10  1  0.03100440  0.21306284  0.19659100  1
  O  O11  1  0.18626126  0.97700484  0.19611213  1
  O  O12  1  0.87666391  0.35776342  0.63688492  1
  O  O13  1  0.48714474  0.11962577  0.63571332  1
  O  O14  1  0.63504046  0.50872282  0.63658050  1
  O  O15  1  0.87638273  0.52074483  0.13612424  1
  O  O16  1  0.64521220  0.11917304  0.14064766  1
  O  O17  1  0.47585521  0.35393829  0.13930598  1
  O  O18  1  0.45980298  0.31270367  0.03199544  1
  O  O19  1  0.85585441  0.54319554  0.02959308  1
  O  O20  1  0.68733174  0.14955931  0.03402079  1
  O  O21  1  0.46004402  0.15243667  0.53027860  1
  O  O22  1  0.68931465  0.53680740  0.52816964  1
  O  O23  1  0.84760531  0.30822400  0.53072910  1
  O  O24  1  0.54621351  0.69661916  0.97414030  1
  O  O25  1  0.15696805  0.45627116  0.97300244  1
  O  O26  1  0.29915603  0.84302837  0.97231605  1
  O  O27  1  0.54538632  0.85740083  0.47246658  1
  O  O28  1  0.30748935  0.45192197  0.46951002  1
  O  O29  1  0.14542004  0.68755855  0.47021543  1
  O  O30  1  0.11765390  0.63733335  0.36315734  1
  O  O31  1  0.52447675  0.88662975  0.35891327  1
  O  O32  1  0.35621312  0.47594548  0.36175867  1
  O  O33  1  0.12463463  0.49447329  0.86352473  1
  O  O34  1  0.36248877  0.87270159  0.86238319  1
  O  O35  1  0.50857326  0.63168941  0.86422155  1
  O  O36  1  0.02418969  0.82514833  0.41048266  1
  O  O37  1  0.81522122  0.98478211  0.41141698  1
  O  O38  1  0.17767194  0.19329129  0.40962560  1
  O  O39  1  0.02117138  0.19209652  0.90978835  1
  O  O40  1  0.17125597  0.98174957  0.91037192  1
  O  O41  1  0.81585150  0.82281424  0.90957340  1
  O  O42  1  0.97716045  0.17611778  0.58725461  1
  O  O43  1  0.20234611  0.02996914  0.58820221  1
  O  O44  1  0.82834752  0.81538403  0.58848445  1
  O  O45  1  0.97560733  0.80217388  0.08882004  1
  O  O46  1  0.82636934  0.02351014  0.08976002  1
  O  O47  1  0.19726230  0.17351419  0.08903660  1
  O  O48  1  0.68894113  0.16033506  0.74269067  1
  O  O49  1  0.47798474  0.31264442  0.74598462  1
  O  O50  1  0.84681309  0.52734502  0.74476910  1
  O  O51  1  0.68127884  0.52467207  0.24296436  1
  O  O52  1  0.84084725  0.30867446  0.24279715  1
  O  O53  1  0.47096804  0.15912925  0.24422445  1
  O  O54  1  0.64269664  0.49959438  0.92570898  1
  O  O55  1  0.86128848  0.36306379  0.92485207  1
  O  O56  1  0.49379372  0.14376733  0.92468706  1
  O  O57  1  0.64886899  0.14900736  0.42399239  1
  O  O58  1  0.49210373  0.35592500  0.42179895  1
  O  O59  1  0.86368296  0.50946432  0.42215442  1
  O  O60  1  0.35513117  0.49182255  0.07970861  1
  O  O61  1  0.13719650  0.64536398  0.07890494  1
  O  O62  1  0.50812037  0.86350409  0.07959913  1
  O  O63  1  0.35439031  0.86423004  0.57551907  1
  O  O64  1  0.49954080  0.64496902  0.57712396  1
  O  O65  1  0.13697578  0.49037550  0.57604556  1
  O  O66  1  0.31565927  0.84404799  0.25496418  1
  O  O67  1  0.52752130  0.68443961  0.25492915  1
  O  O68  1  0.16067269  0.46919247  0.25697962  1
  O  O69  1  0.31225970  0.47814669  0.75519301  1
  O  O70  1  0.16208811  0.69104025  0.75570865  1
  O  O71  1  0.52825841  0.84347029  0.75468265  1
loop_
_geom_bond_atom_site_label_1
_geom_bond_atom_site_label_2
_geom_bond_distance
_geom_bond_site_symmetry_2
Na0 O67 2.428968 1_555
Na0 O66 2.433365 1_555
Na0 O52 2.445241 1_565
Na0 O53 2.497441 1_565
Na0 O31 2.553398 1_555
Na0 O16 2.777058 1_565
Na0 O2 2.802230 1_565
Na0 O9 2.881113 1_555
Na1 O68 2.407600 1_555
Na1 O53 2.425770 1_555
Na1 O51 2.437833 1_555
Na1 O67 2.458247 1_555
Na1 O17 2.713987 1_555
Na1 O32 2.724555 1_555
Na1 O10 2.817463 1_555
Na1 O0 2.829091 1_555
Na2 O64 2.379460 1_555
Na2 O43 2.412685 1_555
Na2 O65 2.496017 1_555
Na2 O7 2.516009 1_555
Na2 O42 2.545427 1_455
Na2 O14 2.684311 1_555
Na2 O28 2.943187 1_555
Na2 O21 2.947962 1_555
Na3 O44 2.327839 1_555
Na3 O64 2.394757 1_555
Na3 O42 2.442055 1_565
Na3 O63 2.460955 1_555
Na3 O6 2.670284 1_555
Na3 O27 2.677111 1_555
Na3 O13 2.881216 1_565
Na3 O23 2.933294 1_565
Na4 O40 2.338004 1_655
Na4 O41 2.342584 1_555
Na4 O55 2.467817 1_555
Na4 O4 2.585289 1_555
Na4 O54 2.594023 1_555
Na4 O33 2.772742 1_655
Na4 O26 2.795554 1_655
Na4 O19 2.893451 1_556
Na5 O39 2.341741 1_555
Na5 O40 2.416950 1_545
Na5 O54 2.505586 1_555
Na5 O56 2.514075 1_555
Na5 O3 2.523848 1_555
Na5 O35 2.756063 1_555
Na5 O25 2.876261 1_555
Na5 O18 3.008708 1_556
Na6 O37 2.442444 1_555
Na6 O36 2.493993 1_655
Na6 O44 2.519329 1_555
Na6 O38 2.676565 1_665
Na6 O43 2.710616 1_665
Na6 O42 2.713045 1_565
Na7 O41 2.500811 1_545
Na7 O39 2.516470 1_655
Na7 O40 2.590493 1_645
Na7 O46 2.618447 1_556
Na7 O45 2.687951 1_546
Na7 O47 2.688841 1_656
Na8 O49 2.321094 1_555
Na8 O48 2.402909 1_555
Na8 O50 2.489806 1_555
Na8 O56 2.762299 1_555
Na8 O55 2.831515 1_555
Na8 O54 2.847251 1_555
Na9 O59 2.528325 1_555
Na9 O57 2.541303 1_555
Na9 O52 2.606390 1_555
Na9 O58 2.635071 1_555
Na9 O51 2.653048 1_555
Na9 O53 2.663055 1_555
Na10 O61 2.404504 1_555
Na10 O60 2.505314 1_555
Na10 O62 2.507638 1_555
Na10 O66 2.660257 1_555
Na10 O68 2.707246 1_555
Na10 O67 2.749652 1_555
Na11 O69 2.495681 1_555
Na11 O70 2.567030 1_555
Na11 O71 2.580440 1_555
Na11 O64 2.598543 1_555
Na11 O65 2.625644 1_555
Na11 O63 2.704744 1_555
Hf0 O56 2.017215 1_555
Hf0 O55 2.030672 1_555
Hf0 O54 2.050369 1_555
Hf0 O20 2.066057 1_556
Hf0 O19 2.108019 1_556
Hf0 O18 2.117736 1_556
Hf1 O22 1.999617 1_555
Hf1 O57 2.024026 1_555
Hf1 O23 2.070785 1_555
Hf1 O59 2.085011 1_555
Hf1 O21 2.100504 1_555
Hf1 O58 2.103214 1_555
Hf2 O69 2.022320 1_555
Hf2 O35 2.024070 1_555
Hf2 O33 2.044618 1_555
Hf2 O34 2.069415 1_555
Hf2 O70 2.129061 1_555
Hf2 O71 2.135067 1_555
Mg0 O37 1.989370 1_555
Mg0 O1 2.080360 1_555
Mg0 O36 2.100672 1_655
Mg0 O2 2.105820 1_565
Mg0 O38 2.108565 1_665
Mg0 O0 2.163616 1_665
Mg1 O3 1.991398 1_655
Mg1 O5 2.040124 1_555
Mg1 O39 2.070638 1_655
Mg1 O4 2.117936 1_545
Mg1 O41 2.128949 1_545
Mg1 O40 2.143042 1_645
Mg2 O8 1.982475 1_655
Mg2 O7 2.004893 1_665
Mg2 O6 2.055702 1_555
Mg2 O44 2.137047 1_555
Mg2 O43 2.241382 1_665
Mg2 O42 2.305249 1_565
Mg3 O11 2.060058 1_555
Mg3 O45 2.086892 1_455
Mg3 O9 2.090965 1_455
Mg3 O46 2.107023 1_465
Mg3 O10 2.109019 1_565
Mg3 O47 2.118489 1_565
Mg4 O14 1.962220 1_555
Mg4 O49 1.985324 1_555
Mg4 O50 2.077475 1_555
Mg4 O13 2.143743 1_555
Mg4 O48 2.152304 1_555
Mg4 O12 2.194258 1_555
Mg5 O15 1.968382 1_555
Mg5 O16 2.043649 1_555
Mg5 O17 2.044059 1_555
Mg5 O51 2.134953 1_555
Mg5 O52 2.148218 1_555
Mg5 O53 2.247319 1_555
Mg6 O26 1.981712 1_554
Mg6 O24 1.985873 1_554
Mg6 O25 1.987887 1_554
Mg6 O62 2.179047 1_555
Mg6 O61 2.201002 1_555
Mg6 O60 2.202823 1_555
Mg7 O27 1.957552 1_555
Mg7 O29 2.052302 1_555
Mg7 O28 2.076483 1_555
Mg7 O64 2.095345 1_555
Mg7 O63 2.148874 1_555
Mg7 O65 2.232089 1_555
Mg8 O31 1.972861 1_555
Mg8 O30 1.982390 1_555
Mg8 O32 2.086485 1_555
Mg8 O66 2.177099 1_555
Mg8 O68 2.231727 1_555
Mg8 O67 2.277557 1_555
O0 S0 1.473044 1_545
O1 S1 1.461968 1_555
O2 S2 1.476969 1_655
O3 P0 1.531506 1_555
O4 S3 1.475355 1_555
O5 S4 1.457064 1_555
O6 S4 1.481379 1_565
O7 P0 1.543164 1_555
O8 S3 1.460351 1_455
O9 S1 1.477503 1_555
O10 S2 1.483473 1_555
O11 S0 1.469591 1_555
O12 S5 1.460801 1_555
O13 S6 1.469787 1_555
O14 P1 1.516509 1_555
O15 S7 1.466382 1_555
O16 S8 1.481557 1_555
O17 S9 1.483435 1_555
O18 S9 1.519964 1_555
O19 S7 1.521610 1_555
O20 S8 1.517149 1_555
O21 S6 1.521322 1_555
O22 P1 1.580218 1_555
O23 S5 1.518625 1_555
O24 P2 1.501988 1_555
O25 P3 1.513741 1_555
O26 P4 1.510154 1_555
O27 P5 1.531651 1_555
O28 S10 1.469599 1_555
O29 S11 1.460749 1_555
O30 S11 1.466904 1_555
O31 P5 1.543411 1_555
O32 S10 1.480178 1_555
O33 P3 1.570496 1_555
O34 P4 1.550504 1_555
O35 P2 1.568255 1_555
O36 S11 1.471939 1_555
O37 P5 1.532529 1_555
O38 S10 1.467518 1_555
O39 P3 1.519098 1_555
O40 P4 1.540538 1_555
O41 P2 1.521580 1_555
O42 S5 1.494827 1_555
O43 S6 1.476531 1_555
O44 P1 1.542368 1_555
O45 S7 1.474843 1_555
O46 S8 1.473584 1_555
O47 S9 1.474293 1_555
O48 S4 1.476317 1_555
O49 P0 1.535419 1_555
O50 S3 1.475810 1_555
O51 S1 1.499545 1_555
O52 S2 1.499288 1_655
O53 S0 1.524302 1_545
O54 P2 1.606503 1_555
O55 P3 1.581622 1_655
O56 P4 1.583822 1_545
O57 P5 1.597178 1_545
O58 S10 1.523834 1_555
O59 S11 1.528941 1_655
O60 S9 1.469349 1_555
O61 S7 1.470557 1_455
O62 S8 1.467287 1_565
O63 S6 1.476926 1_565
O64 P1 1.568467 1_555
O65 S5 1.475585 1_455
O66 S0 1.495017 1_555
O67 S1 1.517855 1_555
O68 S2 1.494388 1_555
O69 P0 1.602414 1_555
O70 S3 1.517159 1_455
O71 S4 1.522398 1_565
