# generated using pymatgen
data_Na7Ti4Si5PO24
_symmetry_space_group_name_H-M   'P 1'
_cell_length_a   8.93719924
_cell_length_b   8.93814940
_cell_length_c   22.15566511
_cell_angle_alpha   89.97627584
_cell_angle_beta   89.91007129
_cell_angle_gamma   120.00969174
_symmetry_Int_Tables_number   1
_chemical_formula_structural   Na7Ti4Si5PO24
_chemical_formula_sum   'Na21 Ti12 Si15 P3 O72'
_cell_volume   1532.57275316
_cell_formula_units_Z   3
loop_
 _symmetry_equiv_pos_site_id
 _symmetry_equiv_pos_as_xyz
  1  'x, y, z'
loop_
 _atom_site_type_symbol
 _atom_site_label
 _atom_site_symmetry_multiplicity
 _atom_site_fract_x
 _atom_site_fract_y
 _atom_site_fract_z
 _atom_site_occupancy
  Na  Na0  1  0.63354669  0.00072032  0.24988288  1
  Na  Na1  1  0.36611027  0.36677787  0.24995660  1
  Na  Na2  1  0.00010689  0.63211828  0.25008289  1
  Na  Na3  1  0.63238654  0.63195006  0.75015213  1
  Na  Na4  1  0.99934130  0.36700601  0.75001322  1
  Na  Na5  1  0.36828854  0.00137136  0.75004543  1
  Na  Na6  1  0.29908986  0.33277380  0.58299306  1
  Na  Na7  1  0.03346385  0.70129785  0.58330932  1
  Na  Na8  1  0.66780374  0.96578007  0.58353367  1
  Na  Na9  1  0.29794499  0.96720294  0.08259606  1
  Na  Na10  1  0.03493721  0.33381876  0.08414569  1
  Na  Na11  1  0.96718626  0.66876458  0.91684364  1
  Na  Na12  1  0.33292982  0.29800834  0.91719597  1
  Na  Na13  1  0.33170418  0.03408621  0.41671448  1
  Na  Na14  1  0.70119013  0.66607114  0.41735647  1
  Na  Na15  1  0.99923996  0.00457237  0.49902638  1
  Na  Na16  1  0.98966624  0.99517712  0.99999195  1
  Na  Na17  1  0.66739780  0.32673621  0.83410969  1
  Na  Na18  1  0.67300230  0.33175513  0.33449460  1
  Na  Na19  1  0.33924079  0.66597221  0.16567302  1
  Na  Na20  1  0.33396755  0.66609535  0.66671118  1
  Ti  Ti0  1  0.99439874  0.00004993  0.35165319  1
  Ti  Ti1  1  0.00055274  0.00518710  0.85189545  1
  Ti  Ti2  1  0.99952253  0.99923071  0.64834212  1
  Ti  Ti3  1  0.00008194  0.99512040  0.14823336  1
  Ti  Ti4  1  0.66643232  0.33349903  0.68504947  1
  Ti  Ti5  1  0.66761881  0.34059944  0.18561562  1
  Ti  Ti6  1  0.66652599  0.32858313  0.98149282  1
  Ti  Ti7  1  0.67633536  0.33233146  0.48155789  1
  Ti  Ti8  1  0.32835763  0.65989504  0.01849798  1
  Ti  Ti9  1  0.33539383  0.67247385  0.51873978  1
  Ti  Ti10  1  0.32963940  0.67077335  0.31450687  1
  Ti  Ti11  1  0.32908879  0.67038863  0.81468803  1
  Si  Si0  1  0.29031280  0.00125117  0.25065594  1
  Si  Si1  1  0.70966234  0.71080635  0.25007100  1
  Si  Si2  1  0.00000227  0.28943620  0.24922497  1
  Si  Si3  1  0.29071662  0.29107668  0.74995603  1
  Si  Si4  1  0.99889435  0.71024672  0.75066475  1
  Si  Si5  1  0.70970492  0.99968224  0.75018391  1
  Si  Si6  1  0.95863978  0.33346308  0.58392455  1
  Si  Si7  1  0.37739053  0.04512533  0.58264057  1
  Si  Si8  1  0.66635288  0.62262135  0.58273407  1
  Si  Si9  1  0.95347470  0.62528581  0.08251192  1
  Si  Si10  1  0.37902455  0.33798769  0.08287897  1
  Si  Si11  1  0.03826281  0.37233357  0.91642928  1
  Si  Si12  1  0.33718688  0.95891030  0.91743982  1
  Si  Si13  1  0.62686260  0.96102489  0.41645455  1
  Si  Si14  1  0.04030724  0.66335591  0.41682450  1
  P  P0  1  0.66609438  0.04265497  0.08375739  1
  P  P1  1  0.62197243  0.66947804  0.91668633  1
  P  P2  1  0.33063023  0.37739569  0.41665474  1
  O  O0  1  0.20103246  0.03620974  0.30940855  1
  O  O1  1  0.83515580  0.79748828  0.30924892  1
  O  O2  1  0.96467225  0.15906096  0.30683213  1
  O  O3  1  0.20047423  0.16439239  0.80875718  1
  O  O4  1  0.96490508  0.80007543  0.80943426  1
  O  O5  1  0.84077363  0.03505837  0.80707652  1
  O  O6  1  0.79880123  0.96414936  0.69072967  1
  O  O7  1  0.16481903  0.20091382  0.69115380  1
  O  O8  1  0.03595001  0.83492046  0.69126467  1
  O  O9  1  0.80452352  0.84072497  0.19288380  1
  O  O10  1  0.03593287  0.20079897  0.19009747  1
  O  O11  1  0.16504956  0.96382257  0.19148017  1
  O  O12  1  0.86894252  0.37000860  0.64262326  1
  O  O13  1  0.50192456  0.13230508  0.64201477  1
  O  O14  1  0.63140299  0.49816198  0.64219650  1
  O  O15  1  0.86655858  0.49802807  0.14176239  1
  O  O16  1  0.63348499  0.12567518  0.14024139  1
  O  O17  1  0.49933820  0.36157432  0.14246318  1
  O  O18  1  0.46901261  0.29973197  0.02463235  1
  O  O19  1  0.83352488  0.52811753  0.02374197  1
  O  O20  1  0.69838398  0.16404997  0.02862933  1
  O  O21  1  0.46655197  0.16924875  0.52393903  1
  O  O22  1  0.70121002  0.53248405  0.52420008  1
  O  O23  1  0.82798471  0.29739268  0.52662194  1
  O  O24  1  0.53105740  0.69408664  0.97211259  1
  O  O25  1  0.16720274  0.46625559  0.97505552  1
  O  O26  1  0.30214931  0.83088578  0.97564908  1
  O  O27  1  0.53360529  0.83275909  0.47530055  1
  O  O28  1  0.30510803  0.46352854  0.47354037  1
  O  O29  1  0.16849319  0.69806279  0.47513868  1
  O  O30  1  0.13526523  0.63658354  0.35735720  1
  O  O31  1  0.49945556  0.86440000  0.35808972  1
  O  O32  1  0.36327151  0.49378393  0.36035494  1
  O  O33  1  0.13452016  0.50049661  0.85813741  1
  O  O34  1  0.36380186  0.86467759  0.85753075  1
  O  O35  1  0.50706981  0.63488969  0.85988834  1
  O  O36  1  0.02787327  0.84014048  0.41111140  1
  O  O37  1  0.81325072  0.97004668  0.41036533  1
  O  O38  1  0.17113081  0.19368909  0.41114647  1
  O  O39  1  0.02984961  0.18659729  0.91047084  1
  O  O40  1  0.16086857  0.97247284  0.91098720  1
  O  O41  1  0.80552641  0.82741151  0.91125316  1
  O  O42  1  0.97479351  0.16028811  0.58918613  1
  O  O43  1  0.18580889  0.02442145  0.58926341  1
  O  O44  1  0.83860663  0.81358860  0.58927546  1
  O  O45  1  0.98040980  0.81898616  0.08938035  1
  O  O46  1  0.83287071  0.03216389  0.08894226  1
  O  O47  1  0.18679799  0.16414744  0.08916984  1
  O  O48  1  0.69172963  0.17192761  0.74415291  1
  O  O49  1  0.48073486  0.30760039  0.74407097  1
  O  O50  1  0.82789548  0.51898477  0.74424405  1
  O  O51  1  0.69260152  0.51985424  0.24347992  1
  O  O52  1  0.82729940  0.30712371  0.24339103  1
  O  O53  1  0.48225062  0.17061950  0.24328576  1
  O  O54  1  0.63875109  0.50433201  0.92259388  1
  O  O55  1  0.85338466  0.36451978  0.92343560  1
  O  O56  1  0.50404062  0.15317978  0.92335855  1
  O  O57  1  0.63297071  0.14521056  0.42268666  1
  O  O58  1  0.49486536  0.36083671  0.42160925  1
  O  O59  1  0.84650279  0.49668756  0.42251610  1
  O  O60  1  0.35494287  0.50697674  0.07681596  1
  O  O61  1  0.14706135  0.64337954  0.07675410  1
  O  O62  1  0.50154671  0.86529791  0.07642884  1
  O  O63  1  0.35881970  0.85283271  0.57686502  1
  O  O64  1  0.49316631  0.64032242  0.57698364  1
  O  O65  1  0.14865721  0.50522569  0.57638475  1
  O  O66  1  0.30847932  0.82754298  0.25604790  1
  O  O67  1  0.51840334  0.68896600  0.25694904  1
  O  O68  1  0.17277997  0.47967684  0.25672593  1
  O  O69  1  0.31022229  0.48164617  0.75693356  1
  O  O70  1  0.17248978  0.69176319  0.75603864  1
  O  O71  1  0.51988941  0.82644538  0.75664639  1
loop_
_geom_bond_atom_site_label_1
_geom_bond_atom_site_label_2
_geom_bond_distance
_geom_bond_site_symmetry_2
Na0 O52 2.403061 1_555
Na0 O67 2.445180 1_545
Na0 O53 2.492031 1_555
Na0 O66 2.520933 1_545
Na0 O16 2.673327 1_555
Na0 O31 2.682579 1_545
Na0 O9 2.855891 1_545
Na0 O2 2.859437 1_555
Na1 O68 2.401996 1_555
Na1 O53 2.448140 1_555
Na1 O67 2.499976 1_555
Na1 O51 2.532165 1_555
Na1 O17 2.671786 1_555
Na1 O32 2.702388 1_555
Na1 O0 2.876101 1_555
Na1 O10 2.881361 1_555
Na2 O51 2.413294 1_455
Na2 O66 2.418668 1_555
Na2 O52 2.521670 1_455
Na2 O68 2.522609 1_555
Na2 O30 2.659029 1_555
Na2 O15 2.683477 1_455
Na2 O1 2.872561 1_455
Na2 O11 2.875416 1_555
Na3 O71 2.408688 1_555
Na3 O50 2.419474 1_555
Na3 O69 2.499342 1_555
Na3 O49 2.516008 1_555
Na3 O14 2.672606 1_555
Na3 O35 2.680878 1_555
Na3 O6 2.887029 1_555
Na3 O4 2.891643 1_555
Na4 O48 2.412774 1_555
Na4 O69 2.438581 1_655
Na4 O50 2.508363 1_555
Na4 O70 2.519143 1_655
Na4 O12 2.657040 1_555
Na4 O33 2.681689 1_655
Na4 O5 2.862715 1_555
Na4 O7 2.878088 1_655
Na5 O49 2.401474 1_555
Na5 O70 2.427523 1_545
Na5 O48 2.507507 1_555
Na5 O71 2.533994 1_545
Na5 O34 2.667165 1_545
Na5 O13 2.667472 1_555
Na5 O3 2.871592 1_555
Na5 O8 2.885303 1_545
Na6 O64 2.410878 1_555
Na6 O43 2.418362 1_555
Na6 O65 2.505645 1_555
Na6 O42 2.514910 1_455
Na6 O7 2.673124 1_555
Na6 O28 2.680250 1_555
Na6 O21 2.876055 1_555
Na6 O14 2.889390 1_555
Na7 O44 2.409428 1_455
Na7 O65 2.441156 1_555
Na7 O43 2.505972 1_565
Na7 O63 2.523688 1_555
Na7 O8 2.669034 1_555
Na7 O29 2.688253 1_555
Na7 O12 2.879695 1_455
Na7 O22 2.888125 1_455
Na8 O42 2.407417 1_565
Na8 O63 2.424749 1_555
Na8 O44 2.504878 1_555
Na8 O64 2.525618 1_555
Na8 O6 2.652783 1_555
Na8 O27 2.680926 1_555
Na8 O23 2.858573 1_565
Na8 O13 2.880071 1_565
Na9 O62 2.411754 1_555
Na9 O47 2.419822 1_565
Na9 O45 2.463535 1_455
Na9 O61 2.511831 1_555
Na9 O26 2.673634 1_554
Na9 O11 2.680727 1_555
Na9 O18 2.875041 1_565
Na9 O16 2.897390 1_565
Na10 O46 2.381358 1_455
Na10 O61 2.431536 1_555
Na10 O60 2.484306 1_555
Na10 O47 2.492697 1_555
Na10 O10 2.632956 1_555
Na10 O25 2.688728 1_554
Na10 O15 2.872829 1_455
Na10 O20 2.882750 1_455
Na11 O40 2.383453 1_655
Na11 O55 2.383990 1_555
Na11 O41 2.482587 1_555
Na11 O54 2.544718 1_555
Na11 O4 2.657593 1_555
Na11 O19 2.665178 1_556
Na11 O26 2.904078 1_655
Na11 O33 2.904428 1_655
Na12 O39 2.377833 1_555
Na12 O54 2.417607 1_555
Na12 O56 2.452281 1_555
Na12 O40 2.524912 1_545
Na12 O18 2.671273 1_556
Na12 O3 2.682710 1_555
Na12 O25 2.884822 1_555
Na12 O35 2.898960 1_555
Na13 O57 2.362126 1_555
Na13 O36 2.384648 1_545
Na13 O38 2.481520 1_555
Na13 O58 2.531494 1_555
Na13 O0 2.654666 1_555
Na13 O21 2.666558 1_555
Na13 O29 2.903859 1_545
Na13 O31 2.916351 1_545
Na14 O37 2.384591 1_555
Na14 O58 2.412330 1_555
Na14 O59 2.441078 1_555
Na14 O36 2.533531 1_655
Na14 O22 2.650878 1_555
Na14 O1 2.670596 1_555
Na14 O27 2.887688 1_555
Na14 O32 2.906640 1_555
Na15 O37 2.492892 1_545
Na15 O42 2.506029 1_555
Na15 O36 2.529141 1_645
Na15 O38 2.529545 1_655
Na15 O44 2.551447 1_545
Na15 O43 2.554135 1_655
Na16 O45 2.505137 1_556
Na16 O41 2.523174 1_555
Na16 O39 2.523985 1_665
Na16 O46 2.532214 1_566
Na16 O40 2.563664 1_655
Na16 O47 2.576912 1_666
Na17 O56 2.484119 1_555
Na17 O48 2.497216 1_555
Na17 O55 2.498613 1_555
Na17 O50 2.548944 1_555
Na17 O49 2.552861 1_555
Na17 O54 2.614595 1_555
Na18 O59 2.471056 1_555
Na18 O57 2.474760 1_555
Na18 O52 2.513874 1_555
Na18 O53 2.573210 1_555
Na18 O51 2.573917 1_555
Na18 O58 2.594632 1_555
Na19 O60 2.473046 1_555
Na19 O67 2.525285 1_555
Na19 O61 2.556538 1_555
Na19 O68 2.562308 1_555
Na19 O66 2.562852 1_555
Na19 O62 2.567257 1_555
Na20 O64 2.519681 1_555
Na20 O70 2.524840 1_555
Na20 O69 2.530761 1_555
Na20 O71 2.532995 1_555
Na20 O63 2.534306 1_555
Na20 O65 2.538908 1_555
O0 Si0 1.635606 1_555
O0 Ti0 1.946320 1_455
O1 Si1 1.647262 1_555
O1 Ti0 1.901118 1_565
O2 Si2 1.648061 1_655
O2 Ti0 1.858511 1_555
O3 Si3 1.646764 1_555
O3 Ti1 1.892373 1_555
O4 Si4 1.635826 1_555
O4 Ti1 1.940541 1_665
O5 Si5 1.641780 1_545
O5 Ti1 1.866024 1_655
O6 Si5 1.649267 1_555
O6 Ti2 1.905285 1_555
O7 Si3 1.646574 1_555
O7 Ti2 1.916682 1_445
O8 Si4 1.646726 1_455
O8 Ti2 1.909267 1_455
O9 Si1 1.638045 1_555
O9 Ti3 1.875768 1_655
O10 Si2 1.643450 1_555
O10 Ti3 1.937981 1_545
O11 Si0 1.647565 1_565
O11 Ti3 1.893887 1_555
O12 Si6 1.643066 1_555
O12 Ti4 1.915546 1_555
O13 Si7 1.647522 1_555
O13 Ti4 1.914600 1_555
O14 Si8 1.649430 1_555
O14 Ti4 1.904272 1_555
O15 Si9 1.652938 1_555
O15 Ti5 1.891044 1_555
O16 P0 1.554870 1_555
O16 Ti5 2.051921 1_555
O17 Si10 1.649640 1_555
O17 Ti5 1.870164 1_555
O18 Si10 1.643558 1_555
O18 Ti6 1.906613 1_554
O19 Si9 1.634914 1_555
O19 Ti6 1.904648 1_554
O20 P0 1.561090 1_555
O20 Ti6 1.937252 1_554
O21 Si7 1.633567 1_555
O21 Ti7 1.944537 1_555
O22 Si8 1.636654 1_555
O22 Ti7 1.935648 1_555
O23 Si6 1.645505 1_555
O23 Ti7 1.832657 1_555
O24 P1 1.546751 1_555
O24 Ti8 1.967598 1_556
O25 Si11 1.660648 1_555
O25 Ti8 1.873122 1_556
O26 Si12 1.646147 1_555
O26 Ti8 1.910374 1_556
O27 Si13 1.657827 1_555
O27 Ti9 1.889892 1_555
O28 P2 1.552011 1_555
O28 Ti9 2.015126 1_555
O29 Si14 1.651486 1_555
O29 Ti9 1.885745 1_555
O30 Si14 1.647204 1_555
O30 Ti10 1.864402 1_555
O31 Si13 1.654217 1_555
O31 Ti10 1.899887 1_555
O32 P2 1.554812 1_555
O32 Ti10 2.024856 1_555
O33 Si11 1.652214 1_555
O33 Ti11 1.899625 1_555
O34 Si12 1.651703 1_555
O34 Ti11 1.864496 1_555
O35 P1 1.555793 1_555
O35 Ti11 2.035517 1_555
O36 Si14 1.643379 1_555
O36 Ti0 2.072477 1_465
O37 Si13 1.632321 1_555
O37 Ti0 1.985912 1_565
O38 P2 1.549978 1_555
O38 Ti0 2.121715 1_455
O39 Si11 1.629261 1_555
O39 Ti1 1.989995 1_555
O40 Si12 1.646216 1_555
O40 Ti1 2.068100 1_565
O41 P1 1.543094 1_555
O41 Ti1 2.124400 1_665
O42 Si6 1.629032 1_555
O42 Ti2 2.038758 1_545
O43 Si7 1.633910 1_555
O43 Ti2 2.038076 1_445
O44 Si8 1.636116 1_555
O44 Ti2 2.038335 1_555
O45 Si9 1.631571 1_555
O45 Ti3 1.983723 1_655
O46 P0 1.544006 1_555
O46 Ti3 2.137577 1_645
O47 Si10 1.647439 1_555
O47 Ti3 2.061360 1_545
O48 Si5 1.631315 1_545
O48 Ti4 2.043862 1_555
O49 Si3 1.634382 1_555
O49 Ti4 2.031387 1_555
O50 Si4 1.632729 1_555
O50 Ti4 2.040986 1_555
O51 Si1 1.642425 1_555
O51 Ti5 1.976173 1_555
O52 Si2 1.633624 1_655
O52 Ti5 2.048710 1_555
O53 Si0 1.631643 1_555
O53 Ti5 2.039471 1_555
O54 P1 1.561987 1_555
O54 Ti6 2.149768 1_555
O55 Si11 1.625669 1_655
O55 Ti6 2.000738 1_555
O56 Si12 1.633006 1_545
O56 Ti6 1.988938 1_555
O57 Si13 1.625606 1_545
O57 Ti7 2.000948 1_555
O58 P2 1.551193 1_555
O58 Ti7 2.208891 1_555
O59 Si14 1.628901 1_655
O59 Ti7 1.984814 1_555
O60 Si10 1.634296 1_555
O60 Ti8 1.979498 1_555
O61 Si9 1.659867 1_455
O61 Ti8 2.016691 1_555
O62 P0 1.539818 1_565
O62 Ti8 2.139954 1_555
O63 Si7 1.647086 1_565
O63 Ti9 1.991485 1_555
O64 Si8 1.637839 1_555
O64 Ti9 2.036358 1_555
O65 Si6 1.630884 1_455
O65 Ti9 2.036479 1_555
O66 Si0 1.644188 1_565
O66 Ti10 1.985215 1_555
O67 Si1 1.627416 1_555
O67 Ti10 2.053623 1_555
O68 Si2 1.636451 1_555
O68 Ti10 2.033179 1_555
O69 Si3 1.630623 1_555
O69 Ti11 2.056624 1_555
O70 Si4 1.644822 1_455
O70 Ti11 1.989147 1_555
O71 Si5 1.633234 1_555
O71 Ti11 2.029649 1_555
