# generated using pymatgen
data_C
_symmetry_space_group_name_H-M   'P 1'
_cell_length_a   8.40412894
_cell_length_b   8.40412894
_cell_length_c   8.40412905
_cell_angle_alpha   16.87563771
_cell_angle_beta   16.87563771
_cell_angle_gamma   16.87564267
_symmetry_Int_Tables_number   1
_chemical_formula_structural   C
_chemical_formula_sum   C4
_cell_volume   43.63317686
_cell_formula_units_Z   4
loop_
 _symmetry_equiv_pos_site_id
 _symmetry_equiv_pos_as_xyz
  1  'x, y, z'
loop_
 _atom_site_type_symbol
 _atom_site_label
 _atom_site_symmetry_multiplicity
 _atom_site_fract_x
 _atom_site_fract_y
 _atom_site_fract_z
 _atom_site_occupancy
  C  C0  1  0.91282692  0.91282692  0.91282692  1
  C  C1  1  0.24614994  0.24614994  0.24614994  1
  C  C2  1  0.75385006  0.75385006  0.75385006  1
  C  C3  1  0.08717308  0.08717308  0.08717308  1
loop_
_geom_bond_atom_site_label_1
_geom_bond_atom_site_label_2
_geom_bond_distance
_geom_bond_site_symmetry_2
C0 C1 1.423963 1_665
C0 C1 1.423963 1_566
C0 C1 1.423963 1_656
C2 C3 1.423963 1_665
C2 C3 1.423963 1_656
C2 C3 1.423963 1_566
