# generated using pymatgen
data_Na4ZrSi3SnO12
_symmetry_space_group_name_H-M   'P 1'
_cell_length_a   9.21383910
_cell_length_b   9.21383877
_cell_length_c   22.88364529
_cell_angle_alpha   90.00000000
_cell_angle_beta   90.00000000
_cell_angle_gamma   120.00000117
_symmetry_Int_Tables_number   1
_chemical_formula_structural   Na4ZrSi3SnO12
_chemical_formula_sum   'Na24 Zr6 Si18 Sn6 O72'
_cell_volume   1682.43024257
_cell_formula_units_Z   6
loop_
 _symmetry_equiv_pos_site_id
 _symmetry_equiv_pos_as_xyz
  1  'x, y, z'
loop_
 _atom_site_type_symbol
 _atom_site_label
 _atom_site_symmetry_multiplicity
 _atom_site_fract_x
 _atom_site_fract_y
 _atom_site_fract_z
 _atom_site_occupancy
  Na  Na0  1  0.63377609  0.99995831  0.24993910  1
  Na  Na1  1  0.36618223  0.36622391  0.24993910  1
  Na  Na2  1  0.00004169  0.63381777  0.24993910  1
  Na  Na3  1  0.63351691  0.63357169  0.75055434  1
  Na  Na4  1  0.00005479  0.36648309  0.75055434  1
  Na  Na5  1  0.36642831  0.99994521  0.75055434  1
  Na  Na6  1  0.30071432  0.33340596  0.58336129  1
  Na  Na7  1  0.03269264  0.69928568  0.58336129  1
  Na  Na8  1  0.66659404  0.96730736  0.58336129  1
  Na  Na9  1  0.30011990  0.96640876  0.08287650  1
  Na  Na10  1  0.66628986  0.69988010  0.08287650  1
  Na  Na11  1  0.03359124  0.33371014  0.08287650  1
  Na  Na12  1  0.96639185  0.66665482  0.91670488  1
  Na  Na13  1  0.70026197  0.03360815  0.91670488  1
  Na  Na14  1  0.33334518  0.29973803  0.91670488  1
  Na  Na15  1  0.96687264  0.30055363  0.41655533  1
  Na  Na16  1  0.33367999  0.03312736  0.41655533  1
  Na  Na17  1  0.69944637  0.66632001  0.41655533  1
  Na  Na18  1  0.00000000  0.00000000  0.50004182  1
  Na  Na19  1  0.00000000  0.00000000  0.99957086  1
  Na  Na20  1  0.66666700  0.33333300  0.83376208  1
  Na  Na21  1  0.66666700  0.33333300  0.33298507  1
  Na  Na22  1  0.33333300  0.66666700  0.16658059  1
  Na  Na23  1  0.33333300  0.66666700  0.66706315  1
  Zr  Zr0  1  0.00000000  0.00000000  0.35063009  1
  Zr  Zr1  1  0.00000000  0.00000000  0.64952346  1
  Zr  Zr2  1  0.00000000  0.00000000  0.14841833  1
  Zr  Zr3  1  0.66666700  0.33333300  0.68535021  1
  Zr  Zr4  1  0.66666700  0.33333300  0.48158940  1
  Zr  Zr5  1  0.33333300  0.66666700  0.51794196  1
  Si  Si0  1  0.29741615  0.00009591  0.24980938  1
  Si  Si1  1  0.70267976  0.70258385  0.24980938  1
  Si  Si2  1  0.99990409  0.29732024  0.24980938  1
  Si  Si3  1  0.29211805  0.29475728  0.75181106  1
  Si  Si4  1  0.00263924  0.70788195  0.75181106  1
  Si  Si5  1  0.70524272  0.99736076  0.75181106  1
  Si  Si6  1  0.96135428  0.33329481  0.58349241  1
  Si  Si7  1  0.37194152  0.03864572  0.58349241  1
  Si  Si8  1  0.66670519  0.62805848  0.58349241  1
  Si  Si9  1  0.95863231  0.62317508  0.08237846  1
  Si  Si10  1  0.66454377  0.04136769  0.08237846  1
  Si  Si11  1  0.37682492  0.33545623  0.08237846  1
  Si  Si12  1  0.62572699  0.66663958  0.91672238  1
  Si  Si13  1  0.04091159  0.37427301  0.91672238  1
  Si  Si14  1  0.33336042  0.95908841  0.91672238  1
  Si  Si15  1  0.62579374  0.95866412  0.41578589  1
  Si  Si16  1  0.33286938  0.37420626  0.41578589  1
  Si  Si17  1  0.04133588  0.66713062  0.41578589  1
  Sn  Sn0  1  0.00000000  0.00000000  0.85190125  1
  Sn  Sn1  1  0.66666700  0.33333300  0.18401976  1
  Sn  Sn2  1  0.66666700  0.33333300  0.98144083  1
  Sn  Sn3  1  0.33333300  0.66666700  0.01780761  1
  Sn  Sn4  1  0.33333300  0.66666700  0.31527942  1
  Sn  Sn5  1  0.33333300  0.66666700  0.81594784  1
  O  O0  1  0.21164354  0.03592705  0.30690469  1
  O  O1  1  0.82428351  0.78835646  0.30690469  1
  O  O2  1  0.96407295  0.17571649  0.30690469  1
  O  O3  1  0.21034668  0.17255001  0.80900504  1
  O  O4  1  0.96220334  0.78965332  0.80900504  1
  O  O5  1  0.82744999  0.03779666  0.80900504  1
  O  O6  1  0.78917552  0.96292082  0.69382309  1
  O  O7  1  0.17374530  0.21082448  0.69382309  1
  O  O8  1  0.03707918  0.82625470  0.69382309  1
  O  O9  1  0.78950039  0.82501114  0.19291044  1
  O  O10  1  0.03551075  0.21049961  0.19291044  1
  O  O11  1  0.17498886  0.96448925  0.19291044  1
  O  O12  1  0.87486518  0.36741983  0.64064662  1
  O  O13  1  0.49255565  0.12513482  0.64064662  1
  O  O14  1  0.63258017  0.50744435  0.64064662  1
  O  O15  1  0.87897462  0.50526862  0.14103186  1
  O  O16  1  0.62629500  0.12102538  0.14103186  1
  O  O17  1  0.49473138  0.37370500  0.14103186  1
  O  O18  1  0.45660329  0.29507884  0.02478385  1
  O  O19  1  0.83847656  0.54339671  0.02478385  1
  O  O20  1  0.70492116  0.16152344  0.02478385  1
  O  O21  1  0.45796435  0.15914402  0.52599915  1
  O  O22  1  0.70118067  0.54203565  0.52599915  1
  O  O23  1  0.84085598  0.29881933  0.52599915  1
  O  O24  1  0.54527179  0.70617731  0.97476882  1
  O  O25  1  0.16090452  0.45472821  0.97476882  1
  O  O26  1  0.29382269  0.83909548  0.97476882  1
  O  O27  1  0.54210175  0.84040641  0.47339817  1
  O  O28  1  0.29830366  0.45789825  0.47339817  1
  O  O29  1  0.15959359  0.70169634  0.47339817  1
  O  O30  1  0.12271118  0.62827172  0.35799826  1
  O  O31  1  0.50555954  0.87728882  0.35799826  1
  O  O32  1  0.37172828  0.49444046  0.35799826  1
  O  O33  1  0.12104671  0.49392748  0.85873227  1
  O  O34  1  0.37287978  0.87895329  0.85873227  1
  O  O35  1  0.50607252  0.62712022  0.85873227  1
  O  O36  1  0.02365527  0.83487514  0.41084238  1
  O  O37  1  0.81121987  0.97634473  0.41084238  1
  O  O38  1  0.16512486  0.18878013  0.41084238  1
  O  O39  1  0.02360650  0.18760390  0.91120473  1
  O  O40  1  0.16399741  0.97639350  0.91120473  1
  O  O41  1  0.81239610  0.83600259  0.91120473  1
  O  O42  1  0.97731363  0.16501412  0.58877383  1
  O  O43  1  0.18770050  0.02268637  0.58877383  1
  O  O44  1  0.83498588  0.81229950  0.58877383  1
  O  O45  1  0.97704595  0.80914869  0.08870037  1
  O  O46  1  0.83210274  0.02295405  0.08870037  1
  O  O47  1  0.19085131  0.16789726  0.08870037  1
  O  O48  1  0.68832683  0.16530224  0.74539616  1
  O  O49  1  0.47697641  0.31167317  0.74539616  1
  O  O50  1  0.83469776  0.52302359  0.74539616  1
  O  O51  1  0.68851191  0.51798638  0.24404587  1
  O  O52  1  0.82947548  0.31148809  0.24404587  1
  O  O53  1  0.48201362  0.17052452  0.24404587  1
  O  O54  1  0.64307339  0.49731351  0.92222987  1
  O  O55  1  0.85424112  0.35692661  0.92222987  1
  O  O56  1  0.50268649  0.14575888  0.92222987  1
  O  O57  1  0.64323007  0.14399260  0.42138200  1
  O  O58  1  0.50076353  0.35676993  0.42138200  1
  O  O59  1  0.85600740  0.49923647  0.42138200  1
  O  O60  1  0.35867189  0.50460805  0.07734513  1
  O  O61  1  0.14593517  0.64132811  0.07734513  1
  O  O62  1  0.49539195  0.85406483  0.07734513  1
  O  O63  1  0.35583047  0.85493933  0.57828843  1
  O  O64  1  0.49910786  0.64416953  0.57828843  1
  O  O65  1  0.14506067  0.50089214  0.57828843  1
  O  O66  1  0.31162793  0.82989226  0.25551360  1
  O  O67  1  0.51826334  0.68837207  0.25551360  1
  O  O68  1  0.17010774  0.48173666  0.25551360  1
  O  O69  1  0.30857502  0.48072749  0.75633310  1
  O  O70  1  0.17215147  0.69142498  0.75633310  1
  O  O71  1  0.51927251  0.82784853  0.75633310  1
loop_
_geom_bond_atom_site_label_1
_geom_bond_atom_site_label_2
_geom_bond_distance
_geom_bond_site_symmetry_2
Na0 O52 2.516527 1_565
Na0 O67 2.517059 1_555
Na0 O66 2.575051 1_555
Na0 O53 2.576985 1_565
Na0 O31 2.729934 1_555
Na0 O16 2.745360 1_565
Na0 O2 2.941963 1_565
Na0 O9 2.944989 1_555
Na1 O53 2.516534 1_555
Na1 O68 2.517068 1_555
Na1 O67 2.575052 1_555
Na1 O51 2.576993 1_555
Na1 O32 2.729936 1_555
Na1 O17 2.745363 1_555
Na1 O0 2.941962 1_555
Na1 O10 2.944989 1_555
Na2 O51 2.516526 1_455
Na2 O66 2.517061 1_555
Na2 O68 2.575044 1_555
Na2 O52 2.576993 1_455
Na2 O30 2.729932 1_555
Na2 O15 2.745362 1_455
Na2 O1 2.941963 1_455
Na2 O11 2.944989 1_555
Na3 O71 2.492787 1_555
Na3 O50 2.524977 1_555
Na3 O49 2.571595 1_555
Na3 O69 2.597732 1_555
Na3 O35 2.727770 1_555
Na3 O14 2.768797 1_555
Na3 O6 2.932359 1_555
Na3 O4 2.945092 1_555
Na4 O69 2.492778 1_555
Na4 O48 2.524970 1_455
Na4 O50 2.571587 1_455
Na4 O70 2.597732 1_555
Na4 O33 2.727768 1_555
Na4 O12 2.768793 1_455
Na4 O7 2.932359 1_555
Na4 O5 2.945092 1_455
Na5 O70 2.492780 1_555
Na5 O49 2.524968 1_565
Na5 O48 2.571595 1_565
Na5 O71 2.597724 1_555
Na5 O34 2.727766 1_555
Na5 O13 2.768795 1_565
Na5 O8 2.932359 1_555
Na5 O3 2.945092 1_565
Na6 O43 2.512928 1_555
Na6 O64 2.513863 1_555
Na6 O65 2.581655 1_555
Na6 O42 2.584256 1_455
Na6 O28 2.770154 1_555
Na6 O7 2.777149 1_555
Na6 O21 2.954094 1_555
Na6 O14 2.955748 1_555
Na7 O44 2.512937 1_455
Na7 O65 2.513849 1_555
Na7 O63 2.581639 1_555
Na7 O43 2.584256 1_565
Na7 O29 2.770146 1_555
Na7 O8 2.777151 1_555
Na7 O22 2.954094 1_455
Na7 O12 2.955748 1_455
Na8 O42 2.512929 1_565
Na8 O63 2.513866 1_555
Na8 O64 2.581640 1_555
Na8 O44 2.584248 1_555
Na8 O27 2.770150 1_555
Na8 O6 2.777147 1_555
Na8 O23 2.954094 1_565
Na8 O13 2.955748 1_565
Na9 O62 2.487373 1_555
Na9 O47 2.519321 1_565
Na9 O45 2.581686 1_455
Na9 O61 2.598182 1_555
Na9 O26 2.726079 1_554
Na9 O11 2.765754 1_555
Na9 O16 2.924230 1_565
Na9 O18 2.941169 1_565
Na10 O60 2.487387 1_555
Na10 O45 2.519312 1_555
Na10 O46 2.581685 1_565
Na10 O62 2.598198 1_555
Na10 O24 2.726087 1_554
Na10 O9 2.765753 1_555
Na10 O17 2.924230 1_555
Na10 O19 2.941169 1_555
Na11 O61 2.487390 1_555
Na11 O46 2.519314 1_455
Na11 O47 2.581678 1_555
Na11 O60 2.598182 1_555
Na11 O25 2.726083 1_554
Na11 O10 2.765751 1_555
Na11 O15 2.924230 1_455
Na11 O20 2.941169 1_455
Na12 O55 2.505781 1_555
Na12 O40 2.505868 1_655
Na12 O54 2.583959 1_555
Na12 O41 2.584129 1_555
Na12 O4 2.720965 1_555
Na12 O19 2.730799 1_556
Na12 O33 2.931054 1_655
Na12 O26 2.932267 1_655
Na13 O56 2.505764 1_555
Na13 O41 2.505875 1_545
Na13 O55 2.583959 1_555
Na13 O39 2.584138 1_655
Na13 O5 2.720969 1_555
Na13 O20 2.730795 1_556
Na13 O34 2.931054 1_545
Na13 O24 2.932266 1_545
Na14 O54 2.505778 1_555
Na14 O39 2.505867 1_555
Na14 O56 2.583975 1_555
Na14 O40 2.584137 1_545
Na14 O3 2.720967 1_555
Na14 O18 2.730803 1_556
Na14 O35 2.931054 1_555
Na14 O25 2.932267 1_555
Na15 O59 2.505363 1_555
Na15 O38 2.509108 1_655
Na15 O57 2.585295 1_555
Na15 O37 2.590982 1_545
Na15 O2 2.755021 1_555
Na15 O23 2.757215 1_555
Na15 O30 2.939266 1_655
Na15 O28 2.948221 1_655
Na16 O57 2.505380 1_555
Na16 O36 2.509101 1_545
Na16 O58 2.585295 1_555
Na16 O38 2.590974 1_555
Na16 O0 2.755017 1_555
Na16 O21 2.757219 1_555
Na16 O31 2.939266 1_545
Na16 O29 2.948221 1_545
Na17 O58 2.505377 1_555
Na17 O37 2.509100 1_555
Na17 O59 2.585311 1_555
Na17 O36 2.590982 1_655
Na17 O1 2.755019 1_555
Na17 O22 2.757223 1_555
Na17 O32 2.939266 1_555
Na17 O27 2.948221 1_555
Na18 O42 2.606940 1_455
Na18 O44 2.606940 1_445
Na18 O43 2.606941 1_555
Na18 O38 2.619237 1_555
Na18 O36 2.619237 1_545
Na18 O37 2.619237 1_445
Na19 O39 2.597745 1_555
Na19 O41 2.597745 1_445
Na19 O40 2.597745 1_545
Na19 O45 2.631549 1_446
Na19 O47 2.631549 1_556
Na19 O46 2.631549 1_456
Na20 O56 2.599414 1_555
Na20 O54 2.599414 1_555
Na20 O55 2.599414 1_555
Na20 O50 2.614341 1_555
Na20 O48 2.614341 1_555
Na20 O49 2.614341 1_555
Na21 O51 2.595182 1_555
Na21 O53 2.595182 1_555
Na21 O52 2.595182 1_555
Na21 O57 2.608690 1_555
Na21 O59 2.608690 1_555
Na21 O58 2.608690 1_555
Na22 O66 2.596969 1_555
Na22 O68 2.596969 1_555
Na22 O67 2.596969 1_555
Na22 O62 2.608183 1_555
Na22 O61 2.608183 1_555
Na22 O60 2.608183 1_555
Na23 O69 2.601818 1_555
Na23 O71 2.601818 1_555
Na23 O70 2.601818 1_555
Na23 O63 2.611428 1_555
Na23 O65 2.611428 1_555
Na23 O64 2.611428 1_555
O0 Si0 1.643636 1_555
O0 Zr0 2.065901 1_555
O1 Si1 1.643636 1_555
O1 Zr0 2.065901 1_665
O2 Si2 1.643636 1_555
O2 Zr0 2.065901 1_655
O3 Si3 1.643211 1_555
O3 Sn0 2.041114 1_555
O4 Si4 1.643211 1_655
O4 Sn0 2.041114 1_665
O5 Si5 1.643211 1_545
O5 Sn0 2.041114 1_655
O6 Si5 1.644695 1_555
O6 Zr1 2.062537 1_665
O7 Si3 1.644695 1_555
O7 Zr1 2.062537 1_555
O8 Si4 1.644695 1_555
O8 Zr1 2.062537 1_565
O9 Si1 1.644793 1_555
O9 Zr2 2.066585 1_665
O10 Si2 1.644793 1_455
O10 Zr2 2.066585 1_555
O11 Si0 1.644793 1_565
O11 Zr2 2.066585 1_565
O12 Si6 1.641664 1_555
O12 Zr3 2.054882 1_555
O13 Si7 1.641664 1_555
O13 Zr3 2.054882 1_555
O14 Si8 1.641664 1_555
O14 Zr3 2.054882 1_555
O15 Si9 1.650168 1_555
O15 Sn1 2.050612 1_555
O16 Si10 1.650168 1_555
O16 Sn1 2.050612 1_555
O17 Si11 1.650168 1_555
O17 Sn1 2.050612 1_555
O18 Si11 1.639894 1_555
O18 Sn2 2.042530 1_554
O19 Si9 1.639894 1_555
O19 Sn2 2.042530 1_554
O20 Si10 1.639894 1_555
O20 Sn2 2.042530 1_554
O21 Si7 1.646766 1_555
O21 Zr4 2.054299 1_555
O22 Si8 1.646766 1_555
O22 Zr4 2.054299 1_555
O23 Si6 1.646766 1_555
O23 Zr4 2.054299 1_555
O24 Si12 1.648244 1_555
O24 Sn3 2.050596 1_556
O25 Si13 1.648244 1_555
O25 Sn3 2.050596 1_556
O26 Si14 1.648244 1_555
O26 Sn3 2.050596 1_556
O27 Si15 1.637003 1_555
O27 Zr5 2.054858 1_555
O28 Si16 1.637003 1_555
O28 Zr5 2.054858 1_555
O29 Si17 1.637003 1_555
O29 Zr5 2.054859 1_555
O30 Si17 1.645458 1_555
O30 Sn4 2.039684 1_555
O31 Si15 1.645458 1_555
O31 Sn4 2.039684 1_555
O32 Si16 1.645458 1_555
O32 Sn4 2.039684 1_555
O33 Si13 1.645478 1_555
O33 Sn5 2.050475 1_555
O34 Si14 1.645478 1_555
O34 Sn5 2.050475 1_555
O35 Si12 1.645478 1_555
O35 Sn5 2.050476 1_555
O36 Si17 1.637043 1_555
O36 Zr0 2.142992 1_565
O37 Si15 1.637052 1_555
O37 Zr0 2.142992 1_665
O38 Si16 1.637048 1_555
O38 Zr0 2.142992 1_555
O39 Si13 1.650854 1_555
O39 Sn0 2.121531 1_555
O40 Si14 1.650845 1_555
O40 Sn0 2.121532 1_565
O41 Si12 1.650850 1_555
O41 Sn0 2.121531 1_665
O42 Si6 1.633497 1_555
O42 Zr1 2.146099 1_655
O43 Si7 1.633506 1_555
O43 Zr1 2.146099 1_555
O44 Si8 1.633502 1_555
O44 Zr1 2.146099 1_665
O45 Si9 1.641701 1_555
O45 Zr2 2.152336 1_665
O46 Si10 1.641692 1_555
O46 Zr2 2.152336 1_655
O47 Si11 1.641698 1_555
O47 Zr2 2.152336 1_555
O48 Si5 1.637504 1_545
O48 Zr3 2.152632 1_555
O49 Si3 1.637513 1_555
O49 Zr3 2.152632 1_555
O50 Si4 1.637509 1_655
O50 Zr3 2.152632 1_555
O51 Si1 1.644780 1_555
O51 Sn1 2.116492 1_555
O52 Si2 1.644771 1_555
O52 Sn1 2.116492 1_555
O53 Si0 1.644776 1_555
O53 Sn1 2.116492 1_555
O54 Si12 1.650705 1_555
O54 Sn2 2.120004 1_555
O55 Si13 1.650687 1_655
O55 Sn2 2.120004 1_555
O56 Si14 1.650695 1_545
O56 Sn2 2.120004 1_555
O57 Si15 1.638209 1_545
O57 Zr4 2.147464 1_555
O58 Si16 1.638227 1_555
O58 Zr4 2.147464 1_555
O59 Si17 1.638217 1_655
O59 Zr4 2.147464 1_555
O60 Si11 1.652562 1_555
O60 Sn3 2.118715 1_555
O61 Si9 1.652544 1_455
O61 Sn3 2.118714 1_555
O62 Si10 1.652552 1_565
O62 Sn3 2.118714 1_555
O63 Si7 1.627878 1_565
O63 Zr5 2.144673 1_555
O64 Si8 1.627897 1_555
O64 Zr5 2.144673 1_555
O65 Si6 1.627886 1_455
O65 Zr5 2.144673 1_555
O66 Si0 1.642827 1_565
O66 Sn4 2.114962 1_555
O67 Si1 1.642836 1_555
O67 Sn4 2.114962 1_555
O68 Si2 1.642832 1_455
O68 Sn4 2.114962 1_555
O69 Si3 1.646196 1_555
O69 Sn5 2.111252 1_555
O70 Si4 1.646186 1_555
O70 Sn5 2.111252 1_555
O71 Si5 1.646192 1_555
O71 Sn5 2.111252 1_555
