# generated using pymatgen
data_U6Cu2S13
_symmetry_space_group_name_H-M   'P 1'
_cell_length_a   8.02987602
_cell_length_b   8.02987602
_cell_length_c   14.23101230
_cell_angle_alpha   81.25045869
_cell_angle_beta   81.25045869
_cell_angle_gamma   100.22698880
_symmetry_Int_Tables_number   1
_chemical_formula_structural   U6Cu2S13
_chemical_formula_sum   'U12 Cu4 S26'
_cell_volume   877.24768813
_cell_formula_units_Z   2
loop_
 _symmetry_equiv_pos_site_id
 _symmetry_equiv_pos_as_xyz
  1  'x, y, z'
loop_
 _atom_site_type_symbol
 _atom_site_label
 _atom_site_symmetry_multiplicity
 _atom_site_fract_x
 _atom_site_fract_y
 _atom_site_fract_z
 _atom_site_occupancy
  U  U0  1  0.17679100  0.16466500  0.64240700  1
  U  U1  1  0.83533500  0.82320900  0.85759300  1
  U  U2  1  0.82320900  0.83533500  0.35759300  1
  U  U3  1  0.16466500  0.17679100  0.14240700  1
  U  U4  1  0.50949900  0.84312400  0.64349300  1
  U  U5  1  0.15687600  0.49050100  0.85650700  1
  U  U6  1  0.49050100  0.15687600  0.35650700  1
  U  U7  1  0.84312400  0.50949900  0.14349300  1
  U  U8  1  0.33227300  0.98566300  0.88980900  1
  U  U9  1  0.01433700  0.66772700  0.61019100  1
  U  U10  1  0.66772700  0.01433700  0.11019100  1
  U  U11  1  0.98566300  0.33227300  0.38980900  1
  Cu  Cu0  1  0.61379200  0.32702200  0.87076300  1
  Cu  Cu1  1  0.67297800  0.38620800  0.62923700  1
  Cu  Cu2  1  0.38620800  0.67297800  0.12923700  1
  Cu  Cu3  1  0.32702200  0.61379200  0.37076300  1
  S  S0  1  0.17213600  0.82786400  0.75000000  1
  S  S1  1  0.82786400  0.17213600  0.25000000  1
  S  S2  1  0.28948200  0.93843400  0.52580900  1
  S  S3  1  0.06156600  0.71051800  0.97419100  1
  S  S4  1  0.71051800  0.06156600  0.47419100  1
  S  S5  1  0.93843400  0.28948200  0.02580900  1
  S  S6  1  0.67019700  0.06605200  0.91423800  1
  S  S7  1  0.93394800  0.32980300  0.58576200  1
  S  S8  1  0.32980300  0.93394800  0.08576200  1
  S  S9  1  0.06605200  0.67019700  0.41423800  1
  S  S10  1  0.48618600  0.15362500  0.70293100  1
  S  S11  1  0.84637500  0.51381400  0.79706900  1
  S  S12  1  0.51381400  0.84637500  0.29706900  1
  S  S13  1  0.15362500  0.48618600  0.20293100  1
  S  S14  1  0.48868800  0.72202000  0.83490900  1
  S  S15  1  0.27798000  0.51131200  0.66509100  1
  S  S16  1  0.31162300  0.35198100  0.45297900  1
  S  S17  1  0.64801900  0.68837700  0.04702100  1
  S  S18  1  0.68837700  0.64801900  0.54702100  1
  S  S19  1  0.35198100  0.31162300  0.95297900  1
  S  S20  1  0.93111900  0.85656100  0.16734000  1
  S  S21  1  0.14343900  0.06888100  0.33266000  1
  S  S22  1  0.06888100  0.14343900  0.83266000  1
  S  S23  1  0.85656100  0.93111900  0.66734000  1
  S  S24  1  0.72202000  0.48868800  0.33490900  1
  S  S25  1  0.51131200  0.27798000  0.16509100  1
loop_
_geom_bond_atom_site_label_1
_geom_bond_atom_site_label_2
_geom_bond_distance
_geom_bond_site_symmetry_2
Cu0 S11 2.183672 1_555
Cu0 S19 2.217946 1_555
Cu0 S6 2.237661 1_555
Cu1 S10 2.183672 1_555
Cu1 S18 2.217946 1_555
Cu1 S7 2.237661 1_555
Cu2 S13 2.183672 1_555
Cu2 S17 2.217946 1_555
Cu2 S8 2.237661 1_555
Cu3 S12 2.183672 1_555
Cu3 S16 2.217946 1_555
Cu3 S9 2.237661 1_555
S0 U8 2.860841 1_555
S0 U9 2.860841 1_555
S0 U5 2.868345 1_555
S0 U4 2.868345 1_555
S0 U1 2.889097 1_455
S0 U0 2.889097 1_565
S1 U11 2.860841 1_555
S1 U10 2.860841 1_555
S1 U6 2.868345 1_555
S1 U7 2.868345 1_555
S1 U2 2.889097 1_545
S1 U3 2.889097 1_655
S2 U4 2.739008 1_555
S2 U9 2.782417 1_555
S2 U0 2.813567 1_565
S2 U6 2.830701 1_565
S3 U5 2.739008 1_555
S3 U8 2.782417 1_555
S3 U1 2.813567 1_455
S3 U7 2.830701 1_456
S4 U6 2.739008 1_555
S4 U11 2.782417 1_555
S4 U2 2.813567 1_545
S4 U4 2.830701 1_545
S5 U7 2.739008 1_555
S5 U10 2.782417 1_555
S5 U3 2.813567 1_655
S5 U5 2.830701 1_654
S6 U1 2.698503 1_545
S6 U10 2.752658 1_556
S6 U8 2.762942 1_545
S7 U0 2.698503 1_655
S7 U11 2.752658 1_555
S7 U9 2.762942 1_655
S8 U3 2.698503 1_565
S8 U8 2.752658 1_554
S8 U10 2.762942 1_565
S9 U2 2.698503 1_455
S9 U9 2.752658 1_555
S9 U11 2.762942 1_455
S10 U0 2.761879 1_555
S10 U4 2.779600 1_545
S10 U8 2.781391 1_545
S11 U1 2.761879 1_555
S11 U5 2.779600 1_655
S11 U9 2.781391 1_655
S12 U2 2.761879 1_555
S12 U6 2.779600 1_565
S12 U10 2.781391 1_565
S13 U3 2.761879 1_555
S13 U7 2.779600 1_455
S13 U11 2.781391 1_455
S14 U4 2.718804 1_555
S14 U8 2.796166 1_555
S14 U1 2.839458 1_555
S14 U5 2.909947 1_555
S15 U5 2.718804 1_555
S15 U9 2.796166 1_555
S15 U0 2.839458 1_555
S15 U4 2.909947 1_555
S16 U6 2.693686 1_555
S16 U0 2.828760 1_555
S16 U11 2.880299 1_455
S17 U7 2.693686 1_555
S17 U1 2.828760 1_554
S17 U10 2.880299 1_565
S18 U4 2.693686 1_555
S18 U2 2.828760 1_555
S18 U9 2.880299 1_655
S19 U5 2.693686 1_555
S19 U3 2.828760 1_556
S19 U8 2.880299 1_545
S20 U2 2.683993 1_555
S20 U10 2.810892 1_565
S20 U7 2.835929 1_555
S20 U3 2.839465 1_665
S21 U3 2.683993 1_555
S21 U11 2.810892 1_455
S21 U6 2.835929 1_555
S21 U2 2.839465 1_445
S22 U0 2.683993 1_555
S22 U8 2.810892 1_545
S22 U5 2.835929 1_555
S22 U1 2.839465 1_445
S23 U1 2.683993 1_555
S23 U9 2.810892 1_655
S23 U4 2.835929 1_555
S23 U0 2.839465 1_665
S24 U7 2.718804 1_555
S24 U11 2.796166 1_555
S24 U2 2.839458 1_555
S24 U6 2.909947 1_555
S25 U6 2.718804 1_555
S25 U10 2.796166 1_555
S25 U3 2.839458 1_555
S25 U7 2.909947 1_555
