# generated using pymatgen
data_LiCrP2O7
_symmetry_space_group_name_H-M   'P 1'
_cell_length_a   8.26300700
_cell_length_b   6.95884800
_cell_length_c   8.78623573
_cell_angle_alpha   68.47919067
_cell_angle_beta   90.00000000
_cell_angle_gamma   90.00000000
_symmetry_Int_Tables_number   1
_chemical_formula_structural   LiCrP2O7
_chemical_formula_sum   'Li4 Cr4 P8 O28'
_cell_volume   469.99588828
_cell_formula_units_Z   4
loop_
 _symmetry_equiv_pos_site_id
 _symmetry_equiv_pos_as_xyz
  1  'x, y, z'
loop_
 _atom_site_type_symbol
 _atom_site_label
 _atom_site_symmetry_multiplicity
 _atom_site_fract_x
 _atom_site_fract_y
 _atom_site_fract_z
 _atom_site_occupancy
  Li  Li0  1  0.95161200  0.86963600  0.84326400  1
  Li  Li1  1  0.04838800  0.13036400  0.15673600  1
  Li  Li2  1  0.54838800  0.36963600  0.34326400  1
  Li  Li3  1  0.45161200  0.63036400  0.65673600  1
  Cr  Cr0  1  0.41998500  0.12070800  0.11369700  1
  Cr  Cr1  1  0.91998500  0.37929200  0.38630300  1
  Cr  Cr2  1  0.08001500  0.62070800  0.61369700  1
  Cr  Cr3  1  0.58001500  0.87929200  0.88630300  1
  P  P0  1  0.22987300  0.68523300  0.25678400  1
  P  P1  1  0.77012700  0.31476700  0.74321600  1
  P  P2  1  0.27012700  0.18523300  0.75678400  1
  P  P3  1  0.76422200  0.43114800  0.03562500  1
  P  P4  1  0.73577800  0.93114800  0.53562500  1
  P  P5  1  0.23577800  0.56885200  0.96437500  1
  P  P6  1  0.26422200  0.06885200  0.46437500  1
  P  P7  1  0.72987300  0.81476700  0.24321600  1
  O  O0  1  0.73863800  0.57634000  0.30811100  1
  O  O1  1  0.10250100  0.17585900  0.40560700  1
  O  O2  1  0.24921800  0.33133600  0.04091700  1
  O  O3  1  0.40099100  0.13436000  0.33621900  1
  O  O4  1  0.59900900  0.86564000  0.66378100  1
  O  O5  1  0.75078200  0.66866400  0.95908300  1
  O  O6  1  0.89749900  0.82414100  0.59439300  1
  O  O7  1  0.39749900  0.67585900  0.90560700  1
  O  O8  1  0.25078200  0.83133600  0.54091700  1
  O  O9  1  0.65909400  0.85921900  0.39806600  1
  O  O10  1  0.09900900  0.63436000  0.83621900  1
  O  O11  1  0.88143800  0.93015400  0.17893100  1
  O  O12  1  0.23863800  0.92366000  0.19188900  1
  O  O13  1  0.58242600  0.89105600  0.12032300  1
  O  O14  1  0.08242600  0.60894400  0.37967700  1
  O  O15  1  0.74921800  0.16866400  0.45908300  1
  O  O16  1  0.61856200  0.43015400  0.67893100  1
  O  O17  1  0.26136200  0.42366000  0.69188900  1
  O  O18  1  0.84090600  0.35921900  0.89806600  1
  O  O19  1  0.38143800  0.56984600  0.32106900  1
  O  O20  1  0.15909400  0.64078100  0.10193400  1
  O  O21  1  0.91757400  0.39105600  0.62032300  1
  O  O22  1  0.41757400  0.10894400  0.87967700  1
  O  O23  1  0.76136200  0.07634000  0.80811100  1
  O  O24  1  0.11856200  0.06984600  0.82106900  1
  O  O25  1  0.90099100  0.36564000  0.16378100  1
  O  O26  1  0.34090600  0.14078100  0.60193400  1
  O  O27  1  0.60250100  0.32414100  0.09439300  1
loop_
_geom_bond_atom_site_label_1
_geom_bond_atom_site_label_2
_geom_bond_distance
_geom_bond_site_symmetry_2
Li0 O24 1.919070 1_665
Li0 O10 2.059650 1_655
Li0 O23 2.076006 1_565
Li0 O5 2.168200 1_555
Li0 O6 2.364204 1_555
Li1 O11 1.919070 1_445
Li1 O25 2.059650 1_455
Li1 O12 2.076006 1_545
Li1 O2 2.168200 1_555
Li1 O1 2.364204 1_555
Li2 O19 1.919070 1_555
Li2 O3 2.059650 1_555
Li2 O0 2.076006 1_555
Li2 O15 2.168200 1_555
Li2 O27 2.364204 1_555
Li3 O16 1.919070 1_555
Li3 O4 2.059650 1_555
Li3 O17 2.076006 1_555
Li3 O8 2.168200 1_555
Li3 O7 2.364204 1_555
Cr0 O2 1.964859 1_555
Cr0 O12 1.976488 1_545
Cr0 O3 1.998116 1_555
Cr0 O27 2.032524 1_555
Cr0 O13 2.071409 1_545
Cr0 O22 2.087670 1_554
Cr1 O15 1.964859 1_555
Cr1 O0 1.976488 1_555
Cr1 O25 1.998116 1_555
Cr1 O1 2.032524 1_655
Cr1 O14 2.071409 1_655
Cr1 O21 2.087670 1_555
Cr2 O8 1.964859 1_555
Cr2 O17 1.976488 1_555
Cr2 O10 1.998116 1_555
Cr2 O6 2.032524 1_455
Cr2 O21 2.071409 1_455
Cr2 O14 2.087670 1_555
Cr3 O5 1.964859 1_555
Cr3 O23 1.976488 1_565
Cr3 O4 1.998116 1_555
Cr3 O7 2.032524 1_555
Cr3 O22 2.071409 1_565
Cr3 O13 2.087670 1_556
O0 P7 1.545684 1_555
O1 P6 1.524703 1_555
O2 P5 1.543035 1_554
O3 P6 1.541520 1_555
O4 P4 1.541520 1_555
O5 P3 1.543035 1_556
O6 P4 1.524703 1_555
O7 P5 1.524703 1_555
O8 P6 1.543035 1_565
O9 P4 1.598960 1_555
O9 P7 1.611709 1_555
O10 P5 1.541520 1_555
O11 P7 1.483067 1_555
O12 P0 1.545684 1_555
O13 P7 1.584789 1_555
O14 P0 1.584789 1_555
O15 P4 1.543035 1_545
O16 P1 1.483067 1_555
O17 P2 1.545684 1_555
O18 P3 1.598960 1_556
O18 P1 1.611709 1_555
O19 P0 1.483067 1_555
O20 P5 1.598960 1_554
O20 P0 1.611709 1_555
O21 P1 1.584789 1_555
O22 P2 1.584789 1_555
O23 P1 1.545684 1_555
O24 P2 1.483067 1_555
O25 P3 1.541520 1_555
O26 P6 1.598960 1_555
O26 P2 1.611709 1_555
O27 P3 1.524703 1_555
