# generated using pymatgen
data_K4MgV2(AgS4)2
_symmetry_space_group_name_H-M   'P 1'
_cell_length_a   6.04134879
_cell_length_b   7.15865464
_cell_length_c   11.61192977
_cell_angle_alpha   84.41193996
_cell_angle_beta   74.92190383
_cell_angle_gamma   68.01730144
_symmetry_Int_Tables_number   1
_chemical_formula_structural   K4MgV2(AgS4)2
_chemical_formula_sum   'K4 Mg1 V2 Ag2 S8'
_cell_volume   449.64863003
_cell_formula_units_Z   1
loop_
 _symmetry_equiv_pos_site_id
 _symmetry_equiv_pos_as_xyz
  1  'x, y, z'
loop_
 _atom_site_type_symbol
 _atom_site_label
 _atom_site_symmetry_multiplicity
 _atom_site_fract_x
 _atom_site_fract_y
 _atom_site_fract_z
 _atom_site_occupancy
  K  K0  1  0.55729900  0.25000000  0.88540100  1
  K  K1  1  0.43011500  0.75000000  0.13977100  1
  K  K2  1  0.19679200  0.25000000  0.60641600  1
  K  K3  1  0.80255800  0.75000000  0.39488300  1
  Mg  Mg0  1  0.00258000  0.75000000  0.99483900  1
  V  V0  1  0.62127000  0.75000000  0.75746000  1
  V  V1  1  0.37669300  0.25000000  0.24661300  1
  Ag  Ag0  1  0.14284600  0.75000000  0.71430700  1
  Ag  Ag1  1  0.87722600  0.25000000  0.24554700  1
  S  S0  1  0.86700100  0.56613100  0.87662700  1
  S  S1  1  0.58607600  0.53937200  0.64282600  1
  S  S2  1  0.77109900  0.96062800  0.64282600  1
  S  S3  1  0.25637200  0.93386900  0.87662700  1
  S  S4  1  0.13814400  0.46084200  0.12806600  1
  S  S5  1  0.20165800  0.05504700  0.35986300  1
  S  S6  1  0.43847800  0.44495300  0.35986300  1
  S  S7  1  0.73379000  0.03915800  0.12806600  1
loop_
_geom_bond_atom_site_label_1
_geom_bond_atom_site_label_2
_geom_bond_distance
_geom_bond_site_symmetry_2
K0 S4 3.299250 1_556
K0 S7 3.299253 1_556
K0 S2 3.336768 1_545
K0 S1 3.336769 1_555
K0 S3 3.414448 1_545
K0 S0 3.414453 1_555
K1 S5 3.193816 1_565
K1 S6 3.193817 1_555
K1 S7 3.213665 1_565
K1 S4 3.213670 1_555
K1 S0 3.467283 1_554
K1 S3 3.467286 1_554
K2 S6 3.293737 1_555
K2 S5 3.293739 1_555
K2 S1 3.423414 1_455
K2 S2 3.423419 1_545
K3 S1 3.308325 1_555
K3 S2 3.308328 1_555
K3 S6 3.573919 1_655
K3 S5 3.573919 1_565
K3 S7 3.582387 1_565
K3 S4 3.582387 1_655
K3 S6 3.742484 1_555
K3 S5 3.742484 1_665
Mg0 S0 2.455932 1_455
Mg0 S3 2.455937 1_555
Mg0 S7 2.472890 1_466
Mg0 S4 2.472891 1_556
Ag0 S2 2.489426 1_455
Ag0 S1 2.489435 1_555
Ag0 S0 2.754475 1_455
Ag0 S3 2.754478 1_555
Ag1 S6 2.548799 1_555
Ag1 S5 2.548799 1_655
Ag1 S7 2.623969 1_555
Ag1 S4 2.623974 1_655
S0 V0 2.258838 1_555
S1 V0 2.206521 1_555
S2 V0 2.206524 1_555
S3 V0 2.258838 1_555
S4 V1 2.291069 1_555
S5 V1 2.195265 1_555
S6 V1 2.195265 1_555
S7 V1 2.291073 1_555
