# generated using pymatgen
data_Gd(CuGe)2
_symmetry_space_group_name_H-M   'P 1'
_cell_length_a   5.87094678
_cell_length_b   5.87094678
_cell_length_c   4.06216703
_cell_angle_alpha   69.95812770
_cell_angle_beta   69.95812770
_cell_angle_gamma   40.36910629
_symmetry_Int_Tables_number   1
_chemical_formula_structural   Gd(CuGe)2
_chemical_formula_sum   'Gd1 Cu2 Ge2'
_cell_volume   84.42738986
_cell_formula_units_Z   1
loop_
 _symmetry_equiv_pos_site_id
 _symmetry_equiv_pos_as_xyz
  1  'x, y, z'
loop_
 _atom_site_type_symbol
 _atom_site_label
 _atom_site_symmetry_multiplicity
 _atom_site_fract_x
 _atom_site_fract_y
 _atom_site_fract_z
 _atom_site_occupancy
  Gd  Gd0  1  -0.00000000  -0.00000000  -0.00000000  1
  Cu  Cu0  1  0.25056947  0.25056947  0.24117993  1
  Cu  Cu1  1  0.74943053  0.74943053  0.75882007  1
  Ge  Ge0  1  0.62028762  0.62028762  0.38555168  1
  Ge  Ge1  1  0.37971238  0.37971238  0.61444832  1
loop_
_geom_bond_atom_site_label_1
_geom_bond_atom_site_label_2
_geom_bond_distance
_geom_bond_site_symmetry_2
Gd0 Ge0 3.110412 1_544
Gd0 Ge0 3.110412 1_454
Gd0 Ge1 3.110412 1_545
Gd0 Ge1 3.110412 1_455
Gd0 Ge1 3.135299 1_544
Gd0 Ge1 3.135299 1_454
Gd0 Ge0 3.135299 1_545
Gd0 Ge0 3.135299 1_455
Cu0 Ge1 2.420979 1_554
Cu0 Ge0 2.427797 1_545
Cu0 Ge0 2.427797 1_455
Cu0 Ge1 2.429135 1_555
Cu0 Gd0 3.249807 1_555
Cu0 Gd0 3.263942 1_565
Cu0 Gd0 3.263942 1_655
Cu0 Gd0 3.303207 1_556
Cu1 Ge0 2.420979 1_556
Cu1 Ge1 2.427797 1_655
Cu1 Ge1 2.427797 1_565
Cu1 Ge0 2.429135 1_555
Cu1 Gd0 3.249807 1_666
Cu1 Gd0 3.263942 1_656
Cu1 Gd0 3.263942 1_566
Cu1 Gd0 3.303207 1_665
Ge0 Ge1 2.468565 1_555
