# generated using pymatgen
data_P2H8O9
_symmetry_space_group_name_H-M   'P 1'
_cell_length_a   12.58925080
_cell_length_b   7.37853822
_cell_length_c   7.86762924
_cell_angle_alpha   69.06226004
_cell_angle_beta   90.00000000
_cell_angle_gamma   90.00000000
_symmetry_Int_Tables_number   1
_chemical_formula_structural   P2H8O9
_chemical_formula_sum   'P8 H32 O36'
_cell_volume   682.56921995
_cell_formula_units_Z   4
loop_
 _symmetry_equiv_pos_site_id
 _symmetry_equiv_pos_as_xyz
  1  'x, y, z'
loop_
 _atom_site_type_symbol
 _atom_site_label
 _atom_site_symmetry_multiplicity
 _atom_site_fract_x
 _atom_site_fract_y
 _atom_site_fract_z
 _atom_site_occupancy
  P  P0  1  0.36378528  0.35825616  0.08107669  1
  P  P1  1  0.86378528  0.64174384  0.41892331  1
  P  P2  1  0.63621472  0.64174384  0.91892331  1
  P  P3  1  0.13621472  0.35825616  0.58107669  1
  P  P4  1  0.10206900  0.75359450  0.93805964  1
  P  P5  1  0.60206900  0.24640550  0.56194036  1
  P  P6  1  0.89793100  0.24640550  0.06194036  1
  P  P7  1  0.39793100  0.75359450  0.43805964  1
  H  H0  1  0.41497405  0.87234536  0.91604208  1
  H  H1  1  0.91497405  0.12765464  0.58395792  1
  H  H2  1  0.58502595  0.12765464  0.08395792  1
  H  H3  1  0.08502595  0.87234536  0.41604208  1
  H  H4  1  0.30497685  0.39616881  0.58504316  1
  H  H5  1  0.80497685  0.60383119  0.91495684  1
  H  H6  1  0.69502315  0.60383119  0.41495684  1
  H  H7  1  0.19502315  0.39616881  0.08504316  1
  H  H8  1  0.37181248  0.56054088  0.79239984  1
  H  H9  1  0.87181248  0.43945912  0.70760016  1
  H  H10  1  0.62818752  0.43945912  0.20760016  1
  H  H11  1  0.12818752  0.56054088  0.29239984  1
  H  H12  1  0.39989168  0.12010947  0.97476590  1
  H  H13  1  0.89989168  0.87989053  0.52523410  1
  H  H14  1  0.60010832  0.87989053  0.02523410  1
  H  H15  1  0.10010832  0.12010947  0.47476590  1
  H  H16  1  0.10694994  0.05229641  0.23998494  1
  H  H17  1  0.60694994  0.94770359  0.26001506  1
  H  H18  1  0.89305006  0.94770359  0.76001506  1
  H  H19  1  0.39305006  0.05229641  0.73998494  1
  H  H20  1  0.25523678  0.94178303  0.40260364  1
  H  H21  1  0.75523678  0.05821697  0.09739636  1
  H  H22  1  0.74476322  0.05821697  0.59739636  1
  H  H23  1  0.24476322  0.94178303  0.90260364  1
  H  H24  1  0.39303825  0.59305033  0.25104802  1
  H  H25  1  0.89303825  0.40694967  0.24895198  1
  H  H26  1  0.60696175  0.40694967  0.74895198  1
  H  H27  1  0.10696175  0.59305033  0.75104802  1
  H  H28  1  0.44787069  0.25468693  0.42780008  1
  H  H29  1  0.94787069  0.74531307  0.07219992  1
  H  H30  1  0.55212931  0.74531307  0.57219992  1
  H  H31  1  0.05212931  0.25468693  0.92780008  1
  O  O0  1  0.75335135  0.71042997  0.91087823  1
  O  O1  1  0.48461000  0.18636014  0.54948100  1
  O  O2  1  0.01539000  0.18636014  0.04948100  1
  O  O3  1  0.51539000  0.81363986  0.45051900  1
  O  O4  1  0.09888053  0.38873752  0.74952763  1
  O  O5  1  0.59888053  0.61126248  0.75047237  1
  O  O6  1  0.13006122  0.98688988  0.36628290  1
  O  O7  1  0.40111947  0.38873752  0.24952763  1
  O  O8  1  0.06946591  0.19921402  0.54552813  1
  O  O9  1  0.56946591  0.80078598  0.95447187  1
  O  O10  1  0.93053409  0.80078598  0.45447187  1
  O  O11  1  0.43053409  0.19921402  0.04552713  1
  O  O12  1  0.12500219  0.55653929  0.42285390  1
  O  O13  1  0.62500219  0.44346071  0.07714610  1
  O  O14  1  0.87499781  0.44346071  0.57714610  1
  O  O15  1  0.37499781  0.55653929  0.92285390  1
  O  O16  1  0.25335135  0.28957003  0.58912177  1
  O  O17  1  0.98461000  0.81363986  0.95051900  1
  O  O18  1  0.74664865  0.71042997  0.41087823  1
  O  O19  1  0.24664865  0.28957003  0.08912177  1
  O  O20  1  0.11745408  0.72983163  0.75221804  1
  O  O21  1  0.61745408  0.27016837  0.74778196  1
  O  O22  1  0.88254592  0.27016837  0.24778196  1
  O  O23  1  0.38254592  0.72983163  0.25221804  1
  O  O24  1  0.16697370  0.93338825  0.93196780  1
  O  O25  1  0.66697370  0.06661175  0.56803220  1
  O  O26  1  0.83302630  0.06661175  0.06803220  1
  O  O27  1  0.33302630  0.93338825  0.43196780  1
  O  O28  1  0.12928493  0.57088893  0.09499296  1
  O  O29  1  0.62928493  0.42911107  0.40500704  1
  O  O30  1  0.87071507  0.42911107  0.90500704  1
  O  O31  1  0.37071507  0.57088893  0.59499296  1
  O  O32  1  0.36993878  0.98688988  0.86628290  1
  O  O33  1  0.86993878  0.01311012  0.63371710  1
  O  O34  1  0.63006122  0.01311012  0.13371710  1
  O  O35  1  0.90111947  0.61126248  0.25047237  1
loop_
_geom_bond_atom_site_label_1
_geom_bond_atom_site_label_2
_geom_bond_distance
_geom_bond_site_symmetry_2
H0 O32 0.975983 1_555
H1 O33 0.975983 1_555
H2 O34 0.975983 1_555
H3 O6 0.975983 1_555
H4 O16 1.011951 1_555
H4 O31 1.557290 1_555
H5 O0 1.011951 1_555
H5 O30 1.557290 1_555
H6 O18 1.011951 1_555
H6 O29 1.557290 1_555
H7 O19 1.011951 1_555
H7 O28 1.557290 1_555
H8 O15 1.016978 1_555
H8 O31 1.527567 1_555
H9 O14 1.016978 1_555
H9 O30 1.527567 1_555
H10 O13 1.016978 1_555
H10 O29 1.527567 1_555
H11 O12 1.016978 1_555
H11 O28 1.527567 1_555
H12 O11 1.015713 1_556
H12 O32 1.560928 1_545
H13 O10 1.015719 1_555
H13 O33 1.560928 1_565
H14 O9 1.015719 1_554
H14 O34 1.560928 1_565
H15 O8 1.015719 1_555
H15 O6 1.560928 1_545
H16 O6 0.980916 1_545
H17 O34 0.980916 1_565
H18 O33 0.980916 1_565
H19 O32 0.980916 1_545
H20 O27 1.003012 1_555
H20 O6 1.614872 1_555
H21 O26 1.003012 1_555
H21 O34 1.614872 1_555
H22 O25 1.003012 1_555
H22 O33 1.614872 1_555
H23 O24 1.003012 1_555
H23 O32 1.614872 1_555
H24 O23 1.021151 1_555
H24 O7 1.515265 1_555
H25 O22 1.021151 1_555
H25 O35 1.515265 1_555
H26 O21 1.021151 1_555
H26 O5 1.515265 1_555
H27 O20 1.021151 1_555
H27 O4 1.515265 1_555
H28 O1 1.019630 1_555
H28 O7 1.516723 1_555
H29 O17 1.019630 1_554
H29 O35 1.516723 1_555
H30 O3 1.019630 1_555
H30 O5 1.516723 1_555
H31 O2 1.019630 1_556
H31 O4 1.516723 1_555
O0 P2 1.553241 1_555
O1 P5 1.556777 1_555
O2 P6 1.556777 1_455
O3 P7 1.556777 1_555
O4 P3 1.496988 1_555
O5 P2 1.496988 1_555
O7 P0 1.496988 1_555
O8 P3 1.547910 1_555
O9 P2 1.547910 1_555
O10 P1 1.547910 1_555
O11 P0 1.547914 1_555
O12 P3 1.551894 1_555
O13 P2 1.551894 1_554
O14 P1 1.551894 1_555
O15 P0 1.551894 1_556
O16 P3 1.553241 1_555
O17 P4 1.556777 1_655
O18 P1 1.553241 1_555
O19 P0 1.553241 1_555
O20 P4 1.545741 1_555
O21 P5 1.545741 1_555
O22 P6 1.545741 1_555
O23 P7 1.545741 1_555
O24 P4 1.544156 1_555
O25 P5 1.544156 1_555
O26 P6 1.544156 1_555
O27 P7 1.544156 1_555
O28 P4 1.506524 1_554
O29 P5 1.506524 1_555
O30 P6 1.506524 1_556
O31 P7 1.506524 1_555
O35 P1 1.496988 1_555
