# generated using pymatgen
data_Te2I
_symmetry_space_group_name_H-M   'P 1'
_cell_length_a   4.15418712
_cell_length_b   14.05073951
_cell_length_c   16.24111846
_cell_angle_alpha   90.00000000
_cell_angle_beta   90.00000000
_cell_angle_gamma   90.00000000
_symmetry_Int_Tables_number   1
_chemical_formula_structural   Te2I
_chemical_formula_sum   'Te16 I8'
_cell_volume   947.98435769
_cell_formula_units_Z   8
loop_
 _symmetry_equiv_pos_site_id
 _symmetry_equiv_pos_as_xyz
  1  'x, y, z'
loop_
 _atom_site_type_symbol
 _atom_site_label
 _atom_site_symmetry_multiplicity
 _atom_site_fract_x
 _atom_site_fract_y
 _atom_site_fract_z
 _atom_site_occupancy
  Te  Te0  1  0.25000000  0.23403136  0.92195845  1
  Te  Te1  1  0.75000000  0.76596864  0.07804155  1
  Te  Te2  1  0.75000000  0.73403136  0.57804155  1
  Te  Te3  1  0.25000000  0.26596864  0.42195845  1
  Te  Te4  1  0.75000000  0.09094671  0.90683572  1
  Te  Te5  1  0.25000000  0.90905329  0.09316428  1
  Te  Te6  1  0.25000000  0.59094671  0.59316428  1
  Te  Te7  1  0.75000000  0.40905329  0.40683572  1
  Te  Te8  1  0.75000000  0.06303064  0.72675930  1
  Te  Te9  1  0.25000000  0.93696936  0.27324070  1
  Te  Te10  1  0.25000000  0.56303064  0.77324070  1
  Te  Te11  1  0.75000000  0.43696936  0.22675930  1
  Te  Te12  1  0.25000000  0.19775516  0.68708085  1
  Te  Te13  1  0.75000000  0.80224484  0.31291915  1
  Te  Te14  1  0.75000000  0.69775516  0.81291915  1
  Te  Te15  1  0.25000000  0.30224484  0.18708085  1
  I  I0  1  0.75000000  0.39449778  0.94406968  1
  I  I1  1  0.25000000  0.60550222  0.05593032  1
  I  I2  1  0.25000000  0.89449778  0.55593032  1
  I  I3  1  0.75000000  0.10550222  0.44406968  1
  I  I4  1  0.75000000  0.36086139  0.65145499  1
  I  I5  1  0.25000000  0.63913861  0.34854501  1
  I  I6  1  0.25000000  0.86086139  0.84854501  1
  I  I7  1  0.75000000  0.13913861  0.15145499  1
loop_
_geom_bond_atom_site_label_1
_geom_bond_atom_site_label_2
_geom_bond_distance
_geom_bond_site_symmetry_2
Te0 Te4 2.901126 1_555
Te0 Te4 2.901126 1_455
Te1 Te5 2.901126 1_655
Te1 Te5 2.901126 1_555
Te2 Te6 2.901126 1_555
Te2 Te6 2.901126 1_655
Te3 Te7 2.901126 1_455
Te3 Te7 2.901126 1_555
Te4 Te8 2.950828 1_555
Te5 Te9 2.950828 1_555
Te10 Te14 2.883222 1_555
Te10 Te14 2.883222 1_455
Te10 Te6 2.950828 1_555
Te11 Te15 2.883222 1_655
Te11 Te15 2.883222 1_555
Te11 Te7 2.950828 1_555
Te12 Te8 2.883222 1_455
Te12 Te8 2.883222 1_555
Te13 Te9 2.883222 1_655
Te13 Te9 2.883222 1_555
I0 Te0 3.086555 1_555
I0 Te0 3.086555 1_655
I1 Te1 3.086555 1_555
I1 Te1 3.086555 1_455
I2 Te2 3.086555 1_555
I2 Te2 3.086555 1_455
I3 Te3 3.086555 1_555
I3 Te3 3.086555 1_655
I4 Te12 3.146630 1_555
I4 Te12 3.146630 1_655
I5 Te13 3.146630 1_555
I5 Te13 3.146630 1_455
I6 Te14 3.146630 1_455
I6 Te14 3.146630 1_555
I7 Te15 3.146630 1_555
I7 Te15 3.146630 1_655
