# generated using pymatgen
data_NaMgFe(SeO4)2
_symmetry_space_group_name_H-M   'P 1'
_cell_length_a   5.27080621
_cell_length_b   5.34735820
_cell_length_c   7.01823502
_cell_angle_alpha   88.14316109
_cell_angle_beta   92.70554027
_cell_angle_gamma   67.85384300
_symmetry_Int_Tables_number   1
_chemical_formula_structural   NaMgFe(SeO4)2
_chemical_formula_sum   'Na1 Mg1 Fe1 Se2 O8'
_cell_volume   182.74114243
_cell_formula_units_Z   1
loop_
 _symmetry_equiv_pos_site_id
 _symmetry_equiv_pos_as_xyz
  1  'x, y, z'
loop_
 _atom_site_type_symbol
 _atom_site_label
 _atom_site_symmetry_multiplicity
 _atom_site_fract_x
 _atom_site_fract_y
 _atom_site_fract_z
 _atom_site_occupancy
  Na  Na0  1  0.00568108  0.99139049  0.52509699  1
  Mg  Mg0  1  0.38872689  0.27224566  0.28620225  1
  Fe  Fe0  1  0.00724180  0.97395618  0.97986277  1
  Se  Se0  1  0.34674850  0.35020482  0.77517618  1
  Se  Se1  1  0.62697087  0.66369304  0.20615838  1
  O  O0  1  0.76531308  0.32836852  0.27185114  1
  O  O1  1  0.24087494  0.30896399  0.54428677  1
  O  O2  1  0.23810168  0.69619212  0.77905396  1
  O  O3  1  0.29156428  0.68877338  0.20157163  1
  O  O4  1  0.76394240  0.72177935  0.01078335  1
  O  O5  1  0.70059284  0.22512047  0.77778654  1
  O  O6  1  0.24551857  0.17513009  0.04425320  1
  O  O7  1  0.65372307  0.86668189  0.37569483  1
loop_
_geom_bond_atom_site_label_1
_geom_bond_atom_site_label_2
_geom_bond_distance
_geom_bond_site_symmetry_2
Na0 O2 2.307117 1_555
Na0 O7 2.404147 1_455
Na0 O0 2.422750 1_465
Na0 O1 2.454576 1_565
Na0 O5 2.488093 1_465
Na0 O3 2.960975 1_555
Mg0 O6 1.988596 1_555
Mg0 O1 1.991884 1_555
Mg0 O0 2.122762 1_555
Mg0 O7 2.143304 1_545
Mg0 O3 2.145129 1_555
Fe0 O6 1.983759 1_566
Fe0 O5 2.109757 1_465
Fe0 O2 2.146598 1_555
Fe0 O4 2.195694 1_456
Fe0 O3 2.212601 1_556
O0 Se1 1.699527 1_555
O1 Se0 1.736786 1_555
O2 Se0 1.719756 1_555
O3 Se1 1.720452 1_555
O4 Se1 1.653108 1_555
O5 Se0 1.726724 1_555
O6 Se0 2.254889 1_554
O7 Se1 1.672447 1_555
