# generated using pymatgen
data_K2MgH4
_symmetry_space_group_name_H-M   'P 1'
_cell_length_a   4.00893382
_cell_length_b   4.00893553
_cell_length_c   7.34548949
_cell_angle_alpha   105.83595768
_cell_angle_beta   105.83595896
_cell_angle_gamma   90.00000126
_symmetry_Int_Tables_number   1
_chemical_formula_structural   K2MgH4
_chemical_formula_sum   'K2 Mg1 H4'
_cell_volume   108.90829912
_cell_formula_units_Z   1
loop_
 _symmetry_equiv_pos_site_id
 _symmetry_equiv_pos_as_xyz
  1  'x, y, z'
loop_
 _atom_site_type_symbol
 _atom_site_label
 _atom_site_symmetry_multiplicity
 _atom_site_fract_x
 _atom_site_fract_y
 _atom_site_fract_z
 _atom_site_occupancy
  K  K0  1  0.64392006  0.64392006  0.28783912  1
  K  K1  1  0.35607994  0.35607994  0.71216088  1
  Mg  Mg0  1  -0.00000000  0.00000000  0.00000000  1
  H  H0  1  0.50000000  0.00000000  0.00000000  1
  H  H1  1  -0.00000000  0.50000000  0.00000000  1
  H  H2  1  0.85194795  0.85194795  0.70389391  1
  H  H3  1  0.14805205  0.14805205  0.29610609  1
loop_
_geom_bond_atom_site_label_1
_geom_bond_atom_site_label_2
_geom_bond_distance
_geom_bond_site_symmetry_2
H0 Mg0 2.004467 1_555
H0 Mg0 2.004467 1_655
H0 K1 2.796865 1_554
H0 K0 2.796865 1_545
H0 K0 2.796868 1_555
H0 K1 2.796868 1_544
H1 Mg0 2.004468 1_555
H1 Mg0 2.004468 1_565
H1 K0 2.796864 1_455
H1 K1 2.796864 1_554
H1 K1 2.796867 1_454
H1 K0 2.796867 1_555
H2 Mg0 2.006552 1_666
H2 K0 2.819380 1_555
H2 K1 2.835290 1_665
H2 K1 2.835298 1_655
H2 K1 2.835298 1_565
H2 K1 2.835307 1_555
H3 Mg0 2.006552 1_555
H3 K1 2.819380 1_555
H3 K0 2.835290 1_445
H3 K0 2.835298 1_455
H3 K0 2.835298 1_545
H3 K0 2.835307 1_555
