# generated using pymatgen
data_MgNi4(PS)4
_symmetry_space_group_name_H-M   'P 1'
_cell_length_a   5.82287768
_cell_length_b   5.76308122
_cell_length_c   5.78899408
_cell_angle_alpha   91.26370536
_cell_angle_beta   91.26139407
_cell_angle_gamma   88.82595317
_symmetry_Int_Tables_number   1
_chemical_formula_structural   MgNi4(PS)4
_chemical_formula_sum   'Mg1 Ni4 P4 S4'
_cell_volume   194.13221908
_cell_formula_units_Z   1
loop_
 _symmetry_equiv_pos_site_id
 _symmetry_equiv_pos_as_xyz
  1  'x, y, z'
loop_
 _atom_site_type_symbol
 _atom_site_label
 _atom_site_symmetry_multiplicity
 _atom_site_fract_x
 _atom_site_fract_y
 _atom_site_fract_z
 _atom_site_occupancy
  Mg  Mg0  1  0.28970700  0.78233600  0.70994600  1
  Ni  Ni0  1  0.99136000  0.00729200  0.00259900  1
  Ni  Ni1  1  0.52193800  0.02099300  0.48035500  1
  Ni  Ni2  1  0.51280900  0.49624000  0.00900900  1
  Ni  Ni3  1  0.99571900  0.49049400  0.48839900  1
  P  P0  1  0.64569000  0.59946400  0.59550900  1
  P  P1  1  0.86794200  0.36580900  0.13150900  1
  P  P2  1  0.09847600  0.90351900  0.35696500  1
  P  P3  1  0.40500100  0.14284400  0.89727500  1
  S  S0  1  0.39843400  0.39826100  0.39421700  1
  S  S1  1  0.06780100  0.57587000  0.93206100  1
  S  S2  1  0.89892000  0.10584700  0.60304400  1
  S  S3  1  0.60382200  0.89674600  0.10149400  1
loop_
_geom_bond_atom_site_label_1
_geom_bond_atom_site_label_2
_geom_bond_distance
_geom_bond_site_symmetry_2
Mg0 S1 2.223150 1_555
Mg0 Ni1 2.392237 1_565
Mg0 P0 2.405498 1_555
Mg0 P2 2.415381 1_555
Mg0 P3 2.422607 1_565
Mg0 Ni3 2.707460 1_455
Mg0 Ni2 2.709722 1_556
Mg0 Ni0 2.740321 1_466
Mg0 S0 2.907914 1_555
Mg0 S3 2.952785 1_556
Mg0 S2 2.975232 1_465
Ni0 P2 2.222055 1_645
Ni0 P1 2.288480 1_555
Ni0 S2 2.439878 1_554
Ni0 S3 2.440840 1_545
Ni0 S1 2.542542 1_644
Ni0 P3 2.635538 1_654
Ni1 S0 2.336888 1_555
Ni1 S3 2.347993 1_545
Ni1 S2 2.349930 1_555
Ni1 P3 2.599998 1_555
Ni1 P0 2.616050 1_545
Ni1 P2 2.649173 1_545
Ni2 P3 2.221894 1_554
Ni2 P1 2.288967 1_555
Ni2 S0 2.423113 1_555
Ni2 S3 2.424496 1_555
Ni2 P0 2.616455 1_554
Ni2 S1 2.651972 1_554
Ni3 P0 2.217890 1_555
Ni3 P1 2.286300 1_555
Ni3 S2 2.409299 1_555
Ni3 S0 2.463954 1_655
Ni3 P2 2.600200 1_655
Ni3 S1 2.630585 1_655
P0 S0 2.170307 1_555
P1 S1 2.081232 1_654
P2 S2 2.164090 1_465
P3 S3 2.166998 1_546
