# generated using pymatgen
data_MgV4(O2F)4
_symmetry_space_group_name_H-M   'P 1'
_cell_length_a   5.10310188
_cell_length_b   9.32485373
_cell_length_c   5.15530075
_cell_angle_alpha   104.36820536
_cell_angle_beta   118.16110083
_cell_angle_gamma   77.35137366
_symmetry_Int_Tables_number   1
_chemical_formula_structural   MgV4(O2F)4
_chemical_formula_sum   'Mg1 V4 O8 F4'
_cell_volume   208.01837006
_cell_formula_units_Z   1
loop_
 _symmetry_equiv_pos_site_id
 _symmetry_equiv_pos_as_xyz
  1  'x, y, z'
loop_
 _atom_site_type_symbol
 _atom_site_label
 _atom_site_symmetry_multiplicity
 _atom_site_fract_x
 _atom_site_fract_y
 _atom_site_fract_z
 _atom_site_occupancy
  Mg  Mg0  1  0.39345892  0.80390188  0.58447430  1
  V  V0  1  0.01357912  0.99415746  0.02071627  1
  V  V1  1  0.71230831  0.74125259  0.22344212  1
  V  V2  1  0.53918736  0.47652076  0.55778650  1
  V  V3  1  0.29845271  0.23639195  0.78155880  1
  O  O0  1  0.37207918  0.88614507  0.24477194  1
  O  O1  1  0.74816164  0.88430775  0.98259579  1
  O  O2  1  0.28563873  0.37531283  0.54943142  1
  O  O3  1  0.68054463  0.63567414  0.43581367  1
  O  O4  1  0.19859787  0.13168226  0.95106790  1
  O  O5  1  0.50639787  0.63628277  0.83272411  1
  O  O6  1  0.62104666  0.14072712  0.80310248  1
  O  O7  1  0.86760059  0.38250635  0.72664959  1
  F  F0  1  0.11033407  0.65027192  0.26469920  1
  F  F1  1  0.03599155  0.12893403  0.39059799  1
  F  F2  1  0.45994548  0.38495224  0.13442198  1
  F  F3  1  0.00667534  0.87903588  0.61614593  1
loop_
_geom_bond_atom_site_label_1
_geom_bond_atom_site_label_2
_geom_bond_distance
_geom_bond_site_symmetry_2
Mg0 O0 2.028930 1_555
Mg0 O5 2.077295 1_555
Mg0 O1 2.091647 1_555
Mg0 O3 2.156647 1_555
O0 V0 1.863165 1_555
O0 V1 1.982720 1_555
O1 V0 1.782938 1_656
O1 V1 2.120838 1_556
O2 V2 1.740301 1_555
O2 V3 1.942384 1_555
O3 V1 1.722367 1_555
O3 V2 2.116224 1_555
O4 V3 1.743089 1_555
O4 V0 1.934867 1_546
O5 V2 1.822931 1_555
O5 V1 1.895682 1_556
O6 V3 1.658806 1_555
O6 V0 2.140074 1_646
O7 V2 1.641136 1_555
O7 V3 2.250051 1_655
F0 V1 1.953903 1_455
F0 Mg0 2.084125 1_555
F0 V2 2.497683 1_555
F1 V0 1.973917 1_545
F1 V3 1.974237 1_555
F2 V3 1.934328 1_554
F2 V2 2.012322 1_555
F3 Mg0 2.013751 1_555
F3 V0 2.083193 1_556
F3 V1 2.165556 1_455
