# generated using pymatgen
data_CaInRh
_symmetry_space_group_name_H-M   'P 1'
_cell_length_a   4.35602617
_cell_length_b   7.30703061
_cell_length_c   8.25971457
_cell_angle_alpha   90.00000000
_cell_angle_beta   90.00000000
_cell_angle_gamma   90.00000000
_symmetry_Int_Tables_number   1
_chemical_formula_structural   CaInRh
_chemical_formula_sum   'Ca4 In4 Rh4'
_cell_volume   262.90354768
_cell_formula_units_Z   4
loop_
 _symmetry_equiv_pos_site_id
 _symmetry_equiv_pos_as_xyz
  1  'x, y, z'
loop_
 _atom_site_type_symbol
 _atom_site_label
 _atom_site_symmetry_multiplicity
 _atom_site_fract_x
 _atom_site_fract_y
 _atom_site_fract_z
 _atom_site_occupancy
  Ca  Ca0  1  0.75000000  0.97474484  0.32325922  1
  Ca  Ca1  1  0.25000000  0.02525516  0.67674078  1
  Ca  Ca2  1  0.75000000  0.47474484  0.17674078  1
  Ca  Ca3  1  0.25000000  0.52525516  0.82325922  1
  In  In0  1  0.75000000  0.84967782  0.93345032  1
  In  In1  1  0.25000000  0.15032218  0.06654968  1
  In  In2  1  0.75000000  0.34967782  0.56654968  1
  In  In3  1  0.25000000  0.65032218  0.43345032  1
  Rh  Rh0  1  0.75000000  0.72277101  0.62175874  1
  Rh  Rh1  1  0.25000000  0.27722899  0.37824126  1
  Rh  Rh2  1  0.75000000  0.22277101  0.87824126  1
  Rh  Rh3  1  0.25000000  0.77722899  0.12175874  1
loop_
_geom_bond_atom_site_label_1
_geom_bond_atom_site_label_2
_geom_bond_distance
_geom_bond_site_symmetry_2
Ca0 Rh0 3.077132 1_555
Ca0 Rh3 3.097861 1_655
Ca0 Rh3 3.097861 1_555
Ca0 Rh1 3.136118 1_665
Ca0 Rh1 3.136118 1_565
Ca0 In1 3.299329 1_565
Ca0 In1 3.299329 1_665
Ca0 In3 3.345399 1_555
Ca0 In3 3.345399 1_655
Ca0 In0 3.346893 1_554
Ca0 In2 3.397616 1_565
Ca1 Rh1 3.077132 1_555
Ca1 Rh2 3.097861 1_555
Ca1 Rh2 3.097861 1_455
Ca1 Rh0 3.136118 1_445
Ca1 Rh0 3.136118 1_545
Ca1 In0 3.299329 1_445
Ca1 In0 3.299329 1_545
Ca1 In2 3.345399 1_555
Ca1 In2 3.345399 1_455
Ca1 In1 3.346893 1_556
Ca1 In3 3.397616 1_545
Ca2 Rh2 3.077132 1_554
Ca2 Rh1 3.097861 1_555
Ca2 Rh1 3.097861 1_655
Ca2 Rh3 3.136118 1_655
Ca2 Rh3 3.136118 1_555
Ca2 In3 3.299329 1_555
Ca2 In3 3.299329 1_655
Ca2 In1 3.345399 1_555
Ca2 In1 3.345399 1_655
Ca2 In2 3.346893 1_555
Ca2 In0 3.397616 1_554
Ca3 Rh3 3.077132 1_556
Ca3 Rh0 3.097861 1_555
Ca3 Rh0 3.097861 1_455
Ca3 Rh2 3.136118 1_455
Ca3 Rh2 3.136118 1_555
Ca3 In2 3.299329 1_555
Ca3 In2 3.299329 1_455
Ca3 In0 3.345399 1_555
Ca3 In0 3.345399 1_455
Ca3 In3 3.346893 1_555
Ca3 In1 3.397616 1_556
In0 Rh3 2.728219 1_556
In0 Rh3 2.728219 1_656
In0 Rh0 2.736398 1_555
In0 Rh2 2.764079 1_565
In1 Rh2 2.728219 1_454
In1 Rh2 2.728219 1_554
In1 Rh1 2.736398 1_555
In1 Rh3 2.764079 1_545
In2 Rh1 2.728219 1_555
In2 Rh1 2.728219 1_655
In2 Rh2 2.736398 1_555
In2 Rh0 2.764079 1_555
In3 Rh0 2.728219 1_455
In3 Rh0 2.728219 1_555
In3 Rh3 2.736398 1_555
In3 Rh1 2.764079 1_555
