# generated using pymatgen
data_UAl3Ni2
_symmetry_space_group_name_H-M   'P 1'
_cell_length_a   5.14723005
_cell_length_b   5.14723005
_cell_length_c   4.03189900
_cell_angle_alpha   90.00000000
_cell_angle_beta   90.00000000
_cell_angle_gamma   120.00000068
_symmetry_Int_Tables_number   1
_chemical_formula_structural   UAl3Ni2
_chemical_formula_sum   'U1 Al3 Ni2'
_cell_volume   92.50973388
_cell_formula_units_Z   1
loop_
 _symmetry_equiv_pos_site_id
 _symmetry_equiv_pos_as_xyz
  1  'x, y, z'
loop_
 _atom_site_type_symbol
 _atom_site_label
 _atom_site_symmetry_multiplicity
 _atom_site_fract_x
 _atom_site_fract_y
 _atom_site_fract_z
 _atom_site_occupancy
  U  U0  1  0.00000000  0.00000000  0.00000000  1
  Al  Al0  1  0.00000000  0.50000000  0.50000000  1
  Al  Al1  1  0.50000000  0.50000000  0.50000000  1
  Al  Al2  1  0.50000000  0.00000000  0.50000000  1
  Ni  Ni0  1  0.33333300  0.66666700  0.00000000  1
  Ni  Ni1  1  0.66666700  0.33333300  0.00000000  1
loop_
_geom_bond_atom_site_label_1
_geom_bond_atom_site_label_2
_geom_bond_distance
_geom_bond_site_symmetry_2
Al0 Ni1 2.504372 1_455
Al0 Ni0 2.504372 1_555
Al0 Ni1 2.504372 1_456
Al0 Ni0 2.504372 1_556
Al1 Ni0 2.504375 1_556
Al1 Ni1 2.504375 1_555
Al1 Ni0 2.504375 1_555
Al1 Ni1 2.504375 1_556
Al2 Ni0 2.504372 1_545
Al2 Ni1 2.504372 1_556
Al2 Ni1 2.504372 1_555
Al2 Ni0 2.504372 1_546
Ni0 U0 2.971752 1_565
Ni0 U0 2.971756 1_555
Ni0 U0 2.971756 1_665
Ni1 U0 2.971752 1_655
Ni1 U0 2.971756 1_555
Ni1 U0 2.971756 1_665
