# generated using pymatgen
data_Hf5Al3
_symmetry_space_group_name_H-M   'P 1'
_cell_length_a   8.07586084
_cell_length_b   8.07586197
_cell_length_c   5.67576631
_cell_angle_alpha   90.00000000
_cell_angle_beta   90.00000000
_cell_angle_gamma   119.99999947
_symmetry_Int_Tables_number   1
_chemical_formula_structural   Hf5Al3
_chemical_formula_sum   'Hf10 Al6'
_cell_volume   320.57736439
_cell_formula_units_Z   2
loop_
 _symmetry_equiv_pos_site_id
 _symmetry_equiv_pos_as_xyz
  1  'x, y, z'
loop_
 _atom_site_type_symbol
 _atom_site_label
 _atom_site_symmetry_multiplicity
 _atom_site_fract_x
 _atom_site_fract_y
 _atom_site_fract_z
 _atom_site_occupancy
  Hf  Hf0  1  -0.00000000  0.76162487  0.75000000  1
  Hf  Hf1  1  0.00000000  0.23837513  0.25000000  1
  Hf  Hf2  1  0.76162487  0.76162487  0.25000000  1
  Hf  Hf3  1  0.76162487  0.00000000  0.75000000  1
  Hf  Hf4  1  0.23837513  0.23837513  0.75000000  1
  Hf  Hf5  1  0.23837513  -0.00000000  0.25000000  1
  Hf  Hf6  1  0.33333300  0.66666700  0.50000000  1
  Hf  Hf7  1  0.66666700  0.33333300  0.00000000  1
  Hf  Hf8  1  0.66666700  0.33333300  0.50000000  1
  Hf  Hf9  1  0.33333300  0.66666700  0.00000000  1
  Al  Al0  1  0.39677323  -0.00000000  0.75000000  1
  Al  Al1  1  0.39677323  0.39677323  0.25000000  1
  Al  Al2  1  -0.00000000  0.60322677  0.25000000  1
  Al  Al3  1  0.00000000  0.39677323  0.75000000  1
  Al  Al4  1  0.60322677  0.60322677  0.75000000  1
  Al  Al5  1  0.60322677  0.00000000  0.25000000  1
loop_
_geom_bond_atom_site_label_1
_geom_bond_atom_site_label_2
_geom_bond_distance
_geom_bond_site_symmetry_2
Hf6 Hf9 2.837883 1_555
Hf6 Hf9 2.837883 1_556
Hf7 Hf8 2.837883 1_555
Hf7 Hf8 2.837883 1_554
Al0 Hf0 2.793721 1_545
Al0 Hf4 2.793721 1_555
Al0 Hf9 2.853648 1_546
Al0 Hf6 2.853648 1_545
Al0 Hf7 2.853650 1_556
Al0 Hf8 2.853650 1_555
Al0 Hf3 2.946491 1_555
Al0 Hf5 3.112866 1_555
Al0 Hf5 3.112866 1_556
Al1 Hf1 2.793721 1_555
Al1 Hf5 2.793721 1_555
Al1 Hf7 2.853654 1_555
Al1 Hf8 2.853654 1_555
Al1 Hf6 2.853654 1_555
Al1 Hf9 2.853654 1_555
Al1 Hf2 2.946491 1_555
Al1 Hf4 3.112866 1_555
Al1 Hf4 3.112866 1_554
Al2 Hf2 2.793721 1_455
Al2 Hf5 2.793721 1_565
Al2 Hf9 2.853647 1_555
Al2 Hf6 2.853647 1_555
Al2 Hf7 2.853650 1_455
Al2 Hf8 2.853650 1_455
Al2 Hf1 2.946491 1_555
Al2 Hf0 3.112866 1_555
Al2 Hf0 3.112866 1_554
Al3 Hf4 2.793721 1_555
Al3 Hf3 2.793721 1_455
Al3 Hf7 2.853647 1_456
Al3 Hf8 2.853647 1_455
Al3 Hf9 2.853650 1_556
Al3 Hf6 2.853650 1_555
Al3 Hf0 2.946491 1_555
Al3 Hf1 3.112866 1_556
Al3 Hf1 3.112866 1_555
Al4 Hf0 2.793721 1_655
Al4 Hf3 2.793721 1_565
Al4 Hf9 2.853654 1_556
Al4 Hf6 2.853654 1_555
Al4 Hf7 2.853654 1_556
Al4 Hf8 2.853654 1_555
Al4 Hf4 2.946491 1_555
Al4 Hf2 3.112866 1_555
Al4 Hf2 3.112866 1_556
Al5 Hf1 2.793721 1_655
Al5 Hf2 2.793721 1_545
Al5 Hf7 2.853648 1_555
Al5 Hf8 2.853648 1_555
Al5 Hf6 2.853650 1_545
Al5 Hf9 2.853650 1_545
Al5 Hf5 2.946491 1_555
Al5 Hf3 3.112866 1_554
Al5 Hf3 3.112866 1_555
