# generated using pymatgen
data_Na3LaZrSi(PO6)2
_symmetry_space_group_name_H-M   'P 1'
_cell_length_a   9.45169852
_cell_length_b   9.45169816
_cell_length_c   23.15414298
_cell_angle_alpha   89.89087736
_cell_angle_beta   90.10912264
_cell_angle_gamma   119.74602351
_symmetry_Int_Tables_number   1
_chemical_formula_structural   Na3LaZrSi(PO6)2
_chemical_formula_sum   'Na18 La6 Zr6 Si6 P12 O72'
_cell_volume   1795.90672500
_cell_formula_units_Z   6
loop_
 _symmetry_equiv_pos_site_id
 _symmetry_equiv_pos_as_xyz
  1  'x, y, z'
loop_
 _atom_site_type_symbol
 _atom_site_label
 _atom_site_symmetry_multiplicity
 _atom_site_fract_x
 _atom_site_fract_y
 _atom_site_fract_z
 _atom_site_occupancy
  Na  Na0  1  0.00249120  0.98966075  0.50002687  1
  Na  Na1  1  0.01033925  0.99750880  0.00002687  1
  Na  Na2  1  0.66654946  0.31879284  0.83369946  1
  Na  Na3  1  0.68120716  0.33345054  0.33369946  1
  Na  Na4  1  0.34803085  0.67633877  0.16685525  1
  Na  Na5  1  0.32366123  0.65196915  0.66685525  1
  Na  Na6  1  0.36198383  0.35977114  0.24686585  1
  Na  Na7  1  0.99741528  0.63622620  0.24563330  1
  Na  Na8  1  0.64022886  0.63801617  0.74686585  1
  Na  Na9  1  0.36377380  0.00258472  0.74563330  1
  Na  Na10  1  0.04243082  0.70361030  0.57791869  1
  Na  Na11  1  0.65232049  0.96933019  0.58471206  1
  Na  Na12  1  0.29638970  0.95756918  0.07791869  1
  Na  Na13  1  0.03066981  0.34767951  0.08471206  1
  Na  Na14  1  0.98066715  0.68057030  0.91856325  1
  Na  Na15  1  0.69211028  0.02553793  0.91039788  1
  Na  Na16  1  0.97446207  0.30788972  0.41039788  1
  Na  Na17  1  0.31942970  0.01933285  0.41856325  1
  La  La0  1  0.98018587  0.98795203  0.34826677  1
  La  La1  1  0.01204797  0.01981413  0.84826677  1
  La  La2  1  0.67100928  0.32651102  0.68231904  1
  La  La3  1  0.67348898  0.32899072  0.18231904  1
  La  La4  1  0.33829794  0.66195346  0.01442025  1
  La  La5  1  0.33804654  0.66170206  0.51442025  1
  Zr  Zr0  1  0.00638476  0.00986910  0.64929344  1
  Zr  Zr1  1  0.99013090  0.99361524  0.14929344  1
  Zr  Zr2  1  0.66180452  0.33895235  0.98268262  1
  Zr  Zr3  1  0.66104765  0.33819548  0.48268262  1
  Zr  Zr4  1  0.33050891  0.66487695  0.31615602  1
  Zr  Zr5  1  0.33512305  0.66949109  0.81615602  1
  Si  Si0  1  0.01396792  0.31078610  0.25214926  1
  Si  Si1  1  0.68921390  0.98603208  0.75214926  1
  Si  Si2  1  0.35837491  0.03549090  0.58368579  1
  Si  Si3  1  0.96450910  0.64162509  0.08368579  1
  Si  Si4  1  0.34409013  0.97337874  0.91894398  1
  Si  Si5  1  0.02662126  0.65590987  0.41894398  1
  P  P0  1  0.28830800  0.98700895  0.25088977  1
  P  P1  1  0.68847659  0.70178469  0.24759983  1
  P  P2  1  0.29821531  0.31152341  0.74759983  1
  P  P3  1  0.01299105  0.71169200  0.75088977  1
  P  P4  1  0.95906563  0.31932876  0.57983072  1
  P  P5  1  0.68468541  0.64356845  0.58651797  1
  P  P6  1  0.68067124  0.04093437  0.07983072  1
  P  P7  1  0.35643155  0.31531459  0.08651797  1
  P  P8  1  0.63132537  0.65489665  0.91279353  1
  P  P9  1  0.02198681  0.37511190  0.91900785  1
  P  P10  1  0.62488810  0.97801319  0.41900785  1
  P  P11  1  0.34510335  0.36867463  0.41279353  1
  O  O0  1  0.21513026  0.00788074  0.30694917  1
  O  O1  1  0.79251115  0.76160435  0.30214149  1
  O  O2  1  0.99947914  0.21961747  0.31262278  1
  O  O3  1  0.23839565  0.20748885  0.80214149  1
  O  O4  1  0.99211926  0.78486974  0.80694917  1
  O  O5  1  0.78038253  0.00052086  0.81262278  1
  O  O6  1  0.79873416  0.97392066  0.69631740  1
  O  O7  1  0.18345310  0.20898746  0.69592200  1
  O  O8  1  0.03516132  0.82997074  0.69853520  1
  O  O9  1  0.79101254  0.81654690  0.19592200  1
  O  O10  1  0.02607934  0.20126584  0.19631740  1
  O  O11  1  0.17002926  0.96483868  0.19853520  1
  O  O12  1  0.88878265  0.35208913  0.63414070  1
  O  O13  1  0.46123834  0.10656365  0.64280960  1
  O  O14  1  0.66381691  0.55650802  0.64393475  1
  O  O15  1  0.89343635  0.53876166  0.14280960  1
  O  O16  1  0.64791087  0.11121735  0.13414070  1
  O  O17  1  0.44349198  0.33618309  0.14393475  1
  O  O18  1  0.46302466  0.30530765  0.03532992  1
  O  O19  1  0.84322099  0.53430313  0.02784520  1
  O  O20  1  0.69906440  0.15522878  0.02701134  1
  O  O21  1  0.46569687  0.15677901  0.52784520  1
  O  O22  1  0.69469235  0.53697534  0.53532992  1
  O  O23  1  0.84477122  0.30093560  0.52701134  1
  O  O24  1  0.55966798  0.68851632  0.96664010  1
  O  O25  1  0.10664699  0.43617915  0.97708520  1
  O  O26  1  0.32196002  0.87394372  0.97837754  1
  O  O27  1  0.56382085  0.89335301  0.47708520  1
  O  O28  1  0.31148368  0.44033202  0.46664010  1
  O  O29  1  0.12605628  0.67803998  0.47837754  1
  O  O30  1  0.13622656  0.63657362  0.36369666  1
  O  O31  1  0.51065031  0.86927800  0.36862994  1
  O  O32  1  0.36297173  0.47952110  0.35918945  1
  O  O33  1  0.13072200  0.48934969  0.86862994  1
  O  O34  1  0.36342638  0.86377344  0.86369666  1
  O  O35  1  0.52047890  0.63702827  0.85918945  1
  O  O36  1  0.01661909  0.82223379  0.41395990  1
  O  O37  1  0.80508812  0.02145822  0.41348405  1
  O  O38  1  0.20083423  0.19281286  0.40793394  1
  O  O39  1  0.97854178  0.19491188  0.91348405  1
  O  O40  1  0.17776621  0.98338091  0.91395990  1
  O  O41  1  0.80718713  0.79916577  0.90793394  1
  O  O42  1  0.95530670  0.15145179  0.58569136  1
  O  O43  1  0.17512171  0.01967361  0.58788430  1
  O  O44  1  0.85173260  0.80930749  0.58632483  1
  O  O45  1  0.98032639  0.82487829  0.08788430  1
  O  O46  1  0.84854821  0.04469330  0.08569136  1
  O  O47  1  0.19069251  0.14826740  0.08632483  1
  O  O48  1  0.64600685  0.13302110  0.75017019  1
  O  O49  1  0.47547661  0.34794574  0.74056847  1
  O  O50  1  0.86027204  0.54363203  0.74414738  1
  O  O51  1  0.65205426  0.52452339  0.24056847  1
  O  O52  1  0.86697890  0.35399315  0.25017019  1
  O  O53  1  0.45636797  0.13972796  0.24414738  1
  O  O54  1  0.63946998  0.49402440  0.91932676  1
  O  O55  1  0.85720195  0.37968067  0.91831911  1
  O  O56  1  0.51869901  0.14982482  0.92144475  1
  O  O57  1  0.62031933  0.14279805  0.41831911  1
  O  O58  1  0.50597560  0.36053002  0.41932676  1
  O  O59  1  0.85017518  0.48130099  0.42144475  1
  O  O60  1  0.31665978  0.45359101  0.07993812  1
  O  O61  1  0.14933188  0.66696915  0.07976634  1
  O  O62  1  0.53666163  0.86741366  0.07485180  1
  O  O63  1  0.33303085  0.85066812  0.57976634  1
  O  O64  1  0.54640899  0.68334022  0.57993812  1
  O  O65  1  0.13258634  0.46333837  0.57485180  1
  O  O66  1  0.29719238  0.82544325  0.25386499  1
  O  O67  1  0.52407211  0.70086621  0.25264409  1
  O  O68  1  0.19178650  0.48979328  0.25327172  1
  O  O69  1  0.29913379  0.47592789  0.75264409  1
  O  O70  1  0.17455675  0.70280762  0.75386499  1
  O  O71  1  0.51020672  0.80821350  0.75327172  1
loop_
_geom_bond_atom_site_label_1
_geom_bond_atom_site_label_2
_geom_bond_distance
_geom_bond_site_symmetry_2
Na0 O43 2.532043 1_565
Na0 O44 2.552724 1_455
Na0 O36 2.591531 1_555
Na0 O42 2.676422 1_465
Na0 O37 2.850742 1_465
Na0 O38 2.859343 1_565
Na1 O45 2.532043 1_455
Na1 O47 2.552724 1_565
Na1 O40 2.591531 1_554
Na1 O46 2.676422 1_465
Na1 O39 2.850741 1_464
Na1 O41 2.859343 1_454
Na2 O55 2.525665 1_555
Na2 O56 2.532761 1_555
Na2 O48 2.556264 1_555
Na2 O54 2.678530 1_555
Na2 O50 2.881769 1_555
Na2 O49 2.909304 1_555
Na3 O57 2.525665 1_555
Na3 O59 2.532761 1_555
Na3 O52 2.556264 1_555
Na3 O58 2.678531 1_555
Na3 O53 2.881769 1_555
Na3 O51 2.909304 1_555
Na4 O67 2.524742 1_555
Na4 O68 2.589838 1_555
Na4 O66 2.638602 1_555
Na4 O61 2.724381 1_555
Na4 O62 2.789796 1_555
Na4 O60 2.822220 1_555
Na5 O69 2.524742 1_555
Na5 O71 2.589838 1_555
Na5 O70 2.638602 1_555
Na5 O63 2.724381 1_555
Na5 O65 2.789796 1_555
Na5 O64 2.822220 1_555
Na6 O51 2.393112 1_555
Na6 O68 2.466448 1_555
Na6 O17 2.550037 1_555
Na6 O53 2.639523 1_555
Na6 O67 2.803285 1_555
Na6 O32 2.836498 1_555
Na6 O10 2.994454 1_555
Na7 O52 2.320113 1_555
Na7 O66 2.496764 1_655
Na7 O15 2.565875 1_555
Na7 O68 2.800514 1_655
Na7 O51 2.891871 1_555
Na7 O11 2.909192 1_655
Na7 O1 3.026543 1_555
Na7 O30 3.029246 1_655
Na8 O49 2.393112 1_555
Na8 O71 2.466448 1_555
Na8 O14 2.550037 1_555
Na8 O50 2.639523 1_555
Na8 O69 2.803285 1_555
Na8 O35 2.836498 1_555
Na8 O6 2.994454 1_555
Na9 O48 2.320114 1_555
Na9 O70 2.496764 1_545
Na9 O13 2.565875 1_555
Na9 O71 2.800514 1_545
Na9 O49 2.891871 1_555
Na9 O8 2.909192 1_545
Na9 O3 3.026543 1_555
Na9 O34 3.029246 1_545
Na10 O63 2.385237 1_555
Na10 O44 2.464454 1_455
Na10 O29 2.488739 1_555
Na10 O43 2.614204 1_565
Na10 O65 2.794569 1_555
Na11 O64 2.374155 1_555
Na11 O42 2.504565 1_565
Na11 O27 2.613099 1_555
Na11 O63 2.649306 1_555
Na11 O6 2.919225 1_555
Na12 O61 2.385237 1_555
Na12 O47 2.464454 1_565
Na12 O26 2.488739 1_554
Na12 O45 2.614204 1_455
Na12 O62 2.794569 1_555
Na13 O60 2.374155 1_555
Na13 O46 2.504565 1_455
Na13 O25 2.613099 1_554
Na13 O61 2.649306 1_555
Na13 O10 2.919225 1_555
Na14 O41 2.413888 1_555
Na14 O55 2.481231 1_555
Na14 O40 2.526276 1_655
Na14 O4 2.747319 1_555
Na14 O54 2.804780 1_555
Na14 O19 2.866792 1_556
Na15 O39 2.365631 1_555
Na15 O56 2.458692 1_555
Na15 O5 2.466219 1_555
Na15 O41 2.841509 1_545
Na16 O37 2.365631 1_555
Na16 O59 2.458692 1_555
Na16 O2 2.466219 1_555
Na16 O38 2.841509 1_655
Na17 O38 2.413887 1_555
Na17 O57 2.481232 1_555
Na17 O36 2.526276 1_545
Na17 O0 2.747319 1_555
Na17 O58 2.804780 1_555
Na17 O21 2.866792 1_555
La0 O1 2.258270 1_555
La0 O2 2.259722 1_565
La0 O36 2.325884 1_655
La0 O0 2.339704 1_665
La0 O37 2.377162 1_565
La0 O38 2.449348 1_665
La1 O3 2.258270 1_555
La1 O5 2.259722 1_455
La1 O40 2.325884 1_545
La1 O4 2.339704 1_445
La1 O39 2.377162 1_455
La1 O41 2.449348 1_445
La2 O13 2.236049 1_555
La2 O12 2.247998 1_555
La2 O48 2.330269 1_555
La2 O49 2.378589 1_555
La2 O14 2.378915 1_555
La2 O50 2.412351 1_555
La3 O15 2.236049 1_555
La3 O16 2.247998 1_555
La3 O52 2.330269 1_555
La3 O51 2.378589 1_555
La3 O17 2.378915 1_555
La3 O53 2.412351 1_555
La4 O26 2.243915 1_554
La4 O24 2.269638 1_554
La4 O25 2.336319 1_554
La4 O61 2.361372 1_555
La4 O62 2.373105 1_555
La4 O60 2.410752 1_555
La5 O29 2.243915 1_555
La5 O28 2.269638 1_555
La5 O27 2.336319 1_555
La5 O63 2.361372 1_555
La5 O65 2.373105 1_555
La5 O64 2.410752 1_555
O0 P0 1.530332 1_545
O1 P1 1.525679 1_555
O2 Si0 1.612734 1_655
O3 P2 1.525679 1_555
O4 P3 1.530332 1_655
O5 Si1 1.612734 1_545
O6 Si1 1.696781 1_555
O6 Zr0 2.120832 1_665
O7 P2 1.582364 1_555
O7 Zr0 2.093766 1_555
O8 P3 1.589505 1_555
O8 Zr0 2.171508 1_565
O9 P1 1.582364 1_555
O9 Zr1 2.093766 1_555
O10 Si0 1.696781 1_555
O10 Zr1 2.120832 1_445
O11 P0 1.589505 1_555
O11 Zr1 2.171508 1_455
O12 P4 1.525532 1_555
O13 Si2 1.618920 1_555
O14 P5 1.522890 1_555
O15 Si3 1.618920 1_555
O16 P6 1.525532 1_555
O17 P7 1.522890 1_555
O18 P7 1.590045 1_555
O18 Zr2 2.128706 1_554
O19 Si3 1.691233 1_555
O19 Zr2 2.074055 1_554
O20 P6 1.581878 1_555
O20 Zr2 2.188975 1_554
O21 Si2 1.691233 1_555
O21 Zr3 2.074055 1_555
O22 P5 1.590045 1_555
O22 Zr3 2.128706 1_555
O23 P4 1.581878 1_555
O23 Zr3 2.188975 1_555
O24 P8 1.527224 1_555
O25 P9 1.523907 1_555
O26 Si4 1.619220 1_555
O27 P10 1.523907 1_555
O28 P11 1.527224 1_555
O29 Si5 1.619220 1_555
O30 Si5 1.713705 1_555
O30 Zr4 2.043123 1_555
O31 P10 1.575218 1_555
O31 Zr4 2.201027 1_555
O32 P11 1.576993 1_555
O32 Zr4 2.163748 1_555
O33 P9 1.575218 1_555
O33 Zr5 2.201027 1_555
O34 Si4 1.713705 1_555
O34 Zr5 2.043123 1_555
O35 P8 1.576993 1_555
O35 Zr5 2.163748 1_555
O36 Si5 1.624905 1_555
O37 P10 1.546763 1_545
O38 P11 1.544643 1_555
O39 P9 1.546763 1_655
O40 Si4 1.624905 1_555
O41 P8 1.544643 1_555
O42 P4 1.574999 1_555
O42 Zr0 2.196227 1_655
O43 Si2 1.665967 1_555
O43 Zr0 2.106026 1_555
O44 P5 1.578774 1_555
O44 Zr0 2.260229 1_665
O45 Si3 1.665967 1_555
O45 Zr1 2.106026 1_555
O46 P6 1.574999 1_555
O46 Zr1 2.196227 1_545
O47 P7 1.578774 1_555
O47 Zr1 2.260229 1_445
O48 Si1 1.631472 1_545
O49 P2 1.542900 1_555
O50 P3 1.534916 1_655
O51 P1 1.542900 1_555
O52 Si0 1.631472 1_655
O53 P0 1.534916 1_545
O54 P8 1.567165 1_555
O54 Zr2 2.154629 1_555
O55 P9 1.579417 1_655
O55 Zr2 2.254497 1_555
O56 Si4 1.666473 1_545
O56 Zr2 2.153713 1_555
O57 P10 1.579417 1_545
O57 Zr3 2.254497 1_555
O58 P11 1.567165 1_555
O58 Zr3 2.154629 1_555
O59 Si5 1.666473 1_655
O59 Zr3 2.153713 1_555
O60 P7 1.535960 1_555
O61 Si3 1.643934 1_455
O62 P6 1.529943 1_565
O63 Si2 1.643934 1_565
O64 P5 1.535960 1_555
O65 P4 1.529943 1_455
O66 P0 1.571803 1_555
O66 Zr4 2.224121 1_555
O67 P1 1.554229 1_555
O67 Zr4 2.239675 1_555
O68 Si0 1.693002 1_555
O68 Zr4 2.103922 1_555
O69 P2 1.554229 1_555
O69 Zr5 2.239675 1_555
O70 P3 1.571803 1_555
O70 Zr5 2.224121 1_555
O71 Si1 1.693002 1_555
O71 Zr5 2.103923 1_555
