# generated using pymatgen
data_RhCl3
_symmetry_space_group_name_H-M   'P 1'
_cell_length_a   6.00048139
_cell_length_b   6.00047968
_cell_length_c   6.20098642
_cell_angle_alpha   99.09263555
_cell_angle_beta   99.09260571
_cell_angle_gamma   119.99922306
_symmetry_Int_Tables_number   1
_chemical_formula_structural   RhCl3
_chemical_formula_sum   'Rh2 Cl6'
_cell_volume   183.44843663
_cell_formula_units_Z   2
loop_
 _symmetry_equiv_pos_site_id
 _symmetry_equiv_pos_as_xyz
  1  'x, y, z'
loop_
 _atom_site_type_symbol
 _atom_site_label
 _atom_site_symmetry_multiplicity
 _atom_site_fract_x
 _atom_site_fract_y
 _atom_site_fract_z
 _atom_site_occupancy
  Rh  Rh0  1  0.16664375  0.83335625  -0.00000000  1
  Rh  Rh1  1  0.83335625  0.16664375  0.00000000  1
  Cl  Cl0  1  0.92422239  0.57279534  0.22317285  1
  Cl  Cl1  1  0.42720466  0.07577761  0.77682715  1
  Cl  Cl2  1  0.77830611  0.77830611  0.77618475  1
  Cl  Cl3  1  0.22169389  0.22169389  0.22381525  1
  Cl  Cl4  1  0.57279534  0.92422239  0.22317285  1
  Cl  Cl5  1  0.07577761  0.42720466  0.77682715  1
loop_
_geom_bond_atom_site_label_1
_geom_bond_atom_site_label_2
_geom_bond_distance
_geom_bond_site_symmetry_2
Cl0 Rh1 2.349187 1_555
Cl0 Rh0 2.349787 1_655
Cl1 Rh1 2.349188 1_556
Cl1 Rh0 2.349787 1_546
Cl2 Rh1 2.351261 1_566
Cl2 Rh0 2.351262 1_656
Cl3 Rh0 2.351261 1_545
Cl3 Rh1 2.351262 1_455
Cl4 Rh0 2.349188 1_555
Cl4 Rh1 2.349787 1_565
Cl5 Rh0 2.349187 1_556
Cl5 Rh1 2.349787 1_456
