# generated using pymatgen
data_MgNb4VO12
_symmetry_space_group_name_H-M   'P 1'
_cell_length_a   5.60670500
_cell_length_b   11.32981157
_cell_length_c   10.07047361
_cell_angle_alpha   27.53143181
_cell_angle_beta   50.91565644
_cell_angle_gamma   56.01566006
_symmetry_Int_Tables_number   1
_chemical_formula_structural   MgNb4VO12
_chemical_formula_sum   'Mg1 Nb4 V1 O12'
_cell_volume   229.52359927
_cell_formula_units_Z   1
loop_
 _symmetry_equiv_pos_site_id
 _symmetry_equiv_pos_as_xyz
  1  'x, y, z'
loop_
 _atom_site_type_symbol
 _atom_site_label
 _atom_site_symmetry_multiplicity
 _atom_site_fract_x
 _atom_site_fract_y
 _atom_site_fract_z
 _atom_site_occupancy
  Mg  Mg0  1  0.79513600  0.50694300  0.76909100  1
  Nb  Nb0  1  0.01815200  0.99980600  0.99031000  1
  Nb  Nb1  1  0.97142700  0.49501500  0.01504700  1
  Nb  Nb2  1  0.46896500  0.99793500  0.51572300  1
  Nb  Nb3  1  0.51958000  0.50177100  0.48708500  1
  V  V0  1  0.29639700  0.99639400  0.29047100  1
  O  O0  1  0.36576300  0.30612000  0.10399000  1
  O  O1  1  0.23305400  0.10124000  0.63583400  1
  O  O2  1  0.09336200  0.31166200  0.74490600  1
  O  O3  1  0.85483200  0.19856600  0.21326100  1
  O  O4  1  0.33716700  0.80262400  0.13377600  1
  O  O5  1  0.73299900  0.39593600  0.33795300  1
  O  O6  1  0.21175600  0.62755300  0.60340100  1
  O  O7  1  0.59624900  0.19046100  0.86439900  1
  O  O8  1  0.12650500  0.81801400  0.70560700  1
  O  O9  1  0.84178500  0.69783100  0.23495000  1
  O  O10  1  0.71065500  0.86534600  0.36579500  1
  O  O11  1  0.63551600  0.68083000  0.83520100  1
loop_
_geom_bond_atom_site_label_1
_geom_bond_atom_site_label_2
_geom_bond_distance
_geom_bond_site_symmetry_2
Mg0 O2 2.014131 1_655
Mg0 O10 2.057906 1_555
Mg0 O0 2.150191 1_556
Mg0 O6 2.172037 1_655
Mg0 O11 2.174697 1_555
Mg0 O3 2.278314 1_556
Nb0 O4 1.828789 1_556
Nb0 O2 1.906503 1_565
Nb0 O10 2.022650 1_456
Nb0 O1 2.089102 1_565
Nb0 O9 2.124685 1_456
Nb0 O7 2.254213 1_465
Nb1 O5 1.828626 1_555
Nb1 O8 1.942843 1_654
Nb1 O0 2.019484 1_655
Nb1 O11 2.089401 1_554
Nb1 O3 2.147481 1_555
Nb1 O6 2.331106 1_654
Nb2 O1 1.829001 1_565
Nb2 O11 1.915341 1_555
Nb2 O3 2.008590 1_565
Nb2 O8 2.081209 1_555
Nb2 O0 2.192927 1_565
Nb2 O10 2.353621 1_555
Nb3 O9 1.828708 1_555
Nb3 O7 1.912864 1_555
Nb3 O6 2.010822 1_555
Nb3 O5 2.109250 1_555
Nb3 O4 2.122782 1_555
Nb3 O2 2.259123 1_555
O0 V0 2.215700 1_545
O3 V0 2.215740 1_645
O6 V0 2.143588 1_555
O7 V0 2.091952 1_546
O8 V0 2.148412 1_555
O10 V0 2.131513 1_555
