# generated using pymatgen
data_Sc2Fe3Si5
_symmetry_space_group_name_H-M   'P 1'
_cell_length_a   10.09262787
_cell_length_b   10.09262659
_cell_length_c   5.25091534
_cell_angle_alpha   90.00000418
_cell_angle_beta   90.00000063
_cell_angle_gamma   89.99916667
_symmetry_Int_Tables_number   1
_chemical_formula_structural   Sc2Fe3Si5
_chemical_formula_sum   'Sc8 Fe12 Si20'
_cell_volume   534.86414065
_cell_formula_units_Z   4
loop_
 _symmetry_equiv_pos_site_id
 _symmetry_equiv_pos_as_xyz
  1  'x, y, z'
loop_
 _atom_site_type_symbol
 _atom_site_label
 _atom_site_symmetry_multiplicity
 _atom_site_fract_x
 _atom_site_fract_y
 _atom_site_fract_z
 _atom_site_occupancy
  Sc  Sc0  1  0.43119738  0.26337628  0.49999998  1
  Sc  Sc1  1  0.06886621  0.76339701  -0.00000044  1
  Sc  Sc2  1  0.93113284  0.23660267  -0.00000009  1
  Sc  Sc3  1  0.76335542  0.93118719  0.00000021  1
  Sc  Sc4  1  0.26341764  0.56885487  0.50000033  1
  Sc  Sc5  1  0.73658231  0.43114531  0.49999985  1
  Sc  Sc6  1  0.56880368  0.73662384  0.49999982  1
  Sc  Sc7  1  0.23664454  0.06881289  -0.00000027  1
  Fe  Fe0  1  0.37672033  0.64359032  0.00000043  1
  Fe  Fe1  1  0.62327950  0.35640943  -0.00000035  1
  Fe  Fe2  1  0.64357082  0.62329896  -0.00000009  1
  Fe  Fe3  1  0.35642907  0.37670070  -0.00000030  1
  Fe  Fe4  1  0.14359013  0.87671110  0.49999996  1
  Fe  Fe5  1  0.85641076  0.12328950  0.50000056  1
  Fe  Fe6  1  0.87669216  0.85642949  0.49999999  1
  Fe  Fe7  1  0.12330715  0.14357046  0.49999998  1
  Fe  Fe8  1  0.50000037  0.00000014  0.24998999  1
  Fe  Fe9  1  -0.00000032  0.50000006  0.24999071  1
  Fe  Fe10  1  0.50000011  0.00000036  0.75000994  1
  Fe  Fe11  1  -0.00000016  0.50000024  0.75000907  1
  Si  Si0  1  0.31886540  0.02674396  0.49999977  1
  Si  Si1  1  0.68113457  0.97325639  0.50000027  1
  Si  Si2  1  0.97325119  0.31884455  0.50000022  1
  Si  Si3  1  0.02674809  0.68115557  0.49999980  1
  Si  Si4  1  0.52673781  0.81885305  -0.00000018  1
  Si  Si5  1  0.81883313  0.47325526  0.99999955  1
  Si  Si6  1  0.18116696  0.52674464  -0.00000005  1
  Si  Si7  1  0.47326266  0.18114695  0.00000002  1
  Si  Si8  1  0.50000015  0.49999986  0.75040117  1
  Si  Si9  1  0.99999977  -0.00000003  0.74957200  1
  Si  Si10  1  0.50000009  0.49999988  0.24959884  1
  Si  Si11  1  0.99999975  -0.00000000  0.25042772  1
  Si  Si12  1  0.67753458  0.17755039  0.75000636  1
  Si  Si13  1  0.67753459  0.17755032  0.24999365  1
  Si  Si14  1  0.82242820  0.67755742  0.74999907  1
  Si  Si15  1  0.32246606  0.82244933  0.75000358  1
  Si  Si16  1  0.32246613  0.82244923  0.24999621  1
  Si  Si17  1  0.82242817  0.67755745  0.25000087  1
  Si  Si18  1  0.17757138  0.32244248  0.24999968  1
  Si  Si19  1  0.17757136  0.32244250  0.75000017  1
loop_
_geom_bond_atom_site_label_1
_geom_bond_atom_site_label_2
_geom_bond_distance
_geom_bond_site_symmetry_2
Sc0 Si0 2.643692 1_555
Sc0 Si7 2.786038 1_555
Sc0 Si7 2.786039 1_556
Sc0 Si8 2.813238 1_555
Sc0 Si10 2.813238 1_555
Sc0 Si19 2.937844 1_555
Sc0 Si18 2.937844 1_555
Sc0 Si12 2.941894 1_555
Sc0 Si13 2.941894 1_555
Sc1 Si6 2.643710 1_555
Sc1 Si3 2.786159 1_554
Sc1 Si3 2.786161 1_555
Sc1 Si9 2.813268 1_464
Sc1 Si11 2.813270 1_465
Sc1 Si15 2.937590 1_554
Sc1 Si16 2.937592 1_555
Sc1 Si14 2.942802 1_454
Sc1 Si17 2.942804 1_455
Sc2 Si5 2.643708 1_554
Sc2 Si2 2.786160 1_554
Sc2 Si2 2.786163 1_555
Sc2 Si11 2.813267 1_555
Sc2 Si9 2.813268 1_554
Sc2 Si12 2.937571 1_554
Sc2 Si13 2.937571 1_555
Sc2 Si19 2.942805 1_654
Sc2 Si18 2.942805 1_655
Sc3 Si4 2.643568 1_555
Sc3 Si1 2.786019 1_554
Sc3 Si1 2.786019 1_555
Sc3 Si11 2.813506 1_565
Sc3 Si9 2.813508 1_564
Sc3 Si17 2.937891 1_555
Sc3 Si14 2.937892 1_554
Sc3 Si13 2.942069 1_565
Sc3 Si12 2.942071 1_564
Sc4 Si3 2.643867 1_555
Sc4 Si6 2.786174 1_556
Sc4 Si6 2.786177 1_555
Sc4 Si8 2.812999 1_555
Sc4 Si10 2.813000 1_555
Sc4 Si15 2.937552 1_555
Sc4 Si16 2.937553 1_555
Sc4 Si19 2.942601 1_555
Sc4 Si18 2.942603 1_555
Sc5 Si2 2.643861 1_555
Sc5 Si5 2.786174 1_555
Sc5 Si5 2.786177 1_554
Sc5 Si10 2.812996 1_555
Sc5 Si8 2.812996 1_555
Sc5 Si13 2.937562 1_555
Sc5 Si12 2.937562 1_555
Sc5 Si17 2.942596 1_555
Sc5 Si14 2.942596 1_555
Sc6 Si1 2.643690 1_555
Sc6 Si4 2.786039 1_556
Sc6 Si4 2.786039 1_555
Sc6 Si10 2.813243 1_555
Sc6 Si8 2.813244 1_555
Sc6 Si17 2.937828 1_555
Sc6 Si14 2.937829 1_555
Sc6 Si16 2.941889 1_555
Sc6 Si15 2.941890 1_555
Sc7 Si7 2.643572 1_555
Sc7 Si0 2.786018 1_554
Sc7 Si0 2.786019 1_555
Sc7 Si9 2.813510 1_454
Sc7 Si11 2.813511 1_455
Sc7 Si19 2.937888 1_554
Sc7 Si18 2.937888 1_555
Sc7 Si15 2.942081 1_544
Sc7 Si16 2.942083 1_545
Fe0 Si16 2.298171 1_555
Fe0 Si15 2.298175 1_554
Fe0 Si6 2.299142 1_555
Fe0 Si10 2.316450 1_555
Fe0 Si8 2.316453 1_554
Fe0 Si4 2.328381 1_555
Fe0 Sc4 2.961356 1_555
Fe0 Sc4 2.961356 1_554
Fe1 Si12 2.298166 1_554
Fe1 Si13 2.298169 1_555
Fe1 Si5 2.299145 1_554
Fe1 Si8 2.316448 1_554
Fe1 Si10 2.316451 1_555
Fe1 Si7 2.328375 1_555
Fe1 Sc5 2.961357 1_554
Fe1 Sc5 2.961358 1_555
Fe2 Si14 2.298197 1_554
Fe2 Si17 2.298197 1_555
Fe2 Si4 2.299053 1_555
Fe2 Si8 2.316454 1_554
Fe2 Si10 2.316455 1_555
Fe2 Si5 2.328516 1_554
Fe2 Sc6 2.961515 1_555
Fe2 Sc6 2.961516 1_554
Fe3 Si19 2.298195 1_554
Fe3 Si18 2.298196 1_555
Fe3 Si7 2.299053 1_555
Fe3 Si8 2.316456 1_554
Fe3 Si10 2.316458 1_555
Fe3 Si6 2.328516 1_555
Fe3 Sc0 2.961515 1_554
Fe3 Sc0 2.961518 1_555
Fe4 Si15 2.298348 1_555
Fe4 Si16 2.298349 1_555
Fe4 Si3 2.299141 1_555
Fe4 Si9 2.316421 1_465
Fe4 Si11 2.316422 1_465
Fe4 Si0 2.328578 1_565
Fe4 Sc1 2.961369 1_556
Fe4 Sc1 2.961373 1_555
Fe5 Si12 2.298354 1_555
Fe5 Si13 2.298357 1_555
Fe5 Si2 2.299129 1_555
Fe5 Si9 2.316414 1_555
Fe5 Si11 2.316418 1_555
Fe5 Si1 2.328587 1_545
Fe5 Sc2 2.961359 1_556
Fe5 Sc2 2.961366 1_555
Fe6 Si17 2.298321 1_555
Fe6 Si14 2.298321 1_555
Fe6 Si1 2.299052 1_555
Fe6 Si9 2.316419 1_565
Fe6 Si11 2.316420 1_565
Fe6 Si3 2.328686 1_655
Fe6 Sc3 2.961536 1_555
Fe6 Sc3 2.961538 1_556
Fe7 Si19 2.298325 1_555
Fe7 Si18 2.298325 1_555
Fe7 Si0 2.299055 1_555
Fe7 Si9 2.316418 1_455
Fe7 Si11 2.316419 1_455
Fe7 Si2 2.328687 1_455
Fe7 Sc7 2.961538 1_556
Fe7 Sc7 2.961541 1_555
Fe8 Si1 2.266773 1_545
Fe8 Si0 2.266778 1_555
Fe8 Si7 2.266807 1_555
Fe8 Si4 2.266809 1_545
Fe8 Si13 2.534101 1_555
Fe8 Si16 2.534107 1_545
Fe8 Sc3 3.044678 1_545
Fe8 Sc7 3.044686 1_555
Fe8 Sc0 3.044887 1_555
Fe8 Sc6 3.044889 1_545
Fe9 Si3 2.266955 1_555
Fe9 Si2 2.266956 1_455
Fe9 Si5 2.266986 1_454
Fe9 Si6 2.266991 1_555
Fe9 Si17 2.534382 1_455
Fe9 Si18 2.534385 1_555
Fe9 Sc1 3.045191 1_555
Fe9 Sc2 3.045195 1_455
Fe9 Sc5 3.045385 1_455
Fe9 Sc4 3.045392 1_555
Fe10 Si1 2.266774 1_545
Fe10 Si0 2.266777 1_555
Fe10 Si7 2.266805 1_556
Fe10 Si4 2.266811 1_546
Fe10 Si12 2.534102 1_555
Fe10 Si15 2.534106 1_545
Fe10 Fe8 2.625353 1_556
Fe10 Fe8 2.625562 1_555
Fe10 Sc7 3.044682 1_556
Fe10 Sc3 3.044682 1_546
Fe10 Sc0 3.044884 1_555
Fe10 Sc6 3.044892 1_545
Fe11 Si3 2.266954 1_555
Fe11 Si2 2.266956 1_455
Fe11 Si5 2.266986 1_455
Fe11 Si6 2.266989 1_556
Fe11 Si14 2.534382 1_455
Fe11 Si19 2.534385 1_555
Fe11 Fe9 2.625361 1_556
Fe11 Fe9 2.625554 1_555
Fe11 Sc1 3.045188 1_556
Fe11 Sc2 3.045197 1_456
Fe11 Sc5 3.045387 1_455
Fe11 Sc4 3.045388 1_555
Si0 Si16 2.444572 1_545
Si0 Si15 2.444572 1_545
Si1 Si12 2.444573 1_565
Si1 Si13 2.444574 1_565
Si12 Si7 2.444350 1_556
Si12 Si13 2.625391 1_556
Si12 Si13 2.625524 1_555
Si13 Si7 2.444350 1_555
Si14 Si5 2.444627 1_555
Si14 Si3 2.444775 1_655
Si14 Si17 2.625448 1_555
Si14 Si17 2.625467 1_556
Si15 Si4 2.444356 1_556
Si15 Si16 2.625419 1_556
Si15 Si16 2.625496 1_555
Si16 Si4 2.444356 1_555
Si17 Si5 2.444630 1_554
Si17 Si3 2.444774 1_655
Si18 Si6 2.444625 1_555
Si18 Si2 2.444781 1_455
Si18 Si19 2.625455 1_554
Si18 Si19 2.625460 1_555
Si19 Si6 2.444625 1_556
Si19 Si2 2.444779 1_455
