# generated using pymatgen
data_YMgCo(WO4)2
_symmetry_space_group_name_H-M   'P 1'
_cell_length_a   5.35961658
_cell_length_b   6.24995325
_cell_length_c   6.03819838
_cell_angle_alpha   107.43386524
_cell_angle_beta   116.00370947
_cell_angle_gamma   92.19723756
_symmetry_Int_Tables_number   1
_chemical_formula_structural   YMgCo(WO4)2
_chemical_formula_sum   'Y1 Mg1 Co1 W2 O8'
_cell_volume   170.00673442
_cell_formula_units_Z   1
loop_
 _symmetry_equiv_pos_site_id
 _symmetry_equiv_pos_as_xyz
  1  'x, y, z'
loop_
 _atom_site_type_symbol
 _atom_site_label
 _atom_site_symmetry_multiplicity
 _atom_site_fract_x
 _atom_site_fract_y
 _atom_site_fract_z
 _atom_site_occupancy
  Y  Y0  1  0.59557906  0.70683278  0.04367077  1
  Mg  Mg0  1  0.88258309  0.84330387  0.65269540  1
  Co  Co0  1  0.23406158  0.35541307  0.17684160  1
  W  W0  1  0.87134868  0.34585365  0.57625695  1
  W  W1  1  0.36500151  0.06479323  0.59421492  1
  O  O0  1  0.12136010  0.64526608  0.83492879  1
  O  O1  1  0.61299528  0.53053789  0.34884847  1
  O  O2  1  0.15347839  0.16840525  0.81610188  1
  O  O3  1  0.59767922  0.01578943  0.39284065  1
  O  O4  1  0.63073745  0.91808140  0.82147317  1
  O  O5  1  0.06562514  0.81158664  0.37789373  1
  O  O6  1  0.09888531  0.25563016  0.38274378  1
  O  O7  1  0.64166418  0.37117254  0.79216789  1
loop_
_geom_bond_atom_site_label_1
_geom_bond_atom_site_label_2
_geom_bond_distance
_geom_bond_site_symmetry_2
Mg0 O4 2.011999 1_555
Mg0 O0 2.020717 1_655
Mg0 O2 2.127527 1_665
Mg0 O1 2.141228 1_555
Mg0 O3 2.234867 1_565
Mg0 O5 2.236118 1_655
Co0 O6 1.918160 1_555
Co0 O1 1.923584 1_555
Co0 O2 1.976891 1_554
O0 W0 1.989484 1_455
O0 Y0 2.240975 1_556
O1 W0 2.130783 1_555
O1 Y0 2.385805 1_555
O2 W1 2.089956 1_555
O2 W0 2.187377 1_455
O3 W1 2.064761 1_555
O3 W0 2.146637 1_555
O3 Y0 2.389972 1_545
O4 W1 1.972978 1_565
O4 Y0 2.200641 1_556
O5 W1 1.874570 1_565
O5 Y0 2.339194 1_455
O6 W0 2.019383 1_455
O6 W1 2.129184 1_555
O7 W1 2.037347 1_555
O7 W0 2.130424 1_555
O7 Y0 2.286458 1_556
