# generated using pymatgen
data_Bi2SeO5
_symmetry_space_group_name_H-M   'P 1'
_cell_length_a   8.62272674
_cell_length_b   8.62272674
_cell_length_c   11.39712168
_cell_angle_alpha   90.00000000
_cell_angle_beta   90.00000000
_cell_angle_gamma   142.84477595
_symmetry_Int_Tables_number   1
_chemical_formula_structural   Bi2SeO5
_chemical_formula_sum   'Bi8 Se4 O20'
_cell_volume   511.80489807
_cell_formula_units_Z   4
loop_
 _symmetry_equiv_pos_site_id
 _symmetry_equiv_pos_as_xyz
  1  'x, y, z'
loop_
 _atom_site_type_symbol
 _atom_site_label
 _atom_site_symmetry_multiplicity
 _atom_site_fract_x
 _atom_site_fract_y
 _atom_site_fract_z
 _atom_site_occupancy
  Bi  Bi0  1  0.77270828  0.27270828  0.61677372  1
  Bi  Bi1  1  0.27270828  0.77270828  0.38322628  1
  Bi  Bi2  1  0.24554358  0.74554358  0.87594090  1
  Bi  Bi3  1  0.74554358  0.24554358  0.12405910  1
  Bi  Bi4  1  0.90424665  0.07397475  0.38919477  1
  Bi  Bi5  1  0.07397475  0.90424665  0.61080523  1
  Bi  Bi6  1  0.40424665  0.57397475  0.61080523  1
  Bi  Bi7  1  0.57397475  0.40424665  0.38919477  1
  Se  Se0  1  0.39519993  0.56888107  0.14085768  1
  Se  Se1  1  0.56888107  0.39519993  0.85914232  1
  Se  Se2  1  0.89519993  0.06888107  0.85914232  1
  Se  Se3  1  0.06888107  0.89519993  0.14085768  1
  O  O0  1  0.12479712  0.43736381  0.20169584  1
  O  O1  1  0.43736381  0.12479712  0.79830416  1
  O  O2  1  0.62479712  0.93736381  0.79830416  1
  O  O3  1  0.93736381  0.62479712  0.20169584  1
  O  O4  1  0.56075829  0.88571982  0.49081992  1
  O  O5  1  0.88571982  0.56075829  0.50918008  1
  O  O6  1  0.06075829  0.38571982  0.50918008  1
  O  O7  1  0.38571982  0.06075829  0.49081992  1
  O  O8  1  0.13870572  0.63870572  0.70175375  1
  O  O9  1  0.63870572  0.13870572  0.29824625  1
  O  O10  1  0.55032275  0.84711469  0.07903721  1
  O  O11  1  0.84711469  0.55032275  0.92096279  1
  O  O12  1  0.16718025  0.05947009  0.26748559  1
  O  O13  1  0.05947009  0.16718025  0.73251441  1
  O  O14  1  0.66718025  0.55947009  0.73251441  1
  O  O15  1  0.55947009  0.66718025  0.26748559  1
  O  O16  1  0.27053321  0.27053321  0.50000000  1
  O  O17  1  0.77053321  0.77053321  0.50000000  1
  O  O18  1  0.34711469  0.05032275  0.07903721  1
  O  O19  1  0.05032275  0.34711469  0.92096279  1
loop_
_geom_bond_atom_site_label_1
_geom_bond_atom_site_label_2
_geom_bond_distance
_geom_bond_site_symmetry_2
Bi0 O5 2.182745 1_555
Bi0 O6 2.182745 1_655
Bi0 O8 2.231957 1_655
Bi0 O4 2.610490 1_545
Bi0 O7 2.610490 1_555
Bi1 O4 2.182745 1_555
Bi1 O7 2.182745 1_565
Bi1 O9 2.231957 1_565
Bi1 O5 2.610490 1_455
Bi1 O6 2.610490 1_555
Bi2 O8 2.070194 1_555
Bi2 O1 2.364530 1_565
Bi2 O2 2.364530 1_555
Bi2 O19 2.383583 1_555
Bi2 O11 2.383583 1_455
Bi3 O9 2.070194 1_555
Bi3 O3 2.364530 1_555
Bi3 O0 2.364530 1_655
Bi3 O10 2.383583 1_545
Bi3 O18 2.383583 1_555
Bi4 O17 2.227441 1_545
Bi4 O4 2.255024 1_545
Bi4 O6 2.265953 1_655
Bi4 O16 2.431054 1_655
Bi4 O15 2.538473 1_545
Bi4 O12 2.744448 1_655
Bi5 O17 2.227441 1_455
Bi5 O5 2.255024 1_455
Bi5 O7 2.265953 1_565
Bi5 O16 2.431054 1_565
Bi5 O14 2.538473 1_455
Bi5 O13 2.744448 1_565
Bi6 O16 2.227441 1_555
Bi6 O6 2.255024 1_555
Bi6 O4 2.265953 1_555
Bi6 O17 2.431054 1_555
Bi6 O13 2.538473 1_555
Bi6 O14 2.744448 1_555
Bi7 O16 2.227441 1_555
Bi7 O7 2.255024 1_555
Bi7 O5 2.265953 1_555
Bi7 O17 2.431054 1_555
Bi7 O12 2.538473 1_555
Bi7 O15 2.744448 1_555
O0 Se0 1.728717 1_555
O1 Se1 1.728717 1_555
O2 Se2 1.728717 1_565
O3 Se3 1.728717 1_655
O10 Se0 1.710606 1_555
O11 Se1 1.710606 1_555
O12 Se3 1.701128 1_545
O13 Se2 1.701128 1_455
O14 Se1 1.701128 1_555
O15 Se0 1.701128 1_555
O18 Se3 1.710606 1_545
O19 Se2 1.710606 1_455
