# generated using pymatgen
data_CrPO4
_symmetry_space_group_name_H-M   'P 1'
_cell_length_a   7.41663203
_cell_length_b   6.38865531
_cell_length_c   5.32928349
_cell_angle_alpha   77.95506826
_cell_angle_beta   57.39777565
_cell_angle_gamma   44.64715609
_symmetry_Int_Tables_number   1
_chemical_formula_structural   CrPO4
_chemical_formula_sum   'Cr2 P2 O8'
_cell_volume   142.83703328
_cell_formula_units_Z   2
loop_
 _symmetry_equiv_pos_site_id
 _symmetry_equiv_pos_as_xyz
  1  'x, y, z'
loop_
 _atom_site_type_symbol
 _atom_site_label
 _atom_site_symmetry_multiplicity
 _atom_site_fract_x
 _atom_site_fract_y
 _atom_site_fract_z
 _atom_site_occupancy
  Cr  Cr0  1  0.31704800  0.18295200  0.31704800  1
  Cr  Cr1  1  0.06704800  0.93295200  0.06704800  1
  P  P0  1  0.63096900  0.86903100  0.63096900  1
  P  P1  1  0.38096900  0.61903100  0.38096900  1
  O  O0  1  0.21071500  0.67611100  0.73567700  1
  O  O1  1  0.32130900  0.99906000  0.72130300  1
  O  O2  1  0.57388900  0.03928500  0.87250300  1
  O  O3  1  0.73567700  0.37749700  0.21071500  1
  O  O4  1  0.25094000  0.92869100  0.29167300  1
  O  O5  1  0.72130300  0.95832700  0.32130900  1
  O  O6  1  0.87250300  0.51432300  0.57388900  1
  O  O7  1  0.29167300  0.52869700  0.25094000  1
loop_
_geom_bond_atom_site_label_1
_geom_bond_atom_site_label_2
_geom_bond_distance
_geom_bond_site_symmetry_2
Cr0 O6 1.907968 1_455
Cr0 O2 1.907968 1_554
Cr0 O4 2.047848 1_545
Cr0 O7 2.047854 1_555
Cr0 O5 2.233112 1_545
Cr0 O1 2.233114 1_545
Cr1 O0 1.907968 1_554
Cr1 O3 1.907968 1_465
Cr1 O1 2.047850 1_554
Cr1 O5 2.047854 1_455
Cr1 O7 2.233115 1_555
Cr1 O4 2.233119 1_555
O0 P1 1.536591 1_555
O1 P0 1.567540 1_555
O2 P0 1.536591 1_545
O3 P1 1.536591 1_555
O4 P1 1.567538 1_555
O5 P0 1.567537 1_555
O6 P0 1.536591 1_555
O7 P1 1.567534 1_555
