# generated using pymatgen
data_Na3Ti3In(PO4)6
_symmetry_space_group_name_H-M   'P 1'
_cell_length_a   8.75318965
_cell_length_b   8.75803304
_cell_length_c   22.27843418
_cell_angle_alpha   89.96079174
_cell_angle_beta   90.02064509
_cell_angle_gamma   120.24028092
_symmetry_Int_Tables_number   1
_chemical_formula_structural   Na3Ti3In(PO4)6
_chemical_formula_sum   'Na9 Ti9 In3 P18 O72'
_cell_volume   1475.47373708
_cell_formula_units_Z   3
loop_
 _symmetry_equiv_pos_site_id
 _symmetry_equiv_pos_as_xyz
  1  'x, y, z'
loop_
 _atom_site_type_symbol
 _atom_site_label
 _atom_site_symmetry_multiplicity
 _atom_site_fract_x
 _atom_site_fract_y
 _atom_site_fract_z
 _atom_site_occupancy
  Na  Na0  1  0.36119984  0.35590088  0.24772633  1
  Na  Na1  1  0.63019666  0.62825087  0.74958822  1
  Na  Na2  1  0.96665956  0.29665955  0.41573828  1
  Na  Na3  1  0.00073329  0.98712742  0.50161395  1
  Na  Na4  1  0.99971776  0.99989911  0.00048890  1
  Na  Na5  1  0.66743158  0.31998466  0.83604509  1
  Na  Na6  1  0.66842865  0.33493158  0.33006940  1
  Na  Na7  1  0.33102381  0.67991941  0.16294496  1
  Na  Na8  1  0.31780734  0.66741231  0.66482791  1
  Ti  Ti0  1  0.00093502  0.00140566  0.85628889  1
  Ti  Ti1  1  0.00279639  0.00389290  0.64499095  1
  Ti  Ti2  1  0.99689980  0.99667326  0.14587122  1
  Ti  Ti3  1  0.66622471  0.33436380  0.98143833  1
  Ti  Ti4  1  0.65961891  0.33395978  0.48268853  1
  Ti  Ti5  1  0.33460032  0.66614790  0.01763286  1
  Ti  Ti6  1  0.33471812  0.66672953  0.52040857  1
  Ti  Ti7  1  0.33555047  0.67488076  0.31143067  1
  Ti  Ti8  1  0.32673320  0.66774946  0.81465278  1
  In  In0  1  0.99831737  0.99092955  0.35463298  1
  In  In1  1  0.66767075  0.32683363  0.68585709  1
  In  In2  1  0.67420777  0.33342415  0.17927285  1
  P  P0  1  0.28871491  0.99569066  0.24893868  1
  P  P1  1  0.70482916  0.70893327  0.24957977  1
  P  P2  1  0.00020094  0.29297894  0.25255605  1
  P  P3  1  0.28076314  0.28760731  0.75155944  1
  P  P4  1  0.00891041  0.72215986  0.75100381  1
  P  P5  1  0.71494478  0.99824641  0.75195132  1
  P  P6  1  0.96133140  0.33253114  0.58165291  1
  P  P7  1  0.37023837  0.03630205  0.58327549  1
  P  P8  1  0.66664754  0.62854542  0.58505103  1
  P  P9  1  0.96579837  0.63204235  0.08065584  1
  P  P10  1  0.66735870  0.03672839  0.08081201  1
  P  P11  1  0.36909561  0.33309100  0.08253643  1
  P  P12  1  0.62056937  0.66329585  0.91509585  1
  P  P13  1  0.04207724  0.37792517  0.91692220  1
  P  P14  1  0.33535424  0.95679483  0.91676979  1
  P  P15  1  0.61496895  0.95739273  0.41825977  1
  P  P16  1  0.34432891  0.38642902  0.41633613  1
  P  P17  1  0.04521882  0.66242908  0.41856709  1
  O  O0  1  0.21953957  0.03730625  0.30606674  1
  O  O1  1  0.80594748  0.77796119  0.30804938  1
  O  O2  1  0.97925487  0.19963095  0.31314819  1
  O  O3  1  0.18760869  0.17661648  0.80773427  1
  O  O4  1  0.98680867  0.81419870  0.80689273  1
  O  O5  1  0.82428091  0.01062173  0.80827969  1
  O  O6  1  0.80397611  0.97332986  0.69506584  1
  O  O7  1  0.17317482  0.19629962  0.69397255  1
  O  O8  1  0.02733978  0.83044416  0.69358277  1
  O  O9  1  0.80375916  0.82595073  0.19414955  1
  O  O10  1  0.02573751  0.19133949  0.19924560  1
  O  O11  1  0.16953049  0.97238581  0.19370343  1
  O  O12  1  0.89382054  0.37603270  0.63831470  1
  O  O13  1  0.47761853  0.10250120  0.64076950  1
  O  O14  1  0.62849130  0.52603889  0.64424568  1
  O  O15  1  0.90431631  0.52642811  0.13867965  1
  O  O16  1  0.62098851  0.09729682  0.13844898  1
  O  O17  1  0.47073605  0.37184921  0.14177052  1
  O  O18  1  0.47360681  0.30888237  0.03010445  1
  O  O19  1  0.83917403  0.53106141  0.02731415  1
  O  O20  1  0.69391046  0.16357715  0.02753000  1
  O  O21  1  0.47016756  0.16175869  0.52915083  1
  O  O22  1  0.69074700  0.52472318  0.53207176  1
  O  O23  1  0.84215035  0.30487427  0.52573556  1
  O  O24  1  0.52796555  0.69039999  0.96906387  1
  O  O25  1  0.15922794  0.46712721  0.97162781  1
  O  O26  1  0.30739111  0.83895800  0.97115584  1
  O  O27  1  0.52120595  0.84608646  0.47367839  1
  O  O28  1  0.32359067  0.48435706  0.47032652  1
  O  O29  1  0.15520190  0.67400880  0.47389446  1
  O  O30  1  0.13558291  0.63899063  0.36140342  1
  O  O31  1  0.50699626  0.86420527  0.36052234  1
  O  O32  1  0.36235374  0.48868728  0.35706197  1
  O  O33  1  0.13543003  0.49565640  0.86046793  1
  O  O34  1  0.36068420  0.86524480  0.86021004  1
  O  O35  1  0.51010610  0.63855719  0.85701677  1
  O  O36  1  0.02798544  0.82663354  0.41863422  1
  O  O37  1  0.80277390  0.98407884  0.41765989  1
  O  O38  1  0.17457382  0.20367377  0.41720562  1
  O  O39  1  0.02403166  0.19369306  0.90995098  1
  O  O40  1  0.16944087  0.97514377  0.90962426  1
  O  O41  1  0.80717703  0.82986590  0.90995992  1
  O  O42  1  0.97329725  0.16217128  0.58891570  1
  O  O43  1  0.18901107  0.02640031  0.58791985  1
  O  O44  1  0.83744303  0.81110730  0.58861950  1
  O  O45  1  0.97618871  0.81338052  0.08672171  1
  O  O46  1  0.83791946  0.02590323  0.08776249  1
  O  O47  1  0.18567285  0.16366438  0.08766195  1
  O  O48  1  0.69869878  0.16332149  0.75101337  1
  O  O49  1  0.46838360  0.31353708  0.75009882  1
  O  O50  1  0.83852056  0.53999575  0.74923261  1
  O  O51  1  0.66535868  0.51798970  0.24321470  1
  O  O52  1  0.84441699  0.32236985  0.24621422  1
  O  O53  1  0.47435015  0.15601308  0.24204724  1
  O  O54  1  0.63749147  0.49697912  0.92299033  1
  O  O55  1  0.85882682  0.36093214  0.92256632  1
  O  O56  1  0.50176972  0.14095886  0.92300906  1
  O  O57  1  0.63258956  0.14290127  0.42223411  1
  O  O58  1  0.51171099  0.37045281  0.42389657  1
  O  O59  1  0.86122618  0.49046089  0.42299947  1
  O  O60  1  0.34499876  0.49361075  0.07046440  1
  O  O61  1  0.15234527  0.65988557  0.06941909  1
  O  O62  1  0.50922054  0.84946722  0.06889937  1
  O  O63  1  0.34052840  0.84951317  0.57263003  1
  O  O64  1  0.50802617  0.65494938  0.57319273  1
  O  O65  1  0.15106651  0.48933054  0.57232486  1
  O  O66  1  0.29678185  0.82307202  0.25564801  1
  O  O67  1  0.52156314  0.70046780  0.25389638  1
  O  O68  1  0.17821347  0.47549898  0.25519133  1
  O  O69  1  0.29878486  0.47384332  0.75575651  1
  O  O70  1  0.17596248  0.70467582  0.75654492  1
  O  O71  1  0.53043893  0.82583681  0.75635818  1
loop_
_geom_bond_atom_site_label_1
_geom_bond_atom_site_label_2
_geom_bond_distance
_geom_bond_site_symmetry_2
Na0 O51 2.303609 1_555
Na0 O68 2.319611 1_555
Na0 O53 2.410077 1_555
Na0 O17 2.525307 1_555
Na0 O67 2.613363 1_555
Na0 O32 2.697745 1_555
Na0 O0 2.742927 1_555
Na0 O10 2.757374 1_555
Na1 O71 2.302647 1_555
Na1 O50 2.311352 1_555
Na1 O49 2.381391 1_555
Na1 O14 2.509729 1_555
Na1 O69 2.512280 1_555
Na1 O35 2.634174 1_555
Na2 O59 2.310201 1_555
Na2 O38 2.338614 1_655
Na2 O37 2.366084 1_545
Na2 O2 2.460734 1_555
Na2 O57 2.533547 1_555
Na2 O23 2.698032 1_555
Na2 O30 2.858591 1_655
Na2 O28 2.961298 1_655
Na3 O36 2.406613 1_555
Na3 O44 2.440313 1_455
Na3 O43 2.441102 1_565
Na3 O37 2.540202 1_455
Na3 O38 2.557117 1_565
Na3 O42 2.562412 1_465
Na4 O45 2.461447 1_555
Na4 O47 2.475527 1_665
Na4 O46 2.483040 1_565
Na4 O41 2.568919 1_554
Na4 O39 2.574143 1_664
Na4 O40 2.584404 1_654
Na5 O48 2.434806 1_555
Na5 O56 2.454067 1_555
Na5 O55 2.458503 1_555
Na5 O49 2.569771 1_555
Na5 O54 2.576279 1_555
Na5 O50 2.605091 1_555
Na6 O52 2.459310 1_555
Na6 O51 2.520784 1_555
Na6 O53 2.550953 1_555
Na6 O57 2.570445 1_555
Na6 O59 2.583720 1_555
Na6 O58 2.604000 1_555
Na7 O66 2.511883 1_555
Na7 O61 2.557358 1_555
Na7 O67 2.572058 1_555
Na7 O62 2.587056 1_555
Na7 O68 2.608198 1_555
Na7 O60 2.669861 1_555
Na8 O70 2.496812 1_555
Na8 O63 2.545275 1_555
Na8 O65 2.553245 1_555
Na8 O69 2.591636 1_555
Na8 O71 2.635782 1_555
Na8 O64 2.671647 1_555
In0 O1 2.056508 1_555
In0 O0 2.072196 1_665
In0 O2 2.127838 1_565
In0 O36 2.131724 1_655
In0 O37 2.191589 1_555
In0 O38 2.213978 1_665
In1 O13 2.084677 1_555
In1 O12 2.089927 1_555
In1 O48 2.149471 1_555
In1 O14 2.149655 1_555
In1 O49 2.213999 1_555
In1 O50 2.214754 1_555
In2 O15 2.074102 1_555
In2 O16 2.086330 1_555
In2 O17 2.141404 1_555
In2 O52 2.143993 1_555
In2 O53 2.165949 1_555
In2 O51 2.185741 1_555
O0 P0 1.530615 1_545
O1 P1 1.518870 1_555
O2 P2 1.540100 1_655
O3 P3 1.541655 1_555
O3 Ti0 1.915252 1_555
O4 P4 1.547944 1_655
O4 Ti0 1.926827 1_665
O5 P5 1.548324 1_545
O5 Ti0 1.914654 1_655
O6 P5 1.559944 1_555
O6 Ti1 1.968922 1_665
O7 P3 1.553798 1_555
O7 Ti1 1.929904 1_555
O8 P4 1.551219 1_555
O8 Ti1 1.962635 1_565
O9 P1 1.558937 1_555
O9 Ti2 1.924465 1_555
O10 P2 1.566836 1_555
O10 Ti2 1.988320 1_445
O11 P0 1.558597 1_555
O11 Ti2 1.945872 1_455
O12 P6 1.521781 1_555
O13 P7 1.520357 1_555
O14 P8 1.534058 1_555
O15 P9 1.521079 1_555
O16 P10 1.520895 1_555
O17 P11 1.530943 1_555
O18 P11 1.562933 1_555
O18 Ti3 1.920928 1_554
O19 P9 1.560768 1_555
O19 Ti3 1.917929 1_554
O20 P10 1.560642 1_555
O20 Ti3 1.926982 1_554
O21 P7 1.567558 1_555
O21 Ti4 1.891008 1_555
O22 P8 1.568194 1_555
O22 Ti4 1.902550 1_555
O23 P6 1.563272 1_555
O23 Ti4 1.986420 1_555
O24 P12 1.534233 1_555
O24 Ti5 1.928624 1_556
O25 P13 1.529936 1_555
O25 Ti5 1.936822 1_556
O26 P14 1.528758 1_555
O26 Ti5 1.944277 1_556
O27 P15 1.530171 1_555
O27 Ti6 1.905820 1_555
O28 P16 1.540679 1_555
O28 Ti6 1.910804 1_555
O29 P17 1.535375 1_555
O29 Ti6 1.909620 1_555
O30 P17 1.566605 1_555
O30 Ti7 1.961826 1_555
O31 P15 1.561250 1_555
O31 Ti7 1.921587 1_555
O32 P16 1.557876 1_555
O32 Ti7 2.032380 1_555
O33 P13 1.569400 1_555
O33 Ti8 1.890619 1_555
O34 P14 1.568580 1_555
O34 Ti8 1.895949 1_555
O35 P12 1.563498 1_555
O35 Ti8 1.986050 1_555
O36 P17 1.519679 1_555
O37 P15 1.539546 1_555
O38 P16 1.540956 1_555
O39 P13 1.547934 1_555
O39 Ti0 1.991435 1_555
O40 P14 1.547621 1_555
O40 Ti0 1.995088 1_565
O41 P12 1.552113 1_555
O41 Ti0 1.998930 1_665
O42 P6 1.555741 1_555
O42 Ti1 1.976574 1_655
O43 P7 1.547957 1_555
O43 Ti1 1.997444 1_555
O44 P8 1.546026 1_555
O44 Ti1 2.015675 1_665
O45 P9 1.550355 1_555
O45 Ti2 2.013922 1_555
O46 P10 1.550564 1_555
O46 Ti2 2.008739 1_545
O47 P11 1.546876 1_555
O47 Ti2 2.028741 1_445
O48 P5 1.522445 1_545
O49 P3 1.540804 1_555
O50 P4 1.540976 1_655
O51 P1 1.534393 1_555
O52 P2 1.516246 1_655
O53 P0 1.528787 1_545
O54 P12 1.546457 1_555
O54 Ti3 2.035961 1_555
O55 P13 1.539651 1_655
O55 Ti3 2.054902 1_555
O56 P14 1.541535 1_545
O56 Ti3 2.044853 1_555
O57 P15 1.555323 1_545
O57 Ti4 2.067351 1_555
O58 P16 1.549459 1_555
O58 Ti4 1.977083 1_555
O59 P17 1.558390 1_655
O59 Ti4 2.079430 1_555
O60 P11 1.546389 1_555
O60 Ti5 1.952698 1_555
O61 P9 1.545177 1_455
O61 Ti5 1.947358 1_555
O62 P10 1.545932 1_565
O62 Ti5 1.935941 1_555
O63 P7 1.540139 1_565
O63 Ti6 1.959402 1_555
O64 P8 1.540810 1_555
O64 Ti6 1.962391 1_555
O65 P6 1.545916 1_455
O65 Ti6 1.954225 1_555
O66 P0 1.555659 1_555
O66 Ti7 1.945546 1_555
O67 P1 1.571110 1_555
O67 Ti7 1.994444 1_555
O68 P2 1.574115 1_555
O68 Ti7 2.023644 1_555
O69 P3 1.560456 1_555
O69 Ti8 2.061518 1_555
O70 P4 1.549904 1_555
O70 Ti8 1.987516 1_555
O71 P5 1.562535 1_555
O71 Ti8 2.072562 1_555
