# generated using pymatgen
data_Na4Sc2Si3Sn2(SO8)3
_symmetry_space_group_name_H-M   'P 1'
_cell_length_a   8.99551597
_cell_length_b   8.97361293
_cell_length_c   22.89728645
_cell_angle_alpha   90.06316836
_cell_angle_beta   89.13886951
_cell_angle_gamma   119.78935382
_symmetry_Int_Tables_number   1
_chemical_formula_structural   Na4Sc2Si3Sn2(SO8)3
_chemical_formula_sum   'Na12 Sc6 Si9 Sn6 S9 O72'
_cell_volume   1603.85557492
_cell_formula_units_Z   3
loop_
 _symmetry_equiv_pos_site_id
 _symmetry_equiv_pos_as_xyz
  1  'x, y, z'
loop_
 _atom_site_type_symbol
 _atom_site_label
 _atom_site_symmetry_multiplicity
 _atom_site_fract_x
 _atom_site_fract_y
 _atom_site_fract_z
 _atom_site_occupancy
  Na  Na0  1  0.99612301  0.64555320  0.25270776  1
  Na  Na1  1  0.99741470  0.35541778  0.73807580  1
  Na  Na2  1  0.66409127  0.97980515  0.58938022  1
  Na  Na3  1  0.67123853  0.69588009  0.08130145  1
  Na  Na4  1  0.33821821  0.30850613  0.90150843  1
  Na  Na5  1  0.32120443  0.02202293  0.42212904  1
  Na  Na6  1  0.00916383  0.00084824  0.50482357  1
  Na  Na7  1  0.98249149  0.97149506  0.99536973  1
  Na  Na8  1  0.65245678  0.32803104  0.82046476  1
  Na  Na9  1  0.66031399  0.34292657  0.33314805  1
  Na  Na10  1  0.32854498  0.67937044  0.17112386  1
  Na  Na11  1  0.32774553  0.66417989  0.66150264  1
  Sc  Sc0  1  0.99976432  0.98315483  0.35141840  1
  Sc  Sc1  1  0.98603117  0.99423002  0.84921244  1
  Sc  Sc2  1  0.65330063  0.31830746  0.68553633  1
  Sc  Sc3  1  0.66691157  0.33893910  0.19023544  1
  Sc  Sc4  1  0.33092287  0.67044671  0.01916663  1
  Sc  Sc5  1  0.31033916  0.66045956  0.52272915  1
  Si  Si0  1  0.30104024  0.00104571  0.25304695  1
  Si  Si1  1  0.69626200  0.70521694  0.25029663  1
  Si  Si2  1  0.29563416  0.29364902  0.75597966  1
  Si  Si3  1  0.71026692  0.00148630  0.74732516  1
  Si  Si4  1  0.96057207  0.33144552  0.58699251  1
  Si  Si5  1  0.37152069  0.04235078  0.58064851  1
  Si  Si6  1  0.96770820  0.63306760  0.08677781  1
  Si  Si7  1  0.63130866  0.66732523  0.92210827  1
  Si  Si8  1  0.03042051  0.65728823  0.41663114  1
  Sn  Sn0  1  0.01576835  0.01904492  0.64837088  1
  Sn  Sn1  1  0.99687367  0.98030206  0.15508823  1
  Sn  Sn2  1  0.67820929  0.34935347  0.98388987  1
  Sn  Sn3  1  0.67688999  0.33785835  0.48685785  1
  Sn  Sn4  1  0.33059741  0.66809595  0.31632211  1
  Sn  Sn5  1  0.36241322  0.67431491  0.81095993  1
  S  S0  1  0.00248777  0.28709444  0.24904219  1
  S  S1  1  0.00609969  0.70936875  0.75165682  1
  S  S2  1  0.67110186  0.63090541  0.58375686  1
  S  S3  1  0.67226661  0.04745269  0.08245039  1
  S  S4  1  0.36622902  0.32566831  0.08383603  1
  S  S5  1  0.03996621  0.37756265  0.91753798  1
  S  S6  1  0.33939920  0.96338158  0.91828988  1
  S  S7  1  0.62804725  0.96280206  0.41758813  1
  S  S8  1  0.33643877  0.37697862  0.41664272  1
  O  O0  1  0.21526207  0.02897068  0.31137907  1
  O  O1  1  0.83166747  0.80772259  0.30081366  1
  O  O2  1  0.98465167  0.18560004  0.30057374  1
  O  O3  1  0.21157376  0.18682496  0.81647457  1
  O  O4  1  0.98613859  0.79333004  0.80397628  1
  O  O5  1  0.82503427  0.01864515  0.80381918  1
  O  O6  1  0.79029153  0.96258284  0.68797526  1
  O  O7  1  0.16840921  0.20941308  0.70009323  1
  O  O8  1  0.03642461  0.81276824  0.69771019  1
  O  O9  1  0.76205458  0.81519229  0.18671678  1
  O  O10  1  0.02739509  0.20914371  0.19368735  1
  O  O11  1  0.17424831  0.95515613  0.19513488  1
  O  O12  1  0.87538894  0.35855756  0.64543113  1
  O  O13  1  0.49706229  0.13995422  0.63393593  1
  O  O14  1  0.64655465  0.52334733  0.63432837  1
  O  O15  1  0.87348554  0.52046536  0.14397352  1
  O  O16  1  0.64872059  0.13073241  0.13313315  1
  O  O17  1  0.47958715  0.34866493  0.13234007  1
  O  O18  1  0.43613392  0.29223549  0.02773006  1
  O  O19  1  0.83723897  0.55193009  0.02937274  1
  O  O20  1  0.68925201  0.14570219  0.02670064  1
  O  O21  1  0.44649496  0.15645966  0.51796716  1
  O  O22  1  0.69908867  0.55757487  0.52793663  1
  O  O23  1  0.83519604  0.28872645  0.52931669  1
  O  O24  1  0.53930906  0.68099110  0.98204271  1
  O  O25  1  0.14458437  0.46923020  0.96842779  1
  O  O26  1  0.31845122  0.85800321  0.97016991  1
  O  O27  1  0.55168661  0.86037824  0.47019886  1
  O  O28  1  0.32723271  0.46779720  0.46787199  1
  O  O29  1  0.16469866  0.69201871  0.46770321  1
  O  O30  1  0.10793947  0.62173530  0.35398236  1
  O  O31  1  0.51781177  0.87966518  0.36476452  1
  O  O32  1  0.36405216  0.48018567  0.36158099  1
  O  O33  1  0.11124999  0.47919844  0.86318970  1
  O  O34  1  0.35984419  0.88401112  0.86407667  1
  O  O35  1  0.49605345  0.61973839  0.86729794  1
  O  O36  1  0.02070515  0.83486675  0.41264144  1
  O  O37  1  0.80160194  0.99277591  0.40832697  1
  O  O38  1  0.17937505  0.20720806  0.41276749  1
  O  O39  1  0.03269421  0.20947218  0.91533819  1
  O  O40  1  0.19108898  0.99069463  0.91574974  1
  O  O41  1  0.82014328  0.83055290  0.91431758  1
  O  O42  1  0.96280669  0.14748489  0.58681744  1
  O  O43  1  0.17602717  0.00893386  0.58805584  1
  O  O44  1  0.82662445  0.80353695  0.58763867  1
  O  O45  1  0.97395890  0.82417310  0.08741554  1
  O  O46  1  0.83042702  0.03285443  0.08459932  1
  O  O47  1  0.19062835  0.17843954  0.09103198  1
  O  O48  1  0.70342249  0.17861464  0.74590316  1
  O  O49  1  0.48829084  0.33105933  0.74740605  1
  O  O50  1  0.85462309  0.53774161  0.74730413  1
  O  O51  1  0.69421951  0.52258433  0.24524015  1
  O  O52  1  0.85050249  0.30849517  0.24414238  1
  O  O53  1  0.49070068  0.16049495  0.24258031  1
  O  O54  1  0.63154475  0.47834565  0.92295664  1
  O  O55  1  0.86069700  0.34750338  0.92404281  1
  O  O56  1  0.49877406  0.13759234  0.92338364  1
  O  O57  1  0.62996382  0.13176508  0.41990938  1
  O  O58  1  0.48777464  0.34917327  0.41801562  1
  O  O59  1  0.83727041  0.48726478  0.42291846  1
  O  O60  1  0.35918631  0.48698784  0.07830005  1
  O  O61  1  0.15641866  0.65584835  0.07734379  1
  O  O62  1  0.52244750  0.87089874  0.07795699  1
  O  O63  1  0.37228484  0.86158117  0.57474280  1
  O  O64  1  0.52138365  0.65540208  0.57732660  1
  O  O65  1  0.15312559  0.49184078  0.57942110  1
  O  O66  1  0.29857520  0.81492314  0.25601830  1
  O  O67  1  0.50248290  0.67412810  0.25881494  1
  O  O68  1  0.15666227  0.46250817  0.25085709  1
  O  O69  1  0.28674950  0.47654699  0.75781922  1
  O  O70  1  0.15962119  0.68569550  0.75810435  1
  O  O71  1  0.51313060  0.83672462  0.75103471  1
loop_
_geom_bond_atom_site_label_1
_geom_bond_atom_site_label_2
_geom_bond_distance
_geom_bond_site_symmetry_2
Na0 O66 2.369642 1_655
Na0 O51 2.378696 1_555
Na0 O30 2.592216 1_655
Na0 O52 2.640526 1_555
Na0 O68 2.672144 1_655
Na0 O15 2.742568 1_555
Na0 O11 2.746865 1_655
Na0 O1 2.757923 1_555
Na1 O48 2.315288 1_555
Na1 O69 2.320182 1_655
Na1 O12 2.409672 1_555
Na1 O50 2.539806 1_555
Na1 O7 2.607436 1_655
Na1 O70 2.616014 1_655
Na2 O63 2.320949 1_555
Na2 O42 2.337951 1_565
Na2 O64 2.548358 1_555
Na2 O6 2.580959 1_555
Na2 O44 2.633861 1_555
Na2 O13 2.731277 1_565
Na2 O23 2.765939 1_565
Na2 O27 2.935600 1_555
Na3 O45 2.378335 1_555
Na3 O60 2.485023 1_555
Na3 O62 2.521110 1_555
Na3 O24 2.552362 1_554
Na3 O9 2.612328 1_555
Na3 O46 2.626846 1_565
Na3 O19 2.678078 1_555
Na3 O17 2.942121 1_555
Na4 O3 2.259886 1_555
Na4 O54 2.359618 1_555
Na4 O39 2.447663 1_555
Na4 O40 2.496006 1_545
Na4 O35 2.541839 1_555
Na4 O56 2.629363 1_555
Na5 O36 2.383431 1_545
Na5 O57 2.442279 1_555
Na5 O21 2.501731 1_555
Na5 O58 2.549128 1_555
Na5 O38 2.559460 1_555
Na5 O0 2.734006 1_555
Na5 O29 2.767776 1_545
Na5 O31 2.942183 1_545
Na6 O43 2.422363 1_555
Na6 O42 2.438524 1_455
Na6 O44 2.540075 1_445
Na6 O36 2.612379 1_545
Na6 O38 2.703851 1_555
Na6 O37 2.891817 1_445
Na7 O41 2.327590 1_555
Na7 O45 2.469015 1_556
Na7 O40 2.539878 1_655
Na7 O46 2.647743 1_566
Na7 O39 2.673564 1_665
Na7 O47 2.900260 1_666
Na8 O49 2.257032 1_555
Na8 O48 2.346251 1_555
Na8 O50 2.483901 1_555
Na8 O54 2.755740 1_555
Na8 O56 2.819308 1_555
Na8 O55 2.995273 1_555
Na9 O58 2.486728 1_555
Na9 O51 2.498769 1_555
Na9 O59 2.545669 1_555
Na9 O53 2.629481 1_555
Na9 O57 2.662640 1_555
Na9 O52 2.755883 1_555
Na10 O66 2.373972 1_555
Na10 O68 2.538515 1_555
Na10 O67 2.578715 1_555
Na10 O61 2.612876 1_555
Na10 O62 2.732158 1_555
Na10 O60 2.832104 1_555
Na11 O65 2.461699 1_555
Na11 O63 2.554109 1_555
Na11 O64 2.605820 1_555
Na11 O71 2.628916 1_555
Na11 O69 2.683561 1_555
Na11 O70 2.721350 1_555
O0 Si0 1.613243 1_555
O0 Sc0 1.980625 1_445
O1 Si1 1.610726 1_555
O1 Sc0 1.946987 1_555
O2 S0 1.448782 1_655
O2 Sc0 2.220122 1_545
O3 Si2 1.631134 1_555
O3 Sc1 2.034259 1_445
O4 S1 1.470040 1_655
O4 Sc1 2.078586 1_555
O5 Si3 1.626219 1_555
O5 Sc1 1.893877 1_545
O6 Si3 1.645017 1_565
O6 Sn0 2.029185 1_665
O7 Si2 1.643462 1_555
O7 Sn0 1.979881 1_555
O8 S1 1.483930 1_555
O8 Sn0 2.256077 1_565
O9 Si1 1.685375 1_555
O9 Sn1 2.007052 1_555
O10 S0 1.513681 1_555
O10 Sn1 2.125229 1_445
O11 Si0 1.675224 1_565
O11 Sn1 1.959535 1_455
O12 Si4 1.609513 1_555
O12 Sc2 2.047813 1_555
O13 Si5 1.608557 1_555
O13 Sc2 1.934802 1_555
O14 S2 1.450586 1_555
O14 Sc2 2.209467 1_555
O15 Si6 1.604088 1_555
O15 Sc3 2.040966 1_555
O16 S3 1.448476 1_555
O16 Sc3 2.219088 1_555
O17 S4 1.462979 1_555
O17 Sc3 2.194990 1_555
O18 S4 1.515964 1_555
O18 Sn2 2.199702 1_554
O19 Si6 1.682390 1_555
O19 Sn2 1.972888 1_554
O20 S3 1.514240 1_555
O20 Sn2 2.120784 1_554
O21 Si5 1.688554 1_555
O21 Sn3 2.014576 1_555
O22 S2 1.510993 1_555
O22 Sn3 2.102938 1_555
O23 Si4 1.666444 1_555
O23 Sn3 1.958022 1_555
O24 Si7 1.627751 1_555
O24 Sc4 2.005358 1_556
O25 S5 1.477072 1_555
O25 Sc4 2.113368 1_556
O26 S6 1.469538 1_555
O26 Sc4 2.073519 1_556
O27 S7 1.455342 1_555
O27 Sc5 2.331273 1_555
O28 S8 1.452248 1_555
O28 Sc5 2.200086 1_555
O29 Si8 1.609746 1_555
O29 Sc5 1.950158 1_555
O30 Si8 1.683976 1_555
O30 Sn4 2.012286 1_555
O31 S7 1.517173 1_555
O31 Sn4 2.132021 1_555
O32 S8 1.507826 1_555
O32 Sn4 2.127283 1_555
O33 S5 1.479532 1_555
O33 Sn5 2.365003 1_555
O34 S6 1.484374 1_555
O34 Sn5 2.248996 1_555
O35 Si7 1.663190 1_555
O35 Sn5 1.995527 1_555
O36 Si8 1.641411 1_555
O36 Sc0 2.008101 1_455
O37 S7 1.458640 1_555
O37 Sc0 2.228411 1_555
O38 S8 1.479776 1_555
O38 Sc0 2.336737 1_445
O39 S5 1.477807 1_555
O39 Sc1 2.325177 1_445
O40 S6 1.473302 1_555
O40 Sc1 2.422273 1_455
O41 Si7 1.606853 1_555
O41 Sc1 2.089627 1_555
O42 Si4 1.660870 1_555
O42 Sn0 2.027607 1_655
O43 Si5 1.636584 1_555
O43 Sn0 2.015843 1_555
O44 S2 1.488263 1_555
O44 Sn0 2.316111 1_665
O45 Si6 1.687732 1_555
O45 Sn1 2.030832 1_555
O46 S3 1.493674 1_555
O46 Sn1 2.417672 1_545
O47 S4 1.478801 1_555
O47 Sn1 2.280369 1_445
O48 Si3 1.621331 1_555
O48 Sc2 2.066250 1_555
O49 Si2 1.602036 1_555
O49 Sc2 2.080501 1_555
O50 S1 1.468720 1_655
O50 Sc2 2.384311 1_555
O51 Si1 1.633823 1_555
O51 Sc3 1.991190 1_555
O52 S0 1.477906 1_655
O52 Sc3 2.199077 1_555
O53 Si0 1.605730 1_555
O53 Sc3 1.984520 1_555
O54 Si7 1.697019 1_555
O54 Sn2 1.991642 1_555
O55 S5 1.502044 1_655
O55 Sn2 2.128911 1_555
O56 S6 1.513460 1_545
O56 Sn2 2.269250 1_555
O57 S7 1.508604 1_545
O57 Sn3 2.277251 1_555
O58 S8 1.501771 1_555
O58 Sn3 2.375219 1_555
O59 Si8 1.651168 1_655
O59 Sn3 2.010283 1_555
O60 S4 1.485750 1_555
O60 Sc4 2.244853 1_555
O61 Si6 1.616906 1_455
O61 Sc4 1.997244 1_555
O62 S3 1.489696 1_565
O62 Sc4 2.236299 1_555
O63 Si5 1.631040 1_565
O63 Sc5 2.000528 1_555
O64 S2 1.477854 1_555
O64 Sc5 2.307833 1_555
O65 Si4 1.617492 1_455
O65 Sc5 1.948716 1_555
O66 Si0 1.660743 1_565
O66 Sn4 2.029444 1_555
O67 Si1 1.631294 1_555
O67 Sn4 1.995823 1_555
O68 S0 1.495112 1_555
O68 Sn4 2.301040 1_555
O69 Si2 1.682844 1_555
O69 Sn5 1.978197 1_555
O70 S1 1.507249 1_555
O70 Sn5 2.248255 1_555
O71 Si3 1.651819 1_565
O71 Sn5 1.957054 1_555
