# generated using pymatgen
data_Sr2MgZrCrO6
_symmetry_space_group_name_H-M   'P 1'
_cell_length_a   6.85052586
_cell_length_b   5.67316694
_cell_length_c   5.44648374
_cell_angle_alpha   90.22336113
_cell_angle_beta   118.44826586
_cell_angle_gamma   114.57133379
_symmetry_Int_Tables_number   1
_chemical_formula_structural   Sr2MgZrCrO6
_chemical_formula_sum   'Sr2 Mg1 Zr1 Cr1 O6'
_cell_volume   163.77064953
_cell_formula_units_Z   1
loop_
 _symmetry_equiv_pos_site_id
 _symmetry_equiv_pos_as_xyz
  1  'x, y, z'
loop_
 _atom_site_type_symbol
 _atom_site_label
 _atom_site_symmetry_multiplicity
 _atom_site_fract_x
 _atom_site_fract_y
 _atom_site_fract_z
 _atom_site_occupancy
  Sr  Sr0  1  0.45434500  0.20462700  0.77588200  1
  Sr  Sr1  1  0.59980900  0.77719500  0.29519400  1
  Mg  Mg0  1  0.03299900  0.51968000  0.04489500  1
  Zr  Zr0  1  0.02086900  0.50616400  0.53516500  1
  Cr  Cr0  1  0.02178300  0.00473200  0.03260400  1
  O  O0  1  0.87248400  0.18450000  0.17428000  1
  O  O1  1  0.18406600  0.83472100  0.89985700  1
  O  O2  1  0.70350100  0.38604100  0.55457800  1
  O  O3  1  0.33223200  0.69740500  0.49557600  1
  O  O4  1  0.86042200  0.67216700  0.16362100  1
  O  O5  1  0.16748900  0.33181600  0.88549100  1
loop_
_geom_bond_atom_site_label_1
_geom_bond_atom_site_label_2
_geom_bond_distance
_geom_bond_site_symmetry_2
Mg0 O4 2.034395 1_455
Mg0 O1 2.034945 1_554
Mg0 O5 2.076051 1_554
Mg0 O0 2.081185 1_455
Mg0 O3 2.170669 1_555
Mg0 O2 2.370541 1_454
Cr0 O0 2.072401 1_455
Cr0 O5 2.077203 1_554
Cr0 O4 2.078050 1_445
Cr0 O1 2.083512 1_544
O0 Zr0 2.180036 1_655
O0 Sr1 2.618505 1_545
O0 Sr0 2.697924 1_554
O1 Zr0 2.189059 1_555
O1 Sr0 2.501757 1_565
O1 Sr1 2.791080 1_556
O2 Zr0 2.046910 1_655
O2 Sr0 2.436018 1_555
O2 Sr1 2.793567 1_555
O3 Zr0 2.070916 1_555
O3 Sr1 2.444549 1_555
O3 Sr0 2.838649 1_565
O4 Zr0 2.224109 1_655
O4 Sr1 2.481181 1_555
O4 Sr0 2.730683 1_554
O5 Zr0 2.154735 1_555
O5 Sr0 2.651847 1_555
O5 Sr1 2.751573 1_556
