# generated using pymatgen
data_Ce2C3
_symmetry_space_group_name_H-M   'P 1'
_cell_length_a   7.27317133
_cell_length_b   7.27317149
_cell_length_c   7.27317205
_cell_angle_alpha   109.47122215
_cell_angle_beta   109.47122260
_cell_angle_gamma   109.47122642
_symmetry_Int_Tables_number   1
_chemical_formula_structural   Ce2C3
_chemical_formula_sum   'Ce8 C12'
_cell_volume   296.17579772
_cell_formula_units_Z   4
loop_
 _symmetry_equiv_pos_site_id
 _symmetry_equiv_pos_as_xyz
  1  'x, y, z'
loop_
 _atom_site_type_symbol
 _atom_site_label
 _atom_site_symmetry_multiplicity
 _atom_site_fract_x
 _atom_site_fract_y
 _atom_site_fract_z
 _atom_site_occupancy
  Ce  Ce0  1  0.59720228  0.59720228  0.59720228  1
  Ce  Ce1  1  0.40279772  0.50000000  -0.00000000  1
  Ce  Ce2  1  0.50000000  0.00000000  0.40279772  1
  Ce  Ce3  1  -0.00000000  0.40279772  0.50000000  1
  Ce  Ce4  1  0.50000000  0.00000000  0.90279772  1
  Ce  Ce5  1  -0.00000000  0.90279772  0.50000000  1
  Ce  Ce6  1  0.90279772  0.50000000  -0.00000000  1
  Ce  Ce7  1  0.09720228  0.09720228  0.09720228  1
  C  C0  1  0.75000000  0.79341660  0.04341660  1
  C  C1  1  0.75000000  0.95658340  0.20658340  1
  C  C2  1  0.29341660  0.25000000  0.54341660  1
  C  C3  1  0.54341660  0.29341660  0.25000000  1
  C  C4  1  0.20658340  0.75000000  0.95658340  1
  C  C5  1  0.95658340  0.20658340  0.75000000  1
  C  C6  1  0.25000000  0.70658340  0.45658340  1
  C  C7  1  0.70658340  0.45658340  0.25000000  1
  C  C8  1  0.25000000  0.54341660  0.29341660  1
  C  C9  1  0.45658340  0.25000000  0.70658340  1
  C  C10  1  0.04341660  0.75000000  0.79341660  1
  C  C11  1  0.79341660  0.04341660  0.75000000  1
loop_
_geom_bond_atom_site_label_1
_geom_bond_atom_site_label_2
_geom_bond_distance
_geom_bond_site_symmetry_2
C0 C1 1.370329 1_555
C0 Ce7 2.541125 1_665
C0 Ce1 2.541125 1_555
C0 Ce6 2.693473 1_555
C0 Ce0 2.693473 1_554
C1 Ce4 2.541126 1_564
C1 Ce5 2.541126 1_655
C1 Ce3 2.693473 1_665
C1 Ce2 2.693473 1_565
C2 C9 1.370329 1_555
C2 Ce0 2.541125 1_555
C2 Ce5 2.541125 1_545
C2 Ce3 2.693473 1_555
C2 Ce7 2.693473 1_555
C3 C7 1.370329 1_555
C3 Ce0 2.541126 1_555
C3 Ce4 2.541126 1_554
C3 Ce7 2.693473 1_555
C3 Ce2 2.693473 1_555
C4 Ce6 2.541126 1_456
C4 Ce4 2.541126 1_565
C4 Ce2 2.693473 1_566
C4 Ce1 2.693473 1_556
C5 Ce5 2.541126 1_645
C5 Ce6 2.541126 1_556
C5 Ce1 2.693473 1_656
C5 Ce3 2.693473 1_655
C6 C8 1.370329 1_555
C6 Ce3 2.541126 1_555
C6 Ce2 2.541126 1_565
C6 Ce4 2.693473 1_565
C6 Ce5 2.693473 1_555
C7 Ce1 2.541126 1_555
C7 Ce3 2.541126 1_655
C7 Ce5 2.693473 1_655
C7 Ce6 2.693473 1_555
C8 Ce0 2.541126 1_555
C8 Ce6 2.541126 1_455
C8 Ce7 2.693473 1_555
C8 Ce1 2.693473 1_555
C9 Ce1 2.541126 1_556
C9 Ce2 2.541126 1_555
C9 Ce6 2.693473 1_556
C9 Ce4 2.693473 1_555
C10 C4 1.370329 1_555
C10 Ce7 2.541126 1_566
C10 Ce3 2.541126 1_555
C10 Ce0 2.693473 1_455
C10 Ce5 2.693473 1_555
C11 C5 1.370329 1_555
C11 Ce7 2.541126 1_656
C11 Ce2 2.541126 1_555
C11 Ce0 2.693473 1_545
C11 Ce4 2.693473 1_555
