# generated using pymatgen
data_Na7NbAl3Si3(PO8)3
_symmetry_space_group_name_H-M   'P 1'
_cell_length_a   8.81781723
_cell_length_b   8.78406000
_cell_length_c   21.70768102
_cell_angle_alpha   90.02701870
_cell_angle_beta   90.07365124
_cell_angle_gamma   120.06428513
_symmetry_Int_Tables_number   1
_chemical_formula_structural   Na7NbAl3Si3(PO8)3
_chemical_formula_sum   'Na21 Nb3 Al9 Si9 P9 O72'
_cell_volume   1455.18442536
_cell_formula_units_Z   3
loop_
 _symmetry_equiv_pos_site_id
 _symmetry_equiv_pos_as_xyz
  1  'x, y, z'
loop_
 _atom_site_type_symbol
 _atom_site_label
 _atom_site_symmetry_multiplicity
 _atom_site_fract_x
 _atom_site_fract_y
 _atom_site_fract_z
 _atom_site_occupancy
  Na  Na0  1  0.63044684  0.99862734  0.25256818  1
  Na  Na1  1  0.36783805  0.36997062  0.25222361  1
  Na  Na2  1  0.00226898  0.63358087  0.25375988  1
  Na  Na3  1  0.63716968  0.62844092  0.74509385  1
  Na  Na4  1  0.99704476  0.35885153  0.74416948  1
  Na  Na5  1  0.29849709  0.33811517  0.58403342  1
  Na  Na6  1  0.03336037  0.69910995  0.58281676  1
  Na  Na7  1  0.66768018  0.96451952  0.58126483  1
  Na  Na8  1  0.30185211  0.96846298  0.08436869  1
  Na  Na9  1  0.66311749  0.69876936  0.08485558  1
  Na  Na10  1  0.03702159  0.33106232  0.08256115  1
  Na  Na11  1  0.32606929  0.29767103  0.91338304  1
  Na  Na12  1  0.97289779  0.29880622  0.41589670  1
  Na  Na13  1  0.32837950  0.02866647  0.41557351  1
  Na  Na14  1  0.69931101  0.67239201  0.41572563  1
  Na  Na15  1  0.99793992  0.00037248  0.49971693  1
  Na  Na16  1  0.99198392  0.99661365  0.99710104  1
  Na  Na17  1  0.66404762  0.32400650  0.82822779  1
  Na  Na18  1  0.66544888  0.33230534  0.33216282  1
  Na  Na19  1  0.33596058  0.66665952  0.16666732  1
  Na  Na20  1  0.33448183  0.67156530  0.66075531  1
  Nb  Nb0  1  0.66945586  0.32757509  0.97938889  1
  Nb  Nb1  1  0.67258703  0.33787371  0.47950713  1
  Nb  Nb2  1  0.32716552  0.66398716  0.80980016  1
  Al  Al0  1  0.99874233  0.99919512  0.35519258  1
  Al  Al1  1  0.00020829  0.00511956  0.85222415  1
  Al  Al2  1  0.99899948  0.00403629  0.64654994  1
  Al  Al3  1  0.00118030  0.00428293  0.14752618  1
  Al  Al4  1  0.65921996  0.33063819  0.68489999  1
  Al  Al5  1  0.66130037  0.33065897  0.18379896  1
  Al  Al6  1  0.33821511  0.66390852  0.01959588  1
  Al  Al7  1  0.33264513  0.66110283  0.51793733  1
  Al  Al8  1  0.33260580  0.66581909  0.31814708  1
  Si  Si0  1  0.29062983  0.27017870  0.74923893  1
  Si  Si1  1  0.96233621  0.33480165  0.58876895  1
  Si  Si2  1  0.66668936  0.63161074  0.58808556  1
  Si  Si3  1  0.66509605  0.03461435  0.08827833  1
  Si  Si4  1  0.37174549  0.33366675  0.08677911  1
  Si  Si5  1  0.04284534  0.36997541  0.91923192  1
  Si  Si6  1  0.61848419  0.94596769  0.41497681  1
  Si  Si7  1  0.32655495  0.37839746  0.41449791  1
  Si  Si8  1  0.05586683  0.67462763  0.41514352  1
  P  P0  1  0.28696302  0.00007083  0.24928809  1
  P  P1  1  0.71409555  0.71220994  0.24890569  1
  P  P2  1  0.99949693  0.28914106  0.24939782  1
  P  P3  1  0.99648949  0.72140113  0.74967609  1
  P  P4  1  0.71962782  0.00692789  0.74931708  1
  P  P5  1  0.37470701  0.04132188  0.58646919  1
  P  P6  1  0.95815515  0.62510858  0.08700862  1
  P  P7  1  0.63186854  0.67924283  0.91749618  1
  P  P8  1  0.32271579  0.94706595  0.91919880  1
  O  O0  1  0.20187047  0.03175041  0.30625452  1
  O  O1  1  0.82988276  0.79707792  0.30630434  1
  O  O2  1  0.96578835  0.17123929  0.30627495  1
  O  O3  1  0.20044337  0.16926255  0.81248325  1
  O  O4  1  0.96814610  0.80662156  0.80624537  1
  O  O5  1  0.83317543  0.03370122  0.80587093  1
  O  O6  1  0.79205304  0.96291640  0.69139939  1
  O  O7  1  0.16138073  0.19758512  0.69018404  1
  O  O8  1  0.02659309  0.82899287  0.69078266  1
  O  O9  1  0.80132154  0.82885956  0.19154241  1
  O  O10  1  0.03058056  0.20349450  0.19188450  1
  O  O11  1  0.17001964  0.96908018  0.19175121  1
  O  O12  1  0.86309240  0.36722710  0.64571547  1
  O  O13  1  0.50083765  0.13244586  0.64026923  1
  O  O14  1  0.62838596  0.49827295  0.64489872  1
  O  O15  1  0.87289004  0.50309700  0.14297187  1
  O  O16  1  0.62838305  0.13035033  0.14536645  1
  O  O17  1  0.50532181  0.37521797  0.14421034  1
  O  O18  1  0.46228401  0.29680604  0.02522915  1
  O  O19  1  0.83548597  0.53959675  0.02973355  1
  O  O20  1  0.70791288  0.17086111  0.02809399  1
  O  O21  1  0.45443389  0.15715410  0.52665444  1
  O  O22  1  0.70230197  0.53942448  0.52578083  1
  O  O23  1  0.83391220  0.29575759  0.52630002  1
  O  O24  1  0.54293642  0.70070485  0.97556400  1
  O  O25  1  0.16962802  0.46865888  0.97747604  1
  O  O26  1  0.30726218  0.84039415  0.97708025  1
  O  O27  1  0.53418968  0.82952201  0.47651017  1
  O  O28  1  0.29167377  0.46029066  0.47614671  1
  O  O29  1  0.17167167  0.70702363  0.47675231  1
  O  O30  1  0.13066752  0.62654335  0.35418797  1
  O  O31  1  0.49612648  0.86875202  0.35370213  1
  O  O32  1  0.37378128  0.50299152  0.35376162  1
  O  O33  1  0.13522690  0.49587328  0.85750495  1
  O  O34  1  0.36008435  0.86614109  0.86179454  1
  O  O35  1  0.50875358  0.64014755  0.86012084  1
  O  O36  1  0.02358009  0.84059958  0.40750057  1
  O  O37  1  0.81571534  0.97533889  0.40745270  1
  O  O38  1  0.15759128  0.18160920  0.40670594  1
  O  O39  1  0.02624661  0.17995572  0.91091668  1
  O  O40  1  0.16363534  0.97105685  0.91241974  1
  O  O41  1  0.81218998  0.83624731  0.90844171  1
  O  O42  1  0.97757432  0.15778136  0.59039495  1
  O  O43  1  0.19311739  0.02440528  0.59171693  1
  O  O44  1  0.84670552  0.82073461  0.59190787  1
  O  O45  1  0.97449723  0.80753354  0.09255782  1
  O  O46  1  0.83938561  0.01667943  0.09236312  1
  O  O47  1  0.18078488  0.15535195  0.09233396  1
  O  O48  1  0.69937175  0.17038873  0.74308426  1
  O  O49  1  0.49209939  0.31256322  0.74402894  1
  O  O50  1  0.83978792  0.53054962  0.74627028  1
  O  O51  1  0.69623955  0.52527037  0.24363796  1
  O  O52  1  0.83355627  0.31051671  0.24323813  1
  O  O53  1  0.47382672  0.16833042  0.24440852  1
  O  O54  1  0.63662362  0.50315184  0.92225075  1
  O  O55  1  0.85134286  0.36006840  0.92079868  1
  O  O56  1  0.49039148  0.13776490  0.92224264  1
  O  O57  1  0.64037047  0.14516073  0.42063898  1
  O  O58  1  0.50187820  0.35483226  0.42096421  1
  O  O59  1  0.85560821  0.49653932  0.42031283  1
  O  O60  1  0.35374652  0.50843731  0.07780310  1
  O  O61  1  0.13965798  0.64347331  0.07794053  1
  O  O62  1  0.48855439  0.84696419  0.07587411  1
  O  O63  1  0.35859913  0.85956805  0.57921922  1
  O  O64  1  0.49314475  0.64913546  0.57861755  1
  O  O65  1  0.15106596  0.51212900  0.57912343  1
  O  O66  1  0.30745170  0.83380356  0.25310426  1
  O  O67  1  0.52829581  0.69182655  0.25260445  1
  O  O68  1  0.16658890  0.47539165  0.25362070  1
  O  O69  1  0.31400328  0.47942711  0.75549253  1
  O  O70  1  0.16447373  0.69786525  0.75437911  1
  O  O71  1  0.53232286  0.83798141  0.75624328  1
loop_
_geom_bond_atom_site_label_1
_geom_bond_atom_site_label_2
_geom_bond_distance
_geom_bond_site_symmetry_2
Na0 O67 2.375279 1_555
Na0 O52 2.416526 1_565
Na0 O66 2.465076 1_555
Na0 O31 2.485809 1_555
Na0 O53 2.494619 1_565
Na0 O16 2.603469 1_565
Na0 O2 2.810549 1_565
Na0 O9 2.916087 1_555
Na1 O68 2.377851 1_555
Na1 O53 2.387081 1_555
Na1 O67 2.446845 1_555
Na1 O32 2.482392 1_555
Na1 O51 2.514930 1_555
Na1 O17 2.630767 1_555
Na1 O0 2.827594 1_555
Na1 O10 2.885987 1_555
Na2 O66 2.364994 1_555
Na2 O51 2.379354 1_455
Na2 O68 2.459180 1_555
Na2 O52 2.467206 1_455
Na2 O30 2.470275 1_555
Na2 O15 2.660682 1_455
Na2 O1 2.804359 1_455
Na2 O11 2.885502 1_555
Na3 O50 2.339096 1_555
Na3 O49 2.404032 1_555
Na3 O14 2.439775 1_555
Na3 O71 2.450782 1_555
Na3 O69 2.479783 1_555
Na3 O35 2.766106 1_555
Na3 O6 2.800517 1_555
Na3 O4 2.853200 1_555
Na4 O48 2.297148 1_555
Na4 O69 2.454715 1_655
Na4 O12 2.459462 1_555
Na4 O50 2.509010 1_555
Na4 O70 2.586555 1_655
Na4 O33 2.739755 1_655
Na4 O7 2.745796 1_655
Na4 O5 2.813002 1_555
Na5 O64 2.392956 1_555
Na5 O43 2.433128 1_555
Na5 O65 2.455336 1_555
Na5 O42 2.458896 1_455
Na5 O28 2.589768 1_555
Na5 O7 2.609562 1_555
Na5 O14 2.841592 1_555
Na5 O21 2.856806 1_555
Na6 O65 2.342955 1_555
Na6 O44 2.377338 1_455
Na6 O43 2.480382 1_565
Na6 O63 2.483575 1_555
Na6 O29 2.591486 1_555
Na6 O8 2.619951 1_555
Na6 O22 2.812231 1_455
Na6 O12 2.870688 1_455
Na7 O42 2.395542 1_565
Na7 O63 2.400415 1_555
Na7 O64 2.403009 1_555
Na7 O44 2.477423 1_555
Na7 O27 2.560226 1_555
Na7 O6 2.632009 1_555
Na7 O23 2.787943 1_565
Na7 O13 2.856256 1_565
Na8 O47 2.370801 1_565
Na8 O62 2.375792 1_555
Na8 O61 2.474422 1_555
Na8 O45 2.505047 1_455
Na8 O26 2.596838 1_554
Na8 O11 2.607360 1_555
Na8 O18 2.808554 1_565
Na8 O16 2.819895 1_565
Na9 O60 2.385258 1_555
Na9 O45 2.418658 1_555
Na9 O46 2.427084 1_565
Na9 O62 2.471642 1_555
Na9 O9 2.597960 1_555
Na9 O24 2.600683 1_554
Na9 O17 2.778399 1_555
Na9 O19 2.798066 1_555
Na10 O61 2.423227 1_555
Na10 O60 2.424693 1_555
Na10 O46 2.426538 1_455
Na10 O47 2.448320 1_555
Na10 O25 2.573948 1_554
Na10 O10 2.613398 1_555
Na10 O20 2.774500 1_455
Na10 O15 2.879633 1_455
Na11 O39 2.306988 1_555
Na11 O54 2.416572 1_555
Na11 O3 2.456890 1_555
Na11 O56 2.479555 1_555
Na11 O40 2.483081 1_545
Na11 O18 2.709095 1_556
Na11 O35 2.852086 1_555
Na11 O25 2.858933 1_555
Na12 O38 2.330751 1_655
Na12 O59 2.428088 1_555
Na12 O37 2.465965 1_545
Na12 O57 2.542749 1_555
Na12 O2 2.617050 1_555
Na12 O23 2.687212 1_555
Na12 O28 2.760018 1_655
Na12 O30 2.830771 1_655
Na13 O36 2.352280 1_545
Na13 O57 2.409594 1_555
Na13 O38 2.477207 1_555
Na13 O58 2.484010 1_555
Na13 O0 2.626805 1_555
Na13 O21 2.656563 1_555
Na13 O29 2.784279 1_545
Na13 O31 2.837272 1_545
Na14 O37 2.330550 1_555
Na14 O58 2.441309 1_555
Na14 O36 2.481817 1_655
Na14 O59 2.535406 1_555
Na14 O1 2.629291 1_555
Na14 O22 2.665665 1_555
Na14 O27 2.789776 1_555
Na14 O32 2.823405 1_555
Na15 O42 2.462893 1_555
Na15 O44 2.484909 1_545
Na15 O37 2.505774 1_545
Na15 O36 2.518820 1_645
Na15 O38 2.521442 1_655
Na15 O43 2.573269 1_655
Na16 O39 2.387857 1_665
Na16 O41 2.440045 1_555
Na16 O40 2.463265 1_655
Na16 O46 2.522379 1_566
Na16 O47 2.579165 1_666
Na16 O45 2.612200 1_556
Na17 O49 2.343012 1_555
Na17 O48 2.398795 1_555
Na17 O50 2.459966 1_555
Na17 O55 2.516484 1_555
Na17 O56 2.586003 1_555
Na17 O54 2.660835 1_555
Na18 O57 2.465738 1_555
Na18 O53 2.471669 1_555
Na18 O59 2.473840 1_555
Na18 O58 2.475512 1_555
Na18 O51 2.486548 1_555
Na18 O52 2.500296 1_555
Na19 O60 2.427768 1_555
Na19 O67 2.453794 1_555
Na19 O62 2.465352 1_555
Na19 O66 2.471418 1_555
Na19 O68 2.472303 1_555
Na19 O61 2.526898 1_555
Na20 O65 2.331972 1_555
Na20 O64 2.336155 1_555
Na20 O63 2.357338 1_555
Na20 O70 2.604904 1_555
Na20 O69 2.609460 1_555
Na20 O71 2.628607 1_555
Nb0 O20 1.896306 1_556
Nb0 O55 1.954056 1_555
Nb0 O18 1.977544 1_556
Nb0 O19 2.017015 1_556
Nb0 O56 2.041367 1_555
Nb0 O54 2.109293 1_555
Nb1 O23 1.927740 1_555
Nb1 O22 1.935189 1_555
Nb1 O59 1.987843 1_555
Nb1 O57 2.023484 1_555
Nb1 O58 2.030517 1_555
Nb1 O21 2.053004 1_555
Nb2 O33 1.902459 1_555
Nb2 O69 1.959803 1_555
Nb2 O34 1.998053 1_555
Nb2 O70 2.004395 1_555
Nb2 O35 2.032885 1_555
Nb2 O71 2.048659 1_555
Al0 O38 1.877611 1_665
Al0 O36 1.893308 1_655
Al0 O37 1.897794 1_555
Al0 O1 1.959811 1_555
Al0 O0 1.977500 1_665
Al0 O2 1.984093 1_565
Al1 O3 1.842546 1_555
Al1 O5 1.900467 1_455
Al1 O4 1.902642 1_445
Al1 O39 1.917991 1_555
Al1 O41 1.995287 1_445
Al1 O40 2.073942 1_545
Al2 O7 1.842220 1_655
Al2 O42 1.897921 1_555
Al2 O44 1.905393 1_545
Al2 O8 1.928988 1_645
Al2 O6 1.937206 1_545
Al2 O43 2.019235 1_655
Al3 O10 1.897302 1_555
Al3 O47 1.898744 1_555
Al3 O46 1.905928 1_455
Al3 O9 1.917818 1_445
Al3 O11 1.921364 1_545
Al3 O45 2.013940 1_445
Al4 O14 1.843356 1_555
Al4 O13 1.865148 1_555
Al4 O12 1.866513 1_555
Al4 O49 1.901303 1_555
Al4 O48 2.049869 1_555
Al4 O50 2.141145 1_555
Al5 O17 1.822112 1_555
Al5 O16 1.833707 1_555
Al5 O15 1.932563 1_555
Al5 O53 2.035344 1_555
Al5 O51 2.042971 1_555
Al5 O52 2.065843 1_555
Al6 O25 1.851452 1_554
Al6 O60 1.915445 1_555
Al6 O62 1.921887 1_555
Al6 O24 1.922740 1_554
Al6 O26 1.937582 1_554
Al6 O61 2.095895 1_555
Al7 O28 1.850442 1_555
Al7 O27 1.877982 1_555
Al7 O29 1.883492 1_555
Al7 O64 1.973193 1_555
Al7 O65 1.986954 1_555
Al7 O63 2.111521 1_555
Al8 O31 1.809116 1_555
Al8 O30 1.813882 1_555
Al8 O32 1.815456 1_555
Al8 O68 2.107627 1_555
Al8 O66 2.132881 1_555
Al8 O67 2.160020 1_555
O0 P0 1.543017 1_555
O1 P1 1.543990 1_555
O2 P2 1.542421 1_555
O3 Si0 1.612661 1_555
O4 P3 1.522553 1_555
O5 P4 1.524981 1_555
O6 P4 1.544989 1_565
O7 Si0 1.617474 1_555
O8 P3 1.532554 1_455
O9 P1 1.551165 1_555
O10 P2 1.551264 1_455
O11 P0 1.553235 1_565
O12 Si1 1.620887 1_555
O13 P5 1.531476 1_555
O14 Si2 1.616463 1_555
O15 P6 1.544659 1_555
O16 Si3 1.618814 1_555
O17 Si4 1.624767 1_555
O18 Si4 1.669945 1_555
O19 P6 1.568962 1_555
O20 Si3 1.682775 1_555
O21 P5 1.581878 1_555
O22 Si2 1.684759 1_555
O23 Si1 1.686821 1_555
O24 P7 1.545910 1_555
O25 Si5 1.619924 1_555
O26 P8 1.532612 1_555
O27 Si6 1.620195 1_555
O28 Si7 1.620133 1_555
O29 Si8 1.617805 1_555
O30 Si8 1.626395 1_555
O31 Si6 1.629606 1_555
O32 Si7 1.629613 1_555
O33 Si5 1.668423 1_555
O34 P8 1.549706 1_555
O35 P7 1.571716 1_555
O36 Si8 1.627898 1_555
O37 Si6 1.633731 1_555
O38 Si7 1.629445 1_555
O39 Si5 1.610875 1_555
O40 P8 1.526249 1_555
O41 P7 1.507580 1_555
O42 Si1 1.626829 1_555
O43 P5 1.536575 1_555
O44 Si2 1.625971 1_555
O45 P6 1.539960 1_555
O46 Si3 1.623839 1_555
O47 Si4 1.631380 1_555
O48 P4 1.539142 1_555
O49 Si0 1.626435 1_555
O50 P3 1.550448 1_555
O51 P1 1.573228 1_555
O52 P2 1.571301 1_555
O53 P0 1.572018 1_555
O54 P7 1.571656 1_555
O55 Si5 1.647158 1_655
O56 P8 1.585733 1_545
O57 Si6 1.665919 1_545
O58 Si7 1.665135 1_555
O59 Si8 1.676569 1_655
O60 Si4 1.632271 1_555
O61 P6 1.538960 1_455
O62 Si3 1.624929 1_565
O63 P5 1.538301 1_565
O64 Si2 1.625718 1_555
O65 Si1 1.625909 1_455
O66 P0 1.561095 1_565
O67 P1 1.558566 1_555
O68 P2 1.562114 1_455
O69 Si0 1.749133 1_555
O70 P3 1.598043 1_455
O71 P4 1.580456 1_565
