# generated using pymatgen
data_Na6Zn3Si2Ge(SO6)4
_symmetry_space_group_name_H-M   'P 1'
_cell_length_a   8.98720262
_cell_length_b   8.98931816
_cell_length_c   22.01556479
_cell_angle_alpha   89.69217106
_cell_angle_beta   88.97100811
_cell_angle_gamma   120.02880574
_symmetry_Int_Tables_number   1
_chemical_formula_structural   Na6Zn3Si2Ge(SO6)4
_chemical_formula_sum   'Na18 Zn9 Si6 Ge3 S12 O72'
_cell_volume   1539.41534004
_cell_formula_units_Z   3
loop_
 _symmetry_equiv_pos_site_id
 _symmetry_equiv_pos_as_xyz
  1  'x, y, z'
loop_
 _atom_site_type_symbol
 _atom_site_label
 _atom_site_symmetry_multiplicity
 _atom_site_fract_x
 _atom_site_fract_y
 _atom_site_fract_z
 _atom_site_occupancy
  Na  Na0  1  0.63447534  0.99841138  0.25773724  1
  Na  Na1  1  0.36794335  0.36654928  0.24383446  1
  Na  Na2  1  0.63714195  0.64238299  0.74016424  1
  Na  Na3  1  0.30415176  0.33789770  0.59044893  1
  Na  Na4  1  0.03117865  0.70407711  0.58329649  1
  Na  Na5  1  0.66513687  0.94074144  0.58421273  1
  Na  Na6  1  0.29418502  0.96813326  0.07582955  1
  Na  Na7  1  0.05341800  0.33800484  0.07638429  1
  Na  Na8  1  0.97954991  0.67960477  0.91660240  1
  Na  Na9  1  0.70264493  0.02849512  0.90502995  1
  Na  Na10  1  0.31031665  0.28700648  0.91783047  1
  Na  Na11  1  0.69734459  0.68649913  0.42066540  1
  Na  Na12  1  0.99096771  0.00258238  0.49488045  1
  Na  Na13  1  0.00732524  0.00777982  0.99700569  1
  Na  Na14  1  0.66672707  0.30697638  0.82575926  1
  Na  Na15  1  0.67804263  0.32407808  0.33509480  1
  Na  Na16  1  0.33720195  0.65535123  0.16290212  1
  Na  Na17  1  0.34696833  0.67304510  0.66986439  1
  Zn  Zn0  1  0.99387272  0.00982259  0.35016672  1
  Zn  Zn1  1  0.99743853  0.02081716  0.84746854  1
  Zn  Zn2  1  0.96063660  0.96937749  0.65760362  1
  Zn  Zn3  1  0.01858841  0.01116025  0.14783584  1
  Zn  Zn4  1  0.65583642  0.31564389  0.68599354  1
  Zn  Zn5  1  0.65916095  0.34484274  0.17898623  1
  Zn  Zn6  1  0.32979418  0.65721330  0.01428736  1
  Zn  Zn7  1  0.35912337  0.66760687  0.51122829  1
  Zn  Zn8  1  0.34672286  0.70016220  0.33014124  1
  Si  Si0  1  0.68303359  0.99123394  0.75313996  1
  Si  Si1  1  0.66561699  0.61422439  0.58378973  1
  Si  Si2  1  0.37709835  0.34045254  0.08430243  1
  Si  Si3  1  0.03674509  0.37953666  0.91992201  1
  Si  Si4  1  0.33331417  0.96341599  0.92254331  1
  Si  Si5  1  0.64358690  0.98502859  0.41903045  1
  Ge  Ge0  1  0.65641677  0.31807916  0.97914303  1
  Ge  Ge1  1  0.67440903  0.33071231  0.48279649  1
  Ge  Ge2  1  0.31915429  0.69192907  0.81912182  1
  S  S0  1  0.29195638  0.99330408  0.25017570  1
  S  S1  1  0.70867879  0.70528993  0.25089121  1
  S  S2  1  0.00086005  0.30358459  0.24783200  1
  S  S3  1  0.29458699  0.30237705  0.75036008  1
  S  S4  1  0.00877732  0.70575204  0.75219527  1
  S  S5  1  0.96054791  0.33662688  0.58084277  1
  S  S6  1  0.37297799  0.04254632  0.58200880  1
  S  S7  1  0.95331288  0.62499877  0.08265990  1
  S  S8  1  0.67034203  0.04433898  0.08414076  1
  S  S9  1  0.62591864  0.65767189  0.91702348  1
  S  S10  1  0.33748826  0.36483605  0.41645284  1
  S  S11  1  0.03139285  0.65854147  0.41982036  1
  O  O0  1  0.19687903  0.01130495  0.30221592  1
  O  O1  1  0.79677292  0.78337464  0.30834959  1
  O  O2  1  0.97226718  0.18906727  0.30073689  1
  O  O3  1  0.21547840  0.20119120  0.80652078  1
  O  O4  1  0.99706459  0.79478757  0.80615641  1
  O  O5  1  0.79380878  0.00469182  0.81150012  1
  O  O6  1  0.74677872  0.93615216  0.69044823  1
  O  O7  1  0.20007038  0.21330512  0.69467908  1
  O  O8  1  0.03585221  0.80491331  0.69429267  1
  O  O9  1  0.79991403  0.81580039  0.19730100  1
  O  O10  1  0.02671989  0.22689083  0.19070074  1
  O  O11  1  0.20735104  0.98360540  0.19162269  1
  O  O12  1  0.88093176  0.35994559  0.63544522  1
  O  O13  1  0.48056674  0.11190800  0.63474836  1
  O  O14  1  0.64282307  0.50091189  0.64368894  1
  O  O15  1  0.87198619  0.51400211  0.13642436  1
  O  O16  1  0.65267657  0.12789319  0.13928788  1
  O  O17  1  0.46647109  0.35023879  0.14819320  1
  O  O18  1  0.48308126  0.30671980  0.02491343  1
  O  O19  1  0.85870622  0.54122321  0.02528296  1
  O  O20  1  0.70215136  0.15829489  0.02688937  1
  O  O21  1  0.46103627  0.15379883  0.52579880  1
  O  O22  1  0.69080577  0.51334140  0.52166548  1
  O  O23  1  0.84477250  0.29803036  0.52611310  1
  O  O24  1  0.55152808  0.69077165  0.97134183  1
  O  O25  1  0.14790109  0.44635882  0.97961047  1
  O  O26  1  0.30717458  0.85334225  0.98336284  1
  O  O27  1  0.55729651  0.86419564  0.47901910  1
  O  O28  1  0.30746796  0.43773803  0.47277059  1
  O  O29  1  0.12234311  0.66786606  0.47587266  1
  O  O30  1  0.11237496  0.63308639  0.36504464  1
  O  O31  1  0.53533876  0.91400317  0.35664445  1
  O  O32  1  0.35975646  0.47452637  0.36193044  1
  O  O33  1  0.13774707  0.52225759  0.86155352  1
  O  O34  1  0.38132213  0.87751385  0.86371204  1
  O  O35  1  0.51910741  0.62751783  0.86227496  1
  O  O36  1  0.00832032  0.81069220  0.41494187  1
  O  O37  1  0.83089570  0.99633341  0.41310583  1
  O  O38  1  0.19582219  0.18707479  0.41099648  1
  O  O39  1  0.00170716  0.18665753  0.91043971  1
  O  O40  1  0.16758272  0.98600277  0.91206397  1
  O  O41  1  0.80442485  0.80256103  0.91003504  1
  O  O42  1  0.98685828  0.18549402  0.58409340  1
  O  O43  1  0.20549861  0.03961135  0.58690640  1
  O  O44  1  0.84116178  0.80641823  0.58137347  1
  O  O45  1  0.96356650  0.79527064  0.08567978  1
  O  O46  1  0.82658959  0.02854652  0.08482250  1
  O  O47  1  0.18606943  0.15974685  0.08082882  1
  O  O48  1  0.66069190  0.15699224  0.74478428  1
  O  O49  1  0.47566741  0.33763460  0.74899117  1
  O  O50  1  0.85240849  0.53453350  0.74957020  1
  O  O51  1  0.68786136  0.52949896  0.24827122  1
  O  O52  1  0.84149991  0.31621720  0.24442757  1
  O  O53  1  0.47040259  0.14987965  0.25008518  1
  O  O54  1  0.63690134  0.49414337  0.92226566  1
  O  O55  1  0.84303415  0.37071202  0.92554456  1
  O  O56  1  0.51682194  0.15723206  0.92321883  1
  O  O57  1  0.65607267  0.17766025  0.42789864  1
  O  O58  1  0.50773291  0.36717751  0.42040616  1
  O  O59  1  0.84867932  0.50138001  0.42152339  1
  O  O60  1  0.35243114  0.50685811  0.07899800  1
  O  O61  1  0.13087150  0.65186421  0.08089205  1
  O  O62  1  0.51178752  0.87792286  0.07899453  1
  O  O63  1  0.33788683  0.86307650  0.57483950  1
  O  O64  1  0.49182749  0.63178974  0.57959978  1
  O  O65  1  0.12946191  0.49607462  0.57114810  1
  O  O66  1  0.31112462  0.83742076  0.25418694  1
  O  O67  1  0.53002923  0.68416481  0.25265569  1
  O  O68  1  0.15958814  0.47324684  0.25447032  1
  O  O69  1  0.30268967  0.47353397  0.75249797  1
  O  O70  1  0.16745433  0.68579148  0.75469890  1
  O  O71  1  0.48881016  0.79950431  0.76251760  1
loop_
_geom_bond_atom_site_label_1
_geom_bond_atom_site_label_2
_geom_bond_distance
_geom_bond_site_symmetry_2
Na0 O31 2.312355 1_555
Na0 O53 2.464263 1_565
Na0 O67 2.495336 1_555
Na0 O66 2.519040 1_555
Na0 O52 2.522029 1_565
Na0 O16 2.818386 1_565
Na0 O2 2.821838 1_565
Na1 O17 2.303349 1_555
Na1 O67 2.482934 1_555
Na1 O51 2.493628 1_555
Na1 O68 2.503076 1_555
Na1 O53 2.541095 1_555
Na1 O32 2.792673 1_555
Na1 O10 2.939402 1_555
Na2 O49 2.377741 1_555
Na2 O71 2.425415 1_555
Na2 O14 2.494237 1_555
Na2 O6 2.543325 1_555
Na2 O50 2.571991 1_555
Na2 O69 2.610042 1_555
Na2 O35 2.849938 1_555
Na3 O64 2.323869 1_555
Na3 O43 2.367979 1_555
Na3 O42 2.476755 1_455
Na3 O7 2.498337 1_555
Na3 O65 2.630388 1_555
Na3 O28 2.732009 1_555
Na4 O44 2.310642 1_455
Na4 O63 2.389782 1_555
Na4 O65 2.449040 1_555
Na4 O29 2.564380 1_555
Na4 O8 2.604648 1_555
Na4 O43 2.614552 1_565
Na5 O64 2.414270 1_555
Na5 O44 2.423561 1_555
Na5 O6 2.470042 1_555
Na5 O27 2.491272 1_555
Na5 O42 2.614077 1_565
Na5 O63 2.673592 1_555
Na6 O26 2.314549 1_554
Na6 O47 2.365684 1_565
Na6 O61 2.462481 1_555
Na6 O62 2.465468 1_555
Na6 O45 2.577310 1_455
Na6 O11 2.677318 1_555
Na6 O18 2.850585 1_565
Na7 O25 2.300836 1_554
Na7 O60 2.335115 1_555
Na7 O47 2.431685 1_555
Na7 O46 2.496748 1_455
Na7 O61 2.548417 1_555
Na7 O10 2.664707 1_555
Na8 O41 2.338218 1_555
Na8 O40 2.405073 1_655
Na8 O55 2.414541 1_555
Na8 O4 2.608693 1_555
Na8 O19 2.640886 1_556
Na8 O54 2.669000 1_555
Na8 O33 2.731313 1_655
Na9 O5 2.253131 1_555
Na9 O39 2.334132 1_655
Na9 O56 2.490761 1_555
Na9 O41 2.614268 1_545
Na9 O34 2.682101 1_545
Na9 O55 2.722153 1_555
Na9 O20 2.932114 1_556
Na9 O24 2.991144 1_545
Na10 O40 2.349179 1_545
Na10 O39 2.458941 1_555
Na10 O54 2.575591 1_555
Na10 O3 2.600766 1_555
Na10 O56 2.644380 1_555
Na10 O18 2.803663 1_556
Na10 O25 2.841633 1_555
Na10 O35 2.918064 1_555
Na11 O37 2.422319 1_555
Na11 O36 2.436420 1_655
Na11 O58 2.499666 1_555
Na11 O1 2.605713 1_555
Na11 O59 2.623971 1_555
Na11 O22 2.690206 1_555
Na11 O27 2.786115 1_555
Na11 O32 2.981458 1_555
Na12 O37 2.308047 1_545
Na12 O44 2.458405 1_545
Na12 O38 2.517836 1_655
Na12 O36 2.527656 1_645
Na12 O42 2.579803 1_555
Na12 O43 2.727271 1_655
Na13 O47 2.406127 1_556
Na13 O40 2.408138 1_545
Na13 O39 2.504403 1_555
Na13 O46 2.570134 1_456
Na13 O45 2.606820 1_446
Na13 O41 2.681595 1_445
Na14 O48 2.225960 1_555
Na14 O50 2.495735 1_555
Na14 O56 2.506149 1_555
Na14 O49 2.540401 1_555
Na14 O55 2.625817 1_555
Na14 O54 2.808224 1_555
Na15 O57 2.375341 1_555
Na15 O52 2.479414 1_555
Na15 O59 2.490712 1_555
Na15 O58 2.553138 1_555
Na15 O53 2.582501 1_555
Na15 O51 2.619988 1_555
Na16 O60 2.326579 1_555
Na16 O68 2.554478 1_555
Na16 O62 2.567399 1_555
Na16 O67 2.579537 1_555
Na16 O61 2.600392 1_555
Na16 O66 2.678587 1_555
Na17 O71 2.397092 1_555
Na17 O69 2.430862 1_555
Na17 O64 2.485905 1_555
Na17 O70 2.486620 1_555
Na17 O63 2.721882 1_555
Na17 O65 2.855245 1_555
Ge0 O18 1.798849 1_556
Ge0 O56 1.854585 1_555
Ge0 O55 1.886228 1_555
Ge0 O20 1.981711 1_556
Ge0 O54 2.089997 1_555
Ge0 O19 2.190657 1_556
Ge1 O57 1.782948 1_555
Ge1 O22 1.796297 1_555
Ge1 O23 1.959495 1_555
Ge1 O21 1.992240 1_555
Ge1 O59 2.030605 1_555
Ge1 O58 2.190545 1_555
Ge2 O34 1.778597 1_555
Ge2 O71 1.804429 1_555
Ge2 O33 1.816088 1_555
Ge2 O70 1.966822 1_555
Ge2 O35 2.358797 1_555
Ge2 O69 2.403230 1_555
O0 S0 1.474502 1_545
O0 Zn0 2.085568 1_455
O1 S1 1.486268 1_555
O1 Zn0 2.144477 1_565
O2 S2 1.481204 1_655
O2 Zn0 2.029797 1_555
O3 S3 1.473306 1_555
O3 Zn1 2.005596 1_455
O4 S4 1.467320 1_655
O4 Zn1 2.229075 1_565
O5 Si0 1.607369 1_545
O5 Zn1 1.945498 1_555
O6 Si0 1.655647 1_555
O6 Zn2 1.918153 1_555
O7 S3 1.494181 1_555
O7 Zn2 2.337639 1_445
O8 S4 1.496114 1_555
O8 Zn2 2.074158 1_455
O9 S1 1.479379 1_555
O9 Zn3 2.140222 1_665
O10 S2 1.506821 1_555
O10 Zn3 2.130016 1_555
O11 S0 1.489141 1_555
O11 Zn3 2.084543 1_565
O12 S5 1.457019 1_555
O12 Zn4 2.144181 1_555
O13 S6 1.454829 1_555
O13 Zn4 2.075300 1_555
O14 Si1 1.607962 1_555
O14 Zn4 1.958818 1_555
O15 S7 1.468723 1_555
O15 Zn5 1.964187 1_555
O16 S8 1.478378 1_555
O16 Zn5 2.115898 1_555
O17 Si2 1.613249 1_555
O17 Zn5 1.893873 1_555
O18 Si2 1.719683 1_555
O19 S7 1.514473 1_555
O20 S8 1.549140 1_555
O21 S6 1.522250 1_555
O22 Si1 1.718122 1_555
O23 S5 1.530688 1_555
O24 S9 1.462796 1_555
O24 Zn6 2.069693 1_556
O25 Si3 1.593931 1_555
O25 Zn6 1.951146 1_556
O26 Si4 1.602792 1_555
O26 Zn6 1.990989 1_556
O27 Si5 1.621779 1_555
O27 Zn7 1.894432 1_555
O28 S10 1.487686 1_555
O28 Zn7 2.067612 1_555
O29 S11 1.471981 1_555
O29 Zn7 2.280056 1_555
O30 S11 1.474592 1_555
O30 Zn8 2.013874 1_555
O31 Si5 1.635914 1_555
O31 Zn8 1.922319 1_555
O32 S10 1.494756 1_555
O32 Zn8 2.200695 1_555
O33 Si3 1.701771 1_555
O34 Si4 1.668575 1_555
O35 S9 1.494116 1_555
O36 S11 1.486035 1_555
O36 Zn0 2.338082 1_465
O37 Si5 1.637641 1_555
O37 Zn0 1.956427 1_565
O38 S10 1.469753 1_555
O38 Zn0 2.200497 1_455
O39 Si3 1.615171 1_555
O39 Zn1 2.027995 1_455
O40 Si4 1.620948 1_555
O40 Zn1 2.238486 1_465
O41 S9 1.480344 1_555
O41 Zn1 2.287910 1_565
O42 S5 1.492603 1_555
O42 Zn2 2.437865 1_545
O43 S6 1.494074 1_555
O43 Zn2 2.477841 1_445
O44 Si1 1.656704 1_555
O44 Zn2 2.152257 1_555
O45 S7 1.488582 1_555
O45 Zn3 2.230628 1_665
O46 S8 1.480707 1_555
O46 Zn3 2.297822 1_655
O47 Si2 1.675362 1_555
O47 Zn3 2.027986 1_555
O48 Si0 1.610045 1_545
O48 Zn4 1.937934 1_555
O49 S3 1.493890 1_555
O49 Zn4 2.197080 1_555
O50 S4 1.478586 1_655
O50 Zn4 2.364537 1_555
O51 S1 1.496981 1_555
O51 Zn5 2.182064 1_555
O52 S2 1.495413 1_655
O52 Zn5 2.308716 1_555
O53 S0 1.514484 1_545
O53 Zn5 2.301941 1_555
O54 S9 1.525713 1_555
O55 Si3 1.704801 1_655
O56 Si4 1.697331 1_545
O57 Si5 1.690912 1_545
O58 S10 1.523666 1_555
O59 S11 1.539182 1_655
O60 Si2 1.622153 1_555
O60 Zn6 2.040274 1_555
O61 S7 1.489372 1_455
O61 Zn6 2.273234 1_555
O62 S8 1.468107 1_565
O62 Zn6 2.346723 1_555
O63 S6 1.490783 1_565
O63 Zn7 2.331884 1_555
O64 Si1 1.650688 1_555
O64 Zn7 2.058007 1_555
O65 S5 1.487211 1_455
O65 Zn7 2.252321 1_555
O66 S0 1.497297 1_555
O66 Zn8 2.193873 1_555
O67 S1 1.519181 1_555
O67 Zn8 2.404893 1_555
O68 S2 1.488197 1_555
O68 Zn8 2.543279 1_555
O69 S3 1.504501 1_555
O70 S4 1.525683 1_555
O71 Si0 1.741312 1_555
