# generated using pymatgen
data_Na5Si3Sn4(PO8)3
_symmetry_space_group_name_H-M   'P 1'
_cell_length_a   8.97612717
_cell_length_b   8.97969783
_cell_length_c   22.51223562
_cell_angle_alpha   89.99495611
_cell_angle_beta   90.08386541
_cell_angle_gamma   119.94663931
_symmetry_Int_Tables_number   1
_chemical_formula_structural   Na5Si3Sn4(PO8)3
_chemical_formula_sum   'Na15 Si9 Sn12 P9 O72'
_cell_volume   1572.29002848
_cell_formula_units_Z   3
loop_
 _symmetry_equiv_pos_site_id
 _symmetry_equiv_pos_as_xyz
  1  'x, y, z'
loop_
 _atom_site_type_symbol
 _atom_site_label
 _atom_site_symmetry_multiplicity
 _atom_site_fract_x
 _atom_site_fract_y
 _atom_site_fract_z
 _atom_site_occupancy
  Na  Na0  1  0.00045449  0.62986809  0.25020717  1
  Na  Na1  1  0.36929637  0.99906534  0.75064010  1
  Na  Na2  1  0.03007511  0.70134381  0.58018639  1
  Na  Na3  1  0.66036705  0.96169271  0.58510579  1
  Na  Na4  1  0.29737646  0.97023143  0.07982403  1
  Na  Na5  1  0.03641853  0.33942300  0.08642637  1
  Na  Na6  1  0.97223650  0.66930121  0.91934139  1
  Na  Na7  1  0.96441221  0.30066786  0.41296217  1
  Na  Na8  1  0.33722095  0.02872234  0.41850845  1
  Na  Na9  1  0.99404580  0.99030222  0.50000273  1
  Na  Na10  1  0.99796140  0.00116591  0.99931352  1
  Na  Na11  1  0.66427569  0.32417640  0.83350239  1
  Na  Na12  1  0.66422852  0.33222313  0.33268863  1
  Na  Na13  1  0.34796949  0.65815991  0.16738549  1
  Na  Na14  1  0.34260637  0.65239693  0.66718538  1
  Si  Si0  1  0.00009723  0.29535452  0.24987262  1
  Si  Si1  1  0.70734307  0.00177058  0.74931992  1
  Si  Si2  1  0.37110772  0.04191837  0.58361993  1
  Si  Si3  1  0.66379160  0.62255919  0.58477180  1
  Si  Si4  1  0.95690357  0.62668181  0.08246353  1
  Si  Si5  1  0.37596092  0.33578952  0.08425034  1
  Si  Si6  1  0.33586431  0.96463063  0.91536344  1
  Si  Si7  1  0.62764071  0.95927211  0.41764185  1
  Si  Si8  1  0.03821543  0.66601505  0.41614052  1
  Sn  Sn0  1  0.99253952  0.99639123  0.35183995  1
  Sn  Sn1  1  0.99900510  0.00511254  0.85233314  1
  Sn  Sn2  1  0.99941914  0.00149822  0.64875988  1
  Sn  Sn3  1  0.99770200  0.99994956  0.14818762  1
  Sn  Sn4  1  0.66774469  0.33428194  0.68615757  1
  Sn  Sn5  1  0.66536714  0.33212538  0.18563348  1
  Sn  Sn6  1  0.65828223  0.32951255  0.98058939  1
  Sn  Sn7  1  0.66534642  0.33804202  0.48141180  1
  Sn  Sn8  1  0.33496714  0.66652565  0.01798188  1
  Sn  Sn9  1  0.33891781  0.66949022  0.51883333  1
  Sn  Sn10  1  0.33466314  0.66593448  0.31426515  1
  Sn  Sn11  1  0.34027138  0.66891116  0.81422353  1
  P  P0  1  0.29540299  0.00231529  0.25075750  1
  P  P1  1  0.70556818  0.70689568  0.24934781  1
  P  P2  1  0.29107980  0.29339045  0.75055928  1
  P  P3  1  0.99818032  0.70305861  0.75138671  1
  P  P4  1  0.96066740  0.33395477  0.58244292  1
  P  P5  1  0.66668595  0.04210198  0.08280566  1
  P  P6  1  0.62649481  0.66676301  0.91627613  1
  P  P7  1  0.04125312  0.37347608  0.91704775  1
  P  P8  1  0.33466034  0.37649532  0.41574328  1
  O  O0  1  0.21166862  0.02648075  0.30725671  1
  O  O1  1  0.82415873  0.78471231  0.30430881  1
  O  O2  1  0.97368527  0.18357147  0.31010229  1
  O  O3  1  0.21279783  0.17442272  0.80526372  1
  O  O4  1  0.97348499  0.78658535  0.80794855  1
  O  O5  1  0.82698313  0.03265315  0.80716752  1
  O  O6  1  0.78708812  0.97372550  0.68792257  1
  O  O7  1  0.18235044  0.21339456  0.69426952  1
  O  O8  1  0.03666351  0.82004258  0.69575822  1
  O  O9  1  0.78737179  0.81656030  0.19342969  1
  O  O10  1  0.02548267  0.21016949  0.18940392  1
  O  O11  1  0.17964990  0.96609848  0.19483635  1
  O  O12  1  0.88080464  0.37320259  0.63669037  1
  O  O13  1  0.49545917  0.12004917  0.64194819  1
  O  O14  1  0.63625500  0.50900760  0.64378213  1
  O  O15  1  0.88040590  0.50369352  0.14118595  1
  O  O16  1  0.62545569  0.11642470  0.13834073  1
  O  O17  1  0.49053080  0.36641641  0.14343540  1
  O  O18  1  0.45072100  0.28136257  0.02731836  1
  O  O19  1  0.84682675  0.54223271  0.02166933  1
  O  O20  1  0.70851606  0.16038846  0.02824605  1
  O  O21  1  0.45290461  0.15144141  0.52263116  1
  O  O22  1  0.71661061  0.54755431  0.52727254  1
  O  O23  1  0.84867151  0.29587447  0.52559582  1
  O  O24  1  0.54551034  0.69506507  0.97228223  1
  O  O25  1  0.14586178  0.44924702  0.97511323  1
  O  O26  1  0.29538897  0.84222278  0.97480311  1
  O  O27  1  0.55305221  0.85022007  0.47886266  1
  O  O28  1  0.29464335  0.45345429  0.47062810  1
  O  O29  1  0.15740885  0.70257604  0.47586443  1
  O  O30  1  0.11794812  0.62424546  0.35696613  1
  O  O31  1  0.49872283  0.87291087  0.36109628  1
  O  O32  1  0.36612148  0.48590474  0.35979025  1
  O  O33  1  0.12880317  0.49294190  0.86328211  1
  O  O34  1  0.35888015  0.87580771  0.85536851  1
  O  O35  1  0.51473693  0.63271781  0.86072175  1
  O  O36  1  0.03633759  0.84741111  0.41009045  1
  O  O37  1  0.82375877  0.99208535  0.41288106  1
  O  O38  1  0.17297878  0.19452348  0.41043157  1
  O  O39  1  0.02130097  0.19355542  0.91208462  1
  O  O40  1  0.15396298  0.97084192  0.91112838  1
  O  O41  1  0.80907354  0.82768509  0.91159333  1
  O  O42  1  0.97401433  0.17034845  0.58905124  1
  O  O43  1  0.17769754  0.01587967  0.58964513  1
  O  O44  1  0.83567167  0.81745249  0.58885153  1
  O  O45  1  0.98391699  0.82060517  0.08880634  1
  O  O46  1  0.82909418  0.02604887  0.08919327  1
  O  O47  1  0.18070557  0.16433334  0.08878414  1
  O  O48  1  0.67970632  0.17080642  0.74683789  1
  O  O49  1  0.47025538  0.30764788  0.74603852  1
  O  O50  1  0.83651642  0.52503754  0.74591532  1
  O  O51  1  0.69276665  0.52870149  0.24507127  1
  O  O52  1  0.82935220  0.32046560  0.24687706  1
  O  O53  1  0.47387279  0.16342515  0.24571947  1
  O  O54  1  0.65522821  0.50985370  0.92052443  1
  O  O55  1  0.86436589  0.36556409  0.92112077  1
  O  O56  1  0.50986722  0.15230766  0.91928981  1
  O  O57  1  0.64217937  0.15037155  0.42143194  1
  O  O58  1  0.49183846  0.35082169  0.42100558  1
  O  O59  1  0.85148618  0.49050495  0.42105323  1
  O  O60  1  0.34955321  0.50293480  0.07756668  1
  O  O61  1  0.15191937  0.64949609  0.07819556  1
  O  O62  1  0.50259034  0.86460717  0.07580766  1
  O  O63  1  0.34743060  0.84689203  0.58016938  1
  O  O64  1  0.49437946  0.64507503  0.57968333  1
  O  O65  1  0.13817150  0.49774310  0.57628915  1
  O  O66  1  0.30707477  0.83556113  0.25450043  1
  O  O67  1  0.52750331  0.69155018  0.25538528  1
  O  O68  1  0.17061164  0.49085625  0.25264653  1
  O  O69  1  0.30510908  0.47109583  0.75717754  1
  O  O70  1  0.16277333  0.68732201  0.75583427  1
  O  O71  1  0.51188933  0.83098473  0.75278047  1
loop_
_geom_bond_atom_site_label_1
_geom_bond_atom_site_label_2
_geom_bond_distance
_geom_bond_site_symmetry_2
Na0 O68 2.407752 1_555
Na0 O52 2.413110 1_455
Na0 O66 2.433061 1_555
Na0 O51 2.441429 1_455
Na0 O30 2.633777 1_555
Na0 O15 2.691158 1_455
Na0 O1 2.850200 1_455
Na0 O11 2.900607 1_555
Na1 O71 2.418074 1_555
Na1 O48 2.420674 1_565
Na1 O49 2.450193 1_565
Na1 O70 2.471061 1_555
Na1 O34 2.586361 1_555
Na1 O13 2.688746 1_565
Na1 O3 2.859870 1_565
Na1 O8 2.867576 1_555
Na2 O44 2.446949 1_455
Na2 O43 2.457913 1_565
Na2 O65 2.462336 1_555
Na2 O63 2.470985 1_555
Na2 O29 2.610989 1_555
Na2 O22 2.711838 1_455
Na2 O8 2.801064 1_555
Na2 O12 2.856299 1_455
Na3 O63 2.464425 1_555
Na3 O64 2.467485 1_555
Na3 O42 2.485447 1_565
Na3 O44 2.489026 1_555
Na3 O6 2.555909 1_555
Na3 O27 2.584849 1_555
Na3 O13 2.820995 1_565
Na3 O23 2.932366 1_565
Na4 O45 2.447465 1_455
Na4 O47 2.449176 1_565
Na4 O62 2.458787 1_555
Na4 O61 2.499323 1_555
Na4 O26 2.625111 1_554
Na4 O18 2.694853 1_565
Na4 O11 2.791195 1_555
Na4 O16 2.874076 1_565
Na5 O60 2.444825 1_555
Na5 O61 2.445465 1_555
Na5 O46 2.481470 1_455
Na5 O47 2.486958 1_555
Na5 O10 2.572452 1_555
Na5 O25 2.693832 1_554
Na5 O15 2.779292 1_455
Na5 O20 2.868441 1_455
Na6 O40 2.370217 1_655
Na6 O55 2.396178 1_555
Na6 O54 2.465819 1_555
Na6 O41 2.505390 1_555
Na6 O19 2.569165 1_556
Na6 O4 2.717666 1_555
Na6 O26 2.806561 1_655
Na6 O33 2.881537 1_655
Na7 O59 2.385856 1_555
Na7 O37 2.404059 1_545
Na7 O38 2.489660 1_655
Na7 O57 2.515561 1_555
Na7 O2 2.561828 1_555
Na7 O23 2.733801 1_555
Na7 O30 2.817373 1_655
Na7 O28 2.877999 1_655
Na8 O36 2.364172 1_545
Na8 O57 2.388468 1_555
Na8 O58 2.507414 1_555
Na8 O38 2.571716 1_555
Na8 O21 2.576433 1_555
Na8 O0 2.740843 1_555
Na8 O31 2.785752 1_545
Na8 O29 2.852303 1_545
Na9 O37 2.489777 1_555
Na9 O44 2.497122 1_555
Na9 O36 2.525194 1_655
Na9 O43 2.540690 1_665
Na9 O42 2.637584 1_565
Na9 O38 2.660241 1_665
Na10 O40 2.522910 1_645
Na10 O47 2.546713 1_656
Na10 O45 2.549474 1_546
Na10 O39 2.554200 1_655
Na10 O41 2.560260 1_545
Na10 O46 2.605536 1_556
Na11 O56 2.429886 1_555
Na11 O48 2.431885 1_555
Na11 O55 2.564743 1_555
Na11 O49 2.581466 1_555
Na11 O50 2.599165 1_555
Na11 O54 2.600138 1_555
Na12 O52 2.470733 1_555
Na12 O57 2.524862 1_555
Na12 O59 2.531442 1_555
Na12 O53 2.540724 1_555
Na12 O51 2.572680 1_555
Na12 O58 2.577283 1_555
Na13 O60 2.460086 1_555
Na13 O68 2.469047 1_555
Na13 O67 2.473841 1_555
Na13 O61 2.643362 1_555
Na13 O62 2.655592 1_555
Na13 O66 2.665523 1_555
Na14 O64 2.416187 1_555
Na14 O71 2.480494 1_555
Na14 O69 2.514453 1_555
Na14 O63 2.610304 1_555
Na14 O65 2.632192 1_555
Na14 O70 2.683605 1_555
O0 P0 1.547733 1_555
O0 Sn0 2.103404 1_445
O1 P1 1.551119 1_555
O1 Sn0 2.042001 1_555
O2 Si0 1.632595 1_655
O2 Sn0 2.004975 1_545
O3 P2 1.550642 1_555
O3 Sn1 2.051770 1_455
O4 P3 1.549216 1_555
O4 Sn1 2.110074 1_565
O5 Si1 1.620106 1_555
O5 Sn1 1.963625 1_555
O6 Si1 1.633762 1_565
O6 Sn2 2.000577 1_565
O7 P2 1.539785 1_555
O7 Sn2 2.059725 1_455
O8 P3 1.558812 1_455
O8 Sn2 2.104452 1_465
O9 P1 1.540831 1_555
O9 Sn3 2.053021 1_555
O10 Si0 1.632562 1_555
O10 Sn3 2.004058 1_445
O11 P0 1.558543 1_565
O11 Sn3 2.086413 1_455
O12 P4 1.544143 1_555
O12 Sn4 2.087730 1_555
O13 Si2 1.635963 1_555
O13 Sn4 2.026942 1_555
O14 Si3 1.617000 1_555
O14 Sn4 1.973162 1_555
O15 Si4 1.638318 1_555
O15 Sn5 2.033945 1_555
O16 P5 1.547103 1_555
O16 Sn5 2.078462 1_555
O17 Si5 1.619311 1_555
O17 Sn5 1.984485 1_555
O18 Si5 1.631538 1_555
O18 Sn6 1.991514 1_554
O19 Si4 1.634806 1_555
O19 Sn6 2.033810 1_554
O20 P5 1.542973 1_555
O20 Sn6 2.083918 1_554
O21 Si2 1.634997 1_555
O21 Sn7 2.029746 1_555
O22 Si3 1.635462 1_555
O22 Sn7 1.987910 1_555
O23 P4 1.555126 1_555
O23 Sn7 2.111357 1_555
O24 P6 1.539438 1_555
O24 Sn8 2.053726 1_556
O25 P7 1.553084 1_555
O25 Sn8 2.075678 1_556
O26 Si6 1.653248 1_555
O26 Sn8 2.029424 1_556
O27 Si7 1.629285 1_555
O27 Sn9 2.007093 1_555
O28 P8 1.543546 1_555
O28 Sn9 2.080472 1_555
O29 Si8 1.644801 1_555
O29 Sn9 2.038882 1_555
O30 Si8 1.642681 1_555
O30 Sn10 2.031413 1_555
O31 Si7 1.631206 1_555
O31 Sn10 1.999417 1_555
O32 P8 1.534754 1_555
O32 Sn10 2.048938 1_555
O33 P7 1.547355 1_555
O33 Sn11 2.081089 1_555
O34 Si6 1.633568 1_555
O34 Sn11 2.006880 1_555
O35 P6 1.534315 1_555
O35 Sn11 2.038896 1_555
O36 Si8 1.643002 1_555
O36 Sn0 2.046256 1_455
O37 Si7 1.637049 1_555
O37 Sn0 2.032895 1_555
O38 P8 1.556444 1_555
O38 Sn0 2.155392 1_445
O39 P7 1.538155 1_555
O39 Sn1 2.091498 1_455
O40 Si6 1.663912 1_555
O40 Sn1 2.050172 1_465
O41 P6 1.556011 1_555
O41 Sn1 2.125825 1_565
O42 P4 1.539635 1_555
O42 Sn2 2.121717 1_555
O43 Si2 1.637814 1_555
O43 Sn2 2.036762 1_455
O44 Si3 1.659947 1_555
O44 Sn2 2.068814 1_565
O45 Si4 1.640106 1_555
O45 Sn3 2.048629 1_555
O46 P5 1.541369 1_555
O46 Sn3 2.111271 1_545
O47 Si5 1.661037 1_555
O47 Sn3 2.061767 1_445
O48 Si1 1.656664 1_555
O48 Sn4 2.046730 1_555
O49 P2 1.551866 1_555
O49 Sn4 2.144885 1_555
O50 P3 1.536193 1_555
O50 Sn4 2.107737 1_555
O51 P1 1.548971 1_555
O51 Sn5 2.129053 1_555
O52 Si0 1.658033 1_655
O52 Sn5 2.055820 1_555
O53 P0 1.535840 1_555
O53 Sn5 2.117987 1_555
O54 P6 1.556811 1_555
O54 Sn6 2.120259 1_555
O55 P7 1.556356 1_655
O55 Sn6 2.174462 1_555
O56 Si6 1.630678 1_545
O56 Sn6 2.022314 1_555
O57 Si7 1.656934 1_545
O57 Sn7 2.087147 1_555
O58 P8 1.543348 1_555
O58 Sn7 2.111928 1_555
O59 Si8 1.633588 1_655
O59 Sn7 2.057882 1_555
O60 Si5 1.639093 1_555
O60 Sn8 2.040973 1_555
O61 Si4 1.660680 1_455
O61 Sn8 2.077538 1_555
O62 P5 1.546040 1_565
O62 Sn8 2.108326 1_555
O63 Si2 1.657273 1_565
O63 Sn9 2.080559 1_555
O64 Si3 1.634891 1_555
O64 Sn9 2.042466 1_555
O65 P4 1.543364 1_455
O65 Sn9 2.128479 1_555
O66 P0 1.554627 1_565
O66 Sn10 2.137032 1_555
O67 P1 1.540413 1_555
O67 Sn10 2.101254 1_555
O68 Si0 1.656974 1_555
O68 Sn10 2.060916 1_555
O69 P2 1.543958 1_555
O69 Sn11 2.084146 1_555
O70 P3 1.555869 1_455
O70 Sn11 2.133168 1_555
O71 Si1 1.658352 1_565
O71 Sn11 2.042545 1_555
