# generated using pymatgen
data_MgCu6OF11
_symmetry_space_group_name_H-M   'P 1'
_cell_length_a   5.60855444
_cell_length_b   4.87181074
_cell_length_c   8.33875247
_cell_angle_alpha   94.22322844
_cell_angle_beta   89.61602577
_cell_angle_gamma   83.76645355
_symmetry_Int_Tables_number   1
_chemical_formula_structural   MgCu6OF11
_chemical_formula_sum   'Mg1 Cu6 O1 F11'
_cell_volume   225.85956904
_cell_formula_units_Z   1
loop_
 _symmetry_equiv_pos_site_id
 _symmetry_equiv_pos_as_xyz
  1  'x, y, z'
loop_
 _atom_site_type_symbol
 _atom_site_label
 _atom_site_symmetry_multiplicity
 _atom_site_fract_x
 _atom_site_fract_y
 _atom_site_fract_z
 _atom_site_occupancy
  Mg  Mg0  1  0.14992800  0.17006400  0.90813800  1
  Cu  Cu0  1  0.86620700  0.83443900  0.09070000  1
  Cu  Cu1  1  0.50679800  0.54655400  0.01662500  1
  Cu  Cu2  1  0.37634400  0.99100100  0.32441100  1
  Cu  Cu3  1  0.83533600  0.47900800  0.33114700  1
  Cu  Cu4  1  0.16931100  0.53684500  0.63554500  1
  Cu  Cu5  1  0.66176300  0.02684500  0.66199700  1
  O  O0  1  0.61573400  0.72303500  0.22040500  1
  F  F0  1  0.35795800  0.24391000  0.08861600  1
  F  F1  1  0.11832100  0.78094700  0.25004800  1
  F  F2  1  0.88294100  0.27200600  0.06103800  1
  F  F3  1  0.12630900  0.27667300  0.41049500  1
  F  F4  1  0.61640900  0.21223800  0.42006700  1
  F  F5  1  0.38419200  0.81515700  0.59286300  1
  F  F6  1  0.88176500  0.73594900  0.55220600  1
  F  F7  1  0.41119800  0.32093200  0.77933200  1
  F  F8  1  0.13496100  0.77496300  0.92145700  1
  F  F9  1  0.94582200  0.25396200  0.72709700  1
  F  F10  1  0.64620100  0.82491700  0.89843800  1
loop_
_geom_bond_atom_site_label_1
_geom_bond_atom_site_label_2
_geom_bond_distance
_geom_bond_site_symmetry_2
Cu0 O0 1.915589 1_555
Cu0 F1 1.956801 1_655
Cu0 F10 2.030523 1_554
Cu0 F8 2.040610 1_654
Cu0 F2 2.176032 1_565
Cu1 F0 1.903180 1_555
Cu1 F10 1.959192 1_554
Cu1 O0 1.978091 1_555
Cu1 F7 2.287559 1_554
Cu1 F2 2.418127 1_555
Cu1 F8 2.421877 1_554
Cu2 O0 1.922527 1_555
Cu2 F1 1.940649 1_555
Cu2 F4 1.952873 1_565
Cu2 F3 1.958137 1_565
Cu2 F0 2.393072 1_565
Cu2 F5 2.454088 1_555
Cu3 O0 1.908416 1_555
Cu3 F3 1.958033 1_655
Cu3 F4 2.054951 1_555
Cu3 F6 2.184047 1_555
Cu3 F2 2.400084 1_555
Cu3 F1 2.404013 1_655
Cu4 F6 1.949176 1_455
Cu4 F5 1.959010 1_555
Cu4 F7 2.069348 1_555
Cu4 F9 2.137882 1_455
Cu4 F3 2.215541 1_555
Cu4 F8 2.570017 1_555
Cu5 F6 1.945023 1_545
Cu5 F5 2.023014 1_545
Cu5 F7 2.079135 1_555
Cu5 F9 2.088795 1_555
Cu5 F10 2.272598 1_545
Cu5 F4 2.275018 1_555
F0 Mg0 1.946942 1_554
F2 Mg0 1.958100 1_654
F7 Mg0 2.042104 1_555
F8 Mg0 1.947025 1_565
F9 Mg0 1.941389 1_655
