# generated using pymatgen
data_Tb4Mg(WO6)2
_symmetry_space_group_name_H-M   'P 1'
_cell_length_a   5.74056031
_cell_length_b   5.47713397
_cell_length_c   8.32047915
_cell_angle_alpha   90.36441581
_cell_angle_beta   93.19906395
_cell_angle_gamma   88.88837244
_symmetry_Int_Tables_number   1
_chemical_formula_structural   Tb4Mg(WO6)2
_chemical_formula_sum   'Tb4 Mg1 W2 O12'
_cell_volume   261.15050633
_cell_formula_units_Z   1
loop_
 _symmetry_equiv_pos_site_id
 _symmetry_equiv_pos_as_xyz
  1  'x, y, z'
loop_
 _atom_site_type_symbol
 _atom_site_label
 _atom_site_symmetry_multiplicity
 _atom_site_fract_x
 _atom_site_fract_y
 _atom_site_fract_z
 _atom_site_occupancy
  Tb  Tb0  1  0.23238500  0.52555800  0.35741300  1
  Tb  Tb1  1  0.23053000  0.02938000  0.61349900  1
  Tb  Tb2  1  0.72741100  0.97498000  0.35337200  1
  Tb  Tb3  1  0.74550800  0.47582300  0.62410800  1
  Mg  Mg0  1  0.63317900  0.99223900  0.87580900  1
  W  W0  1  0.08298300  0.02570100  0.01305000  1
  W  W1  1  0.54054600  0.48956200  0.00399900  1
  O  O0  1  0.05707900  0.83722800  0.19467000  1
  O  O1  1  0.33614800  0.81980800  0.91283200  1
  O  O2  1  0.98408500  0.25561600  0.46096300  1
  O  O3  1  0.48763400  0.75519300  0.52478400  1
  O  O4  1  0.25074700  0.30661500  0.10080000  1
  O  O5  1  0.46424200  0.29981100  0.80427800  1
  O  O6  1  0.55829200  0.65142800  0.20189000  1
  O  O7  1  0.78257800  0.66286800  0.88824200  1
  O  O8  1  0.48679600  0.24696300  0.46760800  1
  O  O9  1  0.74262200  0.18622800  0.08068000  1
  O  O10  1  0.98214900  0.74845500  0.51394000  1
  O  O11  1  0.95063500  0.12164500  0.80300700  1
loop_
_geom_bond_atom_site_label_1
_geom_bond_atom_site_label_2
_geom_bond_distance
_geom_bond_site_symmetry_2
Mg0 O7 1.983211 1_555
Mg0 O5 2.004393 1_565
Mg0 O1 2.004768 1_555
Mg0 O9 2.076706 1_566
Mg0 O11 2.090246 1_565
O0 W0 1.849930 1_565
O0 Tb0 2.360305 1_555
O0 Tb2 2.470875 1_455
O1 W0 2.034417 1_566
O1 W1 2.249378 1_556
O1 Tb1 2.780118 1_565
O2 Tb1 2.213432 1_655
O2 Tb0 2.279270 1_655
O2 Tb2 2.293084 1_545
O2 Tb3 2.301223 1_555
O3 Tb1 2.236064 1_565
O3 Tb3 2.237720 1_555
O3 Tb0 2.343026 1_555
O3 Tb2 2.383933 1_555
O4 W0 1.947457 1_555
O4 W1 2.155194 1_555
O4 Tb0 2.448597 1_555
O5 W1 1.986943 1_556
O5 Tb3 2.476413 1_555
O5 Tb1 2.514590 1_555
O6 W1 1.863788 1_555
O6 Tb2 2.360802 1_555
O6 Tb0 2.445733 1_555
O7 W1 1.992805 1_556
O7 Tb3 2.419179 1_555
O8 Tb2 2.253706 1_545
O8 Tb0 2.254742 1_555
O8 Tb3 2.303945 1_555
O8 Tb1 2.311631 1_555
O9 W1 2.090238 1_555
O9 W0 2.226439 1_655
O9 Tb2 2.560042 1_545
O10 Tb1 2.241388 1_665
O10 Tb3 2.269474 1_555
O10 Tb2 2.279327 1_555
O10 Tb0 2.317475 1_655
O11 W0 1.937957 1_656
O11 Tb1 2.358909 1_655
O11 Tb3 2.667943 1_555
