# generated using pymatgen
data_MgTiZn(BiO3)2
_symmetry_space_group_name_H-M   'P 1'
_cell_length_a   5.64550523
_cell_length_b   5.64550523
_cell_length_c   6.63807104
_cell_angle_alpha   90.00000000
_cell_angle_beta   90.00000000
_cell_angle_gamma   110.63579476
_symmetry_Int_Tables_number   1
_chemical_formula_structural   MgTiZn(BiO3)2
_chemical_formula_sum   'Mg1 Ti1 Zn1 Bi2 O6'
_cell_volume   197.99258105
_cell_formula_units_Z   1
loop_
 _symmetry_equiv_pos_site_id
 _symmetry_equiv_pos_as_xyz
  1  'x, y, z'
loop_
 _atom_site_type_symbol
 _atom_site_label
 _atom_site_symmetry_multiplicity
 _atom_site_fract_x
 _atom_site_fract_y
 _atom_site_fract_z
 _atom_site_occupancy
  Mg  Mg0  1  0.66732740  0.33267260  0.00000000  1
  Ti  Ti0  1  0.36729513  0.63270487  0.00000000  1
  Zn  Zn0  1  0.45435910  0.54564090  0.50000000  1
  Bi  Bi0  1  0.02505062  0.97494938  0.71859285  1
  Bi  Bi1  1  0.02505062  0.97494938  0.28140715  1
  O  O0  1  0.11086965  0.29364611  0.50000000  1
  O  O1  1  0.70635389  0.88913035  0.50000000  1
  O  O2  1  0.02560456  0.52193309  0.00000000  1
  O  O3  1  0.47806691  0.97439544  0.00000000  1
  O  O4  1  0.50567656  0.49432344  0.79631688  1
  O  O5  1  0.50567656  0.49432344  0.20368312  1
loop_
_geom_bond_atom_site_label_1
_geom_bond_atom_site_label_2
_geom_bond_distance
_geom_bond_site_symmetry_2
Mg0 O3 1.926000 1_545
Mg0 O2 1.926000 1_655
Mg0 O4 2.020095 1_554
Mg0 O5 2.020095 1_555
Bi0 O1 2.227768 1_455
Bi0 O0 2.227768 1_565
Bi1 O1 2.227768 1_455
Bi1 O0 2.227768 1_565
O0 Zn0 1.959536 1_555
O1 Zn0 1.959536 1_555
O2 Ti0 1.806071 1_555
O3 Ti0 1.806071 1_555
O4 Ti0 1.865185 1_556
O4 Zn0 2.023860 1_555
O5 Ti0 1.865185 1_555
O5 Zn0 2.023860 1_555
