# generated using pymatgen
data_Na3Ca2Nb2P5SO24
_symmetry_space_group_name_H-M   'P 1'
_cell_length_a   9.07255809
_cell_length_b   9.06921798
_cell_length_c   22.76366440
_cell_angle_alpha   90.57380528
_cell_angle_beta   89.50553325
_cell_angle_gamma   119.84864320
_symmetry_Int_Tables_number   1
_chemical_formula_structural   Na3Ca2Nb2P5SO24
_chemical_formula_sum   'Na9 Ca6 Nb6 P15 S3 O72'
_cell_volume   1624.45297244
_cell_formula_units_Z   3
loop_
 _symmetry_equiv_pos_site_id
 _symmetry_equiv_pos_as_xyz
  1  'x, y, z'
loop_
 _atom_site_type_symbol
 _atom_site_label
 _atom_site_symmetry_multiplicity
 _atom_site_fract_x
 _atom_site_fract_y
 _atom_site_fract_z
 _atom_site_occupancy
  Na  Na0  1  0.01827823  0.36218965  0.75473724  1
  Na  Na1  1  0.68938851  0.99796762  0.58733088  1
  Na  Na2  1  0.68877643  0.69645116  0.08761369  1
  Na  Na3  1  0.02478348  0.00587048  0.50666810  1
  Na  Na4  1  0.01952139  0.01964748  0.00545590  1
  Na  Na5  1  0.66168988  0.34677557  0.84204266  1
  Na  Na6  1  0.65130526  0.31871838  0.33932811  1
  Na  Na7  1  0.32873486  0.68380464  0.17622088  1
  Na  Na8  1  0.33441369  0.67511207  0.67605924  1
  Ca  Ca0  1  0.00712075  0.99456683  0.64688384  1
  Ca  Ca1  1  0.00568624  0.00698177  0.14764252  1
  Ca  Ca2  1  0.67128533  0.33045134  0.97864189  1
  Ca  Ca3  1  0.66455886  0.33379397  0.47747373  1
  Ca  Ca4  1  0.33993661  0.66984219  0.31215265  1
  Ca  Ca5  1  0.34133166  0.67515033  0.81460051  1
  Nb  Nb0  1  0.99870519  0.99585189  0.35141136  1
  Nb  Nb1  1  0.99218208  0.99778077  0.85024740  1
  Nb  Nb2  1  0.66269795  0.33802895  0.68493530  1
  Nb  Nb3  1  0.65957493  0.33177962  0.18413456  1
  Nb  Nb4  1  0.33153054  0.66113903  0.01875198  1
  Nb  Nb5  1  0.33861536  0.65752812  0.51948661  1
  P  P0  1  0.30307332  0.01492498  0.24818073  1
  P  P1  1  0.71225473  0.69522197  0.24540884  1
  P  P2  1  0.29833808  0.28615026  0.74946579  1
  P  P3  1  0.98412335  0.69442472  0.74936019  1
  P  P4  1  0.70803511  0.01596571  0.74547783  1
  P  P5  1  0.96635346  0.34852081  0.58253272  1
  P  P6  1  0.37982837  0.02922449  0.58092519  1
  P  P7  1  0.65480427  0.62181368  0.58147172  1
  P  P8  1  0.96534192  0.61761920  0.08244843  1
  P  P9  1  0.64991653  0.02917686  0.08171558  1
  P  P10  1  0.37638328  0.34542850  0.08064007  1
  P  P11  1  0.63806172  0.68114597  0.91572514  1
  P  P12  1  0.04679294  0.36222618  0.91184291  1
  P  P13  1  0.63777569  0.95208663  0.41586567  1
  P  P14  1  0.31588272  0.35978367  0.41268672  1
  S  S0  1  0.97881282  0.28652832  0.25179749  1
  S  S1  1  0.31162237  0.95254870  0.91787736  1
  S  S2  1  0.05025576  0.68428851  0.41602403  1
  O  O0  1  0.19986120  0.03276847  0.30419158  1
  O  O1  1  0.83741345  0.80679360  0.29915219  1
  O  O2  1  0.96711948  0.17497105  0.30427298  1
  O  O3  1  0.19923822  0.16470644  0.80441673  1
  O  O4  1  0.96898905  0.79808223  0.80515185  1
  O  O5  1  0.83542301  0.03111101  0.79958308  1
  O  O6  1  0.78606448  0.00096437  0.68886888  1
  O  O7  1  0.19091616  0.21043437  0.69608017  1
  O  O8  1  0.01074919  0.79360950  0.69463043  1
  O  O9  1  0.78443179  0.78653460  0.18855325  1
  O  O10  1  0.00018923  0.21329910  0.19798228  1
  O  O11  1  0.20596355  0.00024844  0.19393034  1
  O  O12  1  0.87251526  0.37156954  0.64036823  1
  O  O13  1  0.50154907  0.13618433  0.63693720  1
  O  O14  1  0.63694707  0.50582045  0.63730105  1
  O  O15  1  0.86575596  0.49664806  0.13787511  1
  O  O16  1  0.63227007  0.13131845  0.13783555  1
  O  O17  1  0.49896177  0.36845062  0.13668479  1
  O  O18  1  0.46071212  0.32817225  0.02697253  1
  O  O19  1  0.85687954  0.54063822  0.02955256  1
  O  O20  1  0.67735418  0.12964756  0.02742305  1
  O  O21  1  0.46603491  0.12860813  0.52737568  1
  O  O22  1  0.68169047  0.54769804  0.52686453  1
  O  O23  1  0.85512514  0.32065248  0.53103164  1
  O  O24  1  0.53903315  0.70000734  0.97314530  1
  O  O25  1  0.17155914  0.47415904  0.96622116  1
  O  O26  1  0.30114865  0.84213824  0.97017584  1
  O  O27  1  0.53741596  0.83372380  0.47310059  1
  O  O28  1  0.30109625  0.46519186  0.47004540  1
  O  O29  1  0.15865845  0.70242659  0.46907521  1
  O  O30  1  0.12509360  0.66520858  0.36241947  1
  O  O31  1  0.53117134  0.86876936  0.36336982  1
  O  O32  1  0.32785706  0.46020005  0.36006274  1
  O  O33  1  0.12107832  0.45425796  0.85539834  1
  O  O34  1  0.32956131  0.87820862  0.86372410  1
  O  O35  1  0.53572005  0.66539145  0.86285331  1
  O  O36  1  0.04599786  0.85160037  0.41349468  1
  O  O37  1  0.81134481  0.94737190  0.40952617  1
  O  O38  1  0.14152459  0.18378824  0.41068416  1
  O  O39  1  0.04846752  0.18758648  0.91062651  1
  O  O40  1  0.14531476  0.95288589  0.91789137  1
  O  O41  1  0.81390743  0.85719611  0.91064217  1
  O  O42  1  0.99517019  0.19863920  0.59028897  1
  O  O43  1  0.19882066  0.99005561  0.58686449  1
  O  O44  1  0.78606584  0.80705971  0.59014903  1
  O  O45  1  0.99523164  0.79636383  0.09126423  1
  O  O46  1  0.78715457  0.98256051  0.09091461  1
  O  O47  1  0.19487587  0.20863348  0.08855835  1
  O  O48  1  0.71750547  0.19525792  0.74694302  1
  O  O49  1  0.47437548  0.29063612  0.74353676  1
  O  O50  1  0.80758390  0.52126771  0.74603781  1
  O  O51  1  0.71488902  0.52072668  0.24376512  1
  O  O52  1  0.81166427  0.28470821  0.25126808  1
  O  O53  1  0.48011836  0.18936856  0.24488557  1
  O  O54  1  0.67549773  0.53808962  0.92186912  1
  O  O55  1  0.86693127  0.32430495  0.92074501  1
  O  O56  1  0.45253765  0.12572893  0.92411011  1
  O  O57  1  0.68305980  0.13470655  0.42311507  1
  O  O58  1  0.46055218  0.32522066  0.41980886  1
  O  O59  1  0.87580162  0.54610789  0.42223168  1
  O  O60  1  0.38302769  0.52577051  0.07842898  1
  O  O61  1  0.14108821  0.62117183  0.07602393  1
  O  O62  1  0.47376701  0.85402784  0.07697500  1
  O  O63  1  0.38726984  0.85714808  0.58047921  1
  O  O64  1  0.47483804  0.61630951  0.57792229  1
  O  O65  1  0.14300040  0.51923567  0.57550961  1
  O  O66  1  0.33758210  0.87001733  0.25532070  1
  O  O67  1  0.53181644  0.65602799  0.25451576  1
  O  O68  1  0.11812142  0.46018379  0.25888698  1
  O  O69  1  0.32833383  0.46494006  0.75803372  1
  O  O70  1  0.12185091  0.64782106  0.75735296  1
  O  O71  1  0.52892433  0.87432196  0.75410349  1
loop_
_geom_bond_atom_site_label_1
_geom_bond_atom_site_label_2
_geom_bond_distance
_geom_bond_site_symmetry_2
Na0 O70 2.274165 1_555
Na0 O48 2.379162 1_455
Na0 O33 2.457848 1_555
Na0 O69 2.485934 1_555
Na0 O5 2.807808 1_455
Na0 O7 2.864118 1_555
Na0 O50 2.920965 1_455
Na0 O12 2.951259 1_455
Na1 O44 2.299129 1_555
Na1 O63 2.384791 1_555
Na1 O42 2.447037 1_565
Na1 O6 2.474370 1_565
Na2 O46 2.286286 1_555
Na2 O60 2.421529 1_555
Na2 O9 2.447721 1_555
Na2 O45 2.460264 1_555
Na3 O43 2.475238 1_545
Na3 O36 2.587398 1_545
Na3 O38 2.613214 1_555
Na3 O42 2.672836 1_455
Na3 O44 2.768272 1_445
Na3 O37 2.819377 1_445
Na4 O40 2.503339 1_544
Na4 O47 2.513956 1_555
Na4 O39 2.589686 1_554
Na4 O46 2.752883 1_445
Na4 O41 2.752966 1_444
Na4 O45 2.755401 1_445
Na5 O54 2.460200 1_555
Na5 O50 2.639446 1_555
Na5 O55 2.676024 1_555
Na5 O56 2.708650 1_555
Na5 O49 2.712386 1_555
Na5 O48 2.728608 1_555
Na6 O58 2.529739 1_555
Na6 O53 2.569766 1_555
Na6 O52 2.571778 1_555
Na6 O57 2.656623 1_555
Na6 O51 2.725356 1_555
Na6 O59 2.787481 1_555
Na7 O66 2.430498 1_555
Na7 O67 2.676258 1_555
Na7 O62 2.686103 1_555
Na7 O68 2.731706 1_555
Na7 O61 2.738920 1_555
Na7 O60 2.805757 1_555
Na8 O71 2.520051 1_555
Na8 O70 2.584044 1_555
Na8 O63 2.637287 1_555
Na8 O69 2.661419 1_555
Na8 O64 2.738865 1_555
Na8 O65 2.795226 1_555
Ca0 O8 2.145699 1_555
Ca0 O7 2.146206 1_565
Ca0 O43 2.218532 1_555
Ca0 O6 2.240679 1_465
Ca0 O44 2.277674 1_455
Ca0 O42 2.312310 1_465
Ca1 O11 2.135496 1_555
Ca1 O10 2.205839 1_555
Ca1 O9 2.214497 1_445
Ca1 O47 2.232584 1_555
Ca1 O45 2.253295 1_445
Ca1 O46 2.291030 1_445
Ca2 O19 2.146257 1_556
Ca2 O20 2.166565 1_556
Ca2 O18 2.187572 1_556
Ca2 O55 2.224272 1_555
Ca2 O54 2.279041 1_555
Ca2 O56 2.292440 1_555
Ca3 O21 2.160553 1_555
Ca3 O22 2.170440 1_555
Ca3 O23 2.175816 1_555
Ca3 O58 2.247546 1_555
Ca3 O57 2.252278 1_555
Ca3 O59 2.301195 1_555
Ca4 O31 2.121630 1_555
Ca4 O32 2.156015 1_555
Ca4 O67 2.223066 1_555
Ca4 O30 2.234123 1_555
Ca4 O66 2.248564 1_555
Ca4 O68 2.307055 1_555
Ca5 O35 2.124942 1_555
Ca5 O34 2.192194 1_555
Ca5 O33 2.211164 1_555
Ca5 O71 2.237212 1_555
Ca5 O69 2.244144 1_555
Ca5 O70 2.296038 1_555
Nb0 O0 1.990790 1_665
Nb0 O1 1.997007 1_555
Nb0 O37 2.015372 1_555
Nb0 O38 2.047017 1_665
Nb0 O2 2.091900 1_565
Nb0 O36 2.121113 1_655
Nb1 O5 1.976710 1_565
Nb1 O4 1.991311 1_555
Nb1 O41 2.018835 1_555
Nb1 O3 2.018934 1_665
Nb1 O39 2.050068 1_665
Nb1 O40 2.253791 1_655
Nb2 O14 1.984276 1_555
Nb2 O13 2.001436 1_555
Nb2 O49 2.030910 1_555
Nb2 O12 2.035149 1_555
Nb2 O50 2.057916 1_555
Nb2 O48 2.146119 1_555
Nb3 O17 1.979244 1_555
Nb3 O16 1.998796 1_555
Nb3 O15 2.014220 1_555
Nb3 O53 2.033495 1_555
Nb3 O51 2.034696 1_555
Nb3 O52 2.248873 1_555
Nb4 O25 1.987816 1_554
Nb4 O24 2.014743 1_554
Nb4 O61 2.040474 1_555
Nb4 O60 2.046034 1_555
Nb4 O62 2.053792 1_555
Nb4 O26 2.117856 1_554
Nb5 O28 1.949744 1_555
Nb5 O64 1.983643 1_555
Nb5 O27 2.013332 1_555
Nb5 O65 2.031340 1_555
Nb5 O63 2.136547 1_555
Nb5 O29 2.202669 1_555
O0 P0 1.629351 1_555
O1 P1 1.632609 1_555
O2 S0 1.541738 1_555
O3 P2 1.615122 1_555
O4 P3 1.617761 1_555
O5 P4 1.653684 1_555
O6 P4 1.502280 1_555
O7 P2 1.495245 1_555
O8 P3 1.490168 1_455
O9 P1 1.502234 1_555
O10 S0 1.444715 1_455
O11 P0 1.489216 1_555
O12 P5 1.629136 1_555
O13 P6 1.649067 1_555
O14 P7 1.612946 1_555
O15 P8 1.622726 1_555
O16 P9 1.623618 1_555
O17 P10 1.641951 1_555
O18 P10 1.483759 1_555
O19 P8 1.491763 1_555
O20 P9 1.486989 1_555
O21 P6 1.487903 1_555
O22 P7 1.482482 1_555
O23 P5 1.489036 1_555
O24 P11 1.634988 1_555
O25 P12 1.642948 1_555
O26 S1 1.534997 1_555
O27 P13 1.647256 1_555
O28 P14 1.654190 1_555
O29 S2 1.519271 1_555
O30 S2 1.441646 1_555
O31 P13 1.486204 1_555
O32 P14 1.482327 1_555
O33 P12 1.499462 1_555
O34 S1 1.445605 1_555
O35 P11 1.488242 1_555
O36 S2 1.538639 1_555
O37 P13 1.601675 1_555
O38 P14 1.593275 1_555
O39 P12 1.591424 1_555
O40 S1 1.510357 1_555
O41 P11 1.603994 1_555
O42 P5 1.518750 1_555
O43 P6 1.502577 1_565
O44 P7 1.511816 1_555
O45 P8 1.516090 1_555
O46 P9 1.517604 1_565
O47 P10 1.499703 1_555
O48 P4 1.585053 1_555
O49 P2 1.581879 1_555
O50 P3 1.591596 1_555
O51 P1 1.594628 1_555
O52 S0 1.508469 1_555
O53 P0 1.599794 1_555
O54 P11 1.503754 1_555
O55 P12 1.503059 1_655
O56 S1 1.456470 1_545
O57 P13 1.502483 1_545
O58 P14 1.503824 1_555
O59 S2 1.456305 1_655
O60 P10 1.607694 1_555
O61 P8 1.584199 1_455
O62 P9 1.600460 1_565
O63 P6 1.595205 1_565
O64 P7 1.611202 1_555
O65 P5 1.587987 1_455
O66 P0 1.505418 1_565
O67 P1 1.505191 1_555
O68 S0 1.456313 1_455
O69 P2 1.515468 1_555
O70 P3 1.517983 1_455
O71 P4 1.500330 1_565
