# generated using pymatgen
data_MgScMo3O8
_symmetry_space_group_name_H-M   'P 1'
_cell_length_a   6.29086567
_cell_length_b   6.11146118
_cell_length_c   4.96415618
_cell_angle_alpha   89.34131504
_cell_angle_beta   90.66251636
_cell_angle_gamma   118.89806728
_symmetry_Int_Tables_number   1
_chemical_formula_structural   MgScMo3O8
_chemical_formula_sum   'Mg1 Sc1 Mo3 O8'
_cell_volume   167.07390412
_cell_formula_units_Z   1
loop_
 _symmetry_equiv_pos_site_id
 _symmetry_equiv_pos_as_xyz
  1  'x, y, z'
loop_
 _atom_site_type_symbol
 _atom_site_label
 _atom_site_symmetry_multiplicity
 _atom_site_fract_x
 _atom_site_fract_y
 _atom_site_fract_z
 _atom_site_occupancy
  Mg  Mg0  1  0.66928400  0.33346900  0.68270600  1
  Sc  Sc0  1  0.33330700  0.66531900  0.75640400  1
  Mo  Mo0  1  0.83311200  0.68510700  0.24095600  1
  Mo  Mo1  1  0.83601800  0.15599000  0.24186700  1
  Mo  Mo2  1  0.32373000  0.16069900  0.23395500  1
  O  O0  1  0.50230200  0.01305500  0.49479800  1
  O  O1  1  0.66910800  0.34230600  0.05346900  1
  O  O2  1  0.65443400  0.81838700  0.00040300  1
  O  O3  1  0.17261500  0.84148600  0.02369800  1
  O  O4  1  0.97925400  0.49436600  0.49147000  1
  O  O5  1  0.00959400  0.99214800  0.46111200  1
  O  O6  1  0.17502200  0.33445700  0.02037900  1
  O  O7  1  0.50055000  0.48820900  0.49067200  1
loop_
_geom_bond_atom_site_label_1
_geom_bond_atom_site_label_2
_geom_bond_distance
_geom_bond_site_symmetry_2
Mg0 O1 1.841967 1_556
Mg0 O4 1.959253 1_555
Mg0 O0 1.959428 1_555
Mg0 O7 1.963646 1_555
Mo0 O5 1.988394 1_655
Mo0 O2 2.045583 1_555
Mo0 O1 2.062357 1_555
Mo0 O3 2.166753 1_655
Mo0 O4 2.174086 1_555
Mo0 O7 2.225778 1_555
Mo1 O1 2.093348 1_555
Mo1 O5 2.093735 1_645
Mo1 O6 2.173738 1_655
Mo1 O2 2.178517 1_545
Mo1 O4 2.203598 1_555
Mo1 O0 2.238344 1_555
Mo2 O3 2.007585 1_545
Mo2 O6 2.009535 1_555
Mo2 O5 2.072520 1_545
Mo2 O1 2.108739 1_555
Mo2 O0 2.161484 1_555
Mo2 O7 2.177529 1_555
O0 Sc0 2.262283 1_545
O2 Sc0 2.136881 1_554
O3 Sc0 2.248880 1_554
O4 Sc0 2.344540 1_655
O6 Sc0 2.195592 1_554
O7 Sc0 2.276886 1_555
