# generated using pymatgen
data_H3CSO4F3
_symmetry_space_group_name_H-M   'P 1'
_cell_length_a   10.11395200
_cell_length_b   6.10785800
_cell_length_c   9.77451886
_cell_angle_alpha   80.76136250
_cell_angle_beta   90.00000000
_cell_angle_gamma   90.00000000
_symmetry_Int_Tables_number   1
_chemical_formula_structural   H3CSO4F3
_chemical_formula_sum   'H12 C4 S4 O16 F12'
_cell_volume   595.98424703
_cell_formula_units_Z   4
loop_
 _symmetry_equiv_pos_site_id
 _symmetry_equiv_pos_as_xyz
  1  'x, y, z'
loop_
 _atom_site_type_symbol
 _atom_site_label
 _atom_site_symmetry_multiplicity
 _atom_site_fract_x
 _atom_site_fract_y
 _atom_site_fract_z
 _atom_site_occupancy
  H  H0  1  0.91352900  0.53162200  0.31292000  1
  H  H1  1  0.41352900  0.46837800  0.18708000  1
  H  H2  1  0.08647100  0.46837800  0.68708000  1
  H  H3  1  0.58647100  0.53162200  0.81292000  1
  H  H4  1  0.94758000  0.59604400  0.72639900  1
  H  H5  1  0.44758000  0.40395600  0.77360100  1
  H  H6  1  0.93498700  0.49581300  0.14820300  1
  H  H7  1  0.55242000  0.59604400  0.22639900  1
  H  H8  1  0.06501300  0.50418700  0.85179700  1
  H  H9  1  0.56501300  0.49581300  0.64820300  1
  H  H10  1  0.05242000  0.40395600  0.27360100  1
  H  H11  1  0.43498700  0.50418700  0.35179700  1
  C  C0  1  0.73059900  0.00604700  0.49822300  1
  C  C1  1  0.76940100  0.00604700  0.99822300  1
  C  C2  1  0.26940100  0.99395300  0.50177700  1
  C  C3  1  0.23059900  0.99395300  0.00177700  1
  S  S0  1  0.73282700  0.70166400  0.02412000  1
  S  S1  1  0.23282700  0.29833600  0.47588000  1
  S  S2  1  0.26717300  0.29833600  0.97588000  1
  S  S3  1  0.76717300  0.70166400  0.52412000  1
  O  O0  1  0.13978400  0.40137900  0.99890600  1
  O  O1  1  0.62929900  0.68097600  0.92338800  1
  O  O2  1  0.12929900  0.31902400  0.57661200  1
  O  O3  1  0.37070100  0.31902400  0.07661200  1
  O  O4  1  0.63978400  0.59862100  0.50109400  1
  O  O5  1  0.69038500  0.65195400  0.16954000  1
  O  O6  1  0.87070100  0.68097600  0.42338800  1
  O  O7  1  0.36021600  0.40137900  0.49890600  1
  O  O8  1  0.54548100  0.43494400  0.74878600  1
  O  O9  1  0.86021600  0.59862100  0.00109400  1
  O  O10  1  0.80961500  0.65195400  0.66954000  1
  O  O11  1  0.30961500  0.34804600  0.83046000  1
  O  O12  1  0.95451900  0.43494400  0.24878600  1
  O  O13  1  0.45451900  0.56505600  0.25121400  1
  O  O14  1  0.04548100  0.56505600  0.75121400  1
  O  O15  1  0.19038500  0.34804600  0.33046000  1
  F  F0  1  0.80930400  0.07775500  0.86673800  1
  F  F1  1  0.16008200  0.88004000  0.47567400  1
  F  F2  1  0.33991800  0.88004000  0.97567400  1
  F  F3  1  0.83991800  0.11996000  0.52432600  1
  F  F4  1  0.66008200  0.11996000  0.02432600  1
  F  F5  1  0.30930400  0.92224500  0.63326200  1
  F  F6  1  0.19069600  0.92224500  0.13326200  1
  F  F7  1  0.86657100  0.04590700  0.08609600  1
  F  F8  1  0.69069600  0.07775500  0.36673800  1
  F  F9  1  0.63342900  0.04590700  0.58609600  1
  F  F10  1  0.13342900  0.95409300  0.91390400  1
  F  F11  1  0.36657100  0.95409300  0.41390400  1
loop_
_geom_bond_atom_site_label_1
_geom_bond_atom_site_label_2
_geom_bond_distance
_geom_bond_site_symmetry_2
H0 O12 1.016066 1_555
H0 O6 1.581765 1_555
H1 O13 1.016066 1_555
H1 O3 1.581765 1_555
H2 O14 1.016066 1_555
H2 O2 1.581765 1_555
H3 O8 1.016066 1_555
H3 O1 1.581765 1_555
H4 O14 1.029730 1_655
H4 O10 1.520400 1_555
H5 O8 1.029730 1_555
H5 O11 1.520400 1_555
H6 O12 1.013146 1_555
H6 O9 1.656466 1_555
H7 O13 1.029730 1_555
H7 O5 1.520400 1_555
H8 O14 1.013146 1_555
H8 O0 1.656466 1_555
H9 O8 1.013146 1_555
H9 O4 1.656466 1_555
H10 O12 1.029730 1_455
H10 O15 1.520400 1_555
H11 O13 1.013146 1_555
H11 O7 1.656466 1_555
C0 F8 1.351187 1_555
C0 F3 1.352273 1_555
C0 F9 1.352773 1_555
C1 F0 1.351187 1_555
C1 F4 1.352273 1_556
C1 F7 1.352773 1_556
C2 F5 1.351187 1_555
C2 F1 1.352273 1_555
C2 F11 1.352773 1_555
C3 F6 1.351187 1_555
C3 F2 1.352273 1_554
C3 F10 1.352773 1_554
O0 S2 1.467051 1_555
O1 S0 1.456618 1_556
O2 S1 1.456618 1_555
O3 S2 1.456618 1_554
O4 S3 1.467051 1_555
O5 S0 1.469109 1_555
O6 S3 1.456618 1_555
O7 S1 1.467051 1_555
O9 S0 1.467051 1_555
O10 S3 1.469109 1_555
O11 S2 1.469109 1_555
O15 S1 1.469109 1_555
