# generated using pymatgen
data_MgTe4Mo2W2(SeS)2
_symmetry_space_group_name_H-M   'P 1'
_cell_length_a   3.39124100
_cell_length_b   3.39121571
_cell_length_c   46.61146700
_cell_angle_alpha   89.99968825
_cell_angle_beta   89.99953731
_cell_angle_gamma   119.99893418
_symmetry_Int_Tables_number   1
_chemical_formula_structural   MgTe4Mo2W2(SeS)2
_chemical_formula_sum   'Mg1 Te4 Mo2 W2 Se2 S2'
_cell_volume   464.23955124
_cell_formula_units_Z   1
loop_
 _symmetry_equiv_pos_site_id
 _symmetry_equiv_pos_as_xyz
  1  'x, y, z'
loop_
 _atom_site_type_symbol
 _atom_site_label
 _atom_site_symmetry_multiplicity
 _atom_site_fract_x
 _atom_site_fract_y
 _atom_site_fract_z
 _atom_site_occupancy
  Mg  Mg0  1  0.99995400  0.00001900  0.18354500  1
  Te  Te0  1  0.33322900  0.66653800  0.32888800  1
  Te  Te1  1  0.33347900  0.66684800  0.69796100  1
  Te  Te2  1  0.33323300  0.66660400  0.24808200  1
  Te  Te3  1  0.33343200  0.66679300  0.61701500  1
  Mo  Mo0  1  0.33328900  0.66656700  0.08598000  1
  Mo  Mo1  1  0.66659500  0.33327400  0.28869200  1
  W  W0  1  0.33342500  0.66668100  0.46974100  1
  W  W1  1  0.66679600  0.33350100  0.65747700  1
  Se  Se0  1  0.66665700  0.33328200  0.05067200  1
  Se  Se1  1  0.66664500  0.33327300  0.12176400  1
  S  S0  1  0.66662800  0.33331100  0.43736400  1
  S  S1  1  0.66663700  0.33330700  0.50212200  1
loop_
_geom_bond_atom_site_label_1
_geom_bond_atom_site_label_2
_geom_bond_distance
_geom_bond_site_symmetry_2
Te1 W1 2.719215 1_565
Te1 W1 2.719234 1_555
Te1 W1 2.719321 1_455
Te3 W1 2.718476 1_455
Te3 W1 2.718510 1_555
Te3 W1 2.718650 1_565
Mo0 Se0 2.557692 1_555
Mo0 Se0 2.557692 1_455
Mo0 Se0 2.557838 1_565
Mo0 Se1 2.572020 1_455
Mo0 Se1 2.572021 1_555
Mo0 Se1 2.572177 1_565
Mo1 Te0 2.709863 1_555
Mo1 Te0 2.709919 1_655
Mo1 Te0 2.710093 1_545
Mo1 Te2 2.723271 1_655
Mo1 Te2 2.723360 1_545
Mo1 Te2 2.723376 1_555
S0 W0 2.471811 1_555
S0 W0 2.471952 1_545
S0 W0 2.472380 1_655
S1 W0 2.471959 1_555
S1 W0 2.472083 1_545
S1 W0 2.472443 1_655
