# generated using pymatgen
data_Na3MgVO4
_symmetry_space_group_name_H-M   'P 1'
_cell_length_a   6.16404698
_cell_length_b   6.16404698
_cell_length_c   6.16404698
_cell_angle_alpha   128.24729456
_cell_angle_beta   126.76899968
_cell_angle_gamma   77.42912455
_symmetry_Int_Tables_number   1
_chemical_formula_structural   Na3MgVO4
_chemical_formula_sum   'Na3 Mg1 V1 O4'
_cell_volume   142.92150020
_cell_formula_units_Z   1
loop_
 _symmetry_equiv_pos_site_id
 _symmetry_equiv_pos_as_xyz
  1  'x, y, z'
loop_
 _atom_site_type_symbol
 _atom_site_label
 _atom_site_symmetry_multiplicity
 _atom_site_fract_x
 _atom_site_fract_y
 _atom_site_fract_z
 _atom_site_occupancy
  Na  Na0  1  0.50000000  0.50000000  0.00000000  1
  Na  Na1  1  0.70269800  0.20269800  0.50000000  1
  Na  Na2  1  0.29730200  0.79730200  0.50000000  1
  Mg  Mg0  1  0.00000000  0.50000000  0.50000000  1
  V  V0  1  0.00000000  0.00000000  0.00000000  1
  O  O0  1  0.70801500  0.14917100  0.05516400  1
  O  O1  1  0.29198500  0.34715000  0.44115600  1
  O  O2  1  0.90599300  0.85082900  0.55884400  1
  O  O3  1  0.09400700  0.65285000  0.94483600  1
loop_
_geom_bond_atom_site_label_1
_geom_bond_atom_site_label_2
_geom_bond_distance
_geom_bond_site_symmetry_2
Na0 O3 2.370163 1_554
Na0 O2 2.370165 1_555
Na0 O0 2.370165 1_555
Na0 O1 2.370167 1_554
Na1 O2 2.377592 1_545
Na1 O1 2.377593 1_555
Na1 O3 2.571222 1_655
Na1 O0 2.571226 1_555
Na2 O3 2.377589 1_554
Na2 O0 2.377592 1_566
Na2 O1 2.571220 1_555
Na2 O2 2.571226 1_455
Mg0 O1 1.969481 1_555
Mg0 O0 1.969482 1_455
Mg0 O2 1.969482 1_455
Mg0 O3 1.969484 1_555
O0 V0 1.955913 1_655
O1 V0 1.955915 1_555
O2 V0 1.955913 1_666
O3 V0 1.955918 1_566
