# generated using pymatgen
data_Rb2Si2O5
_symmetry_space_group_name_H-M   'P 1'
_cell_length_a   6.61913944
_cell_length_b   6.61913944
_cell_length_c   14.74326126
_cell_angle_alpha   89.74755895
_cell_angle_beta   89.74755895
_cell_angle_gamma   77.84103533
_symmetry_Int_Tables_number   1
_chemical_formula_structural   Rb2Si2O5
_chemical_formula_sum   'Rb8 Si8 O20'
_cell_volume   631.44595889
_cell_formula_units_Z   4
loop_
 _symmetry_equiv_pos_site_id
 _symmetry_equiv_pos_as_xyz
  1  'x, y, z'
loop_
 _atom_site_type_symbol
 _atom_site_label
 _atom_site_symmetry_multiplicity
 _atom_site_fract_x
 _atom_site_fract_y
 _atom_site_fract_z
 _atom_site_occupancy
  Rb  Rb0  1  0.05253131  0.27395459  0.41414120  1
  Rb  Rb1  1  0.72604541  0.94746869  0.08585880  1
  Rb  Rb2  1  0.94746869  0.72604541  0.58585880  1
  Rb  Rb3  1  0.27395459  0.05253131  0.91414120  1
  Rb  Rb4  1  0.28844725  0.54237306  0.09920292  1
  Rb  Rb5  1  0.45762694  0.71155275  0.40079708  1
  Rb  Rb6  1  0.71155275  0.45762694  0.90079708  1
  Rb  Rb7  1  0.54237306  0.28844725  0.59920292  1
  Si  Si0  1  0.80352493  0.43901133  0.18556398  1
  Si  Si1  1  0.79576696  0.94456690  0.80584746  1
  Si  Si2  1  0.05543310  0.20423304  0.69415254  1
  Si  Si3  1  0.20423304  0.05543310  0.19415254  1
  Si  Si4  1  0.94456690  0.79576696  0.30584746  1
  Si  Si5  1  0.43901133  0.80352493  0.68556398  1
  Si  Si6  1  0.19647507  0.56098867  0.81443602  1
  Si  Si7  1  0.56098867  0.19647507  0.31443602  1
  O  O0  1  0.99722624  0.75344189  0.80661272  1
  O  O1  1  0.49584459  0.72896094  0.58585730  1
  O  O2  1  0.27103906  0.50415541  0.91414270  1
  O  O3  1  0.50415541  0.27103906  0.41414270  1
  O  O4  1  0.72896094  0.49584459  0.08585730  1
  O  O5  1  0.70708848  0.01156845  0.90270689  1
  O  O6  1  0.98843155  0.29291152  0.59729311  1
  O  O7  1  0.29291152  0.98843155  0.09729311  1
  O  O8  1  0.13509374  0.86490626  0.25000000  1
  O  O9  1  0.86490626  0.13509374  0.75000000  1
  O  O10  1  0.87068970  0.63271535  0.23711082  1
  O  O11  1  0.36728465  0.12931030  0.26288918  1
  O  O12  1  0.12931030  0.36728465  0.76288918  1
  O  O13  1  0.63271535  0.87068970  0.73711082  1
  O  O14  1  0.62115896  0.37884104  0.25000000  1
  O  O15  1  0.37884104  0.62115896  0.75000000  1
  O  O16  1  0.00277376  0.24655811  0.19338728  1
  O  O17  1  0.75344189  0.99722624  0.30661272  1
  O  O18  1  0.24655811  0.00277376  0.69338728  1
  O  O19  1  0.01156845  0.70708848  0.40270689  1
loop_
_geom_bond_atom_site_label_1
_geom_bond_atom_site_label_2
_geom_bond_distance
_geom_bond_site_symmetry_2
O0 Si6 1.633329 1_655
O0 Si1 1.633438 1_555
O0 Rb2 3.282346 1_555
O0 Rb6 3.293966 1_555
O0 Rb3 3.371713 1_665
O1 Si5 1.571407 1_555
O1 Rb5 2.746365 1_555
O1 Rb7 2.872764 1_555
O1 Rb2 2.985358 1_555
O2 Si6 1.571407 1_555
O2 Rb4 2.746365 1_556
O2 Rb6 2.872764 1_555
O2 Rb3 2.985358 1_555
O3 Si7 1.571407 1_555
O3 Rb7 2.746365 1_555
O3 Rb5 2.872764 1_555
O3 Rb0 2.985358 1_555
O4 Si0 1.571407 1_555
O4 Rb6 2.746365 1_554
O4 Rb4 2.872764 1_555
O4 Rb1 2.985358 1_555
O5 Si1 1.571309 1_545
O5 Rb1 2.730863 1_546
O5 Rb3 2.826687 1_555
O5 Rb6 2.958897 1_555
O6 Si2 1.571309 1_655
O6 Rb0 2.730863 1_655
O6 Rb2 2.826687 1_555
O6 Rb7 2.958897 1_555
O7 Si3 1.571309 1_565
O7 Rb3 2.730863 1_564
O7 Rb1 2.826687 1_555
O7 Rb4 2.958897 1_555
O8 Si3 1.645742 1_565
O8 Si4 1.645742 1_455
O8 Rb5 3.104834 1_555
O8 Rb4 3.104834 1_555
O9 Si2 1.645742 1_655
O9 Si1 1.645742 1_545
O9 Rb6 3.104834 1_555
O9 Rb7 3.104834 1_555
O10 Si4 1.633168 1_555
O10 Si0 1.634257 1_555
O10 Rb1 3.060633 1_555
O10 Rb4 3.376753 1_655
O11 Si3 1.633168 1_555
O11 Si7 1.634257 1_555
O11 Rb0 3.060633 1_555
O11 Rb5 3.376753 1_545
O12 Si2 1.633168 1_555
O12 Si6 1.634257 1_555
O12 Rb3 3.060633 1_555
O12 Rb6 3.376753 1_455
O13 Si1 1.633168 1_555
O13 Si5 1.634257 1_555
O13 Rb2 3.060633 1_555
O13 Rb7 3.376753 1_565
O14 Si0 1.645389 1_555
O14 Si7 1.645389 1_555
O14 Rb5 3.159463 1_555
O14 Rb4 3.159463 1_555
O15 Si5 1.645389 1_555
O15 Si6 1.645389 1_555
O15 Rb6 3.159463 1_555
O15 Rb7 3.159463 1_555
O16 Si0 1.633329 1_455
O16 Si3 1.633438 1_555
O16 Rb0 3.282346 1_555
O16 Rb4 3.293966 1_555
O16 Rb1 3.371713 1_445
O17 Si7 1.633329 1_565
O17 Si4 1.633438 1_555
O17 Rb1 3.282346 1_555
O17 Rb5 3.293966 1_555
O17 Rb0 3.371713 1_665
O18 Si5 1.633329 1_545
O18 Si2 1.633438 1_555
O18 Rb3 3.282346 1_555
O18 Rb7 3.293966 1_555
O18 Rb2 3.371713 1_445
O19 Si4 1.571309 1_455
O19 Rb2 2.730863 1_455
O19 Rb0 2.826687 1_555
O19 Rb5 2.958897 1_555
