# generated using pymatgen
data_NdSi2Rh3
_symmetry_space_group_name_H-M   'P 1'
_cell_length_a   5.54357533
_cell_length_b   5.54357464
_cell_length_c   3.60457450
_cell_angle_alpha   90.00000000
_cell_angle_beta   90.00000000
_cell_angle_gamma   119.99999822
_symmetry_Int_Tables_number   1
_chemical_formula_structural   NdSi2Rh3
_chemical_formula_sum   'Nd1 Si2 Rh3'
_cell_volume   95.93222074
_cell_formula_units_Z   1
loop_
 _symmetry_equiv_pos_site_id
 _symmetry_equiv_pos_as_xyz
  1  'x, y, z'
loop_
 _atom_site_type_symbol
 _atom_site_label
 _atom_site_symmetry_multiplicity
 _atom_site_fract_x
 _atom_site_fract_y
 _atom_site_fract_z
 _atom_site_occupancy
  Nd  Nd0  1  0.00000000  0.00000000  0.00000000  1
  Si  Si0  1  0.66666700  0.33333300  0.00000000  1
  Si  Si1  1  0.33333300  0.66666700  0.00000000  1
  Rh  Rh0  1  0.50000000  0.00000000  0.50000000  1
  Rh  Rh1  1  0.00000000  0.50000000  0.50000000  1
  Rh  Rh2  1  0.50000000  0.50000000  0.50000000  1
loop_
_geom_bond_atom_site_label_1
_geom_bond_atom_site_label_2
_geom_bond_distance
_geom_bond_site_symmetry_2
Nd0 Si0 3.200581 1_455
Nd0 Si1 3.200581 1_545
Nd0 Si0 3.200586 1_445
Nd0 Si1 3.200586 1_555
Nd0 Si0 3.200586 1_555
Nd0 Si1 3.200586 1_445
Nd0 Rh1 3.306213 1_554
Nd0 Rh1 3.306213 1_544
Nd0 Rh1 3.306213 1_555
Nd0 Rh1 3.306213 1_545
Nd0 Rh2 3.306213 1_444
Nd0 Rh2 3.306213 1_445
Nd0 Rh2 3.306213 1_555
Nd0 Rh2 3.306213 1_554
Nd0 Rh0 3.306213 1_455
Nd0 Rh0 3.306213 1_554
Nd0 Rh0 3.306213 1_555
Nd0 Rh0 3.306213 1_454
Rh0 Si1 2.410222 1_546
Rh0 Si0 2.410222 1_556
Rh0 Si0 2.410222 1_555
Rh0 Si1 2.410222 1_545
Rh1 Si0 2.410222 1_456
Rh1 Si1 2.410222 1_555
Rh1 Si1 2.410222 1_556
Rh1 Si0 2.410222 1_455
Rh2 Si1 2.410225 1_555
Rh2 Si1 2.410225 1_556
Rh2 Si0 2.410225 1_556
Rh2 Si0 2.410225 1_555
