# generated using pymatgen
data_Li(MoO2)2
_symmetry_space_group_name_H-M   'P 1'
_cell_length_a   6.26752744
_cell_length_b   6.42320185
_cell_length_c   6.38570973
_cell_angle_alpha   58.58915638
_cell_angle_beta   60.16929360
_cell_angle_gamma   60.40579503
_symmetry_Int_Tables_number   1
_chemical_formula_structural   Li(MoO2)2
_chemical_formula_sum   'Li2 Mo4 O8'
_cell_volume   180.52102529
_cell_formula_units_Z   2
loop_
 _symmetry_equiv_pos_site_id
 _symmetry_equiv_pos_as_xyz
  1  'x, y, z'
loop_
 _atom_site_type_symbol
 _atom_site_label
 _atom_site_symmetry_multiplicity
 _atom_site_fract_x
 _atom_site_fract_y
 _atom_site_fract_z
 _atom_site_occupancy
  Li  Li0  1  0.11907800  0.13092000  0.11907700  1
  Li  Li1  1  0.88092000  0.86908300  0.88092100  1
  Mo  Mo0  1  0.50000000  0.50000000  0.50000000  1
  Mo  Mo1  1  0.50000000  0.00000100  0.50000000  1
  Mo  Mo2  1  0.00000200  0.49999900  0.49999900  1
  Mo  Mo3  1  0.49999900  0.50000000  0.00000200  1
  O  O0  1  0.25178800  0.25926800  0.71203700  1
  O  O1  1  0.74421900  0.72276800  0.74664300  1
  O  O2  1  0.74821300  0.74073300  0.28796300  1
  O  O3  1  0.25335700  0.71363100  0.25578200  1
  O  O4  1  0.25578200  0.27723200  0.25335800  1
  O  O5  1  0.28796300  0.72309200  0.74821300  1
  O  O6  1  0.74664400  0.28636900  0.74421900  1
  O  O7  1  0.71203700  0.27690800  0.25178800  1
loop_
_geom_bond_atom_site_label_1
_geom_bond_atom_site_label_2
_geom_bond_distance
_geom_bond_site_symmetry_2
Li0 O0 2.102466 1_554
Li0 O7 2.102471 1_455
Li0 O3 2.172214 1_545
Li0 O4 2.172277 1_555
Li1 O2 2.102476 1_556
Li1 O5 2.102482 1_655
Li1 O6 2.172199 1_565
Li1 O1 2.172262 1_555
Mo0 O7 2.173165 1_555
Mo0 O5 2.173170 1_555
Mo0 O0 2.177710 1_555
Mo0 O2 2.177720 1_555
Mo0 O3 2.185709 1_555
Mo0 O6 2.185719 1_555
Mo1 O0 2.173163 1_555
Mo1 O2 2.173168 1_545
Mo1 O7 2.177708 1_555
Mo1 O5 2.177717 1_545
Mo1 O4 2.185702 1_555
Mo1 O1 2.185711 1_545
Mo2 O0 2.061057 1_555
Mo2 O2 2.061063 1_455
Mo2 O3 2.072284 1_555
Mo2 O6 2.072290 1_455
Mo2 O4 2.160871 1_555
Mo2 O1 2.160894 1_455
Mo3 O7 2.061059 1_555
Mo3 O5 2.061064 1_554
Mo3 O4 2.072276 1_555
Mo3 O1 2.072290 1_554
Mo3 O3 2.160884 1_555
Mo3 O6 2.160899 1_554
