# generated using pymatgen
data_CeGePd
_symmetry_space_group_name_H-M   'P 1'
_cell_length_a   4.49217122
_cell_length_b   7.69087259
_cell_length_c   21.93864433
_cell_angle_alpha   90.00000000
_cell_angle_beta   90.00000000
_cell_angle_gamma   90.00000000
_symmetry_Int_Tables_number   1
_chemical_formula_structural   CeGePd
_chemical_formula_sum   'Ce12 Ge12 Pd12'
_cell_volume   757.95200347
_cell_formula_units_Z   12
loop_
 _symmetry_equiv_pos_site_id
 _symmetry_equiv_pos_as_xyz
  1  'x, y, z'
loop_
 _atom_site_type_symbol
 _atom_site_label
 _atom_site_symmetry_multiplicity
 _atom_site_fract_x
 _atom_site_fract_y
 _atom_site_fract_z
 _atom_site_occupancy
  Ce  Ce0  1  0.25000000  0.78669395  0.83245455  1
  Ce  Ce1  1  0.75000000  0.21330605  0.16754545  1
  Ce  Ce2  1  0.75000000  0.28669395  0.66754545  1
  Ce  Ce3  1  0.25000000  0.71330605  0.33245455  1
  Ce  Ce4  1  0.25000000  0.70917763  0.66580850  1
  Ce  Ce5  1  0.75000000  0.29082237  0.33419150  1
  Ce  Ce6  1  0.75000000  0.20917763  0.83419150  1
  Ce  Ce7  1  0.25000000  0.79082237  0.16580850  1
  Ce  Ce8  1  0.25000000  0.77912269  0.50231973  1
  Ce  Ce9  1  0.75000000  0.22087731  0.49768027  1
  Ce  Ce10  1  0.75000000  0.27912269  0.99768027  1
  Ce  Ce11  1  0.25000000  0.72087731  0.00231973  1
  Ge  Ge0  1  0.25000000  0.41338137  0.89657708  1
  Ge  Ge1  1  0.75000000  0.58661863  0.10342292  1
  Ge  Ge2  1  0.75000000  0.91338137  0.60342292  1
  Ge  Ge3  1  0.25000000  0.08661863  0.39657708  1
  Ge  Ge4  1  0.25000000  0.41263413  0.76958781  1
  Ge  Ge5  1  0.75000000  0.58736587  0.23041219  1
  Ge  Ge6  1  0.75000000  0.91263413  0.73041219  1
  Ge  Ge7  1  0.25000000  0.08736587  0.26958781  1
  Ge  Ge8  1  0.25000000  0.40895590  0.57260506  1
  Ge  Ge9  1  0.75000000  0.59104410  0.42739494  1
  Ge  Ge10  1  0.75000000  0.90895590  0.92739494  1
  Ge  Ge11  1  0.25000000  0.09104410  0.07260506  1
  Pd  Pd0  1  0.25000000  0.42260219  0.09211023  1
  Pd  Pd1  1  0.75000000  0.57739781  0.90788977  1
  Pd  Pd2  1  0.75000000  0.92260219  0.40788977  1
  Pd  Pd3  1  0.25000000  0.07739781  0.59211023  1
  Pd  Pd4  1  0.25000000  0.41995218  0.23948191  1
  Pd  Pd5  1  0.75000000  0.58004782  0.76051809  1
  Pd  Pd6  1  0.75000000  0.91995218  0.26051809  1
  Pd  Pd7  1  0.25000000  0.08004782  0.73948191  1
  Pd  Pd8  1  0.25000000  0.41651032  0.43219503  1
  Pd  Pd9  1  0.75000000  0.58348968  0.56780497  1
  Pd  Pd10  1  0.75000000  0.91651032  0.06780497  1
  Pd  Pd11  1  0.25000000  0.08348968  0.93219503  1
loop_
_geom_bond_atom_site_label_1
_geom_bond_atom_site_label_2
_geom_bond_distance
_geom_bond_site_symmetry_2
Ce0 Pd7 3.041472 1_565
Ce0 Pd11 3.162031 1_565
Ce0 Pd5 3.171974 1_455
Ce0 Pd5 3.171974 1_555
Ce0 Ge4 3.190371 1_555
Ce0 Ge0 3.197216 1_555
Ce0 Ge10 3.204276 1_455
Ce0 Ge10 3.204276 1_555
Ce0 Pd1 3.220991 1_455
Ce0 Pd1 3.220991 1_555
Ce0 Ge6 3.315828 1_455
Ce0 Ge6 3.315828 1_555
Ce1 Pd6 3.041472 1_545
Ce1 Pd10 3.162031 1_545
Ce1 Pd4 3.171974 1_555
Ce1 Pd4 3.171974 1_655
Ce1 Ge5 3.190371 1_555
Ce1 Ge1 3.197216 1_555
Ce1 Ge11 3.204276 1_555
Ce1 Ge11 3.204276 1_655
Ce1 Pd0 3.220991 1_555
Ce1 Pd0 3.220991 1_655
Ce1 Ge7 3.315828 1_555
Ce1 Ge7 3.315828 1_655
Ce2 Pd5 3.041472 1_555
Ce2 Pd9 3.162031 1_555
Ce2 Pd7 3.171974 1_555
Ce2 Pd7 3.171974 1_655
Ce2 Ge6 3.190371 1_545
Ce2 Ge2 3.197216 1_545
Ce2 Ge8 3.204276 1_655
Ce2 Ge8 3.204276 1_555
Ce2 Pd3 3.220991 1_555
Ce2 Pd3 3.220991 1_655
Ce2 Ge4 3.315828 1_655
Ce2 Ge4 3.315828 1_555
Ce3 Pd4 3.041472 1_555
Ce3 Pd8 3.162031 1_555
Ce3 Pd6 3.171974 1_455
Ce3 Pd6 3.171974 1_555
Ce3 Ge7 3.190371 1_565
Ce3 Ge3 3.197216 1_565
Ce3 Ge9 3.204276 1_555
Ce3 Ge9 3.204276 1_455
Ce3 Pd2 3.220991 1_455
Ce3 Pd2 3.220991 1_555
Ce3 Ge5 3.315828 1_455
Ce3 Ge5 3.315828 1_555
Ce4 Ge2 3.063430 1_455
Ce4 Ge2 3.063430 1_555
Ce4 Ge6 3.082557 1_455
Ce4 Ge6 3.082557 1_555
Ce4 Ge8 3.084212 1_555
Ce4 Pd5 3.216900 1_455
Ce4 Pd5 3.216900 1_555
Ce4 Ge4 3.222609 1_555
Ce4 Pd9 3.256085 1_455
Ce4 Pd9 3.256085 1_555
Ce4 Pd3 3.260985 1_565
Ce4 Pd7 3.278431 1_565
Ce5 Ge3 3.063430 1_655
Ce5 Ge3 3.063430 1_555
Ce5 Ge7 3.082557 1_555
Ce5 Ge7 3.082557 1_655
Ce5 Ge9 3.084212 1_555
Ce5 Pd4 3.216900 1_555
Ce5 Pd4 3.216900 1_655
Ce5 Ge5 3.222609 1_555
Ce5 Pd8 3.256085 1_655
Ce5 Pd8 3.256085 1_555
Ce5 Pd2 3.260985 1_545
Ce5 Pd6 3.278431 1_545
Ce6 Ge0 3.063430 1_555
Ce6 Ge0 3.063430 1_655
Ce6 Ge4 3.082557 1_555
Ce6 Ge4 3.082557 1_655
Ce6 Ge10 3.084212 1_545
Ce6 Pd7 3.216900 1_655
Ce6 Pd7 3.216900 1_555
Ce6 Ge6 3.222609 1_545
Ce6 Pd11 3.256085 1_655
Ce6 Pd11 3.256085 1_555
Ce6 Pd1 3.260985 1_555
Ce6 Pd5 3.278431 1_555
Ce7 Ge1 3.063430 1_555
Ce7 Ge1 3.063430 1_455
Ce7 Ge5 3.082557 1_455
Ce7 Ge5 3.082557 1_555
Ce7 Ge11 3.084212 1_565
Ce7 Pd6 3.216900 1_455
Ce7 Pd6 3.216900 1_555
Ce7 Ge7 3.222609 1_565
Ce7 Pd10 3.256085 1_455
Ce7 Pd10 3.256085 1_555
Ce7 Pd0 3.260985 1_555
Ce7 Pd4 3.278431 1_555
Ce8 Pd3 3.023715 1_565
Ce8 Pd9 3.061482 1_555
Ce8 Pd9 3.061482 1_455
Ce8 Ge9 3.136740 1_455
Ce8 Ge9 3.136740 1_555
Ce8 Pd8 3.185002 1_555
Ce8 Ge8 3.237673 1_555
Ce8 Pd2 3.248749 1_455
Ce8 Pd2 3.248749 1_555
Ce8 Ge3 3.312781 1_565
Ce8 Ge2 3.321282 1_455
Ce8 Ge2 3.321282 1_555
Ce9 Pd2 3.023715 1_545
Ce9 Pd8 3.061482 1_555
Ce9 Pd8 3.061482 1_655
Ce9 Ge8 3.136740 1_655
Ce9 Ge8 3.136740 1_555
Ce9 Pd9 3.185002 1_555
Ce9 Ge9 3.237673 1_555
Ce9 Pd3 3.248749 1_655
Ce9 Pd3 3.248749 1_555
Ce9 Ge2 3.312781 1_545
Ce9 Ge3 3.321282 1_655
Ce9 Ge3 3.321282 1_555
Ce10 Pd1 3.023715 1_555
Ce10 Pd11 3.061482 1_555
Ce10 Pd11 3.061482 1_655
Ce10 Ge11 3.136740 1_656
Ce10 Ge11 3.136740 1_556
Ce10 Pd10 3.185002 1_546
Ce10 Ge10 3.237673 1_545
Ce10 Pd0 3.248749 1_556
Ce10 Pd0 3.248749 1_656
Ce10 Ge1 3.312781 1_556
Ce10 Ge0 3.321282 1_655
Ce10 Ge0 3.321282 1_555
Ce11 Pd0 3.023715 1_555
Ce11 Pd10 3.061482 1_455
Ce11 Pd10 3.061482 1_555
Ce11 Ge10 3.136740 1_554
Ce11 Ge10 3.136740 1_454
Ce11 Pd11 3.185002 1_564
Ce11 Ge11 3.237673 1_565
Ce11 Pd1 3.248749 1_454
Ce11 Pd1 3.248749 1_554
Ce11 Ge0 3.312781 1_554
Ce11 Ge1 3.321282 1_455
Ce11 Ge1 3.321282 1_555
Ge0 Pd1 2.587992 1_455
Ge0 Pd1 2.587992 1_555
Ge0 Pd11 2.654761 1_555
Ge0 Ge4 2.785978 1_555
Ge1 Pd0 2.587992 1_555
Ge1 Pd0 2.587992 1_655
Ge1 Pd10 2.654761 1_555
Ge1 Ge5 2.785978 1_555
Ge2 Pd3 2.587992 1_565
Ge2 Pd3 2.587992 1_665
Ge2 Pd9 2.654761 1_555
Ge2 Ge6 2.785978 1_555
Ge3 Pd2 2.587992 1_545
Ge3 Pd2 2.587992 1_445
Ge3 Pd8 2.654761 1_555
Ge3 Ge7 2.785978 1_555
Ge4 Pd5 2.596593 1_455
Ge4 Pd5 2.596593 1_555
Ge4 Pd7 2.641776 1_555
Ge5 Pd4 2.596593 1_555
Ge5 Pd4 2.596593 1_655
Ge5 Pd6 2.641776 1_555
Ge6 Pd7 2.596593 1_565
Ge6 Pd7 2.596593 1_665
Ge6 Pd5 2.641776 1_555
Ge7 Pd6 2.596593 1_445
Ge7 Pd6 2.596593 1_545
Ge7 Pd4 2.641776 1_555
Ge8 Pd3 2.585627 1_555
Ge8 Pd9 2.618741 1_455
Ge8 Pd9 2.618741 1_555
Ge8 Pd8 3.080954 1_555
Ge9 Pd2 2.585627 1_555
Ge9 Pd8 2.618741 1_555
Ge9 Pd8 2.618741 1_655
Ge9 Pd9 3.080954 1_555
Ge10 Pd1 2.585627 1_555
Ge10 Pd11 2.618741 1_665
Ge10 Pd11 2.618741 1_565
Ge10 Pd10 3.080954 1_556
Ge11 Pd0 2.585627 1_555
Ge11 Pd10 2.618741 1_445
Ge11 Pd10 2.618741 1_545
Ge11 Pd11 3.080954 1_554
Pd0 Pd4 3.233199 1_555
Pd1 Pd5 3.233199 1_555
Pd2 Pd6 3.233199 1_555
Pd3 Pd7 3.233199 1_555
