# generated using pymatgen
data_Na4LaZn(PO4)3
_symmetry_space_group_name_H-M   'P 1'
_cell_length_a   9.57175215
_cell_length_b   9.57175177
_cell_length_c   22.37747123
_cell_angle_alpha   90.00000000
_cell_angle_beta   90.00000000
_cell_angle_gamma   120.00000126
_symmetry_Int_Tables_number   1
_chemical_formula_structural   Na4LaZn(PO4)3
_chemical_formula_sum   'Na24 La6 Zn6 P18 O72'
_cell_volume   1775.51565376
_cell_formula_units_Z   6
loop_
 _symmetry_equiv_pos_site_id
 _symmetry_equiv_pos_as_xyz
  1  'x, y, z'
loop_
 _atom_site_type_symbol
 _atom_site_label
 _atom_site_symmetry_multiplicity
 _atom_site_fract_x
 _atom_site_fract_y
 _atom_site_fract_z
 _atom_site_occupancy
  Na  Na0  1  0.63682848  0.01977643  0.24638327  1
  Na  Na1  1  0.38294795  0.36317152  0.24638327  1
  Na  Na2  1  0.98022357  0.61705205  0.24638327  1
  Na  Na3  1  0.63682848  0.61705205  0.74638327  1
  Na  Na4  1  0.98022357  0.36317152  0.74638327  1
  Na  Na5  1  0.38294795  0.01977643  0.74638327  1
  Na  Na6  1  0.30349548  0.35310943  0.57971627  1
  Na  Na7  1  0.04961495  0.69650452  0.57971627  1
  Na  Na8  1  0.64689057  0.95038505  0.57971627  1
  Na  Na9  1  0.30349548  0.95038505  0.07971627  1
  Na  Na10  1  0.64689057  0.69650452  0.07971627  1
  Na  Na11  1  0.04961495  0.35310943  0.07971627  1
  Na  Na12  1  0.97016148  0.68644343  0.91305027  1
  Na  Na13  1  0.71628095  0.02983852  0.91305027  1
  Na  Na14  1  0.31355657  0.28371905  0.91305027  1
  Na  Na15  1  0.97016148  0.28371905  0.41305027  1
  Na  Na16  1  0.31355657  0.02983852  0.41305027  1
  Na  Na17  1  0.71628095  0.68644343  0.41305027  1
  Na  Na18  1  -0.00000000  -0.00000000  0.49085388  1
  Na  Na19  1  -0.00000000  -0.00000000  0.99085388  1
  Na  Na20  1  0.66666700  0.33333300  0.82418688  1
  Na  Na21  1  0.66666700  0.33333300  0.32418688  1
  Na  Na22  1  0.33333300  0.66666700  0.15752088  1
  Na  Na23  1  0.33333300  0.66666700  0.65752088  1
  La  La0  1  -0.00000000  -0.00000000  0.65511126  1
  La  La1  1  -0.00000000  -0.00000000  0.15511126  1
  La  La2  1  0.66666700  0.33333300  0.98844426  1
  La  La3  1  0.66666700  0.33333300  0.48844426  1
  La  La4  1  0.33333300  0.66666700  0.32177826  1
  La  La5  1  0.33333300  0.66666700  0.82177826  1
  Zn  Zn0  1  -0.00000000  -0.00000000  0.34325981  1
  Zn  Zn1  1  -0.00000000  -0.00000000  0.84325981  1
  Zn  Zn2  1  0.66666700  0.33333300  0.67659281  1
  Zn  Zn3  1  0.66666700  0.33333300  0.17659281  1
  Zn  Zn4  1  0.33333300  0.66666700  0.00992681  1
  Zn  Zn5  1  0.33333300  0.66666700  0.50992681  1
  P  P0  1  0.31367040  0.01361418  0.25221869  1
  P  P1  1  0.69994378  0.68632960  0.25221869  1
  P  P2  1  0.98638582  0.30005622  0.25221869  1
  P  P3  1  0.31367040  0.30005622  0.75221869  1
  P  P4  1  0.98638582  0.68632960  0.75221869  1
  P  P5  1  0.69994378  0.01361418  0.75221869  1
  P  P6  1  0.98033740  0.34694718  0.58555169  1
  P  P7  1  0.36661078  0.01966260  0.58555169  1
  P  P8  1  0.65305282  0.63338922  0.58555169  1
  P  P9  1  0.98033740  0.63338922  0.08555169  1
  P  P10  1  0.65305282  0.01966260  0.08555169  1
  P  P11  1  0.36661078  0.34694718  0.08555169  1
  P  P12  1  0.64700340  0.68028118  0.91888569  1
  P  P13  1  0.03327678  0.35299660  0.91888569  1
  P  P14  1  0.31971882  0.96672322  0.91888569  1
  P  P15  1  0.64700340  0.96672322  0.41888569  1
  P  P16  1  0.31971882  0.35299660  0.41888569  1
  P  P17  1  0.03327678  0.68028118  0.41888569  1
  O  O0  1  0.21559147  0.02289217  0.30608916  1
  O  O1  1  0.80730071  0.78440853  0.30608916  1
  O  O2  1  0.97710783  0.19269929  0.30608916  1
  O  O3  1  0.21559147  0.19269929  0.80608916  1
  O  O4  1  0.97710783  0.78440853  0.80608916  1
  O  O5  1  0.80730071  0.02289217  0.80608916  1
  O  O6  1  0.76987333  0.98959707  0.69351861  1
  O  O7  1  0.21972374  0.23012667  0.69351861  1
  O  O8  1  0.01040293  0.78027626  0.69351861  1
  O  O9  1  0.76987333  0.78027626  0.19351861  1
  O  O10  1  0.01040293  0.23012667  0.19351861  1
  O  O11  1  0.21972374  0.98959707  0.19351861  1
  O  O12  1  0.88225847  0.35622517  0.63942216  1
  O  O13  1  0.47396771  0.11774153  0.63942216  1
  O  O14  1  0.64377483  0.52603229  0.63942216  1
  O  O15  1  0.88225847  0.52603229  0.13942216  1
  O  O16  1  0.64377483  0.11774153  0.13942216  1
  O  O17  1  0.47396771  0.35622517  0.13942216  1
  O  O18  1  0.43654033  0.32293007  0.02685161  1
  O  O19  1  0.88639074  0.56345967  0.02685161  1
  O  O20  1  0.67706993  0.11360926  0.02685161  1
  O  O21  1  0.43654033  0.11360926  0.52685161  1
  O  O22  1  0.67706993  0.56345967  0.52685161  1
  O  O23  1  0.88639074  0.32293007  0.52685161  1
  O  O24  1  0.54892447  0.68955917  0.97275616  1
  O  O25  1  0.14063371  0.45107553  0.97275616  1
  O  O26  1  0.31044083  0.85936629  0.97275616  1
  O  O27  1  0.54892447  0.85936629  0.47275616  1
  O  O28  1  0.31044083  0.45107553  0.47275616  1
  O  O29  1  0.14063371  0.68955917  0.47275616  1
  O  O30  1  0.10320633  0.65626407  0.36018561  1
  O  O31  1  0.55305674  0.89679367  0.36018561  1
  O  O32  1  0.34373593  0.44694326  0.36018561  1
  O  O33  1  0.10320633  0.44694326  0.86018561  1
  O  O34  1  0.34373593  0.89679367  0.86018561  1
  O  O35  1  0.55305674  0.65626407  0.86018561  1
  O  O36  1  0.02461505  0.83830951  0.41711270  1
  O  O37  1  0.81369446  0.97538495  0.41711270  1
  O  O38  1  0.16169049  0.18630554  0.41711270  1
  O  O39  1  0.02461505  0.18630554  0.91711270  1
  O  O40  1  0.16169049  0.97538495  0.91711270  1
  O  O41  1  0.81369446  0.83830951  0.91711270  1
  O  O42  1  0.00870783  0.20017242  0.58826926  1
  O  O43  1  0.19146459  0.99129217  0.58826926  1
  O  O44  1  0.79982758  0.80853541  0.58826926  1
  O  O45  1  0.00870783  0.80853541  0.08826926  1
  O  O46  1  0.79982758  0.99129217  0.08826926  1
  O  O47  1  0.19146459  0.20017242  0.08826926  1
  O  O48  1  0.69128205  0.17164251  0.75044570  1
  O  O49  1  0.48036146  0.30871795  0.75044570  1
  O  O50  1  0.82835749  0.51963854  0.75044570  1
  O  O51  1  0.69128205  0.51963854  0.25044570  1
  O  O52  1  0.82835749  0.30871795  0.25044570  1
  O  O53  1  0.48036146  0.17164251  0.25044570  1
  O  O54  1  0.67537483  0.53350542  0.92160226  1
  O  O55  1  0.85813159  0.32462517  0.92160226  1
  O  O56  1  0.46649458  0.14186841  0.92160226  1
  O  O57  1  0.67537483  0.14186841  0.42160226  1
  O  O58  1  0.46649458  0.32462517  0.42160226  1
  O  O59  1  0.85813159  0.53350542  0.42160226  1
  O  O60  1  0.35794805  0.50497651  0.08377970  1
  O  O61  1  0.14702746  0.64205195  0.08377970  1
  O  O62  1  0.49502349  0.85297254  0.08377970  1
  O  O63  1  0.35794805  0.85297254  0.58377970  1
  O  O64  1  0.49502349  0.64205195  0.58377970  1
  O  O65  1  0.14702746  0.50497651  0.58377970  1
  O  O66  1  0.34204083  0.86683942  0.25493626  1
  O  O67  1  0.52479759  0.65795917  0.25493626  1
  O  O68  1  0.13316058  0.47520241  0.25493626  1
  O  O69  1  0.34204083  0.47520241  0.75493626  1
  O  O70  1  0.13316058  0.65795917  0.75493626  1
  O  O71  1  0.52479759  0.86683942  0.75493626  1
loop_
_geom_bond_atom_site_label_1
_geom_bond_atom_site_label_2
_geom_bond_distance
_geom_bond_site_symmetry_2
Na0 O52 2.438827 1_555
Na0 O66 2.451665 1_545
Na0 O53 2.557601 1_555
Na0 O16 2.559353 1_555
Na0 O31 2.751359 1_545
Na1 O53 2.438834 1_555
Na1 O67 2.451665 1_555
Na1 O51 2.557610 1_555
Na1 O17 2.559356 1_555
Na1 O32 2.751362 1_555
Na2 O51 2.438825 1_555
Na2 O68 2.451657 1_655
Na2 O52 2.557610 1_555
Na2 O15 2.559354 1_555
Na2 O30 2.751358 1_655
Na3 O50 2.438834 1_555
Na3 O69 2.451665 1_555
Na3 O49 2.557609 1_555
Na3 O14 2.559356 1_555
Na3 O35 2.751362 1_555
Na4 O48 2.438827 1_555
Na4 O70 2.451665 1_655
Na4 O50 2.557601 1_555
Na4 O12 2.559353 1_555
Na4 O33 2.751359 1_655
Na5 O49 2.438825 1_555
Na5 O71 2.451657 1_545
Na5 O48 2.557610 1_555
Na5 O13 2.559354 1_555
Na5 O34 2.751358 1_545
Na6 O64 2.438833 1_555
Na6 O42 2.451665 1_555
Na6 O65 2.557619 1_555
Na6 O28 2.559336 1_555
Na6 O7 2.751359 1_555
Na7 O65 2.438819 1_555
Na7 O43 2.451665 1_555
Na7 O63 2.557602 1_555
Na7 O29 2.559330 1_555
Na7 O8 2.751362 1_555
Na8 O63 2.438837 1_555
Na8 O44 2.451657 1_555
Na8 O64 2.557602 1_555
Na8 O27 2.559333 1_555
Na8 O6 2.751358 1_555
Na9 O62 2.438819 1_555
Na9 O45 2.451665 1_555
Na9 O61 2.557602 1_555
Na9 O26 2.559330 1_554
Na9 O11 2.751362 1_555
Na10 O60 2.438833 1_555
Na10 O46 2.451665 1_555
Na10 O62 2.557619 1_555
Na10 O24 2.559336 1_554
Na10 O9 2.751359 1_555
Na11 O61 2.438837 1_555
Na11 O47 2.451657 1_555
Na11 O60 2.557602 1_555
Na11 O25 2.559333 1_554
Na11 O10 2.751358 1_555
Na12 O40 2.438827 1_655
Na12 O54 2.451655 1_555
Na12 O41 2.557601 1_555
Na12 O4 2.559353 1_555
Na12 O19 2.751340 1_556
Na13 O41 2.438834 1_545
Na13 O55 2.451655 1_555
Na13 O39 2.557610 1_655
Na13 O5 2.559356 1_555
Na13 O20 2.751335 1_556
Na14 O39 2.438825 1_555
Na14 O56 2.451672 1_555
Na14 O40 2.557610 1_545
Na14 O3 2.559354 1_555
Na14 O18 2.751342 1_556
Na15 O38 2.438834 1_655
Na15 O57 2.451655 1_555
Na15 O37 2.557609 1_545
Na15 O2 2.559356 1_555
Na15 O23 2.751335 1_555
Na16 O36 2.438827 1_545
Na16 O58 2.451655 1_555
Na16 O38 2.557601 1_555
Na16 O0 2.559353 1_555
Na16 O21 2.751340 1_555
Na17 O37 2.438825 1_555
Na17 O59 2.451672 1_555
Na17 O36 2.557610 1_655
Na17 O1 2.559354 1_555
Na17 O22 2.751342 1_555
Na18 O38 2.353375 1_555
Na18 O36 2.353375 1_545
Na18 O37 2.353375 1_445
Na18 O42 2.875816 1_555
Na18 O44 2.875816 1_445
Na18 O43 2.875816 1_545
Na19 O39 2.353375 1_555
Na19 O41 2.353375 1_445
Na19 O40 2.353375 1_545
Na19 O47 2.875816 1_556
Na19 O45 2.875816 1_546
Na19 O46 2.875816 1_446
Na20 O50 2.353375 1_555
Na20 O48 2.353375 1_555
Na20 O49 2.353375 1_555
Na20 O54 2.875816 1_555
Na20 O56 2.875816 1_555
Na20 O55 2.875816 1_555
Na21 O51 2.353375 1_555
Na21 O53 2.353375 1_555
Na21 O52 2.353375 1_555
Na21 O59 2.875816 1_555
Na21 O57 2.875816 1_555
Na21 O58 2.875816 1_555
Na22 O62 2.353375 1_555
Na22 O60 2.353375 1_555
Na22 O61 2.353375 1_555
Na22 O66 2.875816 1_555
Na22 O68 2.875816 1_555
Na22 O67 2.875816 1_555
Na23 O63 2.353375 1_555
Na23 O65 2.353375 1_555
Na23 O64 2.353375 1_555
Na23 O71 2.875816 1_555
Na23 O69 2.875816 1_555
Na23 O70 2.875816 1_555
La0 O7 2.319743 1_555
La0 O8 2.319743 1_545
La0 O6 2.319743 1_445
La0 O42 2.399081 1_555
La0 O44 2.399081 1_445
La0 O43 2.399081 1_545
La1 O10 2.319743 1_555
La1 O9 2.319743 1_445
La1 O11 2.319743 1_545
La1 O47 2.399081 1_555
La1 O45 2.399081 1_545
La1 O46 2.399081 1_445
La2 O19 2.319743 1_556
La2 O20 2.319743 1_556
La2 O18 2.319743 1_556
La2 O54 2.399081 1_555
La2 O56 2.399081 1_555
La2 O55 2.399081 1_555
La3 O22 2.319743 1_555
La3 O21 2.319743 1_555
La3 O23 2.319743 1_555
La3 O59 2.399081 1_555
La3 O57 2.399081 1_555
La3 O58 2.399081 1_555
La4 O31 2.319743 1_555
La4 O32 2.319743 1_555
La4 O30 2.319743 1_555
La4 O66 2.399081 1_555
La4 O68 2.399081 1_555
La4 O67 2.399081 1_555
La5 O34 2.319743 1_555
La5 O33 2.319743 1_555
La5 O35 2.319743 1_555
La5 O71 2.399081 1_555
La5 O69 2.399081 1_555
La5 O70 2.399081 1_555
O0 P0 1.557489 1_555
O0 Zn0 2.132160 1_555
O1 P1 1.557489 1_555
O1 Zn0 2.132160 1_665
O2 P2 1.557489 1_555
O2 Zn0 2.132160 1_655
O3 P3 1.557489 1_555
O3 Zn1 2.132160 1_555
O4 P4 1.557489 1_555
O4 Zn1 2.132160 1_665
O5 P5 1.557489 1_555
O5 Zn1 2.132160 1_655
O6 P5 1.542785 1_565
O7 P3 1.542785 1_555
O8 P4 1.542785 1_455
O9 P1 1.542785 1_555
O10 P2 1.542785 1_455
O11 P0 1.542785 1_565
O12 P6 1.557489 1_555
O12 Zn2 2.132160 1_555
O13 P7 1.557489 1_555
O13 Zn2 2.132160 1_555
O14 P8 1.557489 1_555
O14 Zn2 2.132160 1_555
O15 P9 1.557489 1_555
O15 Zn3 2.132160 1_555
O16 P10 1.557489 1_555
O16 Zn3 2.132160 1_555
O17 P11 1.557489 1_555
O17 Zn3 2.132160 1_555
O18 P11 1.542785 1_555
O19 P9 1.542785 1_555
O20 P10 1.542785 1_555
O21 P7 1.542785 1_555
O22 P8 1.542785 1_555
O23 P6 1.542785 1_555
O24 P12 1.557489 1_555
O24 Zn4 2.132160 1_556
O25 P13 1.557489 1_555
O25 Zn4 2.132160 1_556
O26 P14 1.557489 1_555
O26 Zn4 2.132160 1_556
O27 P15 1.557489 1_555
O27 Zn5 2.132160 1_555
O28 P16 1.557489 1_555
O28 Zn5 2.132160 1_555
O29 P17 1.557489 1_555
O29 Zn5 2.132160 1_555
O30 P17 1.542785 1_555
O31 P15 1.542785 1_555
O32 P16 1.542785 1_555
O33 P13 1.542785 1_555
O34 P14 1.542785 1_555
O35 P12 1.542785 1_555
O36 P17 1.556226 1_555
O36 Zn0 2.355129 1_565
O37 P15 1.556235 1_555
O37 Zn0 2.355129 1_665
O38 P16 1.556231 1_555
O38 Zn0 2.355129 1_555
O39 P13 1.556235 1_555
O39 Zn1 2.355129 1_555
O40 P14 1.556226 1_555
O40 Zn1 2.355129 1_565
O41 P12 1.556231 1_555
O41 Zn1 2.355129 1_665
O42 P6 1.559700 1_455
O43 P7 1.559710 1_565
O44 P8 1.559706 1_555
O45 P9 1.559710 1_455
O46 P10 1.559700 1_565
O47 P11 1.559706 1_555
O48 P5 1.556226 1_555
O48 Zn2 2.355129 1_555
O49 P3 1.556235 1_555
O49 Zn2 2.355129 1_555
O50 P4 1.556231 1_555
O50 Zn2 2.355129 1_555
O51 P1 1.556235 1_555
O51 Zn3 2.355129 1_555
O52 P2 1.556226 1_555
O52 Zn3 2.355129 1_555
O53 P0 1.556231 1_555
O53 Zn3 2.355129 1_555
O54 P12 1.559715 1_555
O55 P13 1.559696 1_655
O56 P14 1.559703 1_545
O57 P15 1.559696 1_545
O58 P16 1.559715 1_555
O59 P17 1.559703 1_655
O60 P11 1.556240 1_555
O60 Zn4 2.355129 1_555
O61 P9 1.556221 1_455
O61 Zn4 2.355129 1_555
O62 P10 1.556229 1_565
O62 Zn4 2.355129 1_555
O63 P7 1.556221 1_565
O63 Zn5 2.355129 1_555
O64 P8 1.556240 1_555
O64 Zn5 2.355129 1_555
O65 P6 1.556229 1_455
O65 Zn5 2.355129 1_555
O66 P0 1.559700 1_565
O67 P1 1.559710 1_555
O68 P2 1.559706 1_455
O69 P3 1.559710 1_555
O70 P4 1.559700 1_455
O71 P5 1.559706 1_565
