# generated using pymatgen
data_MgZn2(NiO2)4
_symmetry_space_group_name_H-M   'P 1'
_cell_length_a   6.22345999
_cell_length_b   6.22346028
_cell_length_c   6.02918777
_cell_angle_alpha   118.67725783
_cell_angle_beta   118.67726667
_cell_angle_gamma   95.32347861
_symmetry_Int_Tables_number   1
_chemical_formula_structural   MgZn2(NiO2)4
_chemical_formula_sum   'Mg1 Zn2 Ni4 O8'
_cell_volume   163.14643109
_cell_formula_units_Z   1
loop_
 _symmetry_equiv_pos_site_id
 _symmetry_equiv_pos_as_xyz
  1  'x, y, z'
loop_
 _atom_site_type_symbol
 _atom_site_label
 _atom_site_symmetry_multiplicity
 _atom_site_fract_x
 _atom_site_fract_y
 _atom_site_fract_z
 _atom_site_occupancy
  Mg  Mg0  1  0.59159800  0.40840200  0.75000000  1
  Zn  Zn0  1  0.31343300  0.68656700  0.75000000  1
  Zn  Zn1  1  0.64909800  0.35090200  0.25000000  1
  Ni  Ni0  1  0.00091600  0.99886200  0.49316100  1
  Ni  Ni1  1  0.06579800  0.47500800  0.02053900  1
  Ni  Ni2  1  0.52499200  0.93420200  0.47946100  1
  Ni  Ni3  1  0.00113800  0.99908400  0.00683900  1
  O  O0  1  0.78453300  0.76218500  0.52510200  1
  O  O1  1  0.75903600  0.23778600  0.96193000  1
  O  O2  1  0.23781500  0.21546700  0.97489800  1
  O  O3  1  0.20649400  0.25775700  0.48049000  1
  O  O4  1  0.23197000  0.76413400  0.46017200  1
  O  O5  1  0.23586600  0.76803000  0.03982800  1
  O  O6  1  0.76221400  0.24096400  0.53807000  1
  O  O7  1  0.74224300  0.79350600  0.01951000  1
loop_
_geom_bond_atom_site_label_1
_geom_bond_atom_site_label_2
_geom_bond_distance
_geom_bond_site_symmetry_2
Mg0 O3 1.909633 1_555
Mg0 O7 1.909634 1_556
Mg0 O1 2.018805 1_555
Mg0 O6 2.018805 1_555
Ni0 O3 2.016976 1_565
Ni0 O7 2.020726 1_455
Ni0 O0 2.042844 1_455
Ni0 O2 2.047075 1_565
Ni0 O4 2.150974 1_555
Ni0 O6 2.227150 1_465
Ni1 O4 1.944072 1_555
Ni1 O5 1.944090 1_555
Ni1 O2 2.001948 1_554
Ni1 O1 2.068344 1_454
Ni1 O6 2.073903 1_454
Ni2 O5 1.944072 1_555
Ni2 O4 1.944090 1_555
Ni2 O0 2.001948 1_555
Ni2 O6 2.068344 1_565
Ni2 O1 2.073903 1_565
Ni3 O7 2.016976 1_455
Ni3 O3 2.020726 1_565
Ni3 O2 2.042844 1_564
Ni3 O0 2.047075 1_454
Ni3 O5 2.150974 1_555
Ni3 O1 2.227149 1_464
O0 Zn1 2.048519 1_555
O1 Zn1 2.009149 1_556
O2 Zn1 2.048518 1_556
O3 Zn0 2.162367 1_555
O4 Zn0 1.883697 1_555
O5 Zn0 1.883697 1_554
O6 Zn1 2.009149 1_555
O7 Zn0 2.162366 1_554
