# generated using pymatgen
data_Na3Ca2Al2PS5O24
_symmetry_space_group_name_H-M   'P 1'
_cell_length_a   8.86481583
_cell_length_b   8.80435190
_cell_length_c   22.33327571
_cell_angle_alpha   89.77001470
_cell_angle_beta   90.12989549
_cell_angle_gamma   119.94716952
_symmetry_Int_Tables_number   1
_chemical_formula_structural   Na3Ca2Al2PS5O24
_chemical_formula_sum   'Na9 Ca6 Al6 P3 S15 O72'
_cell_volume   1510.35001194
_cell_formula_units_Z   3
loop_
 _symmetry_equiv_pos_site_id
 _symmetry_equiv_pos_as_xyz
  1  'x, y, z'
loop_
 _atom_site_type_symbol
 _atom_site_label
 _atom_site_symmetry_multiplicity
 _atom_site_fract_x
 _atom_site_fract_y
 _atom_site_fract_z
 _atom_site_occupancy
  Na  Na0  1  0.35897976  0.99375929  0.74843215  1
  Na  Na1  1  0.66420417  0.95175003  0.58920334  1
  Na  Na2  1  0.67185657  0.71573767  0.08191544  1
  Na  Na3  1  0.03208003  0.00241592  0.49664160  1
  Na  Na4  1  0.01804286  0.00163356  0.99608579  1
  Na  Na5  1  0.68281882  0.34104099  0.83416786  1
  Na  Na6  1  0.66641949  0.33373551  0.33447045  1
  Na  Na7  1  0.29889220  0.66344158  0.16888008  1
  Na  Na8  1  0.33014217  0.65472277  0.66839123  1
  Ca  Ca0  1  0.00835299  0.00386318  0.64237189  1
  Ca  Ca1  1  0.01007891  0.00278532  0.14307802  1
  Ca  Ca2  1  0.31355310  0.66252624  0.01559212  1
  Ca  Ca3  1  0.32599275  0.66707323  0.51402498  1
  Ca  Ca4  1  0.33203197  0.66627204  0.32264293  1
  Ca  Ca5  1  0.33893646  0.66829243  0.82500603  1
  Al  Al0  1  0.00098468  0.00071256  0.34639776  1
  Al  Al1  1  0.98532071  0.00059303  0.84544578  1
  Al  Al2  1  0.66711916  0.32435321  0.68610760  1
  Al  Al3  1  0.67561469  0.33820117  0.18753389  1
  Al  Al4  1  0.67470112  0.33685006  0.98327413  1
  Al  Al5  1  0.66076762  0.32938971  0.48269028  1
  P  P0  1  0.70910171  0.01200622  0.74618501  1
  P  P1  1  0.39404509  0.05687561  0.58369287  1
  P  P2  1  0.94270087  0.60196572  0.08461746  1
  S  S0  1  0.30795857  0.01948766  0.25066142  1
  S  S1  1  0.71136990  0.69730942  0.24878233  1
  S  S2  1  0.98252706  0.28600026  0.25027191  1
  S  S3  1  0.30110331  0.29242771  0.75100817  1
  S  S4  1  0.98388502  0.69776575  0.75192658  1
  S  S5  1  0.94366825  0.34382539  0.58224129  1
  S  S6  1  0.66139848  0.60137315  0.58362981  1
  S  S7  1  0.66074602  0.05666080  0.08399657  1
  S  S8  1  0.39895521  0.33480911  0.08295775  1
  S  S9  1  0.66203481  0.66840558  0.91945401  1
  S  S10  1  0.00510525  0.33648447  0.91620396  1
  S  S11  1  0.33165902  0.99905787  0.91428383  1
  S  S12  1  0.66476171  0.99353833  0.41821591  1
  S  S13  1  0.33108347  0.33834700  0.41598847  1
  S  S14  1  0.00289565  0.66667473  0.41566521  1
  O  O0  1  0.20941167  0.03478445  0.30302261  1
  O  O1  1  0.83113334  0.80047956  0.29927747  1
  O  O2  1  0.96876471  0.17353383  0.30332141  1
  O  O3  1  0.20391561  0.17145563  0.80254500  1
  O  O4  1  0.96617605  0.79268700  0.80492263  1
  O  O5  1  0.83067564  0.02695407  0.79926460  1
  O  O6  1  0.77539710  0.98514482  0.68658965  1
  O  O7  1  0.20975622  0.22083177  0.69487057  1
  O  O8  1  0.02140728  0.80278115  0.69742654  1
  O  O9  1  0.77711274  0.78800445  0.19126072  1
  O  O10  1  0.00607242  0.21365632  0.19505223  1
  O  O11  1  0.21290978  0.99411188  0.19513471  1
  O  O12  1  0.85302868  0.34648220  0.63803862  1
  O  O13  1  0.49038532  0.14847643  0.64362263  1
  O  O14  1  0.66375844  0.50832133  0.63898412  1
  O  O15  1  0.84409214  0.50492173  0.14244390  1
  O  O16  1  0.65441028  0.14564633  0.13938415  1
  O  O17  1  0.49181621  0.33704236  0.13881680  1
  O  O18  1  0.49286866  0.33337850  0.02814281  1
  O  O19  1  0.84187665  0.50021303  0.02835736  1
  O  O20  1  0.65539424  0.14729849  0.02875460  1
  O  O21  1  0.50507509  0.15788001  0.52890880  1
  O  O22  1  0.66303586  0.51023803  0.52825121  1
  O  O23  1  0.85124688  0.34971585  0.52758336  1
  O  O24  1  0.59236948  0.70374332  0.97478821  1
  O  O25  1  0.11652210  0.40678356  0.96946494  1
  O  O26  1  0.29554403  0.88026399  0.96548278  1
  O  O27  1  0.59871602  0.88811219  0.47391791  1
  O  O28  1  0.29258069  0.41108488  0.46935976  1
  O  O29  1  0.11397806  0.70860274  0.46919728  1
  O  O30  1  0.07490038  0.62259245  0.36397009  1
  O  O31  1  0.54428745  0.91416568  0.36817715  1
  O  O32  1  0.37067363  0.45090523  0.36328639  1
  O  O33  1  0.07576534  0.45107931  0.86397617  1
  O  O34  1  0.37066601  0.93206427  0.85921132  1
  O  O35  1  0.54584671  0.63018461  0.86856706  1
  O  O36  1  0.98633228  0.82533103  0.40243180  1
  O  O37  1  0.83789598  0.01025381  0.40451660  1
  O  O38  1  0.17449452  0.16113109  0.40445922  1
  O  O39  1  0.98595554  0.16006501  0.90437940  1
  O  O40  1  0.17420093  0.01702521  0.90435203  1
  O  O41  1  0.83650748  0.82632031  0.90695019  1
  O  O42  1  0.94829077  0.17809904  0.57865465  1
  O  O43  1  0.21668686  0.04362091  0.57798015  1
  O  O44  1  0.81582118  0.77943749  0.58066488  1
  O  O45  1  0.95168597  0.78206951  0.07943603  1
  O  O46  1  0.82062024  0.04281687  0.08127527  1
  O  O47  1  0.22464636  0.18112604  0.07957270  1
  O  O48  1  0.69782393  0.18666433  0.74414009  1
  O  O49  1  0.47577298  0.30024687  0.74942577  1
  O  O50  1  0.81955831  0.52569632  0.74611671  1
  O  O51  1  0.70308240  0.52198931  0.24758753  1
  O  O52  1  0.81455853  0.29105359  0.24769842  1
  O  O53  1  0.48181436  0.18638107  0.24732603  1
  O  O54  1  0.68726308  0.51327182  0.92776697  1
  O  O55  1  0.82558772  0.30869445  0.92740041  1
  O  O56  1  0.48649845  0.17562958  0.92670742  1
  O  O57  1  0.69170199  0.17482035  0.42707569  1
  O  O58  1  0.48490371  0.31351736  0.42665239  1
  O  O59  1  0.82351597  0.51530243  0.42715653  1
  O  O60  1  0.38948697  0.49898464  0.08322771  1
  O  O61  1  0.12405539  0.62114009  0.08699667  1
  O  O62  1  0.50807527  0.87597491  0.08472070  1
  O  O63  1  0.38145324  0.87451936  0.58563489  1
  O  O64  1  0.50278381  0.61817118  0.58497488  1
  O  O65  1  0.11952280  0.49585487  0.58414496  1
  O  O66  1  0.33665711  0.86973921  0.25903386  1
  O  O67  1  0.53583716  0.67047627  0.25828519  1
  O  O68  1  0.12959692  0.46530397  0.25801837  1
  O  O69  1  0.32687142  0.46839072  0.75898155  1
  O  O70  1  0.13462646  0.67126218  0.76136418  1
  O  O71  1  0.52098736  0.86049905  0.75604470  1
loop_
_geom_bond_atom_site_label_1
_geom_bond_atom_site_label_2
_geom_bond_distance
_geom_bond_site_symmetry_2
Na0 O71 2.268845 1_555
Na0 O49 2.359017 1_565
Na0 O70 2.541447 1_555
Na0 O34 2.543815 1_555
Na0 O48 2.612092 1_565
Na0 O13 2.663471 1_565
Na0 O3 2.822695 1_565
Na0 O8 2.838348 1_555
Na1 O63 2.247068 1_555
Na1 O42 2.314599 1_565
Na1 O6 2.344046 1_555
Na1 O44 2.486713 1_555
Na1 O64 2.547134 1_555
Na1 O27 2.638198 1_555
Na2 O45 2.247588 1_555
Na2 O60 2.266955 1_555
Na2 O62 2.479593 1_555
Na2 O24 2.480287 1_554
Na2 O46 2.498056 1_565
Na2 O9 2.578453 1_555
Na3 O43 2.347062 1_555
Na3 O38 2.451992 1_555
Na3 O36 2.532463 1_445
Na3 O44 2.698108 1_445
Na3 O37 2.702317 1_455
Na3 O42 2.734054 1_455
Na4 O40 2.440339 1_555
Na4 O45 2.527618 1_446
Na4 O47 2.539042 1_556
Na4 O41 2.542682 1_445
Na4 O39 2.567472 1_455
Na4 O46 2.732821 1_456
Na5 O50 2.448892 1_555
Na5 O48 2.472107 1_555
Na5 O55 2.522213 1_555
Na5 O49 2.532021 1_555
Na5 O54 2.576055 1_555
Na5 O56 2.623487 1_555
Na6 O53 2.456648 1_555
Na6 O51 2.461111 1_555
Na6 O52 2.476154 1_555
Na6 O59 2.563304 1_555
Na6 O57 2.563777 1_555
Na6 O58 2.566194 1_555
Na7 O61 2.302482 1_555
Na7 O68 2.574953 1_555
Na7 O66 2.623774 1_555
Na7 O62 2.645005 1_555
Na7 O60 2.755153 1_555
Na7 O67 2.873110 1_555
Na8 O65 2.525933 1_555
Na8 O64 2.534934 1_555
Na8 O63 2.542431 1_555
Na8 O69 2.590670 1_555
Na8 O71 2.632486 1_555
Na8 O70 2.758143 1_555
Ca0 O7 2.194267 1_555
Ca0 O8 2.201345 1_545
Ca0 O6 2.221531 1_445
Ca0 O43 2.228000 1_555
Ca0 O44 2.315312 1_445
Ca0 O42 2.335860 1_455
Ca1 O11 2.171951 1_545
Ca1 O10 2.208808 1_555
Ca1 O45 2.253649 1_445
Ca1 O9 2.256895 1_445
Ca1 O47 2.259968 1_555
Ca1 O46 2.329527 1_455
Ca2 O61 2.212267 1_555
Ca2 O26 2.289204 1_554
Ca2 O25 2.294745 1_554
Ca2 O62 2.380030 1_555
Ca2 O60 2.398681 1_555
Ca2 O24 2.486617 1_554
Ca3 O63 2.293170 1_555
Ca3 O65 2.305258 1_555
Ca3 O29 2.311503 1_555
Ca3 O28 2.347905 1_555
Ca3 O27 2.394366 1_555
Ca3 O64 2.410246 1_555
Ca4 O66 2.266139 1_555
Ca4 O32 2.273758 1_555
Ca4 O31 2.290654 1_555
Ca4 O68 2.296253 1_555
Ca4 O67 2.296951 1_555
Ca4 O30 2.308037 1_555
Ca5 O35 2.242122 1_555
Ca5 O71 2.259183 1_555
Ca5 O69 2.261750 1_555
Ca5 O70 2.310090 1_555
Ca5 O33 2.323556 1_555
Ca5 O34 2.327453 1_555
Al0 O2 1.934737 1_455
Al0 O36 1.937065 1_445
Al0 O1 1.959588 1_445
Al0 O38 1.969470 1_555
Al0 O0 1.973490 1_555
Al0 O37 1.978043 1_455
Al1 O5 1.818325 1_555
Al1 O39 1.926298 1_555
Al1 O4 1.975081 1_545
Al1 O41 1.987892 1_545
Al1 O3 2.005614 1_655
Al1 O40 2.074829 1_655
Al2 O13 1.826353 1_555
Al2 O48 1.881131 1_555
Al2 O12 1.895333 1_555
Al2 O14 1.940702 1_555
Al2 O50 2.093773 1_555
Al2 O49 2.137994 1_555
Al3 O15 1.790382 1_555
Al3 O16 1.939422 1_555
Al3 O17 1.952966 1_555
Al3 O52 1.998341 1_555
Al3 O51 2.024603 1_555
Al3 O53 2.055417 1_555
Al4 O19 1.776365 1_556
Al4 O20 1.883655 1_556
Al4 O18 1.887118 1_556
Al4 O55 1.936178 1_555
Al4 O54 1.942755 1_555
Al4 O56 2.008667 1_555
Al5 O21 1.778685 1_555
Al5 O22 1.884669 1_555
Al5 O23 1.892238 1_555
Al5 O58 1.947134 1_555
Al5 O57 1.964081 1_555
Al5 O59 1.983183 1_555
O0 S0 1.507371 1_555
O1 S1 1.504652 1_555
O2 S2 1.506543 1_555
O3 S3 1.509946 1_555
O4 S4 1.504558 1_555
O5 P0 1.561392 1_555
O6 P0 1.522370 1_565
O7 S3 1.455008 1_555
O8 S4 1.460393 1_455
O9 S1 1.469054 1_555
O10 S2 1.452701 1_455
O11 S0 1.451634 1_565
O12 S5 1.490826 1_555
O13 P1 1.577024 1_555
O14 S6 1.486199 1_555
O15 P2 1.553247 1_555
O16 S7 1.482945 1_555
O17 S8 1.487855 1_555
O18 S8 1.485641 1_555
O19 P2 1.544236 1_555
O20 S7 1.480133 1_555
O21 P1 1.542530 1_555
O22 S6 1.480996 1_555
O23 S5 1.483713 1_555
O24 S9 1.484507 1_555
O25 S10 1.470968 1_555
O26 S11 1.470242 1_555
O27 S12 1.484375 1_555
O28 S13 1.474310 1_555
O29 S14 1.473282 1_555
O30 S14 1.464675 1_555
O31 S12 1.460661 1_555
O32 S13 1.461463 1_555
O33 S10 1.460729 1_555
O34 S11 1.480418 1_555
O35 S9 1.455127 1_555
O36 S14 1.503797 1_655
O37 S12 1.499046 1_545
O38 S13 1.505609 1_555
O39 S10 1.500334 1_655
O40 S11 1.497116 1_545
O41 S9 1.501695 1_555
O42 S5 1.482483 1_555
O43 P1 1.522460 1_555
O44 S6 1.480893 1_555
O45 P2 1.551334 1_555
O46 S7 1.483267 1_555
O47 S8 1.461870 1_555
O48 P0 1.590493 1_555
O49 S3 1.515710 1_555
O50 S4 1.493772 1_555
O51 S1 1.508592 1_555
O52 S2 1.512669 1_555
O53 S0 1.509499 1_555
O54 S9 1.500930 1_555
O55 S10 1.505815 1_655
O56 S11 1.499708 1_545
O57 S12 1.505119 1_545
O58 S13 1.503199 1_555
O59 S14 1.501299 1_655
O60 S8 1.489173 1_555
O61 P2 1.531226 1_455
O62 S7 1.487609 1_565
O63 P1 1.553253 1_565
O64 S6 1.485838 1_555
O65 S5 1.463051 1_455
O66 S0 1.473314 1_565
O67 S1 1.468420 1_555
O68 S2 1.472456 1_455
O69 S3 1.460390 1_555
O70 S4 1.481287 1_455
O71 P0 1.545036 1_565
