# generated using pymatgen
data_Na3LaSiSn(PO6)2
_symmetry_space_group_name_H-M   'P 1'
_cell_length_a   9.42570402
_cell_length_b   9.42570122
_cell_length_c   22.75650913
_cell_angle_alpha   90.21193766
_cell_angle_beta   89.78807085
_cell_angle_gamma   119.74958515
_symmetry_Int_Tables_number   1
_chemical_formula_structural   Na3LaSiSn(PO6)2
_chemical_formula_sum   'Na18 La6 Si6 Sn6 P12 O72'
_cell_volume   1755.29502998
_cell_formula_units_Z   6
loop_
 _symmetry_equiv_pos_site_id
 _symmetry_equiv_pos_as_xyz
  1  'x, y, z'
loop_
 _atom_site_type_symbol
 _atom_site_label
 _atom_site_symmetry_multiplicity
 _atom_site_fract_x
 _atom_site_fract_y
 _atom_site_fract_z
 _atom_site_occupancy
  Na  Na0  1  0.00193637  0.98875392  0.50312719  1
  Na  Na1  1  0.01124679  0.99806482  0.00312717  1
  Na  Na2  1  0.66633725  0.32038152  0.83655950  1
  Na  Na3  1  0.67961789  0.33366220  0.33656004  1
  Na  Na4  1  0.34915731  0.67771408  0.16985209  1
  Na  Na5  1  0.32228967  0.65084610  0.66985534  1
  Na  Na6  1  0.35711465  0.35515962  0.24782853  1
  Na  Na7  1  0.00323751  0.64203662  0.24671543  1
  Na  Na8  1  0.64483962  0.64288408  0.74782856  1
  Na  Na9  1  0.35796112  0.99676061  0.74671562  1
  Na  Na10  1  0.03886295  0.70240568  0.57856164  1
  Na  Na11  1  0.65454271  0.97303545  0.58507465  1
  Na  Na12  1  0.29759135  0.96113427  0.07856093  1
  Na  Na13  1  0.02696600  0.34545964  0.08507442  1
  Na  Na14  1  0.97921998  0.68093330  0.91918446  1
  Na  Na15  1  0.68669038  0.02031481  0.91048418  1
  Na  Na16  1  0.97968642  0.31331027  0.41048504  1
  Na  Na17  1  0.31906754  0.02077868  0.41918492  1
  La  La0  1  0.97919122  0.98635137  0.35031717  1
  La  La1  1  0.01364984  0.02080822  0.85031715  1
  La  La2  1  0.67075413  0.32815643  0.68472334  1
  La  La3  1  0.67184478  0.32924691  0.18472317  1
  La  La4  1  0.33913211  0.66095548  0.01664630  1
  La  La5  1  0.33904343  0.66086676  0.51664735  1
  Si  Si0  1  0.01901492  0.31237921  0.25285169  1
  Si  Si1  1  0.68762058  0.98098494  0.75285171  1
  Si  Si2  1  0.35597539  0.04105622  0.58432633  1
  Si  Si3  1  0.95894395  0.64402493  0.08432615  1
  Si  Si4  1  0.34987802  0.97673805  0.92059044  1
  Si  Si5  1  0.02326212  0.65012188  0.42059039  1
  Sn  Sn0  1  0.00603860  0.01093659  0.65000818  1
  Sn  Sn1  1  0.98906390  0.99396138  0.15000832  1
  Sn  Sn2  1  0.66310595  0.33874574  0.98293344  1
  Sn  Sn3  1  0.66125495  0.33689488  0.48293394  1
  Sn  Sn4  1  0.33071610  0.66282103  0.31658592  1
  Sn  Sn5  1  0.33717827  0.66928340  0.81658583  1
  P  P0  1  0.28632569  0.97882581  0.25131634  1
  P  P1  1  0.68230639  0.70596662  0.24729501  1
  P  P2  1  0.29403342  0.31769358  0.74729502  1
  P  P3  1  0.02117407  0.71367438  0.75131632  1
  P  P4  1  0.95661090  0.31081363  0.57861488  1
  P  P5  1  0.69204081  0.64854731  0.58724349  1
  P  P6  1  0.68918645  0.04338902  0.07861483  1
  P  P7  1  0.35145257  0.30795912  0.08724345  1
  P  P8  1  0.62869686  0.64594905  0.91099315  1
  P  P9  1  0.01956799  0.38041120  0.91861986  1
  P  P10  1  0.61958884  0.98043231  0.41861984  1
  P  P11  1  0.35405099  0.37130343  0.41099302  1
  O  O0  1  0.20912393  0.99323114  0.30831786  1
  O  O1  1  0.78916228  0.76402490  0.30186425  1
  O  O2  1  0.01033166  0.22347877  0.31381016  1
  O  O3  1  0.23597532  0.21083769  0.80186425  1
  O  O4  1  0.00676930  0.79087542  0.80831754  1
  O  O5  1  0.77652067  0.98966763  0.81381002  1
  O  O6  1  0.79473309  0.96784147  0.69439999  1
  O  O7  1  0.18458996  0.22489588  0.69289491  1
  O  O8  1  0.04627513  0.83012021  0.69708982  1
  O  O9  1  0.77510363  0.81540983  0.19289503  1
  O  O10  1  0.03215857  0.20526689  0.19440011  1
  O  O11  1  0.16987925  0.95372477  0.19708962  1
  O  O12  1  0.88177447  0.34262383  0.63289306  1
  O  O13  1  0.45722204  0.11246765  0.64424313  1
  O  O14  1  0.67499018  0.56412953  0.64569447  1
  O  O15  1  0.88753274  0.54277818  0.14424322  1
  O  O16  1  0.65737558  0.11822520  0.13289309  1
  O  O17  1  0.43587040  0.32500965  0.14569464  1
  O  O18  1  0.45255135  0.29270408  0.03437648  1
  O  O19  1  0.84320617  0.54291835  0.02514411  1
  O  O20  1  0.71006991  0.15377713  0.02315797  1
  O  O21  1  0.45708167  0.15679374  0.52514427  1
  O  O22  1  0.70729580  0.54744878  0.53437678  1
  O  O23  1  0.84622328  0.28993026  0.52315801  1
  O  O24  1  0.55088237  0.67566820  0.96448353  1
  O  O25  1  0.10108655  0.44148073  0.97814753  1
  O  O26  1  0.33412440  0.88018149  0.98060972  1
  O  O27  1  0.55851954  0.89891346  0.47814760  1
  O  O28  1  0.32433176  0.44911795  0.46448367  1
  O  O29  1  0.11981859  0.66587520  0.48060966  1
  O  O30  1  0.12367290  0.62317429  0.36263644  1
  O  O31  1  0.50514259  0.87183097  0.36700813  1
  O  O32  1  0.37179300  0.47468870  0.35394423  1
  O  O33  1  0.12816903  0.49485738  0.86700810  1
  O  O34  1  0.37682623  0.87632710  0.86263619  1
  O  O35  1  0.52531092  0.62820658  0.85394420  1
  O  O36  1  0.01040534  0.81511412  0.41628573  1
  O  O37  1  0.79918291  0.02549212  0.41228297  1
  O  O38  1  0.20957482  0.19484088  0.40742915  1
  O  O39  1  0.97450788  0.20081706  0.91228290  1
  O  O40  1  0.18488557  0.98959457  0.91628578  1
  O  O41  1  0.80515825  0.79042453  0.90742934  1
  O  O42  1  0.94892503  0.14020639  0.58412697  1
  O  O43  1  0.17235623  0.02661310  0.58753571  1
  O  O44  1  0.85922158  0.81555107  0.58658206  1
  O  O45  1  0.97338670  0.82764391  0.08753570  1
  O  O46  1  0.85979400  0.05107471  0.08412699  1
  O  O47  1  0.18444850  0.14077802  0.08658203  1
  O  O48  1  0.64474868  0.12838238  0.75095350  1
  O  O49  1  0.47356886  0.36212008  0.73951030  1
  O  O50  1  0.86895947  0.54549679  0.74556743  1
  O  O51  1  0.63787990  0.52643143  0.23951032  1
  O  O52  1  0.87161782  0.35525129  0.25095341  1
  O  O53  1  0.45450323  0.13104043  0.24556747  1
  O  O54  1  0.63589818  0.48402421  0.91669511  1
  O  O55  1  0.85594234  0.38792511  0.91669625  1
  O  O56  1  0.52589510  0.15612424  0.92207441  1
  O  O57  1  0.61207486  0.14405791  0.41669628  1
  O  O58  1  0.51597600  0.36410193  0.41669522  1
  O  O59  1  0.84387539  0.47410489  0.42207457  1
  O  O60  1  0.31163569  0.44651791  0.08090549  1
  O  O61  1  0.14492472  0.67170452  0.07969563  1
  O  O62  1  0.54920655  0.86788582  0.07440691  1
  O  O63  1  0.32829577  0.85507515  0.57969551  1
  O  O64  1  0.55348263  0.68836405  0.58090545  1
  O  O65  1  0.13211408  0.45079312  0.57440688  1
  O  O66  1  0.29614044  0.81648731  0.25286711  1
  O  O67  1  0.52017898  0.71244553  0.25443379  1
  O  O68  1  0.19775744  0.49085409  0.25077956  1
  O  O69  1  0.28755449  0.47982051  0.75443369  1
  O  O70  1  0.18351326  0.70386020  0.75286715  1
  O  O71  1  0.50914629  0.80224303  0.75077971  1
loop_
_geom_bond_atom_site_label_1
_geom_bond_atom_site_label_2
_geom_bond_distance
_geom_bond_site_symmetry_2
Na0 O43 2.417881 1_565
Na0 O44 2.430247 1_455
Na0 O42 2.523256 1_465
Na0 O36 2.587479 1_555
Na0 O38 2.927998 1_565
Na0 O37 2.955875 1_465
Na1 O45 2.417886 1_455
Na1 O47 2.430239 1_565
Na1 O46 2.523253 1_465
Na1 O40 2.587476 1_554
Na1 O41 2.928005 1_454
Na1 O39 2.955871 1_464
Na2 O55 2.410655 1_555
Na2 O56 2.430156 1_555
Na2 O54 2.490283 1_555
Na2 O48 2.592869 1_555
Na2 O50 2.901555 1_555
Na2 O49 3.013168 1_555
Na3 O57 2.410642 1_555
Na3 O59 2.430151 1_555
Na3 O58 2.490274 1_555
Na3 O52 2.592884 1_555
Na3 O53 2.901559 1_555
Na3 O51 3.013180 1_555
Na4 O67 2.430037 1_555
Na4 O68 2.457713 1_555
Na4 O66 2.480510 1_555
Na4 O61 2.799708 1_555
Na4 O62 2.851372 1_555
Na4 O60 2.859855 1_555
Na5 O69 2.429992 1_555
Na5 O71 2.457640 1_555
Na5 O70 2.480462 1_555
Na5 O63 2.799752 1_555
Na5 O65 2.851452 1_555
Na5 O64 2.859896 1_555
Na6 O51 2.324683 1_555
Na6 O68 2.408685 1_555
Na6 O17 2.495091 1_555
Na6 O32 2.635809 1_555
Na6 O53 2.689085 1_555
Na7 O52 2.351245 1_455
Na7 O66 2.416897 1_555
Na7 O15 2.548055 1_455
Na7 O11 2.793824 1_555
Na7 O68 2.827721 1_555
Na7 O30 2.916333 1_555
Na8 O49 2.324672 1_555
Na8 O71 2.408691 1_555
Na8 O14 2.495092 1_555
Na8 O35 2.635808 1_555
Na8 O50 2.689082 1_555
Na9 O48 2.351263 1_565
Na9 O70 2.416874 1_555
Na9 O13 2.548070 1_565
Na9 O8 2.793808 1_555
Na9 O71 2.827721 1_555
Na9 O34 2.916324 1_555
Na10 O63 2.370278 1_555
Na10 O44 2.413743 1_455
Na10 O29 2.431452 1_555
Na10 O43 2.672951 1_565
Na10 O22 2.897209 1_455
Na10 O65 2.910772 1_555
Na10 O8 2.936542 1_555
Na11 O64 2.361843 1_555
Na11 O42 2.417302 1_565
Na11 O27 2.569892 1_555
Na11 O63 2.704830 1_555
Na11 O6 2.833260 1_555
Na12 O61 2.370252 1_555
Na12 O47 2.413746 1_565
Na12 O26 2.431433 1_554
Na12 O45 2.672932 1_455
Na12 O18 2.897225 1_565
Na12 O62 2.910778 1_555
Na12 O11 2.936549 1_555
Na13 O60 2.361831 1_555
Na13 O46 2.417323 1_455
Na13 O25 2.569883 1_554
Na13 O61 2.704813 1_555
Na13 O10 2.833274 1_555
Na14 O41 2.348203 1_555
Na14 O55 2.407379 1_555
Na14 O40 2.574866 1_655
Na14 O4 2.693325 1_655
Na14 O19 2.737761 1_556
Na14 O54 2.821340 1_555
Na14 O33 2.978760 1_655
Na15 O39 2.382380 1_555
Na15 O5 2.421669 1_545
Na15 O56 2.434185 1_555
Na15 O34 2.763457 1_545
Na15 O20 2.812593 1_556
Na15 O41 2.889062 1_545
Na16 O37 2.382386 1_555
Na16 O2 2.421683 1_655
Na16 O59 2.434191 1_555
Na16 O30 2.763461 1_655
Na16 O23 2.812579 1_555
Na16 O38 2.889057 1_655
Na17 O38 2.348220 1_555
Na17 O57 2.407371 1_555
Na17 O36 2.574872 1_545
Na17 O0 2.693334 1_545
Na17 O21 2.737756 1_555
Na17 O58 2.821350 1_555
Na17 O31 2.978747 1_545
La0 O1 2.255644 1_555
La0 O2 2.265576 1_665
La0 O36 2.331902 1_655
La0 O0 2.336756 1_655
La0 O37 2.367074 1_565
La0 O38 2.456309 1_665
La1 O3 2.255640 1_555
La1 O5 2.265592 1_445
La1 O40 2.331891 1_545
La1 O4 2.336756 1_545
La1 O39 2.367083 1_455
La1 O41 2.456319 1_445
La2 O13 2.229734 1_555
La2 O12 2.254018 1_555
La2 O48 2.331858 1_555
La2 O14 2.379866 1_555
La2 O49 2.383636 1_555
La2 O50 2.409154 1_555
La3 O15 2.229724 1_555
La3 O16 2.254020 1_555
La3 O52 2.331856 1_555
La3 O17 2.379869 1_555
La3 O51 2.383638 1_555
La3 O53 2.409166 1_555
La4 O26 2.248154 1_554
La4 O24 2.262941 1_554
La4 O25 2.340118 1_554
La4 O61 2.362901 1_555
La4 O62 2.370712 1_555
La4 O60 2.406256 1_555
La5 O29 2.248156 1_555
La5 O28 2.262943 1_555
La5 O27 2.340137 1_555
La5 O63 2.362887 1_555
La5 O65 2.370692 1_555
La5 O64 2.406251 1_555
O0 P0 1.523266 1_555
O1 P1 1.520926 1_555
O2 Si0 1.604021 1_555
O3 P2 1.520926 1_555
O4 P3 1.523255 1_555
O5 Si1 1.604017 1_555
O6 Si1 1.707910 1_555
O6 Sn0 2.082700 1_665
O7 P2 1.570903 1_555
O7 Sn0 2.116899 1_555
O8 P3 1.591723 1_555
O8 Sn0 2.203286 1_565
O9 P1 1.570899 1_555
O9 Sn1 2.116905 1_555
O10 Si0 1.707906 1_555
O10 Sn1 2.082701 1_445
O11 P0 1.591731 1_555
O11 Sn1 2.203274 1_455
O12 P4 1.521136 1_555
O13 Si2 1.608810 1_555
O14 P5 1.519070 1_555
O15 Si3 1.608815 1_555
O16 P6 1.521138 1_555
O17 P7 1.519075 1_555
O18 P7 1.581878 1_555
O18 Sn2 2.151592 1_554
O19 Si3 1.697562 1_555
O19 Sn2 2.065005 1_554
O20 P6 1.587019 1_555
O20 Sn2 2.203233 1_554
O21 Si2 1.697561 1_555
O21 Sn3 2.065009 1_555
O22 P5 1.581872 1_555
O22 Sn3 2.151585 1_555
O23 P4 1.587017 1_555
O23 Sn3 2.203230 1_555
O24 P8 1.514236 1_555
O25 P9 1.523083 1_555
O26 Si4 1.609168 1_555
O27 P10 1.523085 1_555
O28 P11 1.514241 1_555
O29 Si5 1.609168 1_555
O30 Si5 1.710685 1_555
O30 Sn4 2.076131 1_555
O31 P10 1.579741 1_555
O31 Sn4 2.164166 1_555
O32 P11 1.583984 1_555
O32 Sn4 2.170745 1_555
O33 P9 1.579741 1_555
O33 Sn5 2.164162 1_555
O34 Si4 1.710693 1_555
O34 Sn5 2.076130 1_555
O35 P8 1.583990 1_555
O35 Sn5 2.170748 1_555
O36 Si5 1.622059 1_555
O37 P10 1.533586 1_545
O38 P11 1.542564 1_555
O39 P9 1.533586 1_655
O40 Si4 1.622060 1_555
O41 P8 1.542555 1_555
O42 P4 1.578846 1_555
O42 Sn0 2.166236 1_655
O43 Si2 1.668723 1_555
O43 Sn0 2.062930 1_555
O44 P5 1.580992 1_555
O44 Sn0 2.203599 1_665
O45 Si3 1.668722 1_555
O45 Sn1 2.062929 1_555
O46 P6 1.578850 1_555
O46 Sn1 2.166238 1_545
O47 P7 1.580995 1_555
O47 Sn1 2.203597 1_445
O48 Si1 1.628841 1_545
O49 P2 1.538022 1_555
O50 P3 1.526816 1_655
O51 P1 1.538019 1_555
O52 Si0 1.628840 1_655
O53 P0 1.526816 1_545
O54 P8 1.566921 1_555
O54 Sn2 2.140011 1_555
O55 P9 1.579401 1_655
O55 Sn2 2.222472 1_555
O56 Si4 1.681860 1_545
O56 Sn2 2.083259 1_555
O57 P10 1.579400 1_545
O57 Sn3 2.222481 1_555
O58 P11 1.566925 1_555
O58 Sn3 2.140017 1_555
O59 Si5 1.681862 1_655
O59 Sn3 2.083258 1_555
O60 P7 1.534782 1_555
O61 Si3 1.642293 1_455
O62 P6 1.523223 1_565
O63 Si2 1.642296 1_565
O64 P5 1.534776 1_555
O65 P4 1.523222 1_455
O66 P0 1.578633 1_555
O66 Sn4 2.189556 1_555
O67 P1 1.567199 1_555
O67 Sn4 2.136727 1_555
O68 Si0 1.690540 1_555
O68 Sn4 2.102488 1_555
O69 P2 1.567194 1_555
O69 Sn5 2.136728 1_555
O70 P3 1.578637 1_555
O70 Sn5 2.189550 1_555
O71 Si1 1.690534 1_555
O71 Sn5 2.102492 1_555
