# generated using pymatgen
data_CeF3
_symmetry_space_group_name_H-M   'P 1'
_cell_length_a   7.17791411
_cell_length_b   7.17791411
_cell_length_c   7.11082800
_cell_angle_alpha   90.00000000
_cell_angle_beta   90.00000000
_cell_angle_gamma   120.00000104
_symmetry_Int_Tables_number   1
_chemical_formula_structural   CeF3
_chemical_formula_sum   'Ce6 F18'
_cell_volume   317.28337455
_cell_formula_units_Z   6
loop_
 _symmetry_equiv_pos_site_id
 _symmetry_equiv_pos_as_xyz
  1  'x, y, z'
loop_
 _atom_site_type_symbol
 _atom_site_label
 _atom_site_symmetry_multiplicity
 _atom_site_fract_x
 _atom_site_fract_y
 _atom_site_fract_z
 _atom_site_occupancy
  Ce  Ce0  1  0.32622900  0.32622900  0.00000000  1
  Ce  Ce1  1  0.00000000  0.32622900  0.50000000  1
  Ce  Ce2  1  0.32622900  0.00000000  0.50000000  1
  Ce  Ce3  1  0.67377100  0.00000000  0.00000000  1
  Ce  Ce4  1  0.00000000  0.67377100  0.00000000  1
  Ce  Ce5  1  0.67377100  0.67377100  0.50000000  1
  F  F0  1  0.34620800  0.00534100  0.16718900  1
  F  F1  1  0.34086700  0.34620800  0.66718900  1
  F  F2  1  0.00534100  0.65913300  0.66718900  1
  F  F3  1  0.99465900  0.34086700  0.16718900  1
  F  F4  1  0.65913300  0.65379200  0.16718900  1
  F  F5  1  0.34086700  0.99465900  0.83281100  1
  F  F6  1  0.65379200  0.65913300  0.83281100  1
  F  F7  1  0.65379200  0.99465900  0.66718900  1
  F  F8  1  0.00534100  0.34620800  0.83281100  1
  F  F9  1  0.99465900  0.65379200  0.33281100  1
  F  F10  1  0.65913300  0.00534100  0.33281100  1
  F  F11  1  0.34620800  0.34086700  0.33281100  1
  F  F12  1  0.33333300  0.66666700  0.01244600  1
  F  F13  1  0.66666700  0.33333300  0.51244600  1
  F  F14  1  0.66666700  0.33333300  0.98755400  1
  F  F15  1  0.33333300  0.66666700  0.48755400  1
  F  F16  1  0.00000000  0.00000000  0.25000000  1
  F  F17  1  0.00000000  0.00000000  0.75000000  1
loop_
_geom_bond_atom_site_label_1
_geom_bond_atom_site_label_2
_geom_bond_distance
_geom_bond_site_symmetry_2
Ce0 F11 2.370053 1_555
Ce0 F1 2.370053 1_554
Ce0 F12 2.420161 1_555
Ce0 F14 2.420161 1_554
Ce0 F6 2.652020 1_554
Ce0 F4 2.652020 1_555
Ce0 F0 2.658847 1_555
Ce0 F8 2.658847 1_554
Ce0 F3 2.709019 1_455
Ce0 F5 2.709019 1_544
Ce0 F16 2.939989 1_555
Ce0 F17 2.939989 1_554
Ce1 F8 2.370053 1_555
Ce1 F3 2.370053 1_455
Ce1 F13 2.420154 1_455
Ce1 F15 2.420157 1_555
Ce1 F2 2.652020 1_555
Ce1 F9 2.652020 1_455
Ce1 F10 2.658847 1_455
Ce1 F1 2.658847 1_555
Ce1 F7 2.709019 1_445
Ce1 F11 2.709019 1_555
Ce1 F16 2.939989 1_555
Ce1 F17 2.939989 1_555
Ce2 F0 2.370053 1_555
Ce2 F5 2.370053 1_545
Ce2 F15 2.420154 1_545
Ce2 F13 2.420157 1_555
Ce2 F10 2.652020 1_555
Ce2 F7 2.652020 1_545
Ce2 F2 2.658847 1_545
Ce2 F11 2.658847 1_555
Ce2 F9 2.709019 1_445
Ce2 F1 2.709019 1_555
Ce2 F16 2.939989 1_555
Ce2 F17 2.939989 1_555
Ce3 F7 2.370053 1_544
Ce3 F10 2.370053 1_555
Ce3 F14 2.420154 1_554
Ce3 F12 2.420157 1_545
Ce3 F5 2.652020 1_544
Ce3 F0 2.652020 1_555
Ce3 F3 2.658847 1_555
Ce3 F6 2.658847 1_544
Ce3 F8 2.709019 1_654
Ce3 F4 2.709019 1_545
Ce3 F17 2.939989 1_654
Ce3 F16 2.939989 1_655
Ce4 F9 2.370053 1_455
Ce4 F2 2.370053 1_554
Ce4 F12 2.420154 1_555
Ce4 F14 2.420157 1_454
Ce4 F3 2.652020 1_455
Ce4 F8 2.652020 1_554
Ce4 F5 2.658847 1_554
Ce4 F4 2.658847 1_455
Ce4 F0 2.709019 1_565
Ce4 F6 2.709019 1_454
Ce4 F16 2.939989 1_565
Ce4 F17 2.939989 1_564
Ce5 F6 2.370053 1_555
Ce5 F4 2.370053 1_555
Ce5 F13 2.420161 1_555
Ce5 F15 2.420161 1_555
Ce5 F1 2.652020 1_555
Ce5 F11 2.652020 1_555
Ce5 F7 2.658847 1_555
Ce5 F9 2.658847 1_555
Ce5 F2 2.709019 1_655
Ce5 F10 2.709019 1_565
Ce5 F17 2.939989 1_665
Ce5 F16 2.939989 1_665
