# generated using pymatgen
data_NdGeRu
_symmetry_space_group_name_H-M   'P 1'
_cell_length_a   4.31014215
_cell_length_b   4.31014215
_cell_length_c   6.85078478
_cell_angle_alpha   90.00000000
_cell_angle_beta   90.00000000
_cell_angle_gamma   90.00000000
_symmetry_Int_Tables_number   1
_chemical_formula_structural   NdGeRu
_chemical_formula_sum   'Nd2 Ge2 Ru2'
_cell_volume   127.26925778
_cell_formula_units_Z   2
loop_
 _symmetry_equiv_pos_site_id
 _symmetry_equiv_pos_as_xyz
  1  'x, y, z'
loop_
 _atom_site_type_symbol
 _atom_site_label
 _atom_site_symmetry_multiplicity
 _atom_site_fract_x
 _atom_site_fract_y
 _atom_site_fract_z
 _atom_site_occupancy
  Nd  Nd0  1  0.75000000  0.75000000  0.31109785  1
  Nd  Nd1  1  0.25000000  0.25000000  0.68890215  1
  Ge  Ge0  1  0.75000000  0.75000000  0.80951046  1
  Ge  Ge1  1  0.25000000  0.25000000  0.19048954  1
  Ru  Ru0  1  0.75000000  0.25000000  -0.00000000  1
  Ru  Ru1  1  0.25000000  0.75000000  -0.00000000  1
loop_
_geom_bond_atom_site_label_1
_geom_bond_atom_site_label_2
_geom_bond_distance
_geom_bond_site_symmetry_2
Nd0 Ru1 3.030944 1_655
Nd0 Ru1 3.030944 1_555
Nd0 Ru0 3.030944 1_565
Nd0 Ru0 3.030944 1_555
Nd1 Ru0 3.030944 1_556
Nd1 Ru1 3.030944 1_556
Nd1 Ru0 3.030944 1_456
Nd1 Ru1 3.030944 1_546
Ge0 Ru0 2.519397 1_566
Ge0 Ru0 2.519397 1_556
Ge0 Ru1 2.519397 1_656
Ge0 Ru1 2.519397 1_556
Ge0 Nd1 3.157748 1_565
Ge0 Nd1 3.157748 1_655
Ge0 Nd1 3.157748 1_555
Ge0 Nd1 3.157748 1_665
Ge0 Nd0 3.414518 1_555
Ge1 Ru0 2.519397 1_555
Ge1 Ru0 2.519397 1_455
Ge1 Ru1 2.519397 1_545
Ge1 Ru1 2.519397 1_555
Ge1 Nd0 3.157748 1_555
Ge1 Nd0 3.157748 1_445
Ge1 Nd0 3.157748 1_545
Ge1 Nd0 3.157748 1_455
Ge1 Nd1 3.414518 1_555
