# generated using pymatgen
data_Na2Si3Sn4(SO8)3
_symmetry_space_group_name_H-M   'P 1'
_cell_length_a   8.85343999
_cell_length_b   8.82832891
_cell_length_c   23.06610410
_cell_angle_alpha   90.61675674
_cell_angle_beta   90.63871891
_cell_angle_gamma   119.80509285
_symmetry_Int_Tables_number   1
_chemical_formula_structural   Na2Si3Sn4(SO8)3
_chemical_formula_sum   'Na6 Si9 Sn12 S9 O72'
_cell_volume   1564.01662247
_cell_formula_units_Z   3
loop_
 _symmetry_equiv_pos_site_id
 _symmetry_equiv_pos_as_xyz
  1  'x, y, z'
loop_
 _atom_site_type_symbol
 _atom_site_label
 _atom_site_symmetry_multiplicity
 _atom_site_fract_x
 _atom_site_fract_y
 _atom_site_fract_z
 _atom_site_occupancy
  Na  Na0  1  0.96943795  0.96681383  0.49396000  1
  Na  Na1  1  0.00943525  0.97987007  0.00164466  1
  Na  Na2  1  0.63850753  0.30270840  0.82696821  1
  Na  Na3  1  0.68244828  0.31541219  0.33606185  1
  Na  Na4  1  0.30077282  0.65822810  0.17602101  1
  Na  Na5  1  0.36074403  0.66132770  0.66475524  1
  Si  Si0  1  0.29875078  0.00618648  0.24935813  1
  Si  Si1  1  0.01227998  0.28901615  0.25138008  1
  Si  Si2  1  0.29098632  0.29368464  0.74966118  1
  Si  Si3  1  0.71437163  0.00832602  0.74967367  1
  Si  Si4  1  0.66422042  0.62435026  0.58366005  1
  Si  Si5  1  0.94908015  0.62429438  0.08445674  1
  Si  Si6  1  0.32863529  0.96138807  0.91654705  1
  Si  Si7  1  0.63203687  0.96099019  0.41633572  1
  Si  Si8  1  0.04568777  0.67002136  0.41811648  1
  Sn  Sn0  1  0.00807009  0.00151787  0.35427430  1
  Sn  Sn1  1  0.01333705  0.01340899  0.84869122  1
  Sn  Sn2  1  0.98944520  0.00068947  0.64677146  1
  Sn  Sn3  1  0.00562617  0.99299113  0.15259637  1
  Sn  Sn4  1  0.65521908  0.33259750  0.68690172  1
  Sn  Sn5  1  0.68165264  0.33231876  0.19222053  1
  Sn  Sn6  1  0.66310833  0.33319697  0.98145946  1
  Sn  Sn7  1  0.67828826  0.34368946  0.47630422  1
  Sn  Sn8  1  0.31481187  0.67333739  0.02100045  1
  Sn  Sn9  1  0.35318869  0.68331586  0.51561190  1
  Sn  Sn10  1  0.31995378  0.67676474  0.31398560  1
  Sn  Sn11  1  0.34988050  0.68219931  0.80959408  1
  S  S0  1  0.70321686  0.70805026  0.24952634  1
  S  S1  1  -0.00008512  0.70776757  0.75000701  1
  S  S2  1  0.96183558  0.33777307  0.58410383  1
  S  S3  1  0.37008641  0.03876719  0.58356618  1
  S  S4  1  0.66836345  0.03683202  0.08201757  1
  S  S5  1  0.37195017  0.33766380  0.08065287  1
  S  S6  1  0.62280539  0.66764237  0.91892723  1
  S  S7  1  0.04136944  0.37583859  0.91666591  1
  S  S8  1  0.33431321  0.37861268  0.41675329  1
  O  O0  1  0.20822857  0.03076992  0.30564639  1
  O  O1  1  0.81498121  0.78713206  0.30106637  1
  O  O2  1  0.97222363  0.16411487  0.30522537  1
  O  O3  1  0.22253679  0.18027076  0.80872593  1
  O  O4  1  0.97009322  0.78272325  0.80423578  1
  O  O5  1  0.81943083  0.02908562  0.81136523  1
  O  O6  1  0.79025022  0.96095415  0.69343295  1
  O  O7  1  0.17656963  0.20093871  0.69137459  1
  O  O8  1  0.02801068  0.81497270  0.69869372  1
  O  O9  1  0.77683241  0.80974433  0.19516185  1
  O  O10  1  0.02243982  0.20507678  0.18762224  1
  O  O11  1  0.18548674  0.95736993  0.18776250  1
  O  O12  1  0.87801034  0.35443849  0.63750535  1
  O  O13  1  0.47633476  0.11294955  0.63800303  1
  O  O14  1  0.64063951  0.51446757  0.64270659  1
  O  O15  1  0.85269288  0.50013269  0.13827760  1
  O  O16  1  0.63236215  0.11419516  0.13281642  1
  O  O17  1  0.47790549  0.36143935  0.13270916  1
  O  O18  1  0.44557869  0.30317942  0.02696234  1
  O  O19  1  0.84287377  0.54176772  0.02258349  1
  O  O20  1  0.68665113  0.13586041  0.02784088  1
  O  O21  1  0.45420752  0.14185644  0.53227743  1
  O  O22  1  0.68701479  0.52845454  0.52664694  1
  O  O23  1  0.85094553  0.30460620  0.53162261  1
  O  O24  1  0.53825450  0.68663593  0.97156218  1
  O  O25  1  0.14823792  0.45069203  0.97135182  1
  O  O26  1  0.30108808  0.85246302  0.97615217  1
  O  O27  1  0.56496740  0.85050331  0.47611299  1
  O  O28  1  0.31267027  0.45641387  0.47155717  1
  O  O29  1  0.15531384  0.69081473  0.47828547  1
  O  O30  1  0.11663470  0.62187434  0.36017774  1
  O  O31  1  0.51424024  0.86720144  0.35881508  1
  O  O32  1  0.35766263  0.48331709  0.36550923  1
  O  O33  1  0.12439562  0.47824735  0.86585894  1
  O  O34  1  0.36085489  0.87037428  0.86019866  1
  O  O35  1  0.51500093  0.63470567  0.86563311  1
  O  O36  1  0.03954906  0.85216896  0.41303787  1
  O  O37  1  0.82981247  0.99460484  0.41049322  1
  O  O38  1  0.17773318  0.20487665  0.41402617  1
  O  O39  1  0.01593774  0.19593902  0.91432226  1
  O  O40  1  0.15165193  0.97630956  0.91164657  1
  O  O41  1  0.79597283  0.82620804  0.91491742  1
  O  O42  1  0.98360816  0.17990948  0.58643430  1
  O  O43  1  0.19756035  0.02755788  0.58857468  1
  O  O44  1  0.84466092  0.81698037  0.58717037  1
  O  O45  1  0.96633127  0.81773265  0.08782035  1
  O  O46  1  0.82695673  0.02445592  0.08703202  1
  O  O47  1  0.19246670  0.18689926  0.08330850  1
  O  O48  1  0.70784742  0.18990381  0.74308260  1
  O  O49  1  0.48932347  0.32623799  0.74623578  1
  O  O50  1  0.84578535  0.53262146  0.74445802  1
  O  O51  1  0.68801404  0.53370150  0.24309120  1
  O  O52  1  0.84386780  0.32129018  0.24865080  1
  O  O53  1  0.48258159  0.18994137  0.24180895  1
  O  O54  1  0.64409240  0.51013937  0.92213841  1
  O  O55  1  0.86774404  0.36356342  0.92184629  1
  O  O56  1  0.50653923  0.15660595  0.92269790  1
  O  O57  1  0.62695081  0.14453338  0.42373248  1
  O  O58  1  0.49001681  0.35770535  0.42123253  1
  O  O59  1  0.84727635  0.50291737  0.42027055  1
  O  O60  1  0.36603184  0.50354292  0.07367547  1
  O  O61  1  0.14323054  0.63893243  0.08177878  1
  O  O62  1  0.51571810  0.85537339  0.07628103  1
  O  O63  1  0.34521840  0.85944823  0.58069146  1
  O  O64  1  0.48812739  0.64199347  0.57916226  1
  O  O65  1  0.13313149  0.49581552  0.58045531  1
  O  O66  1  0.33242241  0.84005471  0.25229451  1
  O  O67  1  0.53062194  0.68769901  0.25454086  1
  O  O68  1  0.19331289  0.47690009  0.25561983  1
  O  O69  1  0.29264160  0.48029901  0.75710030  1
  O  O70  1  0.15555188  0.68924397  0.75619702  1
  O  O71  1  0.51625745  0.84055689  0.75246296  1
loop_
_geom_bond_atom_site_label_1
_geom_bond_atom_site_label_2
_geom_bond_distance
_geom_bond_site_symmetry_2
Na0 O36 2.345940 1_655
Na0 O37 2.356589 1_555
Na0 O44 2.500827 1_555
Na0 O38 2.742934 1_665
Na0 O42 2.788862 1_565
Na0 O43 2.815904 1_665
Na1 O45 2.383439 1_455
Na1 O40 2.447843 1_554
Na1 O47 2.535390 1_565
Na1 O41 2.592763 1_454
Na1 O46 2.707496 1_465
Na1 O39 2.770390 1_564
Na2 O49 2.341283 1_555
Na2 O48 2.388575 1_555
Na2 O56 2.554456 1_555
Na2 O50 2.750971 1_555
Na2 O55 2.826439 1_555
Na2 O54 2.827709 1_555
Na3 O57 2.440811 1_555
Na3 O52 2.470432 1_555
Na3 O59 2.471582 1_555
Na3 O53 2.645468 1_555
Na3 O58 2.755469 1_555
Na3 O51 2.883043 1_555
Na4 O66 2.287265 1_555
Na4 O68 2.329592 1_555
Na4 O61 2.527470 1_555
Na4 O67 2.621134 1_555
Na4 O60 2.918395 1_555
Na4 O62 2.972322 1_555
Na5 O64 2.330799 1_555
Na5 O71 2.489062 1_555
Na5 O69 2.568811 1_555
Na5 O65 2.627015 1_555
Na5 O63 2.672833 1_555
Na5 O70 2.886009 1_555
O0 Si0 1.601610 1_555
O0 Sn0 2.015124 1_555
O1 S0 1.465946 1_555
O1 Sn0 2.167402 1_665
O2 Si1 1.592098 1_655
O2 Sn0 1.980175 1_655
O3 Si2 1.634154 1_555
O3 Sn1 1.950706 1_555
O4 S1 1.495140 1_655
O4 Sn1 2.125286 1_665
O5 Si3 1.648950 1_555
O5 Sn1 1.978233 1_655
O6 Si3 1.611246 1_565
O6 Sn2 1.956290 1_565
O7 Si2 1.620337 1_555
O7 Sn2 1.984883 1_455
O8 S1 1.468052 1_555
O8 Sn2 2.197449 1_465
O9 S0 1.504672 1_555
O9 Sn3 2.122530 1_655
O10 Si1 1.663065 1_555
O10 Sn3 1.966798 1_545
O11 Si0 1.653881 1_565
O11 Sn3 1.940889 1_555
O12 S2 1.488184 1_555
O12 Sn4 2.214216 1_555
O13 S3 1.494639 1_555
O13 Sn4 2.097793 1_555
O14 Si4 1.634951 1_555
O14 Sn4 1.967783 1_555
O15 Si5 1.610572 1_555
O15 Sn5 1.971704 1_555
O16 S4 1.465785 1_555
O16 Sn5 2.206947 1_555
O17 S5 1.462710 1_555
O17 Sn5 2.370172 1_555
O18 S5 1.502827 1_555
O18 Sn6 2.103465 1_554
O19 Si5 1.648775 1_555
O19 Sn6 1.959276 1_554
O20 S4 1.496484 1_555
O20 Sn6 2.149240 1_554
O21 S3 1.466811 1_555
O21 Sn7 2.317365 1_555
O22 Si4 1.624395 1_555
O22 Sn7 1.961384 1_555
O23 S2 1.481583 1_555
O23 Sn7 2.138724 1_555
O24 S6 1.484293 1_555
O24 Sn8 2.247196 1_556
O25 S7 1.502297 1_555
O25 Sn8 2.093356 1_556
O26 Si6 1.636225 1_555
O26 Sn8 1.951689 1_556
O27 Si7 1.636039 1_555
O27 Sn9 1.959605 1_555
O28 S8 1.491311 1_555
O28 Sn9 2.099442 1_555
O29 Si8 1.639888 1_555
O29 Sn9 1.974238 1_555
O30 Si8 1.622694 1_555
O30 Sn10 1.948601 1_555
O31 Si7 1.618839 1_555
O31 Sn10 1.975507 1_555
O32 S8 1.460589 1_555
O32 Sn10 2.245476 1_555
O33 S7 1.453435 1_555
O33 Sn11 2.333749 1_555
O34 Si6 1.621707 1_555
O34 Sn11 1.981666 1_555
O35 S6 1.482198 1_555
O35 Sn11 2.136025 1_555
O36 Si8 1.641135 1_555
O36 Sn0 2.012138 1_565
O37 Si7 1.631493 1_555
O37 Sn0 2.031641 1_665
O38 S8 1.469865 1_555
O38 Sn0 2.144472 1_555
O39 S7 1.489439 1_555
O39 Sn1 2.190622 1_555
O40 Si6 1.639179 1_555
O40 Sn1 2.021095 1_565
O41 S6 1.480236 1_555
O41 Sn1 2.392997 1_665
O42 S2 1.500271 1_555
O42 Sn2 2.137780 1_555
O43 S3 1.486659 1_555
O43 Sn2 2.209228 1_455
O44 Si4 1.656533 1_555
O44 Sn2 2.002373 1_565
O45 Si5 1.638080 1_555
O45 Sn3 2.037387 1_655
O46 S4 1.464910 1_555
O46 Sn3 2.293250 1_645
O47 S5 1.483832 1_555
O47 Sn3 2.350295 1_545
O48 Si3 1.641112 1_555
O48 Sn4 2.022015 1_555
O49 Si2 1.635286 1_555
O49 Sn4 1.999486 1_555
O50 S1 1.470935 1_655
O50 Sn4 2.159909 1_555
O51 S0 1.482564 1_555
O51 Sn5 2.096406 1_555
O52 Si1 1.651947 1_655
O52 Sn5 1.966299 1_555
O53 Si0 1.642738 1_555
O53 Sn5 1.966760 1_555
O54 S6 1.495620 1_555
O54 Sn6 2.154785 1_555
O55 S7 1.492556 1_655
O55 Sn6 2.196730 1_555
O56 Si6 1.662061 1_545
O56 Sn6 1.988315 1_555
O57 Si7 1.650309 1_545
O57 Sn7 1.978827 1_555
O58 S8 1.481626 1_555
O58 Sn7 2.137416 1_555
O59 Si8 1.640703 1_655
O59 Sn7 1.968866 1_555
O60 S5 1.501461 1_555
O60 Sn8 2.152106 1_555
O61 Si5 1.660375 1_455
O61 Sn8 1.990783 1_555
O62 S4 1.499822 1_565
O62 Sn8 2.106195 1_555
O63 S3 1.486594 1_565
O63 Sn9 2.176568 1_555
O64 Si4 1.644305 1_555
O64 Sn9 2.028495 1_555
O65 S2 1.468206 1_455
O65 Sn9 2.384359 1_555
O66 Si0 1.637346 1_565
O66 Sn10 2.001162 1_555
O67 S0 1.453302 1_555
O67 Sn10 2.291074 1_555
O68 Si1 1.637038 1_555
O68 Sn10 2.032596 1_555
O69 Si2 1.647346 1_555
O69 Sn11 1.985427 1_555
O70 S1 1.471707 1_555
O70 Sn11 2.131120 1_555
O71 Si3 1.642060 1_565
O71 Sn11 1.973980 1_555
