# generated using pymatgen
data_CePb3
_symmetry_space_group_name_H-M   'P 1'
_cell_length_a   4.89585243
_cell_length_b   4.89584294
_cell_length_c   4.89585243
_cell_angle_alpha   90.00000000
_cell_angle_beta   90.00000000
_cell_angle_gamma   90.00000000
_symmetry_Int_Tables_number   1
_chemical_formula_structural   CePb3
_chemical_formula_sum   'Ce1 Pb3'
_cell_volume   117.35027587
_cell_formula_units_Z   1
loop_
 _symmetry_equiv_pos_site_id
 _symmetry_equiv_pos_as_xyz
  1  'x, y, z'
loop_
 _atom_site_type_symbol
 _atom_site_label
 _atom_site_symmetry_multiplicity
 _atom_site_fract_x
 _atom_site_fract_y
 _atom_site_fract_z
 _atom_site_occupancy
  Ce  Ce0  1  -0.00000000  0.00000000  -0.00000000  1
  Pb  Pb0  1  -0.00000000  0.50000000  0.50000000  1
  Pb  Pb1  1  0.50000000  0.50000000  -0.00000000  1
  Pb  Pb2  1  0.50000000  0.00000000  0.50000000  1
loop_
_geom_bond_atom_site_label_1
_geom_bond_atom_site_label_2
_geom_bond_distance
_geom_bond_site_symmetry_2
Ce0 Pb0 3.461887 1_545
Ce0 Pb1 3.461887 1_445
Ce0 Pb1 3.461887 1_545
Ce0 Pb1 3.461887 1_555
Ce0 Pb1 3.461887 1_455
Ce0 Pb0 3.461887 1_554
Ce0 Pb0 3.461887 1_544
Ce0 Pb0 3.461887 1_555
Ce0 Pb2 3.461890 1_455
Ce0 Pb2 3.461890 1_554
Ce0 Pb2 3.461890 1_454
Ce0 Pb2 3.461890 1_555
Pb0 Pb2 3.461887 1_465
Pb0 Pb2 3.461887 1_565
Pb0 Pb2 3.461887 1_555
Pb0 Pb2 3.461887 1_455
Pb0 Pb1 3.461890 1_455
Pb0 Pb1 3.461890 1_456
Pb0 Pb1 3.461890 1_556
Pb0 Pb1 3.461890 1_555
Pb1 Pb2 3.461887 1_554
Pb1 Pb2 3.461887 1_565
Pb1 Pb2 3.461887 1_555
Pb1 Pb2 3.461887 1_564
