# generated using pymatgen
data_RbAsSe2
_symmetry_space_group_name_H-M   'P 1'
_cell_length_a   12.82260341
_cell_length_b   12.82260341
_cell_length_c   9.55612873
_cell_angle_alpha   78.63919651
_cell_angle_beta   78.63919651
_cell_angle_gamma   46.02720583
_symmetry_Int_Tables_number   1
_chemical_formula_structural   RbAsSe2
_chemical_formula_sum   'Rb8 As8 Se16'
_cell_volume   1104.55210348
_cell_formula_units_Z   8
loop_
 _symmetry_equiv_pos_site_id
 _symmetry_equiv_pos_as_xyz
  1  'x, y, z'
loop_
 _atom_site_type_symbol
 _atom_site_label
 _atom_site_symmetry_multiplicity
 _atom_site_fract_x
 _atom_site_fract_y
 _atom_site_fract_z
 _atom_site_occupancy
  Rb  Rb0  1  0.46345482  0.53654518  0.75000000  1
  Rb  Rb1  1  0.53654518  0.46345482  0.25000000  1
  Rb  Rb2  1  0.00204721  0.99795279  0.75000000  1
  Rb  Rb3  1  0.99795279  0.00204721  0.25000000  1
  Rb  Rb4  1  0.12262778  0.27445785  0.17147518  1
  Rb  Rb5  1  0.72554215  0.87737222  0.32852482  1
  Rb  Rb6  1  0.87737222  0.72554215  0.82852482  1
  Rb  Rb7  1  0.27445785  0.12262778  0.67147518  1
  As  As0  1  0.51022164  0.79539809  0.95583525  1
  As  As1  1  0.80673989  0.41064326  0.85136291  1
  As  As2  1  0.58935674  0.19326011  0.64863709  1
  As  As3  1  0.19326011  0.58935674  0.14863709  1
  As  As4  1  0.41064326  0.80673989  0.35136291  1
  As  As5  1  0.20460191  0.48977836  0.54416475  1
  As  As6  1  0.48977836  0.20460191  0.04416475  1
  As  As7  1  0.79539809  0.51022164  0.45583525  1
  Se  Se0  1  0.19011474  0.01617815  0.44232278  1
  Se  Se1  1  0.98382185  0.80988526  0.05767722  1
  Se  Se2  1  0.80988526  0.98382185  0.55767722  1
  Se  Se3  1  0.91124871  0.47886940  0.65562004  1
  Se  Se4  1  0.01617815  0.19011474  0.94232278  1
  Se  Se5  1  0.47886940  0.91124871  0.15562004  1
  Se  Se6  1  0.08875129  0.52113060  0.34437996  1
  Se  Se7  1  0.52113060  0.08875129  0.84437996  1
  Se  Se8  1  0.77712355  0.34005777  0.50680719  1
  Se  Se9  1  0.65994223  0.22287645  0.99319281  1
  Se  Se10  1  0.22287645  0.65994223  0.49319281  1
  Se  Se11  1  0.34005777  0.77712355  0.00680719  1
  Se  Se12  1  0.55776732  0.74351151  0.53621659  1
  Se  Se13  1  0.25648849  0.44223268  0.96378341  1
  Se  Se14  1  0.44223268  0.25648849  0.46378341  1
  Se  Se15  1  0.74351151  0.55776732  0.03621659  1
loop_
_geom_bond_atom_site_label_1
_geom_bond_atom_site_label_2
_geom_bond_distance
_geom_bond_site_symmetry_2
Rb0 Se8 3.532441 1_555
Rb0 Se9 3.532441 1_555
Rb0 Se11 3.566104 1_556
Rb0 Se10 3.566104 1_555
Rb0 Se13 3.745173 1_555
Rb0 Se12 3.745173 1_555
Rb1 Se11 3.532441 1_555
Rb1 Se10 3.532441 1_555
Rb1 Se8 3.566104 1_555
Rb1 Se9 3.566104 1_554
Rb1 Se14 3.745173 1_555
Rb1 Se15 3.745173 1_555
Rb2 Se2 3.466589 1_455
Rb2 Se4 3.466589 1_565
Rb2 Se0 3.497611 1_565
Rb2 Se1 3.497611 1_456
Rb2 Se8 3.744017 1_465
Rb2 Se9 3.744017 1_465
Rb3 Se1 3.466589 1_545
Rb3 Se0 3.466589 1_655
Rb3 Se2 3.497611 1_545
Rb3 Se4 3.497611 1_654
Rb3 Se11 3.744017 1_645
Rb3 Se10 3.744017 1_645
Rb4 Se0 3.455674 1_555
Rb4 Se4 3.462450 1_554
Rb4 Se6 3.576531 1_555
Rb4 Se5 3.611457 1_545
Rb4 Se13 3.690097 1_554
Rb4 Se15 3.821266 1_455
Rb5 Se1 3.455674 1_555
Rb5 Se2 3.462450 1_555
Rb5 Se5 3.576531 1_555
Rb5 Se6 3.611457 1_655
Rb5 Se12 3.690097 1_555
Rb5 Se14 3.821266 1_565
Rb6 Se2 3.455674 1_555
Rb6 Se1 3.462450 1_556
Rb6 Se3 3.576531 1_555
Rb6 Se7 3.611457 1_565
Rb6 Se15 3.690097 1_556
Rb6 Se13 3.821266 1_655
Rb7 Se4 3.455674 1_555
Rb7 Se0 3.462450 1_555
Rb7 Se7 3.576531 1_555
Rb7 Se3 3.611457 1_455
Rb7 Se14 3.690097 1_555
Rb7 Se12 3.821266 1_545
As0 Se11 2.302033 1_556
As0 Se5 2.449274 1_556
As0 Se15 2.479681 1_556
As0 Rb7 3.906293 1_565
As1 Se4 2.317287 1_655
As1 Se15 2.441616 1_556
As1 Se3 2.460847 1_555
As1 Rb0 3.757153 1_555
As2 Se2 2.317287 1_545
As2 Se14 2.441616 1_555
As2 Se7 2.460847 1_555
As2 Rb0 3.757153 1_555
As3 Se1 2.317287 1_455
As3 Se13 2.441616 1_554
As3 Se6 2.460847 1_555
As3 Rb1 3.757153 1_555
As4 Se0 2.317287 1_565
As4 Se12 2.441616 1_555
As4 Se5 2.460847 1_555
As4 Rb1 3.757153 1_555
As5 Se10 2.302033 1_555
As5 Se6 2.449274 1_555
As5 Se14 2.479681 1_555
As5 Rb6 3.906293 1_455
As6 Se9 2.302033 1_554
As6 Se7 2.449274 1_554
As6 Se13 2.479681 1_554
As6 Rb5 3.906293 1_545
As7 Se8 2.302033 1_555
As7 Se3 2.449274 1_555
As7 Se12 2.479681 1_555
As7 Rb4 3.906293 1_655
