# generated using pymatgen
data_Al4Bi2O9
_symmetry_space_group_name_H-M   'P 1'
_cell_length_a   5.69208539
_cell_length_b   7.70441449
_cell_length_c   8.13487548
_cell_angle_alpha   90.00000000
_cell_angle_beta   90.00000000
_cell_angle_gamma   90.00000000
_symmetry_Int_Tables_number   1
_chemical_formula_structural   Al4Bi2O9
_chemical_formula_sum   'Al8 Bi4 O18'
_cell_volume   356.74833553
_cell_formula_units_Z   2
loop_
 _symmetry_equiv_pos_site_id
 _symmetry_equiv_pos_as_xyz
  1  'x, y, z'
loop_
 _atom_site_type_symbol
 _atom_site_label
 _atom_site_symmetry_multiplicity
 _atom_site_fract_x
 _atom_site_fract_y
 _atom_site_fract_z
 _atom_site_occupancy
  Al  Al0  1  0.50000000  0.14841818  0.83852755  1
  Al  Al1  1  0.50000000  0.85158182  0.16147245  1
  Al  Al2  1  0.50000000  0.64841818  0.66147245  1
  Al  Al3  1  0.50000000  0.35158182  0.33852755  1
  Al  Al4  1  0.26050014  -0.00000000  0.50000000  1
  Al  Al5  1  0.73949986  0.50000000  0.00000000  1
  Al  Al6  1  0.73949986  -0.00000000  0.50000000  1
  Al  Al7  1  0.26050014  0.50000000  0.00000000  1
  Bi  Bi0  1  -0.00000000  0.33158531  0.66666931  1
  Bi  Bi1  1  -0.00000000  0.66841469  0.33333069  1
  Bi  Bi2  1  -0.00000000  0.83158531  0.83333069  1
  Bi  Bi3  1  -0.00000000  0.16841469  0.16666931  1
  O  O0  1  -0.00000000  0.35639442  0.93332325  1
  O  O1  1  -0.00000000  0.64360558  0.06667675  1
  O  O2  1  -0.00000000  0.85639442  0.56667675  1
  O  O3  1  -0.00000000  0.14360558  0.43332325  1
  O  O4  1  0.50000000  0.36185145  0.91412165  1
  O  O5  1  0.50000000  0.63814855  0.08587835  1
  O  O6  1  0.50000000  0.86185145  0.58587835  1
  O  O7  1  0.50000000  0.13814855  0.41412165  1
  O  O8  1  0.25110087  0.87487076  0.29317340  1
  O  O9  1  0.25110087  0.12512924  0.70682660  1
  O  O10  1  0.74889913  0.37487076  0.20682660  1
  O  O11  1  0.74889913  0.62512924  0.79317340  1
  O  O12  1  0.50000000  -0.00000000  0.00000000  1
  O  O13  1  0.50000000  0.50000000  0.50000000  1
  O  O14  1  0.25110087  0.37487076  0.20682660  1
  O  O15  1  0.25110087  0.62512924  0.79317340  1
  O  O16  1  0.74889913  0.87487076  0.29317340  1
  O  O17  1  0.74889913  0.12512924  0.70682660  1
loop_
_geom_bond_atom_site_label_1
_geom_bond_atom_site_label_2
_geom_bond_distance
_geom_bond_site_symmetry_2
Al0 O12 1.741543 1_556
Al0 O4 1.755603 1_555
Al0 O17 1.785280 1_555
Al0 O9 1.785280 1_555
Al1 O12 1.741543 1_565
Al1 O5 1.755603 1_555
Al1 O16 1.785280 1_555
Al1 O8 1.785280 1_555
Al2 O13 1.741543 1_555
Al2 O6 1.755603 1_555
Al2 O11 1.785280 1_555
Al2 O15 1.785280 1_555
Al3 O13 1.741543 1_555
Al3 O7 1.755603 1_555
Al3 O10 1.785280 1_555
Al3 O14 1.785280 1_555
Al4 O7 1.865306 1_555
Al4 O6 1.865306 1_545
Al4 O2 1.927948 1_545
Al4 O3 1.927948 1_555
Al4 O9 1.939867 1_555
Al4 O8 1.939867 1_545
Al5 O4 1.865306 1_554
Al5 O5 1.865306 1_555
Al5 O0 1.927948 1_654
Al5 O1 1.927948 1_655
Al5 O10 1.939867 1_555
Al5 O11 1.939867 1_554
Al6 O7 1.865306 1_555
Al6 O6 1.865306 1_545
Al6 O2 1.927948 1_645
Al6 O3 1.927948 1_655
Al6 O17 1.939867 1_555
Al6 O16 1.939867 1_545
Al7 O4 1.865306 1_554
Al7 O5 1.865306 1_555
Al7 O0 1.927948 1_554
Al7 O1 1.927948 1_555
Al7 O14 1.939867 1_555
Al7 O15 1.939867 1_554
Bi0 O17 2.163252 1_455
Bi0 O9 2.163252 1_555
Bi0 O0 2.177601 1_555
Bi0 O3 2.387638 1_555
Bi1 O8 2.163252 1_555
Bi1 O16 2.163252 1_455
Bi1 O1 2.177601 1_555
Bi1 O2 2.387638 1_555
Bi2 O15 2.163252 1_555
Bi2 O11 2.163252 1_455
Bi2 O2 2.177601 1_555
Bi2 O1 2.387638 1_556
Bi3 O10 2.163252 1_455
Bi3 O14 2.163252 1_555
Bi3 O3 2.177601 1_555
Bi3 O0 2.387638 1_554
