# generated using pymatgen
data_Na2Ti8Si5S7O48
_symmetry_space_group_name_H-M   'P 1'
_cell_length_a   17.39357990
_cell_length_b   8.70199031
_cell_length_c   22.45941775
_cell_angle_alpha   90.00060967
_cell_angle_beta   90.02472071
_cell_angle_gamma   120.07553085
_symmetry_Int_Tables_number   1
_chemical_formula_structural   Na2Ti8Si5S7O48
_chemical_formula_sum   'Na6 Ti24 Si15 S21 O144'
_cell_volume   2941.74888289
_cell_formula_units_Z   3
loop_
 _symmetry_equiv_pos_site_id
 _symmetry_equiv_pos_as_xyz
  1  'x, y, z'
loop_
 _atom_site_type_symbol
 _atom_site_label
 _atom_site_symmetry_multiplicity
 _atom_site_fract_x
 _atom_site_fract_y
 _atom_site_fract_z
 _atom_site_occupancy
  Na  Na0  1  0.99855117  0.99981045  0.49977635  1
  Na  Na1  1  0.49802047  0.99797282  0.99703631  1
  Na  Na2  1  0.33528559  0.33590828  0.83403946  1
  Na  Na3  1  0.83251783  0.33552155  0.83176960  1
  Na  Na4  1  0.33337258  0.33108985  0.33249329  1
  Na  Na5  1  0.83379102  0.33357282  0.33558538  1
  Ti  Ti0  1  0.00218062  0.99081042  0.35676233  1
  Ti  Ti1  1  0.49768229  0.00587348  0.35753622  1
  Ti  Ti2  1  0.99648388  0.98905503  0.85680588  1
  Ti  Ti3  1  0.50049229  0.00140751  0.85231865  1
  Ti  Ti4  1  0.00012666  0.99663731  0.64712500  1
  Ti  Ti5  1  0.50366101  0.99364633  0.64792859  1
  Ti  Ti6  1  0.00337576  0.99917942  0.14318025  1
  Ti  Ti7  1  0.49862918  0.00278660  0.14645710  1
  Ti  Ti8  1  0.33800012  0.35301877  0.68640919  1
  Ti  Ti9  1  0.83827156  0.34551922  0.69033259  1
  Ti  Ti10  1  0.33967304  0.33187417  0.18940384  1
  Ti  Ti11  1  0.83249220  0.32293250  0.18310556  1
  Ti  Ti12  1  0.34306737  0.35778792  0.97591425  1
  Ti  Ti13  1  0.83900317  0.32349288  0.97828501  1
  Ti  Ti14  1  0.34145353  0.35466077  0.48202267  1
  Ti  Ti15  1  0.84161104  0.32584079  0.47775478  1
  Ti  Ti16  1  0.16958461  0.65575865  0.01637914  1
  Ti  Ti17  1  0.65966899  0.66146734  0.02456575  1
  Ti  Ti18  1  0.16097622  0.66113821  0.52741221  1
  Ti  Ti19  1  0.66872879  0.68502204  0.51854936  1
  Ti  Ti20  1  0.15959998  0.67447749  0.31101569  1
  Ti  Ti21  1  0.66006892  0.66454502  0.31444745  1
  Ti  Ti22  1  0.16140836  0.65608158  0.81316379  1
  Ti  Ti23  1  0.65402594  0.64312551  0.80719271  1
  Si  Si0  1  0.14424982  0.00505835  0.24918554  1
  Si  Si1  1  0.50317323  0.29127748  0.25033577  1
  Si  Si2  1  0.64362873  0.28295349  0.74880193  1
  Si  Si3  1  0.00311840  0.71457956  0.75032965  1
  Si  Si4  1  0.50028361  0.71482995  0.75111688  1
  Si  Si5  1  0.97656830  0.32791823  0.58589216  1
  Si  Si6  1  0.33477373  0.63302078  0.58397443  1
  Si  Si7  1  0.47720545  0.62518452  0.08498522  1
  Si  Si8  1  0.83388883  0.03596666  0.08256647  1
  Si  Si9  1  0.31248148  0.67085236  0.91409263  1
  Si  Si10  1  0.02331868  0.37372336  0.91597035  1
  Si  Si11  1  0.52402043  0.37463949  0.91736863  1
  Si  Si12  1  0.81100488  0.95304343  0.41464971  1
  Si  Si13  1  0.02332147  0.66533280  0.41876168  1
  Si  Si14  1  0.52180087  0.67067805  0.41670024  1
  S  S0  1  0.64379551  0.00049525  0.25004194  1
  S  S1  1  0.35537017  0.71250807  0.25062739  1
  S  S2  1  0.85539454  0.71125084  0.24948506  1
  S  S3  1  0.00020516  0.28742890  0.24999948  1
  S  S4  1  0.14366855  0.28641632  0.75027312  1
  S  S5  1  0.35465796  0.99878510  0.74945578  1
  S  S6  1  0.85574246  0.99827207  0.75046603  1
  S  S7  1  0.47892486  0.33335850  0.58341627  1
  S  S8  1  0.19055152  0.04730766  0.58356525  1
  S  S9  1  0.68994363  0.04774367  0.58335521  1
  S  S10  1  0.83173197  0.61968016  0.58299195  1
  S  S11  1  0.97812346  0.62153293  0.08298043  1
  S  S12  1  0.33167586  0.04375510  0.08289507  1
  S  S13  1  0.19017861  0.33389771  0.08348020  1
  S  S14  1  0.68995181  0.33350138  0.08280151  1
  S  S15  1  0.80946924  0.66509607  0.91685888  1
  S  S16  1  0.16656648  0.95403845  0.91682191  1
  S  S17  1  0.66688344  0.95346791  0.91647842  1
  S  S18  1  0.30955903  0.95376701  0.41710254  1
  S  S19  1  0.16743788  0.38039679  0.41646806  1
  S  S20  1  0.66670258  0.37965966  0.41702813  1
  O  O0  1  0.09576854  0.03150519  0.30735766  1
  O  O1  1  0.60493431  0.03300431  0.30318525  1
  O  O2  1  0.41246216  0.79188749  0.30369075  1
  O  O3  1  0.91195365  0.79066783  0.30316548  1
  O  O4  1  0.48529839  0.15945518  0.30735655  1
  O  O5  1  0.98211758  0.17814739  0.30348408  1
  O  O6  1  0.10353502  0.17590111  0.80339003  1
  O  O7  1  0.59766180  0.16213609  0.80791463  1
  O  O8  1  0.48062096  0.79991205  0.80881022  1
  O  O9  1  0.98535381  0.81102161  0.80734674  1
  O  O10  1  0.41099204  0.03499708  0.80348448  1
  O  O11  1  0.91334079  0.03428346  0.80369309  1
  O  O12  1  0.39486246  0.96934370  0.69610203  1
  O  O13  1  0.89803691  0.97220708  0.69654927  1
  O  O14  1  0.08854907  0.20723455  0.69590545  1
  O  O15  1  0.58041126  0.19510952  0.69092804  1
  O  O16  1  0.01408544  0.83978543  0.69222308  1
  O  O17  1  0.51481111  0.83373603  0.69197139  1
  O  O18  1  0.39692096  0.82308177  0.19674069  1
  O  O19  1  0.89645154  0.82225898  0.19598873  1
  O  O20  1  0.01395162  0.20775341  0.19639199  1
  O  O21  1  0.51403497  0.18824759  0.19225033  1
  O  O22  1  0.07938627  0.96856292  0.19195703  1
  O  O23  1  0.58960757  0.97145252  0.19587273  1
  O  O24  1  0.43609717  0.36380511  0.63623426  1
  O  O25  1  0.92849838  0.36265031  0.64139906  1
  O  O26  1  0.24394107  0.12498674  0.63716022  1
  O  O27  1  0.74505051  0.12439245  0.63638372  1
  O  O28  1  0.31721803  0.49373526  0.63976928  1
  O  O29  1  0.81763320  0.51210535  0.63700146  1
  O  O30  1  0.42863509  0.49525736  0.14143002  1
  O  O31  1  0.93474308  0.50847901  0.13701777  1
  O  O32  1  0.31779298  0.12350041  0.13731642  1
  O  O33  1  0.81904079  0.14318457  0.14016696  1
  O  O34  1  0.24451777  0.36399407  0.13708052  1
  O  O35  1  0.74525993  0.36195315  0.13756822  1
  O  O36  1  0.22709645  0.29841690  0.03018943  1
  O  O37  1  0.72979848  0.30234115  0.03015661  1
  O  O38  1  0.41480513  0.53186446  0.02641353  1
  O  O39  1  0.92049545  0.54116894  0.03034732  1
  O  O40  1  0.34901116  0.15491363  0.03009738  1
  O  O41  1  0.84957596  0.17391216  0.02713483  1
  O  O42  1  0.22939983  0.15605129  0.52933398  1
  O  O43  1  0.72961461  0.15696294  0.52940372  1
  O  O44  1  0.34867136  0.52638682  0.52675691  1
  O  O45  1  0.84885214  0.54247662  0.52969670  1
  O  O46  1  0.42047147  0.30292350  0.52964490  1
  O  O47  1  0.91541853  0.29892438  0.52603231  1
  O  O48  1  0.26445451  0.69827809  0.97475880  1
  O  O49  1  0.77245380  0.69879324  0.97065528  1
  O  O50  1  0.08374832  0.47228708  0.97503444  1
  O  O51  1  0.58674023  0.47530214  0.97489247  1
  O  O52  1  0.15004413  0.84278052  0.97074185  1
  O  O53  1  0.65326181  0.84698157  0.97072629  1
  O  O54  1  0.27196834  0.84467841  0.46991987  1
  O  O55  1  0.76511871  0.82968526  0.47476964  1
  O  O56  1  0.15223091  0.45816509  0.46987780  1
  O  O57  1  0.64985023  0.45652579  0.47045569  1
  O  O58  1  0.08766193  0.70131938  0.47452439  1
  O  O59  1  0.58439815  0.69614042  0.47469162  1
  O  O60  1  0.06893683  0.63328970  0.35889126  1
  O  O61  1  0.56661447  0.63176896  0.35894085  1
  O  O62  1  0.25567137  0.87276104  0.36233847  1
  O  O63  1  0.74771602  0.85849968  0.35767887  1
  O  O64  1  0.18327304  0.48864833  0.36239662  1
  O  O65  1  0.68264690  0.48927448  0.36295319  1
  O  O66  1  0.06684280  0.50301976  0.85874350  1
  O  O67  1  0.56774694  0.50457908  0.85982979  1
  O  O68  1  0.18279237  0.87619127  0.86322416  1
  O  O69  1  0.68532293  0.88144591  0.86337766  1
  O  O70  1  0.24683092  0.63562892  0.85826774  1
  O  O71  1  0.75690968  0.63761483  0.86297256  1
  O  O72  1  0.01226384  0.83949149  0.40794190  1
  O  O73  1  0.51117275  0.84165682  0.40311391  1
  O  O74  1  0.39911923  0.97283328  0.40768443  1
  O  O75  1  0.90997564  0.98118718  0.40639260  1
  O  O76  1  0.08675037  0.20151592  0.40978925  1
  O  O77  1  0.58700706  0.20004773  0.40791989  1
  O  O78  1  0.01086160  0.18000829  0.90377292  1
  O  O79  1  0.51186685  0.18004505  0.90898161  1
  O  O80  1  0.08700680  0.97362296  0.90838929  1
  O  O81  1  0.58814536  0.97471802  0.91160296  1
  O  O82  1  0.40979443  0.84188718  0.90987929  1
  O  O83  1  0.90014203  0.82558846  0.90849320  1
  O  O84  1  0.48529902  0.17442279  0.59053420  1
  O  O85  1  0.98899393  0.15518903  0.59354938  1
  O  O86  1  0.09984414  0.02698079  0.59004169  1
  O  O87  1  0.60072887  0.02548221  0.58990054  1
  O  O88  1  0.42130370  0.82153665  0.59443552  1
  O  O89  1  0.91262306  0.80121200  0.59065873  1
  O  O90  1  0.48909269  0.82235003  0.09454775  1
  O  O91  1  0.98486110  0.79658653  0.09181956  1
  O  O92  1  0.41256780  0.02391663  0.09117643  1
  O  O93  1  0.92191190  0.02633069  0.09744499  1
  O  O94  1  0.09925439  0.17622457  0.09250377  1
  O  O95  1  0.60074149  0.17275273  0.09094350  1
  O  O96  1  0.34498870  0.15892800  0.74164463  1
  O  O97  1  0.84702535  0.15835876  0.74307086  1
  O  O98  1  0.23260246  0.30235188  0.74294839  1
  O  O99  1  0.74206997  0.30601220  0.73897756  1
  O  O100  1  0.41313768  0.51266287  0.74069104  1
  O  O101  1  0.91403790  0.51946873  0.74191135  1
  O  O102  1  0.34606044  0.53448814  0.24295922  1
  O  O103  1  0.84684213  0.53159703  0.24173341  1
  O  O104  1  0.41400552  0.30857967  0.24183316  1
  O  O105  1  0.92026107  0.31213645  0.24187530  1
  O  O106  1  0.24194008  0.17642011  0.23971469  1
  O  O107  1  0.73449577  0.16462877  0.24234585  1
  O  O108  1  0.31658488  0.48814401  0.92485373  1
  O  O109  1  0.82119420  0.50772875  0.92515586  1
  O  O110  1  0.42436457  0.35203372  0.92588164  1
  O  O111  1  0.92527021  0.35948283  0.92558437  1
  O  O112  1  0.24504638  0.13168063  0.92480270  1
  O  O113  1  0.74666408  0.13815934  0.92505378  1
  O  O114  1  0.32018753  0.13283628  0.42334911  1
  O  O115  1  0.81766746  0.14646273  0.42454305  1
  O  O116  1  0.24579534  0.35444898  0.42371392  1
  O  O117  1  0.74495188  0.35804478  0.42411243  1
  O  O118  1  0.42411597  0.48942515  0.42505234  1
  O  O119  1  0.92302047  0.49557158  0.42460084  1
  O  O120  1  0.17893139  0.49207426  0.07597491  1
  O  O121  1  0.68132051  0.49199541  0.07702200  1
  O  O122  1  0.06609346  0.64181039  0.07611600  1
  O  O123  1  0.57371301  0.64426079  0.07311154  1
  O  O124  1  0.25311676  0.86617375  0.07599720  1
  O  O125  1  0.74727035  0.84926819  0.07082614  1
  O  O126  1  0.18037326  0.86985615  0.57573084  1
  O  O127  1  0.68007505  0.86676583  0.57518707  1
  O  O128  1  0.24707167  0.64329611  0.56963798  1
  O  O129  1  0.75315702  0.63963696  0.57533631  1
  O  O130  1  0.07268553  0.50199166  0.57270235  1
  O  O131  1  0.56625957  0.49276912  0.57438595  1
  O  O132  1  0.15587435  0.82960378  0.26096672  1
  O  O133  1  0.65494741  0.84485172  0.25655797  1
  O  O134  1  0.26722167  0.69283341  0.25897546  1
  O  O135  1  0.76748290  0.69102187  0.25779632  1
  O  O136  1  0.07985037  0.46521715  0.25742563  1
  O  O137  1  0.58938583  0.48376364  0.26089325  1
  O  O138  1  0.15384986  0.46404278  0.75654700  1
  O  O139  1  0.65801395  0.48110155  0.76053965  1
  O  O140  1  0.08928403  0.69519096  0.76104580  1
  O  O141  1  0.58724655  0.69555437  0.75912536  1
  O  O142  1  0.26666006  0.84189357  0.75852506  1
  O  O143  1  0.76859044  0.84194957  0.75872858  1
loop_
_geom_bond_atom_site_label_1
_geom_bond_atom_site_label_2
_geom_bond_distance
_geom_bond_site_symmetry_2
Na0 O85 2.552830 1_565
Na0 O75 2.558450 1_555
Na0 O72 2.567324 1_655
Na0 O89 2.607816 1_555
Na0 O76 2.612067 1_665
Na0 O86 2.617131 1_665
Na1 O82 2.437171 1_555
Na1 O79 2.469302 1_565
Na1 O81 2.549621 1_555
Na1 O90 2.630312 1_556
Na1 O92 2.658865 1_566
Na1 O95 2.688278 1_566
Na2 O108 2.540333 1_555
Na2 O110 2.540567 1_555
Na2 O100 2.551460 1_555
Na2 O98 2.633398 1_555
Na2 O96 2.639557 1_555
Na2 O112 2.642812 1_555
Na3 O101 2.524566 1_555
Na3 O99 2.544892 1_555
Na3 O111 2.597240 1_555
Na3 O97 2.607536 1_555
Na3 O109 2.641900 1_555
Na3 O113 2.645998 1_555
Na4 O104 2.535582 1_555
Na4 O118 2.555105 1_555
Na4 O106 2.556257 1_555
Na4 O114 2.607060 1_555
Na4 O102 2.614212 1_555
Na4 O116 2.621481 1_555
Na5 O119 2.489450 1_555
Na5 O115 2.502882 1_555
Na5 O117 2.592055 1_555
Na5 O107 2.642237 1_555
Na5 O105 2.647727 1_555
Na5 O103 2.659410 1_555
O0 Si0 1.632938 1_555
O0 Ti0 1.852091 1_545
O1 S0 1.467605 1_555
O1 Ti1 2.141598 1_555
O2 S1 1.481565 1_555
O2 Ti1 2.087830 1_565
O3 S2 1.488785 1_555
O3 Ti0 2.050381 1_655
O4 Si1 1.641806 1_555
O4 Ti1 1.841477 1_555
O5 S3 1.465183 1_655
O5 Ti0 2.186564 1_645
O6 S4 1.470794 1_555
O6 Ti2 2.125449 1_445
O7 Si2 1.632681 1_555
O7 Ti3 1.854598 1_555
O8 Si4 1.611918 1_555
O8 Ti3 1.881764 1_565
O9 Si3 1.643132 1_655
O9 Ti2 1.835957 1_555
O10 S5 1.490426 1_545
O10 Ti3 2.041172 1_555
O11 S6 1.488381 1_545
O11 Ti2 2.058697 1_545
O12 S5 1.473381 1_555
O12 Ti5 2.096938 1_555
O13 S6 1.492315 1_555
O13 Ti4 2.013420 1_655
O14 S4 1.490569 1_555
O14 Ti4 2.024279 1_545
O15 Si2 1.624565 1_555
O15 Ti5 1.855100 1_545
O16 Si3 1.648802 1_555
O16 Ti4 1.811036 1_555
O17 Si4 1.623987 1_555
O17 Ti5 1.795220 1_555
O18 S1 1.488857 1_555
O18 Ti7 2.019765 1_565
O19 S2 1.481911 1_555
O19 Ti6 2.089960 1_655
O20 S3 1.467606 1_555
O20 Ti6 2.102736 1_545
O21 Si1 1.646624 1_555
O21 Ti7 1.816723 1_555
O22 Si0 1.632600 1_565
O22 Ti6 1.835982 1_555
O23 S0 1.480748 1_565
O23 Ti7 2.059413 1_565
O24 S7 1.493620 1_555
O24 Ti8 2.007778 1_555
O25 Si5 1.612061 1_555
O25 Ti9 1.860103 1_555
O26 S8 1.462215 1_555
O26 Ti8 2.140603 1_555
O27 S9 1.462974 1_555
O27 Ti9 2.161249 1_555
O28 Si6 1.661942 1_555
O28 Ti8 1.780648 1_555
O29 S10 1.475827 1_555
O29 Ti9 2.046025 1_555
O30 Si7 1.625650 1_555
O30 Ti10 1.836611 1_555
O31 S11 1.505633 1_555
O31 Ti11 1.991229 1_555
O32 S12 1.483914 1_555
O32 Ti10 2.027127 1_555
O33 Si8 1.688955 1_555
O33 Ti11 1.750528 1_555
O34 S13 1.470384 1_555
O34 Ti10 2.158802 1_555
O35 S14 1.503321 1_555
O35 Ti11 1.994616 1_555
O36 S13 1.462721 1_555
O36 Ti12 2.186173 1_554
O37 S14 1.463198 1_555
O37 Ti13 2.156517 1_554
O38 Si7 1.638084 1_555
O38 Ti12 1.800627 1_554
O39 S11 1.479035 1_555
O39 Ti13 2.066854 1_554
O40 S12 1.463122 1_555
O40 Ti12 2.188864 1_554
O41 Si8 1.654504 1_555
O41 Ti13 1.780898 1_554
O42 S8 1.481699 1_555
O42 Ti14 2.130826 1_555
O43 S9 1.480248 1_555
O43 Ti15 2.105405 1_555
O44 Si6 1.672111 1_555
O44 Ti14 1.752177 1_555
O45 S10 1.474309 1_555
O45 Ti15 2.166212 1_555
O46 S7 1.513728 1_555
O46 Ti14 1.963312 1_555
O47 Si5 1.652931 1_555
O47 Ti15 1.782920 1_555
O48 Si9 1.676920 1_555
O48 Ti16 1.767203 1_556
O49 S15 1.466364 1_555
O49 Ti17 2.187084 1_556
O50 Si10 1.641753 1_555
O50 Ti16 1.802773 1_556
O51 Si11 1.633259 1_555
O51 Ti17 1.848572 1_556
O52 S16 1.485912 1_555
O52 Ti16 2.090188 1_556
O53 S17 1.476301 1_555
O53 Ti17 2.064204 1_556
O54 S18 1.454107 1_555
O54 Ti18 2.203865 1_555
O55 Si12 1.659750 1_555
O55 Ti19 1.802355 1_555
O56 S19 1.465103 1_555
O56 Ti18 2.131455 1_555
O57 S20 1.473098 1_555
O57 Ti19 2.138558 1_555
O58 Si13 1.602031 1_555
O58 Ti18 1.898665 1_555
O59 Si14 1.639486 1_555
O59 Ti19 1.808910 1_555
O60 Si13 1.654692 1_555
O60 Ti20 1.790645 1_555
O61 Si14 1.634146 1_555
O61 Ti21 1.805254 1_555
O62 S18 1.491650 1_555
O62 Ti20 2.051009 1_555
O63 Si12 1.617684 1_555
O63 Ti21 1.880229 1_555
O64 S19 1.475905 1_555
O64 Ti20 2.187050 1_555
O65 S20 1.482208 1_555
O65 Ti21 2.065739 1_555
O66 Si10 1.624236 1_555
O66 Ti22 1.825693 1_555
O67 Si11 1.632772 1_555
O67 Ti23 1.814216 1_555
O68 S16 1.476323 1_555
O68 Ti22 2.087278 1_555
O69 S17 1.455944 1_555
O69 Ti23 2.248870 1_555
O70 Si9 1.617972 1_555
O70 Ti22 1.878624 1_555
O71 S15 1.462048 1_555
O71 Ti23 2.204135 1_555
O72 Si13 1.638592 1_555
O72 Ti0 1.821332 1_555
O73 Si14 1.617601 1_555
O73 Ti1 1.865715 1_565
O74 S18 1.496718 1_555
O74 Ti1 1.948821 1_565
O75 Si12 1.623422 1_555
O75 Ti0 1.920553 1_655
O76 S19 1.491784 1_555
O76 Ti0 2.058940 1_545
O77 S20 1.494823 1_555
O77 Ti1 1.979065 1_555
O78 Si10 1.611663 1_555
O78 Ti2 1.876072 1_445
O79 Si11 1.608978 1_555
O79 Ti3 1.940789 1_555
O80 S16 1.488638 1_555
O80 Ti2 2.012385 1_455
O81 S17 1.474964 1_555
O81 Ti3 2.122350 1_565
O82 Si9 1.601336 1_555
O82 Ti3 1.973281 1_565
O83 S15 1.505238 1_555
O83 Ti2 1.947233 1_555
O84 S7 1.450646 1_555
O84 Ti5 2.177519 1_545
O85 Si5 1.631297 1_555
O85 Ti4 1.912223 1_645
O86 S8 1.504045 1_555
O86 Ti4 2.065089 1_545
O87 S9 1.471738 1_555
O87 Ti5 2.039346 1_545
O88 Si6 1.592668 1_555
O88 Ti5 1.893854 1_555
O89 S10 1.508903 1_555
O89 Ti4 2.054484 1_655
O90 Si7 1.636157 1_555
O90 Ti7 1.894960 1_565
O91 S11 1.481445 1_555
O91 Ti6 1.993233 1_655
O92 S12 1.512373 1_555
O92 Ti7 2.022458 1_555
O93 Si8 1.609659 1_555
O93 Ti6 1.858218 1_645
O94 S13 1.500063 1_555
O94 Ti6 1.968923 1_545
O95 S14 1.490856 1_555
O95 Ti7 2.065343 1_555
O96 S5 1.495315 1_545
O96 Ti8 2.147576 1_555
O97 S6 1.484221 1_545
O97 Ti9 2.080180 1_555
O98 S4 1.491426 1_555
O98 Ti8 2.087955 1_555
O99 Si2 1.636063 1_555
O99 Ti9 1.880623 1_555
O100 Si4 1.665639 1_555
O100 Ti8 1.817446 1_555
O101 Si3 1.637747 1_655
O101 Ti9 1.835551 1_555
O102 S1 1.484664 1_555
O102 Ti10 2.090768 1_555
O103 S2 1.504450 1_555
O103 Ti11 2.153754 1_555
O104 Si1 1.642669 1_555
O104 Ti10 1.833209 1_555
O105 S3 1.520684 1_655
O105 Ti11 2.055144 1_555
O106 Si0 1.617667 1_555
O106 Ti10 1.921809 1_555
O107 S0 1.516753 1_555
O107 Ti11 2.054709 1_555
O108 Si9 1.644720 1_555
O108 Ti12 1.826841 1_555
O109 S15 1.493815 1_555
O109 Ti13 2.141863 1_555
O110 Si11 1.654799 1_555
O110 Ti12 1.826770 1_555
O111 Si10 1.660999 1_655
O111 Ti13 1.811372 1_555
O112 S16 1.473067 1_545
O112 Ti12 2.175305 1_555
O113 S17 1.519932 1_545
O113 Ti13 2.003007 1_555
O114 S18 1.480970 1_545
O114 Ti14 2.209830 1_555
O115 Si12 1.643232 1_545
O115 Ti15 1.840174 1_555
O116 S19 1.497753 1_555
O116 Ti14 2.116225 1_555
O117 S20 1.472926 1_555
O117 Ti15 2.197067 1_555
O118 Si14 1.650486 1_555
O118 Ti14 1.841559 1_555
O119 Si13 1.631013 1_655
O119 Ti15 1.875379 1_555
O120 S13 1.493709 1_555
O120 Ti16 2.019600 1_555
O121 S14 1.465994 1_555
O121 Ti17 2.064220 1_555
O122 S11 1.457993 1_455
O122 Ti16 2.199583 1_555
O123 Si7 1.624041 1_555
O123 Ti17 1.795412 1_555
O124 S12 1.470559 1_565
O124 Ti16 2.142054 1_555
O125 Si8 1.589096 1_565
O125 Ti17 1.890691 1_555
O126 S8 1.474030 1_565
O126 Ti18 1.993935 1_555
O127 S9 1.507431 1_565
O127 Ti19 1.960922 1_555
O128 Si6 1.604670 1_555
O128 Ti18 1.843326 1_555
O129 S10 1.471488 1_555
O129 Ti19 2.125756 1_555
O130 Si5 1.624662 1_455
O130 Ti18 1.783453 1_555
O131 S7 1.470107 1_555
O131 Ti19 2.135778 1_555
O132 Si0 1.658734 1_565
O132 Ti20 1.782591 1_555
O133 S0 1.468591 1_565
O133 Ti21 2.073702 1_555
O134 S1 1.467097 1_555
O134 Ti20 2.144272 1_555
O135 S2 1.460970 1_555
O135 Ti21 2.175585 1_555
O136 S3 1.480587 1_555
O136 Ti20 2.038522 1_555
O137 Si1 1.610193 1_555
O137 Ti21 1.869017 1_555
O138 S4 1.471746 1_555
O138 Ti22 2.050963 1_555
O139 Si2 1.634860 1_555
O139 Ti23 1.785681 1_555
O140 Si3 1.608015 1_555
O140 Ti22 1.867195 1_555
O141 Si4 1.613226 1_555
O141 Ti23 1.803563 1_555
O142 S5 1.467654 1_555
O142 Ti22 2.122959 1_555
O143 S6 1.454739 1_555
O143 Ti23 2.166891 1_555
