# generated using pymatgen
data_MgTi2(SiO3)4
_symmetry_space_group_name_H-M   'P 1'
_cell_length_a   6.63563542
_cell_length_b   6.63563498
_cell_length_c   5.35602160
_cell_angle_alpha   74.90893322
_cell_angle_beta   105.09106296
_cell_angle_gamma   97.10995471
_symmetry_Int_Tables_number   1
_chemical_formula_structural   MgTi2(SiO3)4
_chemical_formula_sum   'Mg1 Ti2 Si4 O12'
_cell_volume   219.45175683
_cell_formula_units_Z   1
loop_
 _symmetry_equiv_pos_site_id
 _symmetry_equiv_pos_as_xyz
  1  'x, y, z'
loop_
 _atom_site_type_symbol
 _atom_site_label
 _atom_site_symmetry_multiplicity
 _atom_site_fract_x
 _atom_site_fract_y
 _atom_site_fract_z
 _atom_site_occupancy
  Mg  Mg0  1  0.72280200  0.72280200  0.75000000  1
  Ti  Ti0  1  0.10055200  0.10055200  0.75000000  1
  Ti  Ti1  1  0.91899100  0.91899100  0.25000000  1
  Si  Si0  1  0.20593700  0.61089600  0.77786100  1
  Si  Si1  1  0.38722600  0.79163300  0.27125700  1
  Si  Si2  1  0.61089600  0.20593700  0.72213900  1
  Si  Si3  1  0.79163300  0.38722600  0.22874300  1
  O  O0  1  0.02408000  0.78582800  0.66632600  1
  O  O1  1  0.20282200  0.95799500  0.15446300  1
  O  O2  1  0.10175600  0.37918000  0.78854800  1
  O  O3  1  0.37306300  0.66590600  0.58136900  1
  O  O4  1  0.63312500  0.87021100  0.34274000  1
  O  O5  1  0.34994400  0.63805300  0.06681500  1
  O  O6  1  0.66590600  0.37306300  0.91863100  1
  O  O7  1  0.37918000  0.10175600  0.71145200  1
  O  O8  1  0.63805300  0.34994400  0.43318500  1
  O  O9  1  0.87021100  0.63312500  0.15726000  1
  O  O10  1  0.78582800  0.02408000  0.83367400  1
  O  O11  1  0.95799500  0.20282200  0.34553700  1
loop_
_geom_bond_atom_site_label_1
_geom_bond_atom_site_label_2
_geom_bond_distance
_geom_bond_site_symmetry_2
Mg0 O4 2.103836 1_555
Mg0 O9 2.103836 1_556
Mg0 O10 2.129412 1_565
Mg0 O0 2.129412 1_655
Mg0 O6 2.283276 1_555
Mg0 O3 2.283276 1_555
O0 Si0 1.664575 1_555
O0 Ti1 2.134521 1_455
O0 Ti0 2.219533 1_565
O1 Si1 1.638130 1_555
O1 Ti1 2.046511 1_455
O1 Ti0 2.091563 1_564
O2 Si0 1.599059 1_555
O2 Ti0 1.911878 1_555
O3 Si0 1.666780 1_555
O3 Si1 1.674511 1_555
O4 Si1 1.627554 1_555
O4 Ti1 2.050524 1_555
O5 Si0 1.635031 1_554
O5 Si1 1.635965 1_555
O6 Si2 1.666780 1_555
O6 Si3 1.674511 1_556
O7 Si2 1.599059 1_555
O7 Ti0 1.911878 1_555
O8 Si2 1.635031 1_555
O8 Si3 1.635965 1_555
O9 Si3 1.627554 1_555
O9 Ti1 2.050524 1_555
O10 Si2 1.664575 1_555
O10 Ti1 2.134521 1_546
O10 Ti0 2.219533 1_655
O11 Si3 1.638130 1_555
O11 Ti1 2.046511 1_545
O11 Ti0 2.091563 1_655
