# generated using pymatgen
data_Na10Hf4Sc4Si7S5O48
_symmetry_space_group_name_H-M   'P 1'
_cell_length_a   18.18128860
_cell_length_b   9.07958508
_cell_length_c   22.88288304
_cell_angle_alpha   89.96960872
_cell_angle_beta   89.94951423
_cell_angle_gamma   119.88055991
_symmetry_Int_Tables_number   1
_chemical_formula_structural   Na10Hf4Sc4Si7S5O48
_chemical_formula_sum   'Na30 Hf12 Sc12 Si21 S15 O144'
_cell_volume   3275.31471843
_cell_formula_units_Z   3
loop_
 _symmetry_equiv_pos_site_id
 _symmetry_equiv_pos_as_xyz
  1  'x, y, z'
loop_
 _atom_site_type_symbol
 _atom_site_label
 _atom_site_symmetry_multiplicity
 _atom_site_fract_x
 _atom_site_fract_y
 _atom_site_fract_z
 _atom_site_occupancy
  Na  Na0  1  0.18396192  0.37183249  0.24227887  1
  Na  Na1  1  0.68398175  0.37228938  0.24235676  1
  Na  Na2  1  0.99256595  0.62606617  0.25418573  1
  Na  Na3  1  0.49300043  0.62605451  0.25410235  1
  Na  Na4  1  0.49300706  0.35693353  0.75803274  1
  Na  Na5  1  0.18390906  0.99619761  0.74576947  1
  Na  Na6  1  0.68551422  0.99834194  0.74477715  1
  Na  Na7  1  0.65919468  0.34174525  0.57920045  1
  Na  Na8  1  0.01835213  0.70606208  0.57967202  1
  Na  Na9  1  0.82601029  0.95792509  0.59090040  1
  Na  Na10  1  0.49185086  0.67322621  0.91155959  1
  Na  Na11  1  0.99363785  0.67434041  0.91139372  1
  Na  Na12  1  0.85152139  0.03752309  0.90781111  1
  Na  Na13  1  0.15813863  0.29146146  0.92252620  1
  Na  Na14  1  0.49237687  0.31394854  0.41115659  1
  Na  Na15  1  0.99025728  0.30978104  0.41099998  1
  Na  Na16  1  0.35174493  0.66522120  0.40763422  1
  Na  Na17  1  0.85206049  0.66641661  0.41135525  1
  Na  Na18  1  0.02009646  0.00699294  0.49679303  1
  Na  Na19  1  0.51641671  0.99399599  0.49501343  1
  Na  Na20  1  0.01316797  0.01980764  0.99910623  1
  Na  Na21  1  0.51609396  0.03759061  0.99428190  1
  Na  Na22  1  0.34068084  0.32672093  0.83206196  1
  Na  Na23  1  0.84379242  0.33745535  0.82563779  1
  Na  Na24  1  0.33661242  0.33403314  0.32837076  1
  Na  Na25  1  0.83566016  0.33272090  0.32995489  1
  Na  Na26  1  0.17530201  0.65920121  0.16045003  1
  Na  Na27  1  0.67498655  0.65937079  0.16058314  1
  Na  Na28  1  0.17544166  0.68215574  0.66726172  1
  Na  Na29  1  0.67404939  0.68665589  0.66483533  1
  Hf  Hf0  1  0.99858552  0.98826914  0.64916013  1
  Hf  Hf1  1  0.49644115  0.98135647  0.64885879  1
  Hf  Hf2  1  0.99917990  0.01272953  0.14649735  1
  Hf  Hf3  1  0.49892697  0.01170527  0.14647491  1
  Hf  Hf4  1  0.32979553  0.31953137  0.98029790  1
  Hf  Hf5  1  0.82516611  0.32324836  0.98079295  1
  Hf  Hf6  1  0.32654332  0.32924017  0.48069454  1
  Hf  Hf7  1  0.82801478  0.34044314  0.48093628  1
  Hf  Hf8  1  0.16532981  0.65449193  0.31369555  1
  Hf  Hf9  1  0.66455034  0.65454160  0.31414219  1
  Hf  Hf10  1  0.16296352  0.67499651  0.81361640  1
  Hf  Hf11  1  0.66582291  0.67677585  0.81435499  1
  Sc  Sc0  1  0.00044389  0.99873630  0.35197015  1
  Sc  Sc1  1  0.50099138  0.99979723  0.35148908  1
  Sc  Sc2  1  0.99757411  0.99716066  0.84936633  1
  Sc  Sc3  1  0.49709041  0.00261492  0.85367446  1
  Sc  Sc4  1  0.33193150  0.32383903  0.68730251  1
  Sc  Sc5  1  0.83461031  0.33552657  0.68677401  1
  Sc  Sc6  1  0.33310547  0.34246959  0.18457720  1
  Sc  Sc7  1  0.83273599  0.34252831  0.18477584  1
  Sc  Sc8  1  0.16070867  0.65221657  0.01820300  1
  Sc  Sc9  1  0.65837466  0.64811777  0.01842489  1
  Sc  Sc10  1  0.16271954  0.66994854  0.51721899  1
  Sc  Sc11  1  0.66037659  0.66762801  0.51931181  1
  Si  Si0  1  0.35385245  0.71182531  0.25051597  1
  Si  Si1  1  0.85391575  0.71230493  0.25048130  1
  Si  Si2  1  0.99605850  0.28967962  0.25274501  1
  Si  Si3  1  0.49612282  0.28979725  0.25268593  1
  Si  Si4  1  0.99653738  0.69852474  0.75226720  1
  Si  Si5  1  0.49663948  0.70135330  0.75374325  1
  Si  Si6  1  0.35356117  0.99524533  0.74979622  1
  Si  Si7  1  0.85227224  0.00006661  0.75086948  1
  Si  Si8  1  0.18605545  0.03587005  0.58644395  1
  Si  Si9  1  0.68492108  0.03920248  0.58595826  1
  Si  Si10  1  0.83205748  0.62726423  0.58401226  1
  Si  Si11  1  0.18553993  0.33578029  0.08430154  1
  Si  Si12  1  0.68442238  0.33577461  0.08627469  1
  Si  Si13  1  0.01931498  0.37111030  0.91737420  1
  Si  Si14  1  0.51898920  0.36856741  0.91614702  1
  Si  Si15  1  0.16589174  0.95850832  0.91796718  1
  Si  Si16  1  0.66443803  0.95747865  0.91923289  1
  Si  Si17  1  0.16464624  0.37100090  0.41852257  1
  Si  Si18  1  0.66420370  0.36827229  0.41930970  1
  Si  Si19  1  0.01904994  0.66846633  0.41741081  1
  Si  Si20  1  0.51916254  0.66942439  0.41674287  1
  S  S0  1  0.14509862  -0.00146184  0.24902254  1
  S  S1  1  0.64531377  -0.00151835  0.24893616  1
  S  S2  1  0.14628907  0.29490908  0.75024565  1
  S  S3  1  0.64387727  0.28994263  0.74917406  1
  S  S4  1  0.47809155  0.32840519  0.58354859  1
  S  S5  1  0.97954182  0.33189606  0.58238454  1
  S  S6  1  0.33364021  0.62468910  0.58322709  1
  S  S7  1  0.47934088  0.62965920  0.08358302  1
  S  S8  1  0.97957260  0.62965408  0.08314966  1
  S  S9  1  0.33289132  0.04071404  0.08420755  1
  S  S10  1  0.83327878  0.04213732  0.08321683  1
  S  S11  1  0.31125424  0.66618925  0.91802863  1
  S  S12  1  0.81136039  0.66385335  0.91828760  1
  S  S13  1  0.31157436  0.95965469  0.41723671  1
  S  S14  1  0.81145470  0.95957632  0.41753181  1
  O  O0  1  0.10712308  0.02917781  0.30160605  1
  O  O1  1  0.60728791  0.02934644  0.30150962  1
  O  O2  1  0.41069629  0.78886277  0.30958540  1
  O  O3  1  0.91159592  0.78994654  0.30924234  1
  O  O4  1  0.48686513  0.18526974  0.31228052  1
  O  O5  1  0.98739535  0.18520893  0.31222442  1
  O  O6  1  0.10844212  0.19143380  0.80368638  1
  O  O7  1  0.60366399  0.18200441  0.80043650  1
  O  O8  1  0.48732396  0.78900319  0.81214433  1
  O  O9  1  0.99026493  0.79271942  0.81089332  1
  O  O10  1  0.41756889  0.03954080  0.80413342  1
  O  O11  1  0.90706201  0.02130805  0.80976123  1
  O  O12  1  0.40155256  0.97903826  0.69089478  1
  O  O13  1  0.90107948  0.98542055  0.69165723  1
  O  O14  1  0.09252310  0.21142931  0.69838141  1
  O  O15  1  0.59130209  0.21256353  0.69515449  1
  O  O16  1  0.01565204  0.82597141  0.69461173  1
  O  O17  1  0.51680624  0.83004737  0.69661538  1
  O  O18  1  0.40531630  0.82772431  0.19410820  1
  O  O19  1  0.90546141  0.82872631  0.19393511  1
  O  O20  1  0.01806089  0.20209839  0.19706207  1
  O  O21  1  0.51750678  0.20092696  0.19721020  1
  O  O22  1  0.09110446  0.96982308  0.19699163  1
  O  O23  1  0.59115834  0.96952339  0.19700874  1
  O  O24  1  0.43738494  0.34982440  0.63617299  1
  O  O25  1  0.93834192  0.35797937  0.63331634  1
  O  O26  1  0.24028796  0.12729495  0.64479391  1
  O  O27  1  0.74135799  0.12154753  0.64445633  1
  O  O28  1  0.32463964  0.52057518  0.63461134  1
  O  O29  1  0.81818522  0.49947122  0.63683313  1
  O  O30  1  0.43875101  0.52612022  0.13702479  1
  O  O31  1  0.93876694  0.52662781  0.13652403  1
  O  O32  1  0.32469298  0.12652945  0.13632892  1
  O  O33  1  0.82559637  0.13024948  0.13482197  1
  O  O34  1  0.23951802  0.34833343  0.14353064  1
  O  O35  1  0.73797800  0.34914010  0.14578695  1
  O  O36  1  0.23526967  0.31495020  0.02642088  1
  O  O37  1  0.73675685  0.31494343  0.03035574  1
  O  O38  1  0.42771120  0.54370715  0.03111614  1
  O  O39  1  0.92832329  0.54468517  0.03042970  1
  O  O40  1  0.34611663  0.14735276  0.03104322  1
  O  O41  1  0.84651238  0.14639674  0.02915910  1
  O  O42  1  0.23735510  0.15658045  0.52932793  1
  O  O43  1  0.73547502  0.16699322  0.52978139  1
  O  O44  1  0.34616196  0.54567788  0.52888479  1
  O  O45  1  0.85208617  0.54805886  0.52390704  1
  O  O46  1  0.42797770  0.31162687  0.53015118  1
  O  O47  1  0.92810160  0.30567729  0.52832178  1
  O  O48  1  0.27184823  0.68801309  0.97038607  1
  O  O49  1  0.77196722  0.68932935  0.96996837  1
  O  O50  1  0.08235432  0.45463991  0.97290697  1
  O  O51  1  0.57802411  0.46292699  0.97231768  1
  O  O52  1  0.15189734  0.83343362  0.97219998  1
  O  O53  1  0.65571171  0.83604471  0.97332110  1
  O  O54  1  0.27158665  0.85596656  0.46942447  1
  O  O55  1  0.77312895  0.85738506  0.47072048  1
  O  O56  1  0.15493213  0.47428438  0.47260719  1
  O  O57  1  0.65309166  0.45972576  0.47683697  1
  O  O58  1  0.07376477  0.69128471  0.47652073  1
  O  O59  1  0.57853381  0.69271111  0.47206487  1
  O  O60  1  0.06737624  0.64498847  0.35953000  1
  O  O61  1  0.56280408  0.64088146  0.35697576  1
  O  O62  1  0.25949038  0.88359855  0.36421526  1
  O  O63  1  0.75835718  0.87874722  0.36519074  1
  O  O64  1  0.18446244  0.49185220  0.35887543  1
  O  O65  1  0.68159442  0.49305084  0.36110433  1
  O  O66  1  0.06652855  0.49521060  0.86072386  1
  O  O67  1  0.56337473  0.48825273  0.85683930  1
  O  O68  1  0.18065784  0.87693802  0.85731441  1
  O  O69  1  0.68508581  0.87696582  0.85923605  1
  O  O70  1  0.25771145  0.63449059  0.86531619  1
  O  O71  1  0.75963925  0.63569602  0.86472179  1
  O  O72  1  0.00009398  0.82525021  0.41283446  1
  O  O73  1  0.49890116  0.82464737  0.41254652  1
  O  O74  1  0.39631243  0.97567010  0.41203813  1
  O  O75  1  0.89631347  0.97372879  0.41173496  1
  O  O76  1  0.07952697  0.18741625  0.41259930  1
  O  O77  1  0.57888885  0.18491141  0.41211753  1
  O  O78  1  0.00446040  0.17855348  0.91140826  1
  O  O79  1  0.50452789  0.17906083  0.91135543  1
  O  O80  1  0.08220717  0.98275619  0.91262145  1
  O  O81  1  0.57955840  0.97075020  0.91242242  1
  O  O82  1  0.39742285  0.81167107  0.91220086  1
  O  O83  1  0.89695567  0.81677260  0.91260321  1
  O  O84  1  0.48811246  0.17585169  0.58743288  1
  O  O85  1  0.98708981  0.17720636  0.58825896  1
  O  O86  1  0.09103072  0.01981279  0.58835027  1
  O  O87  1  0.59292293  0.03740105  0.58856113  1
  O  O88  1  0.41236999  0.79516464  0.58687573  1
  O  O89  1  0.91792727  0.81843137  0.58934830  1
  O  O90  1  0.48603719  0.79858310  0.08848605  1
  O  O91  1  0.98653436  0.79923317  0.08782730  1
  O  O92  1  0.41112941  0.02583605  0.08809313  1
  O  O93  1  0.91200873  0.02762399  0.08736477  1
  O  O94  1  0.09140160  0.15868366  0.08797645  1
  O  O95  1  0.59087868  0.15905043  0.08891445  1
  O  O96  1  0.33948105  0.16232217  0.74435070  1
  O  O97  1  0.83363770  0.15825832  0.74663996  1
  O  O98  1  0.23048992  0.30817575  0.74398497  1
  O  O99  1  0.72855548  0.30660664  0.74354693  1
  O  O100  1  0.41762610  0.51006584  0.74322934  1
  O  O101  1  0.91445830  0.51374864  0.74474599  1
  O  O102  1  0.33949298  0.51633077  0.24502089  1
  O  O103  1  0.84023709  0.51741537  0.24489141  1
  O  O104  1  0.41686607  0.32324892  0.24363524  1
  O  O105  1  0.91689008  0.32301181  0.24352178  1
  O  O106  1  0.23057142  0.14980740  0.24277664  1
  O  O107  1  0.73079789  0.14949059  0.24277428  1
  O  O108  1  0.31987592  0.50821040  0.92359858  1
  O  O109  1  0.82502732  0.51453870  0.92397263  1
  O  O110  1  0.42819520  0.37320928  0.92378178  1
  O  O111  1  0.92704895  0.36482322  0.92526423  1
  O  O112  1  0.24953040  0.15363788  0.92280418  1
  O  O113  1  0.75349542  0.14496916  0.92416472  1
  O  O114  1  0.32480532  0.13572452  0.42307469  1
  O  O115  1  0.82478648  0.13419043  0.42246669  1
  O  O116  1  0.25328753  0.36116343  0.42371098  1
  O  O117  1  0.75306354  0.35928585  0.42099425  1
  O  O118  1  0.42619737  0.48691637  0.42375586  1
  O  O119  1  0.92749901  0.48419352  0.42097383  1
  O  O120  1  0.17730506  0.50633655  0.08001686  1
  O  O121  1  0.67677931  0.50619313  0.08088409  1
  O  O122  1  0.06525589  0.64856556  0.07955860  1
  O  O123  1  0.56509416  0.64917472  0.08016682  1
  O  O124  1  0.25770198  0.87161573  0.07817211  1
  O  O125  1  0.75849710  0.87241986  0.07808474  1
  O  O126  1  0.17098038  0.84174228  0.58077849  1
  O  O127  1  0.67771541  0.85417235  0.57800628  1
  O  O128  1  0.25872638  0.64577127  0.57732507  1
  O  O129  1  0.74882539  0.64958160  0.57787590  1
  O  O130  1  0.06463053  0.48576971  0.57762905  1
  O  O131  1  0.56483498  0.47987025  0.58023274  1
  O  O132  1  0.15153247  0.84268806  0.25559825  1
  O  O133  1  0.65177522  0.84280894  0.25558609  1
  O  O134  1  0.25854659  0.69207559  0.25483850  1
  O  O135  1  0.75844645  0.69152161  0.25534216  1
  O  O136  1  0.08418108  0.48337573  0.25601871  1
  O  O137  1  0.58439739  0.48288692  0.25582912  1
  O  O138  1  0.15644754  0.46619647  0.75553043  1
  O  O139  1  0.65039209  0.45885885  0.75465376  1
  O  O140  1  0.08675853  0.69218640  0.75418478  1
  O  O141  1  0.58511232  0.68574796  0.75531414  1
  O  O142  1  0.25911508  0.82512352  0.75502029  1
  O  O143  1  0.75801879  0.82226643  0.75422702  1
loop_
_geom_bond_atom_site_label_1
_geom_bond_atom_site_label_2
_geom_bond_distance
_geom_bond_site_symmetry_2
Na0 O102 2.454643 1_555
Na0 O136 2.499133 1_555
Na0 O34 2.526461 1_555
Na0 O134 2.539470 1_555
Na0 O106 2.546413 1_555
Na0 O20 2.814104 1_555
Na0 O64 2.880870 1_555
Na1 O103 2.465960 1_555
Na1 O35 2.468485 1_555
Na1 O137 2.488474 1_555
Na1 O135 2.532618 1_555
Na1 O107 2.555864 1_555
Na1 O21 2.822077 1_555
Na1 O65 2.939071 1_555
Na1 O1 3.022948 1_555
Na2 O105 2.398549 1_555
Na2 O103 2.442892 1_555
Na2 O132 2.561060 1_655
Na2 O136 2.570025 1_655
Na2 O60 2.731995 1_655
Na2 O31 2.854544 1_555
Na2 O3 2.854780 1_555
Na3 O104 2.396181 1_555
Na3 O102 2.460888 1_555
Na3 O133 2.558733 1_555
Na3 O137 2.570005 1_555
Na3 O61 2.646821 1_555
Na3 O30 2.844132 1_555
Na3 O2 2.870357 1_555
Na4 O100 2.413547 1_555
Na4 O96 2.469693 1_555
Na4 O139 2.532070 1_555
Na4 O67 2.580407 1_555
Na4 O141 2.596059 1_555
Na4 O10 2.711958 1_555
Na4 O24 2.956810 1_555
Na5 O140 2.432506 1_555
Na5 O96 2.454672 1_565
Na5 O98 2.520365 1_565
Na5 O142 2.538400 1_555
Na5 O26 2.565867 1_565
Na5 O68 2.761184 1_555
Na5 O16 2.900804 1_555
Na6 O97 2.338124 1_565
Na6 O99 2.502920 1_565
Na6 O141 2.506409 1_555
Na6 O27 2.532519 1_565
Na6 O143 2.537767 1_555
Na6 O69 2.839517 1_555
Na6 O17 2.880220 1_555
Na7 O87 2.411435 1_555
Na7 O129 2.435199 1_555
Na7 O131 2.580758 1_555
Na7 O57 2.600528 1_555
Na7 O84 2.703677 1_555
Na7 O43 2.812738 1_555
Na7 O29 2.833725 1_555
Na7 O15 2.913432 1_555
Na8 O126 2.410960 1_555
Na8 O86 2.480148 1_565
Na8 O89 2.505866 1_455
Na8 O130 2.527387 1_555
Na8 O58 2.595249 1_555
Na8 O16 2.856834 1_555
Na8 O45 2.917573 1_455
Na8 O25 3.003876 1_455
Na9 O127 2.390587 1_555
Na9 O129 2.446039 1_555
Na9 O89 2.550904 1_555
Na9 O85 2.595058 1_565
Na9 O13 2.628237 1_555
Na9 O27 2.890434 1_565
Na9 O55 2.907469 1_555
Na10 O81 2.355572 1_555
Na10 O110 2.386498 1_555
Na10 O8 2.524087 1_555
Na10 O82 2.584195 1_555
Na10 O108 2.725328 1_555
Na10 O67 2.873161 1_555
Na10 O53 2.946145 1_555
Na10 O38 2.975226 1_556
Na11 O80 2.437749 1_655
Na11 O111 2.464248 1_555
Na11 O9 2.551691 1_555
Na11 O83 2.651049 1_555
Na11 O109 2.674295 1_555
Na11 O66 2.809418 1_655
Na11 O52 2.858269 1_655
Na11 O39 2.968764 1_556
Na12 O78 2.414774 1_655
Na12 O113 2.449441 1_555
Na12 O11 2.493970 1_555
Na12 O83 2.522166 1_545
Na12 O111 2.610103 1_555
Na12 O69 2.851266 1_545
Na12 O41 2.964493 1_556
Na13 O80 2.441161 1_545
Na13 O78 2.463739 1_555
Na13 O112 2.529584 1_555
Na13 O108 2.598981 1_555
Na13 O36 2.715243 1_556
Na13 O50 2.730521 1_555
Na13 O6 2.868043 1_555
Na14 O77 2.383976 1_555
Na14 O118 2.424863 1_555
Na14 O4 2.526035 1_555
Na14 O114 2.657233 1_555
Na14 O74 2.671961 1_545
Na14 O61 2.862569 1_555
Na14 O57 2.950450 1_555
Na14 O46 2.958967 1_555
Na15 O119 2.379520 1_555
Na15 O76 2.380491 1_655
Na15 O5 2.516964 1_555
Na15 O115 2.623096 1_555
Na15 O75 2.652304 1_545
Na15 O60 2.890945 1_655
Na15 O47 2.904900 1_555
Na15 O56 2.955718 1_655
Na16 O73 2.325525 1_555
Na16 O116 2.456624 1_555
Na16 O2 2.497432 1_555
Na16 O74 2.517290 1_555
Na16 O118 2.602532 1_555
Na16 O64 2.865399 1_555
Na16 O44 2.961948 1_555
Na17 O72 2.336143 1_655
Na17 O117 2.462159 1_555
Na17 O75 2.489212 1_555
Na17 O3 2.583140 1_555
Na17 O119 2.632161 1_555
Na17 O45 2.790280 1_555
Na17 O65 2.924530 1_555
Na18 O76 2.406698 1_555
Na18 O86 2.433450 1_555
Na18 O72 2.439869 1_545
Na18 O89 2.772685 1_445
Na18 O85 2.838057 1_455
Na18 O75 2.876730 1_445
Na19 O73 2.354356 1_555
Na19 O77 2.433939 1_565
Na19 O87 2.476374 1_565
Na19 O88 2.800462 1_555
Na19 O74 2.836678 1_555
Na19 O84 2.883071 1_565
Na20 O94 2.443248 1_556
Na20 O80 2.454048 1_545
Na20 O78 2.520828 1_555
Na20 O91 2.719328 1_446
Na20 O93 2.755031 1_456
Na20 O83 2.812673 1_445
Na21 O79 2.358445 1_555
Na21 O81 2.429742 1_545
Na21 O95 2.503564 1_556
Na21 O82 2.827035 1_545
Na21 O92 2.837453 1_556
Na21 O90 2.909665 1_546
Na22 O96 2.495547 1_555
Na22 O110 2.540178 1_555
Na22 O100 2.555647 1_555
Na22 O112 2.631202 1_555
Na22 O98 2.788446 1_555
Na22 O108 2.805220 1_555
Na23 O101 2.362784 1_555
Na23 O97 2.377709 1_555
Na23 O111 2.679960 1_555
Na23 O99 2.723890 1_555
Na23 O113 2.821922 1_555
Na23 O109 2.883392 1_555
Na24 O104 2.456800 1_555
Na24 O102 2.508032 1_555
Na24 O118 2.664696 1_555
Na24 O106 2.673594 1_555
Na24 O116 2.735321 1_555
Na24 O114 2.755781 1_555
Na25 O105 2.495096 1_555
Na25 O103 2.542665 1_555
Na25 O119 2.595869 1_555
Na25 O117 2.647479 1_555
Na25 O107 2.689290 1_555
Na25 O115 2.722116 1_555
Na26 O120 2.316955 1_555
Na26 O134 2.569272 1_555
Na26 O124 2.573145 1_555
Na26 O122 2.693132 1_555
Na26 O136 2.725869 1_555
Na26 O132 2.902122 1_555
Na27 O121 2.304160 1_555
Na27 O135 2.579659 1_555
Na27 O125 2.583727 1_555
Na27 O123 2.684969 1_555
Na27 O137 2.718626 1_555
Na27 O133 2.894946 1_555
Na28 O142 2.464268 1_555
Na28 O126 2.477267 1_555
Na28 O140 2.589444 1_555
Na28 O128 2.670406 1_555
Na28 O138 2.713616 1_555
Na28 O130 2.806598 1_555
Na29 O127 2.482164 1_555
Na29 O143 2.483188 1_555
Na29 O129 2.524516 1_555
Na29 O141 2.623385 1_555
Na29 O131 2.740771 1_555
Na29 O139 2.791896 1_555
Hf0 O16 1.950393 1_655
Hf0 O13 2.010064 1_555
Hf0 O89 2.038208 1_555
Hf0 O86 2.087852 1_665
Hf0 O14 2.201998 1_665
Hf0 O85 2.298665 1_565
Hf1 O17 1.929942 1_555
Hf1 O12 1.965421 1_555
Hf1 O87 2.084567 1_565
Hf1 O88 2.153533 1_555
Hf1 O15 2.214009 1_565
Hf1 O84 2.319776 1_565
Hf2 O20 1.956440 1_655
Hf2 O19 2.007795 1_545
Hf2 O94 2.034941 1_655
Hf2 O93 2.139681 1_555
Hf2 O22 2.220761 1_645
Hf2 O91 2.274233 1_545
Hf3 O21 1.959135 1_555
Hf3 O18 2.009282 1_545
Hf3 O95 2.021222 1_555
Hf3 O92 2.134698 1_555
Hf3 O23 2.222310 1_545
Hf3 O90 2.260886 1_545
Hf4 O112 1.986099 1_555
Hf4 O36 1.998694 1_556
Hf4 O110 2.058434 1_555
Hf4 O40 2.083573 1_556
Hf4 O108 2.226341 1_555
Hf4 O38 2.249480 1_556
Hf5 O37 1.936906 1_556
Hf5 O113 1.975060 1_555
Hf5 O111 2.118240 1_555
Hf5 O41 2.138632 1_556
Hf5 O109 2.170055 1_555
Hf5 O39 2.258097 1_556
Hf6 O42 1.946181 1_555
Hf6 O116 1.986334 1_555
Hf6 O118 2.106961 1_555
Hf6 O44 2.123602 1_555
Hf6 O114 2.184919 1_555
Hf6 O46 2.237140 1_555
Hf7 O45 1.972963 1_555
Hf7 O43 1.978622 1_555
Hf7 O117 2.000751 1_555
Hf7 O119 2.121154 1_555
Hf7 O47 2.272040 1_555
Hf7 O115 2.278992 1_555
Hf8 O64 1.970108 1_555
Hf8 O136 2.013499 1_555
Hf8 O60 2.030433 1_555
Hf8 O134 2.054740 1_555
Hf8 O62 2.247694 1_555
Hf8 O132 2.274950 1_555
Hf9 O65 1.962765 1_555
Hf9 O137 2.018885 1_555
Hf9 O61 2.041128 1_555
Hf9 O135 2.064427 1_555
Hf9 O63 2.228019 1_555
Hf9 O133 2.272686 1_555
Hf10 O68 1.969781 1_555
Hf10 O140 2.003011 1_555
Hf10 O66 2.010927 1_555
Hf10 O142 2.081247 1_555
Hf10 O70 2.266433 1_555
Hf10 O138 2.270249 1_555
Hf11 O69 1.962029 1_555
Hf11 O141 2.026751 1_555
Hf11 O67 2.040281 1_555
Hf11 O143 2.058061 1_555
Hf11 O71 2.239151 1_555
Hf11 O139 2.304415 1_555
O0 S0 1.480615 1_555
O0 Sc0 2.151297 1_545
O1 S1 1.481802 1_555
O1 Sc1 2.143383 1_545
O2 Si0 1.633273 1_555
O2 Sc1 2.038254 1_555
O3 Si1 1.634508 1_555
O3 Sc0 2.027973 1_655
O4 Si3 1.621043 1_555
O4 Sc1 2.033862 1_545
O5 Si2 1.620627 1_555
O5 Sc0 2.036909 1_645
O6 S2 1.484841 1_555
O6 Sc2 2.172276 1_445
O7 S3 1.467770 1_555
O7 Sc3 2.177301 1_555
O8 Si5 1.607164 1_555
O8 Sc3 2.086970 1_565
O9 Si4 1.625515 1_555
O9 Sc2 1.998626 1_555
O10 Si6 1.612081 1_545
O10 Sc3 1.993331 1_555
O11 Si7 1.629964 1_555
O11 Sc2 1.984795 1_545
O12 Si6 1.650975 1_555
O13 Si7 1.660318 1_565
O14 S2 1.484360 1_555
O15 S3 1.506378 1_555
O16 Si4 1.672511 1_455
O17 Si5 1.667140 1_555
O18 Si0 1.632273 1_555
O19 Si1 1.636852 1_555
O20 Si2 1.653195 1_455
O21 Si3 1.651224 1_555
O22 S0 1.482098 1_565
O23 S1 1.481546 1_565
O24 S4 1.475720 1_555
O24 Sc4 2.155351 1_555
O25 S5 1.466633 1_555
O25 Sc5 2.169658 1_555
O26 Si8 1.622361 1_555
O26 Sc4 1.987215 1_555
O27 Si9 1.625673 1_555
O27 Sc5 2.075977 1_555
O28 S6 1.465364 1_555
O28 Sc4 2.212717 1_555
O29 Si10 1.605382 1_555
O29 Sc5 2.013118 1_555
O30 S7 1.493252 1_555
O30 Sc6 2.111160 1_555
O31 S8 1.490930 1_555
O31 Sc7 2.124403 1_555
O32 S9 1.472487 1_555
O32 Sc6 2.188670 1_555
O33 S10 1.471754 1_555
O33 Sc7 2.188995 1_555
O34 Si11 1.644415 1_555
O34 Sc6 1.968075 1_555
O35 Si12 1.643821 1_555
O35 Sc7 1.968097 1_555
O36 Si11 1.666144 1_555
O37 Si12 1.660094 1_555
O38 S7 1.484813 1_555
O39 S8 1.485084 1_555
O40 S9 1.497184 1_555
O41 S10 1.501818 1_555
O42 Si8 1.660458 1_555
O43 Si9 1.666519 1_555
O44 S6 1.508632 1_555
O45 Si10 1.674083 1_555
O46 S4 1.486687 1_555
O47 S5 1.497439 1_555
O48 S11 1.458827 1_555
O48 Sc8 2.174236 1_556
O49 S12 1.459074 1_555
O49 Sc9 2.204616 1_556
O50 Si13 1.625149 1_555
O50 Sc8 1.944256 1_556
O51 Si14 1.620345 1_555
O51 Sc9 1.905700 1_556
O52 Si15 1.613853 1_555
O52 Sc8 2.025380 1_556
O53 Si16 1.611406 1_555
O53 Sc9 2.014838 1_556
O54 S13 1.468438 1_555
O54 Sc10 2.151696 1_555
O55 S14 1.476794 1_555
O55 Sc11 2.209519 1_555
O56 Si17 1.614981 1_555
O56 Sc10 1.992450 1_555
O57 Si18 1.622048 1_555
O57 Sc11 2.068469 1_555
O58 Si19 1.630760 1_555
O58 Sc10 1.958361 1_555
O59 Si20 1.608653 1_555
O59 Sc11 1.942973 1_555
O60 Si19 1.660288 1_555
O61 Si20 1.664495 1_555
O62 S13 1.482228 1_555
O63 S14 1.483956 1_555
O64 Si17 1.673444 1_555
O65 Si18 1.672791 1_555
O66 Si13 1.649150 1_555
O67 Si14 1.672322 1_555
O68 Si15 1.656938 1_555
O69 Si16 1.683381 1_555
O70 S11 1.486174 1_555
O71 S12 1.488252 1_555
O72 Si19 1.626326 1_555
O72 Sc0 2.099682 1_555
O73 Si20 1.627403 1_555
O73 Sc1 2.102350 1_555
O74 S13 1.478285 1_555
O74 Sc1 2.273649 1_555
O75 S14 1.488809 1_555
O75 Sc0 2.252321 1_655
O76 Si17 1.619304 1_555
O76 Sc0 2.116300 1_545
O77 Si18 1.622491 1_555
O77 Sc1 2.095151 1_545
O78 Si13 1.636490 1_555
O78 Sc2 2.130978 1_445
O79 Si14 1.609734 1_555
O79 Sc3 2.028233 1_555
O80 Si15 1.646948 1_555
O80 Sc2 2.164302 1_455
O81 Si16 1.614320 1_555
O81 Sc3 2.138785 1_565
O82 S11 1.467826 1_555
O82 Sc3 2.223949 1_565
O83 S12 1.487640 1_555
O83 Sc2 2.265059 1_555
O84 S4 1.486945 1_555
O85 S5 1.483730 1_555
O86 Si8 1.660391 1_555
O87 Si9 1.665569 1_555
O88 S6 1.498160 1_555
O89 Si10 1.662995 1_555
O90 S7 1.481208 1_555
O91 S8 1.484653 1_555
O92 S9 1.497079 1_555
O93 S10 1.504488 1_555
O94 Si11 1.667174 1_555
O95 Si12 1.658752 1_555
O96 Si6 1.664064 1_545
O96 Sc4 2.018037 1_555
O97 Si7 1.634604 1_555
O97 Sc5 2.106365 1_555
O98 S2 1.481379 1_555
O98 Sc4 2.199639 1_555
O99 S3 1.475550 1_555
O99 Sc5 2.228325 1_555
O100 Si5 1.628846 1_555
O100 Sc4 2.074898 1_555
O101 Si4 1.605433 1_555
O101 Sc5 2.037356 1_555
O102 Si0 1.665290 1_555
O102 Sc6 2.058737 1_555
O103 Si1 1.664696 1_555
O103 Sc7 2.054076 1_555
O104 Si3 1.627311 1_555
O104 Sc6 2.108108 1_555
O105 Si2 1.625569 1_555
O105 Sc7 2.110210 1_555
O106 S0 1.481385 1_555
O106 Sc6 2.247840 1_555
O107 S1 1.480370 1_555
O107 Sc7 2.241618 1_555
O108 S11 1.523858 1_555
O109 S12 1.500718 1_555
O110 Si14 1.681101 1_555
O111 Si13 1.659505 1_655
O112 Si15 1.667229 1_545
O113 Si16 1.669288 1_545
O114 S13 1.499492 1_545
O115 S14 1.484052 1_545
O116 Si17 1.662265 1_555
O117 Si18 1.658226 1_555
O118 Si20 1.684363 1_555
O119 Si19 1.673718 1_655
O120 Si11 1.631261 1_555
O120 Sc8 2.059896 1_555
O121 Si12 1.625676 1_555
O121 Sc9 2.060043 1_555
O122 S8 1.481996 1_455
O122 Sc8 2.218656 1_555
O123 S7 1.480818 1_555
O123 Sc9 2.210086 1_555
O124 S9 1.467792 1_565
O124 Sc8 2.338405 1_555
O125 S10 1.466238 1_565
O125 Sc9 2.374551 1_555
O126 Si8 1.648525 1_565
O126 Sc10 2.083339 1_555
O127 Si9 1.629028 1_565
O127 Sc11 2.059906 1_555
O128 S6 1.473118 1_555
O128 Sc10 2.317863 1_555
O129 Si10 1.629916 1_555
O129 Sc11 2.162150 1_555
O130 S5 1.484259 1_455
O130 Sc10 2.215746 1_555
O131 S4 1.490947 1_555
O131 Sc11 2.215764 1_555
O132 S0 1.484398 1_565
O133 S1 1.483250 1_565
O134 Si0 1.653650 1_555
O135 Si1 1.653512 1_555
O136 Si2 1.690669 1_455
O137 Si3 1.688608 1_555
O138 S2 1.476983 1_555
O139 S3 1.483637 1_555
O140 Si4 1.670367 1_455
O141 Si5 1.684040 1_555
O142 Si6 1.644825 1_555
O143 Si7 1.670876 1_565
