# generated using pymatgen
data_Rb2(NbCl3)3
_symmetry_space_group_name_H-M   'P 1'
_cell_length_a   9.97356042
_cell_length_b   9.97356042
_cell_length_c   9.80454078
_cell_angle_alpha   76.37089032
_cell_angle_beta   76.37089032
_cell_angle_gamma   116.11266421
_symmetry_Int_Tables_number   1
_chemical_formula_structural   Rb2(NbCl3)3
_chemical_formula_sum   'Rb4 Nb6 Cl18'
_cell_volume   784.08438542
_cell_formula_units_Z   2
loop_
 _symmetry_equiv_pos_site_id
 _symmetry_equiv_pos_as_xyz
  1  'x, y, z'
loop_
 _atom_site_type_symbol
 _atom_site_label
 _atom_site_symmetry_multiplicity
 _atom_site_fract_x
 _atom_site_fract_y
 _atom_site_fract_z
 _atom_site_occupancy
  Rb  Rb0  1  0.05246620  0.73469716  0.82066309  1
  Rb  Rb1  1  0.26530284  0.94753380  0.17933691  1
  Rb  Rb2  1  0.94753380  0.26530284  0.17933691  1
  Rb  Rb3  1  0.73469716  0.05246620  0.82066309  1
  Nb  Nb0  1  0.61060868  0.61060868  0.63126131  1
  Nb  Nb1  1  0.38939132  0.38939132  0.36873869  1
  Nb  Nb2  1  0.45255828  0.27902961  0.63980151  1
  Nb  Nb3  1  0.72097039  0.54744172  0.36019849  1
  Nb  Nb4  1  0.54744172  0.72097039  0.36019849  1
  Nb  Nb5  1  0.27902961  0.45255828  0.63980151  1
  Cl  Cl0  1  0.74914248  0.74914248  0.79192250  1
  Cl  Cl1  1  0.25085752  0.25085752  0.20807750  1
  Cl  Cl2  1  0.81980143  0.81980143  0.17090029  1
  Cl  Cl3  1  0.18019857  0.18019857  0.82909971  1
  Cl  Cl4  1  0.10785708  0.31502708  0.51012893  1
  Cl  Cl5  1  0.68497292  0.89214292  0.48987107  1
  Cl  Cl6  1  0.89214292  0.68497292  0.48987107  1
  Cl  Cl7  1  0.31502708  0.10785708  0.51012893  1
  Cl  Cl8  1  0.29445553  0.70554447  0.50000000  1
  Cl  Cl9  1  0.70554447  0.29445553  0.50000000  1
  Cl  Cl10  1  0.42567976  0.63104909  0.18206959  1
  Cl  Cl11  1  0.36895091  0.57432024  0.81793041  1
  Cl  Cl12  1  0.57432024  0.36895091  0.81793041  1
  Cl  Cl13  1  0.63104909  0.42567976  0.18206959  1
  Cl  Cl14  1  0.39173300  -0.00039896  0.81875627  1
  Cl  Cl15  1  0.00039896  0.60826700  0.18124373  1
  Cl  Cl16  1  0.60826700  0.00039896  0.18124373  1
  Cl  Cl17  1  -0.00039896  0.39173300  0.81875627  1
loop_
_geom_bond_atom_site_label_1
_geom_bond_atom_site_label_2
_geom_bond_distance
_geom_bond_site_symmetry_2
Cl0 Nb0 2.582682 1_555
Cl0 Rb3 3.165182 1_565
Cl0 Rb0 3.165182 1_655
Cl1 Nb1 2.582682 1_555
Cl1 Rb1 3.165182 1_545
Cl1 Rb2 3.165182 1_455
Cl2 Nb3 2.489976 1_555
Cl2 Nb4 2.489976 1_555
Cl3 Nb5 2.489976 1_555
Cl3 Nb2 2.489976 1_555
Cl4 Nb5 2.489142 1_555
Cl4 Nb1 2.490769 1_555
Cl4 Rb3 3.507403 1_455
Cl5 Nb4 2.489142 1_555
Cl5 Nb0 2.490769 1_555
Cl5 Rb2 3.507403 1_565
Cl6 Nb3 2.489142 1_555
Cl6 Nb0 2.490769 1_555
Cl6 Rb1 3.507403 1_655
Cl7 Nb2 2.489142 1_555
Cl7 Nb1 2.490769 1_555
Cl7 Rb0 3.507403 1_545
Cl8 Nb5 2.489553 1_555
Cl8 Nb4 2.489553 1_555
Cl8 Rb0 3.642321 1_555
Cl8 Rb1 3.642321 1_555
Cl9 Nb2 2.489553 1_555
Cl9 Nb3 2.489553 1_555
Cl9 Rb2 3.642321 1_555
Cl9 Rb3 3.642321 1_555
Cl10 Nb4 2.471478 1_555
Cl10 Nb1 2.476038 1_555
Cl11 Nb5 2.471478 1_555
Cl11 Nb0 2.476038 1_555
Cl12 Nb2 2.471478 1_555
Cl12 Nb0 2.476038 1_555
Cl13 Nb3 2.471478 1_555
Cl13 Nb1 2.476038 1_555
Cl14 Nb2 2.630406 1_555
Cl14 Rb3 3.228911 1_555
Cl14 Rb0 3.241526 1_545
Cl14 Rb1 3.288728 1_546
Cl15 Nb3 2.630406 1_455
Cl15 Rb2 3.228911 1_455
Cl15 Rb1 3.241526 1_555
Cl15 Rb0 3.288728 1_554
Cl16 Nb4 2.630406 1_545
Cl16 Rb1 3.228911 1_545
Cl16 Rb2 3.241526 1_555
Cl16 Rb3 3.288728 1_554
Cl17 Nb5 2.630406 1_555
Cl17 Rb0 3.228911 1_555
Cl17 Rb3 3.241526 1_455
Cl17 Rb2 3.288728 1_456
