# generated using pymatgen
data_MgV2In2O8
_symmetry_space_group_name_H-M   'P 1'
_cell_length_a   5.37271376
_cell_length_b   5.37271422
_cell_length_c   6.62296400
_cell_angle_alpha   90.00000000
_cell_angle_beta   90.00000000
_cell_angle_gamma   113.11241037
_symmetry_Int_Tables_number   1
_chemical_formula_structural   MgV2In2O8
_chemical_formula_sum   'Mg1 V2 In2 O8'
_cell_volume   175.83416286
_cell_formula_units_Z   1
loop_
 _symmetry_equiv_pos_site_id
 _symmetry_equiv_pos_as_xyz
  1  'x, y, z'
loop_
 _atom_site_type_symbol
 _atom_site_label
 _atom_site_symmetry_multiplicity
 _atom_site_fract_x
 _atom_site_fract_y
 _atom_site_fract_z
 _atom_site_occupancy
  Mg  Mg0  1  0.65869300  0.34130700  0.75000000  1
  V  V0  1  0.64330200  0.35669800  0.25000000  1
  V  V1  1  0.33970700  0.66029300  0.75000000  1
  In  In0  1  0.00134400  0.99865600  0.49738700  1
  In  In1  1  0.00134400  0.99865600  0.00261300  1
  O  O0  1  0.23933600  0.76066400  0.52911600  1
  O  O1  1  0.75847700  0.24152300  0.01773200  1
  O  O2  1  0.75847700  0.24152300  0.48226800  1
  O  O3  1  0.23933600  0.76066400  0.97088400  1
  O  O4  1  0.73289900  0.74500200  0.75000000  1
  O  O5  1  0.27414000  0.21455300  0.25000000  1
  O  O6  1  0.78544700  0.72586000  0.25000000  1
  O  O7  1  0.25499800  0.26710100  0.75000000  1
loop_
_geom_bond_atom_site_label_1
_geom_bond_atom_site_label_2
_geom_bond_distance
_geom_bond_site_symmetry_2
Mg0 O2 1.986111 1_555
Mg0 O1 1.986111 1_556
Mg0 O7 2.045573 1_555
Mg0 O4 2.045573 1_555
In0 O0 2.144223 1_555
In0 O2 2.179913 1_465
In0 O5 2.200775 1_565
In0 O6 2.200775 1_455
In0 O4 2.278904 1_455
In0 O7 2.278904 1_565
In1 O3 2.144223 1_554
In1 O1 2.179913 1_465
In1 O5 2.200775 1_565
In1 O6 2.200775 1_455
In1 O4 2.278904 1_454
In1 O7 2.278904 1_564
O0 V1 1.717560 1_555
O1 V0 1.852788 1_555
O2 V0 1.852788 1_555
O3 V1 1.717560 1_555
O4 V1 1.978642 1_555
O5 V0 1.824267 1_555
O6 V0 1.824268 1_555
O7 V1 1.978642 1_555
