# generated using pymatgen
data_CsAgCl3
_symmetry_space_group_name_H-M   'P 1'
_cell_length_a   7.26308157
_cell_length_b   7.26308194
_cell_length_c   7.36758341
_cell_angle_alpha   119.52393021
_cell_angle_beta   119.52393106
_cell_angle_gamma   90.01406476
_symmetry_Int_Tables_number   1
_chemical_formula_structural   CsAgCl3
_chemical_formula_sum   'Cs2 Ag2 Cl6'
_cell_volume   278.69813110
_cell_formula_units_Z   2
loop_
 _symmetry_equiv_pos_site_id
 _symmetry_equiv_pos_as_xyz
  1  'x, y, z'
loop_
 _atom_site_type_symbol
 _atom_site_label
 _atom_site_symmetry_multiplicity
 _atom_site_fract_x
 _atom_site_fract_y
 _atom_site_fract_z
 _atom_site_occupancy
  Cs  Cs0  1  0.75000000  0.25000000  0.50000000  1
  Cs  Cs1  1  0.25000000  0.75000000  0.50000000  1
  Ag  Ag0  1  0.50000000  0.50000000  -0.00000000  1
  Ag  Ag1  1  0.00000000  0.00000000  -0.00000000  1
  Cl  Cl0  1  0.76092797  0.76092797  -0.00000000  1
  Cl  Cl1  1  0.23903953  0.76096047  0.00000000  1
  Cl  Cl2  1  0.76096047  0.23903953  -0.00000000  1
  Cl  Cl3  1  0.23907203  0.23907203  0.00000000  1
  Cl  Cl4  1  0.27070535  0.27070535  0.54141070  1
  Cl  Cl5  1  0.72929465  0.72929465  0.45858930  1
loop_
_geom_bond_atom_site_label_1
_geom_bond_atom_site_label_2
_geom_bond_distance
_geom_bond_site_symmetry_2
Ag0 Cl4 2.422792 1_554
Ag0 Cl5 2.422792 1_555
Ag0 Cl0 2.679805 1_555
Ag0 Cl3 2.679805 1_555
Ag0 Cl1 2.680797 1_555
Ag0 Cl2 2.680797 1_555
Ag1 Cl0 2.455339 1_445
Ag1 Cl3 2.455339 1_555
Ag1 Cl1 2.455608 1_545
Ag1 Cl2 2.455608 1_455
Ag1 Cl4 2.860349 1_555
Ag1 Cl5 2.860349 1_444
Cl0 Cs1 3.685940 1_554
Cl0 Cs1 3.685940 1_655
Cl0 Cs0 3.685940 1_565
Cl0 Cs0 3.685940 1_554
Cl1 Cs0 3.685512 1_565
Cl1 Cs0 3.685512 1_454
Cl1 Cs1 3.685512 1_554
Cl1 Cs1 3.685512 1_555
Cl2 Cs1 3.685512 1_544
Cl2 Cs1 3.685512 1_655
Cl2 Cs0 3.685512 1_555
Cl2 Cs0 3.685512 1_554
Cl3 Cs0 3.685940 1_555
Cl3 Cs0 3.685940 1_454
Cl3 Cs1 3.685940 1_544
Cl3 Cs1 3.685940 1_555
Cl4 Cs0 3.638125 1_455
Cl4 Cs0 3.638125 1_555
Cl4 Cs1 3.638125 1_545
Cl4 Cs1 3.638125 1_555
Cl5 Cs1 3.638125 1_655
Cl5 Cs1 3.638125 1_555
Cl5 Cs0 3.638125 1_565
Cl5 Cs0 3.638125 1_555
