# generated using pymatgen
data_MgTe4Mo2WS2
_symmetry_space_group_name_H-M   'P 1'
_cell_length_a   6.81130200
_cell_length_b   6.81153300
_cell_length_c   63.35218800
_cell_angle_alpha   89.99966982
_cell_angle_beta   89.99996871
_cell_angle_gamma   120.00033005
_symmetry_Int_Tables_number   1
_chemical_formula_structural   MgTe4Mo2WS2
_chemical_formula_sum   'Mg8 Te32 Mo16 W8 S16'
_cell_volume   2545.45725002
_cell_formula_units_Z   8
loop_
 _symmetry_equiv_pos_site_id
 _symmetry_equiv_pos_as_xyz
  1  'x, y, z'
loop_
 _atom_site_type_symbol
 _atom_site_label
 _atom_site_symmetry_multiplicity
 _atom_site_fract_x
 _atom_site_fract_y
 _atom_site_fract_z
 _atom_site_occupancy
  Mg  Mg0_0  1  0.00961800  0.49037650  0.42395900  1
  Mg  Mg0_1  1  0.00961800  0.49037650  0.92395900  1
  Mg  Mg0_2  1  0.00961800  0.99037650  0.42395900  1
  Mg  Mg0_3  1  0.00961800  0.99037650  0.92395900  1
  Mg  Mg0_4  1  0.50961800  0.49037650  0.42395900  1
  Mg  Mg0_5  1  0.50961800  0.49037650  0.92395900  1
  Mg  Mg0_6  1  0.50961800  0.99037650  0.42395900  1
  Mg  Mg0_7  1  0.50961800  0.99037650  0.92395900  1
  Te  Te0_0  1  0.33332250  0.16664650  0.02832450  1
  Te  Te0_1  1  0.33332250  0.16664650  0.52832450  1
  Te  Te0_2  1  0.33332250  0.66664650  0.02832450  1
  Te  Te0_3  1  0.33332250  0.66664650  0.52832450  1
  Te  Te0_4  1  0.83332250  0.16664650  0.02832450  1
  Te  Te0_5  1  0.83332250  0.16664650  0.52832450  1
  Te  Te0_6  1  0.83332250  0.66664650  0.02832450  1
  Te  Te0_7  1  0.83332250  0.66664650  0.52832450  1
  Te  Te1_0  1  0.33332200  0.16664500  0.25964350  1
  Te  Te1_1  1  0.33332200  0.16664500  0.75964350  1
  Te  Te1_2  1  0.33332200  0.66664500  0.25964350  1
  Te  Te1_3  1  0.33332200  0.66664500  0.75964350  1
  Te  Te1_4  1  0.83332200  0.16664500  0.25964350  1
  Te  Te1_5  1  0.83332200  0.16664500  0.75964350  1
  Te  Te1_6  1  0.83332200  0.66664500  0.25964350  1
  Te  Te1_7  1  0.83332200  0.66664500  0.75964350  1
  Te  Te2_0  1  0.33331900  0.16663850  0.08734950  1
  Te  Te2_1  1  0.33331900  0.16663850  0.58734950  1
  Te  Te2_2  1  0.33331900  0.66663850  0.08734950  1
  Te  Te2_3  1  0.33331900  0.66663850  0.58734950  1
  Te  Te2_4  1  0.83331900  0.16663850  0.08734950  1
  Te  Te2_5  1  0.83331900  0.16663850  0.58734950  1
  Te  Te2_6  1  0.83331900  0.66663850  0.08734950  1
  Te  Te2_7  1  0.83331900  0.66663850  0.58734950  1
  Te  Te3_0  1  0.33332250  0.16664700  0.31864700  1
  Te  Te3_1  1  0.33332250  0.16664700  0.81864700  1
  Te  Te3_2  1  0.33332250  0.66664700  0.31864700  1
  Te  Te3_3  1  0.33332250  0.66664700  0.81864700  1
  Te  Te3_4  1  0.83332250  0.16664700  0.31864700  1
  Te  Te3_5  1  0.83332250  0.16664700  0.81864700  1
  Te  Te3_6  1  0.83332250  0.66664700  0.31864700  1
  Te  Te3_7  1  0.83332250  0.66664700  0.81864700  1
  Mo  Mo0_0  1  0.16664950  0.33330100  0.05780200  1
  Mo  Mo0_1  1  0.16664950  0.33330100  0.55780200  1
  Mo  Mo0_2  1  0.16664950  0.83330100  0.05780200  1
  Mo  Mo0_3  1  0.16664950  0.83330100  0.55780200  1
  Mo  Mo0_4  1  0.66664950  0.33330100  0.05780200  1
  Mo  Mo0_5  1  0.66664950  0.33330100  0.55780200  1
  Mo  Mo0_6  1  0.66664950  0.83330100  0.05780200  1
  Mo  Mo0_7  1  0.66664950  0.83330100  0.55780200  1
  Mo  Mo1_0  1  0.16664950  0.33330050  0.28917350  1
  Mo  Mo1_1  1  0.16664950  0.33330050  0.78917350  1
  Mo  Mo1_2  1  0.16664950  0.83330050  0.28917350  1
  Mo  Mo1_3  1  0.16664950  0.83330050  0.78917350  1
  Mo  Mo1_4  1  0.66664950  0.33330050  0.28917350  1
  Mo  Mo1_5  1  0.66664950  0.33330050  0.78917350  1
  Mo  Mo1_6  1  0.66664950  0.83330050  0.28917350  1
  Mo  Mo1_7  1  0.66664950  0.83330050  0.78917350  1
  W  W0_0  1  0.33333100  0.16665550  0.17348850  1
  W  W0_1  1  0.33333100  0.16665550  0.67348850  1
  W  W0_2  1  0.33333100  0.66665550  0.17348850  1
  W  W0_3  1  0.33333100  0.66665550  0.67348850  1
  W  W0_4  1  0.83333100  0.16665550  0.17348850  1
  W  W0_5  1  0.83333100  0.16665550  0.67348850  1
  W  W0_6  1  0.83333100  0.66665550  0.17348850  1
  W  W0_7  1  0.83333100  0.66665550  0.67348850  1
  S  S0_0  1  0.16669050  0.33338850  0.19722950  1
  S  S0_1  1  0.16669050  0.33338850  0.69722950  1
  S  S0_2  1  0.16669050  0.83338850  0.19722950  1
  S  S0_3  1  0.16669050  0.83338850  0.69722950  1
  S  S0_4  1  0.66669050  0.33338850  0.19722950  1
  S  S0_5  1  0.66669050  0.33338850  0.69722950  1
  S  S0_6  1  0.66669050  0.83338850  0.19722950  1
  S  S0_7  1  0.66669050  0.83338850  0.69722950  1
  S  S1_0  1  0.16669000  0.33338650  0.14976150  1
  S  S1_1  1  0.16669000  0.33338650  0.64976150  1
  S  S1_2  1  0.16669000  0.83338650  0.14976150  1
  S  S1_3  1  0.16669000  0.83338650  0.64976150  1
  S  S1_4  1  0.66669000  0.33338650  0.14976150  1
  S  S1_5  1  0.66669000  0.33338650  0.64976150  1
  S  S1_6  1  0.66669000  0.83338650  0.14976150  1
  S  S1_7  1  0.66669000  0.83338650  0.64976150  1
loop_
_geom_bond_atom_site_label_1
_geom_bond_atom_site_label_2
_geom_bond_distance
_geom_bond_site_symmetry_2
Mg0_0 Mg0_4 3.405651 1_555
Mg0_0 Mg0_4 3.405651 1_455
Mg0_0 Mg0_6 3.405692 1_445
Mg0_0 Mg0_6 3.405692 1_555
Mg0_0 Mg0_2 3.405767 1_555
Mg0_0 Mg0_2 3.405767 1_545
Mg0_1 Mg0_5 3.405651 1_555
Mg0_1 Mg0_5 3.405651 1_455
Mg0_1 Mg0_7 3.405692 1_445
Mg0_1 Mg0_7 3.405692 1_555
Mg0_1 Mg0_3 3.405767 1_545
Mg0_1 Mg0_3 3.405767 1_555
Mg0_2 Mg0_6 3.405651 1_555
Mg0_2 Mg0_6 3.405651 1_455
Mg0_2 Mg0_4 3.405692 1_565
Mg0_2 Mg0_4 3.405692 1_455
Mg0_3 Mg0_7 3.405651 1_555
Mg0_3 Mg0_7 3.405651 1_455
Mg0_3 Mg0_5 3.405692 1_565
Mg0_3 Mg0_5 3.405692 1_455
Mg0_4 Mg0_6 3.405767 1_555
Mg0_4 Mg0_6 3.405767 1_545
Mg0_5 Mg0_7 3.405767 1_545
Mg0_5 Mg0_7 3.405767 1_555
Mo0_0 Te0_4 2.711721 1_455
Mo0_0 Te0_0 2.711753 1_555
Mo0_0 Te0_2 2.711834 1_555
Mo0_0 Te2_4 2.714781 1_455
Mo0_0 Te2_0 2.714820 1_555
Mo0_0 Te2_2 2.714874 1_555
Mo0_1 Te0_5 2.711721 1_455
Mo0_1 Te0_1 2.711753 1_555
Mo0_1 Te0_3 2.711834 1_555
Mo0_1 Te2_5 2.714781 1_455
Mo0_1 Te2_1 2.714820 1_555
Mo0_1 Te2_3 2.714874 1_555
Mo0_2 Te0_6 2.711721 1_455
Mo0_2 Te0_2 2.711753 1_555
Mo0_2 Te0_0 2.711834 1_565
Mo0_2 Te2_6 2.714781 1_455
Mo0_2 Te2_2 2.714820 1_555
Mo0_2 Te2_0 2.714874 1_565
Mo0_3 Te0_7 2.711721 1_455
Mo0_3 Te0_3 2.711753 1_555
Mo0_3 Te0_1 2.711834 1_565
Mo0_3 Te2_7 2.714781 1_455
Mo0_3 Te2_3 2.714820 1_555
Mo0_3 Te2_1 2.714874 1_565
Mo0_4 Te0_0 2.711721 1_555
Mo0_4 Te0_4 2.711753 1_555
Mo0_4 Te0_6 2.711834 1_555
Mo0_4 Te2_0 2.714781 1_555
Mo0_4 Te2_4 2.714820 1_555
Mo0_4 Te2_6 2.714874 1_555
Mo0_5 Te0_1 2.711721 1_555
Mo0_5 Te0_5 2.711753 1_555
Mo0_5 Te0_7 2.711834 1_555
Mo0_5 Te2_1 2.714781 1_555
Mo0_5 Te2_5 2.714820 1_555
Mo0_5 Te2_7 2.714874 1_555
Mo0_6 Te0_2 2.711721 1_555
Mo0_6 Te0_6 2.711753 1_555
Mo0_6 Te0_4 2.711834 1_565
Mo0_6 Te2_2 2.714781 1_555
Mo0_6 Te2_6 2.714820 1_555
Mo0_6 Te2_4 2.714874 1_565
Mo0_7 Te0_3 2.711721 1_555
Mo0_7 Te0_7 2.711753 1_555
Mo0_7 Te0_5 2.711834 1_565
Mo0_7 Te2_3 2.714781 1_555
Mo0_7 Te2_7 2.714820 1_555
Mo0_7 Te2_5 2.714874 1_565
Mo1_0 Te3_4 2.711536 1_455
Mo1_0 Te3_0 2.711566 1_555
Mo1_0 Te3_2 2.711682 1_555
Mo1_0 Te1_4 2.714015 1_455
Mo1_0 Te1_0 2.714047 1_555
Mo1_0 Te1_2 2.714121 1_555
Mo1_1 Te3_5 2.711536 1_455
Mo1_1 Te3_1 2.711566 1_555
Mo1_1 Te3_3 2.711682 1_555
Mo1_1 Te1_5 2.714015 1_455
Mo1_1 Te1_1 2.714047 1_555
Mo1_1 Te1_3 2.714121 1_555
Mo1_2 Te3_6 2.711536 1_455
Mo1_2 Te3_2 2.711566 1_555
Mo1_2 Te3_0 2.711682 1_565
Mo1_2 Te1_6 2.714015 1_455
Mo1_2 Te1_2 2.714047 1_555
Mo1_2 Te1_0 2.714121 1_565
Mo1_3 Te3_7 2.711536 1_455
Mo1_3 Te3_3 2.711566 1_555
Mo1_3 Te3_1 2.711682 1_565
Mo1_3 Te1_7 2.714015 1_455
Mo1_3 Te1_3 2.714047 1_555
Mo1_3 Te1_1 2.714121 1_565
Mo1_4 Te3_0 2.711536 1_555
Mo1_4 Te3_4 2.711566 1_555
Mo1_4 Te3_6 2.711682 1_555
Mo1_4 Te1_0 2.714015 1_555
Mo1_4 Te1_4 2.714047 1_555
Mo1_4 Te1_6 2.714121 1_555
Mo1_5 Te3_1 2.711536 1_555
Mo1_5 Te3_5 2.711566 1_555
Mo1_5 Te3_7 2.711682 1_555
Mo1_5 Te1_1 2.714015 1_555
Mo1_5 Te1_5 2.714047 1_555
Mo1_5 Te1_7 2.714121 1_555
Mo1_6 Te3_2 2.711536 1_555
Mo1_6 Te3_6 2.711566 1_555
Mo1_6 Te3_4 2.711682 1_565
Mo1_6 Te1_2 2.714015 1_555
Mo1_6 Te1_6 2.714047 1_555
Mo1_6 Te1_4 2.714121 1_565
Mo1_7 Te3_3 2.711536 1_555
Mo1_7 Te3_7 2.711566 1_555
Mo1_7 Te3_5 2.711682 1_565
Mo1_7 Te1_3 2.714015 1_555
Mo1_7 Te1_7 2.714047 1_555
Mo1_7 Te1_5 2.714121 1_565
S0_0 W0_2 2.475269 1_555
S0_0 W0_4 2.475663 1_455
S0_0 W0_0 2.475762 1_555
S0_1 W0_3 2.475269 1_555
S0_1 W0_5 2.475663 1_455
S0_1 W0_1 2.475762 1_555
S0_2 W0_0 2.475269 1_565
S0_2 W0_6 2.475663 1_455
S0_2 W0_2 2.475762 1_555
S0_3 W0_1 2.475269 1_565
S0_3 W0_7 2.475663 1_455
S0_3 W0_3 2.475762 1_555
S0_4 W0_6 2.475269 1_555
S0_4 W0_0 2.475663 1_555
S0_4 W0_4 2.475762 1_555
S0_5 W0_7 2.475269 1_555
S0_5 W0_1 2.475663 1_555
S0_5 W0_5 2.475762 1_555
S0_6 W0_4 2.475269 1_565
S0_6 W0_2 2.475663 1_555
S0_6 W0_6 2.475762 1_555
S0_7 W0_5 2.475269 1_565
S0_7 W0_3 2.475663 1_555
S0_7 W0_7 2.475762 1_555
S1_0 W0_2 2.474757 1_555
S1_0 W0_4 2.475112 1_455
S1_0 W0_0 2.475209 1_555
S1_1 W0_3 2.474757 1_555
S1_1 W0_5 2.475112 1_455
S1_1 W0_1 2.475209 1_555
S1_2 W0_0 2.474757 1_565
S1_2 W0_6 2.475112 1_455
S1_2 W0_2 2.475209 1_555
S1_3 W0_1 2.474757 1_565
S1_3 W0_7 2.475112 1_455
S1_3 W0_3 2.475209 1_555
S1_4 W0_6 2.474757 1_555
S1_4 W0_0 2.475112 1_555
S1_4 W0_4 2.475209 1_555
S1_5 W0_7 2.474757 1_555
S1_5 W0_1 2.475112 1_555
S1_5 W0_5 2.475209 1_555
S1_6 W0_4 2.474757 1_565
S1_6 W0_2 2.475112 1_555
S1_6 W0_6 2.475209 1_555
S1_7 W0_5 2.474757 1_565
S1_7 W0_3 2.475112 1_555
S1_7 W0_7 2.475209 1_555
