# generated using pymatgen
data_Sc5(Re2Si3)4
_symmetry_space_group_name_H-M   'P 1'
_cell_length_a   10.18981833
_cell_length_b   10.18981833
_cell_length_c   14.45083108
_cell_angle_alpha   90.00005842
_cell_angle_beta   90.00005842
_cell_angle_gamma   150.23373042
_symmetry_Int_Tables_number   1
_chemical_formula_structural   Sc5(Re2Si3)4
_chemical_formula_sum   'Sc10 Re16 Si24'
_cell_volume   744.92510011
_cell_formula_units_Z   2
loop_
 _symmetry_equiv_pos_site_id
 _symmetry_equiv_pos_as_xyz
  1  'x, y, z'
loop_
 _atom_site_type_symbol
 _atom_site_label
 _atom_site_symmetry_multiplicity
 _atom_site_fract_x
 _atom_site_fract_y
 _atom_site_fract_z
 _atom_site_occupancy
  Sc  Sc0  1  0.58804718  0.85991714  0.32737478  1
  Sc  Sc1  1  0.96163385  0.96163385  0.99999340  1
  Sc  Sc2  1  0.58804191  0.85991269  0.67262276  1
  Sc  Sc3  1  0.36150483  0.09394496  0.17538201  1
  Sc  Sc4  1  0.09394013  0.36150367  0.82462050  1
  Sc  Sc5  1  0.36150367  0.09394013  0.82462050  1
  Sc  Sc6  1  0.09394496  0.36150483  0.17538201  1
  Sc  Sc7  1  0.43763007  0.43763007  0.50000060  1
  Sc  Sc8  1  0.85991714  0.58804718  0.32737478  1
  Sc  Sc9  1  0.85991269  0.58804191  0.67262276  1
  Re  Re0  1  0.87010175  0.07224754  0.50000238  1
  Re  Re1  1  0.07224754  0.87010175  0.50000238  1
  Re  Re2  1  0.43725331  0.02592484  0.37503380  1
  Re  Re3  1  0.02592589  0.43725359  0.62496653  1
  Re  Re4  1  0.38752009  0.55630802  -0.00000166  1
  Re  Re5  1  0.55630802  0.38752009  -0.00000166  1
  Re  Re6  1  0.02592484  0.43725331  0.37503380  1
  Re  Re7  1  0.52702212  0.92919299  0.10759865  1
  Re  Re8  1  0.99984087  0.99984087  0.23068888  1
  Re  Re9  1  0.99984881  0.99984881  0.76931158  1
  Re  Re10  1  0.50803915  0.50803915  0.27925639  1
  Re  Re11  1  0.50804478  0.50804478  0.72074081  1
  Re  Re12  1  0.92919094  0.52702005  0.89240262  1
  Re  Re13  1  0.52702005  0.92919094  0.89240262  1
  Re  Re14  1  0.92919299  0.52702212  0.10759865  1
  Re  Re15  1  0.43725359  0.02592589  0.62496653  1
  Si  Si0  1  0.80088071  0.64431979  0.14886243  1
  Si  Si1  1  0.64431680  0.80088413  0.85113235  1
  Si  Si2  1  0.80088413  0.64431680  0.85113235  1
  Si  Si3  1  0.64431979  0.80088071  0.14886243  1
  Si  Si4  1  0.67472122  0.11526511  0.50000126  1
  Si  Si5  1  0.86440756  0.86440756  0.60336587  1
  Si  Si6  1  0.86441188  0.86441188  0.39663856  1
  Si  Si7  1  0.35106351  0.35106351  0.87838098  1
  Si  Si8  1  0.11526511  0.67472122  0.50000126  1
  Si  Si9  1  0.11694271  0.85365893  -0.00000064  1
  Si  Si10  1  0.85365893  0.11694271  -0.00000064  1
  Si  Si11  1  0.15736342  0.57379397  0.00000019  1
  Si  Si12  1  0.22792732  0.72773255  0.24224000  1
  Si  Si13  1  0.72773066  0.22792551  0.75776006  1
  Si  Si14  1  0.22792551  0.72773066  0.75776006  1
  Si  Si15  1  0.72773255  0.22792732  0.24224000  1
  Si  Si16  1  0.32489832  0.60579226  0.50000097  1
  Si  Si17  1  0.57379397  0.15736342  0.00000019  1
  Si  Si18  1  0.60579226  0.32489832  0.50000097  1
  Si  Si19  1  0.35105961  0.35105961  0.12161613  1
  Si  Si20  1  0.13591094  0.29781755  0.35355501  1
  Si  Si21  1  0.29782333  0.13591601  0.64645043  1
  Si  Si22  1  0.13591601  0.29782333  0.64645043  1
  Si  Si23  1  0.29781755  0.13591094  0.35355501  1
loop_
_geom_bond_atom_site_label_1
_geom_bond_atom_site_label_2
_geom_bond_distance
_geom_bond_site_symmetry_2
Sc0 Si3 2.818537 1_555
Sc0 Si20 2.823495 1_665
Sc0 Si16 2.839677 1_555
Sc0 Si12 2.865728 1_555
Sc0 Si15 2.887055 1_565
Sc0 Si20 2.891746 1_555
Sc0 Si6 2.951349 1_555
Sc0 Si4 3.127863 1_565
Sc1 Si9 2.595768 1_656
Sc1 Si10 2.595768 1_566
Sc1 Si7 2.691432 1_665
Sc1 Si19 2.691503 1_666
Sc1 Si1 2.927524 1_555
Sc1 Si2 2.927524 1_555
Sc1 Si0 2.927583 1_556
Sc1 Si3 2.927583 1_556
Sc2 Si1 2.818478 1_555
Sc2 Si22 2.823532 1_665
Sc2 Si16 2.839599 1_555
Sc2 Si14 2.865734 1_555
Sc2 Si13 2.887068 1_565
Sc2 Si22 2.891679 1_555
Sc2 Si5 2.951325 1_555
Sc2 Si4 3.127815 1_565
Sc3 Si23 2.777614 1_555
Sc3 Si15 2.806848 1_555
Sc3 Si12 2.809466 1_545
Sc3 Si19 2.821927 1_555
Sc3 Si9 2.834665 1_545
Sc3 Si0 2.837607 1_555
Sc3 Si0 2.886663 1_445
Sc3 Si17 3.015515 1_555
Sc4 Si22 2.777584 1_555
Sc4 Si14 2.806837 1_555
Sc4 Si13 2.809443 1_455
Sc4 Si7 2.821946 1_555
Sc4 Si10 2.834618 1_456
Sc4 Si1 2.837594 1_555
Sc4 Si1 2.886625 1_445
Sc4 Si11 3.015471 1_556
Sc5 Si21 2.777584 1_555
Sc5 Si13 2.806837 1_555
Sc5 Si14 2.809443 1_545
Sc5 Si7 2.821946 1_555
Sc5 Si9 2.834618 1_546
Sc5 Si2 2.837594 1_555
Sc5 Si2 2.886625 1_445
Sc5 Si17 3.015471 1_556
Sc6 Si20 2.777614 1_555
Sc6 Si12 2.806848 1_555
Sc6 Si15 2.809466 1_455
Sc6 Si19 2.821927 1_555
Sc6 Si10 2.834665 1_455
Sc6 Si3 2.837607 1_555
Sc6 Si3 2.886663 1_445
Sc6 Si11 3.015515 1_555
Sc7 Si5 2.687325 1_555
Sc7 Si6 2.687328 1_555
Sc7 Si16 2.770036 1_555
Sc7 Si18 2.770036 1_555
Sc7 Si23 2.890711 1_555
Sc7 Si20 2.890711 1_555
Sc7 Si22 2.890755 1_555
Sc7 Si21 2.890755 1_555
Sc8 Si0 2.818537 1_555
Sc8 Si23 2.823495 1_665
Sc8 Si18 2.839677 1_555
Sc8 Si15 2.865728 1_555
Sc8 Si12 2.887055 1_655
Sc8 Si23 2.891746 1_555
Sc8 Si6 2.951349 1_555
Sc8 Si8 3.127863 1_655
Sc9 Si2 2.818478 1_555
Sc9 Si21 2.823532 1_665
Sc9 Si18 2.839599 1_555
Sc9 Si13 2.865734 1_555
Sc9 Si14 2.887068 1_655
Sc9 Si21 2.891679 1_555
Sc9 Si5 2.951325 1_555
Sc9 Si8 3.127815 1_655
Re0 Si4 2.381362 1_555
Re0 Si20 2.507920 1_655
Re0 Si22 2.507933 1_655
Re0 Si6 2.550766 1_545
Re0 Si5 2.550771 1_545
Re0 Si16 2.700473 1_655
Re0 Si16 2.758986 1_545
Re0 Sc2 2.892816 1_545
Re0 Sc0 2.892884 1_545
Re0 Sc7 3.150340 1_655
Re1 Si8 2.381362 1_555
Re1 Si23 2.507920 1_565
Re1 Si21 2.507933 1_565
Re1 Si6 2.550766 1_455
Re1 Si5 2.550771 1_455
Re1 Si18 2.700473 1_565
Re1 Si18 2.758986 1_455
Re1 Sc9 2.892816 1_455
Re1 Sc8 2.892884 1_455
Re1 Sc7 3.150340 1_565
Re2 Si15 2.470439 1_555
Re2 Si4 2.474019 1_555
Re2 Si23 2.477031 1_555
Re2 Si12 2.492535 1_545
Re2 Si18 2.531469 1_555
Re2 Si8 2.539355 1_545
Re2 Sc8 3.000602 1_555
Re2 Sc8 3.069273 1_445
Re2 Sc0 3.195213 1_545
Re2 Sc3 3.213873 1_555
Re3 Si14 2.470424 1_555
Re3 Si8 2.474004 1_555
Re3 Si22 2.477025 1_555
Re3 Si13 2.492550 1_455
Re3 Si16 2.531454 1_555
Re3 Si4 2.539325 1_455
Re3 Sc2 3.000556 1_555
Re3 Sc2 3.069287 1_445
Re3 Sc9 3.195204 1_455
Re3 Sc4 3.213882 1_555
Re4 Si7 2.500367 1_554
Re4 Si19 2.500380 1_555
Re4 Si11 2.501489 1_555
Re4 Si3 2.522712 1_555
Re4 Si1 2.522742 1_554
Re4 Si10 2.711835 1_455
Re4 Si10 2.843877 1_565
Re4 Sc4 3.000499 1_554
Re4 Sc6 3.000560 1_555
Re4 Sc1 3.055180 1_554
Re4 Sc1 3.146025 1_444
Re5 Si7 2.500367 1_554
Re5 Si19 2.500380 1_555
Re5 Si17 2.501489 1_555
Re5 Si0 2.522712 1_555
Re5 Si2 2.522742 1_554
Re5 Si9 2.711835 1_545
Re5 Si9 2.843877 1_655
Re5 Sc5 3.000499 1_554
Re5 Sc3 3.000560 1_555
Re5 Sc1 3.055180 1_554
Re5 Sc1 3.146025 1_444
Re6 Si12 2.470439 1_555
Re6 Si8 2.474019 1_555
Re6 Si20 2.477031 1_555
Re6 Si15 2.492535 1_455
Re6 Si16 2.531469 1_555
Re6 Si4 2.539355 1_455
Re6 Sc0 3.000602 1_555
Re6 Sc0 3.069273 1_445
Re6 Sc8 3.195213 1_455
Re6 Sc6 3.213873 1_555
Re7 Si11 2.457324 1_555
Re7 Si10 2.470006 1_565
Re7 Si17 2.475226 1_565
Re7 Si3 2.491344 1_555
Re7 Si15 2.534996 1_565
Re7 Si12 2.535046 1_555
Re7 Sc6 3.091316 1_665
Re7 Sc6 3.094713 1_555
Re8 Si19 2.421629 1_665
Re8 Si0 2.425155 1_555
Re8 Si3 2.425155 1_555
Re8 Si6 2.500697 1_555
Re8 Si23 2.642958 1_665
Re8 Si20 2.642958 1_665
Re8 Sc6 3.000747 1_665
Re8 Sc3 3.000747 1_665
Re8 Sc1 3.339734 1_554
Re8 Sc0 3.347464 1_555
Re8 Sc8 3.347464 1_555
Re9 Si7 2.421572 1_665
Re9 Si2 2.425185 1_555
Re9 Si1 2.425185 1_555
Re9 Si5 2.500655 1_555
Re9 Si22 2.642914 1_665
Re9 Si21 2.642914 1_665
Re9 Sc4 3.000762 1_665
Re9 Sc5 3.000762 1_665
Re9 Sc1 3.339541 1_555
Re9 Sc9 3.347513 1_555
Re9 Sc2 3.347513 1_555
Re10 Si19 2.421697 1_555
Re10 Si23 2.453181 1_555
Re10 Si20 2.453181 1_555
Re10 Si6 2.521332 1_555
Re10 Re8 2.668284 1_555
Re10 Si3 2.681261 1_555
Re10 Si0 2.681261 1_555
Re10 Re8 2.751176 1_445
Re10 Sc0 2.988224 1_555
Re10 Sc8 2.988224 1_555
Re10 Sc7 3.211159 1_555
Re10 Sc6 3.368823 1_555
Re10 Sc3 3.368823 1_555
Re11 Si7 2.421705 1_555
Re11 Si21 2.453129 1_555
Re11 Si22 2.453129 1_555
Re11 Si5 2.521233 1_555
Re11 Re9 2.668303 1_555
Re11 Si2 2.681255 1_555
Re11 Si1 2.681255 1_555
Re11 Re9 2.751182 1_445
Re11 Sc9 2.988212 1_555
Re11 Sc2 2.988212 1_555
Re11 Sc7 3.211102 1_555
Re11 Sc4 3.368910 1_555
Re11 Sc5 3.368910 1_555
Re12 Si17 2.457317 1_556
Re12 Si9 2.469982 1_656
Re12 Si11 2.475217 1_656
Re12 Si2 2.491305 1_555
Re12 Si14 2.535018 1_655
Re12 Si13 2.535051 1_555
Re12 Sc5 3.091298 1_665
Re12 Sc5 3.094689 1_555
Re13 Si11 2.457317 1_556
Re13 Si10 2.469982 1_566
Re13 Si17 2.475217 1_566
Re13 Si1 2.491305 1_555
Re13 Si13 2.535018 1_565
Re13 Si14 2.535051 1_555
Re13 Sc4 3.091298 1_665
Re13 Sc4 3.094689 1_555
Re14 Si17 2.457324 1_555
Re14 Si9 2.470006 1_655
Re14 Si11 2.475226 1_655
Re14 Si0 2.491344 1_555
Re14 Si12 2.534996 1_655
Re14 Si15 2.535046 1_555
Re14 Sc3 3.091316 1_665
Re14 Sc3 3.094713 1_555
Re15 Si13 2.470424 1_555
Re15 Si4 2.474004 1_555
Re15 Si21 2.477025 1_555
Re15 Si14 2.492550 1_545
Re15 Si18 2.531454 1_555
Re15 Si8 2.539325 1_545
Re15 Sc9 3.000556 1_555
Re15 Sc9 3.069287 1_445
Re15 Sc2 3.195204 1_545
Re15 Sc5 3.213882 1_555
Si0 Si19 2.512870 1_555
Si0 Si9 2.761009 1_655
Si1 Si7 2.512901 1_555
Si1 Si10 2.761020 1_566
Si2 Si7 2.512901 1_555
Si2 Si9 2.761020 1_656
Si4 Si8 2.867277 1_655
Si4 Si8 2.867277 1_545
Si10 Si11 2.497385 1_655
Si10 Si3 2.761009 1_545
Si12 Si15 2.617241 1_455
Si12 Si15 2.617241 1_565
Si13 Si14 2.617241 1_545
Si13 Si14 2.617241 1_655
Si16 Si4 2.744051 1_565
Si16 Si20 2.746520 1_555
Si16 Si22 2.746551 1_555
Si16 Si8 2.767878 1_555
Si17 Si9 2.497385 1_545
Si18 Si8 2.744051 1_655
Si18 Si23 2.746520 1_555
Si18 Si21 2.746551 1_555
Si18 Si4 2.767878 1_555
Si19 Si3 2.512870 1_555
Si20 Si6 2.516659 1_445
Si21 Si5 2.516701 1_445
Si22 Si5 2.516701 1_445
Si23 Si6 2.516659 1_445
