# generated using pymatgen
data_MgMn6(OF)6
_symmetry_space_group_name_H-M   'P 1'
_cell_length_a   5.30007255
_cell_length_b   14.52664539
_cell_length_c   3.05088156
_cell_angle_alpha   89.91006275
_cell_angle_beta   90.10924147
_cell_angle_gamma   91.13210348
_symmetry_Int_Tables_number   1
_chemical_formula_structural   MgMn6(OF)6
_chemical_formula_sum   'Mg1 Mn6 O6 F6'
_cell_volume   234.84775665
_cell_formula_units_Z   1
loop_
 _symmetry_equiv_pos_site_id
 _symmetry_equiv_pos_as_xyz
  1  'x, y, z'
loop_
 _atom_site_type_symbol
 _atom_site_label
 _atom_site_symmetry_multiplicity
 _atom_site_fract_x
 _atom_site_fract_y
 _atom_site_fract_z
 _atom_site_occupancy
  Mg  Mg0  1  0.10849547  0.15907879  0.51504244  1
  Mn  Mn0  1  0.93182454  0.97213641  0.01434949  1
  Mn  Mn1  1  0.06921419  0.35685810  0.01056708  1
  Mn  Mn2  1  0.93848461  0.66604575  0.00595046  1
  Mn  Mn3  1  0.63623619  0.18445028  0.51201383  1
  Mn  Mn4  1  0.50932695  0.51236612  0.50632144  1
  Mn  Mn5  1  0.37107888  0.81863664  0.51128878  1
  O  O0  1  0.09547560  0.91493441  0.51498545  1
  O  O1  1  0.22075471  0.75405803  0.00807839  1
  O  O2  1  0.34948725  0.44842738  0.00671052  1
  O  O3  1  0.89514482  0.22239454  0.01293307  1
  O  O4  1  0.66738994  0.57650676  0.00649438  1
  O  O5  1  0.84523408  0.05720608  0.51391282  1
  F  F0  1  0.32098449  0.27305367  0.51440611  1
  F  F1  1  0.12070259  0.60065578  0.50130789  1
  F  F2  1  0.34455384  0.12010572  0.01604568  1
  F  F3  1  0.57091406  0.88843428  0.01601588  1
  F  F4  1  0.83750853  0.40085443  0.50944178  1
  F  F5  1  0.75052223  0.73583383  0.51246751  1
loop_
_geom_bond_atom_site_label_1
_geom_bond_atom_site_label_2
_geom_bond_distance
_geom_bond_site_symmetry_2
Mg0 O5 2.013778 1_455
Mg0 O3 2.117553 1_456
Mg0 O3 2.121634 1_455
Mn0 O0 1.948111 1_655
Mn0 O0 1.949705 1_654
Mn0 O5 2.020549 1_564
Mn0 O5 2.022786 1_565
Mn1 O2 1.974362 1_555
Mn1 O3 2.143683 1_455
Mn2 O4 1.918967 1_555
Mn2 O1 1.948651 1_655
Mn3 O3 2.116771 1_555
Mn3 O3 2.118288 1_556
Mn3 O5 2.173612 1_555
Mn4 O4 1.965935 1_555
Mn4 O4 1.966544 1_556
Mn4 O2 1.967780 1_555
Mn4 O2 1.969863 1_556
Mn5 O1 1.944896 1_556
Mn5 O1 1.960127 1_555
Mn5 O0 2.042438 1_555
F0 Mg0 1.983914 1_555
F0 Mn3 2.129208 1_555
F0 Mn1 2.373128 1_556
F0 Mn1 2.382439 1_555
F1 Mn2 2.035964 1_455
F1 Mn2 2.062015 1_456
F1 Mn4 2.447836 1_555
F2 Mg0 2.059160 1_554
F2 Mg0 2.059476 1_555
F2 Mn3 2.343421 1_555
F2 Mn3 2.361294 1_554
F3 Mn5 2.095677 1_555
F3 Mn5 2.115951 1_554
F3 Mn0 2.246236 1_555
F4 Mn1 2.067438 1_655
F4 Mn1 2.067569 1_656
F4 Mn4 2.400173 1_555
F5 Mn2 2.077573 1_556
F5 Mn2 2.111617 1_555
F5 Mn5 2.363648 1_555
