# generated using pymatgen
data_MgV2(OF3)2
_symmetry_space_group_name_H-M   'P 1'
_cell_length_a   5.85566415
_cell_length_b   5.85566436
_cell_length_c   5.13273158
_cell_angle_alpha   91.36391039
_cell_angle_beta   88.63609777
_cell_angle_gamma   113.87976482
_symmetry_Int_Tables_number   1
_chemical_formula_structural   MgV2(OF3)2
_chemical_formula_sum   'Mg1 V2 O2 F6'
_cell_volume   160.86458889
_cell_formula_units_Z   1
loop_
 _symmetry_equiv_pos_site_id
 _symmetry_equiv_pos_as_xyz
  1  'x, y, z'
loop_
 _atom_site_type_symbol
 _atom_site_label
 _atom_site_symmetry_multiplicity
 _atom_site_fract_x
 _atom_site_fract_y
 _atom_site_fract_z
 _atom_site_occupancy
  Mg  Mg0  1  0.88804400  0.88804400  0.25000000  1
  V  V0  1  0.35692300  0.35692300  0.25000000  1
  V  V1  1  0.60380400  0.60380400  0.75000000  1
  O  O0  1  0.32407400  0.51137500  0.95817900  1
  O  O1  1  0.51137500  0.32407400  0.54182100  1
  F  F0  1  0.24472500  0.02351300  0.12492600  1
  F  F1  1  0.50645100  0.72830300  0.42943200  1
  F  F2  1  0.73867100  0.92846500  0.92812600  1
  F  F3  1  0.72830300  0.50645100  0.07056800  1
  F  F4  1  0.92846500  0.73867100  0.57187400  1
  F  F5  1  0.02351300  0.24472500  0.37507400  1
loop_
_geom_bond_atom_site_label_1
_geom_bond_atom_site_label_2
_geom_bond_distance
_geom_bond_site_symmetry_2
O0 V0 1.821414 1_556
O0 V1 1.828709 1_555
O1 V0 1.821414 1_555
O1 V1 1.828709 1_555
F0 V0 1.891375 1_555
F0 Mg0 2.005656 1_445
F1 V1 2.000498 1_555
F1 V0 2.178409 1_555
F1 Mg0 2.228647 1_555
F2 Mg0 1.950774 1_556
F2 V1 1.951882 1_555
F3 V1 2.000498 1_554
F3 V0 2.178409 1_555
F3 Mg0 2.228647 1_555
F4 Mg0 1.950774 1_555
F4 V1 1.951882 1_555
F5 V0 1.891375 1_555
F5 Mg0 2.005656 1_445
