# generated using pymatgen
data_MgCd2(CoO2)4
_symmetry_space_group_name_H-M   'P 1'
_cell_length_a   5.89940918
_cell_length_b   6.38149422
_cell_length_c   6.20116360
_cell_angle_alpha   60.26545564
_cell_angle_beta   91.25575661
_cell_angle_gamma   118.26757137
_symmetry_Int_Tables_number   1
_chemical_formula_structural   MgCd2(CoO2)4
_chemical_formula_sum   'Mg1 Cd2 Co4 O8'
_cell_volume   171.47928996
_cell_formula_units_Z   1
loop_
 _symmetry_equiv_pos_site_id
 _symmetry_equiv_pos_as_xyz
  1  'x, y, z'
loop_
 _atom_site_type_symbol
 _atom_site_label
 _atom_site_symmetry_multiplicity
 _atom_site_fract_x
 _atom_site_fract_y
 _atom_site_fract_z
 _atom_site_occupancy
  Mg  Mg0  1  0.76888100  0.53947100  0.23033400  1
  Cd  Cd0  1  0.06772200  0.13467800  0.93258300  1
  Cd  Cd1  1  0.71446100  0.42945000  0.78535100  1
  Co  Co0  1  0.28776800  0.14788200  0.43519800  1
  Co  Co1  1  0.86076600  0.14992500  0.41575000  1
  Co  Co2  1  0.37933400  0.75916600  0.36605100  1
  Co  Co3  1  0.38009600  0.75921700  0.87478600  1
  O  O0  1  0.18441200  0.34919000  0.12202300  1
  O  O1  1  0.59576700  0.18684300  0.20123800  1
  O  O2  1  0.61565900  0.78517600  0.11227700  1
  O  O3  1  0.16856700  0.78388300  0.10320300  1
  O  O4  1  0.59064100  0.18689100  0.61197000  1
  O  O5  1  0.16582700  0.34921800  0.52867000  1
  O  O6  1  0.15909200  0.73970400  0.62412200  1
  O  O7  1  0.58183900  0.74097200  0.63561100  1
loop_
_geom_bond_atom_site_label_1
_geom_bond_atom_site_label_2
_geom_bond_distance
_geom_bond_site_symmetry_2
Mg0 O2 1.996577 1_555
Mg0 O3 1.998073 1_655
Mg0 O4 2.086864 1_555
Mg0 O1 2.087410 1_555
Cd0 O5 2.096287 1_555
Cd0 O0 2.096428 1_556
Cd0 O2 2.315059 1_446
Cd0 O3 2.317125 1_546
Cd1 O1 2.151749 1_556
Cd1 O4 2.151976 1_555
Cd1 O6 2.243282 1_655
Cd1 O7 2.244251 1_555
Co0 O6 1.967911 1_545
Co0 O0 2.002218 1_555
Co0 O5 2.033897 1_555
Co0 O4 2.054191 1_555
Co0 O1 2.190449 1_555
Co1 O7 1.969406 1_545
Co1 O5 2.001715 1_655
Co1 O0 2.033563 1_655
Co1 O1 2.053255 1_555
Co1 O4 2.191235 1_555
Co2 O5 1.940355 1_555
Co2 O6 2.001455 1_555
Co2 O2 2.016350 1_555
Co2 O3 2.017327 1_555
Co2 O7 2.021441 1_555
Co2 O1 2.028067 1_565
Co3 O0 1.940841 1_556
Co3 O7 2.002434 1_555
Co3 O2 2.015395 1_556
Co3 O3 2.018179 1_556
Co3 O6 2.020140 1_555
Co3 O4 2.028080 1_565
