# generated using pymatgen
data_TlP5
_symmetry_space_group_name_H-M   'P 1'
_cell_length_a   6.49947006
_cell_length_b   7.12534070
_cell_length_c   12.30550187
_cell_angle_alpha   90.00000000
_cell_angle_beta   90.00000000
_cell_angle_gamma   90.00000000
_symmetry_Int_Tables_number   1
_chemical_formula_structural   TlP5
_chemical_formula_sum   'Tl4 P20'
_cell_volume   569.87934089
_cell_formula_units_Z   4
loop_
 _symmetry_equiv_pos_site_id
 _symmetry_equiv_pos_as_xyz
  1  'x, y, z'
loop_
 _atom_site_type_symbol
 _atom_site_label
 _atom_site_symmetry_multiplicity
 _atom_site_fract_x
 _atom_site_fract_y
 _atom_site_fract_z
 _atom_site_occupancy
  Tl  Tl0  1  0.50000000  0.02663801  0.34159920  1
  Tl  Tl1  1  0.50000000  0.97336199  0.84159920  1
  Tl  Tl2  1  0.00000000  0.77707763  0.50081735  1
  Tl  Tl3  1  0.00000000  0.22292237  0.00081735  1
  P  P0  1  0.50000000  0.35414530  0.04326262  1
  P  P1  1  0.50000000  0.64585470  0.54326262  1
  P  P2  1  0.50000000  0.38904789  0.21579957  1
  P  P3  1  0.50000000  0.61095211  0.71579957  1
  P  P4  1  0.25001412  0.22569294  0.60994425  1
  P  P5  1  0.74998588  0.77430706  0.10994425  1
  P  P6  1  0.74998588  0.22569294  0.60994425  1
  P  P7  1  0.25001412  0.77430706  0.10994425  1
  P  P8  1  0.25340694  0.41104272  0.75930182  1
  P  P9  1  0.74659306  0.58895728  0.25930182  1
  P  P10  1  0.74659306  0.41104272  0.75930182  1
  P  P11  1  0.25340694  0.58895728  0.25930182  1
  P  P12  1  0.00000000  0.61385212  0.73013925  1
  P  P13  1  0.00000000  0.38614788  0.23013925  1
  P  P14  1  0.00000000  0.81722275  0.86077185  1
  P  P15  1  0.00000000  0.18277725  0.36077185  1
  P  P16  1  0.00000000  0.64803319  0.00893900  1
  P  P17  1  0.00000000  0.35196681  0.50893900  1
  P  P18  1  0.50000000  0.34783099  0.51188105  1
  P  P19  1  0.50000000  0.65216901  0.01188105  1
loop_
_geom_bond_atom_site_label_1
_geom_bond_atom_site_label_2
_geom_bond_distance
_geom_bond_site_symmetry_2
P0 P2 2.137669 1_555
P0 P19 2.158347 1_555
P1 P3 2.137669 1_555
P1 P18 2.158347 1_555
P2 P9 2.210038 1_555
P2 Tl0 3.010753 1_555
P3 P8 2.210038 1_555
P3 Tl1 3.010753 1_555
P4 P8 2.263323 1_555
P5 P9 2.263323 1_555
P10 P3 2.210038 1_555
P10 P12 2.220293 1_655
P10 P6 2.263323 1_555
P11 P2 2.210038 1_555
P11 P13 2.220293 1_555
P11 P7 2.263323 1_555
P12 P14 2.164233 1_555
P12 P8 2.220293 1_555
P12 Tl2 3.052195 1_555
P13 P15 2.164233 1_555
P13 P9 2.220293 1_455
P13 Tl3 3.052195 1_555
P14 P16 2.185779 1_556
P15 P17 2.185779 1_555
P16 P7 2.234924 1_555
P16 P5 2.234924 1_455
P16 Tl3 3.030708 1_555
P17 P4 2.234924 1_555
P17 P6 2.234924 1_455
P17 Tl2 3.030708 1_555
P18 P4 2.203053 1_555
P18 P6 2.203053 1_555
P18 Tl0 3.102974 1_555
P19 P5 2.203053 1_555
P19 P7 2.203053 1_555
P19 Tl1 3.102974 1_554
