# generated using pymatgen
data_Li2VPO4F
_symmetry_space_group_name_H-M   'P 1'
_cell_length_a   7.36375175
_cell_length_b   8.00600512
_cell_length_c   7.45270047
_cell_angle_alpha   89.89029759
_cell_angle_beta   63.64217278
_cell_angle_gamma   89.88272023
_symmetry_Int_Tables_number   1
_chemical_formula_structural   Li2VPO4F
_chemical_formula_sum   'Li8 V4 P4 O16 F4'
_cell_volume   393.68992278
_cell_formula_units_Z   4
loop_
 _symmetry_equiv_pos_site_id
 _symmetry_equiv_pos_as_xyz
  1  'x, y, z'
loop_
 _atom_site_type_symbol
 _atom_site_label
 _atom_site_symmetry_multiplicity
 _atom_site_fract_x
 _atom_site_fract_y
 _atom_site_fract_z
 _atom_site_occupancy
  Li  Li0  1  0.64863700  0.80737100  0.12196200  1
  Li  Li1  1  0.14862900  0.30737500  0.12202500  1
  Li  Li2  1  0.66126300  0.17268200  0.86306300  1
  Li  Li3  1  0.16128400  0.67265700  0.86303200  1
  Li  Li4  1  0.28363900  0.76872000  0.47106900  1
  Li  Li5  1  0.78361800  0.26870800  0.47111400  1
  Li  Li6  1  0.38268200  0.16376500  0.70867800  1
  Li  Li7  1  0.88271200  0.66371500  0.70869700  1
  V  V0  1  0.99930100  0.00293300  0.01357900  1
  V  V1  1  0.50283200  0.49665700  0.50869300  1
  V  V2  1  0.49943600  0.50287900  0.01339300  1
  V  V3  1  0.00272300  0.99662600  0.50883800  1
  P  P0  1  0.48342000  0.13955300  0.26150500  1
  P  P1  1  0.98346400  0.63950600  0.26144400  1
  P  P2  1  0.51169200  0.85998100  0.76716500  1
  P  P3  1  0.01172900  0.35997300  0.76731300  1
  O  O0  1  0.45520000  0.74465600  0.63164000  1
  O  O1  1  0.95499100  0.24465400  0.63197000  1
  O  O2  1  0.52390400  0.23816100  0.41971100  1
  O  O3  1  0.02387400  0.73811000  0.41969700  1
  O  O4  1  0.67206000  0.99780300  0.65484500  1
  O  O5  1  0.17205400  0.49781100  0.65493200  1
  O  O6  1  0.59956800  0.74684900  0.88111600  1
  O  O7  1  0.09961200  0.24685500  0.88121800  1
  O  O8  1  0.40853300  0.25876400  0.14250300  1
  O  O9  1  0.90850700  0.75875200  0.14251900  1
  O  O10  1  0.68184000  0.05643000  0.10075300  1
  O  O11  1  0.18190200  0.55650500  0.10068500  1
  O  O12  1  0.32830600  0.99944500  0.36836200  1
  O  O13  1  0.82837000  0.49939000  0.36824900  1
  O  O14  1  0.31856500  0.95775700  0.90416700  1
  O  O15  1  0.81859100  0.45786000  0.90421300  1
  F  F0  1  0.52977300  0.36023000  0.74980100  1
  F  F1  1  0.02973600  0.86020100  0.74991900  1
  F  F2  1  0.47905200  0.62648700  0.27244000  1
  F  F3  1  0.97898200  0.12643400  0.27251100  1
loop_
_geom_bond_atom_site_label_1
_geom_bond_atom_site_label_2
_geom_bond_distance
_geom_bond_site_symmetry_2
Li0 O10 2.006774 1_565
Li0 O9 2.023355 1_555
Li0 O6 2.041359 1_554
Li1 O11 2.007407 1_555
Li1 O8 2.023296 1_555
Li1 O7 2.040859 1_554
Li2 O10 2.063640 1_556
Li2 O4 2.067100 1_545
Li2 O1 2.161034 1_555
Li2 O8 2.198711 1_556
Li3 O11 2.063172 1_556
Li3 O5 2.066334 1_555
Li3 O0 2.162773 1_555
Li3 O9 2.199091 1_456
Li4 O12 1.969696 1_555
Li4 O0 2.098982 1_555
Li4 O3 2.125602 1_555
Li4 O5 2.500617 1_555
Li5 O13 1.969739 1_555
Li5 O1 2.099570 1_555
Li5 O2 2.125309 1_555
Li5 O4 2.500178 1_545
Li6 O7 2.014582 1_555
Li6 O2 2.020674 1_555
Li6 O14 2.109246 1_545
Li6 O4 2.387148 1_545
Li7 O6 2.014945 1_555
Li7 O3 2.020859 1_655
Li7 O15 2.108406 1_555
Li7 O5 2.386789 1_655
O0 P2 1.556889 1_555
O0 V1 2.150228 1_555
O1 P3 1.556827 1_655
O1 V3 2.150913 1_645
O2 P0 1.555294 1_555
O2 V1 2.158550 1_555
O3 P1 1.555285 1_455
O3 V3 2.158993 1_555
O4 P2 1.561025 1_555
O4 V3 2.181802 1_655
O5 P3 1.561042 1_555
O5 V1 2.182565 1_555
O6 P2 1.562986 1_555
O6 V2 2.164183 1_556
O7 P3 1.562706 1_555
O7 V0 2.164211 1_456
O8 P0 1.558983 1_555
O8 V2 2.149371 1_555
O9 P1 1.559050 1_555
O9 V0 2.149370 1_565
O10 P0 1.567724 1_555
O10 V0 2.172271 1_555
O11 P1 1.567407 1_455
O11 V2 2.172824 1_555
O12 P0 1.546356 1_565
O12 V3 2.148485 1_555
O13 P1 1.546255 1_555
O13 V1 2.148180 1_555
O14 P2 1.544963 1_555
O14 V0 2.149011 1_466
O15 P3 1.545271 1_655
O15 V2 2.148243 1_556
F0 Li6 2.011149 1_555
F0 Li2 2.149304 1_555
F0 V1 2.183882 1_555
F0 V2 2.197999 1_556
F0 Li5 2.213064 1_555
F1 Li7 2.011271 1_455
F1 Li3 2.148892 1_555
F1 V3 2.183942 1_555
F1 V0 2.198562 1_466
F1 Li4 2.213823 1_555
F2 Li4 1.914930 1_555
F2 Li0 1.916232 1_555
F2 V1 2.115945 1_555
F2 V2 2.116236 1_555
F3 Li5 1.914893 1_555
F3 Li1 1.916774 1_655
F3 V0 2.115239 1_555
F3 V3 2.116208 1_645
