# generated using pymatgen
data_Na2Nb2Ga6Si3(S3O16)3
_symmetry_space_group_name_H-M   'P 1'
_cell_length_a   17.30716142
_cell_length_b   8.61528380
_cell_length_c   22.39226216
_cell_angle_alpha   90.08451235
_cell_angle_beta   90.19898285
_cell_angle_gamma   120.13902571
_symmetry_Int_Tables_number   1
_chemical_formula_structural   Na2Nb2Ga6Si3(S3O16)3
_chemical_formula_sum   'Na6 Nb6 Ga18 Si9 S27 O144'
_cell_volume   2887.40890043
_cell_formula_units_Z   3
loop_
 _symmetry_equiv_pos_site_id
 _symmetry_equiv_pos_as_xyz
  1  'x, y, z'
loop_
 _atom_site_type_symbol
 _atom_site_label
 _atom_site_symmetry_multiplicity
 _atom_site_fract_x
 _atom_site_fract_y
 _atom_site_fract_z
 _atom_site_occupancy
  Na  Na0  1  0.99828649  0.99289410  0.49920645  1
  Na  Na1  1  0.50019419  0.00551502  0.99751803  1
  Na  Na2  1  0.33797907  0.33665117  0.83382316  1
  Na  Na3  1  0.83403735  0.34090925  0.83122480  1
  Na  Na4  1  0.33515901  0.32864791  0.33429906  1
  Na  Na5  1  0.83676677  0.33678176  0.33755539  1
  Nb  Nb0  1  0.49485561  0.00873280  0.35728285  1
  Nb  Nb1  1  0.99355302  0.97973718  0.85431201  1
  Nb  Nb2  1  0.50404317  0.99407350  0.63789310  1
  Nb  Nb3  1  0.99797794  0.00363602  0.14195806  1
  Nb  Nb4  1  0.66978692  0.66237354  0.02051280  1
  Nb  Nb5  1  0.16877711  0.67678579  0.52228007  1
  Ga  Ga0  1  0.00093922  0.99144276  0.35597930  1
  Ga  Ga1  1  0.50195065  0.01391905  0.85176533  1
  Ga  Ga2  1  0.99739772  0.99021817  0.65043318  1
  Ga  Ga3  1  0.50042426  0.00527176  0.15262539  1
  Ga  Ga4  1  0.33315057  0.33741736  0.68386029  1
  Ga  Ga5  1  0.83343697  0.33682664  0.68436250  1
  Ga  Ga6  1  0.33809925  0.33078445  0.18784381  1
  Ga  Ga7  1  0.82979545  0.32467100  0.18440876  1
  Ga  Ga8  1  0.34040043  0.33655896  0.97967691  1
  Ga  Ga9  1  0.83342668  0.33148717  0.97974360  1
  Ga  Ga10  1  0.33513901  0.33489558  0.48126111  1
  Ga  Ga11  1  0.83590049  0.33889648  0.48289589  1
  Ga  Ga12  1  0.16868069  0.66865756  0.01847305  1
  Ga  Ga13  1  0.67076511  0.68023570  0.52420327  1
  Ga  Ga14  1  0.16286689  0.67628100  0.32027169  1
  Ga  Ga15  1  0.66199462  0.66145805  0.31243593  1
  Ga  Ga16  1  0.16392642  0.66550712  0.80838057  1
  Ga  Ga17  1  0.66296166  0.64750136  0.81674553  1
  Si  Si0  1  0.50177146  0.30114314  0.24619496  1
  Si  Si1  1  0.99895548  0.69652589  0.74428178  1
  Si  Si2  1  0.70281042  0.05495713  0.58130956  1
  Si  Si3  1  0.32918308  0.60151732  0.58248313  1
  Si  Si4  1  0.82951166  0.05726642  0.08214817  1
  Si  Si5  1  0.80822754  0.65017499  0.91526033  1
  Si  Si6  1  0.51743909  0.36944556  0.91373244  1
  Si  Si7  1  0.30694714  0.96560040  0.41622270  1
  Si  Si8  1  0.01515878  0.65878552  0.41500388  1
  S  S0  1  0.14534005  0.00036237  0.25049065  1
  S  S1  1  0.64702151  0.00129982  0.24979209  1
  S  S2  1  0.35114736  0.70589423  0.24874164  1
  S  S3  1  0.85437328  0.70598732  0.25049852  1
  S  S4  1  0.00082102  0.29311032  0.25289300  1
  S  S5  1  0.14708466  0.29162766  0.74956246  1
  S  S6  1  0.64507183  0.29145036  0.75080417  1
  S  S7  1  0.50093436  0.71014612  0.75267534  1
  S  S8  1  0.35450522  0.00230012  0.75009853  1
  S  S9  1  0.85085743  0.99599221  0.74910365  1
  S  S10  1  0.47895575  0.33991235  0.58334950  1
  S  S11  1  0.97736028  0.32481484  0.58483001  1
  S  S12  1  0.18720844  0.05037452  0.58490682  1
  S  S13  1  0.83382635  0.62768352  0.58260656  1
  S  S14  1  0.47573814  0.62707036  0.08474818  1
  S  S15  1  0.98036904  0.61746428  0.08329399  1
  S  S16  1  0.33200089  0.03936403  0.08258051  1
  S  S17  1  0.19477492  0.34167839  0.08238086  1
  S  S18  1  0.68700025  0.32485898  0.08469999  1
  S  S19  1  0.30931866  0.66503974  0.91617265  1
  S  S20  1  0.02478054  0.38396155  0.91686742  1
  S  S21  1  0.16953241  0.95608847  0.91773005  1
  S  S22  1  0.66569625  0.95619278  0.91443736  1
  S  S23  1  0.80989091  0.95229881  0.41442467  1
  S  S24  1  0.16629213  0.37575683  0.41452521  1
  S  S25  1  0.67052645  0.38855229  0.41757900  1
  S  S26  1  0.52351007  0.66402059  0.41655745  1
  O  O0  1  0.10579469  0.03606572  0.30328348  1
  O  O1  1  0.60439898  0.03078717  0.30285461  1
  O  O2  1  0.41150108  0.78801587  0.30264870  1
  O  O3  1  0.91250931  0.78669666  0.30296722  1
  O  O4  1  0.48430641  0.16518565  0.30618649  1
  O  O5  1  0.98366627  0.17318322  0.30412227  1
  O  O6  1  0.10401800  0.17823029  0.80369973  1
  O  O7  1  0.60567505  0.17721904  0.80472172  1
  O  O8  1  0.48356602  0.79326031  0.80555845  1
  O  O9  1  0.98287551  0.79860502  0.80585680  1
  O  O10  1  0.41055019  0.03811767  0.80476527  1
  O  O11  1  0.91196633  0.02953707  0.80384215  1
  O  O12  1  0.39542514  0.97384127  0.69703318  1
  O  O13  1  0.89278609  0.96885670  0.69618368  1
  O  O14  1  0.09161492  0.21616449  0.69558496  1
  O  O15  1  0.58725806  0.20421987  0.69779976  1
  O  O16  1  0.01859740  0.83485999  0.69102829  1
  O  O17  1  0.51248100  0.82076809  0.69811535  1
  O  O18  1  0.39305089  0.81626234  0.19496459  1
  O  O19  1  0.89803451  0.82010559  0.19557327  1
  O  O20  1  0.01226329  0.20189761  0.19717826  1
  O  O21  1  0.51809770  0.20505395  0.19003750  1
  O  O22  1  0.08812275  0.97385259  0.19625616  1
  O  O23  1  0.59225171  0.96636082  0.19489678  1
  O  O24  1  0.44002993  0.36847439  0.63788679  1
  O  O25  1  0.94137018  0.36417357  0.63827819  1
  O  O26  1  0.24273716  0.12214109  0.63891712  1
  O  O27  1  0.75455685  0.13929048  0.64326780  1
  O  O28  1  0.31415027  0.49620256  0.64389425  1
  O  O29  1  0.81903045  0.52135306  0.63711191  1
  O  O30  1  0.43607017  0.51353919  0.13787472  1
  O  O31  1  0.94095743  0.51429369  0.13791955  1
  O  O32  1  0.31511583  0.11806999  0.13631452  1
  O  O33  1  0.81669093  0.13310464  0.14392454  1
  O  O34  1  0.24777882  0.36917062  0.13708570  1
  O  O35  1  0.74274852  0.36415731  0.13875016  1
  O  O36  1  0.23085620  0.30166710  0.02892508  1
  O  O37  1  0.72697024  0.29950572  0.03037590  1
  O  O38  1  0.41914370  0.54975785  0.03045165  1
  O  O39  1  0.92405794  0.55025085  0.02986125  1
  O  O40  1  0.34860867  0.15348556  0.02910660  1
  O  O41  1  0.85334439  0.17673279  0.02329383  1
  O  O42  1  0.22689640  0.15392828  0.53013513  1
  O  O43  1  0.73681691  0.17714410  0.52242952  1
  O  O44  1  0.35177548  0.52925471  0.52291134  1
  O  O45  1  0.85393269  0.55442409  0.52899576  1
  O  O46  1  0.42201450  0.29606776  0.52989376  1
  O  O47  1  0.92332492  0.29068384  0.53016984  1
  O  O48  1  0.27138304  0.70036706  0.97130086  1
  O  O49  1  0.76730660  0.69665776  0.97509061  1
  O  O50  1  0.07887512  0.46134264  0.97243626  1
  O  O51  1  0.58085359  0.46690689  0.97437540  1
  O  O52  1  0.15066530  0.84412893  0.97201291  1
  O  O53  1  0.65105458  0.84655797  0.96985355  1
  O  O54  1  0.26684462  0.83667779  0.47501226  1
  O  O55  1  0.77249075  0.83980975  0.46826321  1
  O  O56  1  0.15067895  0.45424874  0.46912257  1
  O  O57  1  0.65133617  0.46239360  0.47104786  1
  O  O58  1  0.08147566  0.69359244  0.47375996  1
  O  O59  1  0.57760987  0.69440209  0.47047256  1
  O  O60  1  0.05700153  0.61870036  0.35618265  1
  O  O61  1  0.56287519  0.63459406  0.36221097  1
  O  O62  1  0.25412081  0.87863256  0.35540170  1
  O  O63  1  0.75416361  0.86877848  0.35988364  1
  O  O64  1  0.18276055  0.48585684  0.36017699  1
  O  O65  1  0.68352553  0.49436286  0.36291567  1
  O  O66  1  0.06598753  0.49651784  0.86393372  1
  O  O67  1  0.55963831  0.49780497  0.85679568  1
  O  O68  1  0.18573286  0.87755314  0.86449026  1
  O  O69  1  0.68257985  0.87880470  0.86089731  1
  O  O70  1  0.25334642  0.63508728  0.86262893  1
  O  O71  1  0.75274322  0.63074359  0.85634803  1
  O  O72  1  0.01111571  0.84436980  0.41092551  1
  O  O73  1  0.51584106  0.82765993  0.40747913  1
  O  O74  1  0.40520837  0.97335529  0.40921995  1
  O  O75  1  0.90073085  0.97424899  0.40766512  1
  O  O76  1  0.08320248  0.19780253  0.40885171  1
  O  O77  1  0.58870168  0.20344602  0.40939409  1
  O  O78  1  0.01689066  0.20571834  0.90941543  1
  O  O79  1  0.51059996  0.17340614  0.91084554  1
  O  O80  1  0.08922954  0.97628749  0.90989215  1
  O  O81  1  0.58363888  0.96880485  0.90964221  1
  O  O82  1  0.39970122  0.82316024  0.90993541  1
  O  O83  1  0.90655909  0.83894413  0.90960820  1
  O  O84  1  0.48681101  0.17533807  0.59272011  1
  O  O85  1  0.98810289  0.16385691  0.59218685  1
  O  O86  1  0.09770523  0.03151810  0.58950187  1
  O  O87  1  0.59965324  0.03030103  0.59390112  1
  O  O88  1  0.41564213  0.80825899  0.59365816  1
  O  O89  1  0.91409103  0.81244052  0.58873456  1
  O  O90  1  0.48608352  0.80908388  0.09195147  1
  O  O91  1  0.99117404  0.80301158  0.09317795  1
  O  O92  1  0.41185841  0.01864135  0.08876942  1
  O  O93  1  0.91785201  0.02567999  0.09392966  1
  O  O94  1  0.10293195  0.17734245  0.09172881  1
  O  O95  1  0.59718961  0.16263958  0.08958792  1
  O  O96  1  0.34456913  0.16500539  0.74284549  1
  O  O97  1  0.84659475  0.16127090  0.74646851  1
  O  O98  1  0.23549395  0.30238203  0.74553520  1
  O  O99  1  0.73340946  0.30790721  0.74517092  1
  O  O100  1  0.42039550  0.52901641  0.74589611  1
  O  O101  1  0.90725933  0.50427612  0.74112301  1
  O  O102  1  0.34355263  0.52693178  0.24258434  1
  O  O103  1  0.84634398  0.52686434  0.24109508  1
  O  O104  1  0.40949086  0.30851730  0.24397826  1
  O  O105  1  0.92087865  0.31136214  0.24478423  1
  O  O106  1  0.23340190  0.16480300  0.24190140  1
  O  O107  1  0.73586988  0.17010226  0.24503049  1
  O  O108  1  0.31499947  0.49959069  0.92411484  1
  O  O109  1  0.82389121  0.48421165  0.92642154  1
  O  O110  1  0.42020215  0.35359179  0.92347662  1
  O  O111  1  0.93531902  0.36383705  0.92206593  1
  O  O112  1  0.24732587  0.13766040  0.92564321  1
  O  O113  1  0.74556294  0.13576608  0.92220019  1
  O  O114  1  0.32366054  0.16428508  0.42610300  1
  O  O115  1  0.81805046  0.12978983  0.42011652  1
  O  O116  1  0.24508558  0.35455501  0.42139562  1
  O  O117  1  0.74755597  0.36307409  0.42188185  1
  O  O118  1  0.43314381  0.50626841  0.42071308  1
  O  O119  1  0.91771649  0.48184611  0.42583349  1
  O  O120  1  0.18009031  0.49481041  0.07460054  1
  O  O121  1  0.67759933  0.48771062  0.07879524  1
  O  O122  1  0.07026655  0.64202678  0.07517067  1
  O  O123  1  0.56399074  0.64465759  0.07662423  1
  O  O124  1  0.25057227  0.85975004  0.07418344  1
  O  O125  1  0.74569981  0.85430919  0.07433854  1
  O  O126  1  0.17755671  0.86770134  0.57906706  1
  O  O127  1  0.67790918  0.85012598  0.57407921  1
  O  O128  1  0.24448913  0.63344023  0.57340344  1
  O  O129  1  0.75227334  0.63910415  0.57411451  1
  O  O130  1  0.06711212  0.48469744  0.57603207  1
  O  O131  1  0.56842508  0.49331415  0.57495286  1
  O  O132  1  0.15261179  0.83811973  0.25473285  1
  O  O133  1  0.65848565  0.84542517  0.25823128  1
  O  O134  1  0.26386925  0.68967163  0.25766885  1
  O  O135  1  0.76788308  0.69377304  0.25685369  1
  O  O136  1  0.08359706  0.46678354  0.25649334  1
  O  O137  1  0.58929215  0.48811855  0.26048584  1
  O  O138  1  0.15827111  0.47091970  0.75886125  1
  O  O139  1  0.65138239  0.46809551  0.75541259  1
  O  O140  1  0.08691848  0.69000410  0.76085345  1
  O  O141  1  0.58296468  0.70031177  0.75788522  1
  O  O142  1  0.26656644  0.84061591  0.75896805  1
  O  O143  1  0.76376218  0.83558411  0.75865625  1
loop_
_geom_bond_atom_site_label_1
_geom_bond_atom_site_label_2
_geom_bond_distance
_geom_bond_site_symmetry_2
Na0 O72 2.423901 1_655
Na0 O89 2.512741 1_555
Na0 O86 2.560942 1_665
Na0 O75 2.604021 1_555
Na0 O85 2.605679 1_565
Na0 O76 2.606857 1_665
Na1 O79 2.374951 1_555
Na1 O81 2.556224 1_545
Na1 O82 2.561769 1_545
Na1 O95 2.566453 1_556
Na1 O92 2.592288 1_556
Na1 O90 2.644639 1_546
Na2 O110 2.418125 1_555
Na2 O100 2.512560 1_555
Na2 O96 2.551873 1_555
Na2 O98 2.567045 1_555
Na2 O108 2.602771 1_555
Na2 O112 2.638139 1_555
Na3 O101 2.427458 1_555
Na3 O99 2.510951 1_555
Na3 O109 2.512292 1_555
Na3 O97 2.525142 1_555
Na3 O111 2.622162 1_555
Na3 O113 2.633040 1_555
Na4 O114 2.449304 1_555
Na4 O104 2.452883 1_555
Na4 O118 2.514816 1_555
Na4 O116 2.579322 1_555
Na4 O106 2.616201 1_555
Na4 O102 2.630627 1_555
Na5 O119 2.376439 1_555
Na5 O115 2.477231 1_555
Na5 O117 2.524069 1_555
Na5 O105 2.611962 1_555
Na5 O107 2.617619 1_555
Na5 O103 2.667404 1_555
Nb0 O74 1.841580 1_545
Nb0 O4 1.846473 1_555
Nb0 O77 2.014625 1_555
Nb0 O73 2.097664 1_545
Nb0 O2 2.102341 1_545
Nb0 O1 2.184234 1_555
Nb1 O9 1.830470 1_555
Nb1 O83 1.858704 1_555
Nb1 O11 2.013412 1_565
Nb1 O80 2.080146 1_655
Nb1 O6 2.145122 1_665
Nb1 O78 2.162359 1_665
Nb2 O87 1.816468 1_565
Nb2 O88 1.846594 1_555
Nb2 O84 2.005276 1_565
Nb2 O17 2.071863 1_555
Nb2 O15 2.124264 1_565
Nb2 O12 2.237618 1_555
Nb3 O93 1.835889 1_555
Nb3 O91 1.995901 1_545
Nb3 O20 2.018707 1_655
Nb3 O94 2.023247 1_655
Nb3 O19 2.051090 1_545
Nb3 O22 2.089969 1_645
Nb4 O49 1.866166 1_554
Nb4 O51 1.911343 1_554
Nb4 O125 1.927345 1_555
Nb4 O121 2.048102 1_555
Nb4 O53 2.104570 1_554
Nb4 O123 2.165773 1_555
Nb5 O54 1.888782 1_555
Nb5 O128 1.910293 1_555
Nb5 O58 1.921741 1_555
Nb5 O126 2.021603 1_555
Nb5 O130 2.092814 1_555
Nb5 O56 2.139703 1_555
Ga0 O72 1.837799 1_555
Ga0 O76 2.007421 1_565
Ga0 O75 2.031199 1_455
Ga0 O3 2.033017 1_455
Ga0 O0 2.036930 1_565
Ga0 O5 2.088611 1_465
Ga1 O79 1.856674 1_555
Ga1 O7 1.947548 1_555
Ga1 O10 1.993413 1_555
Ga1 O8 2.042114 1_545
Ga1 O81 2.090464 1_545
Ga1 O82 2.151979 1_545
Ga2 O16 1.801892 1_655
Ga2 O13 2.010035 1_555
Ga2 O89 2.023790 1_555
Ga2 O85 2.052025 1_565
Ga2 O14 2.065343 1_665
Ga2 O86 2.097517 1_665
Ga3 O21 1.795305 1_555
Ga3 O18 1.995457 1_545
Ga3 O23 2.014850 1_545
Ga3 O90 2.081804 1_545
Ga3 O95 2.092199 1_555
Ga3 O92 2.137739 1_555
Ga4 O28 1.798252 1_555
Ga4 O26 1.992579 1_555
Ga4 O24 2.017440 1_555
Ga4 O96 2.070918 1_555
Ga4 O98 2.088100 1_555
Ga4 O100 2.100030 1_555
Ga5 O27 1.805636 1_555
Ga5 O101 1.860482 1_555
Ga5 O29 2.027340 1_555
Ga5 O25 2.045002 1_555
Ga5 O99 2.120707 1_555
Ga5 O97 2.150188 1_555
Ga6 O104 1.836142 1_555
Ga6 O30 1.985827 1_555
Ga6 O32 2.026467 1_555
Ga6 O102 2.049383 1_555
Ga6 O106 2.052265 1_555
Ga6 O34 2.086304 1_555
Ga7 O33 1.793134 1_555
Ga7 O35 1.983849 1_555
Ga7 O107 2.026172 1_555
Ga7 O103 2.053677 1_555
Ga7 O31 2.077650 1_555
Ga7 O105 2.119686 1_555
Ga8 O110 1.822602 1_555
Ga8 O40 1.990476 1_556
Ga8 O38 1.998264 1_556
Ga8 O112 2.050259 1_555
Ga8 O108 2.082168 1_555
Ga8 O36 2.084253 1_556
Ga9 O41 1.819455 1_556
Ga9 O109 1.845382 1_555
Ga9 O113 2.054521 1_555
Ga9 O37 2.064378 1_556
Ga9 O39 2.069977 1_556
Ga9 O111 2.092578 1_555
Ga10 O44 1.807184 1_555
Ga10 O114 1.850721 1_555
Ga10 O46 2.013282 1_555
Ga10 O42 2.055296 1_555
Ga10 O118 2.098132 1_555
Ga10 O116 2.122751 1_555
Ga11 O43 1.811291 1_555
Ga11 O119 1.849446 1_555
Ga11 O45 2.005245 1_555
Ga11 O47 2.050309 1_555
Ga11 O117 2.134005 1_555
Ga11 O115 2.178925 1_555
Ga12 O50 1.965773 1_554
Ga12 O48 1.968784 1_554
Ga12 O124 1.978347 1_555
Ga12 O52 1.985095 1_554
Ga12 O120 2.040258 1_555
Ga12 O122 2.046723 1_555
Ga13 O127 1.793704 1_555
Ga13 O129 1.963891 1_555
Ga13 O55 2.036800 1_555
Ga13 O131 2.043771 1_555
Ga13 O59 2.060676 1_555
Ga13 O57 2.099757 1_555
Ga14 O60 1.829876 1_555
Ga14 O62 1.837050 1_555
Ga14 O64 2.043979 1_555
Ga14 O132 2.093325 1_555
Ga14 O136 2.161388 1_555
Ga14 O134 2.202072 1_555
Ga15 O137 1.806758 1_555
Ga15 O61 1.963172 1_555
Ga15 O63 1.996282 1_555
Ga15 O65 2.007362 1_555
Ga15 O133 2.022556 1_555
Ga15 O135 2.118870 1_555
Ga16 O140 1.796315 1_555
Ga16 O138 1.969396 1_555
Ga16 O142 1.995794 1_555
Ga16 O66 2.020410 1_555
Ga16 O70 2.081957 1_555
Ga16 O68 2.087090 1_555
Ga17 O67 1.834105 1_555
Ga17 O71 1.854135 1_555
Ga17 O139 1.999024 1_555
Ga17 O69 2.091929 1_555
Ga17 O141 2.117246 1_555
Ga17 O143 2.131750 1_555
O0 S0 1.475289 1_555
O1 S1 1.487912 1_555
O2 S2 1.515037 1_555
O3 S3 1.470733 1_555
O4 Si0 1.708754 1_555
O5 S4 1.472891 1_655
O6 S5 1.502695 1_555
O7 S6 1.492137 1_555
O8 S7 1.490460 1_555
O9 Si1 1.731135 1_555
O10 S8 1.491508 1_555
O11 S9 1.545149 1_545
O12 S8 1.467301 1_565
O13 S9 1.470027 1_555
O14 S5 1.472440 1_555
O15 S6 1.486158 1_555
O16 Si1 1.599393 1_455
O17 S7 1.501566 1_555
O18 S2 1.482266 1_555
O19 S3 1.521265 1_555
O20 S4 1.538924 1_555
O21 Si0 1.606466 1_555
O22 S0 1.507101 1_565
O23 S1 1.484733 1_565
O24 S10 1.475493 1_555
O25 S11 1.466779 1_555
O26 S12 1.470234 1_555
O27 Si2 1.609274 1_555
O28 Si3 1.597192 1_555
O29 S13 1.471146 1_555
O30 S14 1.475807 1_555
O31 S15 1.466859 1_555
O32 S16 1.480527 1_555
O33 Si4 1.592083 1_555
O34 S17 1.473538 1_555
O35 S18 1.474122 1_555
O36 S17 1.470278 1_555
O37 S18 1.470636 1_555
O38 S14 1.488443 1_555
O39 S15 1.462817 1_555
O40 S16 1.484967 1_555
O41 Si4 1.596163 1_555
O42 S12 1.471614 1_555
O43 Si2 1.606293 1_555
O44 Si3 1.601722 1_555
O45 S13 1.477086 1_555
O46 S10 1.470826 1_555
O47 S11 1.474446 1_555
O48 S19 1.500914 1_555
O49 Si5 1.657305 1_555
O50 S20 1.493975 1_555
O51 Si6 1.677628 1_555
O52 S21 1.484727 1_555
O53 S22 1.503817 1_555
O54 Si7 1.638567 1_555
O55 S23 1.480036 1_555
O56 S24 1.486038 1_555
O57 S25 1.470104 1_555
O58 Si8 1.667636 1_555
O59 S26 1.465549 1_555
O60 Si8 1.623263 1_555
O61 S26 1.479080 1_555
O62 Si7 1.597668 1_555
O63 S23 1.493942 1_555
O64 S24 1.482003 1_555
O65 S25 1.476187 1_555
O66 S20 1.472645 1_555
O67 Si6 1.606666 1_555
O68 S21 1.465640 1_555
O69 S22 1.470692 1_555
O70 S19 1.477335 1_555
O71 Si5 1.587296 1_555
O72 Si8 1.637782 1_555
O73 S26 1.495005 1_555
O74 Si7 1.675994 1_555
O75 S23 1.494525 1_555
O76 S24 1.489558 1_555
O77 S25 1.520440 1_555
O78 S20 1.480919 1_555
O79 Si6 1.633880 1_555
O80 S21 1.494637 1_555
O81 S22 1.481277 1_555
O82 S19 1.477962 1_555
O83 Si5 1.667305 1_555
O84 S10 1.505680 1_555
O85 S11 1.497999 1_555
O86 S12 1.478166 1_555
O87 Si2 1.713172 1_555
O88 Si3 1.671476 1_555
O89 S13 1.503255 1_555
O90 S14 1.494696 1_555
O91 S15 1.528978 1_555
O92 S16 1.485876 1_555
O93 Si4 1.701901 1_555
O94 S17 1.522566 1_555
O95 S18 1.483714 1_555
O96 S8 1.504461 1_555
O97 S9 1.463622 1_545
O98 S5 1.488820 1_555
O99 S6 1.468736 1_555
O100 S7 1.488169 1_555
O101 Si1 1.620545 1_555
O102 S2 1.486340 1_555
O103 S3 1.492846 1_555
O104 Si0 1.630530 1_555
O105 S4 1.479456 1_655
O106 S0 1.483744 1_555
O107 S1 1.498933 1_555
O108 S19 1.488083 1_555
O109 Si5 1.603175 1_555
O110 Si6 1.634080 1_555
O111 S20 1.473994 1_655
O112 S21 1.474348 1_545
O113 S22 1.477973 1_545
O114 Si7 1.601201 1_545
O115 S23 1.468636 1_545
O116 S24 1.471546 1_555
O117 S25 1.458704 1_555
O118 S26 1.472644 1_555
O119 Si8 1.627575 1_655
O120 S17 1.473942 1_555
O121 S18 1.497342 1_555
O122 S15 1.473111 1_455
O123 S14 1.469223 1_555
O124 S16 1.491094 1_565
O125 Si4 1.625543 1_565
O126 S12 1.502344 1_565
O127 Si2 1.600310 1_565
O128 Si3 1.633555 1_555
O129 S13 1.475020 1_555
O130 S11 1.484363 1_455
O131 S10 1.458569 1_555
O132 S0 1.468187 1_565
O133 S1 1.465102 1_565
O134 S2 1.459928 1_555
O135 S3 1.454434 1_555
O136 S4 1.464218 1_555
O137 Si0 1.592643 1_555
O138 S5 1.471479 1_555
O139 S6 1.473481 1_555
O140 Si1 1.593914 1_455
O141 S7 1.468346 1_555
O142 S8 1.473139 1_565
O143 S9 1.462523 1_555
