# generated using pymatgen
data_Ba2ReNiO6
_symmetry_space_group_name_H-M   'P 1'
_cell_length_a   5.76705114
_cell_length_b   5.76708048
_cell_length_c   5.76712600
_cell_angle_alpha   59.99932697
_cell_angle_beta   59.99996434
_cell_angle_gamma   60.00058181
_symmetry_Int_Tables_number   1
_chemical_formula_structural   Ba2ReNiO6
_chemical_formula_sum   'Ba2 Re1 Ni1 O6'
_cell_volume   135.62939988
_cell_formula_units_Z   1
loop_
 _symmetry_equiv_pos_site_id
 _symmetry_equiv_pos_as_xyz
  1  'x, y, z'
loop_
 _atom_site_type_symbol
 _atom_site_label
 _atom_site_symmetry_multiplicity
 _atom_site_fract_x
 _atom_site_fract_y
 _atom_site_fract_z
 _atom_site_occupancy
  Ba  Ba0  1  0.24999900  0.25000100  0.25000000  1
  Ba  Ba1  1  0.75000000  0.75000100  0.74999900  1
  Re  Re0  1  0.50000100  0.50000000  0.50000000  1
  Ni  Ni0  1  0.00000000  0.00000000  0.00000000  1
  O  O0  1  0.26076400  0.73923500  0.73923600  1
  O  O1  1  0.26076400  0.73923600  0.26076300  1
  O  O2  1  0.73923800  0.26076300  0.73923600  1
  O  O3  1  0.26076300  0.26076200  0.73923700  1
  O  O4  1  0.73923800  0.26076300  0.26076300  1
  O  O5  1  0.73923900  0.73923700  0.26076200  1
loop_
_geom_bond_atom_site_label_1
_geom_bond_atom_site_label_2
_geom_bond_distance
_geom_bond_site_symmetry_2
Ba0 O4 2.884853 1_455
Ba0 O0 2.884853 1_554
Ba0 O0 2.884864 1_545
Ba0 O2 2.884870 1_455
Ba0 O4 2.884870 1_555
Ba0 O1 2.884871 1_555
Ba0 O1 2.884882 1_545
Ba0 O5 2.884882 1_455
Ba0 O2 2.884887 1_554
Ba0 O3 2.884896 1_555
Ba0 O3 2.884902 1_554
Ba0 O5 2.884905 1_545
Ba1 O4 2.884852 1_565
Ba1 O0 2.884859 1_655
Ba1 O4 2.884864 1_556
Ba1 O0 2.884865 1_555
Ba1 O2 2.884873 1_565
Ba1 O1 2.884879 1_655
Ba1 O1 2.884879 1_556
Ba1 O2 2.884879 1_555
Ba1 O3 2.884888 1_565
Ba1 O5 2.884896 1_555
Ba1 O3 2.884900 1_655
Ba1 O5 2.884902 1_556
Ni0 O5 2.126718 1_445
Ni0 O3 2.126722 1_554
Ni0 O2 2.126755 1_454
Ni0 O1 2.126759 1_545
Ni0 O4 2.126781 1_455
Ni0 O0 2.126793 1_544
O0 Re0 1.951203 1_555
O1 Re0 1.951191 1_555
O2 Re0 1.951187 1_555
O3 Re0 1.951173 1_555
O4 Re0 1.951215 1_555
O5 Re0 1.951169 1_555
