# generated using pymatgen
data_Na18Ca4Nb8Si15(SO24)3
_symmetry_space_group_name_H-M   'P 1'
_cell_length_a   9.19375887
_cell_length_b   9.22629122
_cell_length_c   22.75198712
_cell_angle_alpha   89.92340253
_cell_angle_beta   90.13894204
_cell_angle_gamma   119.92174703
_symmetry_Int_Tables_number   1
_chemical_formula_structural   Na18Ca4Nb8Si15(SO24)3
_chemical_formula_sum   'Na18 Ca4 Nb8 Si15 S3 O72'
_cell_volume   1672.67229883
_cell_formula_units_Z   1
loop_
 _symmetry_equiv_pos_site_id
 _symmetry_equiv_pos_as_xyz
  1  'x, y, z'
loop_
 _atom_site_type_symbol
 _atom_site_label
 _atom_site_symmetry_multiplicity
 _atom_site_fract_x
 _atom_site_fract_y
 _atom_site_fract_z
 _atom_site_occupancy
  Na  Na0  1  0.65479858  0.63402510  0.74462951  1
  Na  Na1  1  0.97490091  0.35871677  0.74405607  1
  Na  Na2  1  0.02258636  0.67797672  0.58712478  1
  Na  Na3  1  0.65496317  0.98120213  0.58755297  1
  Na  Na4  1  0.33163060  0.98014679  0.08801403  1
  Na  Na5  1  0.65976670  0.68148287  0.09029576  1
  Na  Na6  1  0.96235815  0.68189734  0.90877688  1
  Na  Na7  1  0.72069359  0.03756362  0.90918191  1
  Na  Na8  1  0.32272412  0.28897016  0.91587144  1
  Na  Na9  1  0.96362990  0.28505398  0.41385841  1
  Na  Na10  1  0.31755119  0.03647745  0.40863921  1
  Na  Na11  1  0.71293317  0.68063464  0.41399448  1
  Na  Na12  1  0.01320324  0.01388591  0.49592673  1
  Na  Na13  1  0.99622576  0.00887570  0.99417368  1
  Na  Na14  1  0.66947949  0.31992727  0.82324641  1
  Na  Na15  1  0.64707307  0.31775412  0.32214490  1
  Na  Na16  1  0.31620537  0.65101408  0.16914185  1
  Na  Na17  1  0.33555442  0.67019455  0.66752761  1
  Ca  Ca0  1  0.00202366  0.00024928  0.35156905  1
  Ca  Ca1  1  0.00079965  0.99941254  0.85347627  1
  Ca  Ca2  1  0.66072940  0.32622552  0.67891498  1
  Ca  Ca3  1  0.66313819  0.32675966  0.18224915  1
  Nb  Nb0  1  0.98870070  0.98261475  0.64585341  1
  Nb  Nb1  1  0.01458449  0.00218959  0.14492364  1
  Nb  Nb2  1  0.67267383  0.33451264  0.98154942  1
  Nb  Nb3  1  0.66098145  0.32939363  0.48221153  1
  Nb  Nb4  1  0.33170728  0.66429407  0.01961568  1
  Nb  Nb5  1  0.33149450  0.66166769  0.51928710  1
  Nb  Nb6  1  0.33088363  0.67592486  0.31506880  1
  Nb  Nb7  1  0.33653670  0.68317694  0.81423469  1
  Si  Si0  1  0.30019483  0.99415744  0.25534843  1
  Si  Si1  1  0.00495891  0.70251568  0.75380710  1
  Si  Si2  1  0.69864732  0.99480215  0.75353727  1
  Si  Si3  1  0.96588288  0.33038325  0.58444512  1
  Si  Si4  1  0.36492606  0.03231139  0.58189426  1
  Si  Si5  1  0.66033744  0.62779607  0.58567008  1
  Si  Si6  1  0.96613513  0.62772465  0.08506311  1
  Si  Si7  1  0.66927332  0.03612388  0.08296036  1
  Si  Si8  1  0.37474833  0.33771068  0.08236278  1
  Si  Si9  1  0.61607848  0.65539288  0.91728976  1
  Si  Si10  1  0.04200427  0.38728390  0.91578835  1
  Si  Si11  1  0.34748151  0.96800147  0.92030371  1
  Si  Si12  1  0.61624399  0.96226925  0.41860424  1
  Si  Si13  1  0.34467570  0.38626657  0.41512798  1
  Si  Si14  1  0.03498506  0.65485231  0.41829325  1
  S  S0  1  0.69606405  0.70746819  0.25041945  1
  S  S1  1  0.01274075  0.30091217  0.25082023  1
  S  S2  1  0.28909726  0.29913074  0.75050818  1
  O  O0  1  0.21386648  0.99595368  0.31569545  1
  O  O1  1  0.78208271  0.78845883  0.30576634  1
  O  O2  1  0.99845832  0.21725588  0.30759736  1
  O  O3  1  0.22127544  0.21669017  0.80718748  1
  O  O4  1  0.99058413  0.78378293  0.81327060  1
  O  O5  1  0.79682176  0.01550746  0.81353507  1
  O  O6  1  0.81041795  0.97321408  0.69578736  1
  O  O7  1  0.17914794  0.19843739  0.70005352  1
  O  O8  1  0.01952687  0.82595757  0.69446668  1
  O  O9  1  0.79096372  0.81480940  0.19757255  1
  O  O10  1  0.02198341  0.19646101  0.20066109  1
  O  O11  1  0.16873472  0.98067798  0.19692564  1
  O  O12  1  0.91409199  0.39243895  0.64171486  1
  O  O13  1  0.49506286  0.09011729  0.63401783  1
  O  O14  1  0.62825635  0.53904998  0.64707712  1
  O  O15  1  0.89903637  0.52371065  0.14259532  1
  O  O16  1  0.59336779  0.09395148  0.13375714  1
  O  O17  1  0.49900750  0.40384731  0.13611099  1
  O  O18  1  0.46454066  0.29615168  0.02479937  1
  O  O19  1  0.83554252  0.53407764  0.02684689  1
  O  O20  1  0.70113466  0.16460388  0.02433614  1
  O  O21  1  0.46303239  0.15904647  0.52357318  1
  O  O22  1  0.69115811  0.52496703  0.52986932  1
  O  O23  1  0.82988015  0.30009372  0.52851080  1
  O  O24  1  0.50655398  0.66164806  0.97255647  1
  O  O25  1  0.15592876  0.50114924  0.97068580  1
  O  O26  1  0.33964931  0.85268274  0.97525137  1
  O  O27  1  0.51368943  0.85024832  0.47512437  1
  O  O28  1  0.33988929  0.49731958  0.47059563  1
  O  O29  1  0.15411080  0.66807197  0.47346962  1
  O  O30  1  0.13738637  0.63363029  0.36035546  1
  O  O31  1  0.49350649  0.86021822  0.36045237  1
  O  O32  1  0.36716232  0.50591394  0.35733958  1
  O  O33  1  0.13790006  0.50152966  0.85620151  1
  O  O34  1  0.36359506  0.86410550  0.86086660  1
  O  O35  1  0.49829686  0.63500683  0.85799503  1
  O  O36  1  0.00870469  0.81393513  0.41954311  1
  O  O37  1  0.79960147  0.98246624  0.41753223  1
  O  O38  1  0.17923075  0.20552695  0.41824262  1
  O  O39  1  0.02721402  0.20694971  0.91953047  1
  O  O40  1  0.18616869  0.99051706  0.92106103  1
  O  O41  1  0.79913694  0.81888441  0.92116933  1
  O  O42  1  0.96654467  0.15217491  0.59083737  1
  O  O43  1  0.18009092  0.01918110  0.59098708  1
  O  O44  1  0.84175564  0.81364637  0.58771751  1
  O  O45  1  0.97395130  0.81703385  0.09218978  1
  O  O46  1  0.84005379  0.02064888  0.09480766  1
  O  O47  1  0.19168506  0.15859625  0.09245632  1
  O  O48  1  0.67785155  0.15482832  0.74522671  1
  O  O49  1  0.46239482  0.33300797  0.74509953  1
  O  O50  1  0.84216427  0.51930417  0.74760536  1
  O  O51  1  0.67724443  0.54130619  0.24691050  1
  O  O52  1  0.87083206  0.32776470  0.24408085  1
  O  O53  1  0.48451413  0.14872606  0.24920625  1
  O  O54  1  0.62474837  0.48058045  0.92268706  1
  O  O55  1  0.85753758  0.37773885  0.92108165  1
  O  O56  1  0.52510573  0.14745986  0.92077329  1
  O  O57  1  0.62438753  0.14524774  0.42166240  1
  O  O58  1  0.51939648  0.37743193  0.42245002  1
  O  O59  1  0.85461954  0.47771570  0.42337137  1
  O  O60  1  0.32768187  0.48452888  0.06862562  1
  O  O61  1  0.16349675  0.68390975  0.07230078  1
  O  O62  1  0.52111284  0.84025907  0.06922117  1
  O  O63  1  0.31947552  0.83672767  0.56989091  1
  O  O64  1  0.51657694  0.68005201  0.57267108  1
  O  O65  1  0.15448159  0.48584428  0.56839127  1
  O  O66  1  0.30029484  0.80907357  0.25379317  1
  O  O67  1  0.52648131  0.69874595  0.24949417  1
  O  O68  1  0.17702996  0.46521887  0.24963696  1
  O  O69  1  0.28796493  0.46359360  0.74849326  1
  O  O70  1  0.18130325  0.68936198  0.75306697  1
  O  O71  1  0.51988169  0.80723577  0.75354318  1
loop_
_geom_bond_atom_site_label_1
_geom_bond_atom_site_label_2
_geom_bond_distance
_geom_bond_site_symmetry_2
Na0 O14 2.354330 1_555
Na0 O50 2.431139 1_555
Na0 O49 2.437477 1_555
Na0 O71 2.472501 1_555
Na1 O50 2.344271 1_555
Na1 O48 2.423373 1_555
Na1 O12 2.448752 1_555
Na1 O69 2.539905 1_655
Na1 O70 2.678409 1_655
Na1 O33 2.917661 1_655
Na2 O63 2.400955 1_555
Na2 O44 2.531245 1_455
Na2 O12 2.617944 1_455
Na2 O65 2.635044 1_555
Na2 O43 2.732612 1_565
Na2 O8 2.806596 1_555
Na2 O29 2.878080 1_555
Na2 O22 2.944282 1_455
Na3 O13 2.402642 1_565
Na3 O64 2.434575 1_555
Na3 O42 2.488191 1_565
Na3 O63 2.710262 1_555
Na3 O44 2.826234 1_555
Na3 O27 2.848962 1_555
Na3 O6 2.863521 1_555
Na3 O23 2.885613 1_565
Na4 O16 2.333722 1_565
Na4 O61 2.402606 1_555
Na4 O47 2.547693 1_565
Na4 O62 2.670483 1_555
Na4 O26 2.840090 1_554
Na4 O45 2.855089 1_455
Na4 O11 2.899745 1_555
Na4 O18 2.916383 1_565
Na5 O62 2.420540 1_555
Na5 O17 2.460873 1_555
Na5 O45 2.511011 1_555
Na5 O60 2.706817 1_555
Na5 O46 2.715806 1_565
Na5 O9 2.727433 1_555
Na5 O19 2.958771 1_555
Na5 O24 2.986549 1_554
Na6 O4 2.329516 1_555
Na6 O41 2.413269 1_555
Na6 O55 2.486641 1_555
Na6 O40 2.563990 1_655
Na6 O54 2.726896 1_555
Na6 O19 2.975699 1_556
Na7 O5 2.327572 1_555
Na7 O39 2.458339 1_655
Na7 O41 2.472732 1_545
Na7 O56 2.480532 1_555
Na7 O55 2.750998 1_555
Na7 O20 2.913980 1_556
Na8 O40 2.392383 1_545
Na8 O39 2.431192 1_555
Na8 O54 2.441520 1_555
Na8 O3 2.608058 1_555
Na8 O56 2.757032 1_555
Na8 O18 2.782991 1_556
Na9 O37 2.423834 1_545
Na9 O38 2.434580 1_655
Na9 O59 2.447515 1_555
Na9 O2 2.558606 1_555
Na9 O57 2.722406 1_555
Na9 O23 2.919368 1_555
Na10 O0 2.270907 1_545
Na10 O38 2.465481 1_555
Na10 O57 2.495052 1_555
Na10 O36 2.554532 1_545
Na10 O58 2.759375 1_555
Na10 O21 2.896183 1_555
Na11 O36 2.363300 1_655
Na11 O58 2.462339 1_555
Na11 O37 2.486567 1_555
Na11 O1 2.612922 1_555
Na11 O59 2.770927 1_555
Na12 O38 2.427427 1_555
Na12 O36 2.521377 1_545
Na12 O37 2.557021 1_445
Na12 O43 2.635090 1_555
Na12 O42 2.651949 1_455
Na12 O44 2.712873 1_445
Na13 O39 2.404095 1_655
Na13 O41 2.437079 1_545
Na13 O40 2.480976 1_645
Na13 O46 2.736406 1_556
Na13 O47 2.765860 1_656
Na13 O45 2.788910 1_546
Na14 O48 2.366869 1_555
Na14 O50 2.440774 1_555
Na14 O49 2.648180 1_555
Na14 O56 2.667441 1_555
Na14 O55 2.700579 1_555
Na14 O54 2.847195 1_555
Na15 O53 2.255944 1_555
Na15 O51 2.585188 1_555
Na15 O52 2.687536 1_555
Na15 O57 2.713827 1_555
Na15 O58 2.747789 1_555
Na15 O59 2.881269 1_555
Na16 O68 2.396789 1_555
Na16 O66 2.465594 1_555
Na16 O67 2.531637 1_555
Na16 O61 2.706695 1_555
Na16 O60 2.787995 1_555
Na16 O62 2.914542 1_555
Na17 O70 2.468720 1_555
Na17 O71 2.480602 1_555
Na17 O69 2.526028 1_555
Na17 O64 2.702166 1_555
Na17 O63 2.744677 1_555
Na17 O65 2.814082 1_555
Ca0 O0 2.132093 1_545
Ca0 O1 2.246423 1_445
Ca0 O2 2.251797 1_455
Ca0 O36 2.334152 1_545
Ca0 O37 2.334731 1_445
Ca0 O38 2.336637 1_555
Ca1 O4 2.149792 1_455
Ca1 O5 2.152648 1_465
Ca1 O3 2.277594 1_565
Ca1 O40 2.324250 1_555
Ca1 O41 2.347332 1_455
Ca1 O39 2.350755 1_565
Ca2 O13 2.190220 1_555
Ca2 O48 2.245560 1_555
Ca2 O14 2.247106 1_555
Ca2 O12 2.259200 1_555
Ca2 O50 2.329946 1_555
Ca2 O49 2.392442 1_555
Ca3 O16 2.206984 1_555
Ca3 O15 2.212022 1_555
Ca3 O17 2.223921 1_555
Ca3 O53 2.242789 1_555
Ca3 O52 2.365299 1_555
Ca3 O51 2.418723 1_555
Nb0 O8 1.948232 1_655
Nb0 O6 1.962598 1_555
Nb0 O44 1.975031 1_555
Nb0 O43 2.045871 1_665
Nb0 O42 2.089768 1_565
Nb0 O7 2.251510 1_665
Nb1 O11 1.928626 1_545
Nb1 O47 1.954298 1_555
Nb1 O45 1.965709 1_445
Nb1 O46 2.041350 1_455
Nb1 O10 2.170147 1_555
Nb1 O9 2.260754 1_445
Nb2 O20 1.969136 1_556
Nb2 O19 1.985333 1_556
Nb2 O18 2.021806 1_556
Nb2 O55 2.067376 1_555
Nb2 O54 2.094899 1_555
Nb2 O56 2.095838 1_555
Nb3 O21 1.954126 1_555
Nb3 O23 2.001011 1_555
Nb3 O22 2.003238 1_555
Nb3 O58 2.074848 1_555
Nb3 O57 2.081181 1_555
Nb3 O59 2.100101 1_555
Nb4 O25 1.919808 1_554
Nb4 O24 1.943860 1_554
Nb4 O26 1.978463 1_554
Nb4 O60 1.982327 1_555
Nb4 O62 2.028996 1_555
Nb4 O61 2.037162 1_555
Nb5 O28 1.911579 1_555
Nb5 O29 1.958948 1_555
Nb5 O65 1.974439 1_555
Nb5 O27 1.984596 1_555
Nb5 O64 2.025350 1_555
Nb5 O63 2.032278 1_555
Nb6 O31 1.911477 1_555
Nb6 O30 1.921954 1_555
Nb6 O66 1.967241 1_555
Nb6 O32 2.003238 1_555
Nb6 O67 2.266825 1_555
Nb6 O68 2.291400 1_555
Nb7 O34 1.887663 1_555
Nb7 O33 2.001579 1_555
Nb7 O70 2.012037 1_555
Nb7 O35 2.012845 1_555
Nb7 O71 2.034814 1_555
Nb7 O69 2.375587 1_555
O0 Si0 1.591805 1_555
O1 S0 1.475685 1_555
O2 S1 1.476059 1_655
O3 S2 1.469166 1_555
O4 Si1 1.585077 1_655
O5 Si2 1.592886 1_545
O6 Si2 1.741681 1_555
O7 S2 1.504334 1_555
O8 Si1 1.726976 1_555
O9 S0 1.525653 1_555
O10 S1 1.524278 1_555
O11 Si0 1.756637 1_555
O12 Si3 1.590382 1_555
O13 Si4 1.574972 1_555
O14 Si5 1.570799 1_555
O15 Si6 1.557198 1_555
O16 Si7 1.576192 1_555
O17 Si8 1.572465 1_555
O18 Si8 1.692974 1_555
O19 Si6 1.703783 1_555
O20 Si7 1.709178 1_555
O21 Si4 1.700294 1_555
O22 Si5 1.692740 1_555
O23 Si3 1.704618 1_555
O24 Si9 1.631777 1_555
O25 Si10 1.631009 1_555
O26 Si11 1.618819 1_555
O27 Si12 1.625113 1_555
O28 Si13 1.641069 1_555
O29 Si14 1.628129 1_555
O30 Si14 1.689063 1_555
O31 Si12 1.687159 1_555
O32 Si13 1.661265 1_555
O33 Si10 1.673675 1_555
O34 Si11 1.707533 1_555
O35 Si9 1.678796 1_555
O36 Si14 1.602309 1_555
O37 Si12 1.601205 1_555
O38 Si13 1.602856 1_555
O39 Si10 1.602496 1_555
O40 Si11 1.597010 1_555
O41 Si9 1.607039 1_555
O42 Si3 1.653459 1_555
O43 Si4 1.655735 1_555
O44 Si5 1.694389 1_555
O45 Si6 1.719776 1_555
O46 Si7 1.667271 1_555
O47 Si8 1.685953 1_555
O48 Si2 1.591508 1_545
O49 S2 1.468107 1_555
O50 Si1 1.610272 1_655
O51 S0 1.456782 1_555
O52 S1 1.452054 1_655
O53 Si0 1.585747 1_545
O54 Si9 1.658452 1_555
O55 Si10 1.658446 1_655
O56 Si11 1.646470 1_545
O57 Si12 1.653693 1_545
O58 Si13 1.656508 1_555
O59 Si14 1.652525 1_655
O60 Si8 1.644025 1_555
O61 Si6 1.645966 1_455
O62 Si7 1.662084 1_565
O63 Si4 1.659509 1_565
O64 Si5 1.643244 1_555
O65 Si3 1.648562 1_455
O66 Si0 1.708510 1_555
O67 S0 1.520656 1_555
O68 S1 1.515254 1_555
O69 S2 1.523230 1_555
O70 Si1 1.685215 1_555
O71 Si2 1.690709 1_555
