# generated using pymatgen
data_CaMnSiHO5
_symmetry_space_group_name_H-M   'P 1'
_cell_length_a   5.94922800
_cell_length_b   7.32093400
_cell_length_c   8.77905600
_cell_angle_alpha   90.00000000
_cell_angle_beta   90.00000000
_cell_angle_gamma   90.00000000
_symmetry_Int_Tables_number   1
_chemical_formula_structural   CaMnSiHO5
_chemical_formula_sum   'Ca4 Mn4 Si4 H4 O20'
_cell_volume   382.36217575
_cell_formula_units_Z   4
loop_
 _symmetry_equiv_pos_site_id
 _symmetry_equiv_pos_as_xyz
  1  'x, y, z'
loop_
 _atom_site_type_symbol
 _atom_site_label
 _atom_site_symmetry_multiplicity
 _atom_site_fract_x
 _atom_site_fract_y
 _atom_site_fract_z
 _atom_site_occupancy
  Ca  Ca0  1  0.51974800  0.12184800  0.32251100  1
  Ca  Ca1  1  0.98025200  0.87815200  0.82251100  1
  Ca  Ca2  1  0.48025200  0.62184800  0.17748900  1
  Ca  Ca3  1  0.01974800  0.37815200  0.67748900  1
  Mn  Mn0  1  0.74624300  0.25725400  0.99648200  1
  Mn  Mn1  1  0.25375700  0.75725400  0.50351800  1
  Mn  Mn2  1  0.75375700  0.74274600  0.49648200  1
  Mn  Mn3  1  0.24624300  0.24274600  0.00351800  1
  Si  Si0  1  0.98847800  0.36615400  0.31883800  1
  Si  Si1  1  0.48847800  0.13384600  0.68116200  1
  Si  Si2  1  0.01152200  0.86615400  0.18116200  1
  Si  Si3  1  0.51152200  0.63384600  0.81883800  1
  H  H0  1  0.47360800  0.43017900  0.52292300  1
  H  H1  1  0.97360800  0.06982100  0.47707700  1
  H  H2  1  0.52639200  0.93017900  0.97707700  1
  H  H3  1  0.02639200  0.56982100  0.02292300  1
  O  O0  1  0.73816500  0.62607900  0.70966700  1
  O  O1  1  0.99738300  0.89469300  0.55916300  1
  O  O2  1  0.50261700  0.10530700  0.05916300  1
  O  O3  1  0.00261700  0.39469300  0.94083700  1
  O  O4  1  0.76183500  0.37392100  0.20966700  1
  O  O5  1  0.26183500  0.12607900  0.79033300  1
  O  O6  1  0.23816500  0.87392100  0.29033300  1
  O  O7  1  0.49738300  0.60530700  0.44083700  1
  O  O8  1  0.49087900  0.45880500  0.93585700  1
  O  O9  1  0.99087900  0.04119500  0.06414300  1
  O  O10  1  0.50912100  0.95880500  0.56414300  1
  O  O11  1  0.00912100  0.54119500  0.43585700  1
  O  O12  1  0.07826000  0.69965300  0.05837700  1
  O  O13  1  0.57826000  0.80034700  0.94162300  1
  O  O14  1  0.22607000  0.33817600  0.22495100  1
  O  O15  1  0.42174000  0.30034700  0.55837700  1
  O  O16  1  0.27393000  0.66182400  0.72495100  1
  O  O17  1  0.77393000  0.83817600  0.27504900  1
  O  O18  1  0.72607000  0.16182400  0.77504900  1
  O  O19  1  0.92174000  0.19965300  0.44162300  1
loop_
_geom_bond_atom_site_label_1
_geom_bond_atom_site_label_2
_geom_bond_distance
_geom_bond_site_symmetry_2
Ca0 O2 2.317358 1_555
Ca0 O10 2.434884 1_545
Ca0 O6 2.486068 1_545
Ca0 O14 2.508845 1_555
Ca0 O15 2.517015 1_555
Ca0 O4 2.541892 1_555
Ca0 O17 2.602535 1_545
Ca0 O19 2.671590 1_555
Ca1 O1 2.317358 1_555
Ca1 O9 2.434884 1_566
Ca1 O5 2.486068 1_665
Ca1 O16 2.508845 1_655
Ca1 O12 2.517015 1_656
Ca1 O0 2.541892 1_555
Ca1 O18 2.602535 1_565
Ca1 O13 2.671590 1_555
Ca2 O7 2.317358 1_555
Ca2 O8 2.434884 1_554
Ca2 O4 2.486068 1_555
Ca2 O17 2.508845 1_555
Ca2 O13 2.517015 1_554
Ca2 O6 2.541892 1_555
Ca2 O14 2.602535 1_555
Ca2 O12 2.671590 1_555
Ca3 O3 2.317358 1_555
Ca3 O11 2.434884 1_555
Ca3 O0 2.486068 1_455
Ca3 O18 2.508845 1_455
Ca3 O19 2.517015 1_455
Ca3 O5 2.541892 1_555
Ca3 O16 2.602535 1_555
Ca3 O15 2.671590 1_555
Mn0 O3 1.891392 1_655
Mn0 O2 1.908127 1_556
Mn0 O4 2.059335 1_556
Mn0 O18 2.069185 1_555
Mn0 O8 2.183694 1_555
Mn0 O9 2.230013 1_556
Mn1 O1 1.891392 1_455
Mn1 O7 1.908127 1_555
Mn1 O6 2.059335 1_555
Mn1 O16 2.069185 1_555
Mn1 O10 2.183694 1_555
Mn1 O11 2.230013 1_555
Mn2 O7 1.891392 1_555
Mn2 O1 1.908127 1_555
Mn2 O0 2.059335 1_555
Mn2 O17 2.069185 1_555
Mn2 O11 2.183694 1_655
Mn2 O10 2.230013 1_555
Mn3 O2 1.891392 1_555
Mn3 O3 1.908127 1_554
Mn3 O5 2.059335 1_554
Mn3 O14 2.069185 1_555
Mn3 O9 2.183694 1_455
Mn3 O8 2.230013 1_554
H0 O15 1.046676 1_555
H0 O7 1.477534 1_555
H1 O19 1.046676 1_555
H1 O1 1.477534 1_545
H2 O13 1.046676 1_555
H2 O2 1.477534 1_566
H3 O12 1.046676 1_555
H3 O3 1.477534 1_554
O0 Si3 1.655249 1_555
O4 Si0 1.655249 1_555
O5 Si1 1.655249 1_555
O6 Si2 1.655249 1_555
O8 Si3 1.647000 1_555
O9 Si2 1.647000 1_645
O10 Si1 1.647000 1_565
O11 Si0 1.647000 1_455
O12 Si2 1.674935 1_555
O13 Si3 1.674935 1_555
O14 Si0 1.649022 1_455
O15 Si1 1.674935 1_555
O16 Si3 1.649022 1_555
O17 Si2 1.649022 1_655
O18 Si1 1.649022 1_555
O19 Si0 1.674935 1_555
