# generated using pymatgen
data_LiCu5P3O13
_symmetry_space_group_name_H-M   'P 1'
_cell_length_a   6.24785700
_cell_length_b   8.24237207
_cell_length_c   9.90626032
_cell_angle_alpha   92.35063093
_cell_angle_beta   90.23161270
_cell_angle_gamma   90.35819949
_symmetry_Int_Tables_number   1
_chemical_formula_structural   LiCu5P3O13
_chemical_formula_sum   'Li2 Cu10 P6 O26'
_cell_volume   509.70034918
_cell_formula_units_Z   2
loop_
 _symmetry_equiv_pos_site_id
 _symmetry_equiv_pos_as_xyz
  1  'x, y, z'
loop_
 _atom_site_type_symbol
 _atom_site_label
 _atom_site_symmetry_multiplicity
 _atom_site_fract_x
 _atom_site_fract_y
 _atom_site_fract_z
 _atom_site_occupancy
  Li  Li0  1  0.75082600  0.56684200  0.54466900  1
  Li  Li1  1  0.24917400  0.43315800  0.45533100  1
  Cu  Cu0  1  0.49860300  0.86085100  0.21481900  1
  Cu  Cu1  1  0.25683700  0.56771200  0.10256700  1
  Cu  Cu2  1  0.99551400  0.85978400  0.21608400  1
  Cu  Cu3  1  0.00448600  0.14021600  0.78391600  1
  Cu  Cu4  1  0.50139700  0.13914900  0.78518100  1
  Cu  Cu5  1  0.74883100  0.22145700  0.45538600  1
  Cu  Cu6  1  0.74316300  0.43228800  0.89743300  1
  Cu  Cu7  1  0.25116900  0.77854300  0.54461400  1
  Cu  Cu8  1  0.25494500  0.85425900  0.92072200  1
  Cu  Cu9  1  0.74505500  0.14574100  0.07927800  1
  P  P0  1  0.25272300  0.48640000  0.76904100  1
  P  P1  1  0.24978100  0.13196600  0.50781600  1
  P  P2  1  0.74931300  0.84177500  0.88606000  1
  P  P3  1  0.25068700  0.15822500  0.11394000  1
  P  P4  1  0.74727700  0.51360000  0.23095900  1
  P  P5  1  0.75021900  0.86803400  0.49218400  1
  O  O0  1  0.75741200  0.20014700  0.88400400  1
  O  O1  1  0.54316200  0.90138000  0.81265200  1
  O  O2  1  0.75841100  0.65822800  0.87938100  1
  O  O3  1  0.74541200  0.90862400  0.03665900  1
  O  O4  1  0.74869700  0.38540600  0.11118600  1
  O  O5  1  0.95257100  0.62262300  0.21989000  1
  O  O6  1  0.25130300  0.61459400  0.88881400  1
  O  O7  1  0.24947200  0.09231500  0.66351400  1
  O  O8  1  0.75052800  0.90768500  0.33648600  1
  O  O9  1  0.05819700  0.24167000  0.47322900  1
  O  O10  1  0.04506000  0.09161100  0.18487600  1
  O  O11  1  0.25178600  0.96548800  0.43029500  1
  O  O12  1  0.55882400  0.75552900  0.52436700  1
  O  O13  1  0.24258800  0.79985300  0.11599600  1
  O  O14  1  0.54010800  0.61837100  0.22047100  1
  O  O15  1  0.24938700  0.56397500  0.62854600  1
  O  O16  1  0.94180300  0.75833000  0.52677100  1
  O  O17  1  0.74821400  0.03451200  0.56970500  1
  O  O18  1  0.24158900  0.34177200  0.12061900  1
  O  O19  1  0.04742900  0.37737700  0.78011000  1
  O  O20  1  0.95494000  0.90838900  0.81512400  1
  O  O21  1  0.75061300  0.43602500  0.37145400  1
  O  O22  1  0.45989200  0.38162900  0.77952900  1
  O  O23  1  0.25458800  0.09137600  0.96334100  1
  O  O24  1  0.45683800  0.09862000  0.18734800  1
  O  O25  1  0.44117600  0.24447100  0.47563300  1
loop_
_geom_bond_atom_site_label_1
_geom_bond_atom_site_label_2
_geom_bond_distance
_geom_bond_site_symmetry_2
Li0 O12 1.986268 1_555
Li0 O16 1.986795 1_555
Li0 O21 1.988759 1_555
Li1 O25 1.986268 1_555
Li1 O9 1.986795 1_555
Li1 O15 1.988759 1_555
Cu0 O13 1.925255 1_555
Cu0 O8 2.004502 1_555
Cu0 O24 2.008098 1_565
Cu0 O14 2.019992 1_555
Cu0 O3 2.391482 1_555
Cu1 O18 1.879996 1_555
Cu1 O13 1.915213 1_555
Cu1 O14 2.145905 1_555
Cu1 O6 2.168176 1_554
Cu1 O5 2.270449 1_455
Cu2 O13 1.895196 1_655
Cu2 O10 1.970891 1_665
Cu2 O5 1.973347 1_555
Cu2 O8 1.976116 1_555
Cu2 O3 2.409801 1_555
Cu3 O0 1.895196 1_455
Cu3 O20 1.970891 1_445
Cu3 O19 1.973347 1_555
Cu3 O7 1.976116 1_555
Cu3 O23 2.409801 1_555
Cu4 O0 1.925255 1_555
Cu4 O7 2.004502 1_555
Cu4 O1 2.008098 1_545
Cu4 O22 2.019992 1_555
Cu4 O23 2.391482 1_555
Cu5 O25 1.943080 1_555
Cu5 O9 1.945713 1_655
Cu5 O17 1.949332 1_555
Cu5 O21 1.984856 1_555
Cu6 O2 1.879996 1_555
Cu6 O0 1.915213 1_555
Cu6 O22 2.145905 1_555
Cu6 O4 2.168176 1_556
Cu6 O19 2.270449 1_655
Cu7 O12 1.943080 1_555
Cu7 O16 1.945713 1_455
Cu7 O11 1.949332 1_555
Cu7 O15 1.984856 1_555
Cu8 O23 1.982507 1_565
Cu8 O6 1.987669 1_555
Cu8 O13 2.005250 1_556
Cu8 O1 2.140227 1_555
Cu8 O20 2.199901 1_455
Cu9 O3 1.982507 1_545
Cu9 O4 1.987669 1_555
Cu9 O0 2.005250 1_554
Cu9 O24 2.140227 1_555
Cu9 O10 2.199901 1_655
O1 P2 1.568048 1_555
O2 P2 1.513029 1_555
O3 P2 1.569365 1_554
O4 P4 1.556175 1_555
O5 P4 1.568284 1_555
O6 P0 1.556175 1_555
O7 P1 1.589695 1_555
O8 P5 1.589695 1_555
O9 P1 1.550298 1_555
O10 P3 1.573506 1_555
O11 P1 1.544865 1_565
O12 P5 1.550796 1_555
O14 P4 1.565936 1_555
O15 P0 1.555394 1_555
O16 P5 1.550298 1_555
O17 P5 1.544865 1_545
O18 P3 1.513029 1_555
O19 P0 1.568284 1_555
O20 P2 1.573506 1_555
O21 P4 1.555394 1_555
O22 P0 1.565936 1_555
O23 P3 1.569365 1_556
O24 P3 1.568048 1_555
O25 P1 1.550796 1_555
