# generated using pymatgen
data_TbGeRh
_symmetry_space_group_name_H-M   'P 1'
_cell_length_a   4.31818463
_cell_length_b   6.95375719
_cell_length_c   7.49716752
_cell_angle_alpha   90.00000000
_cell_angle_beta   90.00000000
_cell_angle_gamma   90.00000000
_symmetry_Int_Tables_number   1
_chemical_formula_structural   TbGeRh
_chemical_formula_sum   'Tb4 Ge4 Rh4'
_cell_volume   225.12200304
_cell_formula_units_Z   4
loop_
 _symmetry_equiv_pos_site_id
 _symmetry_equiv_pos_as_xyz
  1  'x, y, z'
loop_
 _atom_site_type_symbol
 _atom_site_label
 _atom_site_symmetry_multiplicity
 _atom_site_fract_x
 _atom_site_fract_y
 _atom_site_fract_z
 _atom_site_occupancy
  Tb  Tb0  1  0.75000000  0.00153865  0.80475639  1
  Tb  Tb1  1  0.25000000  0.99846135  0.19524361  1
  Tb  Tb2  1  0.75000000  0.50153865  0.69524361  1
  Tb  Tb3  1  0.25000000  0.49846035  0.30475639  1
  Ge  Ge0  1  0.75000000  0.20871995  0.39610506  1
  Ge  Ge1  1  0.25000000  0.79128005  0.60389494  1
  Ge  Ge2  1  0.75000000  0.70871995  0.10389494  1
  Ge  Ge3  1  0.25000000  0.29128005  0.89610506  1
  Rh  Rh0  1  0.75000000  0.84543088  0.43147295  1
  Rh  Rh1  1  0.25000000  0.15456912  0.56852705  1
  Rh  Rh2  1  0.75000000  0.34543088  0.06852705  1
  Rh  Rh3  1  0.25000000  0.65456912  0.93147295  1
loop_
_geom_bond_atom_site_label_1
_geom_bond_atom_site_label_2
_geom_bond_distance
_geom_bond_site_symmetry_2
Ge0 Rh0 2.540102 1_545
Ge0 Rh1 2.544501 1_655
Ge0 Rh1 2.544501 1_555
Ge0 Rh2 2.633481 1_555
Ge0 Tb1 3.011161 1_545
Ge0 Tb1 3.011161 1_645
Ge0 Tb2 3.029148 1_555
Ge0 Tb3 3.031512 1_655
Ge0 Tb3 3.031512 1_555
Ge1 Rh1 2.540102 1_565
Ge1 Rh0 2.544501 1_555
Ge1 Rh0 2.544501 1_455
Ge1 Rh3 2.633481 1_555
Ge1 Tb0 3.011161 1_565
Ge1 Tb0 3.011161 1_465
Ge1 Tb3 3.029153 1_555
Ge1 Tb2 3.031516 1_455
Ge1 Tb2 3.031516 1_555
Ge2 Rh2 2.540102 1_555
Ge2 Rh3 2.544501 1_554
Ge2 Rh3 2.544501 1_654
Ge2 Rh0 2.633481 1_555
Ge2 Tb3 3.011164 1_655
Ge2 Tb3 3.011164 1_555
Ge2 Tb0 3.029148 1_564
Ge2 Tb1 3.031516 1_555
Ge2 Tb1 3.031516 1_655
Ge3 Rh3 2.540102 1_555
Ge3 Rh2 2.544501 1_556
Ge3 Rh2 2.544501 1_456
Ge3 Rh1 2.633481 1_555
Ge3 Tb2 3.011161 1_555
Ge3 Tb2 3.011161 1_455
Ge3 Tb1 3.029148 1_546
Ge3 Tb0 3.031516 1_555
Ge3 Tb0 3.031516 1_455
Rh0 Tb1 2.988426 1_555
Rh0 Tb1 2.988426 1_655
Rh0 Tb0 3.001728 1_565
Rh0 Tb2 3.103088 1_555
Rh0 Tb3 3.374250 1_555
Rh0 Tb3 3.374250 1_655
Rh1 Tb0 2.988426 1_455
Rh1 Tb0 2.988426 1_555
Rh1 Tb1 3.001728 1_545
Rh1 Tb3 3.103083 1_555
Rh1 Tb2 3.374245 1_455
Rh1 Tb2 3.374245 1_555
Rh2 Tb3 2.988423 1_555
Rh2 Tb3 2.988423 1_655
Rh2 Tb2 3.001728 1_554
Rh2 Tb0 3.103088 1_554
Rh2 Tb1 3.374245 1_645
Rh2 Tb1 3.374245 1_545
Rh3 Tb2 2.988426 1_455
Rh3 Tb2 2.988426 1_555
Rh3 Tb3 3.001731 1_556
Rh3 Tb1 3.103088 1_556
Rh3 Tb0 3.374245 1_565
Rh3 Tb0 3.374245 1_465
