# generated using pymatgen
data_MgMn6O7F5
_symmetry_space_group_name_H-M   'P 1'
_cell_length_a   5.19256058
_cell_length_b   7.89852289
_cell_length_c   5.93825847
_cell_angle_alpha   96.50008298
_cell_angle_beta   79.99610601
_cell_angle_gamma   95.86714275
_symmetry_Int_Tables_number   1
_chemical_formula_structural   MgMn6O7F5
_chemical_formula_sum   'Mg1 Mn6 O7 F5'
_cell_volume   237.45462361
_cell_formula_units_Z   1
loop_
 _symmetry_equiv_pos_site_id
 _symmetry_equiv_pos_as_xyz
  1  'x, y, z'
loop_
 _atom_site_type_symbol
 _atom_site_label
 _atom_site_symmetry_multiplicity
 _atom_site_fract_x
 _atom_site_fract_y
 _atom_site_fract_z
 _atom_site_occupancy
  Mg  Mg0  1  0.51742635  0.83978120  0.81076903  1
  Mn  Mn0  1  0.43102687  0.01967273  0.41500006  1
  Mn  Mn1  1  0.51073849  0.65557334  0.17835923  1
  Mn  Mn2  1  0.53766681  0.32751844  0.84070863  1
  Mn  Mn3  1  0.01792712  0.65394270  0.67951918  1
  Mn  Mn4  1  0.82340191  0.33429791  0.33939068  1
  Mn  Mn5  1  -0.00001775  0.98694157  -0.00423650  1
  O  O0  1  0.84339409  0.43301442  0.66435135  1
  O  O1  1  0.80532046  0.75898817  0.95566802  1
  O  O2  1  0.79611161  0.07212532  0.27557702  1
  O  O3  1  0.63990998  0.43629563  0.12338367  1
  O  O4  1  0.43941512  0.24268969  0.55318676  1
  O  O5  1  0.34224392  0.86633763  0.16446197  1
  O  O6  1  0.20590306  0.89705560  0.68784927  1
  F  F0  1  0.70149310  0.07208211  0.82376929  1
  F  F1  1  0.67096160  0.74856189  0.49201477  1
  F  F2  1  0.33666671  0.59188915  0.84699170  1
  F  F3  1  0.17516989  0.56382530  0.35905008  1
  F  F4  1  0.20523966  0.21607720  0.02037578  1
loop_
_geom_bond_atom_site_label_1
_geom_bond_atom_site_label_2
_geom_bond_distance
_geom_bond_site_symmetry_2
Mg0 O6 1.997168 1_555
Mg0 O1 2.036811 1_555
Mg0 O5 2.135012 1_556
Mn0 O4 1.856778 1_555
Mn0 O5 1.899727 1_545
Mn0 O2 1.955166 1_555
Mn0 O6 2.096535 1_545
Mn1 O3 1.894620 1_555
Mn1 O5 1.974226 1_555
Mn1 O1 2.010488 1_554
Mn2 O4 1.896865 1_555
Mn2 O0 1.913314 1_555
Mn2 O3 1.930692 1_556
Mn3 O0 1.882538 1_455
Mn3 O1 1.961249 1_455
Mn3 O6 2.062655 1_555
Mn4 O3 2.004421 1_555
Mn4 O0 2.013670 1_555
Mn4 O2 2.057375 1_555
Mn4 O4 2.268142 1_555
Mn5 O2 1.901487 1_465
Mn5 O1 1.983597 1_454
Mn5 O6 2.042719 1_554
Mn5 O5 2.500041 1_555
F0 Mg0 1.980182 1_545
F0 Mn5 2.194591 1_646
F0 Mn2 2.253790 1_555
F1 Mg0 2.005478 1_555
F1 Mn1 2.191917 1_555
F1 Mn3 2.490953 1_655
F1 Mn0 2.704065 1_565
F2 Mg0 2.100102 1_555
F2 Mn3 2.194672 1_555
F2 Mn1 2.289744 1_556
F2 Mn2 2.421865 1_555
F3 Mn1 1.995232 1_555
F3 Mn3 2.016710 1_555
F3 Mn4 2.446605 1_455
F4 Mn5 2.008154 1_545
F4 Mn2 2.038339 1_554
F4 Mn4 2.657979 1_455
