# generated using pymatgen
data_Na5Mg3TiP3(SO8)3
_symmetry_space_group_name_H-M   'P 1'
_cell_length_a   8.83376094
_cell_length_b   8.82827107
_cell_length_c   22.16642799
_cell_angle_alpha   90.23178875
_cell_angle_beta   89.96084082
_cell_angle_gamma   119.88196946
_symmetry_Int_Tables_number   1
_chemical_formula_structural   Na5Mg3TiP3(SO8)3
_chemical_formula_sum   'Na15 Mg9 Ti3 P9 S9 O72'
_cell_volume   1498.85245597
_cell_formula_units_Z   3
loop_
 _symmetry_equiv_pos_site_id
 _symmetry_equiv_pos_as_xyz
  1  'x, y, z'
loop_
 _atom_site_type_symbol
 _atom_site_label
 _atom_site_symmetry_multiplicity
 _atom_site_fract_x
 _atom_site_fract_y
 _atom_site_fract_z
 _atom_site_occupancy
  Na  Na0  1  0.00069698  0.63610427  0.25474125  1
  Na  Na1  1  0.30232684  0.33931264  0.58722262  1
  Na  Na2  1  0.02848561  0.69377194  0.58120602  1
  Na  Na3  1  0.66865464  0.96107890  0.58013236  1
  Na  Na4  1  0.66690382  0.69899769  0.08211713  1
  Na  Na5  1  0.03375435  0.33856984  0.08462559  1
  Na  Na6  1  0.98114832  0.67892195  0.91265221  1
  Na  Na7  1  0.32632624  0.29669260  0.90925288  1
  Na  Na8  1  0.69745912  0.67578841  0.41786968  1
  Na  Na9  1  0.99964471  0.00443926  0.49486697  1
  Na  Na10  1  0.00126889  0.99587076  0.99576570  1
  Na  Na11  1  0.65899314  0.32012505  0.82405442  1
  Na  Na12  1  0.65367654  0.30456457  0.33351122  1
  Na  Na13  1  0.33700036  0.67900321  0.17094756  1
  Na  Na14  1  0.33325546  0.65701444  0.66738301  1
  Mg  Mg0  1  0.00198818  0.00563702  0.35302771  1
  Mg  Mg1  1  -0.00088208  0.00483941  0.84908583  1
  Mg  Mg2  1  0.99885249  0.00577987  0.65198879  1
  Mg  Mg3  1  0.00451299  0.99538238  0.15107008  1
  Mg  Mg4  1  0.66582658  0.33998579  0.68604084  1
  Mg  Mg5  1  0.66442562  0.32943161  0.18628708  1
  Mg  Mg6  1  0.32951270  0.67255479  0.01607663  1
  Mg  Mg7  1  0.33335530  0.66748074  0.51377813  1
  Mg  Mg8  1  0.33614634  0.67358458  0.32025188  1
  Ti  Ti0  1  0.67345528  0.33737645  0.97598478  1
  Ti  Ti1  1  0.68686303  0.33793359  0.47872255  1
  Ti  Ti2  1  0.33513160  0.66271159  0.81424105  1
  P  P0  1  0.29782973  0.29505680  0.75142356  1
  P  P1  1  0.96102584  0.33505388  0.58561348  1
  P  P2  1  0.66512308  0.62396604  0.58315967  1
  P  P3  1  0.96044434  0.62600922  0.08468596  1
  P  P4  1  0.62626158  0.67196648  0.91958475  1
  P  P5  1  0.04354398  0.37331880  0.91848898  1
  P  P6  1  0.33573283  0.95765097  0.91711588  1
  P  P7  1  0.62825403  0.96255070  0.41807264  1
  P  P8  1  0.04156603  0.67083344  0.41662333  1
  S  S0  1  0.29563483  0.00141937  0.25029882  1
  S  S1  1  0.70030390  0.70397348  0.24925904  1
  S  S2  1  0.00208425  0.29472606  0.24869919  1
  S  S3  1  0.00299122  0.70521753  0.75119877  1
  S  S4  1  0.70174435  0.99772332  0.75039971  1
  S  S5  1  0.37762811  0.04373577  0.58368117  1
  S  S6  1  0.66347498  0.04261130  0.08341813  1
  S  S7  1  0.37491370  0.33072946  0.08292637  1
  S  S8  1  0.33395574  0.37009024  0.41758711  1
  O  O0  1  0.21073513  0.02290711  0.30389212  1
  O  O1  1  0.81356292  0.78938008  0.30234855  1
  O  O2  1  0.98301198  0.18642567  0.30069018  1
  O  O3  1  0.21034034  0.19010498  0.80829329  1
  O  O4  1  0.98230997  0.78882069  0.80608092  1
  O  O5  1  0.80880418  0.01777182  0.80331672  1
  O  O6  1  0.77383462  0.96731045  0.69419776  1
  O  O7  1  0.18933698  0.22256051  0.69350259  1
  O  O8  1  0.02776456  0.80964092  0.69643060  1
  O  O9  1  0.78198849  0.80711573  0.19317035  1
  O  O10  1  0.01995291  0.21488408  0.19128350  1
  O  O11  1  0.18658309  0.97284077  0.19540275  1
  O  O12  1  0.87149511  0.36277166  0.63911195  1
  O  O13  1  0.48503433  0.12188483  0.63733927  1
  O  O14  1  0.63177894  0.50583032  0.63678334  1
  O  O15  1  0.87174145  0.51181357  0.13962257  1
  O  O16  1  0.64111556  0.12383091  0.13719571  1
  O  O17  1  0.48504053  0.35492328  0.13522415  1
  O  O18  1  0.45652784  0.30874166  0.02640011  1
  O  O19  1  0.83661339  0.52388072  0.02702544  1
  O  O20  1  0.68757866  0.15397408  0.02885581  1
  O  O21  1  0.45998707  0.15431757  0.52944701  1
  O  O22  1  0.69078233  0.53275997  0.52494323  1
  O  O23  1  0.84064204  0.30968909  0.52778671  1
  O  O24  1  0.54785166  0.69161942  0.97797003  1
  O  O25  1  0.14880832  0.45001750  0.97615189  1
  O  O26  1  0.30057348  0.84584063  0.97251751  1
  O  O27  1  0.55207748  0.85395213  0.47573826  1
  O  O28  1  0.31097691  0.44746323  0.47373293  1
  O  O29  1  0.14365253  0.69004668  0.47420672  1
  O  O30  1  0.11341137  0.63470323  0.35891653  1
  O  O31  1  0.51457257  0.88129544  0.36274100  1
  O  O32  1  0.36694651  0.48560976  0.36524712  1
  O  O33  1  0.13076920  0.50098809  0.86471284  1
  O  O34  1  0.36624397  0.87076389  0.86116934  1
  O  O35  1  0.50063715  0.63384165  0.86525314  1
  O  O36  1  0.00430045  0.82282803  0.41112299  1
  O  O37  1  0.81288711  0.98711401  0.41092980  1
  O  O38  1  0.18197836  0.19543138  0.41020286  1
  O  O39  1  0.01805119  0.19193772  0.90951731  1
  O  O40  1  0.17863095  0.98678406  0.90924082  1
  O  O41  1  0.81229338  0.81900595  0.90995835  1
  O  O42  1  0.97451561  0.16701125  0.58653709  1
  O  O43  1  0.20007939  0.02494412  0.58859600  1
  O  O44  1  0.83450926  0.80521053  0.58731319  1
  O  O45  1  0.96514109  0.80298491  0.08553539  1
  O  O46  1  0.82743522  0.03065045  0.08609896  1
  O  O47  1  0.19621926  0.17780381  0.08696054  1
  O  O48  1  0.67887114  0.15120640  0.74516944  1
  O  O49  1  0.48217021  0.32323063  0.74675675  1
  O  O50  1  0.85112423  0.52830694  0.74678068  1
  O  O51  1  0.68952268  0.52927153  0.24408898  1
  O  O52  1  0.84452347  0.31741885  0.24555724  1
  O  O53  1  0.47136819  0.15690724  0.24395003  1
  O  O54  1  0.63762305  0.49413734  0.92393112  1
  O  O55  1  0.85761107  0.36283138  0.92407491  1
  O  O56  1  0.50314715  0.14714712  0.92518412  1
  O  O57  1  0.64515155  0.14998168  0.42700948  1
  O  O58  1  0.49752537  0.35619254  0.42291689  1
  O  O59  1  0.84798101  0.49946690  0.42377986  1
  O  O60  1  0.35969370  0.49221646  0.07870380  1
  O  O61  1  0.13893022  0.63921643  0.07742198  1
  O  O62  1  0.51373020  0.86378661  0.07742069  1
  O  O63  1  0.35515610  0.86553473  0.57713601  1
  O  O64  1  0.50407808  0.64808917  0.57615028  1
  O  O65  1  0.14303709  0.49720367  0.57716868  1
  O  O66  1  0.30923918  0.83918527  0.25454316  1
  O  O67  1  0.52535378  0.68294390  0.25502270  1
  O  O68  1  0.15829364  0.47350415  0.25304309  1
  O  O69  1  0.31495238  0.48675944  0.76202973  1
  O  O70  1  0.16641252  0.69003435  0.75726718  1
  O  O71  1  0.52271762  0.83517872  0.75770339  1
loop_
_geom_bond_atom_site_label_1
_geom_bond_atom_site_label_2
_geom_bond_distance
_geom_bond_site_symmetry_2
Na0 O66 2.402933 1_555
Na0 O51 2.432525 1_455
Na0 O52 2.447116 1_455
Na0 O68 2.447640 1_555
Na0 O30 2.517852 1_555
Na0 O15 2.783709 1_455
Na0 O1 2.809338 1_455
Na0 O11 2.903202 1_555
Na1 O64 2.414812 1_555
Na1 O65 2.435156 1_555
Na1 O43 2.453986 1_555
Na1 O42 2.512063 1_455
Na1 O7 2.569041 1_555
Na1 O28 2.681879 1_555
Na1 O14 2.750650 1_555
Na1 O21 2.914490 1_555
Na2 O44 2.366604 1_455
Na2 O65 2.406627 1_555
Na2 O63 2.505093 1_555
Na2 O43 2.540266 1_565
Na2 O29 2.586678 1_555
Na2 O8 2.748683 1_555
Na2 O12 2.845999 1_455
Na2 O22 2.870669 1_455
Na3 O42 2.393637 1_565
Na3 O64 2.398299 1_555
Na3 O63 2.461200 1_555
Na3 O44 2.465034 1_555
Na3 O27 2.514923 1_555
Na3 O6 2.685217 1_555
Na3 O23 2.914399 1_565
Na3 O13 2.920889 1_565
Na4 O45 2.319300 1_555
Na4 O60 2.401206 1_555
Na4 O62 2.433319 1_555
Na4 O24 2.524600 1_554
Na4 O46 2.540145 1_565
Na4 O9 2.649876 1_555
Na4 O17 2.890922 1_555
Na4 O19 2.901812 1_555
Na5 O61 2.340827 1_555
Na5 O46 2.403407 1_455
Na5 O47 2.471261 1_555
Na5 O60 2.501333 1_555
Na5 O10 2.585455 1_555
Na5 O25 2.608047 1_554
Na5 O15 2.835010 1_455
Na5 O20 2.925525 1_455
Na6 O41 2.365747 1_555
Na6 O40 2.390186 1_655
Na6 O55 2.452147 1_555
Na6 O4 2.555484 1_555
Na6 O54 2.646154 1_555
Na6 O33 2.719758 1_655
Na6 O26 2.782195 1_655
Na6 O19 2.865906 1_556
Na7 O40 2.372938 1_545
Na7 O39 2.400381 1_555
Na7 O54 2.434478 1_555
Na7 O3 2.443135 1_555
Na7 O56 2.523269 1_555
Na7 O35 2.763352 1_555
Na7 O18 2.820847 1_556
Na7 O25 2.930185 1_555
Na8 O36 2.355754 1_655
Na8 O37 2.414156 1_555
Na8 O58 2.475778 1_555
Na8 O59 2.504503 1_555
Na8 O22 2.679726 1_555
Na8 O1 2.758086 1_555
Na8 O27 2.786200 1_555
Na8 O32 2.794332 1_555
Na9 O37 2.440775 1_545
Na9 O36 2.461644 1_645
Na9 O38 2.504935 1_655
Na9 O42 2.555666 1_555
Na9 O44 2.624740 1_545
Na9 O43 2.677117 1_655
Na10 O41 2.495115 1_455
Na10 O40 2.501924 1_555
Na10 O39 2.538473 1_565
Na10 O45 2.538932 1_456
Na10 O47 2.618046 1_566
Na10 O46 2.631058 1_466
Na11 O49 2.328761 1_555
Na11 O48 2.356203 1_555
Na11 O50 2.470975 1_555
Na11 O56 2.679760 1_555
Na11 O55 2.734136 1_555
Na11 O54 2.749165 1_555
Na12 O57 2.466514 1_555
Na12 O53 2.475012 1_555
Na12 O52 2.542209 1_555
Na12 O58 2.579430 1_555
Na12 O59 2.635247 1_555
Na12 O51 2.714712 1_555
Na13 O66 2.411910 1_555
Na13 O67 2.487746 1_555
Na13 O68 2.502804 1_555
Na13 O61 2.620950 1_555
Na13 O62 2.623304 1_555
Na13 O60 2.691061 1_555
Na14 O65 2.536236 1_555
Na14 O69 2.543568 1_555
Na14 O64 2.546770 1_555
Na14 O71 2.576715 1_555
Na14 O70 2.578043 1_555
Na14 O63 2.665043 1_555
Mg0 O37 2.047224 1_445
Mg0 O2 2.050179 1_455
Mg0 O38 2.067063 1_555
Mg0 O36 2.076797 1_545
Mg0 O0 2.080476 1_555
Mg0 O1 2.120428 1_445
Mg1 O3 1.985704 1_555
Mg1 O5 2.015747 1_455
Mg1 O39 2.063442 1_555
Mg1 O4 2.066645 1_445
Mg1 O41 2.133747 1_445
Mg1 O40 2.138827 1_545
Mg2 O7 2.029754 1_655
Mg2 O6 2.066218 1_545
Mg2 O8 2.118685 1_645
Mg2 O42 2.121139 1_555
Mg2 O44 2.172347 1_545
Mg2 O43 2.204961 1_655
Mg3 O11 1.978585 1_555
Mg3 O9 2.062032 1_455
Mg3 O10 2.071510 1_565
Mg3 O45 2.123282 1_455
Mg3 O47 2.186007 1_565
Mg3 O46 2.260527 1_465
Mg4 O14 1.969377 1_555
Mg4 O12 2.014542 1_555
Mg4 O49 2.055435 1_555
Mg4 O13 2.084431 1_555
Mg4 O50 2.128243 1_555
Mg4 O48 2.172076 1_555
Mg5 O15 2.022142 1_555
Mg5 O16 2.032984 1_555
Mg5 O17 2.050064 1_555
Mg5 O53 2.070400 1_555
Mg5 O51 2.096590 1_555
Mg5 O52 2.107258 1_555
Mg6 O26 1.933895 1_554
Mg6 O25 2.013466 1_554
Mg6 O24 2.034054 1_554
Mg6 O61 2.067957 1_555
Mg6 O62 2.143434 1_555
Mg6 O60 2.230310 1_555
Mg7 O29 1.988326 1_555
Mg7 O27 1.998458 1_555
Mg7 O28 2.050248 1_555
Mg7 O64 2.115955 1_555
Mg7 O65 2.134547 1_555
Mg7 O63 2.170626 1_555
Mg8 O31 1.960110 1_555
Mg8 O30 2.012678 1_555
Mg8 O32 2.070359 1_555
Mg8 O66 2.163164 1_555
Mg8 O67 2.179707 1_555
Mg8 O68 2.241547 1_555
O0 S0 1.465763 1_555
O1 S1 1.482273 1_555
O2 S2 1.455615 1_655
O3 P0 1.529540 1_555
O4 S3 1.478137 1_655
O5 S4 1.461055 1_545
O6 S4 1.481968 1_555
O7 P0 1.536354 1_555
O8 S3 1.476228 1_555
O9 S1 1.499601 1_555
O10 S2 1.498283 1_555
O11 S0 1.493095 1_565
O12 P1 1.510261 1_555
O13 S5 1.460667 1_555
O14 P2 1.513539 1_555
O15 P3 1.527992 1_555
O16 S6 1.451904 1_555
O17 S7 1.458901 1_555
O18 S7 1.504554 1_555
O18 Ti0 2.121693 1_554
O19 P3 1.628792 1_555
O19 Ti0 1.921171 1_554
O20 S6 1.508428 1_555
O20 Ti0 2.056080 1_554
O21 S5 1.492709 1_555
O21 Ti1 2.164044 1_555
O22 P2 1.593119 1_555
O22 Ti1 1.983855 1_555
O23 P1 1.608214 1_555
O23 Ti1 1.852596 1_555
O24 P4 1.517074 1_555
O25 P5 1.524514 1_555
O26 P6 1.510874 1_555
O27 P7 1.540062 1_555
O28 S8 1.479066 1_555
O29 P8 1.522719 1_555
O30 P8 1.529077 1_555
O31 P7 1.517939 1_555
O32 S8 1.477837 1_555
O33 P5 1.558603 1_555
O33 Ti2 1.997763 1_555
O34 P6 1.548166 1_555
O34 Ti2 2.003289 1_555
O35 P4 1.556148 1_555
O35 Ti2 1.963928 1_555
O36 P8 1.537962 1_555
O37 P7 1.542651 1_555
O38 S8 1.463660 1_555
O39 P5 1.514111 1_555
O40 P6 1.542390 1_555
O41 P4 1.519001 1_555
O42 P1 1.546568 1_555
O43 S5 1.496658 1_555
O44 P2 1.555958 1_555
O45 P3 1.542176 1_555
O46 S6 1.505013 1_555
O47 S7 1.483150 1_555
O48 S4 1.471182 1_545
O49 P0 1.523388 1_555
O50 S3 1.469622 1_655
O51 S1 1.501054 1_555
O52 S2 1.503441 1_655
O53 S0 1.480511 1_555
O54 P4 1.625501 1_555
O54 Ti0 1.948517 1_555
O55 P5 1.603107 1_655
O55 Ti0 1.912122 1_555
O56 P6 1.597025 1_545
O56 Ti0 1.954803 1_555
O57 P7 1.597124 1_545
O57 Ti1 1.891819 1_555
O58 S8 1.514546 1_555
O58 Ti1 2.150986 1_555
O59 P8 1.631564 1_655
O59 Ti1 1.879323 1_555
O60 S7 1.500470 1_555
O61 P3 1.530403 1_455
O62 S6 1.475634 1_565
O63 S5 1.490786 1_565
O64 P2 1.547850 1_555
O65 P1 1.541993 1_455
O66 S0 1.499080 1_565
O67 S1 1.467407 1_555
O68 S2 1.494416 1_555
O69 P0 1.638333 1_555
O69 Ti2 1.869209 1_555
O70 S3 1.520967 1_555
O70 Ti2 2.058578 1_555
O71 S4 1.525354 1_555
O71 Ti2 2.033069 1_555
