# generated using pymatgen
data_FePO4
_symmetry_space_group_name_H-M   'P 1'
_cell_length_a   5.15386155
_cell_length_b   5.16295628
_cell_length_c   11.63813872
_cell_angle_alpha   89.45536701
_cell_angle_beta   90.05893149
_cell_angle_gamma   120.41512195
_symmetry_Int_Tables_number   1
_chemical_formula_structural   FePO4
_chemical_formula_sum   'Fe3 P3 O12'
_cell_volume   267.04819117
_cell_formula_units_Z   3
loop_
 _symmetry_equiv_pos_site_id
 _symmetry_equiv_pos_as_xyz
  1  'x, y, z'
loop_
 _atom_site_type_symbol
 _atom_site_label
 _atom_site_symmetry_multiplicity
 _atom_site_fract_x
 _atom_site_fract_y
 _atom_site_fract_z
 _atom_site_occupancy
  Fe  Fe0  1  0.53115400  0.52801400  0.00027700  1
  Fe  Fe1  1  0.00148500  0.46903700  0.66577400  1
  Fe  Fe2  1  0.46316400  0.00039600  0.33364500  1
  P  P0  1  0.53689000  0.53977100  0.49933800  1
  P  P1  1  0.00103500  0.45982200  0.16822000  1
  P  P2  1  0.46483500  0.00230000  0.83252000  1
  O  O0  1  0.25657900  0.40931700  0.12622800  1
  O  O1  1  0.58149400  0.84411200  0.45525400  1
  O  O2  1  0.16071500  0.75292400  0.78507800  1
  O  O3  1  0.84079500  0.59804000  0.54756800  1
  O  O4  1  0.73923400  0.15321600  0.21188500  1
  O  O5  1  0.42140400  0.26276500  0.87305300  1
  O  O6  1  0.43375500  0.31372500  0.39968200  1
  O  O7  1  0.70273800  0.11137500  0.73508600  1
  O  O8  1  0.88793000  0.57108800  0.06694900  1
  O  O9  1  0.11493500  0.68861100  0.26744800  1
  O  O10  1  0.56347600  0.88278100  0.93550900  1
  O  O11  1  0.29838000  0.41270800  0.59648800  1
loop_
_geom_bond_atom_site_label_1
_geom_bond_atom_site_label_2
_geom_bond_distance
_geom_bond_site_symmetry_2
Fe0 O10 1.901560 1_554
Fe0 O8 1.902348 1_555
Fe0 O0 1.906804 1_555
Fe0 O5 1.907936 1_554
Fe1 O7 1.877956 1_455
Fe1 O11 1.879826 1_555
Fe1 O3 1.886998 1_455
Fe1 O2 1.888930 1_555
Fe2 O1 1.871052 1_545
Fe2 O4 1.871160 1_555
Fe2 O9 1.871185 1_545
Fe2 O6 1.871563 1_555
O0 P1 1.546897 1_555
O1 P0 1.550559 1_555
O2 P2 1.545216 1_565
O3 P0 1.543735 1_555
O4 P1 1.551820 1_655
O5 P2 1.548577 1_555
O6 P0 1.544698 1_555
O7 P2 1.548526 1_555
O8 P1 1.543924 1_655
O9 P1 1.547893 1_555
O10 P2 1.542139 1_565
O11 P0 1.546615 1_555
