# generated using pymatgen
data_MgTe4Mo2W2(SeS)2
_symmetry_space_group_name_H-M   'P 1'
_cell_length_a   3.39880400
_cell_length_b   3.39867048
_cell_length_c   45.35443115
_cell_angle_alpha   89.99172326
_cell_angle_beta   90.00000884
_cell_angle_gamma   120.00128008
_symmetry_Int_Tables_number   1
_chemical_formula_structural   MgTe4Mo2W2(SeS)2
_chemical_formula_sum   'Mg1 Te4 Mo2 W2 Se2 S2'
_cell_volume   453.71164732
_cell_formula_units_Z   1
loop_
 _symmetry_equiv_pos_site_id
 _symmetry_equiv_pos_as_xyz
  1  'x, y, z'
loop_
 _atom_site_type_symbol
 _atom_site_label
 _atom_site_symmetry_multiplicity
 _atom_site_fract_x
 _atom_site_fract_y
 _atom_site_fract_z
 _atom_site_occupancy
  Mg  Mg0  1  0.00000500  0.00001000  0.55132300  1
  Te  Te0  1  0.33338300  0.66676800  0.70567400  1
  Te  Te1  1  0.66662700  0.33325400  0.05257000  1
  Te  Te2  1  0.66651100  0.33302100  0.13515500  1
  Te  Te3  1  0.33348700  0.66697500  0.62241000  1
  Mo  Mo0  1  0.33322100  0.66644400  0.09385300  1
  Mo  Mo1  1  0.33329700  0.66659500  0.46292300  1
  W  W0  1  0.66669900  0.33339900  0.28201600  1
  W  W1  1  0.66677900  0.33356100  0.66420100  1
  Se  Se0  1  0.33331400  0.66662900  0.31851400  1
  Se  Se1  1  0.33339500  0.66679300  0.24552300  1
  S  S0  1  0.66667600  0.33335000  0.43013500  1
  S  S1  1  0.66660200  0.33320500  0.49653300  1
loop_
_geom_bond_atom_site_label_1
_geom_bond_atom_site_label_2
_geom_bond_distance
_geom_bond_site_symmetry_2
Mg0 S1 3.166067 1_555
Mg0 S1 3.166068 1_455
Mg0 S1 3.166783 1_445
Te0 W1 2.718180 1_555
Te0 W1 2.718182 1_455
Te0 W1 2.718189 1_565
Te3 W1 2.728172 1_555
Te3 W1 2.728177 1_455
Te3 W1 2.728204 1_565
Mo0 Te1 2.712205 1_455
Mo0 Te1 2.712209 1_555
Mo0 Te1 2.712270 1_565
Mo0 Te2 2.712821 1_565
Mo0 Te2 2.712821 1_455
Mo0 Te2 2.712827 1_555
Mo1 S0 2.462048 1_565
Mo1 S0 2.462091 1_455
Mo1 S0 2.462098 1_555
Mo1 S1 2.484760 1_555
Mo1 S1 2.484760 1_455
Mo1 S1 2.484803 1_565
Se0 W0 2.567197 1_565
Se0 W0 2.567224 1_555
Se0 W0 2.567224 1_455
Se1 W0 2.567049 1_455
Se1 W0 2.567053 1_555
Se1 W0 2.567104 1_565
