# generated using pymatgen
data_Mg(MoO3)4
_symmetry_space_group_name_H-M   'P 1'
_cell_length_a   3.73631900
_cell_length_b   3.93702971
_cell_length_c   16.65663639
_cell_angle_alpha   89.28752212
_cell_angle_beta   90.00000000
_cell_angle_gamma   90.00000000
_symmetry_Int_Tables_number   1
_chemical_formula_structural   Mg(MoO3)4
_chemical_formula_sum   'Mg1 Mo4 O12'
_cell_volume   245.00015959
_cell_formula_units_Z   1
loop_
 _symmetry_equiv_pos_site_id
 _symmetry_equiv_pos_as_xyz
  1  'x, y, z'
loop_
 _atom_site_type_symbol
 _atom_site_label
 _atom_site_symmetry_multiplicity
 _atom_site_fract_x
 _atom_site_fract_y
 _atom_site_fract_z
 _atom_site_occupancy
  Mg  Mg0  1  0.75000000  0.99798300  0.52827500  1
  Mo  Mo0  1  0.25000100  0.49239700  0.62549900  1
  Mo  Mo1  1  0.75000000  0.50725900  0.38154700  1
  Mo  Mo2  1  0.75000000  0.94268800  0.90970800  1
  Mo  Mo3  1  0.25000100  0.06118600  0.08994800  1
  O  O0  1  0.25000100  0.48580700  0.72650100  1
  O  O1  1  0.75000000  0.51454500  0.27987200  1
  O  O2  1  0.75000000  0.98184800  0.80714800  1
  O  O3  1  0.25000100  0.01991500  0.19147600  1
  O  O4  1  0.25000100  0.50471100  0.43429600  1
  O  O5  1  0.75000000  0.49527500  0.57768700  1
  O  O6  1  0.75000000  0.99949600  0.05571900  1
  O  O7  1  0.25000100  0.99654300  0.94252000  1
  O  O8  1  0.25000100  0.99452800  0.58829600  1
  O  O9  1  0.75000000  0.48579400  0.92155000  1
  O  O10  1  0.75000000  0.00582700  0.41331400  1
  O  O11  1  0.25000100  0.51419700  0.07664800  1
loop_
_geom_bond_atom_site_label_1
_geom_bond_atom_site_label_2
_geom_bond_distance
_geom_bond_site_symmetry_2
Mg0 O10 1.914729 1_565
Mg0 O8 2.118808 1_555
Mg0 O8 2.118815 1_655
Mg0 O5 2.133227 1_565
Mg0 O5 2.134015 1_555
Mo0 O0 1.682231 1_555
Mo0 O5 2.030798 1_555
Mo0 O5 2.030805 1_455
Mo0 O8 2.063080 1_545
Mo0 O8 2.064385 1_555
Mo1 O1 1.693450 1_555
Mo1 O10 2.037469 1_555
Mo1 O10 2.039288 1_565
Mo1 O4 2.064428 1_555
Mo1 O4 2.064435 1_655
Mo2 O2 1.713337 1_555
Mo2 O9 1.807148 1_555
Mo2 O7 1.958711 1_555
Mo2 O7 1.958718 1_655
Mo2 O9 2.149744 1_565
Mo2 O6 2.445082 1_556
Mo3 O3 1.696891 1_555
Mo3 O11 1.794488 1_555
Mo3 O6 1.969136 1_545
Mo3 O6 1.969143 1_445
Mo3 O11 2.167615 1_545
Mo3 O7 2.471953 1_544
