# generated using pymatgen
data_MgIn6WO12
_symmetry_space_group_name_H-M   'P 1'
_cell_length_a   6.45905433
_cell_length_b   6.45905480
_cell_length_c   6.45905396
_cell_angle_alpha   92.00639342
_cell_angle_beta   92.00640480
_cell_angle_gamma   92.00639327
_symmetry_Int_Tables_number   1
_chemical_formula_structural   MgIn6WO12
_chemical_formula_sum   'Mg1 In6 W1 O12'
_cell_volume   268.96026153
_cell_formula_units_Z   1
loop_
 _symmetry_equiv_pos_site_id
 _symmetry_equiv_pos_as_xyz
  1  'x, y, z'
loop_
 _atom_site_type_symbol
 _atom_site_label
 _atom_site_symmetry_multiplicity
 _atom_site_fract_x
 _atom_site_fract_y
 _atom_site_fract_z
 _atom_site_occupancy
  Mg  Mg0  1  0.22958558  0.22958558  0.22958558  1
  In  In0  1  0.40954317  0.90222387  0.71850257  1
  In  In1  1  0.90222387  0.71850257  0.40954317  1
  In  In2  1  0.71850257  0.40954317  0.90222388  1
  In  In3  1  0.67862637  0.18250824  0.41076587  1
  In  In4  1  0.18250824  0.41076587  0.67862637  1
  In  In5  1  0.41076587  0.67862637  0.18250824  1
  W  W0  1  0.96020507  0.96020507  0.96020507  1
  O  O0  1  0.17408696  0.53593178  0.35847621  1
  O  O1  1  0.53593178  0.35847621  0.17408696  1
  O  O2  1  0.35847621  0.17408696  0.53593178  1
  O  O3  1  0.83814905  0.43207436  0.59196045  1
  O  O4  1  0.43207436  0.59196045  0.83814905  1
  O  O5  1  0.59196045  0.83814905  0.43207436  1
  O  O6  1  0.69817560  0.06169940  0.84101576  1
  O  O7  1  0.04419703  0.27419691  0.94974173  1
  O  O8  1  0.94974173  0.04419703  0.27419691  1
  O  O9  1  0.27419691  0.94974173  0.04419703  1
  O  O10  1  0.84101576  0.69817560  0.06169940  1
  O  O11  1  0.06169940  0.84101576  0.69817560  1
loop_
_geom_bond_atom_site_label_1
_geom_bond_atom_site_label_2
_geom_bond_distance
_geom_bond_site_symmetry_2
Mg0 O2 2.166119 1_555
Mg0 O1 2.166119 1_555
Mg0 O0 2.166119 1_555
Mg0 O7 2.166357 1_554
Mg0 O8 2.166358 1_455
Mg0 O9 2.166358 1_545
In0 O2 2.177422 1_565
In0 O4 2.180698 1_555
In0 O6 2.206345 1_565
In0 O5 2.261727 1_555
In0 O11 2.266032 1_555
In0 O9 2.320831 1_556
In1 O0 2.177422 1_655
In1 O5 2.180698 1_555
In1 O11 2.206345 1_655
In1 O3 2.261727 1_555
In1 O10 2.266031 1_555
In1 O8 2.320831 1_565
In2 O1 2.177422 1_556
In2 O3 2.180698 1_555
In2 O10 2.206345 1_556
In2 O4 2.261727 1_555
In2 O6 2.266032 1_555
In2 O7 2.320831 1_655
In3 O1 2.138845 1_555
In3 O3 2.167243 1_555
In3 O8 2.192088 1_555
In3 O2 2.246084 1_555
In3 O5 2.284549 1_545
In4 O2 2.138845 1_555
In4 O4 2.167243 1_555
In4 O7 2.192088 1_555
In4 O0 2.246084 1_555
In4 O3 2.284549 1_455
In5 O0 2.138845 1_555
In5 O5 2.167243 1_555
In5 O9 2.192088 1_555
In5 O1 2.246084 1_555
In5 O4 2.284549 1_554
O6 W0 1.977030 1_545
O7 W0 2.084984 1_445
O8 W0 2.084983 1_544
O9 W0 2.084983 1_454
O10 W0 1.977030 1_554
O11 W0 1.977030 1_455
