# generated using pymatgen
data_LiNiP2O7
_symmetry_space_group_name_H-M   'P 1'
_cell_length_a   6.34183600
_cell_length_b   6.41552821
_cell_length_c   6.90077074
_cell_angle_alpha   84.72397257
_cell_angle_beta   67.05608222
_cell_angle_gamma   81.87242997
_symmetry_Int_Tables_number   1
_chemical_formula_structural   LiNiP2O7
_chemical_formula_sum   'Li2 Ni2 P4 O14'
_cell_volume   255.74795638
_cell_formula_units_Z   2
loop_
 _symmetry_equiv_pos_site_id
 _symmetry_equiv_pos_as_xyz
  1  'x, y, z'
loop_
 _atom_site_type_symbol
 _atom_site_label
 _atom_site_symmetry_multiplicity
 _atom_site_fract_x
 _atom_site_fract_y
 _atom_site_fract_z
 _atom_site_occupancy
  Li  Li0  1  0.71207200  0.00860900  0.83128800  1
  Li  Li1  1  0.28792800  0.99139100  0.16871200  1
  Ni  Ni0  1  0.90784000  0.35539200  0.21726800  1
  Ni  Ni1  1  0.09216000  0.64460800  0.78273200  1
  P  P0  1  0.78939500  0.86454200  0.23433400  1
  P  P1  1  0.65430100  0.60620400  0.64501500  1
  P  P2  1  0.21060500  0.13545800  0.76566600  1
  P  P3  1  0.34569900  0.39379600  0.35498500  1
  O  O0  1  0.22411500  0.31076900  0.22926900  1
  O  O1  1  0.61459800  0.94981400  0.13896200  1
  O  O2  1  0.93684200  0.02776100  0.24842800  1
  O  O3  1  0.38540200  0.05018600  0.86103800  1
  O  O4  1  0.35827900  0.21283500  0.52889000  1
  O  O5  1  0.06315800  0.97223900  0.75157200  1
  O  O6  1  0.05184000  0.33161000  0.87845000  1
  O  O7  1  0.59549500  0.40449000  0.20208200  1
  O  O8  1  0.77095300  0.40107800  0.53553200  1
  O  O9  1  0.64172100  0.78716500  0.47111000  1
  O  O10  1  0.40450500  0.59551000  0.79791800  1
  O  O11  1  0.94816000  0.66839000  0.12155000  1
  O  O12  1  0.77588500  0.68923100  0.77073100  1
  O  O13  1  0.22904700  0.59892200  0.46446800  1
loop_
_geom_bond_atom_site_label_1
_geom_bond_atom_site_label_2
_geom_bond_distance
_geom_bond_site_symmetry_2
Li0 O3 1.981769 1_555
Li0 O1 1.981840 1_546
Li0 O5 2.058217 1_645
Li0 O12 2.080355 1_545
Li1 O1 1.981769 1_555
Li1 O3 1.981840 1_564
Li1 O2 2.058217 1_465
Li1 O0 2.080355 1_565
Ni0 O7 2.003317 1_555
Ni0 O0 2.018587 1_655
Ni0 O8 2.055006 1_555
Ni0 O11 2.074489 1_555
Ni0 O2 2.082441 1_555
Ni0 O6 2.164593 1_654
Ni1 O10 2.003317 1_555
Ni1 O12 2.018587 1_455
Ni1 O13 2.055006 1_555
Ni1 O6 2.074489 1_555
Ni1 O5 2.082441 1_555
Ni1 O11 2.164593 1_456
O0 P3 1.534127 1_555
O1 P0 1.514069 1_555
O2 P0 1.531939 1_545
O3 P2 1.514069 1_555
O4 P2 1.607012 1_555
O4 P3 1.608295 1_555
O5 P2 1.531939 1_565
O6 P2 1.553712 1_555
O7 P3 1.530300 1_555
O8 P1 1.523723 1_555
O9 P0 1.607012 1_555
O9 P1 1.608295 1_555
O10 P1 1.530300 1_555
O11 P0 1.553712 1_555
O12 P1 1.534127 1_555
O13 P3 1.523723 1_555
