# generated using pymatgen
data_ScTiP(SO6)2
_symmetry_space_group_name_H-M   'P 1'
_cell_length_a   8.74111802
_cell_length_b   8.74972511
_cell_length_c   22.53888889
_cell_angle_alpha   89.72633629
_cell_angle_beta   90.00000000
_cell_angle_gamma   119.96746487
_symmetry_Int_Tables_number   1
_chemical_formula_structural   ScTiP(SO6)2
_chemical_formula_sum   'Sc6 Ti6 P6 S12 O72'
_cell_volume   1493.34521438
_cell_formula_units_Z   6
loop_
 _symmetry_equiv_pos_site_id
 _symmetry_equiv_pos_as_xyz
  1  'x, y, z'
loop_
 _atom_site_type_symbol
 _atom_site_label
 _atom_site_symmetry_multiplicity
 _atom_site_fract_x
 _atom_site_fract_y
 _atom_site_fract_z
 _atom_site_occupancy
  Sc  Sc0  1  0.00111881  0.99922901  0.35578496  1
  Sc  Sc1  1  0.99811019  0.99922901  0.85578496  1
  Sc  Sc2  1  0.67585405  0.33778882  0.68946648  1
  Sc  Sc3  1  0.66193577  0.33778882  0.18946648  1
  Sc  Sc4  1  0.32992294  0.65711599  0.02264443  1
  Sc  Sc5  1  0.32719205  0.65711599  0.52264443  1
  Ti  Ti0  1  0.00018823  0.99861132  0.64389055  1
  Ti  Ti1  1  0.99842309  0.99861132  0.14389055  1
  Ti  Ti2  1  0.66026301  0.33084873  0.97732417  1
  Ti  Ti3  1  0.67058672  0.33084873  0.47732417  1
  Ti  Ti4  1  0.34449334  0.65637080  0.31064676  1
  Ti  Ti5  1  0.31187646  0.65637080  0.81064676  1
  P  P0  1  0.71619044  0.71746345  0.25009873  1
  P  P1  1  0.00127301  0.71746345  0.75009873  1
  P  P2  1  0.95057784  0.32703773  0.58364479  1
  P  P3  1  0.37646089  0.32703773  0.08364479  1
  P  P4  1  0.03975530  0.37842639  0.91792394  1
  P  P5  1  0.33867010  0.37842639  0.41792394  1
  S  S0  1  0.28534418  0.99249908  0.25015444  1
  S  S1  1  0.00349433  0.28991058  0.24964264  1
  S  S2  1  0.28641625  0.28991058  0.74964264  1
  S  S3  1  0.70715490  0.99249908  0.75015444  1
  S  S4  1  0.37762916  0.04767172  0.58343519  1
  S  S5  1  0.67123285  0.62348521  0.58326253  1
  S  S6  1  0.95225336  0.62348521  0.08326253  1
  S  S7  1  0.67004356  0.04767172  0.08343519  1
  S  S8  1  0.61793738  0.66241623  0.91644785  1
  S  S9  1  0.33767890  0.95576336  0.91673792  1
  S  S10  1  0.61808346  0.95576336  0.41673792  1
  S  S11  1  0.04447785  0.66241623  0.41644785  1
  O  O0  1  0.20767202  0.02698801  0.30265201  1
  O  O1  1  0.82523706  0.80108323  0.30500871  1
  O  O2  1  0.97394749  0.18166112  0.30279984  1
  O  O3  1  0.20771364  0.18166112  0.80279984  1
  O  O4  1  0.97584617  0.80108323  0.80500871  1
  O  O5  1  0.81931599  0.02698801  0.80265201  1
  O  O6  1  0.79386175  0.96596844  0.69676924  1
  O  O7  1  0.17238720  0.20907113  0.69643647  1
  O  O8  1  0.03333994  0.83832605  0.69449463  1
  O  O9  1  0.80498611  0.83832605  0.19449463  1
  O  O10  1  0.03668393  0.20907113  0.19643647  1
  O  O11  1  0.17210669  0.96596844  0.19676924  1
  O  O12  1  0.86577116  0.35642732  0.63773004  1
  O  O13  1  0.48449378  0.12658141  0.63633137  1
  O  O14  1  0.63802065  0.51380865  0.63626408  1
  O  O15  1  0.87578900  0.51380865  0.13626408  1
  O  O16  1  0.64208862  0.12658141  0.13633137  1
  O  O17  1  0.49065716  0.35642732  0.13773004  1
  O  O18  1  0.46897390  0.29819448  0.02797043  1
  O  O19  1  0.83951922  0.54163917  0.03017959  1
  O  O20  1  0.70209757  0.16175187  0.02976148  1
  O  O21  1  0.45965530  0.16175187  0.52976148  1
  O  O22  1  0.70212095  0.54163917  0.53017959  1
  O  O23  1  0.82922158  0.29819448  0.52797043  1
  O  O24  1  0.54153137  0.69382778  0.96967044  1
  O  O25  1  0.15738910  0.46536288  0.97087429  1
  O  O26  1  0.30954307  0.84881428  0.96986339  1
  O  O27  1  0.53927021  0.84881428  0.46986339  1
  O  O28  1  0.30797279  0.46536288  0.47087429  1
  O  O29  1  0.15229541  0.69382778  0.46967044  1
  O  O30  1  0.12542779  0.63196072  0.36350613  1
  O  O31  1  0.50548083  0.87466049  0.36334310  1
  O  O32  1  0.36952774  0.50246141  0.36132516  1
  O  O33  1  0.13293267  0.50246141  0.86132516  1
  O  O34  1  0.36917866  0.87466049  0.86334310  1
  O  O35  1  0.50653193  0.63196072  0.86350613  1
  O  O36  1  0.01902660  0.81476805  0.40865209  1
  O  O37  1  0.79539552  0.98079400  0.40847739  1
  O  O38  1  0.18120563  0.19873916  0.40580459  1
  O  O39  1  0.01753353  0.19873916  0.90580459  1
  O  O40  1  0.18539847  0.98079400  0.90847739  1
  O  O41  1  0.79574145  0.81476805  0.90865209  1
  O  O42  1  0.96807133  0.15912407  0.59486862  1
  O  O43  1  0.19946100  0.03207746  0.59176783  1
  O  O44  1  0.83308124  0.80094804  0.59193039  1
  O  O45  1  0.96786680  0.80094804  0.09193039  1
  O  O46  1  0.83261646  0.03207746  0.09176783  1
  O  O47  1  0.19105274  0.15912407  0.09486862  1
  O  O48  1  0.68384247  0.14585522  0.74139989  1
  O  O49  1  0.46141524  0.31169622  0.74057423  1
  O  O50  1  0.84655949  0.53392385  0.74071438  1
  O  O51  1  0.68736536  0.53392385  0.24071438  1
  O  O52  1  0.85028198  0.31169622  0.24057423  1
  O  O53  1  0.46201375  0.14585522  0.24139989  1
  O  O54  1  0.63596513  0.50130044  0.92581145  1
  O  O55  1  0.85658973  0.36419944  0.92866780  1
  O  O56  1  0.49999610  0.13403069  0.92482247  1
  O  O57  1  0.63403559  0.13403069  0.42482247  1
  O  O58  1  0.50761071  0.36419944  0.42866780  1
  O  O59  1  0.86533631  0.50130044  0.42581145  1
  O  O60  1  0.35253813  0.48517794  0.07364710  1
  O  O61  1  0.12999368  0.65022624  0.07479487  1
  O  O62  1  0.51751430  0.87239403  0.07425605  1
  O  O63  1  0.35487873  0.87239403  0.57425605  1
  O  O64  1  0.52023155  0.65022624  0.57479487  1
  O  O65  1  0.13263881  0.48517794  0.57364710  1
  O  O66  1  0.29959857  0.83207350  0.25911255  1
  O  O67  1  0.52844257  0.70112561  0.26018293  1
  O  O68  1  0.16423820  0.46831922  0.25842962  1
  O  O69  1  0.30408002  0.46831922  0.75842962  1
  O  O70  1  0.17268204  0.70112561  0.76018293  1
  O  O71  1  0.53247394  0.83207350  0.75911255  1
loop_
_geom_bond_atom_site_label_1
_geom_bond_atom_site_label_2
_geom_bond_distance
_geom_bond_site_symmetry_2
O0 S0 1.469751 1_545
O0 Sc0 2.076563 1_545
O1 P0 1.512447 1_555
O1 Sc0 2.008803 1_655
O2 S1 1.464252 1_655
O2 Sc0 2.095489 1_645
O3 S2 1.464252 1_555
O3 Sc1 2.095489 1_445
O4 P1 1.512447 1_655
O4 Sc1 2.008803 1_555
O5 S3 1.469751 1_545
O5 Sc1 2.076563 1_545
O6 S3 1.501516 1_555
O6 Ti0 2.058365 1_655
O7 S2 1.495218 1_555
O7 Ti0 2.076307 1_545
O8 P1 1.568044 1_555
O8 Ti0 1.934541 1_555
O9 P0 1.568044 1_555
O9 Ti1 1.934541 1_555
O10 S1 1.495218 1_555
O10 Ti1 2.076307 1_445
O11 S0 1.501516 1_555
O11 Ti1 2.058365 1_455
O12 P2 1.514961 1_555
O12 Sc2 1.967220 1_555
O13 S4 1.460896 1_555
O13 Sc2 2.140173 1_555
O14 S5 1.463891 1_555
O14 Sc2 2.100103 1_555
O15 S6 1.463891 1_555
O15 Sc3 2.100103 1_555
O16 S7 1.460896 1_555
O16 Sc3 2.140173 1_555
O17 P3 1.514961 1_555
O17 Sc3 1.967220 1_555
O18 P3 1.580873 1_555
O18 Ti2 1.923577 1_554
O19 S6 1.489474 1_555
O19 Ti2 2.099986 1_554
O20 S7 1.499133 1_555
O20 Ti2 2.059961 1_554
O21 S4 1.499133 1_555
O21 Ti3 2.059961 1_555
O22 S5 1.489474 1_555
O22 Ti3 2.099986 1_555
O23 P2 1.580873 1_555
O23 Ti3 1.923577 1_555
O24 S8 1.465302 1_555
O24 Sc4 2.086358 1_556
O25 P4 1.512450 1_555
O25 Sc4 1.985403 1_556
O26 S9 1.459206 1_555
O26 Sc4 2.130669 1_556
O27 S10 1.459206 1_555
O27 Sc5 2.130669 1_555
O28 P5 1.512450 1_555
O28 Sc5 1.985403 1_555
O29 S11 1.465302 1_555
O29 Sc5 2.086358 1_555
O30 S11 1.478833 1_555
O30 Ti4 2.172735 1_555
O31 S10 1.493673 1_555
O31 Ti4 2.091768 1_555
O32 P5 1.603822 1_555
O32 Ti4 1.856286 1_555
O33 P4 1.603822 1_555
O33 Ti5 1.856286 1_555
O34 S9 1.493673 1_555
O34 Ti5 2.091768 1_555
O35 S8 1.478833 1_555
O35 Ti5 2.172735 1_555
O36 S11 1.466761 1_555
O36 Sc0 2.069613 1_555
O37 S10 1.464696 1_555
O37 Sc0 2.092507 1_655
O38 P5 1.511027 1_555
O38 Sc0 2.017390 1_545
O39 P4 1.511030 1_555
O39 Sc1 2.017390 1_445
O40 S9 1.464688 1_555
O40 Sc1 2.092507 1_455
O41 S8 1.466766 1_555
O41 Sc1 2.069613 1_555
O42 P2 1.570608 1_555
O42 Ti0 1.910797 1_645
O43 S4 1.505595 1_555
O43 Ti0 1.996781 1_545
O44 S5 1.502999 1_555
O44 Ti0 1.997974 1_655
O45 S6 1.503003 1_555
O45 Ti1 1.997974 1_555
O46 S7 1.505586 1_555
O46 Ti1 1.996781 1_545
O47 P3 1.570613 1_555
O47 Ti1 1.910797 1_445
O48 S3 1.466828 1_545
O48 Sc2 2.072110 1_555
O49 S2 1.458212 1_555
O49 Sc2 2.112463 1_555
O50 P1 1.512020 1_655
O50 Sc2 1.991617 1_555
O51 P0 1.512024 1_555
O51 Sc3 1.991617 1_555
O52 S1 1.458203 1_655
O52 Sc3 2.112463 1_555
O53 S0 1.466834 1_545
O53 Sc3 2.072110 1_555
O54 S8 1.508564 1_555
O54 Ti2 1.979222 1_555
O55 P4 1.561464 1_655
O55 Ti2 1.931198 1_555
O56 S9 1.506999 1_545
O56 Ti2 1.984386 1_555
O57 S10 1.506992 1_545
O57 Ti3 1.984386 1_555
O58 P5 1.561481 1_555
O58 Ti3 1.931198 1_555
O59 S11 1.508554 1_655
O59 Ti3 1.979222 1_555
O60 P3 1.514980 1_555
O60 Sc4 1.975946 1_555
O61 S6 1.463355 1_455
O61 Sc4 2.081689 1_555
O62 S7 1.460391 1_565
O62 Sc4 2.127280 1_555
O63 S4 1.460384 1_565
O63 Sc5 2.127280 1_555
O64 S5 1.463372 1_555
O64 Sc5 2.081689 1_555
O65 P2 1.514970 1_455
O65 Sc5 1.975946 1_555
O66 S0 1.482776 1_555
O66 Ti4 2.110032 1_555
O67 P0 1.590820 1_555
O67 Ti4 1.843678 1_555
O68 S1 1.504002 1_555
O68 Ti4 2.000898 1_555
O69 S2 1.504006 1_555
O69 Ti5 2.000898 1_555
O70 P1 1.590811 1_555
O70 Ti5 1.843678 1_555
O71 S3 1.482781 1_555
O71 Ti5 2.110033 1_555
