# generated using pymatgen
data_Ce2Co17
_symmetry_space_group_name_H-M   'P 1'
_cell_length_a   8.32484813
_cell_length_b   8.32484813
_cell_length_c   8.09540300
_cell_angle_alpha   90.00000000
_cell_angle_beta   90.00000000
_cell_angle_gamma   120.00000103
_symmetry_Int_Tables_number   1
_chemical_formula_structural   Ce2Co17
_chemical_formula_sum   'Ce4 Co34'
_cell_volume   485.87185150
_cell_formula_units_Z   2
loop_
 _symmetry_equiv_pos_site_id
 _symmetry_equiv_pos_as_xyz
  1  'x, y, z'
loop_
 _atom_site_type_symbol
 _atom_site_label
 _atom_site_symmetry_multiplicity
 _atom_site_fract_x
 _atom_site_fract_y
 _atom_site_fract_z
 _atom_site_occupancy
  Ce  Ce0  1  0.66666700  0.33333300  0.25000000  1
  Ce  Ce1  1  0.33333300  0.66666700  0.75000000  1
  Ce  Ce2  1  0.00000000  0.00000000  0.75000000  1
  Ce  Ce3  1  0.00000000  0.00000000  0.25000000  1
  Co  Co0  1  0.16733300  0.33466500  0.52316000  1
  Co  Co1  1  0.66533500  0.83266700  0.52316000  1
  Co  Co2  1  0.16733300  0.83266700  0.52316000  1
  Co  Co3  1  0.83266700  0.16733300  0.02316000  1
  Co  Co4  1  0.33333300  0.66666700  0.10529900  1
  Co  Co5  1  0.66666700  0.33333300  0.60529900  1
  Co  Co6  1  0.66666700  0.33333300  0.89470100  1
  Co  Co7  1  0.33333300  0.66666700  0.39470100  1
  Co  Co8  1  0.50000000  0.00000000  0.00000000  1
  Co  Co9  1  0.50000000  0.50000000  0.50000000  1
  Co  Co10  1  0.00000000  0.50000000  0.50000000  1
  Co  Co11  1  0.00000000  0.50000000  0.00000000  1
  Co  Co12  1  0.50000000  0.50000000  0.00000000  1
  Co  Co13  1  0.50000000  0.00000000  0.50000000  1
  Co  Co14  1  0.32798800  0.95160000  0.25000000  1
  Co  Co15  1  0.37638800  0.32798800  0.75000000  1
  Co  Co16  1  0.95160000  0.62361200  0.75000000  1
  Co  Co17  1  0.04840000  0.37638800  0.25000000  1
  Co  Co18  1  0.62361200  0.67201200  0.25000000  1
  Co  Co19  1  0.37638800  0.04840000  0.75000000  1
  Co  Co20  1  0.67201200  0.62361200  0.75000000  1
  Co  Co21  1  0.67201200  0.04840000  0.75000000  1
  Co  Co22  1  0.95160000  0.32798800  0.75000000  1
  Co  Co23  1  0.04840000  0.67201200  0.25000000  1
  Co  Co24  1  0.62361200  0.95160000  0.25000000  1
  Co  Co25  1  0.32798800  0.37638800  0.25000000  1
  Co  Co26  1  0.16733300  0.83266700  0.97684000  1
  Co  Co27  1  0.33466500  0.16733300  0.47684000  1
  Co  Co28  1  0.83266700  0.66533500  0.47684000  1
  Co  Co29  1  0.16733300  0.33466500  0.97684000  1
  Co  Co30  1  0.66533500  0.83266700  0.97684000  1
  Co  Co31  1  0.33466500  0.16733300  0.02316000  1
  Co  Co32  1  0.83266700  0.66533500  0.02316000  1
  Co  Co33  1  0.83266700  0.16733300  0.47684000  1
loop_
_geom_bond_atom_site_label_1
_geom_bond_atom_site_label_2
_geom_bond_distance
_geom_bond_site_symmetry_2
Ce0 Co5 2.876289 1_555
Ce0 Co6 2.876289 1_554
Ce0 Co17 3.014679 1_655
Ce0 Co24 3.014679 1_545
Ce0 Co14 3.014683 1_545
Ce0 Co23 3.014683 1_655
Ce0 Co25 3.014687 1_555
Ce0 Co18 3.014687 1_555
Ce0 Co3 3.016848 1_555
Ce0 Co33 3.016848 1_555
Ce0 Co31 3.016859 1_555
Ce0 Co27 3.016859 1_555
Ce0 Co32 3.016859 1_555
Ce0 Co28 3.016859 1_555
Ce0 Co11 3.141849 1_655
Ce0 Co8 3.141849 1_555
Ce0 Co10 3.141849 1_655
Ce0 Co13 3.141849 1_555
Ce0 Co9 3.141855 1_555
Ce0 Co12 3.141855 1_555
Ce1 Co7 2.876289 1_555
Ce1 Co4 2.876289 1_556
Ce1 Co19 3.014679 1_565
Ce1 Co16 3.014679 1_455
Ce1 Co21 3.014683 1_565
Ce1 Co22 3.014683 1_455
Ce1 Co15 3.014687 1_555
Ce1 Co20 3.014687 1_555
Ce1 Co26 3.016848 1_555
Ce1 Co2 3.016848 1_555
Ce1 Co30 3.016859 1_555
Ce1 Co29 3.016859 1_555
Ce1 Co0 3.016859 1_555
Ce1 Co1 3.016859 1_555
Ce1 Co10 3.141849 1_555
Ce1 Co13 3.141849 1_565
Ce1 Co11 3.141849 1_556
Ce1 Co8 3.141849 1_566
Ce1 Co9 3.141855 1_555
Ce1 Co12 3.141855 1_556
Ce2 Co20 2.952603 1_445
Ce2 Co15 2.952603 1_555
Ce2 Co16 2.952603 1_445
Ce2 Co19 2.952603 1_555
Ce2 Co21 2.952603 1_455
Ce2 Co22 2.952603 1_455
Ce2 Co0 3.032114 1_555
Ce2 Co29 3.032114 1_555
Ce2 Co1 3.032114 1_445
Ce2 Co30 3.032114 1_445
Ce2 Co26 3.032120 1_545
Ce2 Co2 3.032120 1_545
Ce2 Co31 3.272846 1_556
Ce2 Co27 3.272846 1_555
Ce2 Co32 3.272846 1_446
Ce2 Co28 3.272846 1_445
Ce2 Co33 3.272851 1_455
Ce2 Co3 3.272851 1_456
Ce3 Co18 2.952603 1_445
Ce3 Co25 2.952603 1_555
Ce3 Co17 2.952603 1_555
Ce3 Co24 2.952603 1_445
Ce3 Co14 2.952603 1_545
Ce3 Co23 2.952603 1_545
Ce3 Co31 3.032114 1_555
Ce3 Co32 3.032114 1_445
Ce3 Co28 3.032114 1_445
Ce3 Co27 3.032114 1_555
Ce3 Co33 3.032120 1_455
Ce3 Co3 3.032120 1_455
Ce3 Co30 3.272846 1_444
Ce3 Co0 3.272846 1_555
Ce3 Co1 3.272846 1_445
Ce3 Co29 3.272846 1_554
Ce3 Co2 3.272851 1_545
Ce3 Co26 3.272851 1_544
Co0 Co9 2.405704 1_555
Co0 Co10 2.405711 1_555
Co0 Co27 2.441735 1_555
Co0 Co33 2.441749 1_455
Co0 Co25 2.516912 1_555
Co0 Co17 2.516916 1_555
Co0 Co15 2.549681 1_555
Co0 Co22 2.549686 1_455
Co0 Co7 2.609725 1_555
Co1 Co9 2.405704 1_555
Co1 Co13 2.405711 1_565
Co1 Co28 2.441735 1_555
Co1 Co33 2.441749 1_565
Co1 Co18 2.516912 1_555
Co1 Co24 2.516916 1_555
Co1 Co20 2.549681 1_555
Co1 Co21 2.549686 1_565
Co1 Co7 2.609725 1_555
Co2 Co27 2.441749 1_565
Co2 Co28 2.441749 1_455
Co2 Co23 2.516913 1_555
Co2 Co7 2.609712 1_555
Co3 Co8 2.405704 1_555
Co3 Co30 2.441749 1_544
Co3 Co6 2.609712 1_554
Co4 Co7 2.342826 1_555
Co4 Co8 2.549882 1_565
Co5 Co6 2.342826 1_555
Co5 Co9 2.549889 1_555
Co6 Co8 2.549882 1_556
Co7 Co9 2.549889 1_555
Co10 Co23 2.394137 1_555
Co10 Co22 2.394137 1_455
Co10 Co17 2.394137 1_555
Co10 Co16 2.394137 1_455
Co10 Co33 2.405704 1_455
Co10 Co2 2.405704 1_555
Co10 Co28 2.405711 1_455
Co10 Co7 2.549882 1_555
Co10 Co5 2.549882 1_455
Co11 Co23 2.394137 1_555
Co11 Co22 2.394137 1_454
Co11 Co17 2.394137 1_555
Co11 Co16 2.394137 1_454
Co11 Co3 2.405704 1_455
Co11 Co26 2.405704 1_554
Co11 Co32 2.405711 1_455
Co11 Co29 2.405711 1_554
Co11 Co6 2.549882 1_454
Co11 Co4 2.549882 1_555
Co12 Co25 2.394137 1_555
Co12 Co15 2.394137 1_554
Co12 Co18 2.394137 1_555
Co12 Co20 2.394137 1_554
Co12 Co31 2.405704 1_555
Co12 Co29 2.405704 1_554
Co12 Co30 2.405704 1_554
Co12 Co32 2.405704 1_555
Co12 Co4 2.549889 1_555
Co12 Co6 2.549889 1_554
Co13 Co21 2.394137 1_555
Co13 Co14 2.394137 1_545
Co13 Co19 2.394137 1_555
Co13 Co24 2.394137 1_545
Co13 Co2 2.405704 1_545
Co13 Co33 2.405704 1_555
Co13 Co27 2.405711 1_555
Co13 Co7 2.549882 1_545
Co13 Co5 2.549882 1_555
Co14 Co23 2.327528 1_555
Co14 Co8 2.394137 1_565
Co14 Co24 2.461025 1_555
Co14 Co26 2.516913 1_554
Co14 Co2 2.516913 1_555
Co14 Co31 2.549686 1_565
Co14 Co27 2.549686 1_565
Co14 Co4 2.665752 1_555
Co14 Co7 2.665752 1_555
Co15 Co19 2.327528 1_555
Co15 Co9 2.394137 1_555
Co15 Co20 2.461025 1_555
Co15 Co31 2.516912 1_556
Co15 Co27 2.516912 1_555
Co15 Co29 2.549681 1_555
Co15 Co5 2.665759 1_555
Co15 Co6 2.665759 1_555
Co16 Co20 2.327528 1_555
Co16 Co22 2.461025 1_555
Co16 Co28 2.516916 1_555
Co16 Co32 2.516916 1_556
Co16 Co26 2.549684 1_655
Co16 Co2 2.549684 1_655
Co16 Co6 2.665756 1_555
Co16 Co5 2.665756 1_555
Co17 Co25 2.327528 1_555
Co17 Co23 2.461025 1_555
Co17 Co29 2.516916 1_554
Co17 Co33 2.549684 1_455
Co17 Co3 2.549684 1_455
Co17 Co7 2.665756 1_555
Co17 Co4 2.665756 1_555
Co18 Co24 2.327528 1_555
Co18 Co9 2.394137 1_555
Co18 Co25 2.461025 1_555
Co18 Co30 2.516912 1_554
Co18 Co28 2.549681 1_555
Co18 Co32 2.549681 1_555
Co18 Co7 2.665759 1_555
Co18 Co4 2.665759 1_555
Co19 Co8 2.394137 1_556
Co19 Co21 2.461025 1_555
Co19 Co27 2.516916 1_555
Co19 Co31 2.516916 1_556
Co19 Co2 2.549684 1_545
Co19 Co26 2.549684 1_545
Co19 Co5 2.665756 1_555
Co19 Co6 2.665756 1_555
Co20 Co9 2.394137 1_555
Co20 Co28 2.516912 1_555
Co20 Co32 2.516912 1_556
Co20 Co30 2.549681 1_555
Co20 Co5 2.665759 1_555
Co20 Co6 2.665759 1_555
Co21 Co22 2.327528 1_555
Co21 Co8 2.394137 1_556
Co21 Co33 2.516913 1_555
Co21 Co3 2.516913 1_556
Co21 Co30 2.549686 1_545
Co21 Co5 2.665752 1_555
Co21 Co6 2.665752 1_555
Co22 Co33 2.516913 1_555
Co22 Co3 2.516913 1_556
Co22 Co29 2.549686 1_655
Co22 Co5 2.665752 1_555
Co22 Co6 2.665752 1_555
Co23 Co26 2.516913 1_554
Co23 Co28 2.549686 1_455
Co23 Co32 2.549686 1_455
Co23 Co4 2.665752 1_555
Co23 Co7 2.665752 1_555
Co24 Co8 2.394137 1_565
Co24 Co30 2.516916 1_554
Co24 Co33 2.549684 1_565
Co24 Co3 2.549684 1_565
Co24 Co7 2.665756 1_555
Co24 Co4 2.665756 1_555
Co25 Co9 2.394137 1_555
Co25 Co29 2.516912 1_554
Co25 Co27 2.549681 1_555
Co25 Co31 2.549681 1_555
Co25 Co7 2.665759 1_555
Co25 Co4 2.665759 1_555
Co26 Co8 2.405704 1_566
Co26 Co31 2.441749 1_566
Co26 Co32 2.441749 1_456
Co26 Co4 2.609712 1_556
Co27 Co9 2.405704 1_555
Co27 Co5 2.609725 1_555
Co28 Co9 2.405704 1_555
Co28 Co5 2.609725 1_555
Co29 Co31 2.441735 1_556
Co29 Co3 2.441749 1_456
Co29 Co4 2.609725 1_556
Co30 Co8 2.405711 1_566
Co30 Co32 2.441735 1_556
Co30 Co4 2.609725 1_556
Co31 Co8 2.405711 1_555
Co31 Co6 2.609725 1_554
Co32 Co6 2.609725 1_554
Co33 Co5 2.609712 1_555
