# generated using pymatgen
data_Na7Ca2Zr2SiP5O24
_symmetry_space_group_name_H-M   'P 1'
_cell_length_a   9.35427548
_cell_length_b   9.35929869
_cell_length_c   22.44624599
_cell_angle_alpha   89.91221621
_cell_angle_beta   90.05114549
_cell_angle_gamma   119.92779541
_symmetry_Int_Tables_number   1
_chemical_formula_structural   Na7Ca2Zr2SiP5O24
_chemical_formula_sum   'Na21 Ca6 Zr6 Si3 P15 O72'
_cell_volume   1703.11048821
_cell_formula_units_Z   3
loop_
 _symmetry_equiv_pos_site_id
 _symmetry_equiv_pos_as_xyz
  1  'x, y, z'
loop_
 _atom_site_type_symbol
 _atom_site_label
 _atom_site_symmetry_multiplicity
 _atom_site_fract_x
 _atom_site_fract_y
 _atom_site_fract_z
 _atom_site_occupancy
  Na  Na0  1  0.34915591  0.36029397  0.25810841  1
  Na  Na1  1  0.01689407  0.64313160  0.25760941  1
  Na  Na2  1  0.63209711  0.65270963  0.75343403  1
  Na  Na3  1  0.00684703  0.36477887  0.75956448  1
  Na  Na4  1  0.35278109  0.98184881  0.75721488  1
  Na  Na5  1  0.29598660  0.30703194  0.58509130  1
  Na  Na6  1  0.02042555  0.70177640  0.58924991  1
  Na  Na7  1  0.67908217  0.98077946  0.59449203  1
  Na  Na8  1  0.29717590  0.98210689  0.09057608  1
  Na  Na9  1  0.69252151  0.70291942  0.08667551  1
  Na  Na10  1  0.01779918  0.32343657  0.09215825  1
  Na  Na11  1  0.96727071  0.65415257  0.92943090  1
  Na  Na12  1  0.68936070  0.03694456  0.92328640  1
  Na  Na13  1  0.96512835  0.31241795  0.42362159  1
  Na  Na14  1  0.34796308  0.03078307  0.42788645  1
  Na  Na15  1  0.99429083  0.98262516  0.50517338  1
  Na  Na16  1  0.01869655  0.00451737  0.00409455  1
  Na  Na17  1  0.64704323  0.33471072  0.83970870  1
  Na  Na18  1  0.66214104  0.33414443  0.33858405  1
  Na  Na19  1  0.35463068  0.68990697  0.17397797  1
  Na  Na20  1  0.34431326  0.68037443  0.67225197  1
  Ca  Ca0  1  0.99971712  0.00033254  0.65299502  1
  Ca  Ca1  1  0.99337082  0.99639469  0.15405090  1
  Ca  Ca2  1  0.65938420  0.33651198  0.98352254  1
  Ca  Ca3  1  0.66247998  0.33992849  0.48210624  1
  Ca  Ca4  1  0.34696115  0.67481050  0.31711189  1
  Ca  Ca5  1  0.33445464  0.66382531  0.82042362  1
  Zr  Zr0  1  0.99147726  0.99467696  0.34996625  1
  Zr  Zr1  1  0.00012937  0.00463917  0.85013130  1
  Zr  Zr2  1  0.66347592  0.32513879  0.68352193  1
  Zr  Zr3  1  0.67246929  0.33235428  0.18412209  1
  Zr  Zr4  1  0.32956454  0.66035588  0.01688078  1
  Zr  Zr5  1  0.34192088  0.67211701  0.51689229  1
  Si  Si0  1  0.69681100  0.00729003  0.74701501  1
  Si  Si1  1  0.36341535  0.02308208  0.57867841  1
  Si  Si2  1  0.97630906  0.63506701  0.07982791  1
  P  P0  1  0.30629274  0.01159995  0.24805045  1
  P  P1  1  0.70037210  0.68582424  0.24509875  1
  P  P2  1  0.99064806  0.29969847  0.24871661  1
  P  P3  1  0.30759036  0.29763538  0.74611481  1
  P  P4  1  0.98816541  0.69130451  0.74949354  1
  P  P5  1  0.97400791  0.34501023  0.57985127  1
  P  P6  1  0.65799665  0.62865378  0.58547999  1
  P  P7  1  0.65662050  0.02829279  0.07856537  1
  P  P8  1  0.37114769  0.34224117  0.08653383  1
  P  P9  1  0.64685396  0.68011707  0.91327093  1
  P  P10  1  0.03171779  0.35492021  0.91465012  1
  P  P11  1  0.32189468  0.96161524  0.91407883  1
  P  P12  1  0.64286125  0.96796577  0.41773433  1
  P  P13  1  0.31802505  0.35408525  0.41235767  1
  P  P14  1  0.04175446  0.67719625  0.41236440  1
  O  O0  1  0.19814615  0.02328769  0.30094085  1
  O  O1  1  0.82163253  0.80256795  0.29559237  1
  O  O2  1  0.98205347  0.18600592  0.30254283  1
  O  O3  1  0.19904127  0.17532202  0.79758416  1
  O  O4  1  0.98059180  0.79817898  0.80305250  1
  O  O5  1  0.82518363  0.02265209  0.80334913  1
  O  O6  1  0.77369476  0.98880837  0.68609455  1
  O  O7  1  0.22440453  0.23013801  0.68623084  1
  O  O8  1  0.01607065  0.78714249  0.69140811  1
  O  O9  1  0.76724615  0.76371890  0.18435289  1
  O  O10  1  0.00441847  0.22517946  0.19016120  1
  O  O11  1  0.21982555  0.00298247  0.18917973  1
  O  O12  1  0.87566498  0.36227097  0.63486433  1
  O  O13  1  0.48957646  0.13464133  0.63601511  1
  O  O14  1  0.64215396  0.52670265  0.64389550  1
  O  O15  1  0.86518436  0.50668015  0.13660890  1
  O  O16  1  0.63871526  0.13261937  0.13086098  1
  O  O17  1  0.47806746  0.35920216  0.14387517  1
  O  O18  1  0.44400716  0.30110064  0.03377370  1
  O  O19  1  0.87614279  0.55653975  0.01986508  1
  O  O20  1  0.67494125  0.11585349  0.01972349  1
  O  O21  1  0.44266260  0.12312367  0.51880490  1
  O  O22  1  0.68914511  0.54816836  0.53281629  1
  O  O23  1  0.87968984  0.32744872  0.52274846  1
  O  O24  1  0.54040721  0.68642025  0.96713723  1
  O  O25  1  0.14529618  0.46053657  0.96872704  1
  O  O26  1  0.31078603  0.84130808  0.96714041  1
  O  O27  1  0.55316905  0.86279923  0.47563569  1
  O  O28  1  0.31205149  0.45863460  0.46711343  1
  O  O29  1  0.16336084  0.69556352  0.46592894  1
  O  O30  1  0.11845012  0.66599919  0.35408302  1
  O  O31  1  0.53354245  0.88557332  0.36461802  1
  O  O32  1  0.32190400  0.43975311  0.35424672  1
  O  O33  1  0.10706196  0.44452804  0.85632005  1
  O  O34  1  0.32906709  0.88399801  0.85520480  1
  O  O35  1  0.56493193  0.67724630  0.85411155  1
  O  O36  1  0.03576429  0.84303307  0.41332256  1
  O  O37  1  0.81389691  0.97397465  0.41344821  1
  O  O38  1  0.14841310  0.18374544  0.41527529  1
  O  O39  1  0.02330922  0.18322500  0.91628059  1
  O  O40  1  0.15576082  0.96425589  0.91740375  1
  O  O41  1  0.81714960  0.84812152  0.91723589  1
  O  O42  1  0.00295495  0.19826182  0.58644126  1
  O  O43  1  0.17583338  0.98800120  0.58414134  1
  O  O44  1  0.79747797  0.80874982  0.58861559  1
  O  O45  1  0.01119829  0.82269827  0.08567974  1
  O  O46  1  0.80489462  0.00259505  0.08752699  1
  O  O47  1  0.18872961  0.20879175  0.09233507  1
  O  O48  1  0.69941276  0.18767646  0.74863182  1
  O  O49  1  0.47752294  0.30190740  0.74931063  1
  O  O50  1  0.81790407  0.52752747  0.74950704  1
  O  O51  1  0.70620566  0.52034173  0.25057693  1
  O  O52  1  0.82802529  0.31024465  0.24989957  1
  O  O53  1  0.47556854  0.17723505  0.25069752  1
  O  O54  1  0.68008054  0.53638131  0.91633614  1
  O  O55  1  0.85663468  0.32825225  0.91990151  1
  O  O56  1  0.47561686  0.13051896  0.91962147  1
  O  O57  1  0.67780170  0.14627609  0.42135304  1
  O  O58  1  0.46024628  0.31803169  0.41489041  1
  O  O59  1  0.87273756  0.52462605  0.41958973  1
  O  O60  1  0.38243311  0.51585685  0.07958476  1
  O  O61  1  0.15551826  0.63367469  0.08024211  1
  O  O62  1  0.49207792  0.85649663  0.07975039  1
  O  O63  1  0.36469138  0.84437972  0.58051355  1
  O  O64  1  0.48603913  0.62233231  0.58010110  1
  O  O65  1  0.14518322  0.51048006  0.57922418  1
  O  O66  1  0.32193048  0.85732260  0.25323561  1
  O  O67  1  0.52228738  0.64679062  0.25209605  1
  O  O68  1  0.13966883  0.47485317  0.25393972  1
  O  O69  1  0.33341460  0.47145352  0.75445722  1
  O  O70  1  0.12916434  0.65316421  0.75641988  1
  O  O71  1  0.51000340  0.85391743  0.75267404  1
loop_
_geom_bond_atom_site_label_1
_geom_bond_atom_site_label_2
_geom_bond_distance
_geom_bond_site_symmetry_2
Na0 O32 2.338768 1_555
Na0 O67 2.344606 1_555
Na0 O53 2.526690 1_555
Na0 O68 2.663500 1_555
Na0 O17 2.836685 1_555
Na0 O0 2.900986 1_555
Na0 O51 2.904435 1_555
Na1 O30 2.330753 1_555
Na1 O68 2.368905 1_555
Na1 O51 2.541474 1_455
Na1 O66 2.542141 1_555
Na1 O52 2.714203 1_455
Na1 O1 3.002681 1_455
Na1 O15 3.035941 1_455
Na2 O35 2.387972 1_555
Na2 O69 2.440327 1_555
Na2 O50 2.536519 1_555
Na2 O71 2.645168 1_555
Na2 O14 2.750461 1_555
Na2 O49 2.853557 1_555
Na3 O33 2.335759 1_555
Na3 O70 2.348882 1_555
Na3 O48 2.514286 1_455
Na3 O69 2.701626 1_555
Na3 O50 2.859974 1_455
Na3 O5 2.944606 1_455
Na3 O12 3.050634 1_455
Na4 O71 2.316188 1_555
Na4 O34 2.348987 1_555
Na4 O49 2.622444 1_565
Na4 O70 2.723695 1_555
Na4 O48 2.833576 1_565
Na5 O7 2.374233 1_555
Na5 O42 2.401367 1_555
Na5 O64 2.577982 1_555
Na5 O43 2.613583 1_545
Na5 O65 2.883075 1_555
Na6 O43 2.327295 1_555
Na6 O8 2.436478 1_555
Na6 O65 2.589338 1_555
Na6 O44 2.726777 1_455
Na6 O63 2.811067 1_555
Na6 O12 2.945812 1_455
Na6 O22 2.971147 1_455
Na7 O6 2.224292 1_555
Na7 O44 2.369917 1_555
Na7 O63 2.574968 1_555
Na7 O42 2.683453 1_665
Na7 O27 2.903416 1_555
Na7 O64 2.928722 1_555
Na7 O13 2.939228 1_565
Na8 O45 2.326324 1_555
Na8 O11 2.367608 1_565
Na8 O62 2.627817 1_555
Na8 O47 2.771235 1_565
Na8 O61 2.852067 1_555
Na8 O18 2.885383 1_565
Na8 O16 2.918419 1_565
Na9 O9 2.285523 1_555
Na9 O46 2.455659 1_565
Na9 O60 2.537136 1_555
Na9 O45 2.609417 1_655
Na9 O62 2.879904 1_555
Na10 O47 2.328043 1_555
Na10 O10 2.362184 1_555
Na10 O61 2.535332 1_555
Na10 O46 2.650949 1_455
Na10 O15 2.902706 1_455
Na10 O60 2.971187 1_555
Na10 O25 3.035282 1_554
Na11 O19 2.214079 1_556
Na11 O54 2.358664 1_555
Na11 O40 2.549035 1_655
Na11 O55 2.696722 1_555
Na11 O41 2.807882 1_555
Na11 O26 2.914378 1_655
Na12 O20 2.313905 1_556
Na12 O55 2.372838 1_555
Na12 O56 2.553074 1_555
Na12 O41 2.584468 1_545
Na12 O39 2.718508 1_655
Na12 O5 3.009410 1_555
Na12 O24 3.017351 1_545
Na13 O57 2.339703 1_555
Na13 O23 2.392822 1_555
Na13 O59 2.532163 1_555
Na13 O38 2.546840 1_655
Na13 O37 2.759965 1_545
Na13 O28 2.987356 1_655
Na13 O2 3.001437 1_555
Na14 O21 2.221413 1_555
Na14 O58 2.365710 1_555
Na14 O36 2.569604 1_545
Na14 O57 2.717005 1_555
Na14 O29 2.853589 1_545
Na14 O38 2.877211 1_555
Na15 O43 2.436787 1_655
Na15 O44 2.559890 1_555
Na15 O36 2.573611 1_655
Na15 O37 2.636485 1_555
Na15 O38 2.641826 1_665
Na15 O42 2.693528 1_665
Na16 O40 2.461932 1_544
Na16 O45 2.475050 1_545
Na16 O39 2.569558 1_554
Na16 O41 2.597446 1_444
Na16 O47 2.660791 1_555
Na16 O46 2.734598 1_455
Na17 O54 2.458353 1_555
Na17 O49 2.497287 1_555
Na17 O56 2.525464 1_555
Na17 O48 2.645017 1_555
Na17 O50 2.650873 1_555
Na17 O55 2.683138 1_555
Na18 O58 2.498785 1_555
Na18 O51 2.526519 1_555
Na18 O53 2.557250 1_555
Na18 O52 2.602640 1_555
Na18 O57 2.609843 1_555
Na18 O59 2.619999 1_555
Na19 O66 2.490271 1_555
Na19 O67 2.514251 1_555
Na19 O62 2.559688 1_555
Na19 O61 2.681654 1_555
Na19 O68 2.696838 1_555
Na19 O60 2.764909 1_555
Na20 O71 2.406469 1_555
Na20 O63 2.516301 1_555
Na20 O69 2.651213 1_555
Na20 O64 2.656708 1_555
Na20 O70 2.679261 1_555
Na20 O65 2.721430 1_555
Ca0 O6 2.192897 1_545
Ca0 O8 2.246589 1_645
Ca0 O7 2.256435 1_655
Ca0 O43 2.304513 1_645
Ca0 O44 2.345337 1_545
Ca0 O42 2.366410 1_655
Ca1 O11 2.231518 1_665
Ca1 O10 2.244335 1_665
Ca1 O9 2.254089 1_555
Ca1 O45 2.303145 1_655
Ca1 O46 2.332069 1_565
Ca1 O47 2.362526 1_665
Ca2 O18 2.185809 1_556
Ca2 O19 2.203011 1_556
Ca2 O20 2.289339 1_556
Ca2 O56 2.329476 1_555
Ca2 O54 2.332721 1_555
Ca2 O55 2.365842 1_555
Ca3 O22 2.162767 1_555
Ca3 O21 2.204244 1_555
Ca3 O23 2.281977 1_555
Ca3 O59 2.330383 1_555
Ca3 O57 2.330723 1_555
Ca3 O58 2.346493 1_555
Ca4 O31 2.154573 1_555
Ca4 O32 2.251622 1_555
Ca4 O30 2.256475 1_555
Ca4 O67 2.307136 1_555
Ca4 O66 2.327968 1_555
Ca4 O68 2.378081 1_555
Ca5 O35 2.227743 1_555
Ca5 O34 2.228676 1_555
Ca5 O33 2.242344 1_555
Ca5 O71 2.292483 1_555
Ca5 O69 2.329142 1_555
Ca5 O70 2.359223 1_555
O0 P0 1.599297 1_555
O0 Zr0 2.122834 1_445
O1 P1 1.590567 1_555
O1 Zr0 2.097498 1_555
O2 P2 1.584092 1_555
O2 Zr0 2.121087 1_545
O3 P3 1.585690 1_555
O3 Zr1 2.106532 1_555
O4 P4 1.589146 1_555
O4 Zr1 2.130143 1_665
O5 Si0 1.699169 1_555
O5 Zr1 2.020119 1_655
O6 Si0 1.594882 1_565
O7 P3 1.523684 1_555
O8 P4 1.528396 1_455
O9 P1 1.524931 1_555
O10 P2 1.524235 1_455
O11 P0 1.529777 1_555
O12 P5 1.596281 1_555
O12 Zr2 2.137235 1_555
O13 Si1 1.706213 1_555
O13 Zr2 2.017636 1_555
O14 P6 1.583390 1_555
O14 Zr2 2.181692 1_555
O15 Si2 1.702982 1_555
O15 Zr3 2.027921 1_555
O16 P7 1.589467 1_555
O16 Zr3 2.107306 1_555
O17 P8 1.588093 1_555
O17 Zr3 2.153712 1_555
O18 P8 1.509950 1_555
O19 Si2 1.594772 1_555
O20 P7 1.517356 1_555
O21 Si1 1.593025 1_555
O22 P6 1.507334 1_555
O23 P5 1.517308 1_555
O24 P9 1.586776 1_555
O24 Zr4 2.172353 1_556
O25 P10 1.591454 1_555
O25 Zr4 2.103151 1_556
O26 P11 1.605171 1_555
O26 Zr4 2.106259 1_556
O27 P12 1.592449 1_555
O27 Zr5 2.103979 1_555
O28 P13 1.590459 1_555
O28 Zr5 2.183565 1_555
O29 P14 1.603807 1_555
O29 Zr5 2.123252 1_555
O30 P14 1.521246 1_555
O31 P12 1.508524 1_555
O32 P13 1.520994 1_555
O33 P10 1.524081 1_555
O34 P11 1.526538 1_555
O35 P9 1.526123 1_555
O36 P14 1.580997 1_555
O36 Zr0 2.188111 1_455
O37 P12 1.575634 1_555
O37 Zr0 2.123574 1_555
O38 P13 1.593482 1_555
O38 Zr0 2.201686 1_445
O39 P10 1.569557 1_555
O39 Zr1 2.165817 1_555
O40 P11 1.568383 1_555
O40 Zr1 2.255165 1_565
O41 P9 1.587078 1_555
O41 Zr1 2.200081 1_665
O42 P5 1.533623 1_455
O43 Si1 1.620859 1_565
O44 P6 1.534350 1_555
O45 Si2 1.623699 1_455
O46 P7 1.534368 1_555
O47 P8 1.536876 1_555
O48 Si0 1.676729 1_555
O48 Zr2 2.080632 1_555
O49 P3 1.571607 1_555
O49 Zr2 2.209043 1_555
O50 P4 1.565317 1_555
O50 Zr2 2.267811 1_555
O51 P1 1.581334 1_555
O51 Zr3 2.207581 1_555
O52 P2 1.573040 1_555
O52 Zr3 2.153086 1_555
O53 P0 1.569975 1_555
O53 Zr3 2.250204 1_555
O54 P9 1.525767 1_555
O55 P10 1.533254 1_655
O56 P11 1.521279 1_545
O57 P12 1.534477 1_545
O58 P13 1.527986 1_555
O59 P14 1.520542 1_655
O60 P8 1.582382 1_555
O60 Zr4 2.171371 1_555
O61 Si2 1.682929 1_455
O61 Zr4 2.081607 1_555
O62 P7 1.576580 1_565
O62 Zr4 2.211764 1_555
O63 Si1 1.678958 1_565
O63 Zr5 2.085173 1_555
O64 P6 1.584357 1_555
O64 Zr5 2.160760 1_555
O65 P5 1.577380 1_455
O65 Zr5 2.202969 1_555
O66 P0 1.526461 1_565
O67 P1 1.525201 1_555
O68 P2 1.537665 1_455
O69 P3 1.532539 1_555
O70 P4 1.536379 1_455
O71 Si0 1.620858 1_565
