# generated using pymatgen
data_Ag5(PbO3)2
_symmetry_space_group_name_H-M   'P 1'
_cell_length_a   5.95550495
_cell_length_b   5.95550435
_cell_length_c   6.46755388
_cell_angle_alpha   90.00000000
_cell_angle_beta   90.00000000
_cell_angle_gamma   119.99999206
_symmetry_Int_Tables_number   1
_chemical_formula_structural   Ag5(PbO3)2
_chemical_formula_sum   'Ag5 Pb2 O6'
_cell_volume   198.65882309
_cell_formula_units_Z   1
loop_
 _symmetry_equiv_pos_site_id
 _symmetry_equiv_pos_as_xyz
  1  'x, y, z'
loop_
 _atom_site_type_symbol
 _atom_site_label
 _atom_site_symmetry_multiplicity
 _atom_site_fract_x
 _atom_site_fract_y
 _atom_site_fract_z
 _atom_site_occupancy
  Ag  Ag0  1  -0.00000000  -0.00000000  0.22419673  1
  Ag  Ag1  1  -0.00000000  0.50000000  0.00000000  1
  Ag  Ag2  1  0.50000000  -0.00000000  0.00000000  1
  Ag  Ag3  1  -0.00000000  -0.00000000  0.77580327  1
  Ag  Ag4  1  0.50000000  0.50000000  0.00000000  1
  Pb  Pb0  1  0.66666700  0.33333300  0.50000000  1
  Pb  Pb1  1  0.33333300  0.66666700  0.50000000  1
  O  O0  1  0.62222760  0.62222760  0.30774244  1
  O  O1  1  0.37777240  0.37777240  0.69225756  1
  O  O2  1  -0.00000000  0.62222760  0.69225756  1
  O  O3  1  0.62222760  -0.00000000  0.69225756  1
  O  O4  1  0.00000000  0.37777240  0.30774244  1
  O  O5  1  0.37777240  0.00000000  0.30774244  1
loop_
_geom_bond_atom_site_label_1
_geom_bond_atom_site_label_2
_geom_bond_distance
_geom_bond_site_symmetry_2
Ag0 O4 2.313801 1_555
Ag0 O5 2.313802 1_555
Ag0 O0 2.313802 1_445
Ag1 O2 2.119277 1_554
Ag1 O4 2.119277 1_555
Ag2 O3 2.119277 1_554
Ag2 O5 2.119277 1_555
Ag3 O2 2.313801 1_545
Ag3 O3 2.313802 1_455
Ag3 O1 2.313802 1_555
Ag4 O0 2.119277 1_555
Ag4 O1 2.119277 1_554
O0 Pb0 2.243143 1_555
O0 Pb1 2.243144 1_555
O1 Pb1 2.243143 1_555
O1 Pb0 2.243144 1_555
O2 Pb1 2.243139 1_555
O2 Pb0 2.243141 1_455
O3 Pb0 2.243138 1_555
O3 Pb1 2.243141 1_545
O4 Pb0 2.243139 1_455
O4 Pb1 2.243141 1_555
O5 Pb1 2.243138 1_545
O5 Pb0 2.243141 1_555
