# generated using pymatgen
data_Na5TiAl3Si3(SO8)3
_symmetry_space_group_name_H-M   'P 1'
_cell_length_a   8.68493422
_cell_length_b   8.71133177
_cell_length_c   21.88426008
_cell_angle_alpha   90.31164799
_cell_angle_beta   90.47404029
_cell_angle_gamma   120.17244303
_symmetry_Int_Tables_number   1
_chemical_formula_structural   Na5TiAl3Si3(SO8)3
_chemical_formula_sum   'Na15 Ti3 Al9 Si9 S9 O72'
_cell_volume   1431.24729475
_cell_formula_units_Z   3
loop_
 _symmetry_equiv_pos_site_id
 _symmetry_equiv_pos_as_xyz
  1  'x, y, z'
loop_
 _atom_site_type_symbol
 _atom_site_label
 _atom_site_symmetry_multiplicity
 _atom_site_fract_x
 _atom_site_fract_y
 _atom_site_fract_z
 _atom_site_occupancy
  Na  Na0  1  0.64158402  0.00374131  0.25391160  1
  Na  Na1  1  0.00121117  0.62495760  0.24880981  1
  Na  Na2  1  0.62979027  0.63431837  0.74640865  1
  Na  Na3  1  0.36889589  0.00852593  0.75416595  1
  Na  Na4  1  0.66724392  0.96059073  0.58470208  1
  Na  Na5  1  0.97323873  0.67574171  0.91947112  1
  Na  Na6  1  0.69426123  0.02471543  0.91345426  1
  Na  Na7  1  0.96309823  0.30162462  0.41191863  1
  Na  Na8  1  0.70531830  0.67880871  0.42049154  1
  Na  Na9  1  0.00517972  0.98763210  0.50165906  1
  Na  Na10  1  0.00881841  0.99467914  0.00049143  1
  Na  Na11  1  0.65313274  0.32345151  0.83152330  1
  Na  Na12  1  0.66150947  0.32298514  0.33268826  1
  Na  Na13  1  0.31875090  0.64744473  0.16230399  1
  Na  Na14  1  0.32608468  0.64654968  0.66575704  1
  Ti  Ti0  1  0.66039390  0.34935784  0.98021515  1
  Ti  Ti1  1  0.68146848  0.34776114  0.47901307  1
  Ti  Ti2  1  0.35666551  0.67407547  0.81119204  1
  Al  Al0  1  0.98855631  0.99905854  0.35464466  1
  Al  Al1  1  0.00852894  0.01163779  0.85298378  1
  Al  Al2  1  0.98819204  0.99399631  0.65037004  1
  Al  Al3  1  0.00728522  0.00735858  0.14440003  1
  Al  Al4  1  0.65087946  0.33234738  0.68908339  1
  Al  Al5  1  0.69047646  0.33837064  0.18145253  1
  Al  Al6  1  0.32846506  0.68320409  0.01771805  1
  Al  Al7  1  0.34541792  0.67908126  0.51814115  1
  Al  Al8  1  0.31678161  0.65616024  0.31713397  1
  Si  Si0  1  0.00853856  0.28777275  0.24930875  1
  Si  Si1  1  0.27582868  0.28021155  0.74826393  1
  Si  Si2  1  0.72526739  0.01727176  0.74919760  1
  Si  Si3  1  0.66570775  0.62668376  0.58674343  1
  Si  Si4  1  0.97064720  0.63644582  0.08614512  1
  Si  Si5  1  0.62200079  0.67285539  0.92082010  1
  Si  Si6  1  0.32798915  0.95919551  0.91663530  1
  Si  Si7  1  0.61394854  0.95098465  0.41468943  1
  Si  Si8  1  0.06030907  0.68392890  0.41687514  1
  S  S0  1  0.28824625  0.00648393  0.24959754  1
  S  S1  1  0.70649151  0.70621003  0.24915097  1
  S  S2  1  0.99697639  0.70871618  0.74871701  1
  S  S3  1  0.96282311  0.33964303  0.58491913  1
  S  S4  1  0.37234904  0.04356973  0.58364624  1
  S  S5  1  0.66766687  0.04167654  0.08459361  1
  S  S6  1  0.37874244  0.33370308  0.08650793  1
  S  S7  1  0.05081005  0.37874942  0.91787122  1
  S  S8  1  0.33050734  0.37735585  0.41627347  1
  O  O0  1  0.20772079  0.03059030  0.30487690  1
  O  O1  1  0.82086319  0.78280363  0.30549339  1
  O  O2  1  0.96758640  0.16379766  0.31021460  1
  O  O3  1  0.19730728  0.15429293  0.80740704  1
  O  O4  1  0.96176379  0.78274485  0.80500846  1
  O  O5  1  0.83216907  0.03245856  0.81201465  1
  O  O6  1  0.79236983  0.95772862  0.68932414  1
  O  O7  1  0.16055212  0.18532713  0.68751241  1
  O  O8  1  0.03020759  0.82301178  0.69520152  1
  O  O9  1  0.79135941  0.82153441  0.19605412  1
  O  O10  1  0.02731479  0.18472887  0.19099525  1
  O  O11  1  0.17173357  0.96799825  0.19481445  1
  O  O12  1  0.87303108  0.36180478  0.63747763  1
  O  O13  1  0.48861203  0.12279165  0.63915121  1
  O  O14  1  0.64268720  0.50143661  0.64405530  1
  O  O15  1  0.87322528  0.51161590  0.14501344  1
  O  O16  1  0.63702325  0.12513731  0.14026815  1
  O  O17  1  0.49338456  0.35570411  0.14032605  1
  O  O18  1  0.45608420  0.30116403  0.02980431  1
  O  O19  1  0.83504776  0.53213919  0.02542209  1
  O  O20  1  0.69403997  0.14997927  0.02988766  1
  O  O21  1  0.45893020  0.15260312  0.52910716  1
  O  O22  1  0.69120497  0.52742341  0.52426546  1
  O  O23  1  0.84754118  0.30289201  0.52710576  1
  O  O24  1  0.52132334  0.70000561  0.97738871  1
  O  O25  1  0.15919073  0.46034299  0.97357945  1
  O  O26  1  0.28686781  0.82769107  0.97353377  1
  O  O27  1  0.53813398  0.82907032  0.47513480  1
  O  O28  1  0.29764283  0.45454946  0.47103254  1
  O  O29  1  0.17190268  0.69320947  0.47681337  1
  O  O30  1  0.12307178  0.62315660  0.35590994  1
  O  O31  1  0.49772647  0.85546537  0.35292601  1
  O  O32  1  0.36691164  0.49161600  0.36170834  1
  O  O33  1  0.12343490  0.48950715  0.86327664  1
  O  O34  1  0.36630252  0.86826037  0.85591368  1
  O  O35  1  0.50524582  0.63150777  0.85637482  1
  O  O36  1  0.02308760  0.84757061  0.40610768  1
  O  O37  1  0.81792947  0.98126881  0.40914593  1
  O  O38  1  0.17242250  0.19866998  0.40840044  1
  O  O39  1  0.02671576  0.19863992  0.91247612  1
  O  O40  1  0.15211081  0.97572078  0.90792022  1
  O  O41  1  0.81891647  0.84425073  0.91079591  1
  O  O42  1  0.97475169  0.17486157  0.58776616  1
  O  O43  1  0.19520969  0.02354777  0.58957344  1
  O  O44  1  0.84527370  0.82608145  0.59005329  1
  O  O45  1  0.98158230  0.82892801  0.09398885  1
  O  O46  1  0.82923727  0.02641825  0.09191654  1
  O  O47  1  0.20027690  0.17246605  0.09086232  1
  O  O48  1  0.68960385  0.18223166  0.73888469  1
  O  O49  1  0.48262079  0.31525907  0.74332148  1
  O  O50  1  0.83745015  0.52957177  0.74155782  1
  O  O51  1  0.68569181  0.52594848  0.24282016  1
  O  O52  1  0.82326872  0.30692986  0.24284918  1
  O  O53  1  0.46957746  0.16499713  0.24208842  1
  O  O54  1  0.64875668  0.49654525  0.92323283  1
  O  O55  1  0.86673292  0.35521725  0.92370608  1
  O  O56  1  0.51605435  0.14914541  0.92616146  1
  O  O57  1  0.64229518  0.15263177  0.42378310  1
  O  O58  1  0.49230235  0.36013524  0.42174117  1
  O  O59  1  0.85129765  0.50136627  0.42429320  1
  O  O60  1  0.36418306  0.49362269  0.07949236  1
  O  O61  1  0.15960014  0.64298618  0.07576797  1
  O  O62  1  0.50705134  0.86325837  0.07996404  1
  O  O63  1  0.35885166  0.86526648  0.57820270  1
  O  O64  1  0.48866437  0.64773846  0.57619366  1
  O  O65  1  0.13833958  0.49775438  0.57689756  1
  O  O66  1  0.31120829  0.84608458  0.25401570  1
  O  O67  1  0.52999279  0.69201055  0.25595065  1
  O  O68  1  0.18014499  0.49151402  0.25696266  1
  O  O69  1  0.30246248  0.48247128  0.75529108  1
  O  O70  1  0.15771269  0.69232282  0.75480337  1
  O  O71  1  0.51772880  0.83494363  0.75455904  1
loop_
_geom_bond_atom_site_label_1
_geom_bond_atom_site_label_2
_geom_bond_distance
_geom_bond_site_symmetry_2
Na0 O52 2.312630 1_555
Na0 O67 2.381633 1_545
Na0 O66 2.481532 1_545
Na0 O31 2.525414 1_545
Na0 O53 2.525651 1_555
Na0 O16 2.715546 1_555
Na0 O2 2.726519 1_555
Na0 O9 2.809891 1_545
Na1 O68 2.368917 1_555
Na1 O66 2.398221 1_555
Na1 O52 2.402007 1_455
Na1 O51 2.426350 1_455
Na1 O15 2.490134 1_455
Na1 O30 2.567067 1_555
Na1 O1 2.839268 1_455
Na1 O11 2.852792 1_555
Na2 O71 2.396418 1_555
Na2 O50 2.398522 1_555
Na2 O49 2.406027 1_555
Na2 O69 2.470038 1_555
Na2 O14 2.544815 1_555
Na2 O35 2.641791 1_555
Na2 O6 2.749623 1_555
Na2 O4 2.793300 1_555
Na3 O49 2.351509 1_555
Na3 O70 2.423651 1_545
Na3 O71 2.433551 1_545
Na3 O48 2.438005 1_555
Na3 O34 2.540548 1_545
Na3 O3 2.665641 1_555
Na3 O13 2.727166 1_555
Na3 O8 2.839936 1_545
Na4 O44 2.365811 1_555
Na4 O42 2.367666 1_565
Na4 O64 2.368226 1_555
Na4 O63 2.374901 1_555
Na4 O6 2.531878 1_555
Na4 O27 2.636982 1_555
Na4 O13 2.835323 1_565
Na4 O23 2.883119 1_565
Na5 O40 2.288901 1_655
Na5 O41 2.442078 1_555
Na5 O54 2.443049 1_555
Na5 O55 2.463447 1_555
Na5 O26 2.622329 1_655
Na5 O19 2.636271 1_556
Na5 O4 2.695950 1_555
Na5 O33 2.824548 1_655
Na6 O56 2.310396 1_555
Na6 O41 2.314693 1_545
Na6 O55 2.497128 1_555
Na6 O39 2.497344 1_655
Na6 O5 2.516265 1_555
Na6 O34 2.752415 1_545
Na6 O20 2.766821 1_556
Na6 O24 2.832311 1_545
Na7 O59 2.396110 1_555
Na7 O38 2.399136 1_655
Na7 O37 2.416914 1_545
Na7 O57 2.428015 1_555
Na7 O2 2.533046 1_555
Na7 O23 2.722940 1_555
Na7 O30 2.726137 1_655
Na7 O28 2.813972 1_655
Na8 O37 2.319762 1_555
Na8 O36 2.412033 1_655
Na8 O58 2.443159 1_555
Na8 O59 2.444028 1_555
Na8 O22 2.605069 1_555
Na8 O27 2.678415 1_555
Na8 O1 2.704442 1_555
Na8 O32 2.837075 1_555
Na9 O44 2.400156 1_455
Na9 O43 2.438259 1_565
Na9 O36 2.460456 1_555
Na9 O37 2.569123 1_455
Na9 O42 2.586321 1_465
Na9 O38 2.657151 1_565
Na10 O40 2.434086 1_554
Na10 O45 2.454440 1_455
Na10 O41 2.456897 1_454
Na10 O47 2.529514 1_565
Na10 O39 2.579863 1_564
Na10 O46 2.644075 1_465
Na11 O49 2.401848 1_555
Na11 O48 2.469616 1_555
Na11 O56 2.504047 1_555
Na11 O54 2.515773 1_555
Na11 O50 2.619963 1_555
Na11 O55 2.646445 1_555
Na12 O57 2.448078 1_555
Na12 O52 2.469583 1_555
Na12 O53 2.492677 1_555
Na12 O59 2.546998 1_555
Na12 O58 2.565337 1_555
Na12 O51 2.590272 1_555
Na13 O61 2.323862 1_555
Na13 O60 2.398437 1_555
Na13 O68 2.452282 1_555
Na13 O62 2.539886 1_555
Na13 O67 2.632436 1_555
Na13 O66 2.665558 1_555
Na14 O69 2.380473 1_555
Na14 O64 2.422161 1_555
Na14 O65 2.432280 1_555
Na14 O71 2.531076 1_555
Na14 O70 2.592223 1_555
Na14 O63 2.624157 1_555
Al0 O2 1.820179 1_565
Al0 O37 1.855528 1_555
Al0 O36 1.873033 1_655
Al0 O1 2.005279 1_555
Al0 O38 2.028068 1_665
Al0 O0 2.096829 1_665
Al1 O3 1.794350 1_555
Al1 O5 1.855015 1_455
Al1 O40 1.862734 1_545
Al1 O41 2.019788 1_445
Al1 O39 2.022041 1_555
Al1 O4 2.097438 1_445
Al2 O7 1.771067 1_665
Al2 O6 1.790457 1_555
Al2 O44 1.884012 1_555
Al2 O8 1.967401 1_655
Al2 O42 2.139810 1_565
Al2 O43 2.155711 1_665
Al3 O10 1.779670 1_555
Al3 O45 1.819739 1_445
Al3 O11 1.960848 1_545
Al3 O47 1.969346 1_555
Al3 O46 1.992155 1_455
Al3 O9 2.102023 1_445
Al4 O14 1.807145 1_555
Al4 O49 1.838052 1_555
Al4 O48 1.860793 1_555
Al4 O13 1.969614 1_555
Al4 O50 2.011330 1_555
Al4 O12 2.145995 1_555
Al5 O15 1.748969 1_555
Al5 O52 1.872511 1_555
Al5 O16 1.893765 1_555
Al5 O17 1.999665 1_555
Al5 O51 2.126210 1_555
Al5 O53 2.207675 1_555
Al6 O26 1.764737 1_554
Al6 O24 1.839918 1_554
Al6 O61 1.845710 1_555
Al6 O25 1.987594 1_554
Al6 O62 2.053733 1_555
Al6 O60 2.276757 1_555
Al7 O27 1.798754 1_555
Al7 O29 1.808089 1_555
Al7 O64 1.885571 1_555
Al7 O63 2.038614 1_555
Al7 O28 2.053289 1_555
Al7 O65 2.141892 1_555
Al8 O30 1.781334 1_555
Al8 O31 1.822015 1_555
Al8 O68 1.855278 1_555
Al8 O32 1.957356 1_555
Al8 O66 2.179892 1_555
Al8 O67 2.187115 1_555
O0 S0 1.468181 1_555
O1 S1 1.502247 1_555
O2 Si0 1.645244 1_655
O3 Si1 1.619141 1_555
O4 S2 1.490910 1_555
O5 Si2 1.619487 1_555
O6 Si2 1.623157 1_565
O7 Si1 1.608511 1_555
O8 S2 1.475010 1_455
O9 S1 1.478274 1_555
O10 Si0 1.612155 1_555
O11 S0 1.486007 1_565
O12 S3 1.460189 1_555
O13 S4 1.497135 1_555
O14 Si3 1.613460 1_555
O15 Si4 1.632941 1_555
O16 S5 1.508032 1_555
O17 S6 1.483756 1_555
O18 S6 1.507572 1_555
O18 Ti0 1.946921 1_554
O19 Si4 1.692270 1_555
O19 Ti0 1.828972 1_554
O20 S5 1.474947 1_555
O20 Ti0 2.192983 1_554
O21 S4 1.483710 1_555
O21 Ti1 2.140085 1_555
O22 Si3 1.688436 1_555
O22 Ti1 1.812767 1_555
O23 S3 1.535608 1_555
O23 Ti1 1.971510 1_555
O24 Si5 1.604877 1_555
O25 S7 1.475318 1_555
O26 Si6 1.613069 1_555
O27 Si7 1.624203 1_555
O28 S8 1.469548 1_555
O29 Si8 1.601707 1_555
O30 Si8 1.628452 1_555
O31 Si7 1.630674 1_555
O32 S8 1.489783 1_555
O33 S7 1.472920 1_555
O33 Ti2 2.184431 1_555
O34 Si6 1.662804 1_555
O34 Ti2 1.914344 1_555
O35 Si5 1.658516 1_555
O35 Ti2 1.801182 1_555
O36 Si8 1.630277 1_555
O37 Si7 1.660376 1_555
O38 S8 1.477355 1_555
O39 S7 1.478855 1_555
O40 Si6 1.614573 1_555
O41 Si5 1.626408 1_555
O42 S3 1.491821 1_555
O43 S4 1.465563 1_555
O44 Si3 1.651763 1_555
O45 Si4 1.639082 1_555
O46 S5 1.482025 1_555
O47 S6 1.483184 1_555
O48 Si2 1.631467 1_555
O49 Si1 1.668182 1_555
O50 S2 1.483189 1_555
O51 S1 1.493251 1_555
O52 Si0 1.703911 1_655
O53 S0 1.494894 1_555
O54 Si5 1.665894 1_555
O54 Ti0 1.831630 1_555
O55 S7 1.512743 1_655
O55 Ti0 2.165352 1_555
O56 Si6 1.650200 1_545
O56 Ti0 1.941123 1_555
O57 Si7 1.657282 1_545
O57 Ti1 1.963565 1_555
O58 S8 1.490187 1_555
O58 Ti1 2.104052 1_555
O59 Si8 1.719443 1_655
O59 Ti1 1.860851 1_555
O60 S6 1.469490 1_555
O61 Si4 1.631001 1_455
O62 S5 1.479323 1_565
O63 S4 1.501757 1_565
O64 Si3 1.652048 1_555
O65 S3 1.465648 1_455
O66 S0 1.510893 1_565
O67 S1 1.483422 1_555
O68 Si0 1.653199 1_555
O69 Si1 1.663853 1_555
O69 Ti2 1.919011 1_555
O70 S2 1.477983 1_455
O70 Ti2 2.185553 1_555
O71 Si2 1.706787 1_565
O71 Ti2 1.879813 1_555
