# generated using pymatgen
data_MgCo4(SbO6)2
_symmetry_space_group_name_H-M   'P 1'
_cell_length_a   5.28813377
_cell_length_b   5.19033272
_cell_length_c   10.43888151
_cell_angle_alpha   90.57117399
_cell_angle_beta   90.28029203
_cell_angle_gamma   60.60992230
_symmetry_Int_Tables_number   1
_chemical_formula_structural   MgCo4(SbO6)2
_chemical_formula_sum   'Mg1 Co4 Sb2 O12'
_cell_volume   249.63020925
_cell_formula_units_Z   1
loop_
 _symmetry_equiv_pos_site_id
 _symmetry_equiv_pos_as_xyz
  1  'x, y, z'
loop_
 _atom_site_type_symbol
 _atom_site_label
 _atom_site_symmetry_multiplicity
 _atom_site_fract_x
 _atom_site_fract_y
 _atom_site_fract_z
 _atom_site_occupancy
  Mg  Mg0  1  0.00000000  0.64144100  0.22382300  1
  Co  Co0  1  0.33650400  0.34224600  0.98276900  1
  Co  Co1  1  0.33385300  0.83383400  0.50378100  1
  Co  Co2  1  0.66614700  0.16768700  0.50378100  1
  Co  Co3  1  0.66349600  0.67874900  0.98276900  1
  Sb  Sb0  1  0.00000000  0.00572300  0.99456200  1
  Sb  Sb1  1  0.00000000  0.50386600  0.51976800  1
  O  O0  1  0.00000000  0.14357700  0.59298700  1
  O  O1  1  0.00000000  0.34334900  0.09635400  1
  O  O2  1  0.00000000  0.67159300  0.89488000  1
  O  O3  1  0.33086400  0.99654000  0.90052300  1
  O  O4  1  0.00000000  0.79763000  0.39417300  1
  O  O5  1  0.33511900  0.16471700  0.41609700  1
  O  O6  1  0.33050100  0.52603900  0.60211400  1
  O  O7  1  0.30077400  0.66797600  0.10206800  1
  O  O8  1  0.69922600  0.96874900  0.10206800  1
  O  O9  1  0.66913600  0.32740400  0.90052300  1
  O  O10  1  0.66488100  0.49983700  0.41609700  1
  O  O11  1  0.66949900  0.85654100  0.60211400  1
loop_
_geom_bond_atom_site_label_1
_geom_bond_atom_site_label_2
_geom_bond_distance
_geom_bond_site_symmetry_2
Mg0 O4 1.946964 1_555
Mg0 O1 2.030605 1_555
Mg0 O8 2.098198 1_455
Mg0 O7 2.098200 1_555
Co0 O9 1.928108 1_555
Co0 O2 1.989994 1_555
Co0 O3 1.994790 1_545
Co0 O7 2.022788 1_556
Co0 O1 2.140787 1_556
Co0 O8 2.315872 1_546
Co1 O6 1.914902 1_555
Co1 O0 1.941405 1_565
Co1 O5 1.957035 1_565
Co1 O10 1.978103 1_555
Co1 O11 2.098348 1_555
Co1 O4 2.182402 1_555
Co2 O11 1.914897 1_545
Co2 O0 1.941406 1_655
Co2 O10 1.957039 1_555
Co2 O5 1.978106 1_555
Co2 O6 2.098345 1_555
Co2 O4 2.182402 1_645
Co3 O3 1.928111 1_555
Co3 O2 1.989996 1_655
Co3 O9 1.994785 1_555
Co3 O8 2.022789 1_556
Co3 O1 2.140785 1_656
Co3 O7 2.315867 1_556
O0 Sb1 2.027230 1_555
O1 Sb0 2.040308 1_554
O2 Sb0 2.013557 1_565
O3 Sb0 1.990286 1_565
O4 Sb1 2.020785 1_555
O5 Sb1 2.080699 1_555
O6 Sb1 1.996867 1_555
O7 Sb0 2.036514 1_564
O8 Sb0 2.036517 1_664
O9 Sb0 1.990286 1_655
O10 Sb1 2.080698 1_655
O11 Sb1 1.996869 1_655
