# generated using pymatgen
data_Na4ScAlSi(PO6)2
_symmetry_space_group_name_H-M   'P 1'
_cell_length_a   8.95360780
_cell_length_b   8.95092236
_cell_length_c   21.96916863
_cell_angle_alpha   89.98796698
_cell_angle_beta   89.87025731
_cell_angle_gamma   120.04444541
_symmetry_Int_Tables_number   1
_chemical_formula_structural   Na4ScAlSi(PO6)2
_chemical_formula_sum   'Na24 Sc6 Al6 Si6 P12 O72'
_cell_volume   1524.10116843
_cell_formula_units_Z   6
loop_
 _symmetry_equiv_pos_site_id
 _symmetry_equiv_pos_as_xyz
  1  'x, y, z'
loop_
 _atom_site_type_symbol
 _atom_site_label
 _atom_site_symmetry_multiplicity
 _atom_site_fract_x
 _atom_site_fract_y
 _atom_site_fract_z
 _atom_site_occupancy
  Na  Na0  1  0.63587878  0.00256819  0.25193443  1
  Na  Na1  1  0.36452545  0.36659272  0.24977454  1
  Na  Na2  1  0.00122821  0.62742013  0.25075109  1
  Na  Na3  1  0.63540594  0.63755914  0.74768977  1
  Na  Na4  1  0.99609511  0.36179259  0.75001086  1
  Na  Na5  1  0.37294879  0.00241033  0.74845058  1
  Na  Na6  1  0.29950588  0.33047843  0.58255734  1
  Na  Na7  1  0.03900489  0.70610739  0.58228260  1
  Na  Na8  1  0.66387488  0.96547213  0.58621024  1
  Na  Na9  1  0.29852831  0.96593753  0.08299142  1
  Na  Na10  1  0.67091195  0.69709203  0.08345596  1
  Na  Na11  1  0.03080757  0.33611066  0.08709911  1
  Na  Na12  1  0.97277817  0.67112037  0.91896122  1
  Na  Na13  1  0.69414279  0.03156509  0.91379674  1
  Na  Na14  1  0.33313009  0.29757007  0.91653638  1
  Na  Na15  1  0.96778833  0.30340082  0.41396299  1
  Na  Na16  1  0.32967825  0.02891686  0.41884670  1
  Na  Na17  1  0.70155304  0.66719902  0.41671051  1
  Na  Na18  1  0.00343901  0.99765817  0.49974428  1
  Na  Na19  1  0.00262884  0.99634879  0.00103632  1
  Na  Na20  1  0.66430002  0.32634831  0.83200647  1
  Na  Na21  1  0.67192585  0.33440277  0.33491614  1
  Na  Na22  1  0.32712513  0.66256347  0.16824255  1
  Na  Na23  1  0.33748061  0.67275303  0.66585946  1
  Sc  Sc0  1  0.99862783  0.00060602  0.84790048  1
  Sc  Sc1  1  0.67555337  0.33591090  0.18739144  1
  Sc  Sc2  1  0.66855040  0.33622232  0.98499358  1
  Sc  Sc3  1  0.32776342  0.66973052  0.01811095  1
  Sc  Sc4  1  0.32905731  0.67369045  0.51717988  1
  Sc  Sc5  1  0.34004055  0.67680873  0.81294613  1
  Al  Al0  1  0.99873709  0.99738894  0.35028172  1
  Al  Al1  1  0.00244299  0.99903534  0.64805666  1
  Al  Al2  1  0.00201360  0.00099992  0.15138827  1
  Al  Al3  1  0.66484990  0.32508109  0.68309052  1
  Al  Al4  1  0.66746793  0.33600583  0.48381639  1
  Al  Al5  1  0.31971815  0.65565460  0.31641843  1
  Si  Si0  1  0.00728078  0.28622656  0.25231116  1
  Si  Si1  1  0.71272645  0.00816934  0.74452366  1
  Si  Si2  1  0.37757712  0.05159075  0.58424270  1
  Si  Si3  1  0.96530063  0.64113869  0.08599048  1
  Si  Si4  1  0.33350089  0.96791639  0.91624294  1
  Si  Si5  1  0.03296642  0.66666948  0.41450926  1
  P  P0  1  0.28206589  0.99418537  0.25198381  1
  P  P1  1  0.71084945  0.71850017  0.25200738  1
  P  P2  1  0.29571613  0.29004869  0.74537538  1
  P  P3  1  0.99224428  0.70309568  0.74527217  1
  P  P4  1  0.94846124  0.32790334  0.58419440  1
  P  P5  1  0.67188823  0.61851332  0.58490039  1
  P  P6  1  0.67378568  0.03650820  0.08567580  1
  P  P7  1  0.36490955  0.32686396  0.08608788  1
  P  P8  1  0.62854726  0.66540409  0.91632933  1
  P  P9  1  0.03797525  0.37088456  0.91585344  1
  P  P10  1  0.62700556  0.95903143  0.41394051  1
  P  P11  1  0.33319461  0.37257380  0.41480630  1
  O  O0  1  0.19602682  0.02380543  0.30790942  1
  O  O1  1  0.82805869  0.80088500  0.30770708  1
  O  O2  1  0.97385236  0.16189106  0.31076474  1
  O  O3  1  0.22257297  0.18149323  0.80430335  1
  O  O4  1  0.96034194  0.77754650  0.80441618  1
  O  O5  1  0.82343116  0.04301768  0.80746044  1
  O  O6  1  0.81184252  0.97314839  0.68845360  1
  O  O7  1  0.17375373  0.19800462  0.69130270  1
  O  O8  1  0.02757258  0.82712195  0.69129959  1
  O  O9  1  0.79476854  0.82943951  0.19419493  1
  O  O10  1  0.03597719  0.19717358  0.19130997  1
  O  O11  1  0.17032253  0.96390934  0.19433855  1
  O  O12  1  0.86669888  0.36306425  0.64034364  1
  O  O13  1  0.50046535  0.14010738  0.64292227  1
  O  O14  1  0.64420051  0.50408220  0.64112291  1
  O  O15  1  0.87660624  0.51196971  0.14374283  1
  O  O16  1  0.63378656  0.11703571  0.14087219  1
  O  O17  1  0.48153103  0.35945742  0.14156605  1
  O  O18  1  0.44426111  0.29428663  0.02829471  1
  O  O19  1  0.84614961  0.55908400  0.02514938  1
  O  O20  1  0.70511598  0.14859990  0.02819394  1
  O  O21  1  0.46814631  0.17221592  0.52331278  1
  O  O22  1  0.70092882  0.53608507  0.52694321  1
  O  O23  1  0.83611502  0.30013313  0.52676342  1
  O  O24  1  0.54610456  0.69418079  0.97379746  1
  O  O25  1  0.15066814  0.45151519  0.97314273  1
  O  O26  1  0.29913260  0.84706910  0.97622212  1
  O  O27  1  0.55234957  0.84667242  0.47197870  1
  O  O28  1  0.29772131  0.44899410  0.47256039  1
  O  O29  1  0.15451245  0.71016898  0.47515392  1
  O  O30  1  0.12853713  0.62923002  0.35729004  1
  O  O31  1  0.50521329  0.86850288  0.35898132  1
  O  O32  1  0.36753642  0.49527103  0.35956347  1
  O  O33  1  0.12166952  0.48252990  0.85903217  1
  O  O34  1  0.36743695  0.87985873  0.85655173  1
  O  O35  1  0.51510479  0.63420570  0.85971737  1
  O  O36  1  0.01321881  0.84002203  0.40575547  1
  O  O37  1  0.81037557  0.98034368  0.40731593  1
  O  O38  1  0.17112662  0.18965750  0.40721386  1
  O  O39  1  0.01853947  0.18955615  0.91233303  1
  O  O40  1  0.16013327  0.98388100  0.91242704  1
  O  O41  1  0.80804262  0.82924248  0.91151217  1
  O  O42  1  0.96807320  0.16437615  0.58984999  1
  O  O43  1  0.18040593  0.02713074  0.59141151  1
  O  O44  1  0.83487429  0.80279445  0.58980773  1
  O  O45  1  0.98222512  0.83111391  0.09473777  1
  O  O46  1  0.83837330  0.02266219  0.09288495  1
  O  O47  1  0.18405123  0.16359717  0.09205825  1
  O  O48  1  0.69195385  0.18129615  0.73972644  1
  O  O49  1  0.48043604  0.31558769  0.73930591  1
  O  O50  1  0.82814804  0.52189418  0.73829688  1
  O  O51  1  0.68594707  0.53373633  0.24748051  1
  O  O52  1  0.83397704  0.30776999  0.24923558  1
  O  O53  1  0.46361231  0.15811193  0.24721280  1
  O  O54  1  0.64754485  0.50406106  0.92032881  1
  O  O55  1  0.85912292  0.35523387  0.92131630  1
  O  O56  1  0.50714873  0.15717176  0.92043286  1
  O  O57  1  0.64333835  0.14028910  0.42140703  1
  O  O58  1  0.49812545  0.35599288  0.42101299  1
  O  O59  1  0.84119256  0.49035290  0.42500854  1
  O  O60  1  0.34899827  0.49048503  0.07984827  1
  O  O61  1  0.15453511  0.65424594  0.08229895  1
  O  O62  1  0.51405437  0.85384525  0.07990714  1
  O  O63  1  0.35694636  0.85704748  0.58070869  1
  O  O64  1  0.50847172  0.63710736  0.58005340  1
  O  O65  1  0.13319876  0.48831206  0.57952916  1
  O  O66  1  0.30653117  0.83321414  0.25790929  1
  O  O67  1  0.52844843  0.70083332  0.25865607  1
  O  O68  1  0.18157376  0.48282812  0.25781715  1
  O  O69  1  0.30903799  0.46873122  0.75043463  1
  O  O70  1  0.15313080  0.68175279  0.75017856  1
  O  O71  1  0.52106958  0.83221904  0.74825792  1
loop_
_geom_bond_atom_site_label_1
_geom_bond_atom_site_label_2
_geom_bond_distance
_geom_bond_site_symmetry_2
Na0 O67 2.374702 1_545
Na0 O52 2.399989 1_555
Na0 O53 2.545416 1_555
Na0 O66 2.555952 1_545
Na0 O31 2.630577 1_545
Na0 O16 2.649876 1_555
Na0 O9 2.869604 1_545
Na0 O2 2.925503 1_555
Na1 O68 2.345701 1_555
Na1 O53 2.435198 1_555
Na1 O51 2.492186 1_555
Na1 O67 2.597593 1_555
Na1 O17 2.609348 1_555
Na1 O32 2.667456 1_555
Na1 O10 2.855506 1_555
Na1 O0 2.945490 1_555
Na2 O66 2.418716 1_555
Na2 O52 2.477860 1_455
Na2 O51 2.511518 1_455
Na2 O68 2.529870 1_555
Na2 O15 2.588023 1_455
Na2 O30 2.602203 1_555
Na2 O11 2.885036 1_555
Na2 O1 2.963641 1_455
Na3 O71 2.422837 1_555
Na3 O50 2.424904 1_555
Na3 O49 2.502395 1_555
Na3 O69 2.530551 1_555
Na3 O14 2.647508 1_555
Na3 O35 2.678427 1_555
Na3 O4 2.820315 1_555
Na3 O6 2.906812 1_555
Na4 O48 2.382082 1_555
Na4 O69 2.466134 1_655
Na4 O70 2.479297 1_655
Na4 O50 2.557443 1_555
Na4 O33 2.639164 1_655
Na4 O12 2.678236 1_555
Na4 O5 2.774350 1_555
Na4 O7 2.944446 1_655
Na5 O71 2.470329 1_545
Na5 O49 2.474286 1_555
Na5 O48 2.485265 1_555
Na5 O70 2.540884 1_545
Na5 O13 2.602922 1_555
Na5 O34 2.605766 1_545
Na5 O3 2.835909 1_555
Na5 O8 2.959878 1_545
Na6 O43 2.376345 1_555
Na6 O64 2.427748 1_555
Na6 O65 2.514850 1_555
Na6 O42 2.573348 1_455
Na6 O28 2.642224 1_555
Na6 O7 2.651611 1_555
Na6 O21 2.848583 1_555
Na6 O14 2.968448 1_555
Na7 O44 2.387342 1_455
Na7 O63 2.465495 1_555
Na7 O65 2.482243 1_555
Na7 O43 2.501683 1_565
Na7 O29 2.561503 1_555
Na7 O8 2.651579 1_555
Na7 O22 2.891617 1_455
Na7 O12 2.946420 1_455
Na8 O42 2.395808 1_565
Na8 O63 2.416516 1_555
Na8 O64 2.549306 1_555
Na8 O44 2.589124 1_555
Na8 O6 2.593790 1_555
Na8 O27 2.715700 1_555
Na8 O13 2.901567 1_565
Na8 O23 2.901811 1_565
Na9 O61 2.417530 1_555
Na9 O47 2.456738 1_565
Na9 O45 2.473407 1_455
Na9 O26 2.576982 1_554
Na9 O62 2.583281 1_555
Na9 O11 2.695983 1_555
Na9 O18 2.817044 1_565
Na9 O16 2.899914 1_565
Na10 O62 2.433276 1_555
Na10 O45 2.434123 1_555
Na10 O60 2.529332 1_555
Na10 O46 2.531740 1_565
Na10 O24 2.652600 1_554
Na10 O9 2.692551 1_555
Na10 O19 2.749717 1_555
Na10 O17 2.914712 1_555
Na11 O46 2.452506 1_455
Na11 O60 2.471269 1_555
Na11 O61 2.487512 1_555
Na11 O47 2.530031 1_555
Na11 O10 2.616699 1_555
Na11 O25 2.713502 1_554
Na11 O15 2.846372 1_455
Na11 O20 2.848238 1_455
Na12 O40 2.442964 1_655
Na12 O55 2.480198 1_555
Na12 O41 2.509366 1_555
Na12 O54 2.521120 1_555
Na12 O19 2.565524 1_556
Na12 O4 2.712732 1_555
Na12 O26 2.830291 1_655
Na12 O33 2.933689 1_655
Na13 O56 2.443839 1_555
Na13 O41 2.484213 1_545
Na13 O55 2.513704 1_555
Na13 O39 2.514698 1_655
Na13 O5 2.583955 1_555
Na13 O20 2.706002 1_556
Na13 O34 2.832349 1_545
Na13 O24 2.931976 1_545
Na14 O40 2.436579 1_545
Na14 O56 2.444485 1_555
Na14 O54 2.477719 1_555
Na14 O39 2.480217 1_555
Na14 O18 2.656961 1_556
Na14 O3 2.668549 1_555
Na14 O25 2.891352 1_555
Na14 O35 2.892296 1_555
Na15 O59 2.458083 1_555
Na15 O38 2.495609 1_655
Na15 O37 2.507899 1_545
Na15 O57 2.519546 1_555
Na15 O2 2.610929 1_555
Na15 O23 2.735713 1_555
Na15 O30 2.813291 1_655
Na15 O28 2.871446 1_655
Na16 O57 2.466036 1_555
Na16 O36 2.485282 1_545
Na16 O38 2.489461 1_555
Na16 O58 2.535145 1_555
Na16 O21 2.621302 1_555
Na16 O0 2.707853 1_555
Na16 O29 2.763900 1_545
Na16 O31 2.917655 1_545
Na17 O36 2.431508 1_655
Na17 O58 2.450417 1_555
Na17 O59 2.466737 1_555
Na17 O37 2.472353 1_555
Na17 O1 2.660605 1_555
Na17 O22 2.689657 1_555
Na17 O27 2.825252 1_555
Na17 O32 2.880582 1_555
Na18 O43 2.496383 1_565
Na18 O36 2.527115 1_555
Na18 O44 2.565949 1_455
Na18 O42 2.591784 1_465
Na18 O38 2.596348 1_565
Na18 O37 2.623571 1_455
Na19 O40 2.436389 1_554
Na19 O45 2.486944 1_455
Na19 O47 2.541530 1_565
Na19 O41 2.558941 1_454
Na19 O39 2.561108 1_564
Na19 O46 2.573646 1_465
Na20 O56 2.428916 1_555
Na20 O48 2.485511 1_555
Na20 O55 2.554106 1_555
Na20 O54 2.560620 1_555
Na20 O49 2.592961 1_555
Na20 O50 2.620632 1_555
Na21 O52 2.457520 1_555
Na21 O59 2.461548 1_555
Na21 O57 2.499199 1_555
Na21 O58 2.514867 1_555
Na21 O51 2.581121 1_555
Na21 O53 2.598398 1_555
Na22 O61 2.420028 1_555
Na22 O68 2.459019 1_555
Na22 O60 2.546274 1_555
Na22 O66 2.555263 1_555
Na22 O62 2.571629 1_555
Na22 O67 2.590410 1_555
Na23 O71 2.383578 1_555
Na23 O63 2.441392 1_555
Na23 O70 2.506347 1_555
Na23 O69 2.526436 1_555
Na23 O64 2.544719 1_555
Na23 O65 2.580977 1_555
Al0 O2 1.816669 1_565
Al0 O0 1.901851 1_665
Al0 O1 1.902508 1_555
Al0 O36 1.915476 1_655
Al0 O37 2.042130 1_555
Al0 O38 2.063566 1_665
Al1 O6 1.830511 1_455
Al1 O8 1.915215 1_555
Al1 O7 1.923298 1_565
Al1 O43 1.934034 1_565
Al1 O44 2.084401 1_455
Al1 O42 2.092175 1_465
Al2 O10 1.847203 1_555
Al2 O45 1.903858 1_445
Al2 O11 1.943919 1_545
Al2 O9 1.955488 1_445
Al2 O47 2.021860 1_555
Al2 O46 2.032028 1_455
Al3 O13 1.803513 1_555
Al3 O48 1.891261 1_555
Al3 O12 1.908057 1_555
Al3 O14 1.936016 1_555
Al3 O49 2.027078 1_555
Al3 O50 2.035168 1_555
Al4 O21 1.860042 1_555
Al4 O22 1.912975 1_555
Al4 O23 1.940423 1_555
Al4 O59 1.958473 1_555
Al4 O58 2.124998 1_555
Al4 O57 2.149154 1_555
Al5 O30 1.838437 1_555
Al5 O68 1.916374 1_555
Al5 O32 1.938910 1_555
Al5 O31 2.025296 1_555
Al5 O66 2.092813 1_555
Al5 O67 2.121057 1_555
O0 P0 1.540672 1_545
O1 P1 1.540708 1_555
O2 Si0 1.625235 1_655
O3 P2 1.551597 1_555
O3 Sc0 2.073442 1_455
O4 P3 1.550249 1_555
O4 Sc0 2.081692 1_565
O5 Si1 1.639619 1_555
O5 Sc0 1.999133 1_555
O6 Si1 1.636142 1_565
O7 P2 1.545260 1_555
O8 P3 1.544205 1_455
O9 P1 1.552994 1_555
O10 Si0 1.643580 1_555
O11 P0 1.553271 1_555
O12 P4 1.543828 1_555
O13 Si2 1.623019 1_555
O14 P5 1.542731 1_555
O15 Si3 1.628683 1_555
O15 Sc1 1.947921 1_555
O16 P6 1.541150 1_555
O16 Sc1 2.071585 1_555
O17 P7 1.536815 1_555
O17 Sc1 2.109569 1_555
O18 P7 1.550933 1_555
O18 Sc2 2.077280 1_554
O19 Si3 1.639028 1_555
O19 Sc2 2.029017 1_554
O20 P6 1.547941 1_555
O20 Sc2 2.092748 1_554
O21 Si2 1.653148 1_555
O22 P5 1.556980 1_555
O23 P4 1.555973 1_555
O24 P8 1.546449 1_555
O24 Sc3 2.092923 1_556
O25 P9 1.549186 1_555
O25 Sc3 2.052306 1_556
O26 Si4 1.632583 1_555
O26 Sc3 1.959636 1_556
O27 P10 1.551280 1_555
O27 Sc4 2.066692 1_555
O28 P11 1.547496 1_555
O28 Sc4 2.126434 1_555
O29 Si5 1.641184 1_555
O29 Sc4 1.979593 1_555
O30 Si5 1.645351 1_555
O31 P10 1.557288 1_555
O32 P11 1.559881 1_555
O33 P9 1.537488 1_555
O33 Sc5 2.111313 1_555
O34 Si4 1.634536 1_555
O34 Sc5 1.958703 1_555
O35 P8 1.542188 1_555
O35 Sc5 2.064899 1_555
O36 Si5 1.658512 1_555
O37 P10 1.561550 1_555
O38 P11 1.560876 1_555
O39 P9 1.545272 1_555
O39 Sc0 2.143863 1_455
O40 Si4 1.630851 1_555
O40 Sc0 2.085433 1_465
O41 P8 1.543969 1_555
O41 Sc0 2.141256 1_565
O42 P4 1.564014 1_555
O43 Si2 1.673632 1_555
O44 P5 1.566033 1_555
O45 Si3 1.641243 1_555
O46 P6 1.547911 1_555
O47 P7 1.550615 1_555
O48 Si1 1.654002 1_555
O49 P2 1.557516 1_555
O50 P3 1.558116 1_555
O51 P1 1.557438 1_555
O51 Sc1 2.173321 1_555
O52 Si0 1.658190 1_655
O52 Sc1 2.070703 1_555
O53 P0 1.554688 1_545
O53 Sc1 2.196525 1_555
O54 P8 1.538919 1_555
O54 Sc2 2.143303 1_555
O55 P9 1.540426 1_655
O55 Sc2 2.143786 1_555
O56 Si4 1.630595 1_545
O56 Sc2 2.087991 1_555
O57 P10 1.563071 1_545
O58 P11 1.562596 1_555
O59 Si5 1.666365 1_655
O60 P7 1.546917 1_555
O60 Sc3 2.180732 1_555
O61 Si3 1.640556 1_455
O61 Sc3 2.046500 1_555
O62 P6 1.547293 1_565
O62 Sc3 2.144721 1_555
O63 Si2 1.658448 1_565
O63 Sc4 2.072683 1_555
O64 P5 1.557062 1_555
O64 Sc4 2.265455 1_555
O65 P4 1.558539 1_455
O65 Sc4 2.186146 1_555
O66 P0 1.567497 1_555
O67 P1 1.566467 1_555
O68 Si0 1.672656 1_555
O69 P2 1.547153 1_555
O69 Sc5 2.217440 1_555
O70 P3 1.549018 1_455
O70 Sc5 2.188312 1_555
O71 Si1 1.650730 1_565
O71 Sc5 2.076752 1_555
