# generated using pymatgen
data_V2Se9
_symmetry_space_group_name_H-M   'P 1'
_cell_length_a   8.31735644
_cell_length_b   8.40399975
_cell_length_c   8.40400006
_cell_angle_alpha   100.87852086
_cell_angle_beta   94.76357251
_cell_angle_gamma   94.76356390
_symmetry_Int_Tables_number   1
_chemical_formula_structural   V2Se9
_chemical_formula_sum   'V4 Se18'
_cell_volume   571.95046138
_cell_formula_units_Z   2
loop_
 _symmetry_equiv_pos_site_id
 _symmetry_equiv_pos_as_xyz
  1  'x, y, z'
loop_
 _atom_site_type_symbol
 _atom_site_label
 _atom_site_symmetry_multiplicity
 _atom_site_fract_x
 _atom_site_fract_y
 _atom_site_fract_z
 _atom_site_occupancy
  V  V0  1  0.08419959  0.13589379  0.59962236  1
  V  V1  1  0.41580041  0.40037764  0.86410621  1
  V  V2  1  0.91580041  0.86410621  0.40037764  1
  V  V3  1  0.58419959  0.59962236  0.13589379  1
  Se  Se0  1  0.53323619  0.29642819  0.59877230  1
  Se  Se1  1  0.96676381  0.40122770  0.70357181  1
  Se  Se2  1  0.61452293  0.90368285  0.29594358  1
  Se  Se3  1  0.88547707  0.70405642  0.09631715  1
  Se  Se4  1  0.38547707  0.09631715  0.70405642  1
  Se  Se5  1  0.11452293  0.29594358  0.90368285  1
  Se  Se6  1  0.55640140  0.67603930  0.85647849  1
  Se  Se7  1  0.94359860  0.14352151  0.32396070  1
  Se  Se8  1  0.44359860  0.32396070  0.14352151  1
  Se  Se9  1  0.05640140  0.85647849  0.67603930  1
  Se  Se10  1  0.32991286  0.67232316  0.99434318  1
  Se  Se11  1  0.17008714  0.00565682  0.32767684  1
  Se  Se12  1  0.67008714  0.32767684  0.00565682  1
  Se  Se13  1  0.82991286  0.99434318  0.67232316  1
  Se  Se14  1  0.03323619  0.59877230  0.29642819  1
  Se  Se15  1  0.46676381  0.70357181  0.40122770  1
  Se  Se16  1  0.25000000  0.40966146  0.59033854  1
  Se  Se17  1  0.75000000  0.59033854  0.40966146  1
loop_
_geom_bond_atom_site_label_1
_geom_bond_atom_site_label_2
_geom_bond_distance
_geom_bond_site_symmetry_2
Se0 Se4 2.349565 1_555
Se0 V1 2.541201 1_555
Se0 Se16 2.613491 1_555
Se1 Se5 2.349565 1_655
Se1 V0 2.541201 1_655
Se1 Se16 2.613491 1_655
Se2 V3 2.634721 1_555
Se2 V2 2.653949 1_555
Se3 V2 2.634721 1_555
Se3 V3 2.653950 1_555
Se4 V1 2.634721 1_555
Se4 V0 2.653949 1_555
Se5 V0 2.634721 1_555
Se5 V1 2.653950 1_555
Se6 V1 2.521335 1_555
Se6 V3 2.546304 1_556
Se7 V0 2.521335 1_655
Se7 V2 2.546304 1_545
Se8 V3 2.521335 1_555
Se8 V1 2.546304 1_554
Se9 V2 2.521335 1_455
Se9 V0 2.546304 1_565
Se10 Se6 2.293121 1_555
Se10 V3 2.516486 1_556
Se10 V1 2.527508 1_555
Se11 Se7 2.293120 1_455
Se11 V2 2.516487 1_445
Se11 V0 2.527508 1_555
Se12 Se8 2.293121 1_555
Se12 V1 2.516486 1_554
Se12 V3 2.527508 1_555
Se13 Se9 2.293120 1_655
Se13 V0 2.516487 1_665
Se13 V2 2.527508 1_555
Se14 Se3 2.349565 1_455
Se14 V2 2.541201 1_455
Se14 Se17 2.613491 1_455
Se15 Se2 2.349565 1_555
Se15 V3 2.541201 1_555
Se15 Se17 2.613491 1_555
Se16 V1 2.599975 1_555
Se16 V0 2.599975 1_555
Se17 V3 2.599975 1_555
Se17 V2 2.599975 1_555
