# generated using pymatgen
data_HoGeRh
_symmetry_space_group_name_H-M   'P 1'
_cell_length_a   4.28338852
_cell_length_b   6.87828637
_cell_length_c   7.49827563
_cell_angle_alpha   90.00000000
_cell_angle_beta   90.00000000
_cell_angle_gamma   90.00000000
_symmetry_Int_Tables_number   1
_chemical_formula_structural   HoGeRh
_chemical_formula_sum   'Ho4 Ge4 Rh4'
_cell_volume   220.91699253
_cell_formula_units_Z   4
loop_
 _symmetry_equiv_pos_site_id
 _symmetry_equiv_pos_as_xyz
  1  'x, y, z'
loop_
 _atom_site_type_symbol
 _atom_site_label
 _atom_site_symmetry_multiplicity
 _atom_site_fract_x
 _atom_site_fract_y
 _atom_site_fract_z
 _atom_site_occupancy
  Ho  Ho0  1  0.25000000  0.50173988  0.30405853  1
  Ho  Ho1  1  0.75000000  0.49826012  0.69594147  1
  Ho  Ho2  1  0.25000000  0.00173988  0.19594147  1
  Ho  Ho3  1  0.75000000  0.99826012  0.80405853  1
  Ge  Ge0  1  0.25000000  0.28889513  0.89420663  1
  Ge  Ge1  1  0.75000000  0.71110487  0.10579337  1
  Ge  Ge2  1  0.25000000  0.78889513  0.60579337  1
  Ge  Ge3  1  0.75000000  0.21110487  0.39420663  1
  Rh  Rh0  1  0.75000000  0.84495742  0.43299423  1
  Rh  Rh1  1  0.25000000  0.15504258  0.56700577  1
  Rh  Rh2  1  0.75000000  0.34495742  0.06700577  1
  Rh  Rh3  1  0.25000000  0.65504258  0.93299423  1
loop_
_geom_bond_atom_site_label_1
_geom_bond_atom_site_label_2
_geom_bond_distance
_geom_bond_site_symmetry_2
Ho0 Rh3 2.975452 1_554
Ho0 Rh2 2.984837 1_455
Ho0 Rh2 2.984837 1_555
Ho0 Rh1 3.094208 1_555
Ho0 Rh0 3.330868 1_455
Ho0 Rh0 3.330868 1_555
Ho1 Rh2 2.975452 1_556
Ho1 Rh3 2.984837 1_655
Ho1 Rh3 2.984837 1_555
Ho1 Rh0 3.094208 1_555
Ho1 Rh1 3.330868 1_555
Ho1 Rh1 3.330868 1_655
Ho2 Rh1 2.975452 1_555
Ho2 Rh0 2.984837 1_445
Ho2 Rh0 2.984837 1_545
Ho2 Rh3 3.094208 1_544
Ho2 Rh2 3.330868 1_455
Ho2 Rh2 3.330868 1_555
Ho3 Rh0 2.975452 1_555
Ho3 Rh1 2.984837 1_665
Ho3 Rh1 2.984837 1_565
Ho3 Rh2 3.094208 1_566
Ho3 Rh3 3.330868 1_555
Ho3 Rh3 3.330868 1_655
Ge0 Rh2 2.532662 1_556
Ge0 Rh2 2.532662 1_456
Ge0 Rh3 2.535205 1_555
Ge0 Rh1 2.620501 1_555
Ge0 Ho1 2.978386 1_455
Ge0 Ho1 2.978386 1_555
Ge0 Ho2 3.003336 1_556
Ge0 Ho3 3.006668 1_445
Ge0 Ho3 3.006668 1_545
Ge1 Rh3 2.532662 1_654
Ge1 Rh3 2.532662 1_554
Ge1 Rh2 2.535205 1_555
Ge1 Rh0 2.620501 1_555
Ge1 Ho0 2.978386 1_655
Ge1 Ho0 2.978386 1_555
Ge1 Ho3 3.003336 1_554
Ge1 Ho2 3.006668 1_565
Ge1 Ho2 3.006668 1_665
Ge2 Rh0 2.532662 1_455
Ge2 Rh0 2.532662 1_555
Ge2 Rh1 2.535205 1_565
Ge2 Rh3 2.620501 1_555
Ge2 Ho3 2.978386 1_555
Ge2 Ho3 2.978386 1_455
Ge2 Ho0 3.003336 1_555
Ge2 Ho1 3.006668 1_555
Ge2 Ho1 3.006668 1_455
Ge3 Rh1 2.532662 1_655
Ge3 Rh1 2.532662 1_555
Ge3 Rh0 2.535205 1_545
Ge3 Rh2 2.620501 1_555
Ge3 Ho2 2.978386 1_655
Ge3 Ho2 2.978386 1_555
Ge3 Ho1 3.003336 1_555
Ge3 Ho0 3.006668 1_555
Ge3 Ho0 3.006668 1_655
