# generated using pymatgen
data_Na4CaZr3(PO4)6
_symmetry_space_group_name_H-M   'P 1'
_cell_length_a   9.08062067
_cell_length_b   9.08651495
_cell_length_c   23.23781833
_cell_angle_alpha   90.05804566
_cell_angle_beta   89.96442652
_cell_angle_gamma   119.84871425
_symmetry_Int_Tables_number   1
_chemical_formula_structural   Na4CaZr3(PO4)6
_chemical_formula_sum   'Na12 Ca3 Zr9 P18 O72'
_cell_volume   1663.02463438
_cell_formula_units_Z   3
loop_
 _symmetry_equiv_pos_site_id
 _symmetry_equiv_pos_as_xyz
  1  'x, y, z'
loop_
 _atom_site_type_symbol
 _atom_site_label
 _atom_site_symmetry_multiplicity
 _atom_site_fract_x
 _atom_site_fract_y
 _atom_site_fract_z
 _atom_site_occupancy
  Na  Na0  1  0.64382670  0.01127222  0.24623086  1
  Na  Na1  1  0.36796132  0.35639474  0.24617087  1
  Na  Na2  1  0.98844954  0.63146465  0.24585149  1
  Na  Na3  1  0.98944869  0.36290075  0.74495936  1
  Na  Na4  1  0.37312067  0.00758319  0.74497344  1
  Na  Na5  1  0.70742112  0.67510165  0.41595600  1
  Na  Na6  1  0.01119518  0.01142676  0.49672451  1
  Na  Na7  1  0.00012356  0.00021425  0.00188718  1
  Na  Na8  1  0.66607489  0.34400471  0.83268050  1
  Na  Na9  1  0.66601402  0.32353664  0.33332973  1
  Na  Na10  1  0.33334089  0.66663519  0.16175357  1
  Na  Na11  1  0.34436195  0.66566804  0.66193927  1
  Ca  Ca0  1  0.00742930  0.00816270  0.35506319  1
  Ca  Ca1  1  0.66562793  0.34140838  0.68232807  1
  Ca  Ca2  1  0.66682029  0.33374566  0.17629518  1
  Zr  Zr0  1  0.99830254  0.99784283  0.85578139  1
  Zr  Zr1  1  0.99613103  0.99610909  0.64394559  1
  Zr  Zr2  1  0.00059520  0.00038355  0.14542271  1
  Zr  Zr3  1  0.66692545  0.33254887  0.98323652  1
  Zr  Zr4  1  0.66620403  0.32713215  0.48445405  1
  Zr  Zr5  1  0.33299433  0.66654850  0.01781136  1
  Zr  Zr6  1  0.33015162  0.66652262  0.52000208  1
  Zr  Zr7  1  0.33052262  0.66666631  0.31777242  1
  Zr  Zr8  1  0.33865049  0.66601093  0.81645830  1
  P  P0  1  0.29386515  0.99751314  0.25004843  1
  P  P1  1  0.70373248  0.70663343  0.25201350  1
  P  P2  1  0.00202530  0.29585799  0.25024116  1
  P  P3  1  0.28375544  0.28745450  0.75140746  1
  P  P4  1  0.00396945  0.71301875  0.75178583  1
  P  P5  1  0.70957476  0.99503000  0.75112860  1
  P  P6  1  0.96488789  0.33315194  0.58528217  1
  P  P7  1  0.36886699  0.03540580  0.58529851  1
  P  P8  1  0.66601084  0.63086806  0.58164448  1
  P  P9  1  0.96617842  0.63261037  0.08348746  1
  P  P10  1  0.66582484  0.03297258  0.08355565  1
  P  P11  1  0.36714533  0.33380719  0.08351075  1
  P  P12  1  0.62538220  0.66402280  0.91769052  1
  P  P13  1  0.03986804  0.37562478  0.91616744  1
  P  P14  1  0.33627364  0.96050399  0.91635488  1
  P  P15  1  0.62039733  0.95973426  0.41809604  1
  P  P16  1  0.33957663  0.37837806  0.41886730  1
  P  P17  1  0.03581055  0.65956963  0.41847769  1
  O  O0  1  0.21633286  0.02684598  0.30285375  1
  O  O1  1  0.80414437  0.77978774  0.30693132  1
  O  O2  1  0.97125525  0.18833990  0.30294057  1
  O  O3  1  0.18974533  0.17708229  0.80466150  1
  O  O4  1  0.98828997  0.80649631  0.80508893  1
  O  O5  1  0.82071695  0.01414658  0.80425563  1
  O  O6  1  0.79502548  0.97308816  0.69696789  1
  O  O7  1  0.17159855  0.20377822  0.69765639  1
  O  O8  1  0.03061258  0.82436690  0.69797937  1
  O  O9  1  0.79570604  0.82566241  0.19915654  1
  O  O10  1  0.03187246  0.20871284  0.19638075  1
  O  O11  1  0.17756092  0.96883669  0.19618225  1
  O  O12  1  0.90063501  0.36378991  0.64157671  1
  O  O13  1  0.46430540  0.09891520  0.64150375  1
  O  O14  1  0.63303483  0.52783907  0.63534104  1
  O  O15  1  0.90667469  0.54105624  0.14021729  1
  O  O16  1  0.63389530  0.09318459  0.14019357  1
  O  O17  1  0.45890818  0.36604192  0.14023919  1
  O  O18  1  0.46544219  0.31032932  0.03233909  1
  O  O19  1  0.84483874  0.53437732  0.03234324  1
  O  O20  1  0.68977424  0.15453702  0.03232755  1
  O  O21  1  0.46469047  0.15508705  0.53329738  1
  O  O22  1  0.69203644  0.54365440  0.52719143  1
  O  O23  1  0.84493234  0.30965858  0.53336341  1
  O  O24  1  0.53874754  0.69060702  0.96961370  1
  O  O25  1  0.15482873  0.46444178  0.96765232  1
  O  O26  1  0.31045951  0.84582774  0.96784883  1
  O  O27  1  0.52149318  0.84506786  0.46849852  1
  O  O28  1  0.32744614  0.47925051  0.46933985  1
  O  O29  1  0.14930097  0.67543046  0.46899712  1
  O  O30  1  0.12111355  0.64034934  0.36175322  1
  O  O31  1  0.51490599  0.87631000  0.36131591  1
  O  O32  1  0.36369561  0.48707954  0.36234477  1
  O  O33  1  0.12417420  0.48310148  0.86078549  1
  O  O34  1  0.35976016  0.87599155  0.86102584  1
  O  O35  1  0.51427568  0.64059479  0.86341327  1
  O  O36  1  0.00900000  0.81170844  0.41685702  1
  O  O37  1  0.79073302  0.96666507  0.41601391  1
  O  O38  1  0.18537791  0.20409322  0.41755006  1
  O  O39  1  0.02149529  0.19721635  0.90973642  1
  O  O40  1  0.17590152  0.97858200  0.90995206  1
  O  O41  1  0.80256105  0.82385031  0.91031540  1
  O  O42  1  0.98004397  0.16962667  0.58798677  1
  O  O43  1  0.19025728  0.02044318  0.58845971  1
  O  O44  1  0.82965927  0.80914271  0.58724403  1
  O  O45  1  0.98044627  0.81128513  0.08692957  1
  O  O46  1  0.83001492  0.01803489  0.08701505  1
  O  O47  1  0.18857565  0.16966823  0.08691976  1
  O  O48  1  0.69091297  0.15372523  0.74916455  1
  O  O49  1  0.45652485  0.29969957  0.74945459  1
  O  O50  1  0.85531213  0.53263141  0.75006302  1
  O  O51  1  0.67555542  0.52684918  0.24439620  1
  O  O52  1  0.85185225  0.32677423  0.24350694  1
  O  O53  1  0.47458695  0.14768499  0.24352009  1
  O  O54  1  0.64349093  0.50458303  0.92379352  1
  O  O55  1  0.86237816  0.35776297  0.92341754  1
  O  O56  1  0.49527913  0.13778158  0.92351897  1
  O  O57  1  0.63596188  0.13707155  0.42352744  1
  O  O58  1  0.50988543  0.37481247  0.42326423  1
  O  O59  1  0.85797219  0.49555008  0.42320140  1
  O  O60  1  0.34286195  0.48819385  0.07129864  1
  O  O61  1  0.14476750  0.65658319  0.07127033  1
  O  O62  1  0.51124475  0.85510398  0.07126137  1
  O  O63  1  0.34378838  0.85689965  0.57353540  1
  O  O64  1  0.51321780  0.65936073  0.57217762  1
  O  O65  1  0.14315692  0.48678448  0.57371143  1
  O  O66  1  0.30405419  0.82853025  0.25480301  1
  O  O67  1  0.52401954  0.69542062  0.25537865  1
  O  O68  1  0.17066230  0.47466620  0.25538129  1
  O  O69  1  0.29422778  0.46462341  0.75772476  1
  O  O70  1  0.17313301  0.70346842  0.75744335  1
  O  O71  1  0.52795191  0.83598138  0.75721003  1
loop_
_geom_bond_atom_site_label_1
_geom_bond_atom_site_label_2
_geom_bond_distance
_geom_bond_site_symmetry_2
Na0 O53 2.408024 1_555
Na0 O67 2.521610 1_545
Na0 O52 2.529929 1_555
Na0 O16 2.589322 1_555
Na0 O66 2.686342 1_545
Na0 O9 2.872786 1_545
Na0 O2 2.899004 1_555
Na0 O31 2.932591 1_545
Na1 O51 2.428151 1_555
Na1 O68 2.515192 1_555
Na1 O53 2.522941 1_555
Na1 O17 2.583631 1_555
Na1 O67 2.682793 1_555
Na1 O10 2.894492 1_555
Na1 O0 2.915325 1_555
Na1 O32 2.956135 1_555
Na2 O52 2.405810 1_555
Na2 O51 2.507813 1_555
Na2 O66 2.520846 1_655
Na2 O15 2.577365 1_555
Na2 O68 2.676636 1_655
Na2 O11 2.905711 1_655
Na2 O30 2.935713 1_655
Na2 O1 2.978319 1_555
Na3 O50 2.397009 1_555
Na3 O48 2.417054 1_555
Na3 O69 2.460881 1_655
Na3 O12 2.535917 1_555
Na3 O70 2.702483 1_655
Na3 O7 2.899955 1_655
Na3 O33 2.932930 1_655
Na4 O49 2.372406 1_555
Na4 O70 2.454304 1_545
Na4 O48 2.507189 1_555
Na4 O13 2.544222 1_555
Na4 O71 2.583122 1_545
Na4 O8 2.912690 1_545
Na4 O34 2.928979 1_545
Na5 O37 2.365588 1_555
Na5 O36 2.378451 1_655
Na5 O58 2.412489 1_555
Na5 O59 2.603870 1_555
Na5 O1 2.695429 1_555
Na5 O22 2.822651 1_555
Na6 O38 2.489611 1_555
Na6 O36 2.587555 1_545
Na6 O37 2.623625 1_445
Na6 O42 2.653629 1_455
Na6 O43 2.658227 1_555
Na6 O44 2.740058 1_445
Na7 O46 2.563212 1_455
Na7 O47 2.564934 1_555
Na7 O45 2.566217 1_445
Na7 O41 2.729589 1_444
Na7 O40 2.730881 1_544
Na7 O39 2.736595 1_554
Na8 O50 2.578206 1_555
Na8 O49 2.600702 1_555
Na8 O54 2.635318 1_555
Na8 O48 2.680951 1_555
Na8 O55 2.724214 1_555
Na8 O56 2.735614 1_555
Na9 O57 2.623857 1_555
Na9 O59 2.669978 1_555
Na9 O52 2.674267 1_555
Na9 O53 2.676418 1_555
Na9 O58 2.691944 1_555
Na9 O51 2.745817 1_555
Na10 O60 2.680887 1_555
Na10 O61 2.685143 1_555
Na10 O62 2.685823 1_555
Na10 O66 2.700446 1_555
Na10 O67 2.711563 1_555
Na10 O68 2.719796 1_555
Na11 O64 2.605463 1_555
Na11 O65 2.687997 1_555
Na11 O63 2.693666 1_555
Na11 O71 2.739521 1_555
Na11 O69 2.770913 1_555
Na11 O70 2.826072 1_555
Ca0 O0 2.185465 1_555
Ca0 O2 2.189783 1_455
Ca0 O38 2.241240 1_555
Ca0 O1 2.269253 1_445
Ca0 O36 2.297663 1_545
Ca0 O37 2.297672 1_445
Ca1 O14 2.157004 1_555
Ca1 O12 2.248997 1_555
Ca1 O13 2.255062 1_555
Ca1 O49 2.337397 1_555
Ca1 O50 2.341391 1_555
Ca1 O48 2.401846 1_555
Ca2 O17 2.215071 1_555
Ca2 O15 2.216304 1_555
Ca2 O16 2.217483 1_555
Ca2 O52 2.318598 1_555
Ca2 O53 2.325945 1_555
Ca2 O51 2.333538 1_555
O0 P0 1.502497 1_545
O1 P1 1.515999 1_555
O2 P2 1.504160 1_655
O3 P3 1.554014 1_555
O3 Zr0 2.066107 1_445
O4 P4 1.547258 1_655
O4 Zr0 2.063375 1_555
O5 P5 1.549024 1_545
O5 Zr0 2.072820 1_545
O6 P5 1.542119 1_555
O6 Zr1 2.124673 1_555
O7 P3 1.550591 1_555
O7 Zr1 2.159196 1_445
O8 P4 1.550513 1_555
O8 Zr1 2.144940 1_455
O9 P1 1.574237 1_555
O9 Zr2 2.145239 1_665
O10 P2 1.574223 1_555
O10 Zr2 2.127671 1_555
O11 P0 1.573899 1_555
O11 Zr2 2.125410 1_565
O12 P6 1.513014 1_555
O13 P7 1.513934 1_555
O14 P8 1.498641 1_555
O15 P9 1.508567 1_555
O16 P10 1.507184 1_555
O17 P11 1.508484 1_555
O18 P11 1.563316 1_555
O18 Zr3 2.078536 1_554
O19 P9 1.563248 1_555
O19 Zr3 2.079491 1_554
O20 P10 1.564536 1_555
O20 Zr3 2.073362 1_554
O21 P7 1.568248 1_555
O21 Zr4 2.057679 1_555
O22 P8 1.571318 1_555
O22 Zr4 2.109276 1_555
O23 P6 1.567583 1_555
O23 Zr4 2.051858 1_555
O24 P12 1.523310 1_555
O24 Zr5 2.093879 1_556
O25 P13 1.527548 1_555
O25 Zr5 2.095013 1_556
O26 P14 1.526970 1_555
O26 Zr5 2.092727 1_556
O27 P15 1.527645 1_555
O27 Zr6 2.068515 1_555
O28 P16 1.525137 1_555
O28 Zr6 2.058293 1_555
O29 P17 1.521293 1_555
O29 Zr6 2.059908 1_555
O30 P17 1.581445 1_555
O30 Zr7 2.064726 1_555
O31 P15 1.584268 1_555
O31 Zr7 2.068643 1_555
O32 P16 1.592378 1_555
O32 Zr7 2.078339 1_555
O33 P13 1.566259 1_555
O33 Zr8 2.096491 1_555
O34 P14 1.564918 1_555
O34 Zr8 2.093306 1_555
O35 P12 1.562469 1_555
O35 Zr8 2.038758 1_555
O36 P17 1.518843 1_555
O37 P15 1.517137 1_555
O38 P16 1.504038 1_555
O39 P13 1.551930 1_555
O39 Zr0 2.124672 1_445
O40 P14 1.551873 1_555
O40 Zr0 2.121316 1_455
O41 P12 1.549617 1_555
O41 Zr0 2.113949 1_555
O42 P6 1.560280 1_555
O42 Zr1 2.105190 1_545
O43 P7 1.560375 1_555
O43 Zr1 2.104412 1_445
O44 P8 1.566172 1_555
O44 Zr1 2.085424 1_555
O45 P9 1.565057 1_555
O45 Zr2 2.125100 1_665
O46 P10 1.565064 1_555
O46 Zr2 2.125458 1_655
O47 P11 1.566131 1_555
O47 Zr2 2.125026 1_555
O48 P5 1.534115 1_545
O49 P3 1.517202 1_555
O50 P4 1.519180 1_655
O51 P1 1.532608 1_555
O52 P2 1.531231 1_655
O53 P0 1.532690 1_545
O54 P12 1.543898 1_555
O54 Zr3 2.175494 1_555
O55 P13 1.546510 1_655
O55 Zr3 2.174306 1_555
O56 P14 1.546553 1_545
O56 Zr3 2.176939 1_555
O57 P15 1.550920 1_545
O57 Zr4 2.141456 1_555
O58 P16 1.566289 1_555
O58 Zr4 2.200084 1_555
O59 P17 1.563792 1_655
O59 Zr4 2.179210 1_555
O60 P11 1.551101 1_555
O60 Zr5 2.080405 1_555
O61 P9 1.551088 1_455
O61 Zr5 2.077591 1_555
O62 P10 1.550926 1_565
O62 Zr5 2.082251 1_555
O63 P7 1.545624 1_565
O63 Zr6 2.082761 1_555
O64 P8 1.548715 1_555
O64 Zr6 2.085193 1_555
O65 P6 1.546710 1_455
O65 Zr6 2.085504 1_555
O66 P0 1.587512 1_555
O66 Zr7 2.172281 1_555
O67 P1 1.585548 1_555
O67 Zr7 2.190522 1_555
O68 P2 1.588153 1_555
O68 Zr7 2.174734 1_555
O69 P3 1.571418 1_555
O69 Zr8 2.152887 1_555
O70 P4 1.586636 1_555
O70 Zr8 2.183634 1_555
O71 P5 1.567205 1_555
O71 Zr8 2.143458 1_555
