# generated using pymatgen
data_Rb4MgNb2(CuS4)2
_symmetry_space_group_name_H-M   'P 1'
_cell_length_a   5.70753588
_cell_length_b   7.45689056
_cell_length_c   12.55462272
_cell_angle_alpha   84.76334849
_cell_angle_beta   76.87280998
_cell_angle_gamma   66.40265671
_symmetry_Int_Tables_number   1
_chemical_formula_structural   Rb4MgNb2(CuS4)2
_chemical_formula_sum   'Rb4 Mg1 Nb2 Cu2 S8'
_cell_volume   476.85516950
_cell_formula_units_Z   1
loop_
 _symmetry_equiv_pos_site_id
 _symmetry_equiv_pos_as_xyz
  1  'x, y, z'
loop_
 _atom_site_type_symbol
 _atom_site_label
 _atom_site_symmetry_multiplicity
 _atom_site_fract_x
 _atom_site_fract_y
 _atom_site_fract_z
 _atom_site_occupancy
  Rb  Rb0  1  0.80644000  0.75006800  0.38730400  1
  Rb  Rb1  1  0.45061100  0.75026400  0.09872100  1
  Rb  Rb2  1  0.17531600  0.25041500  0.64998800  1
  Rb  Rb3  1  0.54996800  0.25008300  0.90037000  1
  Mg  Mg0  1  0.75086000  0.24920800  0.49970100  1
  Nb  Nb0  1  0.37759200  0.25021200  0.24536300  1
  Nb  Nb1  1  0.62926900  0.74999400  0.74178000  1
  Cu  Cu0  1  0.87839500  0.24942300  0.24515500  1
  Cu  Cu1  1  0.12619500  0.75010100  0.74798800  1
  S  S0  1  0.23235400  0.93782700  0.85249600  1
  S  S1  1  0.55376100  0.54022500  0.63237500  1
  S  S2  1  0.81440400  0.95959800  0.63229500  1
  S  S3  1  0.91549200  0.56257900  0.85266300  1
  S  S4  1  0.07972600  0.44544300  0.14225500  1
  S  S5  1  0.47174200  0.42419300  0.36997300  1
  S  S6  1  0.15973700  0.07533600  0.36984700  1
  S  S7  1  0.77814000  0.05503100  0.14214200  1
loop_
_geom_bond_atom_site_label_1
_geom_bond_atom_site_label_2
_geom_bond_distance
_geom_bond_site_symmetry_2
Rb0 S6 3.557793 1_565
Rb0 S5 3.564408 1_655
Rb0 S2 3.591830 1_555
Rb0 S1 3.592675 1_555
Rb0 S4 3.649250 1_655
Rb0 S7 3.650364 1_565
Rb0 S5 3.688274 1_555
Rb0 S6 3.689858 1_665
Rb1 S7 3.533506 1_465
Rb1 S4 3.533936 1_655
Rb1 S0 3.553716 1_554
Rb1 S3 3.554556 1_554
Rb1 S4 3.611963 1_555
Rb1 S7 3.612047 1_565
Rb2 S0 3.269519 1_545
Rb2 S3 3.270430 1_455
Rb2 S1 3.381630 1_455
Rb2 S2 3.382918 1_545
Rb2 S1 3.580186 1_555
Rb2 S2 3.587143 1_445
Rb2 S5 3.888741 1_555
Rb2 S6 3.892974 1_555
Rb3 S7 3.535256 1_556
Rb3 S4 3.538745 1_556
Rb3 S3 3.588455 1_455
Rb3 S0 3.589373 1_645
Rb3 S0 3.633037 1_545
Rb3 S3 3.634694 1_555
Rb3 S1 3.831116 1_555
Rb3 S2 3.834469 1_545
Mg0 S5 2.453467 1_555
Mg0 S6 2.453600 1_655
Mg0 S2 2.560746 1_545
Mg0 S1 2.569715 1_555
Mg0 Rb2 3.393380 1_555
Mg0 Rb2 3.394977 1_655
Nb0 S7 2.314906 1_555
Nb0 S4 2.315052 1_555
Nb0 S5 2.393707 1_555
Nb0 S6 2.394271 1_555
Nb1 S3 2.325894 1_555
Nb1 S0 2.326084 1_555
Nb1 S2 2.391489 1_555
Nb1 S1 2.391635 1_555
Cu0 S7 2.333166 1_555
Cu0 S4 2.334886 1_655
Cu0 S6 2.411704 1_655
Cu0 S5 2.416623 1_555
Cu1 S3 2.328433 1_455
Cu1 S0 2.328871 1_555
Cu1 S2 2.500230 1_455
Cu1 S1 2.501882 1_555
