# generated using pymatgen
data_O2
_symmetry_space_group_name_H-M   'P 1'
_cell_length_a   6.42186437
_cell_length_b   6.42186437
_cell_length_c   4.23541061
_cell_angle_alpha   66.57805476
_cell_angle_beta   66.57805476
_cell_angle_gamma   76.13516285
_symmetry_Int_Tables_number   1
_chemical_formula_structural   O2
_chemical_formula_sum   O8
_cell_volume   146.37821933
_cell_formula_units_Z   4
loop_
 _symmetry_equiv_pos_site_id
 _symmetry_equiv_pos_as_xyz
  1  'x, y, z'
loop_
 _atom_site_type_symbol
 _atom_site_label
 _atom_site_symmetry_multiplicity
 _atom_site_fract_x
 _atom_site_fract_y
 _atom_site_fract_z
 _atom_site_occupancy
  O  O0  1  0.68121608  0.25102491  0.16724868  1
  O  O1  1  0.74897509  0.31878392  0.83275132  1
  O  O2  1  0.31878392  0.74897509  0.83275132  1
  O  O3  1  0.25102491  0.68121608  0.16724868  1
  O  O4  1  0.74383221  0.74383221  0.15897453  1
  O  O5  1  0.25616779  0.25616779  0.84102547  1
  O  O6  1  0.81114720  0.81114720  0.82452506  1
  O  O7  1  0.18885280  0.18885280  0.17547494  1
loop_
_geom_bond_atom_site_label_1
_geom_bond_atom_site_label_2
_geom_bond_distance
_geom_bond_site_symmetry_2
O0 O1 1.223265 1_554
O2 O3 1.223265 1_556
O4 O6 1.223206 1_554
O5 O7 1.223206 1_556
