# generated using pymatgen
data_Na14Ca2Ti6Si9(SO16)3
_symmetry_space_group_name_H-M   'P 1'
_cell_length_a   18.20049967
_cell_length_b   9.12938548
_cell_length_c   22.34015899
_cell_angle_alpha   90.21086184
_cell_angle_beta   89.89773016
_cell_angle_gamma   120.12836779
_symmetry_Int_Tables_number   1
_chemical_formula_structural   Na14Ca2Ti6Si9(SO16)3
_chemical_formula_sum   'Na42 Ca6 Ti18 Si27 S9 O144'
_cell_volume   3210.52150085
_cell_formula_units_Z   3
loop_
 _symmetry_equiv_pos_site_id
 _symmetry_equiv_pos_as_xyz
  1  'x, y, z'
loop_
 _atom_site_type_symbol
 _atom_site_label
 _atom_site_symmetry_multiplicity
 _atom_site_fract_x
 _atom_site_fract_y
 _atom_site_fract_z
 _atom_site_occupancy
  Na  Na0  1  0.31254181  0.00626537  0.24612290  1
  Na  Na1  1  0.81373984  0.01103180  0.24733016  1
  Na  Na2  1  0.19007228  0.37246985  0.25613342  1
  Na  Na3  1  0.69178626  0.37098636  0.24999843  1
  Na  Na4  1  0.99262864  0.61811920  0.25457165  1
  Na  Na5  1  0.49669643  0.62973464  0.24887451  1
  Na  Na6  1  0.31368186  0.61660470  0.74415672  1
  Na  Na7  1  0.81320738  0.62166281  0.74270600  1
  Na  Na8  1  0.99544688  0.35430949  0.74331137  1
  Na  Na9  1  0.49397398  0.37157542  0.75139678  1
  Na  Na10  1  0.19180490  0.01712924  0.74601213  1
  Na  Na11  1  0.69178663  0.00705227  0.75270742  1
  Na  Na12  1  0.15660270  0.34313671  0.58361908  1
  Na  Na13  1  0.65791812  0.34970399  0.57826858  1
  Na  Na14  1  0.01319589  0.69383898  0.58150116  1
  Na  Na15  1  0.51270658  0.69386275  0.57317282  1
  Na  Na16  1  0.32900315  0.96749311  0.58330487  1
  Na  Na17  1  0.83121174  0.95814346  0.57442315  1
  Na  Na18  1  0.15780733  0.96669053  0.08325745  1
  Na  Na19  1  0.65752334  0.97006429  0.08571477  1
  Na  Na20  1  0.33370137  0.70256355  0.08382641  1
  Na  Na21  1  0.82882034  0.69182479  0.08593738  1
  Na  Na22  1  0.01252821  0.32767096  0.07695428  1
  Na  Na23  1  0.51586081  0.33482909  0.08565738  1
  Na  Na24  1  0.98326195  0.67230196  0.91863659  1
  Na  Na25  1  0.35103667  0.03536355  0.91291317  1
  Na  Na26  1  0.16285080  0.29652518  0.91566889  1
  Na  Na27  1  0.48585533  0.29842850  0.41826637  1
  Na  Na28  1  0.66743315  0.03142945  0.41561244  1
  Na  Na29  1  0.84944689  0.67464579  0.41930799  1
  Na  Na30  1  0.00128355  0.00149651  0.49469574  1
  Na  Na31  1  0.49441159  0.98751909  0.49422634  1
  Na  Na32  1  0.99219598  0.99982851  0.99521831  1
  Na  Na33  1  0.50867294  0.01259317  0.00005452  1
  Na  Na34  1  0.33614469  0.34039388  0.82914188  1
  Na  Na35  1  0.82615110  0.31780935  0.83488891  1
  Na  Na36  1  0.32625105  0.33423416  0.33509939  1
  Na  Na37  1  0.83531990  0.32887794  0.33142940  1
  Na  Na38  1  0.17313612  0.67799995  0.16999306  1
  Na  Na39  1  0.66872181  0.67534210  0.16848912  1
  Na  Na40  1  0.16853551  0.66117832  0.66191798  1
  Na  Na41  1  0.67456524  0.66897343  0.66620637  1
  Ca  Ca0  1  0.32842689  0.33279201  0.68490068  1
  Ca  Ca1  1  0.83716936  0.33265934  0.68323595  1
  Ca  Ca2  1  0.33671748  0.33946052  0.18487870  1
  Ca  Ca3  1  0.82802140  0.32359137  0.18585199  1
  Ca  Ca4  1  0.16485058  0.66887395  0.01008768  1
  Ca  Ca5  1  0.66898192  0.66644632  0.50820272  1
  Ti  Ti0  1  0.99753447  0.99550177  0.35148837  1
  Ti  Ti1  1  0.49675262  0.98142770  0.35654306  1
  Ti  Ti2  1  0.99546534  0.01041960  0.85618191  1
  Ti  Ti3  1  0.50413490  0.01123459  0.84929226  1
  Ti  Ti4  1  0.99684274  0.01718968  0.64013204  1
  Ti  Ti5  1  0.49423773  0.98315696  0.65451256  1
  Ti  Ti6  1  0.99432651  0.00335104  0.15558766  1
  Ti  Ti7  1  0.49871157  0.97932048  0.14333600  1
  Ti  Ti8  1  0.34721956  0.32502053  0.98029982  1
  Ti  Ti9  1  0.82516461  0.31553853  0.97817464  1
  Ti  Ti10  1  0.32545568  0.33556267  0.47774052  1
  Ti  Ti11  1  0.84775740  0.35727955  0.47483308  1
  Ti  Ti12  1  0.66913984  0.65343603  0.01798650  1
  Ti  Ti13  1  0.16899851  0.68387286  0.51699280  1
  Ti  Ti14  1  0.16608200  0.68605030  0.31119429  1
  Ti  Ti15  1  0.67201209  0.68141382  0.32194883  1
  Ti  Ti16  1  0.16303229  0.66674263  0.81593689  1
  Ti  Ti17  1  0.66648250  0.64714404  0.81086873  1
  Si  Si0  1  0.14130480  0.99816458  0.25122509  1
  Si  Si1  1  0.63943862  0.98742688  0.25267856  1
  Si  Si2  1  0.35400731  0.71868904  0.25058212  1
  Si  Si3  1  0.85079472  0.71197185  0.25386173  1
  Si  Si4  1  0.00572107  0.29576229  0.25453395  1
  Si  Si5  1  0.13881078  0.28884591  0.75273985  1
  Si  Si6  1  0.64282771  0.28826971  0.74891161  1
  Si  Si7  1  0.50548378  0.71628549  0.75517127  1
  Si  Si8  1  0.35201430  0.98975514  0.75451641  1
  Si  Si9  1  0.85396962  0.98939892  0.75040904  1
  Si  Si10  1  0.98471725  0.34282219  0.58121312  1
  Si  Si11  1  0.18539935  0.03805884  0.58391577  1
  Si  Si12  1  0.33413590  0.63516057  0.58201053  1
  Si  Si13  1  0.83344352  0.63182001  0.58619962  1
  Si  Si14  1  0.48458142  0.62780035  0.08124208  1
  Si  Si15  1  0.33458499  0.02984327  0.08689540  1
  Si  Si16  1  0.83441757  0.03333106  0.08103504  1
  Si  Si17  1  0.68587582  0.33347714  0.08371089  1
  Si  Si18  1  0.81073474  0.65890065  0.91582313  1
  Si  Si19  1  0.01317712  0.36669551  0.91811062  1
  Si  Si20  1  0.52521657  0.37398549  0.91530645  1
  Si  Si21  1  0.16648506  0.97096924  0.91634278  1
  Si  Si22  1  0.31124902  0.96285070  0.41605095  1
  Si  Si23  1  0.82332644  0.97969649  0.41876767  1
  Si  Si24  1  0.66585264  0.36541475  0.41608608  1
  Si  Si25  1  0.02593410  0.67711858  0.41512424  1
  Si  Si26  1  0.51351180  0.65964604  0.41790708  1
  S  S0  1  0.50448576  0.28847234  0.25134610  1
  S  S1  1  0.00490791  0.71791452  0.75275362  1
  S  S2  1  0.48061376  0.32700006  0.58365805  1
  S  S3  1  0.67995864  0.03555359  0.58348008  1
  S  S4  1  0.97987251  0.63302549  0.08308391  1
  S  S5  1  0.18253806  0.32586447  0.08166272  1
  S  S6  1  0.31860199  0.66609151  0.91423110  1
  S  S7  1  0.66547637  0.95578994  0.91628556  1
  S  S8  1  0.16697577  0.37819304  0.41640944  1
  O  O0  1  0.08959300  0.01168724  0.30787732  1
  O  O1  1  0.58795594  0.00635618  0.30873980  1
  O  O2  1  0.41490809  0.83129820  0.30505283  1
  O  O3  1  0.91156275  0.81136053  0.31116580  1
  O  O4  1  0.49533418  0.18904704  0.30526689  1
  O  O5  1  0.99575261  0.16762875  0.30777947  1
  O  O6  1  0.08867796  0.16825266  0.80969523  1
  O  O7  1  0.59026362  0.17220514  0.80714526  1
  O  O8  1  0.49601963  0.82533617  0.80983044  1
  O  O9  1  0.99665013  0.80023554  0.80689723  1
  O  O10  1  0.41181073  0.00957747  0.81287694  1
  O  O11  1  0.91480952  -0.00130028  0.80542730  1
  O  O12  1  0.39960305  0.96196417  0.69424961  1
  O  O13  1  0.90058199  0.97102896  0.68858513  1
  O  O14  1  0.08115760  0.19782626  0.69147675  1
  O  O15  1  0.58205165  0.19275305  0.68972585  1
  O  O16  1  0.01535761  0.81418061  0.69767370  1
  O  O17  1  0.51534259  0.83236111  0.69304266  1
  O  O18  1  0.40035197  0.82886317  0.18761665  1
  O  O19  1  0.89959584  0.83640159  0.19320893  1
  O  O20  1  0.01612194  0.20050223  0.19125924  1
  O  O21  1  0.51140487  0.20550393  0.19566713  1
  O  O22  1  0.08222978  0.97209725  0.18944730  1
  O  O23  1  0.58143831  0.96919737  0.19081259  1
  O  O24  1  0.44257347  0.34565820  0.63924182  1
  O  O25  1  0.96059657  0.39136447  0.64434991  1
  O  O26  1  0.23950024  0.08451569  0.64451638  1
  O  O27  1  0.72859797  0.10812820  0.63909830  1
  O  O28  1  0.31099899  0.53262072  0.64382432  1
  O  O29  1  0.81747533  0.52644162  0.64676653  1
  O  O30  1  0.45847523  0.52593464  0.14292578  1
  O  O31  1  0.94163492  0.53781582  0.13809032  1
  O  O32  1  0.31291107  0.10412121  0.14449807  1
  O  O33  1  0.81075416  0.09033233  0.14250924  1
  O  O34  1  0.23162359  0.35133305  0.13672590  1
  O  O35  1  0.74097440  0.39633203  0.14349424  1
  O  O36  1  0.22692336  0.31138197  0.02787206  1
  O  O37  1  0.74002875  0.30377163  0.02856230  1
  O  O38  1  0.41306385  0.51771060  0.02745680  1
  O  O39  1  0.92799856  0.54666118  0.02908831  1
  O  O40  1  0.34678606  0.15941032  0.02634990  1
  O  O41  1  0.84919448  0.17221375  0.02604941  1
  O  O42  1  0.23962145  0.17724549  0.52976596  1
  O  O43  1  0.72334154  0.13860257  0.53041324  1
  O  O44  1  0.34958138  0.52673432  0.52742445  1
  O  O45  1  0.84640305  0.52938040  0.52708963  1
  O  O46  1  0.42758717  0.30750014  0.53031365  1
  O  O47  1  0.91458763  0.30965235  0.52806893  1
  O  O48  1  0.28449213  0.69558889  0.97037497  1
  O  O49  1  0.76443983  0.68781219  0.97373558  1
  O  O50  1  0.06736823  0.41976043  0.97864436  1
  O  O51  1  0.58199907  0.47270887  0.97322295  1
  O  O52  1  0.14439510  0.86681393  0.97750968  1
  O  O53  1  0.65647710  0.85752118  0.97046639  1
  O  O54  1  0.26502091  0.84162123  0.47407309  1
  O  O55  1  0.79189932  0.86786778  0.47803557  1
  O  O56  1  0.15905567  0.46121717  0.47072556  1
  O  O57  1  0.63774259  0.41609247  0.47713835  1
  O  O58  1  0.08272335  0.68848751  0.47296080  1
  O  O59  1  0.56605922  0.71129910  0.47906540  1
  O  O60  1  0.06968858  0.64457009  0.35540808  1
  O  O61  1  0.56892552  0.63546659  0.36216114  1
  O  O62  1  0.25000589  0.86441139  0.35682456  1
  O  O63  1  0.75199392  0.86959411  0.36246003  1
  O  O64  1  0.17923852  0.47924895  0.36168604  1
  O  O65  1  0.68265395  0.50611230  0.36100890  1
  O  O66  1  0.07217837  0.50724026  0.86339526  1
  O  O67  1  0.56828803  0.49056078  0.85525518  1
  O  O68  1  0.18308869  0.86372716  0.86042083  1
  O  O69  1  0.67725533  0.87831585  0.86154196  1
  O  O70  1  0.26035928  0.64405399  0.86286953  1
  O  O71  1  0.74929129  0.63551599  0.85683744  1
  O  O72  1  0.00947389  0.83666007  0.41230400  1
  O  O73  1  0.50206895  0.82541208  0.40582886  1
  O  O74  1  0.40841046  0.99644152  0.40958249  1
  O  O75  1  0.91566132  0.99660061  0.40628738  1
  O  O76  1  0.09266118  0.20620922  0.41300336  1
  O  O77  1  0.58392379  0.17615110  0.40242119  1
  O  O78  1  0.00189701  0.17892169  0.90549615  1
  O  O79  1  0.50662702  0.17722714  0.91247884  1
  O  O80  1  0.08339198  0.99115242  0.90421859  1
  O  O81  1  0.59040752  0.97963809  0.91266275  1
  O  O82  1  0.40348238  0.81801168  0.90751328  1
  O  O83  1  0.90803088  0.82069954  0.90919011  1
  O  O84  1  0.48749346  0.16957732  0.58575553  1
  O  O85  1  0.98674992  0.16101803  0.58520443  1
  O  O86  1  0.09267315  0.02777209  0.58953743  1
  O  O87  1  0.59506531  0.02776374  0.58674561  1
  O  O88  1  0.42382741  0.82563658  0.58725080  1
  O  O89  1  0.92500126  0.81883840  0.58966966  1
  O  O90  1  0.48645311  0.81267663  0.08525593  1
  O  O91  1  0.98753804  0.80452535  0.08495688  1
  O  O92  1  0.42601252  0.03260784  0.08790262  1
  O  O93  1  0.92346370  0.02149289  0.08567955  1
  O  O94  1  0.09807294  0.16491540  0.08426141  1
  O  O95  1  0.59349902  0.15839158  0.08833671  1
  O  O96  1  0.34557850  0.15808640  0.75396109  1
  O  O97  1  0.84584913  0.15723438  0.75305596  1
  O  O98  1  0.23247258  0.31228281  0.75431973  1
  O  O99  1  0.73527422  0.30850568  0.75258247  1
  O  O100  1  0.42284274  0.53192204  0.75273818  1
  O  O101  1  0.93049899  0.54422970  0.75177352  1
  O  O102  1  0.34572099  0.53440916  0.25267600  1
  O  O103  1  0.84491563  0.53136773  0.25244813  1
  O  O104  1  0.42850039  0.30969336  0.25012944  1
  O  O105  1  0.92364134  0.31660621  0.25143681  1
  O  O106  1  0.23516058  0.16158588  0.25230781  1
  O  O107  1  0.73225238  0.15324308  0.25375813  1
  O  O108  1  0.32123898  0.50685905  0.91708509  1
  O  O109  1  0.82147755  0.49039578  0.92557351  1
  O  O110  1  0.42749500  0.35051860  0.92341470  1
  O  O111  1  0.92304749  0.36562617  0.92082059  1
  O  O112  1  0.25469351  0.16040608  0.92168030  1
  O  O113  1  0.74440881  0.13078011  0.92086921  1
  O  O114  1  0.32086655  0.15215238  0.42632114  1
  O  O115  1  0.82096081  0.15694823  0.42255887  1
  O  O116  1  0.24635785  0.36214544  0.42131480  1
  O  O117  1  0.75437554  0.35721203  0.42172823  1
  O  O118  1  0.42187641  0.48041786  0.42192516  1
  O  O119  1  0.92944430  0.50576927  0.42223588  1
  O  O120  1  0.16942327  0.47367534  0.07824754  1
  O  O121  1  0.66935893  0.49446062  0.07066236  1
  O  O122  1  0.06604094  0.65218138  0.07992967  1
  O  O123  1  0.58089597  0.66775327  0.06654926  1
  O  O124  1  0.25624691  0.83859426  0.07884691  1
  O  O125  1  0.75210250  0.84404630  0.06817692  1
  O  O126  1  0.16908000  0.84422966  0.57071440  1
  O  O127  1  0.66600066  0.86091475  0.58016387  1
  O  O128  1  0.25270962  0.66214498  0.56969717  1
  O  O129  1  0.75302620  0.66167810  0.58163166  1
  O  O130  1  0.08176847  0.49514001  0.56754895  1
  O  O131  1  0.56630893  0.47978711  0.58028220  1
  O  O132  1  0.14738202  0.82092681  0.25350693  1
  O  O133  1  0.64499233  0.81162684  0.25627936  1
  O  O134  1  0.26019391  0.70385739  0.25472241  1
  O  O135  1  0.75752503  0.70031874  0.25655845  1
  O  O136  1  0.09441380  0.47949869  0.25726347  1
  O  O137  1  0.58283421  0.45956665  0.25356074  1
  O  O138  1  0.14636026  0.47976296  0.75984102  1
  O  O139  1  0.64815513  0.47559381  0.75302930  1
  O  O140  1  0.08490577  0.70331578  0.75646403  1
  O  O141  1  0.59365921  0.70891672  0.75814114  1
  O  O142  1  0.25819493  0.81396218  0.75884985  1
  O  O143  1  0.75964851  0.81721585  0.75602028  1
loop_
_geom_bond_atom_site_label_1
_geom_bond_atom_site_label_2
_geom_bond_distance
_geom_bond_site_symmetry_2
Na0 O134 2.435024 1_545
Na0 O32 2.441581 1_555
Na0 O106 2.452743 1_555
Na0 O104 2.503118 1_555
Na0 O132 2.611607 1_545
Na0 O62 2.760905 1_545
Na1 O107 2.415925 1_555
Na1 O33 2.462344 1_555
Na1 O105 2.487753 1_555
Na1 O135 2.495149 1_545
Na1 O133 2.678525 1_545
Na1 O63 2.846563 1_545
Na1 O19 2.987525 1_545
Na2 O136 2.386211 1_555
Na2 O106 2.443740 1_555
Na2 O102 2.452050 1_555
Na2 O64 2.593069 1_555
Na2 O134 2.628137 1_555
Na2 O34 2.803687 1_555
Na3 O103 2.412006 1_555
Na3 O107 2.443826 1_555
Na3 O137 2.490242 1_555
Na3 O35 2.510910 1_555
Na3 O135 2.622745 1_555
Na3 O65 2.807426 1_555
Na4 O105 2.384888 1_555
Na4 O103 2.391645 1_555
Na4 O132 2.475226 1_655
Na4 O60 2.601412 1_655
Na4 O136 2.718739 1_655
Na4 O31 2.735303 1_555
Na5 O133 2.360083 1_555
Na5 O102 2.431920 1_555
Na5 O30 2.512328 1_555
Na5 O104 2.537334 1_555
Na5 O137 2.707218 1_555
Na5 O61 2.842169 1_555
Na5 O23 2.981562 1_555
Na6 O28 2.358912 1_555
Na6 O98 2.415796 1_555
Na6 O100 2.475103 1_555
Na6 O142 2.488981 1_555
Na6 O138 2.671653 1_555
Na6 O70 2.875442 1_555
Na6 O12 2.949482 1_555
Na7 O29 2.325718 1_555
Na7 O143 2.442953 1_555
Na7 O99 2.483289 1_555
Na7 O101 2.572070 1_555
Na7 O139 2.614191 1_555
Na7 O71 2.829320 1_555
Na8 O25 2.372844 1_555
Na8 O97 2.404344 1_555
Na8 O138 2.415562 1_655
Na8 O101 2.548257 1_555
Na8 O140 2.770601 1_655
Na8 O14 2.834424 1_655
Na9 O100 2.392049 1_555
Na9 O96 2.410908 1_555
Na9 O139 2.470363 1_555
Na9 O67 2.628780 1_555
Na9 O24 2.644011 1_555
Na9 O141 2.680937 1_555
Na10 O26 2.395914 1_555
Na10 O98 2.416121 1_555
Na10 O96 2.430041 1_555
Na10 O140 2.540743 1_545
Na10 O142 2.690281 1_545
Na10 O68 2.884616 1_545
Na10 O16 2.989439 1_545
Na11 O141 2.394650 1_545
Na11 O97 2.425486 1_555
Na11 O99 2.452301 1_555
Na11 O143 2.585487 1_545
Na11 O69 2.658863 1_545
Na11 O27 2.670689 1_555
Na12 O130 2.410913 1_555
Na12 O86 2.509933 1_555
Na12 O128 2.555170 1_555
Na12 O85 2.676309 1_455
Na12 O56 2.737911 1_555
Na12 O14 2.763039 1_555
Na12 O28 2.795441 1_555
Na12 O42 2.881230 1_555
Na13 O57 2.417213 1_555
Na13 O129 2.482644 1_555
Na13 O131 2.485855 1_555
Na13 O87 2.571181 1_555
Na13 O84 2.689434 1_555
Na13 O15 2.861381 1_555
Na13 O43 2.925584 1_555
Na13 O29 2.944874 1_555
Na14 O89 2.397603 1_455
Na14 O126 2.466208 1_555
Na14 O86 2.643590 1_565
Na14 O130 2.685627 1_555
Na14 O58 2.744749 1_555
Na14 O16 2.807170 1_555
Na14 O25 2.807688 1_455
Na14 O45 2.893370 1_455
Na15 O59 2.286536 1_555
Na15 O127 2.421323 1_555
Na15 O88 2.472231 1_555
Na15 O131 2.591043 1_555
Na15 O87 2.653078 1_565
Na15 O44 2.763887 1_555
Na15 O17 2.947350 1_555
Na16 O128 2.429178 1_555
Na16 O84 2.526850 1_565
Na16 O126 2.555380 1_555
Na16 O88 2.628431 1_555
Na16 O54 2.697698 1_555
Na16 O26 2.719072 1_565
Na16 O12 2.806088 1_555
Na16 O46 2.946927 1_565
Na17 O55 2.286572 1_555
Na17 O129 2.347828 1_555
Na17 O85 2.497579 1_565
Na17 O89 2.613796 1_555
Na17 O127 2.676937 1_555
Na17 O13 2.823586 1_555
Na17 O47 2.967066 1_565
Na18 O122 2.494791 1_555
Na18 O52 2.496956 1_554
Na18 O94 2.536162 1_565
Na18 O124 2.586345 1_555
Na18 O91 2.681640 1_455
Na18 O22 2.752820 1_555
Na18 O32 2.803681 1_565
Na19 O123 2.423817 1_555
Na19 O95 2.515470 1_565
Na19 O125 2.534287 1_555
Na19 O90 2.695896 1_555
Na19 O23 2.721739 1_555
Na19 O33 2.742557 1_565
Na19 O53 2.765138 1_554
Na19 O37 2.931857 1_565
Na20 O124 2.302383 1_555
Na20 O90 2.436248 1_555
Na20 O18 2.600690 1_555
Na20 O92 2.612737 1_565
Na20 O120 2.655020 1_555
Na20 O48 2.679494 1_554
Na21 O125 2.447920 1_555
Na21 O91 2.533800 1_555
Na21 O121 2.556475 1_555
Na21 O93 2.611704 1_565
Na21 O35 2.678691 1_555
Na21 O19 2.724961 1_555
Na21 O49 2.761186 1_554
Na22 O50 2.385367 1_554
Na22 O93 2.435806 1_455
Na22 O120 2.472000 1_555
Na22 O122 2.613821 1_555
Na22 O94 2.642654 1_555
Na22 O41 2.812396 1_455
Na22 O20 2.823404 1_555
Na23 O92 2.400124 1_555
Na23 O121 2.440100 1_555
Na23 O95 2.623130 1_555
Na23 O123 2.686515 1_555
Na23 O21 2.713858 1_555
Na23 O30 2.753121 1_555
Na23 O51 2.798930 1_554
Na23 O40 2.973435 1_555
Na24 O83 2.370683 1_555
Na24 O111 2.441860 1_555
Na24 O109 2.558052 1_555
Na24 O80 2.564700 1_655
Na24 O39 2.696245 1_556
Na24 O9 2.718174 1_555
Na24 O52 2.872722 1_655
Na24 O66 2.973225 1_655
Na25 O79 2.452522 1_555
Na25 O110 2.499302 1_555
Na25 O112 2.534339 1_555
Na25 O10 2.553833 1_555
Na25 O82 2.600452 1_545
Na25 O40 2.788682 1_556
Na25 O68 2.892250 1_545
Na25 O48 2.998177 1_545
Na26 O80 2.424407 1_545
Na26 O108 2.537985 1_555
Na26 O112 2.538469 1_555
Na26 O78 2.574719 1_555
Na26 O6 2.683783 1_555
Na26 O36 2.740563 1_556
Na26 O50 2.864875 1_555
Na26 O70 2.995776 1_555
Na27 O74 2.391897 1_545
Na27 O118 2.462494 1_555
Na27 O77 2.559764 1_555
Na27 O114 2.609060 1_555
Na27 O46 2.733951 1_555
Na27 O57 2.747224 1_555
Na27 O4 2.748181 1_555
Na27 O61 2.945508 1_555
Na28 O115 2.435369 1_555
Na28 O77 2.482537 1_555
Na28 O117 2.577141 1_555
Na28 O73 2.638230 1_545
Na28 O1 2.742470 1_555
Na28 O43 2.749845 1_555
Na28 O63 2.867892 1_545
Na28 O59 2.926282 1_545
Na29 O117 2.522331 1_555
Na29 O72 2.524020 1_655
Na29 O75 2.573959 1_555
Na29 O119 2.599173 1_555
Na29 O3 2.696013 1_555
Na29 O45 2.740235 1_555
Na29 O55 2.786189 1_555
Na29 O65 2.930807 1_555
Na30 O72 2.424585 1_545
Na30 O75 2.504350 1_445
Na30 O76 2.546265 1_555
Na30 O85 2.577288 1_455
Na30 O89 2.627058 1_445
Na30 O86 2.630921 1_555
Na31 O74 2.484371 1_555
Na31 O88 2.502095 1_555
Na31 O73 2.508802 1_555
Na31 O77 2.650239 1_565
Na31 O87 2.663705 1_565
Na31 O84 2.672757 1_565
Na32 O93 2.434039 1_566
Na32 O83 2.487387 1_555
Na32 O78 2.540697 1_665
Na32 O80 2.648184 1_655
Na32 O94 2.649150 1_666
Na32 O91 2.660704 1_556
Na33 O95 2.444090 1_555
Na33 O79 2.483187 1_554
Na33 O90 2.529711 1_545
Na33 O92 2.532023 1_555
Na33 O81 2.559250 1_544
Na33 O82 2.769123 1_544
Na34 O100 2.388149 1_555
Na34 O96 2.426051 1_555
Na34 O98 2.437666 1_555
Na34 O108 2.575477 1_555
Na34 O112 2.596191 1_555
Na34 O110 2.658040 1_555
Na35 O99 2.447975 1_555
Na35 O97 2.474925 1_555
Na35 O111 2.493821 1_555
Na35 O113 2.506424 1_555
Na35 O109 2.589307 1_555
Na35 O101 2.720687 1_555
Na36 O106 2.453588 1_555
Na36 O102 2.495626 1_555
Na36 O118 2.496773 1_555
Na36 O116 2.499481 1_555
Na36 O114 2.605107 1_555
Na36 O104 2.742192 1_555
Na37 O105 2.441145 1_555
Na37 O107 2.464232 1_555
Na37 O103 2.501989 1_555
Na37 O115 2.507285 1_555
Na37 O117 2.583580 1_555
Na37 O119 2.620891 1_555
Na38 O134 2.404418 1_555
Na38 O132 2.448704 1_555
Na38 O124 2.523585 1_555
Na38 O136 2.558804 1_555
Na38 O122 2.729916 1_555
Na38 O120 2.744237 1_555
Na39 O133 2.469716 1_555
Na39 O135 2.484626 1_555
Na39 O137 2.619485 1_555
Na39 O125 2.713680 1_555
Na39 O121 2.737860 1_555
Na39 O123 2.765306 1_555
Na40 O128 2.562609 1_555
Na40 O130 2.611797 1_555
Na40 O126 2.636780 1_555
Na40 O142 2.646346 1_555
Na40 O138 2.654066 1_555
Na40 O140 2.737957 1_555
Na41 O129 2.387153 1_555
Na41 O143 2.478449 1_555
Na41 O139 2.505992 1_555
Na41 O141 2.653735 1_555
Na41 O127 2.662670 1_555
Na41 O131 2.668855 1_555
Ca0 O28 2.205695 1_555
Ca0 O26 2.208721 1_555
Ca0 O24 2.262455 1_555
Ca0 O98 2.270312 1_555
Ca0 O100 2.325407 1_555
Ca0 O96 2.353993 1_555
Ca1 O29 2.137818 1_555
Ca1 O25 2.208216 1_555
Ca1 O27 2.237112 1_555
Ca1 O97 2.301309 1_555
Ca1 O99 2.338748 1_555
Ca1 O101 2.377889 1_555
Ca2 O32 2.161066 1_555
Ca2 O30 2.214621 1_555
Ca2 O34 2.245875 1_555
Ca2 O102 2.275234 1_555
Ca2 O106 2.305985 1_555
Ca2 O104 2.335950 1_555
Ca3 O33 2.210255 1_555
Ca3 O35 2.216439 1_555
Ca3 O107 2.246072 1_555
Ca3 O31 2.277494 1_555
Ca3 O105 2.302338 1_555
Ca3 O103 2.302490 1_555
Ca4 O52 2.149379 1_554
Ca4 O50 2.180721 1_554
Ca4 O124 2.220725 1_555
Ca4 O48 2.247177 1_554
Ca4 O122 2.325618 1_555
Ca4 O120 2.381289 1_555
Ca5 O57 2.171158 1_555
Ca5 O55 2.171274 1_555
Ca5 O59 2.208342 1_555
Ca5 O129 2.260311 1_555
Ca5 O131 2.408648 1_555
Ca5 O127 2.411379 1_555
O0 Si0 1.616816 1_545
O0 Ti0 1.877520 1_445
O1 Si1 1.622706 1_545
O1 Ti1 1.887834 1_545
O2 Si2 1.618015 1_555
O2 Ti1 1.834556 1_555
O3 Si3 1.635386 1_555
O3 Ti0 1.854494 1_555
O4 S0 1.469103 1_555
O4 Ti1 2.229522 1_545
O5 Si4 1.616372 1_655
O5 Ti0 1.867201 1_545
O6 Si5 1.631359 1_555
O6 Ti2 1.893051 1_455
O7 Si6 1.648799 1_555
O7 Ti3 1.787683 1_555
O8 Si7 1.635344 1_555
O8 Ti3 1.848538 1_565
O9 S1 1.468513 1_655
O9 Ti2 2.218247 1_565
O10 Si8 1.650051 1_545
O10 Ti3 1.861420 1_555
O11 Si9 1.629046 1_545
O11 Ti2 1.816433 1_555
O12 Si8 1.685588 1_555
O12 Ti5 1.858340 1_555
O13 Si9 1.671044 1_555
O13 Ti4 1.916814 1_565
O14 Si5 1.669171 1_555
O14 Ti4 1.960115 1_455
O15 Si6 1.661523 1_555
O15 Ti5 1.938558 1_545
O16 S1 1.470372 1_555
O16 Ti4 2.418054 1_465
O17 Si7 1.703130 1_555
O17 Ti5 1.823310 1_555
O18 Si2 1.690069 1_555
O18 Ti7 1.898757 1_555
O19 Si3 1.705721 1_555
O19 Ti6 1.835292 1_565
O20 Si4 1.716272 1_555
O20 Ti6 1.818178 1_455
O21 S0 1.491671 1_555
O21 Ti7 2.277786 1_545
O22 Si0 1.692170 1_555
O22 Ti6 1.917654 1_465
O23 Si1 1.696880 1_555
O23 Ti7 1.883251 1_555
O24 S2 1.471080 1_555
O25 Si10 1.602213 1_555
O26 Si11 1.601120 1_555
O27 S3 1.474986 1_555
O28 Si12 1.603849 1_555
O29 Si13 1.602589 1_555
O30 Si14 1.597833 1_555
O31 S4 1.465428 1_555
O32 Si15 1.591144 1_555
O33 Si16 1.599995 1_555
O34 S5 1.469244 1_555
O35 Si17 1.593781 1_555
O36 S5 1.488869 1_555
O36 Ti8 2.378588 1_554
O37 Si17 1.680595 1_555
O37 Ti9 1.872760 1_554
O38 Si14 1.682736 1_555
O38 Ti8 1.874867 1_554
O39 S4 1.489264 1_555
O39 Ti9 2.296589 1_554
O40 Si15 1.739257 1_555
O40 Ti8 1.828597 1_554
O41 Si16 1.690217 1_555
O41 Ti9 1.906231 1_554
O42 Si11 1.673367 1_555
O42 Ti10 1.902518 1_555
O43 S3 1.474154 1_555
O43 Ti11 2.474863 1_555
O44 Si12 1.677851 1_555
O44 Ti10 1.920664 1_555
O45 Si13 1.698613 1_555
O45 Ti11 1.964012 1_555
O46 S2 1.487750 1_555
O46 Ti10 2.321303 1_555
O47 Si10 1.656862 1_555
O47 Ti11 1.903385 1_555
O48 S6 1.481105 1_555
O49 Si18 1.634114 1_555
O49 Ti12 1.879891 1_556
O50 Si19 1.598927 1_555
O51 Si20 1.617277 1_555
O51 Ti12 1.898499 1_556
O52 Si21 1.599028 1_555
O53 S7 1.468515 1_555
O53 Ti12 2.257883 1_556
O54 Si22 1.638556 1_555
O54 Ti13 1.877558 1_555
O55 Si23 1.594869 1_555
O56 S8 1.473087 1_555
O56 Ti13 2.202033 1_555
O57 Si24 1.602048 1_555
O58 Si25 1.626234 1_555
O58 Ti13 1.872785 1_555
O59 Si26 1.597175 1_555
O60 Si25 1.653196 1_555
O60 Ti14 1.877926 1_555
O61 Si26 1.683407 1_555
O61 Ti15 1.926110 1_555
O62 Si22 1.670827 1_555
O62 Ti14 1.876225 1_555
O63 Si23 1.721843 1_555
O63 Ti15 1.836377 1_555
O64 S8 1.481946 1_555
O64 Ti14 2.316163 1_555
O65 Si24 1.695096 1_555
O65 Ti15 1.918928 1_555
O66 Si19 1.708004 1_555
O66 Ti16 1.888574 1_555
O67 Si20 1.648083 1_555
O67 Ti17 1.913167 1_555
O68 Si21 1.702144 1_555
O68 Ti16 1.919384 1_555
O69 S7 1.478790 1_555
O69 Ti17 2.311235 1_555
O70 S6 1.506422 1_555
O70 Ti16 2.157926 1_555
O71 Si18 1.672172 1_555
O71 Ti17 1.871997 1_555
O72 Si25 1.629092 1_555
O72 Ti0 2.080351 1_455
O73 Si26 1.651058 1_555
O73 Ti1 1.844088 1_555
O74 Si22 1.642293 1_555
O74 Ti1 2.054578 1_555
O75 Si23 1.632195 1_555
O75 Ti0 1.930728 1_555
O76 S8 1.472425 1_555
O76 Ti0 2.287389 1_445
O77 Si24 1.647262 1_555
O77 Ti1 1.972029 1_545
O78 Si19 1.644261 1_555
O78 Ti2 1.844197 1_455
O79 Si20 1.653550 1_555
O79 Ti3 2.051004 1_555
O80 Si21 1.635863 1_555
O80 Ti2 2.008401 1_465
O81 S7 1.489915 1_555
O81 Ti3 2.240225 1_565
O82 S6 1.477326 1_555
O82 Ti3 2.218947 1_565
O83 Si18 1.647575 1_555
O83 Ti2 2.043549 1_565
O84 S2 1.504828 1_555
O84 Ti5 2.345336 1_545
O85 Si10 1.681329 1_555
O85 Ti4 1.875750 1_555
O86 Si11 1.647126 1_555
O86 Ti4 2.038038 1_455
O87 S3 1.512298 1_555
O87 Ti5 2.251632 1_545
O88 Si12 1.688758 1_555
O88 Ti5 2.027101 1_555
O89 Si13 1.685611 1_555
O89 Ti4 1.967988 1_565
O90 Si14 1.673042 1_555
O90 Ti7 1.921877 1_555
O91 S4 1.500949 1_555
O91 Ti6 2.356759 1_565
O92 Si15 1.651695 1_555
O92 Ti7 2.043892 1_545
O93 Si16 1.680946 1_555
O93 Ti6 2.086500 1_555
O94 S5 1.502798 1_555
O94 Ti6 2.343225 1_455
O95 Si17 1.641694 1_555
O95 Ti7 2.081939 1_545
O96 Si8 1.598862 1_545
O97 Si9 1.612366 1_545
O98 Si5 1.608416 1_555
O99 Si6 1.600075 1_555
O100 Si7 1.598876 1_555
O101 S1 1.480852 1_655
O102 Si2 1.612799 1_555
O103 Si3 1.597974 1_555
O104 S0 1.489975 1_555
O105 Si4 1.599549 1_655
O106 Si0 1.608080 1_545
O107 Si1 1.605778 1_545
O108 S6 1.479976 1_555
O108 Ti8 2.404474 1_555
O109 Si18 1.660348 1_555
O109 Ti9 2.013786 1_555
O110 Si20 1.690763 1_555
O110 Ti8 1.859564 1_555
O111 Si19 1.636539 1_655
O111 Ti9 2.050121 1_555
O112 Si21 1.671677 1_545
O112 Ti8 2.064502 1_555
O113 S7 1.523768 1_545
O113 Ti9 2.036262 1_555
O114 Si22 1.662385 1_545
O114 Ti10 1.993993 1_555
O115 Si23 1.642108 1_545
O115 Ti11 2.009331 1_555
O116 S8 1.527768 1_555
O116 Ti10 2.019869 1_555
O117 Si24 1.655068 1_555
O117 Ti11 2.074185 1_555
O118 Si26 1.651654 1_555
O118 Ti10 2.014430 1_555
O119 Si25 1.673146 1_655
O119 Ti11 1.846894 1_555
O120 S5 1.485904 1_555
O121 Si17 1.668021 1_555
O121 Ti12 1.873406 1_555
O122 S4 1.489800 1_455
O123 Si14 1.634213 1_555
O123 Ti12 1.994259 1_555
O124 Si15 1.616545 1_565
O125 Si16 1.646854 1_565
O125 Ti12 1.979716 1_555
O126 Si11 1.665929 1_565
O126 Ti13 1.889029 1_555
O127 S3 1.484776 1_565
O128 Si12 1.643515 1_555
O128 Ti13 2.014572 1_555
O129 Si13 1.621172 1_555
O130 Si10 1.637793 1_455
O130 Ti13 2.006682 1_555
O131 S2 1.483348 1_555
O132 Si0 1.677285 1_555
O132 Ti14 1.930506 1_555
O133 Si1 1.660234 1_555
O133 Ti15 2.099897 1_555
O134 Si2 1.646121 1_555
O134 Ti14 2.065494 1_555
O135 Si3 1.647734 1_555
O135 Ti15 2.076105 1_555
O136 Si4 1.644552 1_555
O136 Ti14 2.056340 1_555
O137 S0 1.496447 1_555
O137 Ti15 2.399287 1_555
O138 Si5 1.685101 1_555
O138 Ti16 2.010491 1_555
O139 Si6 1.665804 1_555
O139 Ti17 1.922478 1_555
O140 S1 1.529670 1_555
O140 Ti16 2.094109 1_555
O141 Si7 1.641104 1_555
O141 Ti17 2.055031 1_555
O142 Si8 1.658394 1_555
O142 Ti16 2.024986 1_555
O143 Si9 1.650878 1_555
O143 Ti17 2.037407 1_555
