# generated using pymatgen
data_MgTi3(BiO3)4
_symmetry_space_group_name_H-M   'P 1'
_cell_length_a   3.95568138
_cell_length_b   3.95399157
_cell_length_c   18.25389035
_cell_angle_alpha   92.02352584
_cell_angle_beta   91.93101090
_cell_angle_gamma   89.61570587
_symmetry_Int_Tables_number   1
_chemical_formula_structural   MgTi3(BiO3)4
_chemical_formula_sum   'Mg1 Ti3 Bi4 O12'
_cell_volume   285.15976841
_cell_formula_units_Z   1
loop_
 _symmetry_equiv_pos_site_id
 _symmetry_equiv_pos_as_xyz
  1  'x, y, z'
loop_
 _atom_site_type_symbol
 _atom_site_label
 _atom_site_symmetry_multiplicity
 _atom_site_fract_x
 _atom_site_fract_y
 _atom_site_fract_z
 _atom_site_occupancy
  Mg  Mg0  1  -0.00000000  0.00000000  0.00000000  1
  Ti  Ti0  1  0.50000000  0.50000000  0.00000000  1
  Ti  Ti1  1  0.33976526  0.33998385  0.72458965  1
  Ti  Ti2  1  0.66023474  0.66001615  0.27541035  1
  Bi  Bi0  1  0.74571571  0.74656847  0.56733706  1
  Bi  Bi1  1  0.25428429  0.25343153  0.43266294  1
  Bi  Bi2  1  0.80919115  0.81038984  0.83335507  1
  Bi  Bi3  1  0.19080885  0.18961016  0.16664493  1
  O  O0  1  0.53090938  0.53168410  0.11088767  1
  O  O1  1  0.85008083  0.35825846  0.75561481  1
  O  O2  1  0.64224365  0.14954247  0.24426619  1
  O  O3  1  0.14991917  0.64174154  0.24438519  1
  O  O4  1  0.50000000  0.00000000  0.00000000  1
  O  O5  1  -0.00000000  0.50000000  0.00000000  1
  O  O6  1  0.75199849  0.24806279  0.49996103  1
  O  O7  1  0.66848373  0.66926744  0.37139299  1
  O  O8  1  0.46909062  0.46831590  0.88911233  1
  O  O9  1  0.24800151  0.75193721  0.50003897  1
  O  O10  1  0.33151627  0.33073256  0.62860701  1
  O  O11  1  0.35775635  0.85045753  0.75573381  1
loop_
_geom_bond_atom_site_label_1
_geom_bond_atom_site_label_2
_geom_bond_distance
_geom_bond_site_symmetry_2
Mg0 O5 1.976996 1_555
Mg0 O5 1.976996 1_545
Mg0 O4 1.977841 1_555
Mg0 O4 1.977841 1_455
Bi0 O9 2.285607 1_555
Bi0 O6 2.286614 1_555
Bi0 O6 2.370667 1_565
Bi0 O9 2.371528 1_655
Bi0 O10 2.632160 1_555
Bi1 O6 2.285607 1_555
Bi1 O9 2.286614 1_555
Bi1 O9 2.370667 1_545
Bi1 O6 2.371528 1_455
Bi1 O7 2.632160 1_555
Bi2 O8 2.211134 1_555
Bi2 O11 2.250124 1_555
Bi2 O1 2.251286 1_555
Bi2 O11 2.639891 1_655
Bi2 O1 2.640052 1_565
Bi3 O0 2.211134 1_555
Bi3 O2 2.250124 1_555
Bi3 O3 2.251286 1_555
Bi3 O2 2.639891 1_455
Bi3 O3 2.640052 1_545
O0 Ti0 2.023208 1_555
O1 Ti1 2.036472 1_655
O1 Ti1 2.079159 1_555
O2 Ti2 2.036633 1_545
O2 Ti2 2.078557 1_555
O3 Ti2 2.036472 1_455
O3 Ti2 2.079159 1_555
O4 Ti0 1.976996 1_555
O4 Ti0 1.976996 1_545
O5 Ti0 1.977841 1_555
O5 Ti0 1.977841 1_455
O7 Ti2 1.750355 1_555
O8 Ti0 2.023208 1_556
O10 Ti1 1.750355 1_555
O11 Ti1 2.036633 1_565
O11 Ti1 2.078557 1_555
