# generated using pymatgen
data_MgMn6(O5F)2
_symmetry_space_group_name_H-M   'P 1'
_cell_length_a   5.10570408
_cell_length_b   7.51923379
_cell_length_c   5.71075161
_cell_angle_alpha   98.07009398
_cell_angle_beta   98.63582523
_cell_angle_gamma   84.55436856
_symmetry_Int_Tables_number   1
_chemical_formula_structural   MgMn6(O5F)2
_chemical_formula_sum   'Mg1 Mn6 O10 F2'
_cell_volume   213.99807817
_cell_formula_units_Z   1
loop_
 _symmetry_equiv_pos_site_id
 _symmetry_equiv_pos_as_xyz
  1  'x, y, z'
loop_
 _atom_site_type_symbol
 _atom_site_label
 _atom_site_symmetry_multiplicity
 _atom_site_fract_x
 _atom_site_fract_y
 _atom_site_fract_z
 _atom_site_occupancy
  Mg  Mg0  1  0.50379001  0.16159686  0.16240912  1
  Mn  Mn0  1  0.43410371  0.96783176  0.54275325  1
  Mn  Mn1  1  0.53232265  0.67198135  0.14258719  1
  Mn  Mn2  1  0.55601674  0.35149427  0.77553370  1
  Mn  Mn3  1  0.98771311  0.66355992  0.67676150  1
  Mn  Mn4  1  0.99483166  0.32959408  0.33864544  1
  Mn  Mn5  1  0.98952022  0.98343264  0.99546897  1
  O  O0  1  0.85353967  0.42734194  0.62826787  1
  O  O1  1  0.84811295  0.75897623  0.96524403  1
  O  O2  1  0.87410144  0.09884229  0.29321354  1
  O  O3  1  0.64592928  0.08999255  0.83419738  1
  O  O4  1  0.65981973  0.74832512  0.47811957  1
  O  O5  1  0.66794523  0.41264015  0.12688918  1
  O  O6  1  0.33359123  0.57140810  0.84171785  1
  O  O7  1  0.35104200  0.23124852  0.48491251  1
  O  O8  1  0.34031729  0.91590040  0.18611721  1
  O  O9  1  0.13136516  0.89375430  0.71069610  1
  F  F0  1  0.13516877  0.56561864  0.36723827  1
  F  F1  1  0.14688014  0.22789387  0.00875135  1
loop_
_geom_bond_atom_site_label_1
_geom_bond_atom_site_label_2
_geom_bond_distance
_geom_bond_site_symmetry_2
Mg0 O2 1.964917 1_555
Mg0 O7 2.087464 1_555
Mg0 O3 2.093007 1_554
Mg0 O8 2.127172 1_545
Mg0 O5 2.183045 1_555
Mn0 O4 1.945313 1_555
Mn0 O3 2.000571 1_565
Mn0 O8 2.012233 1_555
Mn0 O7 2.047997 1_565
Mn0 O9 2.092331 1_555
Mn1 O6 1.952148 1_554
Mn1 O4 1.952534 1_555
Mn1 O8 1.997649 1_555
Mn1 O5 2.000868 1_555
Mn1 O1 2.220305 1_554
Mn2 O6 1.940069 1_555
Mn2 O7 1.975830 1_555
Mn2 O5 2.002631 1_556
Mn2 O0 2.005704 1_555
Mn2 O3 2.038804 1_555
Mn3 O1 1.913263 1_555
Mn3 O9 1.917173 1_655
Mn3 O0 1.933045 1_555
Mn3 O4 1.981401 1_555
Mn3 O6 1.984328 1_655
Mn4 O2 1.867176 1_555
Mn4 O0 1.926804 1_555
Mn4 O7 2.003544 1_655
Mn4 O5 2.011447 1_555
Mn5 O1 1.873922 1_555
Mn5 O9 1.891307 1_655
Mn5 O2 1.944496 1_566
Mn5 O3 2.005715 1_565
Mn5 O8 2.011997 1_656
F0 Mn4 1.953091 1_455
F0 Mn3 2.040225 1_455
F1 Mg0 1.951768 1_555
F1 Mn5 2.062269 1_444
F1 Mn4 2.158407 1_455
