# generated using pymatgen
data_Na4ZnSn3(PO4)6
_symmetry_space_group_name_H-M   'P 1'
_cell_length_a   8.85751012
_cell_length_b   8.86978858
_cell_length_c   22.62089853
_cell_angle_alpha   90.02963766
_cell_angle_beta   89.97914712
_cell_angle_gamma   120.00735089
_symmetry_Int_Tables_number   1
_chemical_formula_structural   Na4ZnSn3(PO4)6
_chemical_formula_sum   'Na12 Zn3 Sn9 P18 O72'
_cell_volume   1538.98070003
_cell_formula_units_Z   3
loop_
 _symmetry_equiv_pos_site_id
 _symmetry_equiv_pos_as_xyz
  1  'x, y, z'
loop_
 _atom_site_type_symbol
 _atom_site_label
 _atom_site_symmetry_multiplicity
 _atom_site_fract_x
 _atom_site_fract_y
 _atom_site_fract_z
 _atom_site_occupancy
  Na  Na0  1  0.64068730  0.01144276  0.24559188  1
  Na  Na1  1  0.37102460  0.35873754  0.24531974  1
  Na  Na2  1  0.98787262  0.62809628  0.24512987  1
  Na  Na3  1  0.98721492  0.36292519  0.74266848  1
  Na  Na4  1  0.37532251  0.00958248  0.74297234  1
  Na  Na5  1  0.70749435  0.67687523  0.41493657  1
  Na  Na6  1  0.01226415  0.01318126  0.49576797  1
  Na  Na7  1  0.99982035  0.99987017  0.00206629  1
  Na  Na8  1  0.66548540  0.34565989  0.83112293  1
  Na  Na9  1  0.66559417  0.32209790  0.33252936  1
  Na  Na10  1  0.33308448  0.66659853  0.16129871  1
  Na  Na11  1  0.34533033  0.66544064  0.66175766  1
  Zn  Zn0  1  0.00731194  0.00824987  0.35295986  1
  Zn  Zn1  1  0.66578729  0.34071377  0.67932112  1
  Zn  Zn2  1  0.66658524  0.33303146  0.17714816  1
  Sn  Sn0  1  0.99901269  0.99802160  0.85445160  1
  Sn  Sn1  1  0.99725609  0.99688329  0.64529870  1
  Sn  Sn2  1  0.00048087  0.00029935  0.14701094  1
  Sn  Sn3  1  0.66699922  0.33295173  0.98333037  1
  Sn  Sn4  1  0.66616274  0.32897547  0.48435653  1
  Sn  Sn5  1  0.33341269  0.66655315  0.01934594  1
  Sn  Sn6  1  0.33081401  0.66627614  0.52008521  1
  Sn  Sn7  1  0.33116435  0.66659113  0.31844696  1
  Sn  Sn8  1  0.33721981  0.66586048  0.81696549  1
  P  P0  1  0.29162872  -0.00097627  0.25154391  1
  P  P1  1  0.70643607  0.70761776  0.25297282  1
  P  P2  1  0.00012780  0.29186841  0.25165347  1
  P  P3  1  0.29159069  0.29218540  0.75080848  1
  P  P4  1  0.99846172  0.70723054  0.75146121  1
  P  P5  1  0.70710843  0.99670472  0.75073578  1
  P  P6  1  0.96185108  0.33282026  0.58606432  1
  P  P7  1  0.37180466  0.03784947  0.58601675  1
  P  P8  1  0.66599693  0.62764913  0.58305843  1
  P  P9  1  0.96198327  0.62916760  0.08477043  1
  P  P10  1  0.66688805  0.03774242  0.08478348  1
  P  P11  1  0.37096762  0.33310478  0.08471113  1
  P  P12  1  0.62773185  0.66483009  0.91773674  1
  P  P13  1  0.03758937  0.37224297  0.91643146  1
  P  P14  1  0.33533150  0.96249050  0.91655282  1
  P  P15  1  0.62788451  0.96397391  0.41701817  1
  P  P16  1  0.33267080  0.36996606  0.41798042  1
  P  P17  1  0.03631214  0.66547383  0.41753355  1
  O  O0  1  0.20988514  0.03064253  0.30525432  1
  O  O1  1  0.81296097  0.78503503  0.30887351  1
  O  O2  1  0.96636620  0.17737435  0.30522955  1
  O  O3  1  0.20841300  0.17678798  0.80657735  1
  O  O4  1  0.97303778  0.79020163  0.80782827  1
  O  O5  1  0.82251838  0.02954533  0.80623062  1
  O  O6  1  0.78773518  0.96293837  0.69544650  1
  O  O7  1  0.16837805  0.21133775  0.69666897  1
  O  O8  1  0.04233277  0.82973545  0.69729476  1
  O  O9  1  0.78651704  0.82915778  0.19772373  1
  O  O10  1  0.04470769  0.21789374  0.19528775  1
  O  O11  1  0.17346933  0.95561206  0.19514093  1
  O  O12  1  0.88622200  0.35742707  0.64330882  1
  O  O13  1  0.47304185  0.11224387  0.64317152  1
  O  O14  1  0.63792742  0.51816264  0.63737829  1
  O  O15  1  0.88830872  0.52918731  0.14223795  1
  O  O16  1  0.64071042  0.11170510  0.14216735  1
  O  O17  1  0.47123580  0.35960358  0.14216448  1
  O  O18  1  0.45601368  0.30499618  0.02898445  1
  O  O19  1  0.84908720  0.54422220  0.02903252  1
  O  O20  1  0.69570697  0.15076427  0.02898805  1
  O  O21  1  0.45522070  0.15085096  0.53004000  1
  O  O22  1  0.69398054  0.55093383  0.52431781  1
  O  O23  1  0.84955716  0.30499496  0.53007338  1
  O  O24  1  0.54315207  0.69612000  0.97191817  1
  O  O25  1  0.15598080  0.46010489  0.96983214  1
  O  O26  1  0.30497964  0.84422109  0.96990062  1
  O  O27  1  0.53460206  0.84042750  0.46949964  1
  O  O28  1  0.31085599  0.46473173  0.47136621  1
  O  O29  1  0.15316399  0.68968194  0.47085790  1
  O  O30  1  0.11034529  0.63119047  0.35894320  1
  O  O31  1  0.51875295  0.88857791  0.35833618  1
  O  O32  1  0.37481887  0.48661827  0.36023594  1
  O  O33  1  0.11420812  0.47838709  0.85808246  1
  O  O34  1  0.36413311  0.88560891  0.85813036  1
  O  O35  1  0.51776693  0.63289577  0.86069013  1
  O  O36  1  0.01134913  0.82248011  0.41369838  1
  O  O37  1  0.80445172  0.97560008  0.41287358  1
  O  O38  1  0.17412385  0.19185008  0.41325776  1
  O  O39  1  0.02064061  0.18985200  0.91221536  1
  O  O40  1  0.16968697  0.97956719  0.91264633  1
  O  O41  1  0.80984940  0.83063787  0.91289304  1
  O  O42  1  0.98175513  0.16768242  0.58725287  1
  O  O43  1  0.18684942  0.01864372  0.58763584  1
  O  O44  1  0.83251963  0.81168571  0.58616284  1
  O  O45  1  0.98102138  0.81382668  0.08696922  1
  O  O46  1  0.83243087  0.01809067  0.08705426  1
  O  O47  1  0.18605267  0.16745126  0.08679080  1
  O  O48  1  0.68595288  0.15760238  0.74650573  1
  O  O49  1  0.47020416  0.30913272  0.74516253  1
  O  O50  1  0.84408074  0.52362767  0.74598576  1
  O  O51  1  0.68067925  0.52420209  0.24452368  1
  O  O52  1  0.84344852  0.31991826  0.24384675  1
  O  O53  1  0.47635003  0.15601762  0.24392824  1
  O  O54  1  0.64613933  0.50090499  0.92281219  1
  O  O55  1  0.85573667  0.35530838  0.92202486  1
  O  O56  1  0.49998475  0.14442714  0.92206522  1
  O  O57  1  0.63951764  0.14377069  0.42280211  1
  O  O58  1  0.50789162  0.36651244  0.42289743  1
  O  O59  1  0.85232942  0.49702119  0.42248752  1
  O  O60  1  0.35143299  0.49761545  0.07755010  1
  O  O61  1  0.14623744  0.64858733  0.07747766  1
  O  O62  1  0.50183355  0.85407455  0.07756476  1
  O  O63  1  0.35199982  0.85406134  0.57862824  1
  O  O64  1  0.50296744  0.65028355  0.57743202  1
  O  O65  1  0.14581895  0.49747689  0.57911930  1
  O  O66  1  0.30639386  0.82781080  0.25538625  1
  O  O67  1  0.51979356  0.69213528  0.25558207  1
  O  O68  1  0.17160262  0.47776654  0.25594519  1
  O  O69  1  0.29783235  0.47180854  0.75645917  1
  O  O70  1  0.17203991  0.69634106  0.75627709  1
  O  O71  1  0.52107360  0.83141587  0.75582298  1
loop_
_geom_bond_atom_site_label_1
_geom_bond_atom_site_label_2
_geom_bond_distance
_geom_bond_site_symmetry_2
Na0 O53 2.373136 1_555
Na0 O52 2.407979 1_555
Na0 O67 2.487182 1_545
Na0 O16 2.503269 1_555
Na0 O66 2.577900 1_545
Na0 O9 2.746119 1_545
Na0 O31 2.771666 1_545
Na0 O2 2.839330 1_555
Na1 O51 2.377135 1_555
Na1 O53 2.404620 1_555
Na1 O68 2.481377 1_555
Na1 O17 2.494931 1_555
Na1 O67 2.576246 1_555
Na1 O10 2.754091 1_555
Na1 O32 2.829140 1_555
Na1 O0 2.862220 1_555
Na2 O52 2.368877 1_555
Na2 O51 2.396891 1_555
Na2 O66 2.480473 1_655
Na2 O15 2.488012 1_555
Na2 O68 2.580165 1_655
Na2 O11 2.765063 1_655
Na2 O30 2.788923 1_655
Na2 O1 2.927552 1_555
Na3 O50 2.334972 1_555
Na3 O48 2.363042 1_555
Na3 O12 2.410816 1_555
Na3 O69 2.437676 1_655
Na3 O70 2.584097 1_655
Na3 O7 2.760584 1_655
Na3 O33 2.824420 1_655
Na3 O5 2.937276 1_555
Na4 O49 2.352569 1_555
Na4 O48 2.384802 1_555
Na4 O13 2.426397 1_555
Na4 O70 2.459420 1_545
Na4 O71 2.507961 1_545
Na4 O8 2.757918 1_545
Na4 O34 2.810456 1_545
Na4 O3 2.940181 1_555
Na5 O36 2.331447 1_655
Na5 O37 2.341864 1_555
Na5 O58 2.422518 1_555
Na5 O59 2.503450 1_555
Na5 O1 2.579486 1_555
Na5 O22 2.693186 1_555
Na5 O32 2.844038 1_555
Na5 O27 2.862142 1_555
Na6 O38 2.403978 1_555
Na6 O36 2.508140 1_545
Na6 O37 2.530537 1_445
Na6 O42 2.569198 1_455
Na6 O43 2.576743 1_555
Na6 O44 2.658107 1_445
Na7 O47 2.480016 1_665
Na7 O46 2.481466 1_565
Na7 O45 2.483469 1_555
Na7 O41 2.574209 1_554
Na7 O40 2.579964 1_654
Na7 O39 2.587876 1_664
Na8 O50 2.491284 1_555
Na8 O49 2.513803 1_555
Na8 O54 2.541678 1_555
Na8 O48 2.603449 1_555
Na8 O55 2.633146 1_555
Na8 O56 2.636538 1_555
Na9 O57 2.522450 1_555
Na9 O53 2.554667 1_555
Na9 O52 2.556281 1_555
Na9 O59 2.591587 1_555
Na9 O58 2.613937 1_555
Na9 O51 2.637882 1_555
Na10 O61 2.469268 1_555
Na10 O62 2.470258 1_555
Na10 O60 2.470313 1_555
Na10 O67 2.638637 1_555
Na10 O66 2.639133 1_555
Na10 O68 2.653347 1_555
Na11 O64 2.406625 1_555
Na11 O65 2.490602 1_555
Na11 O63 2.498592 1_555
Na11 O71 2.612499 1_555
Na11 O69 2.645054 1_555
Na11 O70 2.724046 1_555
O0 P0 1.510357 1_555
O0 Zn0 2.016393 1_555
O1 P1 1.520769 1_555
O1 Zn0 2.113776 1_665
O2 P2 1.512215 1_655
O2 Zn0 2.023295 1_655
O3 P3 1.558311 1_555
O3 Sn0 2.045936 1_445
O4 P4 1.543603 1_555
O4 Sn0 2.033972 1_555
O5 P5 1.551915 1_545
O5 Sn0 2.037328 1_545
O6 P5 1.541702 1_555
O6 Sn1 2.064350 1_555
O7 P3 1.556414 1_555
O7 Sn1 2.093127 1_445
O8 P4 1.552974 1_455
O8 Sn1 2.082084 1_455
O9 P1 1.569446 1_555
O9 Sn2 2.082001 1_665
O10 P2 1.571651 1_555
O10 Sn2 2.076759 1_555
O11 P0 1.571272 1_565
O11 Sn2 2.073494 1_565
O12 P6 1.522669 1_555
O12 Zn1 2.051176 1_555
O13 P7 1.522893 1_555
O13 Zn1 2.056413 1_555
O14 P8 1.508067 1_555
O14 Zn1 1.956669 1_555
O15 P9 1.524444 1_555
O15 Zn2 2.022450 1_555
O16 P10 1.523216 1_555
O16 Zn2 2.020152 1_555
O17 P11 1.524738 1_555
O17 Zn2 2.021106 1_555
O18 P11 1.550977 1_555
O18 Sn3 2.038586 1_554
O19 P9 1.550386 1_555
O19 Sn3 2.039079 1_554
O20 P10 1.551854 1_555
O20 Sn3 2.038535 1_554
O21 P7 1.553641 1_555
O21 Sn4 2.025523 1_555
O22 P8 1.567669 1_555
O22 Sn4 2.065637 1_555
O23 P6 1.552248 1_555
O23 Sn4 2.024969 1_555
O24 P12 1.532122 1_555
O24 Sn5 2.045149 1_556
O25 P13 1.532559 1_555
O25 Sn5 2.048960 1_556
O26 P14 1.532326 1_555
O26 Sn5 2.048621 1_556
O27 P15 1.545292 1_555
O27 Sn6 2.040868 1_555
O28 P16 1.537360 1_555
O28 Sn6 2.030648 1_555
O29 P17 1.533213 1_555
O29 Sn6 2.021734 1_555
O30 P17 1.573998 1_555
O30 Sn7 2.036675 1_555
O31 P15 1.580233 1_555
O31 Sn7 2.044214 1_555
O32 P16 1.590868 1_555
O32 Sn7 2.051967 1_555
O33 P13 1.565457 1_555
O33 Sn8 2.060811 1_555
O34 P14 1.565079 1_555
O34 Sn8 2.063141 1_555
O35 P12 1.555240 1_555
O35 Sn8 2.022466 1_555
O36 P17 1.517865 1_555
O36 Zn0 2.159954 1_565
O37 P15 1.517874 1_555
O37 Zn0 2.151160 1_665
O38 P16 1.503428 1_555
O38 Zn0 2.070764 1_555
O39 P13 1.551045 1_555
O39 Sn0 2.076300 1_445
O40 P14 1.551068 1_555
O40 Sn0 2.072272 1_455
O41 P12 1.550538 1_555
O41 Sn0 2.066770 1_555
O42 P6 1.560640 1_555
O42 Sn1 2.061132 1_545
O43 P7 1.560457 1_555
O43 Sn1 2.057492 1_445
O44 P8 1.561033 1_555
O44 Sn1 2.053935 1_555
O45 P9 1.561168 1_555
O45 Sn2 2.079119 1_665
O46 P10 1.561652 1_555
O46 Sn2 2.077658 1_655
O47 P11 1.560986 1_555
O47 Sn2 2.078103 1_555
O48 P5 1.532515 1_545
O48 Zn1 2.296178 1_555
O49 P3 1.517847 1_555
O49 Zn1 2.193415 1_555
O50 P4 1.519807 1_555
O50 Zn1 2.199265 1_555
O51 P1 1.537439 1_555
O51 Zn2 2.235932 1_555
O52 P2 1.537732 1_655
O52 Zn2 2.219964 1_555
O53 P0 1.538493 1_555
O53 Zn2 2.222792 1_555
O54 P12 1.546327 1_555
O54 Sn3 2.098826 1_555
O55 P13 1.546285 1_655
O55 Sn3 2.103388 1_555
O56 P14 1.546797 1_545
O56 Sn3 2.104775 1_555
O57 P15 1.551266 1_545
O57 Sn4 2.074407 1_555
O58 P16 1.571547 1_555
O58 Sn4 2.116062 1_555
O59 P17 1.570130 1_655
O59 Sn4 2.107504 1_555
O60 P11 1.561464 1_555
O60 Sn5 2.060520 1_555
O61 P9 1.561753 1_455
O61 Sn5 2.058550 1_555
O62 P10 1.560659 1_565
O62 Sn5 2.060016 1_555
O63 P7 1.558796 1_565
O63 Sn6 2.061193 1_555
O64 P8 1.559447 1_555
O64 Sn6 2.060605 1_555
O65 P6 1.559681 1_455
O65 Sn6 2.063141 1_555
O66 P0 1.590494 1_565
O66 Sn7 2.108085 1_555
O67 P1 1.590042 1_555
O67 Sn7 2.117801 1_555
O68 P2 1.590629 1_555
O68 Sn7 2.105447 1_555
O69 P3 1.571444 1_555
O69 Sn8 2.086839 1_555
O70 P4 1.591753 1_455
O70 Sn8 2.120340 1_555
O71 P5 1.568941 1_555
O71 Sn8 2.080828 1_555
