# generated using pymatgen
data_MgCrPtO2
_symmetry_space_group_name_H-M   'P 1'
_cell_length_a   2.96399525
_cell_length_b   8.30854755
_cell_length_c   2.96399608
_cell_angle_alpha   100.31368400
_cell_angle_beta   59.99101006
_cell_angle_gamma   100.31371314
_symmetry_Int_Tables_number   1
_chemical_formula_structural   MgCrPtO2
_chemical_formula_sum   'Mg1 Cr1 Pt1 O2'
_cell_volume   61.84257082
_cell_formula_units_Z   1
loop_
 _symmetry_equiv_pos_site_id
 _symmetry_equiv_pos_as_xyz
  1  'x, y, z'
loop_
 _atom_site_type_symbol
 _atom_site_label
 _atom_site_symmetry_multiplicity
 _atom_site_fract_x
 _atom_site_fract_y
 _atom_site_fract_z
 _atom_site_occupancy
  Mg  Mg0  1  0.73642500  0.21351000  0.73642500  1
  Cr  Cr0  1  0.51372900  0.54107900  0.51372900  1
  Pt  Pt0  1  0.98679700  0.96639000  0.98679700  1
  O  O0  1  0.12774000  0.38397000  0.12774000  1
  O  O1  1  0.88530900  0.65546800  0.88530900  1
loop_
_geom_bond_atom_site_label_1
_geom_bond_atom_site_label_2
_geom_bond_distance
_geom_bond_site_symmetry_2
Mg0 O0 2.199920 1_655
Mg0 O0 2.199920 1_556
Mg0 O0 2.205810 1_656
Mg0 Pt0 2.638020 1_545
Mg0 Pt0 2.639303 1_445
Mg0 Pt0 2.639305 1_544
Cr0 O1 1.947500 1_554
Cr0 O1 1.947501 1_455
Cr0 O1 1.947555 1_555
Cr0 O0 2.134988 1_556
Cr0 O0 2.134988 1_655
Cr0 O0 2.135760 1_555
O1 Pt0 2.527542 1_555
