# generated using pymatgen
data_MgMo3W(SeS3)2
_symmetry_space_group_name_H-M   'P 1'
_cell_length_a   6.43632600
_cell_length_b   6.43626257
_cell_length_c   74.27536800
_cell_angle_alpha   89.99955829
_cell_angle_beta   90.00009970
_cell_angle_gamma   120.00035410
_symmetry_Int_Tables_number   1
_chemical_formula_structural   MgMo3W(SeS3)2
_chemical_formula_sum   'Mg8 Mo24 W8 Se16 S48'
_cell_volume   2664.68379064
_cell_formula_units_Z   8
loop_
 _symmetry_equiv_pos_site_id
 _symmetry_equiv_pos_as_xyz
  1  'x, y, z'
loop_
 _atom_site_type_symbol
 _atom_site_label
 _atom_site_symmetry_multiplicity
 _atom_site_fract_x
 _atom_site_fract_y
 _atom_site_fract_z
 _atom_site_occupancy
  Mg  Mg0_0  1  0.13658800  0.37116350  0.44163950  1
  Mg  Mg0_1  1  0.13658800  0.37116350  0.94163950  1
  Mg  Mg0_2  1  0.13658800  0.87116350  0.44163950  1
  Mg  Mg0_3  1  0.13658800  0.87116350  0.94163950  1
  Mg  Mg0_4  1  0.63658800  0.37116350  0.44163950  1
  Mg  Mg0_5  1  0.63658800  0.37116350  0.94163950  1
  Mg  Mg0_6  1  0.63658800  0.87116350  0.44163950  1
  Mg  Mg0_7  1  0.63658800  0.87116350  0.94163950  1
  Mo  Mo0_0  1  0.16669700  0.33339000  0.04668400  1
  Mo  Mo0_1  1  0.16669700  0.33339000  0.54668400  1
  Mo  Mo0_2  1  0.16669700  0.83339000  0.04668400  1
  Mo  Mo0_3  1  0.16669700  0.83339000  0.54668400  1
  Mo  Mo0_4  1  0.66669700  0.33339000  0.04668400  1
  Mo  Mo0_5  1  0.66669700  0.33339000  0.54668400  1
  Mo  Mo0_6  1  0.66669700  0.83339000  0.04668400  1
  Mo  Mo0_7  1  0.66669700  0.83339000  0.54668400  1
  Mo  Mo1_0  1  0.33331150  0.16662100  0.14087650  1
  Mo  Mo1_1  1  0.33331150  0.16662100  0.64087650  1
  Mo  Mo1_2  1  0.33331150  0.66662100  0.14087650  1
  Mo  Mo1_3  1  0.33331150  0.66662100  0.64087650  1
  Mo  Mo1_4  1  0.83331150  0.16662100  0.14087650  1
  Mo  Mo1_5  1  0.83331150  0.16662100  0.64087650  1
  Mo  Mo1_6  1  0.83331150  0.66662100  0.14087650  1
  Mo  Mo1_7  1  0.83331150  0.66662100  0.64087650  1
  Mo  Mo2_0  1  0.33329750  0.16659300  0.32932900  1
  Mo  Mo2_1  1  0.33329750  0.16659300  0.82932900  1
  Mo  Mo2_2  1  0.33329750  0.66659300  0.32932900  1
  Mo  Mo2_3  1  0.33329750  0.66659300  0.82932900  1
  Mo  Mo2_4  1  0.83329750  0.16659300  0.32932900  1
  Mo  Mo2_5  1  0.83329750  0.16659300  0.82932900  1
  Mo  Mo2_6  1  0.83329750  0.66659300  0.32932900  1
  Mo  Mo2_7  1  0.83329750  0.66659300  0.82932900  1
  W  W0_0  1  0.16669600  0.33338950  0.23457700  1
  W  W0_1  1  0.16669600  0.33338950  0.73457700  1
  W  W0_2  1  0.16669600  0.83338950  0.23457700  1
  W  W0_3  1  0.16669600  0.83338950  0.73457700  1
  W  W0_4  1  0.66669600  0.33338950  0.23457700  1
  W  W0_5  1  0.66669600  0.33338950  0.73457700  1
  W  W0_6  1  0.66669600  0.83338950  0.23457700  1
  W  W0_7  1  0.66669600  0.83338950  0.73457700  1
  Se  Se0_0  1  0.16662300  0.33324650  0.35236000  1
  Se  Se0_1  1  0.16662300  0.33324650  0.85236000  1
  Se  Se0_2  1  0.16662300  0.83324650  0.35236000  1
  Se  Se0_3  1  0.16662300  0.83324650  0.85236000  1
  Se  Se0_4  1  0.66662300  0.33324650  0.35236000  1
  Se  Se0_5  1  0.66662300  0.33324650  0.85236000  1
  Se  Se0_6  1  0.66662300  0.83324650  0.35236000  1
  Se  Se0_7  1  0.66662300  0.83324650  0.85236000  1
  Se  Se1_0  1  0.16664400  0.33328450  0.30627650  1
  Se  Se1_1  1  0.16664400  0.33328450  0.80627650  1
  Se  Se1_2  1  0.16664400  0.83328450  0.30627650  1
  Se  Se1_3  1  0.16664400  0.83328450  0.80627650  1
  Se  Se1_4  1  0.66664400  0.33328450  0.30627650  1
  Se  Se1_5  1  0.66664400  0.33328450  0.80627650  1
  Se  Se1_6  1  0.66664400  0.83328450  0.30627650  1
  Se  Se1_7  1  0.66664400  0.83328450  0.80627650  1
  S  S0_0  1  0.16663850  0.33327650  0.16180650  1
  S  S0_1  1  0.16663850  0.33327650  0.66180650  1
  S  S0_2  1  0.16663850  0.83327650  0.16180650  1
  S  S0_3  1  0.16663850  0.83327650  0.66180650  1
  S  S0_4  1  0.66663850  0.33327650  0.16180650  1
  S  S0_5  1  0.66663850  0.33327650  0.66180650  1
  S  S0_6  1  0.66663850  0.83327650  0.16180650  1
  S  S0_7  1  0.66663850  0.83327650  0.66180650  1
  S  S1_0  1  0.33336000  0.16671750  0.02578500  1
  S  S1_1  1  0.33336000  0.16671750  0.52578500  1
  S  S1_2  1  0.33336000  0.66671750  0.02578500  1
  S  S1_3  1  0.33336000  0.66671750  0.52578500  1
  S  S1_4  1  0.83336000  0.16671750  0.02578500  1
  S  S1_5  1  0.83336000  0.16671750  0.52578500  1
  S  S1_6  1  0.83336000  0.66671750  0.02578500  1
  S  S1_7  1  0.83336000  0.66671750  0.52578500  1
  S  S2_0  1  0.33335750  0.16671100  0.21354750  1
  S  S2_1  1  0.33335750  0.16671100  0.71354750  1
  S  S2_2  1  0.33335750  0.66671100  0.21354750  1
  S  S2_3  1  0.33335750  0.66671100  0.71354750  1
  S  S2_4  1  0.83335750  0.16671100  0.21354750  1
  S  S2_5  1  0.83335750  0.16671100  0.71354750  1
  S  S2_6  1  0.83335750  0.66671100  0.21354750  1
  S  S2_7  1  0.83335750  0.66671100  0.71354750  1
  S  S3_0  1  0.33336650  0.16673100  0.06760650  1
  S  S3_1  1  0.33336650  0.16673100  0.56760650  1
  S  S3_2  1  0.33336650  0.66673100  0.06760650  1
  S  S3_3  1  0.33336650  0.66673100  0.56760650  1
  S  S3_4  1  0.83336650  0.16673100  0.06760650  1
  S  S3_5  1  0.83336650  0.16673100  0.56760650  1
  S  S3_6  1  0.83336650  0.66673100  0.06760650  1
  S  S3_7  1  0.83336650  0.66673100  0.56760650  1
  S  S4_0  1  0.33337200  0.16674150  0.25559750  1
  S  S4_1  1  0.33337200  0.16674150  0.75559750  1
  S  S4_2  1  0.33337200  0.66674150  0.25559750  1
  S  S4_3  1  0.33337200  0.66674150  0.75559750  1
  S  S4_4  1  0.83337200  0.16674150  0.25559750  1
  S  S4_5  1  0.83337200  0.16674150  0.75559750  1
  S  S4_6  1  0.83337200  0.66674150  0.25559750  1
  S  S4_7  1  0.83337200  0.66674150  0.75559750  1
  S  S5_0  1  0.16664850  0.33329150  0.11994250  1
  S  S5_1  1  0.16664850  0.33329150  0.61994250  1
  S  S5_2  1  0.16664850  0.83329150  0.11994250  1
  S  S5_3  1  0.16664850  0.83329150  0.61994250  1
  S  S5_4  1  0.66664850  0.33329150  0.11994250  1
  S  S5_5  1  0.66664850  0.33329150  0.61994250  1
  S  S5_6  1  0.66664850  0.83329150  0.11994250  1
  S  S5_7  1  0.66664850  0.83329150  0.61994250  1
loop_
_geom_bond_atom_site_label_1
_geom_bond_atom_site_label_2
_geom_bond_distance
_geom_bond_site_symmetry_2
Mg0_0 Mg0_6 3.218130 1_445
Mg0_0 Mg0_6 3.218130 1_555
Mg0_0 Mg0_2 3.218131 1_545
Mg0_0 Mg0_2 3.218131 1_555
Mg0_0 Mg0_4 3.218163 1_455
Mg0_0 Mg0_4 3.218163 1_555
Mg0_1 Mg0_7 3.218130 1_445
Mg0_1 Mg0_7 3.218130 1_555
Mg0_1 Mg0_3 3.218131 1_545
Mg0_1 Mg0_3 3.218131 1_555
Mg0_1 Mg0_5 3.218163 1_555
Mg0_1 Mg0_5 3.218163 1_455
Mg0_2 Mg0_4 3.218130 1_565
Mg0_2 Mg0_4 3.218130 1_455
Mg0_2 Mg0_6 3.218163 1_555
Mg0_2 Mg0_6 3.218163 1_455
Mg0_3 Mg0_5 3.218130 1_565
Mg0_3 Mg0_5 3.218130 1_455
Mg0_3 Mg0_7 3.218163 1_555
Mg0_3 Mg0_7 3.218163 1_455
Mg0_4 Mg0_6 3.218131 1_545
Mg0_4 Mg0_6 3.218131 1_555
Mg0_5 Mg0_7 3.218131 1_545
Mg0_5 Mg0_7 3.218131 1_555
Mo0_0 S1_2 2.421055 1_555
Mo0_0 S1_0 2.421120 1_555
Mo0_0 S1_4 2.421122 1_455
Mo0_0 S3_0 2.422196 1_555
Mo0_0 S3_4 2.422208 1_455
Mo0_0 S3_2 2.422251 1_555
Mo0_1 S1_3 2.421055 1_555
Mo0_1 S1_1 2.421120 1_555
Mo0_1 S1_5 2.421122 1_455
Mo0_1 S3_1 2.422196 1_555
Mo0_1 S3_5 2.422208 1_455
Mo0_1 S3_3 2.422251 1_555
Mo0_2 S1_0 2.421055 1_565
Mo0_2 S1_2 2.421120 1_555
Mo0_2 S1_6 2.421122 1_455
Mo0_2 S3_2 2.422196 1_555
Mo0_2 S3_6 2.422208 1_455
Mo0_2 S3_0 2.422251 1_565
Mo0_3 S1_1 2.421055 1_565
Mo0_3 S1_3 2.421120 1_555
Mo0_3 S1_7 2.421122 1_455
Mo0_3 S3_3 2.422196 1_555
Mo0_3 S3_7 2.422208 1_455
Mo0_3 S3_1 2.422251 1_565
Mo0_4 S1_6 2.421055 1_555
Mo0_4 S1_4 2.421120 1_555
Mo0_4 S1_0 2.421122 1_555
Mo0_4 S3_4 2.422196 1_555
Mo0_4 S3_0 2.422208 1_555
Mo0_4 S3_6 2.422251 1_555
Mo0_5 S1_7 2.421055 1_555
Mo0_5 S1_5 2.421120 1_555
Mo0_5 S1_1 2.421122 1_555
Mo0_5 S3_5 2.422196 1_555
Mo0_5 S3_1 2.422208 1_555
Mo0_5 S3_7 2.422251 1_555
Mo0_6 S1_4 2.421055 1_565
Mo0_6 S1_6 2.421120 1_555
Mo0_6 S1_2 2.421122 1_555
Mo0_6 S3_6 2.422196 1_555
Mo0_6 S3_2 2.422208 1_555
Mo0_6 S3_4 2.422251 1_565
Mo0_7 S1_5 2.421055 1_565
Mo0_7 S1_7 2.421120 1_555
Mo0_7 S1_3 2.421122 1_555
Mo0_7 S3_7 2.422196 1_555
Mo0_7 S3_3 2.422208 1_555
Mo0_7 S3_5 2.422251 1_565
Mo1_0 S0_4 2.422556 1_555
Mo1_0 S0_0 2.422567 1_555
Mo1_0 S0_2 2.422605 1_545
Mo1_0 S5_2 2.422750 1_545
Mo1_0 S5_0 2.422766 1_555
Mo1_0 S5_4 2.422784 1_555
Mo1_1 S0_5 2.422556 1_555
Mo1_1 S0_1 2.422567 1_555
Mo1_1 S0_3 2.422605 1_545
Mo1_1 S5_3 2.422750 1_545
Mo1_1 S5_1 2.422766 1_555
Mo1_1 S5_5 2.422784 1_555
Mo1_2 S0_6 2.422556 1_555
Mo1_2 S0_2 2.422567 1_555
Mo1_2 S0_0 2.422605 1_555
Mo1_2 S5_0 2.422750 1_555
Mo1_2 S5_2 2.422766 1_555
Mo1_2 S5_6 2.422784 1_555
Mo1_3 S0_7 2.422556 1_555
Mo1_3 S0_3 2.422567 1_555
Mo1_3 S0_1 2.422605 1_555
Mo1_3 S5_1 2.422750 1_555
Mo1_3 S5_3 2.422766 1_555
Mo1_3 S5_7 2.422784 1_555
Mo1_4 S0_0 2.422556 1_655
Mo1_4 S0_4 2.422567 1_555
Mo1_4 S0_6 2.422605 1_545
Mo1_4 S5_6 2.422750 1_545
Mo1_4 S5_4 2.422766 1_555
Mo1_4 S5_0 2.422784 1_655
Mo1_5 S0_1 2.422556 1_655
Mo1_5 S0_5 2.422567 1_555
Mo1_5 S0_7 2.422605 1_545
Mo1_5 S5_7 2.422750 1_545
Mo1_5 S5_5 2.422766 1_555
Mo1_5 S5_1 2.422784 1_655
Mo1_6 S0_2 2.422556 1_655
Mo1_6 S0_6 2.422567 1_555
Mo1_6 S0_4 2.422605 1_555
Mo1_6 S5_4 2.422750 1_555
Mo1_6 S5_6 2.422766 1_555
Mo1_6 S5_2 2.422784 1_655
Mo1_7 S0_3 2.422556 1_655
Mo1_7 S0_7 2.422567 1_555
Mo1_7 S0_5 2.422605 1_555
Mo1_7 S5_5 2.422750 1_555
Mo1_7 S5_7 2.422766 1_555
Mo1_7 S5_3 2.422784 1_655
Mo2_0 Se0_4 2.525529 1_555
Mo2_0 Se0_0 2.525543 1_555
Mo2_0 Se0_2 2.525588 1_545
Mo2_0 Se1_2 2.526534 1_545
Mo2_0 Se1_0 2.526681 1_555
Mo2_0 Se1_4 2.526691 1_555
Mo2_1 Se0_5 2.525529 1_555
Mo2_1 Se0_1 2.525543 1_555
Mo2_1 Se0_3 2.525588 1_545
Mo2_1 Se1_3 2.526534 1_545
Mo2_1 Se1_1 2.526681 1_555
Mo2_1 Se1_5 2.526691 1_555
Mo2_2 Se0_6 2.525529 1_555
Mo2_2 Se0_2 2.525543 1_555
Mo2_2 Se0_0 2.525588 1_555
Mo2_2 Se1_0 2.526534 1_555
Mo2_2 Se1_2 2.526681 1_555
Mo2_2 Se1_6 2.526691 1_555
Mo2_3 Se0_7 2.525529 1_555
Mo2_3 Se0_3 2.525543 1_555
Mo2_3 Se0_1 2.525588 1_555
Mo2_3 Se1_1 2.526534 1_555
Mo2_3 Se1_3 2.526681 1_555
Mo2_3 Se1_7 2.526691 1_555
Mo2_4 Se0_0 2.525529 1_655
Mo2_4 Se0_4 2.525543 1_555
Mo2_4 Se0_6 2.525588 1_545
Mo2_4 Se1_6 2.526534 1_545
Mo2_4 Se1_4 2.526681 1_555
Mo2_4 Se1_0 2.526691 1_655
Mo2_5 Se0_1 2.525529 1_655
Mo2_5 Se0_5 2.525543 1_555
Mo2_5 Se0_7 2.525588 1_545
Mo2_5 Se1_7 2.526534 1_545
Mo2_5 Se1_5 2.526681 1_555
Mo2_5 Se1_1 2.526691 1_655
Mo2_6 Se0_2 2.525529 1_655
Mo2_6 Se0_6 2.525543 1_555
Mo2_6 Se0_4 2.525588 1_555
Mo2_6 Se1_4 2.526534 1_555
Mo2_6 Se1_6 2.526681 1_555
Mo2_6 Se1_2 2.526691 1_655
Mo2_7 Se0_3 2.525529 1_655
Mo2_7 Se0_7 2.525543 1_555
Mo2_7 Se0_5 2.525588 1_555
Mo2_7 Se1_5 2.526534 1_555
Mo2_7 Se1_7 2.526681 1_555
Mo2_7 Se1_3 2.526691 1_655
S2_0 W0_2 2.427256 1_545
S2_0 W0_4 2.427355 1_555
S2_0 W0_0 2.427365 1_555
S2_1 W0_3 2.427256 1_545
S2_1 W0_5 2.427355 1_555
S2_1 W0_1 2.427365 1_555
S2_2 W0_0 2.427256 1_555
S2_2 W0_6 2.427355 1_555
S2_2 W0_2 2.427365 1_555
S2_3 W0_1 2.427256 1_555
S2_3 W0_7 2.427355 1_555
S2_3 W0_3 2.427365 1_555
S2_4 W0_6 2.427256 1_545
S2_4 W0_0 2.427355 1_655
S2_4 W0_4 2.427365 1_555
S2_5 W0_7 2.427256 1_545
S2_5 W0_1 2.427355 1_655
S2_5 W0_5 2.427365 1_555
S2_6 W0_4 2.427256 1_555
S2_6 W0_2 2.427355 1_655
S2_6 W0_6 2.427365 1_555
S2_7 W0_5 2.427256 1_555
S2_7 W0_3 2.427355 1_655
S2_7 W0_7 2.427365 1_555
S4_0 W0_0 2.426854 1_555
S4_0 W0_4 2.426857 1_555
S4_0 W0_2 2.426975 1_545
S4_1 W0_1 2.426854 1_555
S4_1 W0_5 2.426857 1_555
S4_1 W0_3 2.426975 1_545
S4_2 W0_2 2.426854 1_555
S4_2 W0_6 2.426857 1_555
S4_2 W0_0 2.426975 1_555
S4_3 W0_3 2.426854 1_555
S4_3 W0_7 2.426857 1_555
S4_3 W0_1 2.426975 1_555
S4_4 W0_4 2.426854 1_555
S4_4 W0_0 2.426857 1_655
S4_4 W0_6 2.426975 1_545
S4_5 W0_5 2.426854 1_555
S4_5 W0_1 2.426857 1_655
S4_5 W0_7 2.426975 1_545
S4_6 W0_6 2.426854 1_555
S4_6 W0_2 2.426857 1_655
S4_6 W0_4 2.426975 1_555
S4_7 W0_7 2.426854 1_555
S4_7 W0_3 2.426857 1_655
S4_7 W0_5 2.426975 1_555
