# generated using pymatgen
data_AuBr3N2
_symmetry_space_group_name_H-M   'P 1'
_cell_length_a   5.87011921
_cell_length_b   5.87011921
_cell_length_c   5.88019352
_cell_angle_alpha   60.24156965
_cell_angle_beta   60.24156965
_cell_angle_gamma   76.49519578
_symmetry_Int_Tables_number   1
_chemical_formula_structural   AuBr3N2
_chemical_formula_sum   'Au1 Br3 N2'
_cell_volume   152.68199695
_cell_formula_units_Z   1
loop_
 _symmetry_equiv_pos_site_id
 _symmetry_equiv_pos_as_xyz
  1  'x, y, z'
loop_
 _atom_site_type_symbol
 _atom_site_label
 _atom_site_symmetry_multiplicity
 _atom_site_fract_x
 _atom_site_fract_y
 _atom_site_fract_z
 _atom_site_occupancy
  Au  Au0  1  -0.00000000  -0.00000000  0.00000000  1
  Br  Br0  1  0.50000000  0.50000000  0.50000000  1
  Br  Br1  1  0.24916847  0.24916847  0.28646497  1
  Br  Br2  1  0.75083153  0.75083153  0.71353503  1
  N  N0  1  0.23496969  0.23496969  0.61326196  1
  N  N1  1  0.76503031  0.76503031  0.38673804  1
loop_
_geom_bond_atom_site_label_1
_geom_bond_atom_site_label_2
_geom_bond_distance
_geom_bond_site_symmetry_2
Au0 N0 1.907236 1_554
Au0 N1 1.907236 1_445
Br0 N1 2.087501 1_555
Br0 N0 2.087501 1_555
Br1 N0 1.841687 1_555
Br2 N1 1.841687 1_555
