# generated using pymatgen
data_NdSBr
_symmetry_space_group_name_H-M   'P 1'
_cell_length_a   6.98121866
_cell_length_b   7.05361528
_cell_length_c   7.09214152
_cell_angle_alpha   90.00000000
_cell_angle_beta   90.00000000
_cell_angle_gamma   99.90695663
_symmetry_Int_Tables_number   1
_chemical_formula_structural   NdSBr
_chemical_formula_sum   'Nd4 S4 Br4'
_cell_volume   344.02945457
_cell_formula_units_Z   4
loop_
 _symmetry_equiv_pos_site_id
 _symmetry_equiv_pos_as_xyz
  1  'x, y, z'
loop_
 _atom_site_type_symbol
 _atom_site_label
 _atom_site_symmetry_multiplicity
 _atom_site_fract_x
 _atom_site_fract_y
 _atom_site_fract_z
 _atom_site_occupancy
  Nd  Nd0  1  0.70938171  0.31838059  0.96533777  1
  Nd  Nd1  1  0.79061829  0.68161941  0.46533777  1
  Nd  Nd2  1  0.29061829  0.68161941  0.03466223  1
  Nd  Nd3  1  0.20938171  0.31838059  0.53466223  1
  S  S0  1  0.99139721  0.44826599  0.24132675  1
  S  S1  1  0.49139721  0.44826599  0.25867325  1
  S  S2  1  0.00860279  0.55173401  0.75867325  1
  S  S3  1  0.50860279  0.55173401  0.74132675  1
  Br  Br0  1  0.20671815  0.91848251  0.37898866  1
  Br  Br1  1  0.70671815  0.91848251  0.12101134  1
  Br  Br2  1  0.79328185  0.08151749  0.62101134  1
  Br  Br3  1  0.29328185  0.08151749  0.87898866  1
loop_
_geom_bond_atom_site_label_1
_geom_bond_atom_site_label_2
_geom_bond_distance
_geom_bond_site_symmetry_2
Nd0 S0 2.815340 1_556
Nd0 S1 2.821867 1_556
Nd0 S3 2.826992 1_555
Nd0 S2 2.835140 1_655
Nd1 S3 2.815340 1_555
Nd1 S2 2.821867 1_655
Nd1 S0 2.826992 1_555
Nd1 S1 2.835140 1_555
Nd2 S2 2.815340 1_554
Nd2 S3 2.821867 1_554
Nd2 S1 2.826992 1_555
Nd2 S0 2.835140 1_455
Nd3 S1 2.815340 1_555
Nd3 S0 2.821867 1_455
Nd3 S2 2.826992 1_555
Nd3 S3 2.835140 1_555
Br0 Nd3 3.026177 1_565
Br0 Nd2 3.071580 1_555
Br0 Nd1 3.151944 1_455
Br1 Nd0 3.026177 1_564
Br1 Nd1 3.071580 1_555
Br1 Nd2 3.151944 1_555
Br2 Nd1 3.026177 1_545
Br2 Nd0 3.071580 1_555
Br2 Nd3 3.151944 1_655
Br3 Nd2 3.026177 1_546
Br3 Nd3 3.071580 1_555
Br3 Nd0 3.151944 1_555
