# generated using pymatgen
data_MgTi2(OF2)2
_symmetry_space_group_name_H-M   'P 1'
_cell_length_a   3.88969900
_cell_length_b   3.88969900
_cell_length_c   8.00472700
_cell_angle_alpha   90.00000000
_cell_angle_beta   90.00000000
_cell_angle_gamma   90.00000000
_symmetry_Int_Tables_number   1
_chemical_formula_structural   MgTi2(OF2)2
_chemical_formula_sum   'Mg1 Ti2 O2 F4'
_cell_volume   121.10958485
_cell_formula_units_Z   1
loop_
 _symmetry_equiv_pos_site_id
 _symmetry_equiv_pos_as_xyz
  1  'x, y, z'
loop_
 _atom_site_type_symbol
 _atom_site_label
 _atom_site_symmetry_multiplicity
 _atom_site_fract_x
 _atom_site_fract_y
 _atom_site_fract_z
 _atom_site_occupancy
  Mg  Mg0  1  0.50000000  0.50000000  0.75000000  1
  Ti  Ti0  1  0.00000000  0.00000000  0.00227300  1
  Ti  Ti1  1  0.00000000  0.00000000  0.49772700  1
  O  O0  1  0.50000000  0.00000000  0.93546500  1
  O  O1  1  0.00000000  0.50000000  0.56453500  1
  F  F0  1  0.50000000  0.00000000  0.51359200  1
  F  F1  1  0.00000000  0.50000000  0.98640800  1
  F  F2  1  0.00000000  0.00000000  0.25000000  1
  F  F3  1  0.00000000  0.00000000  0.75000000  1
loop_
_geom_bond_atom_site_label_1
_geom_bond_atom_site_label_2
_geom_bond_distance
_geom_bond_site_symmetry_2
Mg0 O1 2.446726 1_555
Mg0 O0 2.446726 1_555
Mg0 O0 2.446726 1_565
Mg0 O1 2.446726 1_655
O0 Ti0 2.017035 1_656
O0 Ti0 2.017035 1_556
O1 Ti1 2.017035 1_565
O1 Ti1 2.017035 1_555
F0 Ti1 1.948991 1_555
F0 Ti1 1.948991 1_655
F1 Ti0 1.948991 1_556
F1 Ti0 1.948991 1_566
F2 Ti1 1.982987 1_555
F2 Ti0 1.982987 1_555
F3 Ti0 2.019376 1_556
F3 Ti1 2.019376 1_555
