# generated using pymatgen
data_MgCo6(O2F)4
_symmetry_space_group_name_H-M   'P 1'
_cell_length_a   8.24169104
_cell_length_b   5.88663918
_cell_length_c   5.81650119
_cell_angle_alpha   64.38268322
_cell_angle_beta   62.61819883
_cell_angle_gamma   61.83856409
_symmetry_Int_Tables_number   1
_chemical_formula_structural   MgCo6(O2F)4
_chemical_formula_sum   'Mg1 Co6 O8 F4'
_cell_volume   212.39464545
_cell_formula_units_Z   1
loop_
 _symmetry_equiv_pos_site_id
 _symmetry_equiv_pos_as_xyz
  1  'x, y, z'
loop_
 _atom_site_type_symbol
 _atom_site_label
 _atom_site_symmetry_multiplicity
 _atom_site_fract_x
 _atom_site_fract_y
 _atom_site_fract_z
 _atom_site_occupancy
  Mg  Mg0  1  0.49958610  0.49590011  0.00511945  1
  Co  Co0  1  0.87992995  0.67655164  0.67024092  1
  Co  Co1  1  0.32816193  0.63932920  0.61553416  1
  Co  Co2  1  0.69080925  0.33278407  0.35474923  1
  Co  Co3  1  0.11490351  0.30993557  0.31150586  1
  Co  Co4  1  0.50232479  0.00052445  0.99852259  1
  Co  Co5  1  0.00899390  0.00455230  0.00425621  1
  O  O0  1  0.32712379  0.36366536  0.97218821  1
  O  O1  1  0.68429391  0.02549386  0.64439095  1
  O  O2  1  0.95940607  0.22505314  0.23191320  1
  O  O3  1  0.41925650  0.42811724  0.41270917  1
  O  O4  1  0.32041976  0.97728066  0.34822285  1
  O  O5  1  0.67807796  0.63201620  0.02899957  1
  O  O6  1  0.00964603  0.30172085  0.67846156  1
  O  O7  1  -0.00200462  0.67862990  0.29900964  1
  F  F0  1  0.60358791  0.57168337  0.60096990  1
  F  F1  1  0.31191881  0.86415831  0.91392074  1
  F  F2  1  0.04003847  0.76802795  0.75979375  1
  F  F3  1  0.69759997  0.12957580  0.07449204  1
loop_
_geom_bond_atom_site_label_1
_geom_bond_atom_site_label_2
_geom_bond_distance
_geom_bond_site_symmetry_2
Mg0 O0 2.021555 1_554
Mg0 O3 2.050754 1_555
Mg0 O5 2.054795 1_555
Co0 O7 1.914461 1_655
Co0 O1 1.916084 1_565
Co0 O6 1.934684 1_655
Co0 F2 1.961643 1_655
Co0 O5 1.983971 1_556
Co1 O3 1.753237 1_555
Co1 O4 1.917282 1_555
Co1 F2 1.983848 1_555
Co1 O0 2.005657 1_555
Co1 F0 2.077884 1_555
Co1 F1 2.527257 1_555
Co2 O2 1.850654 1_555
Co2 O1 1.867223 1_555
Co2 O3 1.929123 1_555
Co2 O5 1.956064 1_555
Co2 F0 2.094248 1_555
Co2 F3 2.372845 1_555
Co3 O2 1.859196 1_455
Co3 O6 1.886197 1_555
Co3 O4 1.894596 1_545
Co3 O7 1.896908 1_555
Co3 O0 1.965095 1_554
Co4 O4 1.884573 1_546
Co4 O1 1.902199 1_555
Co4 O0 1.919596 1_555
Co4 O5 1.942431 1_546
Co4 F3 2.336878 1_556
Co4 F1 2.364336 1_545
Co5 O6 1.945290 1_554
Co5 O7 1.950739 1_545
Co5 O2 2.023120 1_455
Co5 F1 2.100816 1_544
Co5 F3 2.192656 1_455
Co5 F2 2.250987 1_544
F0 Mg0 2.015042 1_556
F1 Mg0 1.992101 1_556
F3 Mg0 2.001938 1_555
