# generated using pymatgen
data_SrIF
_symmetry_space_group_name_H-M   'P 1'
_cell_length_a   4.27610854
_cell_length_b   4.27610854
_cell_length_c   8.97879985
_cell_angle_alpha   90.00000000
_cell_angle_beta   90.00000000
_cell_angle_gamma   90.00000000
_symmetry_Int_Tables_number   1
_chemical_formula_structural   SrIF
_chemical_formula_sum   'Sr2 I2 F2'
_cell_volume   164.17829126
_cell_formula_units_Z   2
loop_
 _symmetry_equiv_pos_site_id
 _symmetry_equiv_pos_as_xyz
  1  'x, y, z'
loop_
 _atom_site_type_symbol
 _atom_site_label
 _atom_site_symmetry_multiplicity
 _atom_site_fract_x
 _atom_site_fract_y
 _atom_site_fract_z
 _atom_site_occupancy
  Sr  Sr0  1  0.25000000  0.25000000  0.14782338  1
  Sr  Sr1  1  0.75000000  0.75000000  0.85217662  1
  I  I0  1  0.25000000  0.25000000  0.67335529  1
  I  I1  1  0.75000000  0.75000000  0.32664471  1
  F  F0  1  0.25000000  0.75000000  0.00000000  1
  F  F1  1  0.75000000  0.25000000  0.00000000  1
loop_
_geom_bond_atom_site_label_1
_geom_bond_atom_site_label_2
_geom_bond_distance
_geom_bond_site_symmetry_2
I0 Sr1 3.423523 1_555
I0 Sr1 3.423523 1_545
I0 Sr1 3.423523 1_445
I0 Sr1 3.423523 1_455
I1 Sr0 3.423523 1_565
I1 Sr0 3.423523 1_665
I1 Sr0 3.423523 1_555
I1 Sr0 3.423523 1_655
F0 Sr1 2.516533 1_454
F0 Sr1 2.516533 1_554
F0 Sr0 2.516533 1_555
F0 Sr0 2.516533 1_565
F1 Sr1 2.516533 1_554
F1 Sr1 2.516533 1_544
F1 Sr0 2.516533 1_555
F1 Sr0 2.516533 1_655
