# generated using pymatgen
data_MgTe4Mo3W(SeS)2
_symmetry_space_group_name_H-M   'P 1'
_cell_length_a   3.40278501
_cell_length_b   3.40283364
_cell_length_c   45.19333706
_cell_angle_alpha   90.00097152
_cell_angle_beta   89.99420940
_cell_angle_gamma   120.00034931
_symmetry_Int_Tables_number   1
_chemical_formula_structural   MgTe4Mo3W(SeS)2
_chemical_formula_sum   'Mg1 Te4 Mo3 W1 Se2 S2'
_cell_volume   453.18835147
_cell_formula_units_Z   1
loop_
 _symmetry_equiv_pos_site_id
 _symmetry_equiv_pos_as_xyz
  1  'x, y, z'
loop_
 _atom_site_type_symbol
 _atom_site_label
 _atom_site_symmetry_multiplicity
 _atom_site_fract_x
 _atom_site_fract_y
 _atom_site_fract_z
 _atom_site_occupancy
  Mg  Mg0  1  0.99990800  0.00021700  0.19930800  1
  Te  Te0  1  0.33325500  0.66667200  0.69930200  1
  Te  Te1  1  0.66674300  0.33339000  0.04599700  1
  Te  Te2  1  0.66662400  0.33337300  0.12898600  1
  Te  Te3  1  0.33337000  0.66669800  0.61593100  1
  Mo  Mo0  1  0.33335900  0.66671600  0.08730300  1
  Mo  Mo1  1  0.33335300  0.66651900  0.46963600  1
  Mo  Mo2  1  0.66668200  0.33334000  0.28858000  1
  W  W0  1  0.66663900  0.33335200  0.65762200  1
  Se  Se0  1  0.66675400  0.33322500  0.43317500  1
  Se  Se1  1  0.66660600  0.33314200  0.50608300  1
  S  S0  1  0.33330300  0.66666200  0.32145400  1
  S  S1  1  0.33340200  0.66669200  0.25502300  1
loop_
_geom_bond_atom_site_label_1
_geom_bond_atom_site_label_2
_geom_bond_distance
_geom_bond_site_symmetry_2
Te0 W0 2.721721 1_565
Te0 W0 2.721730 1_555
Te0 W0 2.721763 1_455
Te3 W0 2.722061 1_455
Te3 W0 2.722070 1_555
Te3 W0 2.722116 1_565
Mo0 Te1 2.710039 1_565
Mo0 Te1 2.710073 1_555
Mo0 Te1 2.710092 1_455
Mo0 Te2 2.721805 1_555
Mo0 Te2 2.721819 1_455
Mo0 Te2 2.721872 1_565
Mo1 Se1 2.563712 1_565
Mo1 Se1 2.563762 1_555
Mo1 Se1 2.563786 1_455
Mo1 Se0 2.564129 1_455
Mo1 Se0 2.564143 1_555
Mo1 Se0 2.564208 1_565
Mo2 S0 2.463108 1_545
Mo2 S0 2.463124 1_655
Mo2 S0 2.463124 1_555
Mo2 S1 2.481841 1_655
Mo2 S1 2.481865 1_555
Mo2 S1 2.481870 1_545
