# generated using pymatgen
data_Na3MgAlP2SO12
_symmetry_space_group_name_H-M   'P 1'
_cell_length_a   8.80537789
_cell_length_b   8.74069526
_cell_length_c   21.64587641
_cell_angle_alpha   91.09757086
_cell_angle_beta   90.00000000
_cell_angle_gamma   120.24509911
_symmetry_Int_Tables_number   1
_chemical_formula_structural   Na3MgAlP2SO12
_chemical_formula_sum   'Na18 Mg6 Al6 P12 S6 O72'
_cell_volume   1438.84852723
_cell_formula_units_Z   6
loop_
 _symmetry_equiv_pos_site_id
 _symmetry_equiv_pos_as_xyz
  1  'x, y, z'
loop_
 _atom_site_type_symbol
 _atom_site_label
 _atom_site_symmetry_multiplicity
 _atom_site_fract_x
 _atom_site_fract_y
 _atom_site_fract_z
 _atom_site_occupancy
  Na  Na0  1  0.35956003  0.35526412  0.24703008  1
  Na  Na1  1  0.99599103  0.63225072  0.24582167  1
  Na  Na2  1  0.63625969  0.63225072  0.74582167  1
  Na  Na3  1  0.99570409  0.35526412  0.74703008  1
  Na  Na4  1  0.02622703  0.68859712  0.58036308  1
  Na  Na5  1  0.66265803  0.96558372  0.57915467  1
  Na  Na6  1  0.30292669  0.96558372  0.07915467  1
  Na  Na7  1  0.66237109  0.68859712  0.08036308  1
  Na  Na8  1  0.69289303  0.02193112  0.91369708  1
  Na  Na9  1  0.32932403  0.29891772  0.91248867  1
  Na  Na10  1  0.96959269  0.29891772  0.41248867  1
  Na  Na11  1  0.32903709  0.02193112  0.41369708  1
  Na  Na12  1  0.98340900  0.98674151  0.49726285  1
  Na  Na13  1  0.00333251  0.98674151  0.99726285  1
  Na  Na14  1  0.65007600  0.32007451  0.83059585  1
  Na  Na15  1  0.66999951  0.32007451  0.33059585  1
  Na  Na16  1  0.31674200  0.65340851  0.16392985  1
  Na  Na17  1  0.33666551  0.65340851  0.66392985  1
  Mg  Mg0  1  0.99405806  0.99742264  0.35186757  1
  Mg  Mg1  1  0.00336458  0.99742264  0.85186757  1
  Mg  Mg2  1  0.66072506  0.33075564  0.68520057  1
  Mg  Mg3  1  0.67003158  0.33075564  0.18520057  1
  Mg  Mg4  1  0.32739106  0.66408964  0.01853457  1
  Mg  Mg5  1  0.33669758  0.66408964  0.51853457  1
  Al  Al0  1  0.99187614  0.01110562  0.64879141  1
  Al  Al1  1  0.01922947  0.01110562  0.14879141  1
  Al  Al2  1  0.65854314  0.34443862  0.98212441  1
  Al  Al3  1  0.68589647  0.34443862  0.48212441  1
  Al  Al4  1  0.32520914  0.67777262  0.31545841  1
  Al  Al5  1  0.35256247  0.67777262  0.81545841  1
  P  P0  1  0.29425075  0.99670632  0.25143574  1
  P  P1  1  0.00540665  0.29447065  0.25258657  1
  P  P2  1  0.28906400  0.29447065  0.75258657  1
  P  P3  1  0.70245557  0.99670632  0.75143574  1
  P  P4  1  0.96091775  0.33003932  0.58476874  1
  P  P5  1  0.67207365  0.62780365  0.58591957  1
  P  P6  1  0.95573100  0.62780365  0.08591957  1
  P  P7  1  0.36912257  0.33003932  0.08476874  1
  P  P8  1  0.62758375  0.66337332  0.91810274  1
  P  P9  1  0.33873965  0.96113765  0.91925357  1
  P  P10  1  0.62239700  0.96113765  0.41925357  1
  P  P11  1  0.03578857  0.66337332  0.41810274  1
  S  S0  1  0.70219142  0.71364202  0.24853605  1
  S  S1  1  0.01145060  0.71364202  0.74853605  1
  S  S2  1  0.36885842  0.04697502  0.58186905  1
  S  S3  1  0.67811760  0.04697502  0.08186905  1
  S  S4  1  0.03552442  0.38030902  0.91520305  1
  S  S5  1  0.34478360  0.38030902  0.41520305  1
  O  O0  1  0.21214072  0.02666744  0.30910930  1
  O  O1  1  0.81542127  0.79581289  0.30283328  1
  O  O2  1  0.98278155  0.19499430  0.31189968  1
  O  O3  1  0.21221275  0.19499430  0.81189968  1
  O  O4  1  0.98039162  0.79581289  0.80283328  1
  O  O5  1  0.81452671  0.02666744  0.80910930  1
  O  O6  1  0.78884207  0.96053149  0.69316452  1
  O  O7  1  0.16172761  0.19754617  0.69647858  1
  O  O8  1  0.03264040  0.81664612  0.69172214  1
  O  O9  1  0.78400572  0.81664612  0.19172214  1
  O  O10  1  0.03581857  0.19754617  0.19647858  1
  O  O11  1  0.17168943  0.96053149  0.19316452  1
  O  O12  1  0.87880772  0.36000044  0.64244230  1
  O  O13  1  0.48208827  0.12914589  0.63616628  1
  O  O14  1  0.64944855  0.52832730  0.64523268  1
  O  O15  1  0.87887975  0.52832730  0.14523268  1
  O  O16  1  0.64705862  0.12914589  0.13616628  1
  O  O17  1  0.48119371  0.36000044  0.14244230  1
  O  O18  1  0.45550907  0.29386449  0.02649752  1
  O  O19  1  0.82839461  0.53087917  0.02981158  1
  O  O20  1  0.69930740  0.14997912  0.02505514  1
  O  O21  1  0.45067272  0.14997912  0.52505514  1
  O  O22  1  0.70248557  0.53087917  0.52981158  1
  O  O23  1  0.83835643  0.29386449  0.52649752  1
  O  O24  1  0.54547372  0.69333444  0.97577630  1
  O  O25  1  0.14875427  0.46247989  0.96950028  1
  O  O26  1  0.31611455  0.86166130  0.97856668  1
  O  O27  1  0.54554575  0.86166130  0.47856668  1
  O  O28  1  0.31372462  0.46247989  0.46950028  1
  O  O29  1  0.14785971  0.69333444  0.47577630  1
  O  O30  1  0.12217507  0.62719849  0.35983152  1
  O  O31  1  0.49506061  0.86421317  0.36314558  1
  O  O32  1  0.36597340  0.48331312  0.35838914  1
  O  O33  1  0.11733872  0.48331312  0.85838914  1
  O  O34  1  0.36915157  0.86421317  0.86314558  1
  O  O35  1  0.50502243  0.62719849  0.85983152  1
  O  O36  1  0.01843207  0.82762209  0.41059759  1
  O  O37  1  0.80992800  0.99553341  0.41190103  1
  O  O38  1  0.18652421  0.19854648  0.41082257  1
  O  O39  1  0.01202227  0.19854648  0.91082257  1
  O  O40  1  0.18560541  0.99553341  0.91190103  1
  O  O41  1  0.80919003  0.82762209  0.91059759  1
  O  O42  1  0.97001336  0.15601143  0.58978914  1
  O  O43  1  0.19109884  0.02623354  0.58821707  1
  O  O44  1  0.84883189  0.81625104  0.59013317  1
  O  O45  1  0.96741914  0.81625104  0.09013317  1
  O  O46  1  0.83513470  0.02623354  0.08821707  1
  O  O47  1  0.18599807  0.15601143  0.08978914  1
  O  O48  1  0.68509907  0.16095509  0.74393059  1
  O  O49  1  0.47659500  0.32886641  0.74523403  1
  O  O50  1  0.85319121  0.53187948  0.74415557  1
  O  O51  1  0.67868927  0.53187948  0.24415557  1
  O  O52  1  0.85227241  0.32886641  0.24523403  1
  O  O53  1  0.47585703  0.16095509  0.24393059  1
  O  O54  1  0.63668036  0.48934443  0.92312214  1
  O  O55  1  0.85776584  0.35956654  0.92155007  1
  O  O56  1  0.51549889  0.14958404  0.92346617  1
  O  O57  1  0.63408614  0.14958404  0.42346617  1
  O  O58  1  0.50180170  0.35956654  0.42155007  1
  O  O59  1  0.85266507  0.48934443  0.42312214  1
  O  O60  1  0.35176507  0.49428909  0.07726459  1
  O  O61  1  0.14326100  0.66220041  0.07856803  1
  O  O62  1  0.51985721  0.86521348  0.07748957  1
  O  O63  1  0.34535527  0.86521348  0.57748957  1
  O  O64  1  0.51893841  0.66220041  0.57856803  1
  O  O65  1  0.14252303  0.49428909  0.57726459  1
  O  O66  1  0.30334636  0.82267843  0.25645614  1
  O  O67  1  0.52443184  0.69290054  0.25488407  1
  O  O68  1  0.18216489  0.48291804  0.25680017  1
  O  O69  1  0.30075214  0.48291804  0.75680017  1
  O  O70  1  0.16846770  0.69290054  0.75488407  1
  O  O71  1  0.51933107  0.82267843  0.75645614  1
loop_
_geom_bond_atom_site_label_1
_geom_bond_atom_site_label_2
_geom_bond_distance
_geom_bond_site_symmetry_2
Na0 O68 2.340168 1_555
Na0 O53 2.384415 1_555
Na0 O51 2.432487 1_555
Na0 O17 2.496590 1_555
Na0 O67 2.551593 1_555
Na0 O32 2.626631 1_555
Na0 O10 2.684657 1_555
Na0 O0 2.851665 1_555
Na1 O52 2.291653 1_555
Na1 O66 2.365426 1_655
Na1 O15 2.368522 1_555
Na1 O51 2.471168 1_555
Na1 O68 2.571984 1_655
Na1 O30 2.716679 1_655
Na1 O11 2.753061 1_655
Na1 O1 2.883958 1_555
Na2 O49 2.291653 1_555
Na2 O71 2.365433 1_555
Na2 O14 2.368524 1_555
Na2 O50 2.471176 1_555
Na2 O69 2.571992 1_555
Na2 O35 2.716682 1_555
Na2 O6 2.753061 1_555
Na2 O4 2.883958 1_555
Na3 O69 2.340160 1_655
Na3 O48 2.384408 1_555
Na3 O50 2.432479 1_555
Na3 O12 2.496586 1_555
Na3 O70 2.551593 1_655
Na3 O33 2.626629 1_655
Na3 O7 2.684657 1_655
Na3 O5 2.851665 1_555
Na4 O44 2.340168 1_455
Na4 O65 2.384400 1_555
Na4 O63 2.432479 1_555
Na4 O29 2.496565 1_555
Na4 O43 2.551593 1_565
Na4 O8 2.626631 1_555
Na4 O22 2.684657 1_455
Na4 O12 2.851665 1_455
Na5 O64 2.291646 1_555
Na5 O42 2.365426 1_565
Na5 O27 2.368503 1_555
Na5 O63 2.471178 1_555
Na5 O44 2.571984 1_555
Na5 O6 2.716679 1_555
Na5 O23 2.753061 1_565
Na5 O13 2.883958 1_565
Na6 O61 2.291646 1_555
Na6 O47 2.365433 1_565
Na6 O26 2.368499 1_554
Na6 O62 2.471161 1_555
Na6 O45 2.571992 1_455
Na6 O11 2.716682 1_555
Na6 O18 2.753061 1_565
Na6 O16 2.883958 1_565
Na7 O45 2.340160 1_555
Na7 O60 2.384414 1_555
Na7 O62 2.432494 1_555
Na7 O24 2.496572 1_554
Na7 O46 2.551593 1_565
Na7 O9 2.626629 1_555
Na7 O19 2.684657 1_555
Na7 O17 2.851665 1_555
Na8 O56 2.340151 1_555
Na8 O41 2.384415 1_545
Na8 O39 2.432487 1_655
Na8 O5 2.496590 1_555
Na8 O55 2.551585 1_555
Na8 O20 2.626606 1_556
Na8 O34 2.684657 1_545
Na8 O24 2.851665 1_545
Na9 O40 2.291653 1_545
Na9 O54 2.365430 1_555
Na9 O3 2.368522 1_555
Na9 O39 2.471168 1_555
Na9 O56 2.571997 1_555
Na9 O18 2.716665 1_556
Na9 O35 2.753061 1_555
Na9 O25 2.883958 1_555
Na10 O37 2.291653 1_545
Na10 O59 2.365416 1_555
Na10 O2 2.368524 1_555
Na10 O38 2.471176 1_655
Na10 O57 2.571981 1_555
Na10 O23 2.716657 1_555
Na10 O30 2.753061 1_655
Na10 O28 2.883958 1_655
Na11 O57 2.340167 1_555
Na11 O36 2.384408 1_545
Na11 O38 2.432479 1_555
Na11 O0 2.496586 1_555
Na11 O58 2.551585 1_555
Na11 O21 2.626610 1_555
Na11 O31 2.684657 1_545
Na11 O29 2.851665 1_545
Na12 O37 2.424288 1_555
Na12 O36 2.425031 1_655
Na12 O44 2.449875 1_555
Na12 O42 2.505292 1_565
Na12 O43 2.584133 1_665
Na12 O38 2.631383 1_665
Na13 O40 2.424288 1_555
Na13 O41 2.425031 1_455
Na13 O45 2.449875 1_456
Na13 O47 2.505292 1_566
Na13 O46 2.584133 1_466
Na13 O39 2.631383 1_565
Na14 O49 2.424288 1_555
Na14 O48 2.425031 1_555
Na14 O56 2.449875 1_555
Na14 O54 2.505292 1_555
Na14 O55 2.584133 1_555
Na14 O50 2.631383 1_555
Na15 O52 2.424288 1_555
Na15 O53 2.425031 1_555
Na15 O57 2.449875 1_555
Na15 O59 2.505292 1_555
Na15 O58 2.584133 1_555
Na15 O51 2.631383 1_555
Na16 O61 2.424288 1_555
Na16 O60 2.425031 1_555
Na16 O68 2.449875 1_555
Na16 O66 2.505292 1_555
Na16 O67 2.584133 1_555
Na16 O62 2.631383 1_555
Na17 O64 2.424288 1_555
Na17 O65 2.425031 1_555
Na17 O69 2.449875 1_555
Na17 O71 2.505292 1_555
Na17 O70 2.584133 1_555
Na17 O63 2.631383 1_555
Mg0 O1 1.960125 1_555
Mg0 O2 1.992620 1_565
Mg0 O0 2.030784 1_665
Mg0 O36 2.063522 1_655
Mg0 O37 2.071591 1_555
Mg0 O38 2.122217 1_665
Mg1 O4 1.960125 1_455
Mg1 O3 1.992620 1_565
Mg1 O5 2.030784 1_465
Mg1 O41 2.063522 1_455
Mg1 O40 2.071591 1_555
Mg1 O39 2.122217 1_565
Mg2 O13 1.960125 1_555
Mg2 O14 1.992620 1_555
Mg2 O12 2.030784 1_555
Mg2 O48 2.063522 1_555
Mg2 O49 2.071591 1_555
Mg2 O50 2.122217 1_555
Mg3 O16 1.960125 1_555
Mg3 O15 1.992620 1_555
Mg3 O17 2.030784 1_555
Mg3 O53 2.063522 1_555
Mg3 O52 2.071591 1_555
Mg3 O51 2.122217 1_555
Mg4 O25 1.960125 1_554
Mg4 O26 1.992620 1_554
Mg4 O24 2.030784 1_554
Mg4 O60 2.063522 1_555
Mg4 O61 2.071591 1_555
Mg4 O62 2.122217 1_555
Mg5 O28 1.960125 1_555
Mg5 O27 1.992620 1_555
Mg5 O29 2.030784 1_555
Mg5 O65 2.063522 1_555
Mg5 O64 2.071591 1_555
Mg5 O63 2.122217 1_555
Al0 O7 1.854252 1_655
Al0 O6 1.879968 1_545
Al0 O42 1.892091 1_555
Al0 O44 1.963533 1_545
Al0 O8 2.134604 1_645
Al0 O43 2.141724 1_655
Al1 O10 1.854252 1_555
Al1 O11 1.879968 1_545
Al1 O47 1.892092 1_555
Al1 O45 1.963533 1_445
Al1 O9 2.134604 1_445
Al1 O46 2.141724 1_455
Al2 O19 1.854252 1_556
Al2 O18 1.879968 1_556
Al2 O54 1.892091 1_555
Al2 O56 1.963533 1_555
Al2 O20 2.134604 1_556
Al2 O55 2.141724 1_555
Al3 O22 1.854252 1_555
Al3 O23 1.879968 1_555
Al3 O59 1.892092 1_555
Al3 O57 1.963533 1_555
Al3 O21 2.134604 1_555
Al3 O58 2.141724 1_555
Al4 O31 1.854252 1_555
Al4 O30 1.879968 1_555
Al4 O66 1.892091 1_555
Al4 O68 1.963533 1_555
Al4 O32 2.134604 1_555
Al4 O67 2.141724 1_555
Al5 O34 1.854252 1_555
Al5 O35 1.879968 1_555
Al5 O71 1.892092 1_555
Al5 O69 1.963533 1_555
Al5 O33 2.134604 1_555
Al5 O70 2.141724 1_555
O0 P0 1.525789 1_545
O1 S0 1.462035 1_555
O2 P1 1.520634 1_655
O3 P2 1.520634 1_555
O4 S1 1.462035 1_655
O5 P3 1.525789 1_545
O6 P3 1.580053 1_555
O7 P2 1.566394 1_555
O8 S1 1.493642 1_555
O9 S0 1.493642 1_555
O10 P1 1.566394 1_555
O11 P0 1.580053 1_555
O12 P4 1.525789 1_555
O13 S2 1.462035 1_555
O14 P5 1.520634 1_555
O15 P6 1.520634 1_555
O16 S3 1.462035 1_555
O17 P7 1.525789 1_555
O18 P7 1.580053 1_555
O19 P6 1.566394 1_555
O20 S3 1.493642 1_555
O21 S2 1.493642 1_555
O22 P5 1.566394 1_555
O23 P4 1.580053 1_555
O24 P8 1.525789 1_555
O25 S4 1.462035 1_555
O26 P9 1.520634 1_555
O27 P10 1.520634 1_555
O28 S5 1.462035 1_555
O29 P11 1.525789 1_555
O30 P11 1.580053 1_555
O31 P10 1.566394 1_555
O32 S5 1.493642 1_555
O33 S4 1.493642 1_555
O34 P9 1.566394 1_555
O35 P8 1.580053 1_555
O36 P11 1.529969 1_555
O37 P10 1.531065 1_555
O38 S5 1.496291 1_555
O39 S4 1.496295 1_555
O40 P9 1.531056 1_555
O41 P8 1.529974 1_555
O42 P4 1.568791 1_555
O43 S2 1.488896 1_555
O44 P5 1.598595 1_555
O45 P6 1.598599 1_555
O46 S3 1.488887 1_555
O47 P7 1.568796 1_555
O48 P3 1.529969 1_545
O49 P2 1.531065 1_555
O50 S1 1.496291 1_655
O51 S0 1.496295 1_555
O52 P1 1.531056 1_655
O53 P0 1.529974 1_545
O54 P8 1.568803 1_555
O55 S4 1.488881 1_655
O56 P9 1.598593 1_545
O57 P10 1.598585 1_545
O58 S5 1.488899 1_555
O59 P11 1.568793 1_655
O60 P7 1.529980 1_555
O61 P6 1.531051 1_455
O62 S3 1.496289 1_565
O63 S2 1.496282 1_565
O64 P5 1.531068 1_555
O65 P4 1.529970 1_455
O66 P0 1.568791 1_555
O67 S0 1.488896 1_555
O68 P1 1.598595 1_555
O69 P2 1.598599 1_555
O70 S1 1.488887 1_555
O71 P3 1.568796 1_555
