# generated using pymatgen
data_MgFe4(CoO6)2
_symmetry_space_group_name_H-M   'P 1'
_cell_length_a   5.14019487
_cell_length_b   5.14323418
_cell_length_c   8.55513216
_cell_angle_alpha   88.32276094
_cell_angle_beta   88.31216386
_cell_angle_gamma   75.57396529
_symmetry_Int_Tables_number   1
_chemical_formula_structural   MgFe4(CoO6)2
_chemical_formula_sum   'Mg1 Fe4 Co2 O12'
_cell_volume   218.89148026
_cell_formula_units_Z   1
loop_
 _symmetry_equiv_pos_site_id
 _symmetry_equiv_pos_as_xyz
  1  'x, y, z'
loop_
 _atom_site_type_symbol
 _atom_site_label
 _atom_site_symmetry_multiplicity
 _atom_site_fract_x
 _atom_site_fract_y
 _atom_site_fract_z
 _atom_site_occupancy
  Mg  Mg0  1  0.19466499  0.19934819  0.17386872  1
  Fe  Fe0  1  0.90595194  0.90576106  0.35585319  1
  Fe  Fe1  1  0.08491209  0.08535685  0.66003833  1
  Fe  Fe2  1  0.52995506  0.53126660  0.16793261  1
  Fe  Fe3  1  0.49030484  0.49084750  0.82405673  1
  Co  Co0  1  0.91975510  0.92024904  0.99004075  1
  Co  Co1  1  0.49714095  0.49729025  0.50129687  1
  O  O0  1  0.17950987  0.81810962  0.16566871  1
  O  O1  1  0.19328175  0.81840583  0.83402542  1
  O  O2  1  0.19791313  0.80587490  0.50028945  1
  O  O3  1  0.36568348  0.36792877  1.01371405  1
  O  O4  1  0.36056641  0.36275448  0.33024380  1
  O  O5  1  0.32341990  0.32386155  0.65840531  1
  O  O6  1  0.67428310  0.67301923  0.33845365  1
  O  O7  1  0.64089525  0.64058148  0.65454197  1
  O  O8  1  0.69795202  0.69697757  1.00302276  1
  O  O9  1  0.80537275  0.19775473  0.50010549  1
  O  O10  1  0.81497850  0.17912932  0.16564939  1
  O  O11  1  0.81790485  0.19381605  0.83421982  1
loop_
_geom_bond_atom_site_label_1
_geom_bond_atom_site_label_2
_geom_bond_distance
_geom_bond_site_symmetry_2
Mg0 O3 1.908169 1_554
Mg0 O4 1.927018 1_555
Mg0 O10 1.983528 1_455
Mg0 O0 1.984995 1_545
Fe0 O6 1.898490 1_555
Fe0 O9 1.931245 1_565
Fe0 O2 1.931567 1_655
Fe0 O0 2.102399 1_655
Fe0 O10 2.103958 1_565
Fe1 O5 1.937856 1_555
Fe1 O2 1.980817 1_545
Fe1 O9 1.981555 1_455
Fe1 O1 1.989753 1_545
Fe1 O11 1.990501 1_455
Fe2 O6 1.898845 1_555
Fe2 O3 1.908769 1_554
Fe2 O4 1.916191 1_555
Fe2 O8 1.920177 1_554
Fe2 O0 2.024354 1_555
Fe2 O10 2.026151 1_555
Fe3 O7 1.860353 1_555
Fe3 O3 1.877011 1_555
Fe3 O1 1.973740 1_555
Fe3 O11 1.973855 1_555
Fe3 O5 1.997948 1_555
Fe3 O8 2.315709 1_555
Co0 O8 1.807839 1_555
Co0 O11 1.896087 1_565
Co0 O1 1.896336 1_655
Co0 O10 2.008011 1_566
Co0 O0 2.009666 1_656
Co1 O7 1.786875 1_555
Co1 O4 1.864119 1_555
Co1 O5 1.911951 1_555
Co1 O9 1.915076 1_555
Co1 O2 1.915310 1_555
Co1 O6 1.961745 1_555
