# generated using pymatgen
data_Na3Hf3ScSi3(SO8)3
_symmetry_space_group_name_H-M   'P 1'
_cell_length_a   8.98006430
_cell_length_b   9.01506027
_cell_length_c   23.24582918
_cell_angle_alpha   89.88978174
_cell_angle_beta   90.11792721
_cell_angle_gamma   120.20700032
_symmetry_Int_Tables_number   1
_chemical_formula_structural   Na3Hf3ScSi3(SO8)3
_chemical_formula_sum   'Na9 Hf9 Sc3 Si9 S9 O72'
_cell_volume   1626.34597079
_cell_formula_units_Z   3
loop_
 _symmetry_equiv_pos_site_id
 _symmetry_equiv_pos_as_xyz
  1  'x, y, z'
loop_
 _atom_site_type_symbol
 _atom_site_label
 _atom_site_symmetry_multiplicity
 _atom_site_fract_x
 _atom_site_fract_y
 _atom_site_fract_z
 _atom_site_occupancy
  Na  Na0  1  0.35819203  0.36040217  0.24601864  1
  Na  Na1  1  0.63599458  0.62473843  0.75241599  1
  Na  Na2  1  0.96888319  0.29116117  0.41641849  1
  Na  Na3  1  0.99663297  0.00532564  0.49776319  1
  Na  Na4  1  0.99775105  0.99139355  0.00208171  1
  Na  Na5  1  0.66342812  0.33844530  0.83151777  1
  Na  Na6  1  0.66730938  0.32545724  0.33109862  1
  Na  Na7  1  0.31875236  0.65883955  0.16411318  1
  Na  Na8  1  0.31064602  0.65441796  0.66665300  1
  Hf  Hf0  1  0.00303850  0.98813616  0.85193592  1
  Hf  Hf1  1  0.01442369  0.01518974  0.64778585  1
  Hf  Hf2  1  0.01135557  0.01127153  0.14402592  1
  Hf  Hf3  1  0.66298915  0.35276929  0.98247384  1
  Hf  Hf4  1  0.66074766  0.31863507  0.47970808  1
  Hf  Hf5  1  0.33881396  0.66060983  0.02321966  1
  Hf  Hf6  1  0.33435379  0.65475786  0.51838900  1
  Hf  Hf7  1  0.33878383  0.66583165  0.31519577  1
  Hf  Hf8  1  0.32576190  0.65299471  0.81293644  1
  Sc  Sc0  1  0.99436659  0.01303617  0.35367066  1
  Sc  Sc1  1  0.68300286  0.34274011  0.68747296  1
  Sc  Sc2  1  0.68630787  0.34481958  0.18207159  1
  Si  Si0  1  0.99351943  0.29328484  0.25025946  1
  Si  Si1  1  0.29466257  0.28916686  0.75121743  1
  Si  Si2  1  0.00452217  0.71082224  0.74805731  1
  Si  Si3  1  0.95919839  0.33352151  0.58346851  1
  Si  Si4  1  0.96204542  0.63011431  0.08358976  1
  Si  Si5  1  0.37984954  0.33402168  0.08634286  1
  Si  Si6  1  0.62626396  0.67089211  0.91614540  1
  Si  Si7  1  0.62227355  0.95296864  0.41716228  1
  Si  Si8  1  0.33800447  0.37344818  0.41587967  1
  S  S0  1  0.28914526  0.99785702  0.25051530  1
  S  S1  1  0.71174881  0.71063176  0.25052757  1
  S  S2  1  0.71125926  0.00168116  0.75050527  1
  S  S3  1  0.37673846  0.04105539  0.58425969  1
  S  S4  1  0.66835808  0.62483207  0.58356816  1
  S  S5  1  0.66652786  0.04454077  0.08281840  1
  S  S6  1  0.04106448  0.37365619  0.91729562  1
  S  S7  1  0.33632626  0.95602611  0.91675104  1
  S  S8  1  0.04462093  0.66984199  0.41714133  1
  O  O0  1  0.20730099  0.02254804  0.30174654  1
  O  O1  1  0.81532592  0.78848963  0.30222171  1
  O  O2  1  0.97592139  0.18233174  0.30826467  1
  O  O3  1  0.19531557  0.17342614  0.80726266  1
  O  O4  1  0.96527455  0.79774355  0.80443225  1
  O  O5  1  0.81822075  0.02706602  0.80242467  1
  O  O6  1  0.78769069  0.96768851  0.69874869  1
  O  O7  1  0.17130939  0.20502252  0.69457869  1
  O  O8  1  0.02451375  0.82998288  0.69243780  1
  O  O9  1  0.78984870  0.81496542  0.19849069  1
  O  O10  1  0.03260470  0.19806346  0.19627717  1
  O  O11  1  0.18123632  0.97004328  0.19800317  1
  O  O12  1  0.86465075  0.35798336  0.63869853  1
  O  O13  1  0.47975401  0.12102349  0.63526356  1
  O  O14  1  0.63681758  0.52139116  0.63616134  1
  O  O15  1  0.87901927  0.50898111  0.13920095  1
  O  O16  1  0.63707327  0.11789536  0.13467756  1
  O  O17  1  0.48631087  0.36047892  0.14500757  1
  O  O18  1  0.46377258  0.30071356  0.02849969  1
  O  O19  1  0.84152884  0.53527241  0.02674730  1
  O  O20  1  0.69474027  0.14877070  0.03043253  1
  O  O21  1  0.45482894  0.14969501  0.53163036  1
  O  O22  1  0.68990789  0.54112187  0.53212534  1
  O  O23  1  0.84412199  0.31089700  0.52501856  1
  O  O24  1  0.52824707  0.69436445  0.97101775  1
  O  O25  1  0.14958648  0.45838979  0.96821181  1
  O  O26  1  0.30579518  0.85012782  0.96840115  1
  O  O27  1  0.52624122  0.83926324  0.47386432  1
  O  O28  1  0.29773815  0.46434108  0.47043253  1
  O  O29  1  0.15101632  0.69371444  0.46910074  1
  O  O30  1  0.12170258  0.63483591  0.36552994  1
  O  O31  1  0.50099783  0.86841389  0.36049336  1
  O  O32  1  0.36267014  0.49231387  0.35874058  1
  O  O33  1  0.12135004  0.48335621  0.86517988  1
  O  O34  1  0.35590596  0.87361208  0.86459040  1
  O  O35  1  0.51016268  0.64440850  0.85806469  1
  O  O36  1  0.02487333  0.81850498  0.40961238  1
  O  O37  1  0.81451368  0.97912537  0.41226415  1
  O  O38  1  0.16479796  0.18686508  0.41067121  1
  O  O39  1  0.02689758  0.20483738  0.90972384  1
  O  O40  1  0.18133642  0.97727912  0.91020148  1
  O  O41  1  0.81740821  0.84291644  0.90995002  1
  O  O42  1  0.97508508  0.15916208  0.58918948  1
  O  O43  1  0.20163116  0.02303635  0.58844984  1
  O  O44  1  0.82165921  0.79813477  0.58945598  1
  O  O45  1  0.97327869  0.81538677  0.09225096  1
  O  O46  1  0.81918657  0.02179183  0.09022839  1
  O  O47  1  0.18464417  0.16500754  0.08919856  1
  O  O48  1  0.68928243  0.15002893  0.74403446  1
  O  O49  1  0.48565210  0.31766451  0.74273575  1
  O  O50  1  0.82843967  0.52459647  0.74450126  1
  O  O51  1  0.68048094  0.53308565  0.24544192  1
  O  O52  1  0.82321106  0.31062538  0.24539827  1
  O  O53  1  0.45942864  0.15485493  0.24378036  1
  O  O54  1  0.64376164  0.49717789  0.92145269  1
  O  O55  1  0.86766199  0.35312128  0.92317529  1
  O  O56  1  0.49212565  0.12836490  0.92256185  1
  O  O57  1  0.65215299  0.15052163  0.42342526  1
  O  O58  1  0.51131517  0.36323074  0.42555983  1
  O  O59  1  0.87261674  0.50943978  0.42416664  1
  O  O60  1  0.35641324  0.50170100  0.07586316  1
  O  O61  1  0.15305962  0.65464510  0.07265001  1
  O  O62  1  0.51158234  0.87043046  0.07568429  1
  O  O63  1  0.35594900  0.86928740  0.57572167  1
  O  O64  1  0.51249647  0.64427003  0.57660695  1
  O  O65  1  0.15042780  0.50719463  0.57637950  1
  O  O66  1  0.30716390  0.84349677  0.25609593  1
  O  O67  1  0.53405816  0.69180591  0.25593347  1
  O  O68  1  0.17579767  0.48298095  0.25684051  1
  O  O69  1  0.31913301  0.48474595  0.75697418  1
  O  O70  1  0.17547361  0.69577424  0.75861844  1
  O  O71  1  0.53887052  0.84220282  0.75741854  1
loop_
_geom_bond_atom_site_label_1
_geom_bond_atom_site_label_2
_geom_bond_distance
_geom_bond_site_symmetry_2
Na0 O68 2.406503 1_555
Na0 O53 2.441019 1_555
Na0 O51 2.503260 1_555
Na0 O67 2.593551 1_555
Na0 O17 2.616774 1_555
Na0 O10 2.777457 1_555
Na0 O32 2.871459 1_555
Na0 O0 2.937713 1_555
Na1 O50 2.325362 1_555
Na1 O49 2.403571 1_555
Na1 O69 2.467328 1_555
Na1 O71 2.517828 1_555
Na1 O35 2.748532 1_555
Na1 O4 2.826669 1_555
Na1 O14 2.861458 1_555
Na1 O6 2.953800 1_555
Na2 O38 2.379726 1_655
Na2 O37 2.433243 1_545
Na2 O57 2.469057 1_555
Na2 O59 2.523041 1_555
Na2 O2 2.712918 1_555
Na2 O23 2.806050 1_555
Na2 O28 2.843929 1_655
Na2 O30 2.931890 1_655
Na3 O37 2.506058 1_545
Na3 O38 2.563308 1_655
Na3 O42 2.600127 1_555
Na3 O36 2.746818 1_645
Na3 O44 2.747025 1_545
Na3 O43 2.747359 1_655
Na4 O45 2.568586 1_555
Na4 O47 2.592765 1_665
Na4 O41 2.610873 1_554
Na4 O46 2.702373 1_565
Na4 O40 2.742718 1_654
Na4 O39 2.803578 1_664
Na5 O49 2.555389 1_555
Na5 O50 2.569167 1_555
Na5 O54 2.591697 1_555
Na5 O48 2.736198 1_555
Na5 O56 2.738378 1_555
Na5 O55 2.767978 1_555
Na6 O52 2.479422 1_555
Na6 O57 2.623744 1_555
Na6 O53 2.660393 1_555
Na6 O51 2.691864 1_555
Na6 O58 2.719471 1_555
Na6 O59 2.784052 1_555
Na7 O61 2.581957 1_555
Na7 O68 2.599615 1_555
Na7 O60 2.612609 1_555
Na7 O62 2.745622 1_555
Na7 O66 2.746441 1_555
Na7 O67 2.790998 1_555
Na8 O65 2.512368 1_555
Na8 O70 2.579115 1_555
Na8 O69 2.618791 1_555
Na8 O63 2.753284 1_555
Na8 O64 2.803334 1_555
Na8 O71 2.832437 1_555
Hf0 O4 1.923661 1_455
Hf0 O3 1.987076 1_565
Hf0 O41 2.029254 1_455
Hf0 O40 2.134462 1_555
Hf0 O5 2.186099 1_465
Hf0 O39 2.292296 1_565
Hf1 O7 1.916116 1_555
Hf1 O8 2.004621 1_545
Hf1 O42 2.029127 1_455
Hf1 O43 2.150171 1_555
Hf1 O6 2.205235 1_445
Hf1 O44 2.292617 1_445
Hf2 O47 1.948832 1_555
Hf2 O10 2.007724 1_555
Hf2 O45 2.020591 1_445
Hf2 O11 2.144919 1_545
Hf2 O46 2.169394 1_455
Hf2 O9 2.269595 1_445
Hf3 O19 1.918870 1_556
Hf3 O18 1.930423 1_556
Hf3 O54 1.988671 1_555
Hf3 O20 2.285772 1_556
Hf3 O56 2.294580 1_555
Hf3 O55 2.298437 1_555
Hf4 O57 1.975885 1_555
Hf4 O23 1.983456 1_555
Hf4 O58 2.020076 1_555
Hf4 O21 2.089011 1_555
Hf4 O59 2.225771 1_555
Hf4 O22 2.248514 1_555
Hf5 O60 1.948093 1_555
Hf5 O24 1.986235 1_554
Hf5 O61 2.005770 1_555
Hf5 O62 2.126136 1_555
Hf5 O25 2.174598 1_554
Hf5 O26 2.265087 1_554
Hf6 O28 1.932752 1_555
Hf6 O27 1.980862 1_555
Hf6 O65 2.026380 1_555
Hf6 O64 2.131282 1_555
Hf6 O29 2.172361 1_555
Hf6 O63 2.277195 1_555
Hf7 O32 1.961691 1_555
Hf7 O31 1.972351 1_555
Hf7 O68 2.066951 1_555
Hf7 O67 2.150155 1_555
Hf7 O30 2.169632 1_555
Hf7 O66 2.231794 1_555
Hf8 O69 1.978098 1_555
Hf8 O35 1.992513 1_555
Hf8 O70 2.019735 1_555
Hf8 O33 2.088163 1_555
Hf8 O34 2.221890 1_555
Hf8 O71 2.225847 1_555
O0 S0 1.475547 1_545
O0 Sc0 2.228168 1_455
O1 S1 1.464078 1_555
O1 Sc0 2.199897 1_565
O2 Si0 1.637140 1_555
O2 Sc0 1.928288 1_555
O3 Si1 1.626291 1_555
O4 Si2 1.655104 1_655
O5 S2 1.485499 1_555
O6 S2 1.492974 1_565
O7 Si1 1.639587 1_555
O8 Si2 1.630773 1_555
O9 S1 1.474828 1_555
O10 Si0 1.656475 1_455
O11 S0 1.497926 1_555
O12 Si3 1.616108 1_555
O12 Sc1 1.935637 1_555
O13 S3 1.452209 1_555
O13 Sc1 2.264654 1_555
O14 S4 1.475050 1_555
O14 Sc1 2.202574 1_555
O15 Si4 1.612081 1_555
O15 Sc2 1.898018 1_555
O16 S5 1.463187 1_555
O16 Sc2 2.165829 1_555
O17 Si5 1.611527 1_555
O17 Sc2 2.058181 1_555
O18 Si5 1.643030 1_555
O19 Si4 1.647910 1_555
O20 S5 1.478970 1_555
O21 S3 1.501843 1_555
O22 S4 1.479303 1_555
O23 Si3 1.654936 1_555
O24 Si6 1.624697 1_555
O25 S6 1.477756 1_555
O26 S7 1.470274 1_555
O27 Si7 1.625349 1_555
O28 Si8 1.647528 1_555
O29 S8 1.485731 1_555
O30 S8 1.497603 1_555
O31 Si7 1.632496 1_555
O32 Si8 1.648782 1_555
O33 S6 1.499005 1_555
O34 S7 1.479496 1_555
O35 Si6 1.646767 1_555
O36 S8 1.447878 1_555
O36 Sc0 2.305389 1_465
O37 Si7 1.624766 1_555
O37 Sc0 2.016876 1_565
O38 Si8 1.621924 1_555
O38 Sc0 2.034716 1_455
O39 S6 1.472919 1_555
O40 S7 1.504792 1_555
O41 Si6 1.641236 1_555
O42 Si3 1.653346 1_555
O43 S3 1.500696 1_555
O44 S4 1.480070 1_555
O45 Si4 1.634654 1_555
O46 S5 1.494272 1_555
O47 Si5 1.646604 1_555
O48 S2 1.454237 1_555
O48 Sc1 2.199918 1_555
O49 Si1 1.613771 1_555
O49 Sc1 2.108856 1_555
O50 Si2 1.629230 1_655
O50 Sc1 1.999396 1_555
O51 S1 1.484271 1_555
O51 Sc2 2.269943 1_555
O52 Si0 1.617408 1_555
O52 Sc2 2.036080 1_555
O53 S0 1.479308 1_545
O53 Sc2 2.373420 1_555
O54 Si6 1.655051 1_555
O55 S6 1.479333 1_655
O56 S7 1.484002 1_545
O57 Si7 1.668822 1_545
O58 Si8 1.619892 1_555
O59 S8 1.502036 1_655
O60 Si5 1.645354 1_555
O61 Si4 1.635778 1_455
O62 S5 1.493201 1_565
O63 S3 1.477236 1_565
O64 S4 1.503883 1_555
O65 Si3 1.649895 1_455
O66 S0 1.485013 1_555
O67 S1 1.522829 1_555
O68 Si0 1.676453 1_455
O69 Si1 1.669083 1_555
O70 Si2 1.625809 1_555
O71 S2 1.499962 1_565
