# generated using pymatgen
data_LiPd
_symmetry_space_group_name_H-M   'P 1'
_cell_length_a   5.55245234
_cell_length_b   5.55245216
_cell_length_c   8.21243364
_cell_angle_alpha   90.00000000
_cell_angle_beta   90.00000000
_cell_angle_gamma   119.99998881
_symmetry_Int_Tables_number   1
_chemical_formula_structural   LiPd
_chemical_formula_sum   'Li8 Pd8'
_cell_volume   219.26646707
_cell_formula_units_Z   8
loop_
 _symmetry_equiv_pos_site_id
 _symmetry_equiv_pos_as_xyz
  1  'x, y, z'
loop_
 _atom_site_type_symbol
 _atom_site_label
 _atom_site_symmetry_multiplicity
 _atom_site_fract_x
 _atom_site_fract_y
 _atom_site_fract_z
 _atom_site_occupancy
  Li  Li0_0  1  0.00000000  0.00000000  0.00000000  1
  Li  Li0_1  1  0.00000000  0.00000000  0.50000000  1
  Li  Li0_2  1  0.00000000  0.50000000  0.00000000  1
  Li  Li0_3  1  0.00000000  0.50000000  0.50000000  1
  Li  Li0_4  1  0.50000000  0.00000000  0.00000000  1
  Li  Li0_5  1  0.50000000  0.00000000  0.50000000  1
  Li  Li0_6  1  0.50000000  0.50000000  0.00000000  1
  Li  Li0_7  1  0.50000000  0.50000000  0.50000000  1
  Pd  Pd0_0  1  0.16666650  0.33333350  0.25000000  1
  Pd  Pd0_1  1  0.16666650  0.33333350  0.75000000  1
  Pd  Pd0_2  1  0.16666650  0.83333350  0.25000000  1
  Pd  Pd0_3  1  0.16666650  0.83333350  0.75000000  1
  Pd  Pd0_4  1  0.66666650  0.33333350  0.25000000  1
  Pd  Pd0_5  1  0.66666650  0.33333350  0.75000000  1
  Pd  Pd0_6  1  0.66666650  0.83333350  0.25000000  1
  Pd  Pd0_7  1  0.66666650  0.83333350  0.75000000  1
loop_
_geom_bond_atom_site_label_1
_geom_bond_atom_site_label_2
_geom_bond_distance
_geom_bond_site_symmetry_2
Li0_0 Pd0_2 2.604687 1_545
Li0_0 Pd0_3 2.604687 1_544
Li0_0 Pd0_1 2.604688 1_554
Li0_0 Pd0_0 2.604688 1_555
Li0_0 Pd0_6 2.604688 1_445
Li0_0 Pd0_7 2.604688 1_444
Li0_0 Li0_2 2.776226 1_555
Li0_0 Li0_2 2.776226 1_545
Li0_0 Li0_4 2.776226 1_555
Li0_0 Li0_4 2.776226 1_455
Li0_0 Li0_6 2.776227 1_445
Li0_0 Li0_6 2.776227 1_555
Li0_1 Pd0_3 2.604687 1_545
Li0_1 Pd0_2 2.604687 1_545
Li0_1 Pd0_0 2.604688 1_555
Li0_1 Pd0_1 2.604688 1_555
Li0_1 Pd0_7 2.604688 1_445
Li0_1 Pd0_6 2.604688 1_445
Li0_1 Li0_3 2.776226 1_555
Li0_1 Li0_3 2.776226 1_545
Li0_1 Li0_5 2.776226 1_555
Li0_1 Li0_5 2.776226 1_455
Li0_1 Li0_7 2.776227 1_445
Li0_1 Li0_7 2.776227 1_555
Li0_2 Pd0_1 2.604687 1_554
Li0_2 Pd0_0 2.604687 1_555
Li0_2 Pd0_3 2.604688 1_554
Li0_2 Pd0_2 2.604688 1_555
Li0_2 Pd0_4 2.604688 1_455
Li0_2 Pd0_5 2.604688 1_454
Li0_2 Li0_6 2.776226 1_455
Li0_2 Li0_6 2.776226 1_555
Li0_2 Li0_4 2.776227 1_565
Li0_2 Li0_4 2.776227 1_455
Li0_3 Pd0_0 2.604687 1_555
Li0_3 Pd0_1 2.604687 1_555
Li0_3 Pd0_3 2.604688 1_555
Li0_3 Pd0_2 2.604688 1_555
Li0_3 Pd0_4 2.604688 1_455
Li0_3 Pd0_5 2.604688 1_455
Li0_3 Li0_7 2.776226 1_555
Li0_3 Li0_7 2.776226 1_455
Li0_3 Li0_5 2.776227 1_565
Li0_3 Li0_5 2.776227 1_455
Li0_4 Pd0_7 2.604687 1_544
Li0_4 Pd0_6 2.604687 1_545
Li0_4 Pd0_4 2.604688 1_555
Li0_4 Pd0_5 2.604688 1_554
Li0_4 Pd0_2 2.604688 1_545
Li0_4 Pd0_3 2.604688 1_544
Li0_4 Li0_6 2.776226 1_555
Li0_4 Li0_6 2.776226 1_545
Li0_5 Pd0_7 2.604687 1_545
Li0_5 Pd0_6 2.604687 1_545
Li0_5 Pd0_5 2.604688 1_555
Li0_5 Pd0_4 2.604688 1_555
Li0_5 Pd0_3 2.604688 1_545
Li0_5 Pd0_2 2.604688 1_545
Li0_5 Li0_7 2.776226 1_555
Li0_5 Li0_7 2.776226 1_545
Li0_6 Pd0_5 2.604687 1_554
Li0_6 Pd0_4 2.604687 1_555
Li0_6 Pd0_6 2.604688 1_555
Li0_6 Pd0_7 2.604688 1_554
Li0_6 Pd0_0 2.604688 1_555
Li0_6 Pd0_1 2.604688 1_554
Li0_7 Pd0_5 2.604687 1_555
Li0_7 Pd0_4 2.604687 1_555
Li0_7 Pd0_6 2.604688 1_555
Li0_7 Pd0_7 2.604688 1_555
Li0_7 Pd0_0 2.604688 1_555
Li0_7 Pd0_1 2.604688 1_555
Pd0_0 Pd0_2 2.776226 1_545
Pd0_0 Pd0_2 2.776226 1_555
Pd0_0 Pd0_4 2.776226 1_555
Pd0_0 Pd0_4 2.776226 1_455
Pd0_0 Pd0_6 2.776227 1_445
Pd0_0 Pd0_6 2.776227 1_555
Pd0_1 Pd0_3 2.776226 1_545
Pd0_1 Pd0_3 2.776226 1_555
Pd0_1 Pd0_5 2.776226 1_555
Pd0_1 Pd0_5 2.776226 1_455
Pd0_1 Pd0_7 2.776227 1_445
Pd0_1 Pd0_7 2.776227 1_555
Pd0_2 Pd0_6 2.776226 1_555
Pd0_2 Pd0_6 2.776226 1_455
Pd0_2 Pd0_4 2.776227 1_565
Pd0_2 Pd0_4 2.776227 1_455
Pd0_3 Pd0_7 2.776226 1_455
Pd0_3 Pd0_7 2.776226 1_555
Pd0_3 Pd0_5 2.776227 1_565
Pd0_3 Pd0_5 2.776227 1_455
Pd0_4 Pd0_6 2.776226 1_555
Pd0_4 Pd0_6 2.776226 1_545
Pd0_5 Pd0_7 2.776226 1_545
Pd0_5 Pd0_7 2.776226 1_555
