# generated using pymatgen
data_Y2Mo2O7
_symmetry_space_group_name_H-M   'P 1'
_cell_length_a   7.26250960
_cell_length_b   7.25130503
_cell_length_c   7.26945475
_cell_angle_alpha   59.95482480
_cell_angle_beta   59.89137638
_cell_angle_gamma   60.10799420
_symmetry_Int_Tables_number   1
_chemical_formula_structural   Y2Mo2O7
_chemical_formula_sum   'Y4 Mo4 O14'
_cell_volume   270.60515680
_cell_formula_units_Z   2
loop_
 _symmetry_equiv_pos_site_id
 _symmetry_equiv_pos_as_xyz
  1  'x, y, z'
loop_
 _atom_site_type_symbol
 _atom_site_label
 _atom_site_symmetry_multiplicity
 _atom_site_fract_x
 _atom_site_fract_y
 _atom_site_fract_z
 _atom_site_occupancy
  Y  Y0  1  0.12500000  0.12500000  0.12500000  1
  Y  Y1  1  0.62500000  0.12500000  0.12500000  1
  Y  Y2  1  0.12500000  0.62500000  0.12500000  1
  Y  Y3  1  0.12500000  0.12500000  0.62500000  1
  Mo  Mo0  1  0.62500000  0.62500000  0.62500000  1
  Mo  Mo1  1  0.12500000  0.62500000  0.62500000  1
  Mo  Mo2  1  0.62500000  0.12500000  0.62500000  1
  Mo  Mo3  1  0.62500000  0.62500000  0.12500000  1
  O  O0  1  0.24919659  0.25066623  0.25103348  1
  O  O1  1  0.00080341  -0.00066623  -0.00103348  1
  O  O2  1  0.54448955  0.95828879  0.52709690  1
  O  O3  1  0.27984360  0.72281894  0.29179778  1
  O  O4  1  0.52820589  0.55034168  0.96401596  1
  O  O5  1  0.96141195  0.53867866  0.53856663  1
  O  O6  1  0.53359678  0.96636417  0.96648231  1
  O  O7  1  0.95719015  0.96384824  0.55027253  1
  O  O8  1  0.97015640  0.52718106  0.95820222  1
  O  O9  1  0.71640322  0.28363583  0.28351769  1
  O  O10  1  0.28858805  0.71132134  0.71143337  1
  O  O11  1  0.72179411  0.69965832  0.28598404  1
  O  O12  1  0.29280985  0.28615176  0.69972747  1
  O  O13  1  0.70551045  0.29171121  0.72290310  1
loop_
_geom_bond_atom_site_label_1
_geom_bond_atom_site_label_2
_geom_bond_distance
_geom_bond_site_symmetry_2
Mo0 O13 1.993955 1_555
Mo0 O2 1.993955 1_555
Mo0 O5 2.021180 1_555
Mo0 O10 2.021180 1_555
Mo0 O11 2.041080 1_555
Mo0 O4 2.041080 1_555
Mo1 O3 1.994134 1_555
Mo1 O8 1.994134 1_455
Mo1 O5 2.020415 1_455
Mo1 O10 2.020415 1_555
Mo1 O12 2.039751 1_555
Mo1 O7 2.039751 1_455
Mo2 O7 1.997942 1_545
Mo2 O12 1.997942 1_555
Mo2 O6 2.043172 1_545
Mo2 O9 2.043172 1_555
Mo2 O2 2.072039 1_545
Mo2 O13 2.072039 1_555
Mo3 O4 1.998966 1_554
Mo3 O11 1.998966 1_555
Mo3 O6 2.041851 1_554
Mo3 O9 2.041851 1_555
Mo3 O3 2.072798 1_555
Mo3 O8 2.072798 1_554
O0 Y3 2.216496 1_555
O0 Y2 2.217978 1_555
O0 Y1 2.228694 1_555
O0 Y0 2.228834 1_555
O1 Y3 2.216496 1_554
O1 Y2 2.217978 1_545
O1 Y1 2.228694 1_455
O1 Y0 2.228834 1_555
O2 Y1 2.408059 1_565
O2 Y3 2.502931 1_565
O3 Y0 2.407917 1_565
O3 Y2 2.502458 1_555
O4 Y2 2.419432 1_556
O4 Y1 2.535037 1_556
O5 Y3 2.472634 1_655
O5 Y2 2.472866 1_655
O6 Y1 2.438787 1_566
O6 Y0 2.439489 1_566
O7 Y3 2.421835 1_665
O7 Y0 2.535765 1_665
O8 Y0 2.407917 1_656
O8 Y2 2.502458 1_656
O9 Y1 2.438787 1_555
O9 Y0 2.439489 1_655
O10 Y3 2.472634 1_565
O10 Y2 2.472866 1_556
O11 Y2 2.419432 1_655
O11 Y1 2.535037 1_565
O12 Y3 2.421835 1_555
O12 Y0 2.535765 1_556
O13 Y1 2.408059 1_556
O13 Y3 2.502931 1_655
