# generated using pymatgen
data_Rb4MgTi2(CuS2)4
_symmetry_space_group_name_H-M   'P 1'
_cell_length_a   5.66842899
_cell_length_b   5.66842899
_cell_length_c   13.69016840
_cell_angle_alpha   89.94008616
_cell_angle_beta   89.94008616
_cell_angle_gamma   90.02549511
_symmetry_Int_Tables_number   1
_chemical_formula_structural   Rb4MgTi2(CuS2)4
_chemical_formula_sum   'Rb4 Mg1 Ti2 Cu4 S8'
_cell_volume   439.87947007
_cell_formula_units_Z   1
loop_
 _symmetry_equiv_pos_site_id
 _symmetry_equiv_pos_as_xyz
  1  'x, y, z'
loop_
 _atom_site_type_symbol
 _atom_site_label
 _atom_site_symmetry_multiplicity
 _atom_site_fract_x
 _atom_site_fract_y
 _atom_site_fract_z
 _atom_site_occupancy
  Rb  Rb0  1  0.76355000  0.76355000  0.01301100  1
  Rb  Rb1  1  0.25071600  0.76210400  0.49529800  1
  Rb  Rb2  1  0.76210400  0.25071600  0.49529800  1
  Rb  Rb3  1  0.25224700  0.25224700  0.01496300  1
  Mg  Mg0  1  0.01519500  0.01519500  0.75406600  1
  Ti  Ti0  1  0.50198300  0.50198300  0.75573000  1
  Ti  Ti1  1  0.50618400  0.50618400  0.25452400  1
  Cu  Cu0  1  0.00632700  0.51230100  0.75750400  1
  Cu  Cu1  1  0.51230100  0.00632700  0.75750400  1
  Cu  Cu2  1  0.00618800  0.50674000  0.25449400  1
  Cu  Cu3  1  0.50674000  0.00618800  0.25449400  1
  S  S0  1  0.75599200  0.75599200  0.65693000  1
  S  S1  1  0.26158700  0.26158700  0.64854400  1
  S  S2  1  0.74312100  0.74312100  0.34815600  1
  S  S3  1  0.74414800  0.26909700  0.16125000  1
  S  S4  1  0.26542100  0.76340100  0.85720300  1
  S  S5  1  0.26845900  0.26845900  0.34757900  1
  S  S6  1  0.26909700  0.74414800  0.16125000  1
  S  S7  1  0.76340100  0.26542100  0.85720300  1
loop_
_geom_bond_atom_site_label_1
_geom_bond_atom_site_label_2
_geom_bond_distance
_geom_bond_site_symmetry_2
Rb0 S3 3.460278 1_555
Rb0 S6 3.460278 1_555
Rb0 S6 3.514911 1_655
Rb0 S3 3.514911 1_565
Rb0 S7 3.540511 1_554
Rb0 S4 3.540511 1_554
Rb0 S7 3.553895 1_564
Rb0 S4 3.553895 1_654
Rb1 S2 3.442228 1_555
Rb1 S5 3.455624 1_555
Rb1 S5 3.510733 1_565
Rb1 S2 3.515728 1_455
Rb1 S1 3.526181 1_565
Rb1 S1 3.527410 1_555
Rb1 S0 3.570499 1_455
Rb1 S0 3.621315 1_555
Rb2 S2 3.442228 1_555
Rb2 S5 3.455624 1_555
Rb2 S5 3.510733 1_655
Rb2 S2 3.515728 1_545
Rb2 S1 3.526181 1_655
Rb2 S1 3.527410 1_555
Rb2 S0 3.570499 1_545
Rb2 S0 3.621315 1_555
Rb3 S6 3.436044 1_555
Rb3 S3 3.436044 1_555
Rb3 S6 3.507648 1_545
Rb3 S3 3.507648 1_455
Rb3 S4 3.515805 1_544
Rb3 S7 3.515805 1_454
Rb3 S4 3.612712 1_554
Rb3 S7 3.612712 1_554
Mg0 S1 2.445001 1_555
Mg0 S7 2.458528 1_455
Mg0 S4 2.458528 1_545
Mg0 S0 2.468233 1_445
Cu0 S7 2.389108 1_455
Cu0 S0 2.412329 1_455
Cu0 S4 2.460120 1_555
Cu0 S1 2.517961 1_555
Cu1 S4 2.389108 1_545
Cu1 S0 2.412329 1_545
Cu1 S7 2.460120 1_555
Cu1 S1 2.517961 1_555
Cu2 S6 2.377413 1_555
Cu2 S3 2.378268 1_455
Cu2 S5 2.379206 1_555
Cu2 S2 2.380020 1_455
Cu3 S3 2.377413 1_555
Cu3 S6 2.378268 1_545
Cu3 S5 2.379206 1_555
Cu3 S2 2.380020 1_545
S0 Ti0 2.442486 1_555
S1 Ti0 2.423568 1_555
S2 Ti1 2.292668 1_555
S3 Ti1 2.292978 1_555
S4 Ti0 2.434323 1_555
S5 Ti1 2.290367 1_555
S6 Ti1 2.292978 1_555
S7 Ti0 2.434323 1_555
