# generated using pymatgen
data_Na7Al3ZnSi3(SO8)3
_symmetry_space_group_name_H-M   'P 1'
_cell_length_a   8.87204138
_cell_length_b   8.81116482
_cell_length_c   21.69172858
_cell_angle_alpha   90.80313931
_cell_angle_beta   90.20921436
_cell_angle_gamma   119.68887329
_symmetry_Int_Tables_number   1
_chemical_formula_structural   Na7Al3ZnSi3(SO8)3
_chemical_formula_sum   'Na21 Al9 Zn3 Si9 S9 O72'
_cell_volume   1472.85418446
_cell_formula_units_Z   3
loop_
 _symmetry_equiv_pos_site_id
 _symmetry_equiv_pos_as_xyz
  1  'x, y, z'
loop_
 _atom_site_type_symbol
 _atom_site_label
 _atom_site_symmetry_multiplicity
 _atom_site_fract_x
 _atom_site_fract_y
 _atom_site_fract_z
 _atom_site_occupancy
  Na  Na0  1  0.63733849  0.99885694  0.24289435  1
  Na  Na1  1  0.37900255  0.37198623  0.24172708  1
  Na  Na2  1  0.98198900  0.63202513  0.25411560  1
  Na  Na3  1  0.62507377  0.62535700  0.74190443  1
  Na  Na4  1  0.99376268  0.35457287  0.74953350  1
  Na  Na5  1  0.38535905  0.01611573  0.75602014  1
  Na  Na6  1  0.01952967  0.69378589  0.57626453  1
  Na  Na7  1  0.66521562  0.96071065  0.58397684  1
  Na  Na8  1  0.31622068  0.98175705  0.08108131  1
  Na  Na9  1  0.65430125  0.68962971  0.08938553  1
  Na  Na10  1  0.69391314  0.03384778  0.91576498  1
  Na  Na11  1  0.33167751  0.29049311  0.91678132  1
  Na  Na12  1  0.96478737  0.29778097  0.41265870  1
  Na  Na13  1  0.33252762  0.02589928  0.41551945  1
  Na  Na14  1  0.72179699  0.68481481  0.41651211  1
  Na  Na15  1  0.99443500  0.99289737  0.49897037  1
  Na  Na16  1  0.00774661  0.00706609  0.00200915  1
  Na  Na17  1  0.66085612  0.32714632  0.83239899  1
  Na  Na18  1  0.67544007  0.34519727  0.33118361  1
  Na  Na19  1  0.34008829  0.65565430  0.16119530  1
  Na  Na20  1  0.34951091  0.64808294  0.66582739  1
  Al  Al0  1  0.01558466  0.00870405  0.85034774  1
  Al  Al1  1  0.98453910  0.99908753  0.65123238  1
  Al  Al2  1  0.98178493  0.00772642  0.14344535  1
  Al  Al3  1  0.63235730  0.29671618  0.98688622  1
  Al  Al4  1  0.69186605  0.35472970  0.47843131  1
  Al  Al5  1  0.33064749  0.67473982  0.02024558  1
  Al  Al6  1  0.35298080  0.67656518  0.51575259  1
  Al  Al7  1  0.34853949  0.68628367  0.31755140  1
  Al  Al8  1  0.34969572  0.67676772  0.81191213  1
  Zn  Zn0  1  0.97972954  0.97423923  0.35535239  1
  Zn  Zn1  1  0.64460285  0.33033959  0.68629755  1
  Zn  Zn2  1  0.64963091  0.33773195  0.17179060  1
  Si  Si0  1  0.70113717  0.70166568  0.24939927  1
  Si  Si1  1  0.28114294  0.28989157  0.75191672  1
  Si  Si2  1  0.71256148  0.99690400  0.75328242  1
  Si  Si3  1  0.66372088  0.62753771  0.58334143  1
  Si  Si4  1  0.66708356  0.03816238  0.08255258  1
  Si  Si5  1  0.35323967  0.33410480  0.08170067  1
  Si  Si6  1  0.32137083  0.94746181  0.91639002  1
  Si  Si7  1  0.62527685  0.96990686  0.41945935  1
  Si  Si8  1  0.05534635  0.66347469  0.41823990  1
  S  S0  1  0.28609963  0.99343381  0.25187227  1
  S  S1  1  0.00904941  0.29566319  0.25149130  1
  S  S2  1  0.00762147  0.71902591  0.75075162  1
  S  S3  1  0.96694206  0.33488603  0.58311067  1
  S  S4  1  0.36777125  0.03730279  0.58214660  1
  S  S5  1  0.95878710  0.62001903  0.08150765  1
  S  S6  1  0.62735395  0.66538416  0.91679391  1
  S  S7  1  0.04387813  0.38622945  0.91564966  1
  S  S8  1  0.34090278  0.38610915  0.41690169  1
  O  O0  1  0.21114376  0.02442115  0.30832616  1
  O  O1  1  0.81250348  0.76941534  0.31317165  1
  O  O2  1  0.99153727  0.19910020  0.30867243  1
  O  O3  1  0.19978544  0.17310930  0.81329848  1
  O  O4  1  0.98101203  0.80621545  0.80500413  1
  O  O5  1  0.83468515  0.01901793  0.81388511  1
  O  O6  1  0.79166193  0.95869250  0.69025905  1
  O  O7  1  0.15228774  0.18931119  0.69240150  1
  O  O8  1  0.03213261  0.82163687  0.69338203  1
  O  O9  1  0.80271758  0.83622572  0.19149330  1
  O  O10  1  0.03184767  0.20357749  0.19689056  1
  O  O11  1  0.18035633  0.97422320  0.19595399  1
  O  O12  1  0.89238177  0.36596480  0.63932875  1
  O  O13  1  0.47559599  0.10572840  0.63895493  1
  O  O14  1  0.64076945  0.52496552  0.64650741  1
  O  O15  1  0.89712458  0.52892445  0.14048390  1
  O  O16  1  0.62781882  0.11690281  0.14504954  1
  O  O17  1  0.47833540  0.39893422  0.14277980  1
  O  O18  1  0.45247481  0.29355746  0.02408394  1
  O  O19  1  0.83572452  0.52712825  0.02943502  1
  O  O20  1  0.69692146  0.15955995  0.02223335  1
  O  O21  1  0.45475747  0.14507550  0.52793147  1
  O  O22  1  0.70047952  0.53012892  0.52390643  1
  O  O23  1  0.85000796  0.30555284  0.52789660  1
  O  O24  1  0.54290057  0.69454699  0.97117355  1
  O  O25  1  0.16013949  0.47306436  0.96909405  1
  O  O26  1  0.30419609  0.83496110  0.97719466  1
  O  O27  1  0.53662392  0.84006275  0.47692359  1
  O  O28  1  0.31369171  0.46938770  0.47196592  1
  O  O29  1  0.16975010  0.67639310  0.47912103  1
  O  O30  1  0.14333297  0.62967767  0.35603667  1
  O  O31  1  0.50399642  0.88441966  0.35703237  1
  O  O32  1  0.36868060  0.49238637  0.36033954  1
  O  O33  1  0.12596603  0.48225825  0.85818652  1
  O  O34  1  0.36083427  0.85664510  0.85644287  1
  O  O35  1  0.51480835  0.63139297  0.86013384  1
  O  O36  1  0.04051685  0.84115880  0.41945801  1
  O  O37  1  0.82264300  0.00202200  0.41691905  1
  O  O38  1  0.18669169  0.21047816  0.41167829  1
  O  O39  1  0.02225503  0.20380714  0.91401625  1
  O  O40  1  0.15193377  0.97916112  0.91036718  1
  O  O41  1  0.79943119  0.82547535  0.91113445  1
  O  O42  1  0.97655061  0.17020679  0.58561698  1
  O  O43  1  0.19202449  0.01858880  0.58767346  1
  O  O44  1  0.84766735  0.82720407  0.58825232  1
  O  O45  1  0.97846047  0.80008705  0.08580454  1
  O  O46  1  0.83367237  0.00601230  0.08622689  1
  O  O47  1  0.17376313  0.14683465  0.09391383  1
  O  O48  1  0.69653868  0.17398778  0.74863730  1
  O  O49  1  0.47730127  0.31800773  0.75093177  1
  O  O50  1  0.85532037  0.54192886  0.74780999  1
  O  O51  1  0.67969843  0.50518275  0.24331815  1
  O  O52  1  0.85370141  0.31554195  0.24581618  1
  O  O53  1  0.46573454  0.14185905  0.24896641  1
  O  O54  1  0.64570124  0.50720482  0.92283937  1
  O  O55  1  0.86875458  0.36759519  0.92061226  1
  O  O56  1  0.50317070  0.14907448  0.92122002  1
  O  O57  1  0.63393461  0.16150581  0.42890816  1
  O  O58  1  0.49902131  0.36760383  0.42259611  1
  O  O59  1  0.85597779  0.49144639  0.42153561  1
  O  O60  1  0.33507665  0.50473786  0.06612538  1
  O  O61  1  0.13582125  0.64459270  0.07295759  1
  O  O62  1  0.49073720  0.84211516  0.07461668  1
  O  O63  1  0.34366743  0.85483348  0.57614767  1
  O  O64  1  0.49309093  0.65553144  0.57455448  1
  O  O65  1  0.14130467  0.48936670  0.57536344  1
  O  O66  1  0.29242025  0.82437113  0.25428556  1
  O  O67  1  0.50512503  0.68835500  0.25698547  1
  O  O68  1  0.17003216  0.47238734  0.25267294  1
  O  O69  1  0.29644101  0.48641596  0.75908517  1
  O  O70  1  0.16722738  0.70332021  0.75582407  1
  O  O71  1  0.51642416  0.82162819  0.75734416  1
loop_
_geom_bond_atom_site_label_1
_geom_bond_atom_site_label_2
_geom_bond_distance
_geom_bond_site_symmetry_2
Na0 O16 2.396093 1_565
Na0 O67 2.408634 1_555
Na0 O53 2.412470 1_565
Na0 O52 2.482583 1_565
Na0 O66 2.672993 1_555
Na0 O31 2.730537 1_555
Na0 O9 2.738481 1_555
Na1 O17 2.293605 1_555
Na1 O51 2.322150 1_555
Na1 O68 2.428639 1_555
Na1 O67 2.452311 1_555
Na1 O53 2.506377 1_555
Na1 O32 2.788390 1_555
Na1 O10 2.836275 1_555
Na2 O51 2.348537 1_555
Na2 O66 2.415309 1_655
Na2 O52 2.438133 1_555
Na2 O15 2.591111 1_555
Na2 O30 2.635301 1_655
Na2 O68 2.662049 1_655
Na2 O1 2.672325 1_555
Na2 O11 2.940515 1_655
Na3 O14 2.270852 1_555
Na3 O49 2.364478 1_555
Na3 O71 2.381080 1_555
Na3 O50 2.493562 1_555
Na3 O69 2.573623 1_555
Na3 O35 2.757367 1_555
Na3 O6 2.805377 1_555
Na4 O48 2.308306 1_555
Na4 O69 2.345782 1_655
Na4 O50 2.499040 1_555
Na4 O12 2.571808 1_555
Na4 O33 2.606652 1_655
Na4 O70 2.670540 1_655
Na4 O7 2.761362 1_655
Na4 O5 2.945956 1_555
Na5 O49 2.369133 1_555
Na5 O48 2.405809 1_555
Na5 O70 2.461181 1_545
Na5 O71 2.502926 1_545
Na5 O34 2.559942 1_545
Na5 O13 2.675360 1_555
Na6 O44 2.354659 1_455
Na6 O43 2.496515 1_565
Na6 O63 2.498293 1_555
Na6 O65 2.517669 1_555
Na6 O29 2.540444 1_555
Na6 O22 2.696109 1_455
Na6 O8 2.743812 1_555
Na6 O12 2.895093 1_455
Na7 O64 2.349275 1_555
Na7 O44 2.429167 1_555
Na7 O42 2.446428 1_565
Na7 O63 2.528492 1_555
Na7 O27 2.556209 1_555
Na7 O6 2.564358 1_555
Na7 O13 2.826024 1_565
Na7 O23 2.929774 1_565
Na8 O47 2.367025 1_565
Na8 O62 2.411373 1_555
Na8 O26 2.557811 1_554
Na8 O61 2.586821 1_555
Na8 O45 2.609180 1_455
Na8 O18 2.711834 1_565
Na8 O11 2.759292 1_555
Na8 O16 2.765974 1_565
Na9 O46 2.433127 1_565
Na9 O62 2.440017 1_555
Na9 O60 2.515123 1_555
Na9 O45 2.540758 1_555
Na9 O17 2.544528 1_555
Na9 O9 2.553768 1_555
Na9 O24 2.753357 1_554
Na9 O19 2.928836 1_555
Na10 O56 2.368256 1_555
Na10 O41 2.440392 1_545
Na10 O39 2.532008 1_655
Na10 O20 2.541635 1_556
Na10 O55 2.556659 1_555
Na10 O5 2.575755 1_555
Na10 O34 2.858612 1_545
Na10 O24 2.884836 1_545
Na11 O40 2.396219 1_545
Na11 O56 2.399417 1_555
Na11 O39 2.458380 1_555
Na11 O54 2.479091 1_555
Na11 O3 2.488904 1_555
Na11 O18 2.553095 1_556
Na11 O35 2.907886 1_555
Na11 O25 2.928859 1_555
Na12 O37 2.267644 1_555
Na12 O59 2.346233 1_555
Na12 O38 2.442980 1_655
Na12 O2 2.460406 1_555
Na12 O57 2.590420 1_555
Na12 O23 2.715344 1_555
Na12 O30 2.845349 1_655
Na12 O28 2.967041 1_655
Na13 O36 2.279683 1_545
Na13 O57 2.341443 1_555
Na13 O38 2.532493 1_555
Na13 O0 2.556070 1_555
Na13 O58 2.617327 1_555
Na13 O21 2.646772 1_555
Na13 O31 2.706692 1_545
Na14 O1 2.386209 1_555
Na14 O36 2.456665 1_655
Na14 O37 2.476800 1_565
Na14 O58 2.505180 1_555
Na14 O59 2.519019 1_555
Na14 O22 2.675296 1_555
Na14 O27 2.911875 1_555
Na14 O32 2.970980 1_555
Na15 O36 2.326257 1_655
Na15 O37 2.367041 1_565
Na15 O44 2.406714 1_555
Na15 O42 2.482732 1_565
Na15 O43 2.529158 1_665
Na15 O38 2.656379 1_665
Na16 O46 2.393620 1_455
Na16 O47 2.402775 1_555
Na16 O40 2.442329 1_544
Na16 O45 2.514834 1_445
Na16 O39 2.557025 1_554
Na16 O41 2.610996 1_444
Na17 O48 2.362478 1_555
Na17 O49 2.372022 1_555
Na17 O56 2.461944 1_555
Na17 O55 2.548439 1_555
Na17 O54 2.551433 1_555
Na17 O50 2.609801 1_555
Na18 O51 2.375776 1_555
Na18 O59 2.434947 1_555
Na18 O52 2.532938 1_555
Na18 O53 2.536998 1_555
Na18 O58 2.595858 1_555
Na18 O57 2.600070 1_555
Na19 O60 2.426292 1_555
Na19 O62 2.437684 1_555
Na19 O67 2.467287 1_555
Na19 O68 2.553367 1_555
Na19 O61 2.598419 1_555
Na19 O66 2.647866 1_555
Na20 O64 2.342246 1_555
Na20 O69 2.401331 1_555
Na20 O71 2.474344 1_555
Na20 O65 2.560523 1_555
Na20 O63 2.701428 1_555
Na20 O70 2.727534 1_555
Al0 O3 1.764149 1_555
Al0 O5 1.829460 1_455
Al0 O40 1.880441 1_545
Al0 O4 1.910823 1_445
Al0 O39 2.167535 1_555
Al0 O41 2.243655 1_445
Al1 O6 1.785299 1_555
Al1 O7 1.816340 1_665
Al1 O44 1.934621 1_555
Al1 O8 2.037195 1_655
Al1 O42 2.114109 1_565
Al1 O43 2.242947 1_665
Al2 O46 1.798717 1_555
Al2 O47 1.881500 1_655
Al2 O9 1.889935 1_545
Al2 O10 1.923579 1_655
Al2 O45 2.189423 1_545
Al2 O11 2.235647 1_645
Al3 O20 1.756416 1_556
Al3 O18 1.779001 1_556
Al3 O56 1.869250 1_555
Al3 O19 2.129731 1_556
Al3 O54 2.289060 1_555
Al3 O55 2.367528 1_555
Al4 O22 1.790836 1_555
Al4 O57 1.842458 1_555
Al4 O59 1.847060 1_555
Al4 O23 1.977837 1_555
Al4 O58 2.141967 1_555
Al4 O21 2.283285 1_555
Al5 O26 1.812095 1_554
Al5 O60 1.826350 1_555
Al5 O62 1.856703 1_555
Al5 O61 1.983386 1_555
Al5 O25 1.986682 1_554
Al5 O24 2.098560 1_554
Al6 O27 1.777168 1_555
Al6 O29 1.806145 1_555
Al6 O64 1.851958 1_555
Al6 O28 1.916939 1_555
Al6 O63 2.064473 1_555
Al6 O65 2.220045 1_555
Al7 O31 1.802172 1_555
Al7 O30 1.839440 1_555
Al7 O67 1.909242 1_555
Al7 O32 2.039090 1_555
Al7 O66 2.062406 1_555
Al7 O68 2.234598 1_555
Al8 O34 1.804455 1_555
Al8 O71 1.844780 1_555
Al8 O69 1.872590 1_555
Al8 O35 1.995134 1_555
Al8 O70 2.127080 1_555
Al8 O33 2.139571 1_555
O0 S0 1.480819 1_545
O0 Zn0 2.140103 1_445
O1 Si0 1.621360 1_555
O1 Zn0 1.893904 1_555
O2 S1 1.478711 1_655
O2 Zn0 2.193897 1_545
O3 Si1 1.631669 1_555
O4 S2 1.478919 1_655
O5 Si2 1.647213 1_545
O6 Si2 1.644062 1_555
O7 Si1 1.646975 1_555
O8 S2 1.500709 1_555
O9 Si0 1.669499 1_555
O10 S1 1.496462 1_555
O11 S0 1.486171 1_555
O12 S3 1.475006 1_555
O12 Zn1 2.304534 1_555
O13 S4 1.482013 1_555
O13 Zn1 2.052297 1_555
O14 Si3 1.609387 1_555
O14 Zn1 1.945764 1_555
O15 S5 1.476164 1_555
O15 Zn2 2.121158 1_555
O16 Si4 1.630041 1_555
O16 Zn2 1.937642 1_555
O17 Si5 1.628959 1_555
O17 Zn2 1.952121 1_555
O18 Si5 1.664901 1_555
O19 S5 1.489197 1_555
O20 Si4 1.639357 1_555
O21 S4 1.480657 1_555
O22 Si3 1.659666 1_555
O23 S3 1.514657 1_555
O24 S6 1.485781 1_555
O25 S7 1.475792 1_555
O26 Si6 1.622950 1_555
O27 Si7 1.623905 1_555
O28 S8 1.475268 1_555
O29 Si8 1.630568 1_555
O30 Si8 1.656909 1_555
O31 Si7 1.648268 1_555
O32 S8 1.499600 1_555
O33 S7 1.491915 1_555
O34 Si6 1.644846 1_555
O35 S6 1.510555 1_555
O36 Si8 1.634635 1_555
O36 Zn0 2.065468 1_455
O37 Si7 1.630818 1_545
O37 Zn0 2.031791 1_545
O38 S8 1.475180 1_555
O38 Zn0 2.307252 1_445
O39 S7 1.521363 1_555
O40 Si6 1.664438 1_555
O41 S6 1.486126 1_555
O42 S3 1.496789 1_555
O43 S4 1.489968 1_555
O44 Si3 1.708570 1_555
O45 S5 1.509269 1_555
O46 Si4 1.638763 1_555
O47 Si5 1.655611 1_555
O48 Si2 1.639805 1_545
O48 Zn1 2.148323 1_555
O49 Si1 1.632146 1_555
O49 Zn1 2.010065 1_555
O50 S2 1.474032 1_655
O50 Zn1 2.282691 1_555
O51 Si0 1.648638 1_555
O51 Zn2 2.048981 1_555
O52 S1 1.477808 1_655
O52 Zn2 2.496569 1_555
O53 S0 1.480771 1_545
O53 Zn2 2.398899 1_555
O54 S6 1.488596 1_555
O55 S7 1.483765 1_655
O56 Si6 1.709836 1_545
O57 Si7 1.661233 1_545
O58 S8 1.495215 1_555
O59 Si8 1.667171 1_655
O60 Si5 1.629229 1_555
O61 S5 1.488156 1_455
O62 Si4 1.665510 1_565
O63 S4 1.516882 1_565
O64 Si3 1.660711 1_555
O65 S3 1.482076 1_455
O66 S0 1.519810 1_555
O67 Si0 1.692822 1_555
O68 S1 1.503603 1_555
O69 Si1 1.673487 1_555
O70 S2 1.493251 1_555
O71 Si2 1.662460 1_555
