# generated using pymatgen
data_Nb2Bi2PbO9
_symmetry_space_group_name_H-M   'P 1'
_cell_length_a   12.86882012
_cell_length_b   12.86882012
_cell_length_c   12.86882012
_cell_angle_alpha   162.27668972
_cell_angle_beta   162.27668972
_cell_angle_gamma   25.16655742
_symmetry_Int_Tables_number   1
_chemical_formula_structural   Nb2Bi2PbO9
_chemical_formula_sum   'Nb2 Bi2 Pb1 O9'
_cell_volume   197.44037681
_cell_formula_units_Z   1
loop_
 _symmetry_equiv_pos_site_id
 _symmetry_equiv_pos_as_xyz
  1  'x, y, z'
loop_
 _atom_site_type_symbol
 _atom_site_label
 _atom_site_symmetry_multiplicity
 _atom_site_fract_x
 _atom_site_fract_y
 _atom_site_fract_z
 _atom_site_occupancy
  Nb  Nb0  1  0.41226600  0.41226600  0.00000000  1
  Nb  Nb1  1  0.58773400  0.58773400  0.00000000  1
  Bi  Bi0  1  0.20111500  0.20111500  0.00000000  1
  Bi  Bi1  1  0.79888500  0.79888500  0.00000000  1
  Pb  Pb0  1  0.00000000  0.00000000  0.00000000  1
  O  O0  1  0.57986700  0.07986700  0.50000000  1
  O  O1  1  0.92013300  0.42013300  0.50000000  1
  O  O2  1  0.42013300  0.92013300  0.50000000  1
  O  O3  1  0.07986700  0.57986700  0.50000000  1
  O  O4  1  0.75000000  0.25000000  0.50000000  1
  O  O5  1  0.50000000  0.50000000  0.00000000  1
  O  O6  1  0.66338300  0.66338300  0.00000000  1
  O  O7  1  0.33661700  0.33661700  0.00000000  1
  O  O8  1  0.25000000  0.75000000  0.50000000  1
loop_
_geom_bond_atom_site_label_1
_geom_bond_atom_site_label_2
_geom_bond_distance
_geom_bond_site_symmetry_2
Nb0 O7 1.900260 1_555
Nb0 O1 1.992256 1_454
Nb0 O2 1.992256 1_555
Nb0 O1 1.992256 1_555
Nb0 O2 1.992256 1_544
Nb0 O5 2.203828 1_555
Nb1 O6 1.900260 1_555
Nb1 O3 1.992256 1_655
Nb1 O0 1.992256 1_565
Nb1 O3 1.992256 1_554
Nb1 O0 1.992256 1_554
Nb1 O5 2.203828 1_555
Bi0 O8 2.331936 1_544
Bi0 O8 2.331936 1_555
Bi0 O4 2.331936 1_454
Bi0 O4 2.331936 1_555
Bi1 O4 2.331936 1_565
Bi1 O4 2.331936 1_554
Bi1 O8 2.331936 1_655
Bi1 O8 2.331936 1_554
O0 Pb0 2.820448 1_555
O0 Pb0 2.820448 1_656
O1 Pb0 2.820448 1_655
O1 Pb0 2.820448 1_666
O2 Pb0 2.820448 1_565
O2 Pb0 2.820448 1_666
O3 Pb0 2.820448 1_555
O3 Pb0 2.820448 1_566
O5 Pb0 2.803581 1_655
O5 Pb0 2.803581 1_554
O5 Pb0 2.803581 1_565
O5 Pb0 2.803581 1_666
