# generated using pymatgen
data_Na3ScGa(PO4)3
_symmetry_space_group_name_H-M   'P 1'
_cell_length_a   8.89435793
_cell_length_b   8.88564658
_cell_length_c   22.15851737
_cell_angle_alpha   90.03815754
_cell_angle_beta   89.90634858
_cell_angle_gamma   119.93601234
_symmetry_Int_Tables_number   1
_chemical_formula_structural   Na3ScGa(PO4)3
_chemical_formula_sum   'Na18 Sc6 Ga6 P18 O72'
_cell_volume   1517.58856649
_cell_formula_units_Z   6
loop_
 _symmetry_equiv_pos_site_id
 _symmetry_equiv_pos_as_xyz
  1  'x, y, z'
loop_
 _atom_site_type_symbol
 _atom_site_label
 _atom_site_symmetry_multiplicity
 _atom_site_fract_x
 _atom_site_fract_y
 _atom_site_fract_z
 _atom_site_occupancy
  Na  Na0  1  0.00046911  0.00027776  0.50107883  1
  Na  Na1  1  0.99905481  0.99906924  0.00181709  1
  Na  Na2  1  0.64278643  0.31993676  0.83194640  1
  Na  Na3  1  0.68034563  0.35725912  0.33317830  1
  Na  Na4  1  0.33289928  0.66654363  0.16884165  1
  Na  Na5  1  0.33330235  0.66631634  0.66636173  1
  Na  Na6  1  0.63547085  0.99954240  0.24989476  1
  Na  Na7  1  0.36492425  0.36352893  0.24992566  1
  Na  Na8  1  0.63603004  0.63381526  0.74864366  1
  Na  Na9  1  -0.00007235  0.36434006  0.74857505  1
  Na  Na10  1  0.03294497  0.70124324  0.58392502  1
  Na  Na11  1  0.66526075  0.96641408  0.58376373  1
  Na  Na12  1  0.30077774  0.96895184  0.08508205  1
  Na  Na13  1  0.03077296  0.33424863  0.08489545  1
  Na  Na14  1  0.96872418  0.66488508  0.91736773  1
  Na  Na15  1  0.69691498  0.02898363  0.91680668  1
  Na  Na16  1  0.96977002  0.30171202  0.41679596  1
  Na  Na17  1  0.33540426  0.03364123  0.41760701  1
  Sc  Sc0  1  0.99263111  0.98998862  0.35020067  1
  Sc  Sc1  1  0.01008888  0.00759845  0.84952669  1
  Sc  Sc2  1  0.66161631  0.33649349  0.98414898  1
  Sc  Sc3  1  0.34048613  0.66526200  0.02039407  1
  Sc  Sc4  1  0.33436678  0.65973808  0.51970358  1
  Sc  Sc5  1  0.33449410  0.67127329  0.81312523  1
  Ga  Ga0  1  0.00841765  0.00670668  0.64826587  1
  Ga  Ga1  1  0.99427366  0.99238986  0.15170545  1
  Ga  Ga2  1  0.65971454  0.32863636  0.68286615  1
  Ga  Ga3  1  0.67185989  0.34056272  0.18431566  1
  Ga  Ga4  1  0.66381711  0.33884061  0.48326647  1
  Ga  Ga5  1  0.32819916  0.66459331  0.31643571  1
  P  P0  1  0.29615036  0.99702660  0.24888854  1
  P  P1  1  0.70330264  0.70202324  0.24833206  1
  P  P2  1  0.00025624  0.29910418  0.24881834  1
  P  P3  1  0.29778243  0.29058342  0.74603398  1
  P  P4  1  0.99622303  0.70370929  0.74614340  1
  P  P5  1  0.70848991  0.00524007  0.74600694  1
  P  P6  1  0.95194789  0.32796350  0.58434574  1
  P  P7  1  0.37415701  0.04883831  0.58268325  1
  P  P8  1  0.67113736  0.62472257  0.58584889  1
  P  P9  1  0.95734727  0.63170465  0.08534363  1
  P  P10  1  0.67251472  0.04185265  0.08702145  1
  P  P11  1  0.36862470  0.32780079  0.08919681  1
  P  P12  1  0.62923203  0.66619373  0.91395061  1
  P  P13  1  0.03779780  0.37026338  0.91733658  1
  P  P14  1  0.33377039  0.96211110  0.91879934  1
  P  P15  1  0.62476871  0.96231070  0.41676241  1
  P  P16  1  0.34133083  0.37718126  0.41403063  1
  P  P17  1  0.03721394  0.66029502  0.41821090  1
  O  O0  1  0.21368176  0.02974123  0.30505903  1
  O  O1  1  0.81339055  0.78430500  0.30501548  1
  O  O2  1  0.96723915  0.18326115  0.30525149  1
  O  O3  1  0.21608096  0.18478921  0.80361475  1
  O  O4  1  0.96878574  0.78638673  0.80345787  1
  O  O5  1  0.81927029  0.03449601  0.80357448  1
  O  O6  1  0.79620529  0.97348808  0.69041738  1
  O  O7  1  0.17546686  0.20677153  0.69149622  1
  O  O8  1  0.02117383  0.81556052  0.68933119  1
  O  O9  1  0.78732953  0.82492482  0.19358575  1
  O  O10  1  0.03445812  0.21310932  0.19286563  1
  O  O11  1  0.18495127  0.97135515  0.19172076  1
  O  O12  1  0.86948383  0.36098688  0.64088807  1
  O  O13  1  0.49593282  0.13355630  0.63706310  1
  O  O14  1  0.64542538  0.51959972  0.64410252  1
  O  O15  1  0.86773198  0.50575986  0.13851638  1
  O  O16  1  0.63982079  0.12904689  0.14246413  1
  O  O17  1  0.47772401  0.35339685  0.14638900  1
  O  O18  1  0.45458785  0.29752522  0.03362194  1
  O  O19  1  0.85746407  0.55488951  0.02587336  1
  O  O20  1  0.70218452  0.15259654  0.02926158  1
  O  O21  1  0.45330200  0.15187159  0.52346636  1
  O  O22  1  0.70413344  0.53851066  0.53046209  1
  O  O23  1  0.83811889  0.29629486  0.52695981  1
  O  O24  1  0.53872476  0.69380058  0.96866213  1
  O  O25  1  0.14348442  0.45776320  0.97469955  1
  O  O26  1  0.30819113  0.85443350  0.97670207  1
  O  O27  1  0.54114953  0.85572649  0.47428289  1
  O  O28  1  0.30655825  0.46280174  0.46865322  1
  O  O29  1  0.14680272  0.69159365  0.47575553  1
  O  O30  1  0.12521917  0.62581408  0.36310726  1
  O  O31  1  0.50997880  0.87617750  0.35992597  1
  O  O32  1  0.36477438  0.48265438  0.35541448  1
  O  O33  1  0.12389103  0.48097860  0.86030950  1
  O  O34  1  0.36022878  0.87035786  0.86392403  1
  O  O35  1  0.52726470  0.64582206  0.85538812  1
  O  O36  1  0.02565565  0.82720626  0.41080249  1
  O  O37  1  0.81058392  0.99046315  0.41171801  1
  O  O38  1  0.17694940  0.19298009  0.40989929  1
  O  O39  1  0.01074431  0.18476577  0.91329301  1
  O  O40  1  0.16689587  0.97310027  0.91244746  1
  O  O41  1  0.81160686  0.83077820  0.91112997  1
  O  O42  1  0.96660262  0.16099786  0.58956087  1
  O  O43  1  0.18846332  0.02249571  0.58883412  1
  O  O44  1  0.83696057  0.81024676  0.58889686  1
  O  O45  1  0.98196851  0.81626216  0.09206981  1
  O  O46  1  0.83971230  0.02947052  0.09295958  1
  O  O47  1  0.18489810  0.16186523  0.09259898  1
  O  O48  1  0.69421370  0.17158247  0.74070185  1
  O  O49  1  0.48208462  0.31521253  0.74090912  1
  O  O50  1  0.83027042  0.52001555  0.74263161  1
  O  O51  1  0.67849394  0.51733776  0.24212207  1
  O  O52  1  0.83352580  0.31236195  0.24221669  1
  O  O53  1  0.48043951  0.16276544  0.24387322  1
  O  O54  1  0.65363074  0.50638474  0.92000961  1
  O  O55  1  0.85528029  0.35346907  0.92087850  1
  O  O56  1  0.49918617  0.14132839  0.92242425  1
  O  O57  1  0.64143649  0.14626937  0.42111345  1
  O  O58  1  0.50228826  0.35432781  0.42159898  1
  O  O59  1  0.85645043  0.49414888  0.42383959  1
  O  O60  1  0.34210520  0.48639465  0.08293266  1
  O  O61  1  0.14130802  0.65017294  0.08172489  1
  O  O62  1  0.50669186  0.86205409  0.08181077  1
  O  O63  1  0.35396688  0.86351489  0.57932232  1
  O  O64  1  0.51327331  0.65246896  0.58036982  1
  O  O65  1  0.13246108  0.49324564  0.57938122  1
  O  O66  1  0.32135964  0.83639752  0.25558452  1
  O  O67  1  0.51981141  0.68532869  0.25457049  1
  O  O68  1  0.16785136  0.47867253  0.25543521  1
  O  O69  1  0.31613862  0.47431948  0.75119817  1
  O  O70  1  0.15455721  0.67590544  0.75071948  1
  O  O71  1  0.52883016  0.83912479  0.75092316  1
loop_
_geom_bond_atom_site_label_1
_geom_bond_atom_site_label_2
_geom_bond_distance
_geom_bond_site_symmetry_2
Na0 O43 2.509321 1_555
Na0 O44 2.509383 1_445
Na0 O42 2.529420 1_455
Na0 O37 2.577697 1_445
Na0 O36 2.599040 1_545
Na0 O38 2.605676 1_555
Na1 O39 2.532503 1_664
Na1 O45 2.533389 1_555
Na1 O47 2.547903 1_665
Na1 O46 2.555838 1_565
Na1 O40 2.556742 1_654
Na1 O41 2.563689 1_554
Na2 O49 2.462418 1_555
Na2 O56 2.478357 1_555
Na2 O54 2.529542 1_555
Na2 O48 2.574884 1_555
Na2 O50 2.625488 1_555
Na2 O55 2.644521 1_555
Na3 O59 2.464587 1_555
Na3 O51 2.474229 1_555
Na3 O58 2.509243 1_555
Na3 O52 2.571063 1_555
Na3 O57 2.605067 1_555
Na3 O53 2.646526 1_555
Na4 O66 2.476479 1_555
Na4 O67 2.476522 1_555
Na4 O68 2.484490 1_555
Na4 O60 2.513777 1_555
Na4 O61 2.532664 1_555
Na4 O62 2.537905 1_555
Na5 O70 2.480754 1_555
Na5 O69 2.492193 1_555
Na5 O71 2.496958 1_555
Na5 O64 2.528737 1_555
Na5 O63 2.550641 1_555
Na5 O65 2.556605 1_555
Na6 O66 2.424803 1_555
Na6 O52 2.443549 1_565
Na6 O67 2.449007 1_555
Na6 O53 2.453476 1_565
Na6 O16 2.636548 1_565
Na6 O31 2.676831 1_555
Na6 O9 2.805738 1_555
Na6 O2 2.842262 1_565
Na7 O51 2.422949 1_555
Na7 O68 2.433755 1_555
Na7 O53 2.466676 1_555
Na7 O67 2.480548 1_555
Na7 O17 2.521997 1_555
Na7 O32 2.565606 1_555
Na7 O10 2.848398 1_555
Na7 O0 2.848885 1_555
Na8 O50 2.401592 1_555
Na8 O71 2.444493 1_555
Na8 O49 2.459678 1_555
Na8 O69 2.466194 1_555
Na8 O14 2.546352 1_555
Na8 O35 2.576252 1_555
Na8 O4 2.842116 1_555
Na8 O6 2.917443 1_555
Na9 O48 2.389688 1_455
Na9 O70 2.399588 1_555
Na9 O69 2.475034 1_555
Na9 O50 2.508399 1_455
Na9 O12 2.648643 1_455
Na9 O33 2.699027 1_555
Na9 O5 2.820503 1_455
Na9 O7 2.858422 1_555
Na10 O44 2.381843 1_455
Na10 O65 2.416941 1_555
Na10 O63 2.476348 1_555
Na10 O43 2.476443 1_565
Na10 O8 2.569085 1_555
Na10 O29 2.618466 1_555
Na10 O22 2.799238 1_455
Na10 O12 2.908578 1_455
Na11 O42 2.359089 1_565
Na11 O64 2.418941 1_555
Na11 O63 2.446595 1_555
Na11 O44 2.527164 1_555
Na11 O6 2.623216 1_555
Na11 O27 2.644433 1_555
Na11 O23 2.835620 1_565
Na11 O13 2.844831 1_565
Na12 O47 2.406400 1_565
Na12 O62 2.448984 1_555
Na12 O61 2.455791 1_555
Na12 O45 2.462616 1_455
Na12 O11 2.580555 1_555
Na12 O26 2.621141 1_554
Na12 O18 2.776456 1_565
Na12 O16 2.909064 1_565
Na13 O46 2.379132 1_455
Na13 O60 2.400171 1_555
Na13 O61 2.469280 1_555
Na13 O47 2.520198 1_555
Na13 O10 2.631059 1_555
Na13 O25 2.658806 1_554
Na13 O20 2.822664 1_455
Na13 O15 2.834584 1_455
Na14 O40 2.408522 1_655
Na14 O55 2.427868 1_555
Na14 O54 2.429284 1_555
Na14 O41 2.490328 1_555
Na14 O19 2.597181 1_556
Na14 O4 2.745827 1_555
Na14 O33 2.901043 1_655
Na14 O26 2.935346 1_655
Na15 O56 2.419971 1_555
Na15 O39 2.420054 1_655
Na15 O41 2.439391 1_545
Na15 O55 2.500413 1_555
Na15 O20 2.713527 1_556
Na15 O5 2.723994 1_555
Na15 O24 2.826165 1_545
Na15 O34 2.850267 1_545
Na16 O59 2.383971 1_555
Na16 O37 2.399592 1_545
Na16 O38 2.475530 1_655
Na16 O57 2.533503 1_555
Na16 O2 2.681504 1_555
Na16 O23 2.695703 1_555
Na16 O30 2.765077 1_655
Na16 O28 2.841123 1_655
Na17 O57 2.387142 1_555
Na17 O36 2.436134 1_545
Na17 O38 2.452075 1_555
Na17 O58 2.471724 1_555
Na17 O21 2.571143 1_555
Na17 O0 2.713688 1_555
Na17 O31 2.856868 1_545
Na17 O29 2.936187 1_545
Ga0 O7 1.910923 1_555
Ga0 O8 1.979990 1_545
Ga0 O6 1.990148 1_445
Ga0 O43 2.021764 1_555
Ga0 O42 2.054966 1_455
Ga0 O44 2.109530 1_445
Ga1 O9 1.930286 1_555
Ga1 O11 2.004721 1_655
Ga1 O45 2.008530 1_555
Ga1 O10 2.026101 1_665
Ga1 O46 2.037499 1_565
Ga1 O47 2.074806 1_665
Ga2 O13 1.907649 1_555
Ga2 O14 1.962324 1_555
Ga2 O12 1.971882 1_555
Ga2 O49 1.992479 1_555
Ga2 O48 2.028566 1_555
Ga2 O50 2.091825 1_555
Ga3 O15 1.914045 1_555
Ga3 O17 1.975404 1_555
Ga3 O16 1.984330 1_555
Ga3 O51 2.004133 1_555
Ga3 O52 2.035328 1_555
Ga3 O53 2.108816 1_555
Ga4 O22 1.932306 1_555
Ga4 O21 1.987773 1_555
Ga4 O23 2.018434 1_555
Ga4 O58 2.038195 1_555
Ga4 O59 2.051627 1_555
Ga4 O57 2.126520 1_555
Ga5 O30 1.954767 1_555
Ga5 O32 1.998260 1_555
Ga5 O31 2.011529 1_555
Ga5 O68 2.059620 1_555
Ga5 O66 2.061065 1_555
Ga5 O67 2.120609 1_555
O0 P0 1.543062 1_545
O0 Sc0 2.071661 1_445
O1 P1 1.535963 1_555
O1 Sc0 1.994752 1_555
O2 P2 1.551865 1_655
O2 Sc0 2.093430 1_545
O3 P3 1.535078 1_555
O3 Sc1 1.996919 1_555
O4 P4 1.545587 1_555
O4 Sc1 2.078100 1_665
O5 P5 1.553589 1_555
O5 Sc1 2.094102 1_655
O6 P5 1.556163 1_565
O7 P3 1.546952 1_555
O8 P4 1.549971 1_455
O9 P1 1.551440 1_555
O10 P2 1.563042 1_555
O11 P0 1.553527 1_555
O12 P6 1.550849 1_555
O13 P7 1.543073 1_555
O14 P8 1.542223 1_555
O15 P9 1.544132 1_555
O16 P10 1.554525 1_555
O17 P11 1.543613 1_555
O18 P11 1.541175 1_555
O18 Sc2 2.017399 1_554
O19 P9 1.545664 1_555
O19 Sc2 2.069798 1_554
O20 P10 1.554808 1_555
O20 Sc2 2.095561 1_554
O21 P7 1.552683 1_555
O22 P8 1.549566 1_555
O23 P6 1.562220 1_555
O24 P12 1.539949 1_555
O24 Sc3 2.008665 1_556
O25 P13 1.541724 1_555
O25 Sc3 2.067316 1_556
O26 P14 1.548163 1_555
O26 Sc3 2.080927 1_556
O27 P15 1.539517 1_555
O27 Sc4 2.056190 1_555
O28 P16 1.540069 1_555
O28 Sc4 1.992300 1_555
O29 P17 1.544783 1_555
O29 Sc4 2.070877 1_555
O30 P17 1.559867 1_555
O31 P15 1.561187 1_555
O32 P16 1.553871 1_555
O33 P13 1.548413 1_555
O33 Sc5 2.072629 1_555
O34 P14 1.545269 1_555
O34 Sc5 2.010680 1_555
O35 P12 1.542367 1_555
O35 Sc5 2.064081 1_555
O36 P17 1.545865 1_555
O36 Sc0 2.099900 1_455
O37 P15 1.547034 1_555
O37 Sc0 2.116489 1_555
O38 P16 1.561024 1_555
O38 Sc0 2.177960 1_445
O39 P13 1.544907 1_555
O39 Sc1 2.112502 1_555
O40 P14 1.541969 1_555
O40 Sc1 2.101584 1_565
O41 P12 1.551133 1_555
O41 Sc1 2.162192 1_665
O42 P6 1.557141 1_555
O43 P7 1.553928 1_555
O44 P8 1.571924 1_555
O45 P9 1.549463 1_555
O46 P10 1.550771 1_555
O47 P11 1.563657 1_555
O48 P5 1.549903 1_555
O49 P3 1.545738 1_555
O50 P4 1.563513 1_555
O51 P1 1.548889 1_555
O52 P2 1.552269 1_655
O53 P0 1.567894 1_545
O54 P12 1.545783 1_555
O54 Sc2 2.100958 1_555
O55 P13 1.556147 1_655
O55 Sc2 2.165279 1_555
O56 P14 1.539099 1_545
O56 Sc2 2.113761 1_555
O57 P15 1.568803 1_545
O58 P16 1.552372 1_555
O59 P17 1.552612 1_655
O60 P11 1.546898 1_555
O60 Sc3 2.114811 1_555
O61 P9 1.562739 1_455
O61 Sc3 2.181420 1_555
O62 P10 1.545829 1_565
O62 Sc3 2.125682 1_555
O63 P7 1.566593 1_565
O63 Sc4 2.176399 1_555
O64 P8 1.546971 1_555
O64 Sc4 2.110222 1_555
O65 P6 1.546938 1_455
O65 Sc4 2.122615 1_555
O66 P0 1.558607 1_555
O67 P1 1.569177 1_555
O68 P2 1.554338 1_555
O69 P3 1.561715 1_555
O69 Sc5 2.164418 1_555
O70 P4 1.549943 1_455
O70 Sc5 2.132673 1_555
O71 P5 1.545831 1_565
O71 Sc5 2.129282 1_555
