# generated using pymatgen
data_Na10Ca2Hf6Si7S5O48
_symmetry_space_group_name_H-M   'P 1'
_cell_length_a   18.34825958
_cell_length_b   9.17954338
_cell_length_c   23.11145812
_cell_angle_alpha   89.99287059
_cell_angle_beta   89.94557444
_cell_angle_gamma   119.99438893
_symmetry_Int_Tables_number   1
_chemical_formula_structural   Na10Ca2Hf6Si7S5O48
_chemical_formula_sum   'Na30 Ca6 Hf18 Si21 S15 O144'
_cell_volume   3371.30608972
_cell_formula_units_Z   3
loop_
 _symmetry_equiv_pos_site_id
 _symmetry_equiv_pos_as_xyz
  1  'x, y, z'
loop_
 _atom_site_type_symbol
 _atom_site_label
 _atom_site_symmetry_multiplicity
 _atom_site_fract_x
 _atom_site_fract_y
 _atom_site_fract_z
 _atom_site_occupancy
  Na  Na0  1  0.81630821  0.01143523  0.24953883  1
  Na  Na1  1  0.18911100  0.38031642  0.24753956  1
  Na  Na2  1  0.69091759  0.36180380  0.25495378  1
  Na  Na3  1  0.99094675  0.61064595  0.25475621  1
  Na  Na4  1  0.49484899  0.63922065  0.24416874  1
  Na  Na5  1  0.31761371  0.62125548  0.75026235  1
  Na  Na6  1  0.99488444  0.34958226  0.74614264  1
  Na  Na7  1  0.49088620  0.37441940  0.75441317  1
  Na  Na8  1  0.19327710  0.02369460  0.74726729  1
  Na  Na9  1  0.68859298  0.99551463  0.74830962  1
  Na  Na10  1  0.14862005  0.32696215  0.57972735  1
  Na  Na11  1  0.01677194  0.69042529  0.58355669  1
  Na  Na12  1  0.48969346  0.66512649  0.91790626  1
  Na  Na13  1  0.99576888  0.68139185  0.92150472  1
  Na  Na14  1  0.84760647  0.02193439  0.91336401  1
  Na  Na15  1  0.49611019  0.31339198  0.42105918  1
  Na  Na16  1  0.16325344  0.02211989  0.42006123  1
  Na  Na17  1  0.34883007  0.66931116  0.41241206  1
  Na  Na18  1  0.99687962  0.00386115  0.50036669  1
  Na  Na19  1  0.51424717  0.01096135  0.49421584  1
  Na  Na20  1  0.01241934  0.01585203  0.99465444  1
  Na  Na21  1  0.50453767  0.01308478  0.00125375  1
  Na  Na22  1  0.32738072  0.31527678  0.82949090  1
  Na  Na23  1  0.83147038  0.33071875  0.83250781  1
  Na  Na24  1  0.33772999  0.34454686  0.33223777  1
  Na  Na25  1  0.83100234  0.33823643  0.33063075  1
  Na  Na26  1  0.17520066  0.67048173  0.16478559  1
  Na  Na27  1  0.65976389  0.67187757  0.16238242  1
  Na  Na28  1  0.16976241  0.67816880  0.66365913  1
  Na  Na29  1  0.67368124  0.68020545  0.66515555  1
  Ca  Ca0  1  0.33076881  0.32578921  0.68489024  1
  Ca  Ca1  1  0.83795524  0.33125008  0.68233769  1
  Ca  Ca2  1  0.33978937  0.34506930  0.18145095  1
  Ca  Ca3  1  0.83201659  0.33103249  0.18513279  1
  Ca  Ca4  1  0.16425668  0.66754535  0.01593318  1
  Ca  Ca5  1  0.66331174  0.66142390  0.51551942  1
  Hf  Hf0  1  0.99598798  0.99833928  0.35464194  1
  Hf  Hf1  1  0.50228166  0.99095460  0.35446662  1
  Hf  Hf2  1  0.00122569  0.01268642  0.85470018  1
  Hf  Hf3  1  0.49930132  0.00337183  0.85478582  1
  Hf  Hf4  1  0.99855769  0.01803828  0.64626737  1
  Hf  Hf5  1  0.49616544  0.98919839  0.64929544  1
  Hf  Hf6  1  0.99531377  0.00452758  0.14833794  1
  Hf  Hf7  1  0.49561151  0.97146970  0.14619458  1
  Hf  Hf8  1  0.33624221  0.32502463  0.98110588  1
  Hf  Hf9  1  0.83184822  0.33688077  0.97728183  1
  Hf  Hf10  1  0.33016067  0.32387747  0.47969635  1
  Hf  Hf11  1  0.83575695  0.33971904  0.47803981  1
  Hf  Hf12  1  0.66114548  0.66040356  0.01375010  1
  Hf  Hf13  1  0.16394866  0.66978541  0.51367354  1
  Hf  Hf14  1  0.16874676  0.66287493  0.31744939  1
  Hf  Hf15  1  0.66552798  0.66245983  0.31752074  1
  Hf  Hf16  1  0.16580581  0.67013215  0.81763162  1
  Hf  Hf17  1  0.67039521  0.67605765  0.81759996  1
  Si  Si0  1  0.64332054  0.99140797  0.25043348  1
  Si  Si1  1  0.35060173  0.70959945  0.25236730  1
  Si  Si2  1  0.85296228  0.71394401  0.25142877  1
  Si  Si3  1  0.00432890  0.29499413  0.25139836  1
  Si  Si4  1  0.14393513  0.29768315  0.75048487  1
  Si  Si5  1  0.50423967  0.71387132  0.75285070  1
  Si  Si6  1  0.35317748  0.99236124  0.75182446  1
  Si  Si7  1  0.85081006  0.99061093  0.75186842  1
  Si  Si8  1  0.98247383  0.33725084  0.58267424  1
  Si  Si9  1  0.18222067  0.02868564  0.58507602  1
  Si  Si10  1  0.48511690  0.63140410  0.08251597  1
  Si  Si11  1  0.81147932  0.66651651  0.91755671  1
  Si  Si12  1  0.01932485  0.37264029  0.91752341  1
  Si  Si13  1  0.51986479  0.37192854  0.91452029  1
  Si  Si14  1  0.16815962  0.96854017  0.91569003  1
  Si  Si15  1  0.66551906  0.96031239  0.91707241  1
  Si  Si16  1  0.31275311  0.95778456  0.41617849  1
  Si  Si17  1  0.16545919  0.37082431  0.41842541  1
  Si  Si18  1  0.66776663  0.36807981  0.41555912  1
  Si  Si19  1  0.01805226  0.66361015  0.41375571  1
  Si  Si20  1  0.51840728  0.66506386  0.41750689  1
  S  S0  1  0.14071644  0.99458955  0.25045009  1
  S  S1  1  0.50204803  0.28857613  0.25161109  1
  S  S2  1  0.64081308  0.28754789  0.75016778  1
  S  S3  1  0.00156010  0.71352700  0.75146452  1
  S  S4  1  0.48168056  0.32569192  0.58467152  1
  S  S5  1  0.68235662  0.03984829  0.58451508  1
  S  S6  1  0.33590140  0.63569643  0.58169847  1
  S  S7  1  0.83427609  0.62799064  0.58397522  1
  S  S8  1  0.98069357  0.63642343  0.08456182  1
  S  S9  1  0.33705094  0.03989647  0.08462780  1
  S  S10  1  0.83423561  0.03361960  0.08185804  1
  S  S11  1  0.18272928  0.32448417  0.08466917  1
  S  S12  1  0.68370360  0.33428276  0.08292693  1
  S  S13  1  0.31489906  0.66423635  0.91568038  1
  S  S14  1  0.81424185  0.96504031  0.41608398  1
  O  O0  1  0.10150980  0.01600103  0.30383622  1
  O  O1  1  0.59543007  0.01974348  0.30448299  1
  O  O2  1  0.40799462  0.80599804  0.30819352  1
  O  O3  1  0.91462537  0.81132043  0.30612919  1
  O  O4  1  0.49361977  0.19277725  0.30478684  1
  O  O5  1  0.99755477  0.17586519  0.30571621  1
  O  O6  1  0.09237458  0.16873827  0.80261525  1
  O  O7  1  0.60031038  0.18350982  0.80236431  1
  O  O8  1  0.49804719  0.81442789  0.80911565  1
  O  O9  1  0.99323523  0.79567745  0.80370907  1
  O  O10  1  0.41457011  0.01169075  0.80586436  1
  O  O11  1  0.90744593  0.00989317  0.80829341  1
  O  O12  1  0.40181397  0.96864140  0.69433010  1
  O  O13  1  0.90107948  0.97807974  0.69427834  1
  O  O14  1  0.08746277  0.20912815  0.69069884  1
  O  O15  1  0.58850648  0.20412045  0.69790610  1
  O  O16  1  0.01137346  0.81201422  0.69825265  1
  O  O17  1  0.51809928  0.83888102  0.69584423  1
  O  O18  1  0.39997482  0.82146816  0.19397712  1
  O  O19  1  0.90201633  0.83727948  0.19454130  1
  O  O20  1  0.01843330  0.20136771  0.19370715  1
  O  O21  1  0.51277106  0.20750734  0.19973484  1
  O  O22  1  0.08730693  0.97411269  0.19892915  1
  O  O23  1  0.58372417  0.96724655  0.19317225  1
  O  O24  1  0.44199926  0.34308973  0.63744215  1
  O  O25  1  0.95572231  0.38582135  0.64293842  1
  O  O26  1  0.22983259  0.09900484  0.64504010  1
  O  O27  1  0.72669464  0.11605489  0.63927442  1
  O  O28  1  0.32318715  0.53851826  0.63497811  1
  O  O29  1  0.82300599  0.53060874  0.63651342  1
  O  O30  1  0.45299795  0.54180005  0.14436633  1
  O  O31  1  0.93979153  0.54021257  0.13735343  1
  O  O32  1  0.32489870  0.11511529  0.13667657  1
  O  O33  1  0.82308212  0.10433481  0.13565973  1
  O  O34  1  0.22656546  0.33685916  0.13963964  1
  O  O35  1  0.72917400  0.35796625  0.13743074  1
  O  O36  1  0.22933791  0.30803818  0.03446571  1
  O  O37  1  0.73076757  0.31190406  0.03384817  1
  O  O38  1  0.42141307  0.52714809  0.02731946  1
  O  O39  1  0.92792324  0.54690626  0.03237714  1
  O  O40  1  0.34412406  0.14598799  0.03223095  1
  O  O41  1  0.84447262  0.14267548  0.03115163  1
  O  O42  1  0.23153709  0.16073075  0.52955365  1
  O  O43  1  0.72801932  0.14827328  0.53398962  1
  O  O44  1  0.34736589  0.55069415  0.53047855  1
  O  O45  1  0.84393362  0.53879655  0.53221643  1
  O  O46  1  0.42913306  0.30953555  0.53229926  1
  O  O47  1  0.91763979  0.31665442  0.52993223  1
  O  O48  1  0.28023164  0.69393730  0.96737750  1
  O  O49  1  0.76862988  0.70531389  0.97236232  1
  O  O50  1  0.07424607  0.44461234  0.97340304  1
  O  O51  1  0.58016128  0.46633956  0.96976433  1
  O  O52  1  0.14349719  0.84583836  0.96981233  1
  O  O53  1  0.64896596  0.83166400  0.96982603  1
  O  O54  1  0.26888231  0.83231967  0.47081276  1
  O  O55  1  0.77979216  0.86606758  0.46783504  1
  O  O56  1  0.15455941  0.45914276  0.47568153  1
  O  O57  1  0.64381240  0.44229096  0.46969893  1
  O  O58  1  0.07978247  0.69879703  0.46993762  1
  O  O59  1  0.57372619  0.70490222  0.47339650  1
  O  O60  1  0.06238975  0.63930344  0.35573897  1
  O  O61  1  0.56263570  0.63096855  0.35932069  1
  O  O62  1  0.24891929  0.87346947  0.36102372  1
  O  O63  1  0.76210437  0.88170736  0.36318972  1
  O  O64  1  0.18425178  0.49404212  0.36154478  1
  O  O65  1  0.68241835  0.48817614  0.35643461  1
  O  O66  1  0.06190062  0.49493732  0.85934937  1
  O  O67  1  0.56117591  0.49115879  0.85666648  1
  O  O68  1  0.18266352  0.87673539  0.85685640  1
  O  O69  1  0.68629479  0.88225680  0.85879140  1
  O  O70  1  0.26276644  0.64332440  0.86288189  1
  O  O71  1  0.75182877  0.63398042  0.86077597  1
  O  O72  1  0.01352734  0.83754584  0.40856909  1
  O  O73  1  0.49688774  0.81703228  0.40805346  1
  O  O74  1  0.40723206  0.98868132  0.40863251  1
  O  O75  1  0.90058560  0.98933438  0.40774275  1
  O  O76  1  0.08768622  0.17912376  0.41008498  1
  O  O77  1  0.58184821  0.18581690  0.40441168  1
  O  O78  1  0.99669036  0.17736254  0.90810212  1
  O  O79  1  0.50798127  0.18461481  0.90922632  1
  O  O80  1  0.08254318  0.98000732  0.90395150  1
  O  O81  1  0.58064846  0.97327811  0.91073331  1
  O  O82  1  0.40224228  0.81147810  0.90751555  1
  O  O83  1  0.90674855  0.82644198  0.90922676  1
  O  O84  1  0.48725686  0.16756589  0.58770572  1
  O  O85  1  0.99066455  0.16463887  0.58572515  1
  O  O86  1  0.08616760  0.00785322  0.58809086  1
  O  O87  1  0.59679834  0.02783694  0.58688315  1
  O  O88  1  0.41309991  0.80603340  0.58627140  1
  O  O89  1  0.91704615  0.79168045  0.58712259  1
  O  O90  1  0.49054586  0.82026507  0.08418947  1
  O  O91  1  0.98677765  0.80601806  0.08742161  1
  O  O92  1  0.41817204  0.03806767  0.08726244  1
  O  O93  1  0.91400825  0.02342868  0.08562771  1
  O  O94  1  0.09738348  0.16525248  0.08648179  1
  O  O95  1  0.59834849  0.18268175  0.08573348  1
  O  O96  1  0.34518178  0.15880328  0.75098408  1
  O  O97  1  0.84041735  0.15835291  0.75145797  1
  O  O98  1  0.23745408  0.32481965  0.74942713  1
  O  O99  1  0.72443974  0.30324376  0.74578054  1
  O  O100  1  0.42014095  0.53312310  0.74907505  1
  O  O101  1  0.92919938  0.54067347  0.74942968  1
  O  O102  1  0.33995560  0.52132436  0.25222227  1
  O  O103  1  0.84252406  0.52917743  0.24805730  1
  O  O104  1  0.42988267  0.31721490  0.24905668  1
  O  O105  1  0.92012671  0.30786347  0.24848790  1
  O  O106  1  0.22436471  0.14601262  0.24567674  1
  O  O107  1  0.73641829  0.15331887  0.24767564  1
  O  O108  1  0.32487997  0.51266058  0.91971998  1
  O  O109  1  0.82449305  0.50224033  0.92791085  1
  O  O110  1  0.42787253  0.36285255  0.92489066  1
  O  O111  1  0.92405279  0.35796609  0.92511980  1
  O  O112  1  0.25140323  0.15697377  0.92461645  1
  O  O113  1  0.75121709  0.14286436  0.92848615  1
  O  O114  1  0.32064211  0.14372651  0.42674061  1
  O  O115  1  0.82202416  0.13413029  0.42025808  1
  O  O116  1  0.25262688  0.35806821  0.42559238  1
  O  O117  1  0.75021153  0.34373011  0.42410425  1
  O  O118  1  0.42422099  0.48974412  0.42410708  1
  O  O119  1  0.92515114  0.49869829  0.42489125  1
  O  O120  1  0.17264080  0.47297498  0.07995721  1
  O  O121  1  0.67643898  0.48665200  0.07335275  1
  O  O122  1  0.06525164  0.65752691  0.08111404  1
  O  O123  1  0.58045389  0.65887417  0.07362730  1
  O  O124  1  0.26617201  0.86844228  0.07813225  1
  O  O125  1  0.76129355  0.86268313  0.07443534  1
  O  O126  1  0.16779950  0.83898077  0.57363674  1
  O  O127  1  0.67248984  0.87140407  0.58027102  1
  O  O128  1  0.25981961  0.65167544  0.57452719  1
  O  O129  1  0.76471898  0.66097537  0.57754252  1
  O  O130  1  0.07952648  0.49422321  0.57210897  1
  O  O131  1  0.56674043  0.47259446  0.58075909  1
  O  O132  1  0.14517423  0.83762740  0.25391602  1
  O  O133  1  0.64855811  0.81708632  0.25696291  1
  O  O134  1  0.25629553  0.69005524  0.25515590  1
  O  O135  1  0.76083666  0.70447644  0.25683460  1
  O  O136  1  0.08876784  0.48306239  0.25537929  1
  O  O137  1  0.58205559  0.46033455  0.25528358  1
  O  O138  1  0.14774252  0.48102305  0.75750144  1
  O  O139  1  0.64486108  0.45242016  0.75469453  1
  O  O140  1  0.08155424  0.70306453  0.75511310  1
  O  O141  1  0.58893103  0.69474922  0.75522678  1
  O  O142  1  0.26055782  0.81790270  0.75651419  1
  O  O143  1  0.75619341  0.82233067  0.75428985  1
loop_
_geom_bond_atom_site_label_1
_geom_bond_atom_site_label_2
_geom_bond_distance
_geom_bond_site_symmetry_2
Na0 O107 2.399123 1_555
Na0 O105 2.418858 1_555
Na0 O135 2.477126 1_545
Na0 O133 2.682267 1_545
Na0 O33 2.749997 1_555
Na0 O63 2.848959 1_545
Na1 O102 2.401292 1_555
Na1 O136 2.459208 1_555
Na1 O134 2.476066 1_555
Na1 O106 2.537159 1_555
Na1 O34 2.668551 1_555
Na1 O64 2.851910 1_555
Na1 O20 2.986295 1_555
Na2 O103 2.418650 1_555
Na2 O107 2.446465 1_555
Na2 O137 2.571792 1_555
Na2 O65 2.655490 1_555
Na2 O135 2.740028 1_555
Na2 O35 2.809349 1_555
Na2 O1 2.955367 1_555
Na3 O105 2.413302 1_555
Na3 O103 2.442164 1_555
Na3 O132 2.540522 1_655
Na3 O136 2.587476 1_655
Na3 O60 2.625952 1_655
Na3 O31 2.838978 1_555
Na4 O30 2.454992 1_555
Na4 O133 2.470831 1_555
Na4 O102 2.491326 1_555
Na4 O104 2.578299 1_555
Na4 O137 2.819657 1_555
Na4 O23 2.863779 1_555
Na4 O61 2.955640 1_555
Na5 O98 2.359394 1_555
Na5 O100 2.390758 1_555
Na5 O142 2.502905 1_555
Na5 O138 2.717935 1_555
Na5 O28 2.786374 1_555
Na5 O70 2.833258 1_555
Na6 O138 2.451319 1_655
Na6 O97 2.480764 1_555
Na6 O25 2.560902 1_555
Na6 O101 2.578538 1_555
Na6 O140 2.818201 1_655
Na6 O14 2.894073 1_655
Na6 O66 2.916214 1_655
Na7 O100 2.390289 1_555
Na7 O96 2.404345 1_555
Na7 O139 2.543979 1_555
Na7 O141 2.567918 1_555
Na7 O67 2.649734 1_555
Na7 O24 2.818225 1_555
Na8 O96 2.420387 1_555
Na8 O26 2.458199 1_555
Na8 O98 2.461744 1_555
Na8 O140 2.620016 1_545
Na8 O142 2.733179 1_545
Na8 O68 2.829879 1_545
Na9 O97 2.415978 1_565
Na9 O141 2.437928 1_555
Na9 O143 2.461028 1_555
Na9 O99 2.560827 1_565
Na9 O27 2.699229 1_565
Na9 O69 2.749143 1_555
Na9 O17 2.972231 1_555
Na10 O130 2.437637 1_555
Na10 O85 2.514064 1_455
Na10 O86 2.564070 1_555
Na10 O128 2.642138 1_555
Na10 O56 2.670773 1_555
Na10 O14 2.790556 1_555
Na10 O42 2.882000 1_555
Na11 O126 2.410729 1_555
Na11 O89 2.432912 1_455
Na11 O86 2.532494 1_565
Na11 O130 2.590859 1_555
Na11 O25 2.796623 1_455
Na11 O58 2.853640 1_555
Na11 O16 2.897072 1_555
Na12 O110 2.421682 1_555
Na12 O81 2.468510 1_555
Na12 O82 2.567705 1_555
Na12 O108 2.621733 1_555
Na12 O53 2.803123 1_555
Na12 O38 2.823962 1_556
Na12 O8 2.830538 1_555
Na12 O67 2.892206 1_555
Na13 O80 2.418337 1_655
Na13 O111 2.578095 1_555
Na13 O83 2.587765 1_555
Na13 O52 2.605280 1_655
Na13 O109 2.726578 1_555
Na13 O39 2.845403 1_556
Na13 O66 2.922176 1_655
Na13 O9 2.926203 1_555
Na14 O78 2.372803 1_555
Na14 O83 2.520695 1_545
Na14 O113 2.538533 1_555
Na14 O11 2.689026 1_555
Na14 O111 2.689077 1_555
Na14 O49 2.861946 1_545
Na14 O69 2.865004 1_545
Na14 O41 2.950682 1_556
Na15 O77 2.415610 1_555
Na15 O118 2.549558 1_555
Na15 O74 2.601449 1_545
Na15 O57 2.609263 1_555
Na15 O114 2.791778 1_555
Na15 O46 2.841055 1_555
Na15 O4 2.898191 1_555
Na15 O61 2.908985 1_555
Na16 O72 2.415795 1_545
Na16 O76 2.459924 1_555
Na16 O114 2.527286 1_555
Na16 O116 2.675797 1_555
Na16 O58 2.816763 1_545
Na16 O42 2.829348 1_555
Na16 O62 2.887064 1_545
Na16 O0 2.905870 1_555
Na17 O73 2.354817 1_555
Na17 O116 2.515523 1_555
Na17 O74 2.570873 1_555
Na17 O118 2.642715 1_555
Na17 O2 2.680815 1_555
Na17 O64 2.870362 1_555
Na17 O54 2.898959 1_555
Na17 O44 2.932905 1_555
Na18 O85 2.500306 1_555
Na18 O86 2.596554 1_655
Na18 O76 2.651509 1_655
Na18 O89 2.664662 1_545
Na18 O72 2.718646 1_645
Na18 O75 2.737451 1_545
Na19 O77 2.535008 1_555
Na19 O73 2.582845 1_545
Na19 O87 2.583921 1_555
Na19 O74 2.723159 1_545
Na19 O84 2.773252 1_555
Na19 O88 2.830252 1_545
Na20 O80 2.564458 1_545
Na20 O94 2.585444 1_556
Na20 O78 2.590547 1_455
Na20 O83 2.705176 1_445
Na20 O91 2.760285 1_446
Na20 O93 2.793616 1_456
Na21 O90 2.533117 1_545
Na21 O95 2.554682 1_555
Na21 O92 2.621547 1_555
Na21 O79 2.627993 1_554
Na21 O81 2.639184 1_544
Na21 O82 2.859543 1_544
Na22 O96 2.435252 1_555
Na22 O98 2.510853 1_555
Na22 O112 2.618463 1_555
Na22 O100 2.634376 1_555
Na22 O110 2.766699 1_555
Na22 O108 2.778044 1_555
Na23 O97 2.509798 1_555
Na23 O111 2.666789 1_555
Na23 O101 2.674633 1_555
Na23 O99 2.729507 1_555
Na23 O113 2.741598 1_555
Na23 O109 2.749340 1_555
Na24 O102 2.446960 1_555
Na24 O118 2.587534 1_555
Na24 O104 2.652499 1_555
Na24 O116 2.701145 1_555
Na24 O114 2.772485 1_555
Na24 O106 2.805143 1_555
Na25 O103 2.527196 1_555
Na25 O107 2.575003 1_555
Na25 O105 2.608837 1_555
Na25 O117 2.633550 1_555
Na25 O119 2.713577 1_555
Na25 O115 2.741913 1_555
Na26 O134 2.519361 1_555
Na26 O120 2.654950 1_555
Na26 O124 2.656897 1_555
Na26 O136 2.669000 1_555
Na26 O122 2.755179 1_555
Na26 O132 2.782947 1_555
Na27 O123 2.484268 1_555
Na27 O133 2.621268 1_555
Na27 O125 2.720139 1_555
Na27 O137 2.763807 1_555
Na27 O121 2.781749 1_555
Na27 O135 2.783330 1_555
Na28 O126 2.561567 1_555
Na28 O142 2.626212 1_555
Na28 O130 2.698447 1_555
Na28 O138 2.721843 1_555
Na28 O128 2.725521 1_555
Na28 O140 2.739077 1_555
Na29 O143 2.503919 1_555
Na29 O127 2.639541 1_555
Na29 O141 2.640223 1_555
Na29 O129 2.685125 1_555
Na29 O131 2.748823 1_555
Na29 O139 2.797394 1_555
Ca0 O26 2.181939 1_555
Ca0 O24 2.250466 1_555
Ca0 O98 2.266316 1_555
Ca0 O96 2.271210 1_555
Ca0 O100 2.323077 1_555
Ca0 O28 2.331225 1_555
Ca1 O25 2.159427 1_555
Ca1 O27 2.243339 1_555
Ca1 O29 2.246727 1_555
Ca1 O97 2.268058 1_555
Ca1 O101 2.385504 1_555
Ca1 O99 2.452110 1_555
Ca2 O30 2.134532 1_555
Ca2 O32 2.241806 1_555
Ca2 O34 2.258892 1_555
Ca2 O102 2.299730 1_555
Ca2 O104 2.380479 1_555
Ca2 O106 2.480237 1_555
Ca3 O107 2.227318 1_555
Ca3 O31 2.239585 1_555
Ca3 O103 2.260752 1_555
Ca3 O105 2.269583 1_555
Ca3 O35 2.303823 1_555
Ca3 O33 2.307504 1_555
Ca4 O50 2.122733 1_554
Ca4 O52 2.140916 1_554
Ca4 O48 2.307832 1_554
Ca4 O122 2.324959 1_555
Ca4 O124 2.349882 1_555
Ca4 O120 2.382785 1_555
Ca5 O59 2.113712 1_555
Ca5 O57 2.139491 1_555
Ca5 O55 2.300427 1_555
Ca5 O131 2.311077 1_555
Ca5 O129 2.351491 1_555
Ca5 O127 2.379050 1_555
Hf0 O3 1.968293 1_555
Hf0 O5 1.971717 1_565
Hf0 O72 2.076235 1_655
Hf0 O75 2.104353 1_555
Hf0 O76 2.107055 1_665
Hf0 O0 2.198965 1_665
Hf1 O1 1.967221 1_565
Hf1 O73 1.983380 1_555
Hf1 O77 2.013980 1_565
Hf1 O2 2.021492 1_555
Hf1 O74 2.137416 1_555
Hf1 O4 2.251675 1_565
Hf2 O6 1.974457 1_555
Hf2 O78 1.985270 1_455
Hf2 O80 2.015554 1_545
Hf2 O11 2.017713 1_455
Hf2 O83 2.132629 1_445
Hf2 O9 2.255538 1_445
Hf3 O10 1.955303 1_555
Hf3 O8 2.020749 1_545
Hf3 O79 2.027905 1_555
Hf3 O81 2.095675 1_545
Hf3 O7 2.137320 1_555
Hf3 O82 2.149040 1_545
Hf4 O13 1.976079 1_545
Hf4 O14 1.983708 1_655
Hf4 O85 1.996133 1_555
Hf4 O86 2.132311 1_655
Hf4 O89 2.306570 1_545
Hf4 O16 2.349481 1_645
Hf5 O17 1.943959 1_555
Hf5 O12 1.945717 1_555
Hf5 O15 2.164988 1_565
Hf5 O88 2.171221 1_555
Hf5 O87 2.226160 1_565
Hf5 O84 2.236330 1_565
Hf6 O20 1.944030 1_655
Hf6 O19 1.948366 1_545
Hf6 O93 2.149184 1_555
Hf6 O22 2.183796 1_645
Hf6 O94 2.227019 1_655
Hf6 O91 2.245624 1_545
Hf7 O18 1.942897 1_555
Hf7 O23 1.964701 1_555
Hf7 O90 1.964812 1_555
Hf7 O92 2.262667 1_565
Hf7 O95 2.367528 1_565
Hf7 O21 2.375768 1_565
Hf8 O110 2.011764 1_555
Hf8 O112 2.027503 1_555
Hf8 O38 2.032258 1_556
Hf8 O40 2.086988 1_556
Hf8 O36 2.254378 1_556
Hf8 O108 2.319893 1_555
Hf9 O109 1.956770 1_555
Hf9 O113 2.000424 1_555
Hf9 O111 2.005399 1_555
Hf9 O37 2.184396 1_556
Hf9 O39 2.247818 1_556
Hf9 O41 2.279177 1_556
Hf10 O114 1.993808 1_555
Hf10 O42 2.032526 1_555
Hf10 O116 2.033612 1_555
Hf10 O118 2.077349 1_555
Hf10 O46 2.244164 1_555
Hf10 O44 2.270746 1_555
Hf11 O119 1.982762 1_555
Hf11 O47 2.015390 1_555
Hf11 O117 2.019989 1_555
Hf11 O45 2.157918 1_555
Hf11 O115 2.221311 1_555
Hf11 O43 2.278018 1_555
Hf12 O51 1.942050 1_554
Hf12 O53 1.975661 1_554
Hf12 O123 2.020541 1_555
Hf12 O49 2.039048 1_554
Hf12 O121 2.228863 1_555
Hf12 O125 2.320686 1_555
Hf13 O58 1.972717 1_555
Hf13 O54 2.009512 1_555
Hf13 O56 2.051128 1_555
Hf13 O126 2.056397 1_555
Hf13 O130 2.078482 1_555
Hf13 O128 2.323139 1_555
Hf14 O64 1.990580 1_555
Hf14 O62 2.018729 1_555
Hf14 O60 2.052469 1_555
Hf14 O134 2.076097 1_555
Hf14 O136 2.125704 1_555
Hf14 O132 2.368698 1_555
Hf15 O65 1.990046 1_555
Hf15 O61 2.007932 1_555
Hf15 O135 2.120107 1_555
Hf15 O133 2.124308 1_555
Hf15 O63 2.177827 1_555
Hf15 O137 2.240733 1_555
Hf16 O68 1.982105 1_555
Hf16 O66 2.020204 1_555
Hf16 O138 2.116791 1_555
Hf16 O142 2.120068 1_555
Hf16 O70 2.181856 1_555
Hf16 O140 2.245039 1_555
Hf17 O71 1.989271 1_555
Hf17 O69 2.005748 1_555
Hf17 O143 2.074559 1_555
Hf17 O67 2.075417 1_555
Hf17 O141 2.145256 1_555
Hf17 O139 2.363875 1_555
O0 S0 1.489366 1_545
O1 Si0 1.620711 1_545
O2 Si1 1.621059 1_555
O3 Si2 1.633753 1_555
O4 S1 1.473434 1_555
O5 Si3 1.628098 1_655
O6 Si4 1.620335 1_555
O7 S2 1.485933 1_555
O8 Si5 1.631191 1_555
O9 S3 1.471386 1_655
O10 Si6 1.631904 1_545
O11 Si7 1.621886 1_545
O12 Si6 1.673776 1_555
O13 Si7 1.655082 1_555
O14 Si4 1.674665 1_555
O15 S2 1.494669 1_555
O16 S3 1.482809 1_555
O17 Si5 1.680634 1_555
O18 Si1 1.662382 1_555
O19 Si2 1.673025 1_555
O20 Si3 1.674932 1_555
O21 S1 1.475167 1_555
O22 S0 1.493854 1_555
O23 Si0 1.660304 1_555
O24 S4 1.468900 1_555
O25 Si8 1.611599 1_555
O26 Si9 1.593472 1_555
O27 S5 1.478521 1_555
O28 S6 1.468865 1_555
O29 S7 1.459676 1_555
O30 Si10 1.606437 1_555
O31 S8 1.472120 1_555
O32 S9 1.458466 1_555
O33 S10 1.463532 1_555
O34 S11 1.478003 1_555
O35 S12 1.466557 1_555
O36 S11 1.492520 1_555
O37 S12 1.500020 1_555
O38 Si10 1.671573 1_555
O39 S8 1.508075 1_555
O40 S9 1.518141 1_555
O41 S10 1.490665 1_555
O42 Si9 1.683867 1_555
O43 S5 1.490046 1_555
O44 S6 1.489381 1_555
O45 S7 1.509177 1_555
O46 S4 1.508626 1_555
O47 Si8 1.647616 1_555
O48 S13 1.441703 1_555
O49 Si11 1.620961 1_555
O50 Si12 1.567439 1_555
O51 Si13 1.627734 1_555
O52 Si14 1.589658 1_555
O53 Si15 1.616680 1_555
O54 Si16 1.624664 1_555
O55 S14 1.442080 1_555
O56 Si17 1.615609 1_555
O57 Si18 1.587891 1_555
O58 Si19 1.646295 1_555
O59 Si20 1.569688 1_555
O60 Si19 1.639805 1_555
O61 Si20 1.678359 1_555
O62 Si16 1.640866 1_555
O63 S14 1.505164 1_555
O64 Si17 1.653852 1_555
O65 Si18 1.690392 1_555
O66 Si12 1.673019 1_555
O67 Si13 1.651811 1_555
O68 Si14 1.689291 1_555
O69 Si15 1.656912 1_555
O70 S13 1.503170 1_555
O71 Si11 1.638654 1_555
O72 Si19 1.644100 1_555
O73 Si20 1.643311 1_555
O74 Si16 1.619814 1_555
O75 S14 1.497643 1_555
O76 Si17 1.630956 1_555
O77 Si18 1.647601 1_555
O78 Si12 1.639847 1_655
O79 Si13 1.626127 1_555
O80 Si14 1.648812 1_555
O81 Si15 1.626753 1_555
O82 S13 1.504799 1_555
O83 Si11 1.637484 1_555
O84 S4 1.506913 1_555
O85 Si8 1.666215 1_555
O86 Si9 1.676393 1_555
O87 S5 1.518665 1_555
O88 S6 1.499441 1_555
O89 S7 1.512663 1_555
O90 Si10 1.686519 1_555
O91 S8 1.505570 1_555
O92 S9 1.498189 1_555
O93 S10 1.515213 1_555
O94 S11 1.517162 1_555
O95 S12 1.488039 1_555
O96 Si6 1.606353 1_545
O97 Si7 1.643469 1_545
O98 Si4 1.606099 1_555
O99 S2 1.471086 1_555
O100 Si5 1.606878 1_555
O101 S3 1.475287 1_655
O102 Si1 1.639384 1_555
O103 Si2 1.610806 1_555
O104 S1 1.474463 1_555
O105 Si3 1.608748 1_655
O106 S0 1.471905 1_545
O107 Si0 1.610070 1_545
O108 S13 1.494324 1_555
O109 Si11 1.657805 1_555
O110 Si13 1.664935 1_555
O111 Si12 1.693729 1_655
O112 Si14 1.651242 1_545
O113 Si15 1.648200 1_545
O114 Si16 1.657427 1_545
O115 S14 1.489090 1_545
O116 Si17 1.669400 1_555
O117 Si18 1.648001 1_555
O118 Si20 1.678841 1_555
O119 Si19 1.637846 1_655
O120 S11 1.468461 1_555
O121 S12 1.486411 1_555
O122 S8 1.466378 1_455
O123 Si10 1.650456 1_555
O124 S9 1.464537 1_565
O125 S10 1.477695 1_565
O126 Si9 1.646798 1_565
O127 S5 1.467463 1_565
O128 S6 1.484207 1_555
O129 S7 1.459217 1_555
O130 Si8 1.655463 1_455
O131 S4 1.468968 1_555
O132 S0 1.485578 1_555
O133 Si0 1.657210 1_555
O134 Si1 1.649202 1_555
O135 Si2 1.653222 1_555
O136 Si3 1.647810 1_555
O137 S1 1.527814 1_555
O138 Si4 1.657144 1_555
O139 S2 1.481439 1_555
O140 S3 1.520463 1_555
O141 Si5 1.649677 1_555
O142 Si6 1.656180 1_555
O143 Si7 1.649764 1_555
