# generated using pymatgen
data_Mo9O25
_symmetry_space_group_name_H-M   'P 1'
_cell_length_a   5.58141800
_cell_length_b   6.89043900
_cell_length_c   28.41002913
_cell_angle_alpha   84.11229446
_cell_angle_beta   90.00000000
_cell_angle_gamma   90.00000000
_symmetry_Int_Tables_number   1
_chemical_formula_structural   Mo9O25
_chemical_formula_sum   'Mo18 O50'
_cell_volume   1086.84118688
_cell_formula_units_Z   2
loop_
 _symmetry_equiv_pos_site_id
 _symmetry_equiv_pos_as_xyz
  1  'x, y, z'
loop_
 _atom_site_type_symbol
 _atom_site_label
 _atom_site_symmetry_multiplicity
 _atom_site_fract_x
 _atom_site_fract_y
 _atom_site_fract_z
 _atom_site_occupancy
  Mo  Mo0  1  0.22952000  0.50000000  0.25000000  1
  Mo  Mo1  1  0.77048000  0.50000000  0.75000000  1
  Mo  Mo2  1  0.72937600  0.79627500  0.30117700  1
  Mo  Mo3  1  0.72937600  0.20372500  0.19882300  1
  Mo  Mo4  1  0.27062400  0.20372500  0.69882300  1
  Mo  Mo5  1  0.27062400  0.79627500  0.80117700  1
  Mo  Mo6  1  0.23000100  0.09938300  0.35468300  1
  Mo  Mo7  1  0.23000100  0.90061700  0.14531700  1
  Mo  Mo8  1  0.76999900  0.90061700  0.64531700  1
  Mo  Mo9  1  0.76999900  0.09938300  0.85468300  1
  Mo  Mo10  1  0.73671600  0.40402800  0.40941900  1
  Mo  Mo11  1  0.73671600  0.59597200  0.09058100  1
  Mo  Mo12  1  0.26328400  0.59597200  0.59058100  1
  Mo  Mo13  1  0.26328400  0.40402800  0.90941900  1
  Mo  Mo14  1  0.22334700  0.71213100  0.46058300  1
  Mo  Mo15  1  0.22334700  0.28786900  0.03941700  1
  Mo  Mo16  1  0.77665300  0.28786900  0.53941700  1
  Mo  Mo17  1  0.77665300  0.71213100  0.96058300  1
  O  O0  1  0.73561900  0.00000000  0.25000000  1
  O  O1  1  0.26438100  0.00000000  0.75000000  1
  O  O2  1  0.48563800  0.65006200  0.27812100  1
  O  O3  1  0.48563800  0.34993800  0.22187900  1
  O  O4  1  0.51436200  0.34993800  0.72187900  1
  O  O5  1  0.51436200  0.65006200  0.77812100  1
  O  O6  1  0.98653900  0.65329600  0.27889800  1
  O  O7  1  0.98653900  0.34670400  0.22110200  1
  O  O8  1  0.01346100  0.34670400  0.72110200  1
  O  O9  1  0.01346100  0.65329600  0.77889800  1
  O  O10  1  0.23126500  0.29648600  0.30823900  1
  O  O11  1  0.23126500  0.70351400  0.19176100  1
  O  O12  1  0.76873500  0.70351400  0.69176100  1
  O  O13  1  0.76873500  0.29648600  0.80823900  1
  O  O14  1  0.97628500  0.96196400  0.33755700  1
  O  O15  1  0.97628500  0.03803600  0.16244300  1
  O  O16  1  0.46597100  0.95147400  0.33447800  1
  O  O17  1  0.02371500  0.03803600  0.66244300  1
  O  O18  1  0.25479700  0.24315400  0.97813000  1
  O  O19  1  0.25479700  0.75684600  0.52187000  1
  O  O20  1  0.74520300  0.75684600  0.02187000  1
  O  O21  1  0.74520300  0.24315400  0.47813000  1
  O  O22  1  0.54056200  0.55775700  0.94514200  1
  O  O23  1  0.54056200  0.44224300  0.55485800  1
  O  O24  1  0.45943800  0.44224300  0.05485800  1
  O  O25  1  0.45943800  0.55775700  0.44514200  1
  O  O26  1  0.05654500  0.59492200  0.95070800  1
  O  O27  1  0.05654500  0.40507800  0.54929200  1
  O  O28  1  0.94345500  0.40507800  0.04929200  1
  O  O29  1  0.94345500  0.59492200  0.45070800  1
  O  O30  1  0.76390900  0.93837800  0.92333800  1
  O  O31  1  0.76390900  0.06162200  0.57666200  1
  O  O32  1  0.23609100  0.06162200  0.07666200  1
  O  O33  1  0.23609100  0.93837800  0.42333800  1
  O  O34  1  0.49476800  0.25248900  0.89030700  1
  O  O35  1  0.49476800  0.74751100  0.60969300  1
  O  O36  1  0.50523200  0.74751100  0.10969300  1
  O  O37  1  0.50523200  0.25248900  0.39030700  1
  O  O38  1  0.00002900  0.27649000  0.89371500  1
  O  O39  1  0.00002900  0.72351000  0.60628500  1
  O  O40  1  0.99997100  0.72351000  0.10628500  1
  O  O41  1  0.99997100  0.27649000  0.39371500  1
  O  O42  1  0.26759300  0.60137900  0.86294100  1
  O  O43  1  0.26759300  0.39862100  0.63705900  1
  O  O44  1  0.73240700  0.39862100  0.13705900  1
  O  O45  1  0.73240700  0.60137900  0.36294100  1
  O  O46  1  0.53402900  0.95147400  0.83447800  1
  O  O47  1  0.53402900  0.04852600  0.66552200  1
  O  O48  1  0.46597100  0.04852600  0.16552200  1
  O  O49  1  0.02371500  0.96196400  0.83755700  1
loop_
_geom_bond_atom_site_label_1
_geom_bond_atom_site_label_2
_geom_bond_distance
_geom_bond_site_symmetry_2
Mo0 O6 1.951123 1_455
Mo0 O7 1.951123 1_455
Mo0 O2 1.979991 1_555
Mo0 O3 1.979991 1_555
Mo0 O11 2.056244 1_555
Mo0 O10 2.056244 1_555
Mo1 O9 1.951123 1_655
Mo1 O8 1.951123 1_655
Mo1 O5 1.979991 1_555
Mo1 O4 1.979991 1_555
Mo1 O13 2.056244 1_555
Mo1 O12 2.056244 1_555
Mo2 O2 1.852063 1_555
Mo2 O6 1.886619 1_555
Mo2 O0 1.914931 1_565
Mo2 O45 2.097452 1_555
Mo2 O16 2.099438 1_555
Mo2 O14 2.124358 1_555
Mo3 O3 1.852063 1_555
Mo3 O7 1.886619 1_555
Mo3 O0 1.914931 1_555
Mo3 O44 2.097452 1_555
Mo3 O48 2.099438 1_555
Mo3 O15 2.124358 1_555
Mo4 O4 1.852063 1_555
Mo4 O8 1.886619 1_555
Mo4 O1 1.914931 1_555
Mo4 O43 2.097452 1_555
Mo4 O47 2.099438 1_555
Mo4 O17 2.124358 1_555
Mo5 O5 1.852063 1_555
Mo5 O9 1.886619 1_555
Mo5 O1 1.914931 1_565
Mo5 O42 2.097452 1_555
Mo5 O46 2.099438 1_555
Mo5 O49 2.124358 1_555
Mo6 O10 1.793858 1_555
Mo6 O16 1.795222 1_545
Mo6 O14 1.798096 1_445
Mo6 O33 2.142987 1_545
Mo6 O41 2.155206 1_455
Mo6 O37 2.171671 1_555
Mo7 O11 1.793858 1_555
Mo7 O48 1.795222 1_565
Mo7 O15 1.798096 1_465
Mo7 O32 2.142987 1_565
Mo7 O40 2.155206 1_455
Mo7 O36 2.171671 1_555
Mo8 O12 1.793858 1_555
Mo8 O47 1.795222 1_565
Mo8 O17 1.798096 1_665
Mo8 O31 2.142987 1_565
Mo8 O39 2.155206 1_655
Mo8 O35 2.171671 1_555
Mo9 O13 1.793858 1_555
Mo9 O46 1.795222 1_545
Mo9 O49 1.798096 1_645
Mo9 O30 2.142987 1_545
Mo9 O38 2.155206 1_655
Mo9 O34 2.171671 1_555
Mo10 O37 1.780650 1_555
Mo10 O41 1.791846 1_555
Mo10 O45 1.795805 1_555
Mo10 O21 2.144222 1_555
Mo10 O29 2.180397 1_555
Mo10 O25 2.183499 1_555
Mo11 O36 1.780650 1_555
Mo11 O40 1.791846 1_555
Mo11 O44 1.795805 1_555
Mo11 O20 2.144222 1_555
Mo11 O28 2.180397 1_555
Mo11 O24 2.183499 1_555
Mo12 O35 1.780650 1_555
Mo12 O39 1.791846 1_555
Mo12 O43 1.795805 1_555
Mo12 O19 2.144222 1_555
Mo12 O27 2.180397 1_555
Mo12 O23 2.183499 1_555
Mo13 O34 1.780650 1_555
Mo13 O38 1.791846 1_555
Mo13 O42 1.795805 1_555
Mo13 O18 2.144222 1_555
Mo13 O26 2.180397 1_555
Mo13 O22 2.183499 1_555
Mo14 O25 1.776522 1_555
Mo14 O33 1.793482 1_555
Mo14 O29 1.793849 1_455
Mo14 O19 1.807611 1_555
Mo15 O24 1.776522 1_555
Mo15 O32 1.793482 1_555
Mo15 O28 1.793849 1_455
Mo15 O18 1.807611 1_554
Mo16 O23 1.776522 1_555
Mo16 O31 1.793482 1_555
Mo16 O27 1.793849 1_655
Mo16 O21 1.807611 1_555
Mo17 O22 1.776522 1_555
Mo17 O30 1.793482 1_555
Mo17 O26 1.793849 1_655
Mo17 O20 1.807611 1_556
