# generated using pymatgen
data_Na5TiZn3P3(SO8)3
_symmetry_space_group_name_H-M   'P 1'
_cell_length_a   8.88175630
_cell_length_b   8.88024493
_cell_length_c   22.13067625
_cell_angle_alpha   90.29638144
_cell_angle_beta   89.72802923
_cell_angle_gamma   119.95460041
_symmetry_Int_Tables_number   1
_chemical_formula_structural   Na5TiZn3P3(SO8)3
_chemical_formula_sum   'Na15 Ti3 Zn9 P9 S9 O72'
_cell_volume   1512.30868720
_cell_formula_units_Z   3
loop_
 _symmetry_equiv_pos_site_id
 _symmetry_equiv_pos_as_xyz
  1  'x, y, z'
loop_
 _atom_site_type_symbol
 _atom_site_label
 _atom_site_symmetry_multiplicity
 _atom_site_fract_x
 _atom_site_fract_y
 _atom_site_fract_z
 _atom_site_occupancy
  Na  Na0  1  0.00122040  0.63473124  0.25364232  1
  Na  Na1  1  0.30067568  0.33942873  0.58635223  1
  Na  Na2  1  0.03152024  0.69678222  0.58198792  1
  Na  Na3  1  0.66762998  0.95989182  0.58097117  1
  Na  Na4  1  0.66594981  0.70073307  0.08227584  1
  Na  Na5  1  0.03628369  0.33860584  0.08458105  1
  Na  Na6  1  0.97937128  0.68008625  0.91301233  1
  Na  Na7  1  0.32527807  0.29544239  0.91042222  1
  Na  Na8  1  0.69829107  0.67556506  0.41714066  1
  Na  Na9  1  0.00069618  0.00455459  0.49557036  1
  Na  Na10  1  0.00086724  0.99643024  0.99633059  1
  Na  Na11  1  0.66063820  0.32126632  0.82451406  1
  Na  Na12  1  0.65432793  0.30705792  0.33232939  1
  Na  Na13  1  0.33718705  0.67796395  0.17036866  1
  Na  Na14  1  0.33308814  0.65852176  0.66657662  1
  Ti  Ti0  1  0.67282435  0.33706651  0.97682133  1
  Ti  Ti1  1  0.68642090  0.33730357  0.47937166  1
  Ti  Ti2  1  0.33523991  0.66242202  0.81439754  1
  Zn  Zn0  1  0.00087299  0.00462660  0.35231267  1
  Zn  Zn1  1  0.00060723  0.00699731  0.84721369  1
  Zn  Zn2  1  0.99793593  0.00813604  0.65440088  1
  Zn  Zn3  1  0.00521296  0.99354003  0.15412949  1
  Zn  Zn4  1  0.66480592  0.34262994  0.68453565  1
  Zn  Zn5  1  0.66544569  0.33007727  0.18456354  1
  Zn  Zn6  1  0.32765564  0.67290866  0.01167850  1
  Zn  Zn7  1  0.33346175  0.66757015  0.51007682  1
  Zn  Zn8  1  0.33598582  0.67623370  0.32364725  1
  P  P0  1  0.29860492  0.29665000  0.75124763  1
  P  P1  1  0.96017293  0.33520478  0.58550134  1
  P  P2  1  0.66546244  0.62495218  0.58280466  1
  P  P3  1  0.96093252  0.62669956  0.08425746  1
  P  P4  1  0.62628964  0.67046893  0.91940762  1
  P  P5  1  0.04110802  0.37208107  0.91838755  1
  P  P6  1  0.33717169  0.95994629  0.91704929  1
  P  P7  1  0.62967892  0.96514019  0.41779289  1
  P  P8  1  0.03941035  0.66921361  0.41684329  1
  S  S0  1  0.29737564  0.00193102  0.25001213  1
  S  S1  1  0.69822916  0.70194627  0.24927855  1
  S  S2  1  0.00202783  0.29514252  0.24848020  1
  S  S3  1  0.00441483  0.70409529  0.75152299  1
  S  S4  1  0.69900153  0.99687802  0.75076657  1
  S  S5  1  0.37718013  0.04345388  0.58326611  1
  S  S6  1  0.66353472  0.04240112  0.08303566  1
  S  S7  1  0.37455798  0.33047118  0.08276630  1
  S  S8  1  0.33502373  0.36796162  0.41764673  1
  O  O0  1  0.21306387  0.02411843  0.30390966  1
  O  O1  1  0.81055519  0.78597931  0.30260576  1
  O  O2  1  0.98151105  0.18702638  0.30098684  1
  O  O3  1  0.21470879  0.19231950  0.80853603  1
  O  O4  1  0.98139766  0.78587379  0.80656374  1
  O  O5  1  0.80624400  0.01848174  0.80397376  1
  O  O6  1  0.76841051  0.96367241  0.69406778  1
  O  O7  1  0.19015191  0.22576354  0.69309151  1
  O  O8  1  0.03082294  0.80751346  0.69610962  1
  O  O9  1  0.77757906  0.80379010  0.19258622  1
  O  O10  1  0.02014911  0.21670339  0.19058061  1
  O  O11  1  0.19064559  0.97181502  0.19439910  1
  O  O12  1  0.87349356  0.36327518  0.63992330  1
  O  O13  1  0.48224216  0.11926270  0.63791210  1
  O  O14  1  0.62981757  0.50953105  0.63748542  1
  O  O15  1  0.87609061  0.51482754  0.14038011  1
  O  O16  1  0.64071341  0.12058151  0.13795078  1
  O  O17  1  0.48221465  0.35531733  0.13598038  1
  O  O18  1  0.46030031  0.31111006  0.02657902  1
  O  O19  1  0.83747816  0.52438720  0.02730347  1
  O  O20  1  0.68499440  0.15498767  0.02905056  1
  O  O21  1  0.46409783  0.15449647  0.52935337  1
  O  O22  1  0.68991638  0.53193218  0.52529806  1
  O  O23  1  0.84074418  0.31154437  0.52840331  1
  O  O24  1  0.55041860  0.69185650  0.97854404  1
  O  O25  1  0.14536630  0.44446240  0.97682038  1
  O  O26  1  0.29869041  0.85078876  0.97367502  1
  O  O27  1  0.55559020  0.85536021  0.47571975  1
  O  O28  1  0.30931121  0.44241300  0.47423582  1
  O  O29  1  0.14136064  0.69147371  0.47463637  1
  O  O30  1  0.10932725  0.63145194  0.35878033  1
  O  O31  1  0.51728824  0.88737137  0.36216054  1
  O  O32  1  0.37003699  0.48306734  0.36506698  1
  O  O33  1  0.13146537  0.50078047  0.86501183  1
  O  O34  1  0.36548867  0.86907975  0.86177404  1
  O  O35  1  0.50025503  0.63396393  0.86551125  1
  O  O36  1  0.00317553  0.82144365  0.41179992  1
  O  O37  1  0.81291887  0.98656308  0.41132923  1
  O  O38  1  0.18317113  0.19362477  0.41076993  1
  O  O39  1  0.01645334  0.19154790  0.90983670  1
  O  O40  1  0.18024474  0.98827356  0.90979045  1
  O  O41  1  0.81217437  0.81757068  0.91010592  1
  O  O42  1  0.97190166  0.16661700  0.58518737  1
  O  O43  1  0.20196164  0.02764678  0.58659841  1
  O  O44  1  0.83551188  0.80492340  0.58616630  1
  O  O45  1  0.96378482  0.80219906  0.08475454  1
  O  O46  1  0.82791231  0.03331702  0.08418181  1
  O  O47  1  0.19769492  0.17653812  0.08535763  1
  O  O48  1  0.67659301  0.14917988  0.74578864  1
  O  O49  1  0.48262767  0.32365349  0.74662606  1
  O  O50  1  0.85304914  0.52740444  0.74758963  1
  O  O51  1  0.68901331  0.52866739  0.24486235  1
  O  O52  1  0.84482159  0.31743842  0.24633229  1
  O  O53  1  0.47224392  0.15794905  0.24430689  1
  O  O54  1  0.63679256  0.49424442  0.92371398  1
  O  O55  1  0.85864136  0.36395069  0.92396556  1
  O  O56  1  0.50346441  0.14684065  0.92464481  1
  O  O57  1  0.64642403  0.14952780  0.42698960  1
  O  O58  1  0.49812032  0.35528287  0.42329455  1
  O  O59  1  0.84879361  0.50005136  0.42409392  1
  O  O60  1  0.35903352  0.49030210  0.07877371  1
  O  O61  1  0.13888266  0.63934414  0.07739612  1
  O  O62  1  0.51483268  0.86417824  0.07759484  1
  O  O63  1  0.35442549  0.86607862  0.57745181  1
  O  O64  1  0.50499315  0.64910857  0.57642675  1
  O  O65  1  0.14215899  0.49648523  0.57759876  1
  O  O66  1  0.31007276  0.84021175  0.25395529  1
  O  O67  1  0.52371440  0.68143474  0.25489846  1
  O  O68  1  0.15775630  0.47276095  0.25244999  1
  O  O69  1  0.31460114  0.48490669  0.76167653  1
  O  O70  1  0.16721468  0.69004178  0.75771851  1
  O  O71  1  0.52184525  0.83446722  0.75838047  1
loop_
_geom_bond_atom_site_label_1
_geom_bond_atom_site_label_2
_geom_bond_distance
_geom_bond_site_symmetry_2
Na0 O66 2.419910 1_555
Na0 O52 2.446153 1_455
Na0 O68 2.449231 1_555
Na0 O51 2.451359 1_455
Na0 O30 2.527154 1_555
Na0 O15 2.732925 1_455
Na0 O1 2.843376 1_455
Na0 O11 2.915529 1_555
Na1 O64 2.433700 1_555
Na1 O65 2.435408 1_555
Na1 O43 2.451612 1_555
Na1 O42 2.531379 1_455
Na1 O7 2.564309 1_555
Na1 O28 2.636337 1_555
Na1 O14 2.777091 1_555
Na1 O21 2.955762 1_555
Na2 O44 2.372461 1_455
Na2 O65 2.425192 1_555
Na2 O63 2.487682 1_555
Na2 O43 2.547835 1_565
Na2 O29 2.573127 1_555
Na2 O8 2.706622 1_555
Na2 O12 2.873360 1_455
Na2 O22 2.916178 1_455
Na3 O42 2.393410 1_565
Na3 O64 2.393902 1_555
Na3 O63 2.475001 1_555
Na3 O44 2.486520 1_555
Na3 O27 2.520847 1_555
Na3 O6 2.656552 1_555
Na3 O13 2.931049 1_565
Na3 O23 2.948712 1_565
Na4 O45 2.330901 1_555
Na4 O60 2.417099 1_555
Na4 O62 2.422219 1_555
Na4 O24 2.503774 1_554
Na4 O46 2.559376 1_565
Na4 O9 2.621824 1_555
Na4 O17 2.916332 1_555
Na4 O19 2.932326 1_555
Na5 O61 2.358106 1_555
Na5 O46 2.400913 1_455
Na5 O47 2.487522 1_555
Na5 O60 2.488077 1_555
Na5 O10 2.561939 1_555
Na5 O25 2.569326 1_554
Na6 O41 2.347811 1_555
Na6 O40 2.408919 1_655
Na6 O55 2.467436 1_555
Na6 O4 2.537348 1_555
Na6 O54 2.649592 1_555
Na6 O33 2.757808 1_655
Na6 O26 2.804558 1_655
Na6 O19 2.857157 1_556
Na7 O40 2.364515 1_545
Na7 O39 2.418257 1_555
Na7 O54 2.445995 1_555
Na7 O3 2.447198 1_555
Na7 O56 2.537659 1_555
Na7 O35 2.791208 1_555
Na7 O18 2.815066 1_556
Na7 O25 2.921152 1_555
Na8 O36 2.349539 1_655
Na8 O37 2.423806 1_555
Na8 O58 2.494156 1_555
Na8 O59 2.514909 1_555
Na8 O22 2.701273 1_555
Na8 O1 2.721375 1_555
Na8 O32 2.790121 1_555
Na8 O27 2.796438 1_555
Na9 O37 2.458264 1_445
Na9 O36 2.466922 1_545
Na9 O38 2.500792 1_555
Na9 O42 2.530454 1_455
Na9 O44 2.593558 1_445
Na9 O43 2.638113 1_555
Na10 O40 2.509241 1_555
Na10 O41 2.512668 1_455
Na10 O45 2.524751 1_456
Na10 O39 2.545131 1_565
Na10 O47 2.589190 1_566
Na10 O46 2.591241 1_466
Na11 O49 2.351822 1_555
Na11 O48 2.361604 1_555
Na11 O50 2.459707 1_555
Na11 O56 2.665574 1_555
Na11 O55 2.728173 1_555
Na11 O54 2.740367 1_555
Na12 O53 2.455234 1_555
Na12 O57 2.506253 1_555
Na12 O52 2.511703 1_555
Na12 O58 2.592070 1_555
Na12 O59 2.661926 1_555
Na12 O51 2.672638 1_555
Na13 O66 2.422904 1_555
Na13 O67 2.494581 1_555
Na13 O68 2.503354 1_555
Na13 O62 2.614999 1_555
Na13 O61 2.622432 1_555
Na13 O60 2.684774 1_555
Na14 O65 2.527714 1_555
Na14 O64 2.532846 1_555
Na14 O69 2.571161 1_555
Na14 O70 2.587465 1_555
Na14 O71 2.600625 1_555
Na14 O63 2.647397 1_555
O0 S0 1.469269 1_555
O0 Zn0 2.094330 1_555
O1 S1 1.484445 1_555
O1 Zn0 2.134333 1_665
O2 S2 1.462899 1_655
O2 Zn0 2.059719 1_655
O3 P0 1.527996 1_555
O3 Zn1 1.982685 1_555
O4 S3 1.479750 1_655
O4 Zn1 2.083956 1_665
O5 S4 1.468477 1_545
O5 Zn1 2.024521 1_655
O6 S4 1.487222 1_555
O6 Zn2 2.065224 1_565
O7 P0 1.542217 1_555
O7 Zn2 2.021035 1_455
O8 S3 1.481939 1_555
O8 Zn2 2.156523 1_465
O9 S1 1.501860 1_555
O9 Zn3 2.060990 1_655
O10 S2 1.501246 1_555
O10 Zn3 2.077883 1_545
O11 S0 1.496459 1_565
O11 Zn3 1.969000 1_555
O12 P1 1.511664 1_555
O12 Zn4 2.022137 1_555
O13 S5 1.470184 1_555
O13 Zn4 2.100277 1_555
O14 P2 1.516684 1_555
O14 Zn4 1.963786 1_555
O15 P3 1.534183 1_555
O15 Zn5 2.020402 1_555
O16 S6 1.459287 1_555
O16 Zn5 2.036561 1_555
O17 S7 1.465324 1_555
O17 Zn5 2.058662 1_555
O18 S7 1.508396 1_555
O18 Ti0 2.092151 1_554
O19 P3 1.619528 1_555
O19 Ti0 1.928949 1_554
O20 S6 1.511023 1_555
O20 Ti0 2.038909 1_554
O21 S5 1.495025 1_555
O21 Ti1 2.134170 1_555
O22 P2 1.585826 1_555
O22 Ti1 1.987393 1_555
O23 P1 1.597953 1_555
O23 Ti1 1.854261 1_555
O24 P4 1.523092 1_555
O24 Zn6 2.033627 1_556
O25 P5 1.533382 1_555
O25 Zn6 2.011856 1_556
O26 P6 1.518065 1_555
O26 Zn6 1.921028 1_556
O27 P7 1.546322 1_555
O27 Zn7 1.991166 1_555
O28 S8 1.482282 1_555
O28 Zn7 2.056665 1_555
O29 P8 1.524622 1_555
O29 Zn7 1.986812 1_555
O30 P8 1.531386 1_555
O30 Zn8 2.001057 1_555
O31 P7 1.517774 1_555
O31 Zn8 1.953550 1_555
O32 S8 1.478848 1_555
O32 Zn8 2.100275 1_555
O33 P5 1.560318 1_555
O33 Ti2 1.998446 1_555
O34 P6 1.549294 1_555
O34 Ti2 2.007420 1_555
O35 P4 1.557928 1_555
O35 Ti2 1.969787 1_555
O36 P8 1.542682 1_555
O36 Zn0 2.106036 1_565
O37 P7 1.547342 1_555
O37 Zn0 2.057278 1_665
O38 S8 1.467425 1_555
O38 Zn0 2.096611 1_555
O39 P5 1.516780 1_555
O39 Zn1 2.091497 1_555
O40 P6 1.544151 1_555
O40 Zn1 2.186181 1_565
O41 P4 1.523278 1_555
O41 Zn1 2.181413 1_665
O42 P1 1.551721 1_555
O42 Zn2 2.175080 1_555
O43 S5 1.492620 1_555
O43 Zn2 2.286621 1_455
O44 P2 1.558912 1_555
O44 Zn2 2.238464 1_565
O45 P3 1.545968 1_555
O45 Zn3 2.175713 1_655
O46 S6 1.502206 1_555
O46 Zn3 2.363289 1_645
O47 S7 1.481575 1_555
O47 Zn3 2.259736 1_545
O48 S4 1.466801 1_545
O48 Zn4 2.237117 1_555
O49 P0 1.531876 1_555
O49 Zn4 2.060019 1_555
O50 S3 1.473118 1_655
O50 Zn4 2.166515 1_555
O51 S1 1.502256 1_555
O51 Zn5 2.131732 1_555
O52 S2 1.505929 1_655
O52 Zn5 2.149482 1_555
O53 S0 1.482832 1_555
O53 Zn5 2.099795 1_555
O54 P4 1.616836 1_555
O54 Ti0 1.974477 1_555
O55 P5 1.590038 1_655
O55 Ti0 1.933940 1_555
O56 P6 1.586112 1_545
O56 Ti0 1.976960 1_555
O57 P7 1.580599 1_545
O57 Ti1 1.908653 1_555
O58 S8 1.513748 1_555
O58 Ti1 2.156641 1_555
O59 P8 1.615180 1_655
O59 Ti1 1.893467 1_555
O60 S7 1.496057 1_555
O60 Zn6 2.322107 1_555
O61 P3 1.534388 1_455
O61 Zn6 2.120716 1_555
O62 S6 1.475056 1_565
O62 Zn6 2.225828 1_555
O63 S5 1.489532 1_565
O63 Zn7 2.238986 1_555
O64 P2 1.550746 1_555
O64 Zn7 2.185678 1_555
O65 P1 1.543549 1_455
O65 Zn7 2.202186 1_555
O66 S0 1.498618 1_565
O66 Zn8 2.216632 1_555
O67 S1 1.472278 1_555
O67 Zn8 2.235351 1_555
O68 S2 1.493235 1_555
O68 Zn8 2.321900 1_555
O69 P0 1.620921 1_555
O69 Ti2 1.890587 1_555
O70 S3 1.519015 1_555
O70 Ti2 2.060863 1_555
O71 S4 1.522511 1_555
O71 Ti2 2.022216 1_555
