# generated using pymatgen
data_LaSc(SO4)3
_symmetry_space_group_name_H-M   'P 1'
_cell_length_a   9.22585077
_cell_length_b   9.22585043
_cell_length_c   23.87957572
_cell_angle_alpha   90.00000000
_cell_angle_beta   90.00000000
_cell_angle_gamma   120.00000118
_symmetry_Int_Tables_number   1
_chemical_formula_structural   LaSc(SO4)3
_chemical_formula_sum   'La6 Sc6 S18 O72'
_cell_volume   1760.23263187
_cell_formula_units_Z   6
loop_
 _symmetry_equiv_pos_site_id
 _symmetry_equiv_pos_as_xyz
  1  'x, y, z'
loop_
 _atom_site_type_symbol
 _atom_site_label
 _atom_site_symmetry_multiplicity
 _atom_site_fract_x
 _atom_site_fract_y
 _atom_site_fract_z
 _atom_site_occupancy
  La  La0  1  0.00000000  -0.00000000  0.85037472  1
  La  La1  1  0.66666700  0.33333300  0.98295828  1
  La  La2  1  0.33333300  0.66666700  0.02805976  1
  La  La3  1  0.33333300  0.66666700  0.52289530  1
  La  La4  1  0.33333300  0.66666700  0.31043870  1
  La  La5  1  0.33333300  0.66666700  0.80527424  1
  Sc  Sc0  1  0.00000000  -0.00000000  0.35189108  1
  Sc  Sc1  1  0.00000000  -0.00000000  0.64350412  1
  Sc  Sc2  1  0.00000000  -0.00000000  0.14859446  1
  Sc  Sc3  1  0.66666700  0.33333300  0.68473854  1
  Sc  Sc4  1  0.66666700  0.33333300  0.18982888  1
  Sc  Sc5  1  0.66666700  0.33333300  0.48144192  1
  S  S0  1  0.28634083  0.01326667  0.24788761  1
  S  S1  1  0.72692584  0.71365917  0.24788761  1
  S  S2  1  0.98673333  0.27307416  0.24788761  1
  S  S3  1  0.29745046  0.28306711  0.74232203  1
  S  S4  1  0.98561665  0.70254954  0.74232203  1
  S  S5  1  0.71693289  0.01438335  0.74232203  1
  S  S6  1  0.93974116  0.32006633  0.58544539  1
  S  S7  1  0.38032617  0.06025884  0.58544539  1
  S  S8  1  0.67993367  0.61967383  0.58544539  1
  S  S9  1  0.94973411  0.63078346  0.09101097  1
  S  S10  1  0.68105035  0.05026589  0.09101097  1
  S  S11  1  0.36921654  0.31894965  0.09101097  1
  S  S12  1  0.62632825  0.66666700  0.91666700  1
  S  S13  1  0.04033775  0.37367175  0.91666700  1
  S  S14  1  0.33333300  0.95966225  0.91666700  1
  S  S15  1  0.64193876  0.97527276  0.41666700  1
  S  S16  1  0.33333300  0.35806124  0.41666700  1
  S  S17  1  0.02472724  0.66666700  0.41666700  1
  O  O0  1  0.20699196  0.03542117  0.29917743  1
  O  O1  1  0.82842922  0.79300804  0.29917743  1
  O  O2  1  0.96457883  0.17157078  0.29917743  1
  O  O3  1  0.23302857  0.19049975  0.79574611  1
  O  O4  1  0.95747119  0.76697143  0.79574611  1
  O  O5  1  0.80950025  0.04252881  0.79574611  1
  O  O6  1  0.80947742  0.98968247  0.69580250  1
  O  O7  1  0.18020505  0.19052258  0.69580250  1
  O  O8  1  0.01031753  0.81979495  0.69580250  1
  O  O9  1  0.80782471  0.82127759  0.19851575  1
  O  O10  1  0.01345288  0.19217529  0.19851575  1
  O  O11  1  0.17872241  0.98654712  0.19851575  1
  O  O12  1  0.85884229  0.34678588  0.63481725  1
  O  O13  1  0.48794459  0.14115771  0.63481725  1
  O  O14  1  0.65321412  0.51205541  0.63481725  1
  O  O15  1  0.85718958  0.51353805  0.13753050  1
  O  O16  1  0.65634947  0.14281042  0.13753050  1
  O  O17  1  0.48646195  0.34365053  0.13753050  1
  O  O18  1  0.43363843  0.29080419  0.03758689  1
  O  O19  1  0.85716675  0.56636157  0.03758689  1
  O  O20  1  0.70919581  0.14283325  0.03758689  1
  O  O21  1  0.45967504  0.16176222  0.53415557  1
  O  O22  1  0.70208817  0.54032496  0.53415557  1
  O  O23  1  0.83823778  0.29791183  0.53415557  1
  O  O24  1  0.54398437  0.68473578  0.96745228  1
  O  O25  1  0.14075041  0.45601563  0.96745228  1
  O  O26  1  0.31526422  0.85924959  0.96745228  1
  O  O27  1  0.56730934  0.86310519  0.46587089  1
  O  O28  1  0.29579485  0.43269066  0.46587089  1
  O  O29  1  0.13689481  0.70420515  0.46587089  1
  O  O30  1  0.09935666  0.62912885  0.36746311  1
  O  O31  1  0.52977119  0.90064334  0.36746311  1
  O  O32  1  0.37087115  0.47022881  0.36746311  1
  O  O33  1  0.12268163  0.47408441  0.86588172  1
  O  O34  1  0.35140178  0.87731837  0.86588172  1
  O  O35  1  0.52591559  0.64859822  0.86588172  1
  O  O36  1  0.00626872  0.81491036  0.40390433  1
  O  O37  1  0.80864164  0.99373128  0.40390433  1
  O  O38  1  0.18508964  0.19135836  0.40390433  1
  O  O39  1  0.02375580  0.20663793  0.91231405  1
  O  O40  1  0.18288213  0.97624420  0.91231405  1
  O  O41  1  0.79336207  0.81711787  0.91231405  1
  O  O42  1  0.95824924  0.17045854  0.59405620  1
  O  O43  1  0.21220931  0.04175076  0.59405620  1
  O  O44  1  0.82954146  0.78779069  0.59405620  1
  O  O45  1  0.97075648  0.79826724  0.10076101  1
  O  O46  1  0.82751076  0.02924352  0.10076101  1
  O  O47  1  0.20173276  0.17248924  0.10076101  1
  O  O48  1  0.69591052  0.16084376  0.73257199  1
  O  O49  1  0.46493424  0.30408948  0.73257199  1
  O  O50  1  0.83915624  0.53506576  0.73257199  1
  O  O51  1  0.70841776  0.54554231  0.23927680  1
  O  O52  1  0.83712554  0.29158224  0.23927680  1
  O  O53  1  0.45445769  0.16287446  0.23927680  1
  O  O54  1  0.64291120  0.51621513  0.92101895  1
  O  O55  1  0.87330493  0.35708880  0.92101895  1
  O  O56  1  0.48378487  0.12669507  0.92101895  1
  O  O57  1  0.66039828  0.14197464  0.42942867  1
  O  O58  1  0.48157736  0.33960172  0.42942867  1
  O  O59  1  0.85802536  0.51842264  0.42942867  1
  O  O60  1  0.35531840  0.47153007  0.08645344  1
  O  O61  1  0.11621067  0.64468160  0.08645344  1
  O  O62  1  0.52846993  0.88378933  0.08645344  1
  O  O63  1  0.36190476  0.89175776  0.57911447  1
  O  O64  1  0.52985200  0.63809524  0.57911447  1
  O  O65  1  0.10824224  0.47014800  0.57911447  1
  O  O66  1  0.30476124  0.86318600  0.25421953  1
  O  O67  1  0.55842376  0.69523876  0.25421953  1
  O  O68  1  0.13681400  0.44157624  0.25421953  1
  O  O69  1  0.31134760  0.44954467  0.74688056  1
  O  O70  1  0.13819607  0.68865240  0.74688056  1
  O  O71  1  0.55045533  0.86180393  0.74688056  1
loop_
_geom_bond_atom_site_label_1
_geom_bond_atom_site_label_2
_geom_bond_distance
_geom_bond_site_symmetry_2
La0 O39 2.335017 1_555
La0 O41 2.335017 1_445
La0 O40 2.335017 1_545
La0 O5 2.373640 1_455
La0 O3 2.373640 1_555
La0 O4 2.373640 1_445
La1 O56 2.335017 1_555
La1 O54 2.335017 1_555
La1 O55 2.335017 1_555
La1 O20 2.373640 1_556
La1 O19 2.373640 1_556
La1 O18 2.373640 1_556
La2 O25 2.361227 1_554
La2 O26 2.361227 1_554
La2 O24 2.361227 1_554
La2 O62 2.364698 1_555
La2 O60 2.364698 1_555
La2 O61 2.364698 1_555
La3 O63 2.374205 1_555
La3 O65 2.374205 1_555
La3 O64 2.374205 1_555
La3 O28 2.426175 1_555
La3 O27 2.426175 1_555
La3 O29 2.426175 1_555
La4 O68 2.374205 1_555
La4 O66 2.374205 1_555
La4 O67 2.374205 1_555
La4 O31 2.426175 1_555
La4 O32 2.426175 1_555
La4 O30 2.426175 1_555
La5 O34 2.361227 1_555
La5 O33 2.361227 1_555
La5 O35 2.361227 1_555
La5 O69 2.364698 1_555
La5 O71 2.364698 1_555
La5 O70 2.364698 1_555
O0 S0 1.492449 1_555
O0 Sc0 2.171202 1_555
O1 S1 1.492449 1_555
O1 Sc0 2.171202 1_665
O2 S2 1.492449 1_555
O2 Sc0 2.171202 1_655
O3 S3 1.484092 1_555
O4 S4 1.484092 1_555
O5 S5 1.484092 1_555
O6 S5 1.486440 1_565
O6 Sc1 2.119205 1_665
O7 S3 1.486440 1_555
O7 Sc1 2.119205 1_555
O8 S4 1.486440 1_455
O8 Sc1 2.119205 1_565
O9 S1 1.480473 1_555
O9 Sc2 2.088040 1_665
O10 S2 1.480473 1_455
O10 Sc2 2.088040 1_555
O11 S0 1.480473 1_565
O11 Sc2 2.088040 1_565
O12 S6 1.480473 1_555
O12 Sc3 2.088040 1_555
O13 S7 1.480473 1_555
O13 Sc3 2.088040 1_555
O14 S8 1.480473 1_555
O14 Sc3 2.088040 1_555
O15 S9 1.486440 1_555
O15 Sc4 2.119205 1_555
O16 S10 1.486440 1_555
O16 Sc4 2.119205 1_555
O17 S11 1.486440 1_555
O17 Sc4 2.119205 1_555
O18 S11 1.484092 1_555
O19 S9 1.484092 1_555
O20 S10 1.484092 1_555
O21 S7 1.492449 1_555
O21 Sc5 2.171202 1_555
O22 S8 1.492449 1_555
O22 Sc5 2.171202 1_555
O23 S6 1.492449 1_555
O23 Sc5 2.171202 1_555
O24 S12 1.484007 1_555
O25 S13 1.484007 1_555
O26 S14 1.484007 1_555
O27 S15 1.487615 1_555
O28 S16 1.487615 1_555
O29 S17 1.487615 1_555
O30 S17 1.487615 1_555
O31 S15 1.487615 1_555
O32 S16 1.487615 1_555
O33 S13 1.484007 1_555
O34 S14 1.484007 1_555
O35 S12 1.484007 1_555
O36 S17 1.491749 1_555
O36 Sc0 2.135587 1_565
O37 S15 1.491758 1_555
O37 Sc0 2.135587 1_665
O38 S16 1.491755 1_555
O38 Sc0 2.135587 1_555
O39 S13 1.474187 1_555
O40 S14 1.474178 1_555
O41 S12 1.474184 1_555
O42 S6 1.487359 1_555
O42 Sc1 2.149779 1_655
O43 S7 1.487368 1_555
O43 Sc1 2.149779 1_555
O44 S8 1.487364 1_555
O44 Sc1 2.149779 1_665
O45 S9 1.476388 1_555
O45 Sc2 2.083093 1_665
O46 S10 1.476379 1_555
O46 Sc2 2.083093 1_655
O47 S11 1.476384 1_555
O47 Sc2 2.083093 1_555
O48 S5 1.476379 1_555
O48 Sc3 2.083093 1_555
O49 S3 1.476388 1_555
O49 Sc3 2.083093 1_555
O50 S4 1.476384 1_555
O50 Sc3 2.083093 1_555
O51 S1 1.487368 1_555
O51 Sc4 2.149779 1_555
O52 S2 1.487359 1_555
O52 Sc4 2.149779 1_555
O53 S0 1.487364 1_555
O53 Sc4 2.149779 1_555
O54 S12 1.474191 1_555
O55 S13 1.474173 1_655
O56 S14 1.474180 1_545
O57 S15 1.491741 1_545
O57 Sc5 2.135587 1_555
O58 S16 1.491759 1_555
O58 Sc5 2.135587 1_555
O59 S17 1.491748 1_655
O59 Sc5 2.135587 1_555
O60 S11 1.479985 1_555
O61 S9 1.479967 1_455
O62 S10 1.479975 1_565
O63 S7 1.484658 1_565
O64 S8 1.484677 1_555
O65 S6 1.484666 1_455
O66 S0 1.484665 1_565
O67 S1 1.484674 1_555
O68 S2 1.484670 1_455
O69 S3 1.479982 1_555
O70 S4 1.479973 1_455
O71 S5 1.479978 1_565
