# generated using pymatgen
data_Na3InSb2
_symmetry_space_group_name_H-M   'P 1'
_cell_length_a   7.96339911
_cell_length_b   10.33446554
_cell_length_c   16.65431859
_cell_angle_alpha   87.24852231
_cell_angle_beta   90.00005445
_cell_angle_gamma   89.99962361
_symmetry_Int_Tables_number   1
_chemical_formula_structural   Na3InSb2
_chemical_formula_sum   'Na24 In8 Sb16'
_cell_volume   1369.02823783
_cell_formula_units_Z   8
loop_
 _symmetry_equiv_pos_site_id
 _symmetry_equiv_pos_as_xyz
  1  'x, y, z'
loop_
 _atom_site_type_symbol
 _atom_site_label
 _atom_site_symmetry_multiplicity
 _atom_site_fract_x
 _atom_site_fract_y
 _atom_site_fract_z
 _atom_site_occupancy
  Na  Na0  1  0.15344668  0.87128889  0.70195173  1
  Na  Na1  1  0.65344794  0.12871156  0.79804647  1
  Na  Na2  1  0.84655622  0.12871194  0.29805442  1
  Na  Na3  1  0.34655967  0.87128877  0.20195358  1
  Na  Na4  1  0.49127463  0.56075247  0.10729000  1
  Na  Na5  1  0.99127360  0.43924790  0.39270889  1
  Na  Na6  1  0.50873218  0.43924854  0.89270893  1
  Na  Na7  1  0.00873196  0.56075216  0.60728955  1
  Na  Na8  1  0.97161509  0.18753354  0.64713076  1
  Na  Na9  1  0.47161625  0.81246711  0.85286842  1
  Na  Na10  1  0.02838934  0.81246694  0.35286757  1
  Na  Na11  1  0.52838981  0.18753308  0.14713056  1
  Na  Na12  1  0.84888057  0.38344582  0.04699647  1
  Na  Na13  1  0.34888066  0.61655498  0.45300179  1
  Na  Na14  1  0.15112812  0.61655493  0.95300280  1
  Na  Na15  1  0.65112604  0.38345013  0.54699728  1
  Na  Na16  1  0.96884164  0.92820322  0.89242523  1
  Na  Na17  1  0.46883735  0.07179676  0.60757590  1
  Na  Na18  1  0.03116434  0.07179734  0.10757451  1
  Na  Na19  1  0.53116296  0.92820230  0.39242449  1
  Na  Na20  1  0.01290803  0.32246187  0.86183735  1
  Na  Na21  1  0.51290780  0.67753860  0.63816160  1
  Na  Na22  1  0.98709846  0.67753923  0.13816162  1
  Na  Na23  1  0.48709805  0.32246109  0.36183765  1
  In  In0  1  0.85186038  0.63938893  0.79189622  1
  In  In1  1  0.35186356  0.36061185  0.70810176  1
  In  In2  1  0.14814164  0.36061217  0.20810329  1
  In  In3  1  0.64814227  0.63938799  0.29189505  1
  In  In4  1  0.86267913  0.87434205  0.54256041  1
  In  In5  1  0.36268172  0.12566103  0.95743794  1
  In  In6  1  0.13729150  0.12566216  0.45743837  1
  In  In7  1  0.63732324  0.87433973  0.04256210  1
  Sb  Sb0  1  0.76158421  0.64897193  0.96218284  1
  Sb  Sb1  1  0.26158038  0.35102981  0.53781381  1
  Sb  Sb2  1  0.23841682  0.35100707  0.03782107  1
  Sb  Sb3  1  0.73842397  0.64898705  0.46218188  1
  Sb  Sb4  1  0.75846841  0.87977143  0.70922548  1
  Sb  Sb5  1  0.25847251  0.12023246  0.79077832  1
  Sb  Sb6  1  0.24153069  0.12023210  0.29077999  1
  Sb  Sb7  1  0.74153987  0.87976897  0.20922136  1
  Sb  Sb8  1  0.78142176  0.40645701  0.22613260  1
  Sb  Sb9  1  0.28142120  0.59354127  0.27386457  1
  Sb  Sb10  1  0.21858217  0.59353914  0.77386446  1
  Sb  Sb11  1  0.71858446  0.40646044  0.72613291  1
  Sb  Sb12  1  0.27195384  0.87255028  0.02221294  1
  Sb  Sb13  1  0.77187347  0.12743472  0.47780141  1
  Sb  Sb14  1  0.72804946  0.12744027  0.97778912  1
  Sb  Sb15  1  0.22804291  0.87256194  0.52220758  1
loop_
_geom_bond_atom_site_label_1
_geom_bond_atom_site_label_2
_geom_bond_distance
_geom_bond_site_symmetry_2
Na0 Sb15 3.051298 1_555
Na0 Sb10 3.100408 1_555
Na0 Sb5 3.142001 1_565
Na0 Sb4 3.149083 1_455
Na1 Sb14 3.051281 1_555
Na1 Sb11 3.100413 1_555
Na1 Sb4 3.141904 1_545
Na1 Sb5 3.149057 1_555
Na2 Sb13 3.051477 1_555
Na2 Sb8 3.100415 1_555
Na2 Sb7 3.142031 1_545
Na2 Sb6 3.149053 1_655
Na3 Sb12 3.051259 1_555
Na3 Sb9 3.100388 1_555
Na3 Sb6 3.141996 1_565
Na3 Sb7 3.149095 1_555
Na4 Sb2 3.214422 1_555
Na4 Sb9 3.270155 1_555
Na4 Sb0 3.330701 1_554
Na4 Sb8 3.390522 1_555
Na5 Sb3 3.214347 1_555
Na5 Sb8 3.270176 1_555
Na5 Sb1 3.330646 1_655
Na5 Sb9 3.390548 1_655
Na6 Sb0 3.214268 1_555
Na6 Sb11 3.270170 1_555
Na6 Sb2 3.330844 1_556
Na6 Sb10 3.390533 1_555
Na7 Sb1 3.214239 1_555
Na7 Sb10 3.270144 1_555
Na7 Sb3 3.330726 1_455
Na7 Sb11 3.390531 1_455
Na8 Sb13 3.322162 1_555
Na8 Sb11 3.346029 1_555
Na8 Sb1 3.347566 1_655
Na8 Sb5 3.356429 1_655
Na8 Sb4 3.708202 1_545
Na9 Sb12 3.322039 1_556
Na9 Sb10 3.346083 1_555
Na9 Sb0 3.347535 1_555
Na9 Sb4 3.356362 1_555
Na9 Sb5 3.708181 1_565
Na10 Sb15 3.321970 1_555
Na10 Sb9 3.346033 1_555
Na10 Sb3 3.347462 1_455
Na10 Sb7 3.356372 1_455
Na10 Sb6 3.708181 1_565
Na11 Sb14 3.322007 1_554
Na11 Sb8 3.346030 1_555
Na11 Sb2 3.347416 1_555
Na11 Sb6 3.356470 1_555
Na11 Sb7 3.708196 1_545
Na12 Sb8 3.051864 1_555
Na12 Sb14 3.089789 1_554
Na12 Sb0 3.104228 1_554
Na12 Sb2 3.124619 1_655
Na13 Sb9 3.051885 1_555
Na13 Sb15 3.089797 1_555
Na13 Sb1 3.104224 1_555
Na13 Sb3 3.124676 1_555
Na14 Sb10 3.051899 1_555
Na14 Sb12 3.089702 1_556
Na14 Sb2 3.104440 1_556
Na14 Sb0 3.124660 1_455
Na15 Sb11 3.051853 1_555
Na15 Sb13 3.089581 1_555
Na15 Sb3 3.104348 1_555
Na15 Sb1 3.124684 1_555
Na16 Sb14 3.196650 1_565
Na16 Sb12 3.272621 1_656
Na16 Sb5 3.435304 1_665
Na16 Sb0 3.475523 1_555
Na16 Sb4 3.537333 1_555
Na17 Sb15 3.196695 1_545
Na17 Sb13 3.272017 1_555
Na17 Sb4 3.435284 1_545
Na17 Sb1 3.475539 1_555
Na17 Sb5 3.537347 1_555
Na18 Sb12 3.196688 1_545
Na18 Sb14 3.272596 1_454
Na18 Sb7 3.435265 1_445
Na18 Sb2 3.475303 1_555
Na18 Sb6 3.537396 1_555
Na19 Sb13 3.196346 1_565
Na19 Sb15 3.272607 1_555
Na19 Sb6 3.435277 1_565
Na19 Sb3 3.475382 1_555
Na19 Sb7 3.537398 1_555
Na20 Sb5 3.135259 1_555
Na20 Sb11 3.341637 1_455
Na20 Sb2 3.461950 1_556
Na20 Sb10 3.504749 1_555
Na20 Sb14 3.544487 1_455
Na21 Sb4 3.135312 1_555
Na21 Sb10 3.341644 1_555
Na21 Sb3 3.461933 1_555
Na21 Sb11 3.504737 1_555
Na21 Sb15 3.544529 1_555
Na22 Sb7 3.135236 1_555
Na22 Sb9 3.341614 1_655
Na22 Sb0 3.461931 1_554
Na22 Sb8 3.504787 1_555
Na22 Sb12 3.544385 1_655
Na23 Sb6 3.135276 1_555
Na23 Sb8 3.341649 1_555
Na23 Sb1 3.461911 1_555
Na23 Sb9 3.504765 1_555
Na23 Sb13 3.544174 1_555
In0 Sb4 2.879536 1_555
In0 Sb11 2.893735 1_555
In0 Sb0 2.931986 1_555
In0 Sb10 2.976038 1_655
In0 Na7 3.451583 1_655
In0 Na14 3.587980 1_655
In0 Na16 3.613778 1_555
In0 Na20 3.655496 1_655
In0 Na0 3.662070 1_655
In0 Na9 3.684263 1_555
In0 Na21 3.728220 1_555
In0 Na6 3.772271 1_555
In1 Sb5 2.879559 1_555
In1 Sb10 2.893725 1_555
In1 Sb1 2.932019 1_555
In1 Sb11 2.976034 1_555
In1 Na6 3.451583 1_555
In1 Na15 3.587933 1_555
In1 Na17 3.613734 1_555
In1 Na21 3.655495 1_555
In1 Na1 3.662041 1_555
In1 Na8 3.684304 1_455
In1 Na20 3.728256 1_555
In1 Na7 3.772265 1_555
In2 Sb6 2.879552 1_555
In2 Sb9 2.893736 1_555
In2 Sb2 2.931931 1_555
In2 Sb8 2.976010 1_455
In2 Na5 3.451553 1_455
In2 Na12 3.587947 1_455
In2 Na18 3.613772 1_555
In2 Na22 3.655486 1_455
In2 Na2 3.662109 1_455
In2 Na11 3.684297 1_555
In2 Na23 3.728240 1_555
In2 Na4 3.772302 1_555
In3 Sb7 2.879565 1_555
In3 Sb8 2.893750 1_555
In3 Sb3 2.932012 1_555
In3 Sb9 2.976030 1_555
In3 Na4 3.451545 1_555
In3 Na13 3.587955 1_555
In3 Na19 3.613768 1_555
In3 Na23 3.655507 1_555
In3 Na3 3.662015 1_555
In3 Na10 3.684306 1_655
In3 Na22 3.728236 1_555
In3 Na5 3.772274 1_555
In4 Sb13 2.873411 1_565
In4 Sb4 2.900218 1_555
In4 Sb3 2.914500 1_555
In4 Sb15 2.929376 1_655
In4 Na7 3.561192 1_655
In4 Na19 3.660301 1_555
In5 Sb12 2.873519 1_546
In5 Sb5 2.900126 1_555
In5 Sb2 2.914478 1_556
In5 Sb14 2.929403 1_555
In5 Na6 3.561178 1_555
In5 Na18 3.660328 1_556
In6 Sb15 2.873428 1_545
In6 Sb6 2.900177 1_555
In6 Sb1 2.914672 1_555
In6 Sb13 2.929824 1_455
In6 Na5 3.561064 1_455
In6 Na17 3.660496 1_555
In7 Sb14 2.873411 1_564
In7 Sb7 2.900137 1_555
In7 Sb0 2.914620 1_554
In7 Sb12 2.929414 1_555
In7 Na4 3.561166 1_555
In7 Na16 3.660337 1_554
