# generated using pymatgen
data_CaAsPd
_symmetry_space_group_name_H-M   'P 1'
_cell_length_a   7.16018011
_cell_length_b   8.67165053
_cell_length_c   16.69388756
_cell_angle_alpha   90.00000000
_cell_angle_beta   90.00000000
_cell_angle_gamma   90.00000000
_symmetry_Int_Tables_number   1
_chemical_formula_structural   CaAsPd
_chemical_formula_sum   'Ca16 As16 Pd16'
_cell_volume   1036.53315514
_cell_formula_units_Z   16
loop_
 _symmetry_equiv_pos_site_id
 _symmetry_equiv_pos_as_xyz
  1  'x, y, z'
loop_
 _atom_site_type_symbol
 _atom_site_label
 _atom_site_symmetry_multiplicity
 _atom_site_fract_x
 _atom_site_fract_y
 _atom_site_fract_z
 _atom_site_occupancy
  Ca  Ca0  1  0.76564374  0.00805208  0.18819183  1
  Ca  Ca1  1  0.26564374  0.49194792  0.31180817  1
  Ca  Ca2  1  0.23435626  0.50805208  0.81180817  1
  Ca  Ca3  1  0.73435626  0.99194792  0.68819183  1
  Ca  Ca4  1  0.23435626  0.99194792  0.81180817  1
  Ca  Ca5  1  0.73435626  0.50805208  0.68819183  1
  Ca  Ca6  1  0.76564374  0.49194792  0.18819183  1
  Ca  Ca7  1  0.26564374  0.00805208  0.31180817  1
  Ca  Ca8  1  0.25162691  0.02064978  0.06113921  1
  Ca  Ca9  1  0.75162691  0.47935022  0.43886079  1
  Ca  Ca10  1  0.74837309  0.52064978  0.93886079  1
  Ca  Ca11  1  0.24837309  0.97935022  0.56113921  1
  Ca  Ca12  1  0.74837309  0.97935022  0.93886079  1
  Ca  Ca13  1  0.24837309  0.52064978  0.56113921  1
  Ca  Ca14  1  0.25162691  0.47935022  0.06113921  1
  Ca  Ca15  1  0.75162691  0.02064978  0.43886079  1
  As  As0  1  0.57073036  0.75000000  0.29032293  1
  As  As1  1  0.92926964  0.25000000  0.79032293  1
  As  As2  1  0.42926964  0.25000000  0.70967707  1
  As  As3  1  0.57666268  0.75000000  0.57050257  1
  As  As4  1  0.07666268  0.75000000  0.92949743  1
  As  As5  1  0.42333732  0.25000000  0.42949743  1
  As  As6  1  0.92333732  0.25000000  0.07050257  1
  As  As7  1  0.64097087  0.75000000  0.06674498  1
  As  As8  1  0.07073036  0.75000000  0.20967707  1
  As  As9  1  0.14097087  0.75000000  0.43325502  1
  As  As10  1  0.35902913  0.25000000  0.93325502  1
  As  As11  1  0.85902913  0.25000000  0.56674498  1
  As  As12  1  0.05050130  0.75000000  0.67777676  1
  As  As13  1  0.55050130  0.75000000  0.82222324  1
  As  As14  1  0.94949870  0.25000000  0.32222324  1
  As  As15  1  0.44949870  0.25000000  0.17777676  1
  Pd  Pd0  1  0.39415228  0.75000000  0.16720399  1
  Pd  Pd1  1  0.89415228  0.75000000  0.33279601  1
  Pd  Pd2  1  0.60584772  0.25000000  0.83279601  1
  Pd  Pd3  1  0.10584772  0.25000000  0.66720399  1
  Pd  Pd4  1  0.98399546  0.75000000  0.07068575  1
  Pd  Pd5  1  0.48399546  0.75000000  0.42931425  1
  Pd  Pd6  1  0.01600454  0.25000000  0.92931425  1
  Pd  Pd7  1  0.39242302  0.75000000  0.69192847  1
  Pd  Pd8  1  0.89242302  0.75000000  0.80807153  1
  Pd  Pd9  1  0.60757698  0.25000000  0.30807153  1
  Pd  Pd10  1  0.10757698  0.25000000  0.19192847  1
  Pd  Pd11  1  0.90622505  0.75000000  0.53889413  1
  Pd  Pd12  1  0.40622505  0.75000000  0.96110587  1
  Pd  Pd13  1  0.09377495  0.25000000  0.46110587  1
  Pd  Pd14  1  0.59377495  0.25000000  0.03889413  1
  Pd  Pd15  1  0.51600454  0.25000000  0.57068575  1
loop_
_geom_bond_atom_site_label_1
_geom_bond_atom_site_label_2
_geom_bond_distance
_geom_bond_site_symmetry_2
Ca0 Pd9 3.112547 1_555
Ca0 Pd10 3.224911 1_655
Ca0 Pd4 3.361519 1_545
Ca0 Pd1 3.417830 1_545
Ca0 Pd14 3.482561 1_555
Ca0 Pd0 3.493643 1_545
Ca1 Pd10 3.112547 1_555
Ca1 Pd9 3.224911 1_555
Ca1 Pd5 3.361519 1_555
Ca1 Pd0 3.417830 1_555
Ca1 Pd13 3.482561 1_555
Ca1 Pd1 3.493643 1_455
Ca2 Pd7 3.112547 1_555
Ca2 Pd8 3.224911 1_455
Ca2 Pd6 3.361519 1_555
Ca2 Pd3 3.417830 1_555
Ca2 Pd12 3.482561 1_555
Ca2 Pd2 3.493643 1_555
Ca3 Pd8 3.112547 1_555
Ca3 Pd7 3.224911 1_555
Ca3 Pd15 3.361519 1_565
Ca3 Pd2 3.417830 1_565
Ca3 Pd11 3.482561 1_555
Ca3 Pd3 3.493643 1_665
Ca4 Pd7 3.112547 1_555
Ca4 Pd8 3.224911 1_455
Ca4 Pd6 3.361519 1_565
Ca4 Pd3 3.417830 1_565
Ca4 Pd12 3.482561 1_555
Ca4 Pd2 3.493643 1_565
Ca5 Pd8 3.112547 1_555
Ca5 Pd7 3.224911 1_555
Ca5 Pd15 3.361519 1_555
Ca5 Pd2 3.417830 1_555
Ca5 Pd11 3.482561 1_555
Ca5 Pd3 3.493643 1_655
Ca6 Pd9 3.112547 1_555
Ca6 Pd10 3.224911 1_655
Ca6 Pd4 3.361519 1_555
Ca6 Pd1 3.417830 1_555
Ca6 Pd14 3.482561 1_555
Ca6 Pd0 3.493643 1_555
Ca7 Pd10 3.112547 1_555
Ca7 Pd9 3.224911 1_555
Ca7 Pd5 3.361519 1_545
Ca7 Pd0 3.417830 1_545
Ca7 Pd13 3.482561 1_555
Ca7 Pd1 3.493643 1_445
Ca8 Pd4 3.034119 1_445
Ca8 Pd12 3.085834 1_544
Ca8 Pd0 3.112056 1_545
Ca8 Pd10 3.128337 1_555
Ca8 Pd14 3.177284 1_555
Ca8 Pd6 3.412442 1_554
Ca9 Pd5 3.034119 1_555
Ca9 Pd11 3.085834 1_555
Ca9 Pd1 3.112056 1_555
Ca9 Pd9 3.128337 1_555
Ca9 Pd13 3.177284 1_655
Ca9 Pd15 3.412442 1_555
Ca10 Pd6 3.034119 1_655
Ca10 Pd14 3.085834 1_556
Ca10 Pd2 3.112056 1_555
Ca10 Pd8 3.128337 1_555
Ca10 Pd12 3.177284 1_555
Ca10 Pd4 3.412442 1_556
Ca11 Pd15 3.034119 1_565
Ca11 Pd13 3.085834 1_565
Ca11 Pd3 3.112056 1_565
Ca11 Pd7 3.128337 1_555
Ca11 Pd11 3.177284 1_455
Ca11 Pd5 3.412442 1_555
Ca12 Pd6 3.034119 1_665
Ca12 Pd14 3.085834 1_566
Ca12 Pd2 3.112056 1_565
Ca12 Pd8 3.128337 1_555
Ca12 Pd12 3.177284 1_555
Ca12 Pd4 3.412442 1_556
Ca13 Pd15 3.034119 1_555
Ca13 Pd13 3.085834 1_555
Ca13 Pd3 3.112056 1_555
Ca13 Pd7 3.128337 1_555
Ca13 Pd11 3.177284 1_455
Ca13 Pd5 3.412442 1_555
Ca14 Pd4 3.034119 1_455
Ca14 Pd12 3.085834 1_554
Ca14 Pd0 3.112056 1_555
Ca14 Pd10 3.128337 1_555
Ca14 Pd14 3.177284 1_555
Ca14 Pd6 3.412442 1_554
Ca15 Pd5 3.034119 1_545
Ca15 Pd11 3.085834 1_545
Ca15 Pd1 3.112056 1_545
Ca15 Pd9 3.128337 1_555
Ca15 Pd13 3.177284 1_655
Ca15 Pd15 3.412442 1_555
As0 Pd5 2.401979 1_555
As0 Pd0 2.413075 1_555
As0 Pd1 2.421875 1_555
As0 Ca0 3.140401 1_565
As0 Ca6 3.140401 1_555
As0 Ca7 3.147705 1_565
As0 Ca1 3.147705 1_555
As1 Pd6 2.401979 1_655
As1 Pd3 2.413075 1_655
As1 Pd2 2.421875 1_555
As1 Ca5 3.140401 1_555
As1 Ca3 3.140401 1_545
As1 Ca2 3.147705 1_655
As1 Ca4 3.147705 1_645
As2 Pd15 2.401979 1_555
As2 Pd2 2.413075 1_555
As2 Pd3 2.421875 1_555
As2 Ca2 3.140401 1_555
As2 Ca4 3.140401 1_545
As2 Ca3 3.147705 1_545
As2 Ca5 3.147705 1_555
As3 Pd11 2.418003 1_555
As3 Pd7 2.418527 1_555
As3 Pd5 2.448594 1_555
As3 Ca13 3.083069 1_555
As3 Ca11 3.083069 1_555
As3 Ca5 3.088185 1_555
As3 Ca3 3.088185 1_555
As3 Ca9 3.450691 1_555
As3 Ca15 3.450691 1_565
As4 Pd12 2.418003 1_555
As4 Pd8 2.418527 1_455
As4 Pd4 2.448594 1_456
As4 Ca10 3.083069 1_455
As4 Ca12 3.083069 1_455
As4 Ca4 3.088185 1_555
As4 Ca2 3.088185 1_555
As4 Ca14 3.450691 1_556
As4 Ca8 3.450691 1_566
As5 Pd13 2.418003 1_555
As5 Pd9 2.418527 1_555
As5 Pd15 2.448594 1_555
As5 Ca9 3.083069 1_555
As5 Ca15 3.083069 1_555
As5 Ca7 3.088185 1_555
As5 Ca1 3.088185 1_555
As5 Ca11 3.450691 1_545
As5 Ca13 3.450691 1_555
As6 Pd14 2.418003 1_555
As6 Pd10 2.418527 1_655
As6 Pd6 2.448594 1_654
As6 Ca8 3.083069 1_655
As6 Ca14 3.083069 1_655
As6 Ca6 3.088185 1_555
As6 Ca0 3.088185 1_555
As6 Ca12 3.450691 1_544
As6 Ca10 3.450691 1_554
As7 Pd12 2.436225 1_554
As7 Pd0 2.436335 1_555
As7 Pd4 2.456999 1_555
As7 Ca10 3.017387 1_554
As7 Ca12 3.017387 1_554
As7 Ca0 3.148774 1_565
As7 Ca6 3.148774 1_555
As8 Pd4 2.401979 1_455
As8 Pd1 2.413075 1_455
As8 Pd0 2.421875 1_555
As8 Ca7 3.140401 1_565
As8 Ca1 3.140401 1_555
As8 Ca0 3.147705 1_465
As8 Ca6 3.147705 1_455
As9 Pd11 2.436225 1_455
As9 Pd1 2.436335 1_455
As9 Pd5 2.456999 1_555
As9 Ca13 3.017387 1_555
As9 Ca11 3.017387 1_555
As9 Ca7 3.148774 1_565
As9 Ca1 3.148774 1_555
As10 Pd14 2.436225 1_556
As10 Pd2 2.436335 1_555
As10 Pd6 2.456999 1_555
As10 Ca8 3.017387 1_556
As10 Ca14 3.017387 1_556
As10 Ca4 3.148774 1_545
As10 Ca2 3.148774 1_555
As11 Pd13 2.436225 1_655
As11 Pd3 2.436335 1_655
As11 Pd15 2.456999 1_555
As11 Ca9 3.017387 1_555
As11 Ca15 3.017387 1_555
As11 Ca5 3.148774 1_555
As11 Ca3 3.148774 1_545
As12 Pd8 2.451999 1_455
As12 Pd7 2.459593 1_555
As12 Pd11 2.538224 1_455
As12 Ca5 3.091333 1_455
As12 Ca3 3.091333 1_455
As12 Ca13 3.123164 1_555
As12 Ca11 3.123164 1_555
As12 Ca4 3.337874 1_555
As12 Ca2 3.337874 1_555
As13 Pd7 2.451999 1_555
As13 Pd8 2.459593 1_555
As13 Pd12 2.538224 1_555
As13 Ca4 3.091333 1_555
As13 Ca2 3.091333 1_555
As13 Ca10 3.123164 1_555
As13 Ca12 3.123164 1_555
As13 Ca3 3.337874 1_555
As13 Ca5 3.337874 1_555
As14 Pd10 2.451999 1_655
As14 Pd9 2.459593 1_555
As14 Pd13 2.538224 1_655
As14 Ca7 3.091333 1_655
As14 Ca1 3.091333 1_655
As14 Ca15 3.123164 1_555
As14 Ca9 3.123164 1_555
As14 Ca6 3.337874 1_555
As14 Ca0 3.337874 1_555
As15 Pd9 2.451999 1_555
As15 Pd10 2.459593 1_555
As15 Pd14 2.538224 1_555
As15 Ca6 3.091333 1_555
As15 Ca0 3.091333 1_555
As15 Ca14 3.123164 1_555
As15 Ca8 3.123164 1_555
As15 Ca7 3.337874 1_555
As15 Ca1 3.337874 1_555
