# generated using pymatgen
data_Na4Ti3Zn(PO4)6
_symmetry_space_group_name_H-M   'P 1'
_cell_length_a   8.73860985
_cell_length_b   8.75103396
_cell_length_c   22.15241334
_cell_angle_alpha   90.00072378
_cell_angle_beta   89.99391920
_cell_angle_gamma   119.97393106
_symmetry_Int_Tables_number   1
_chemical_formula_structural   Na4Ti3Zn(PO4)6
_chemical_formula_sum   'Na12 Ti9 Zn3 P18 O72'
_cell_volume   1467.46387283
_cell_formula_units_Z   3
loop_
 _symmetry_equiv_pos_site_id
 _symmetry_equiv_pos_as_xyz
  1  'x, y, z'
loop_
 _atom_site_type_symbol
 _atom_site_label
 _atom_site_symmetry_multiplicity
 _atom_site_fract_x
 _atom_site_fract_y
 _atom_site_fract_z
 _atom_site_occupancy
  Na  Na0  1  0.64012383  0.00926020  0.24714210  1
  Na  Na1  1  0.36939054  0.35997771  0.24721724  1
  Na  Na2  1  0.99084882  0.63002182  0.24691370  1
  Na  Na3  1  0.99101910  0.36511612  0.74632369  1
  Na  Na4  1  0.37248797  0.00537889  0.74634696  1
  Na  Na5  1  0.70722286  0.67377471  0.41550713  1
  Na  Na6  1  0.00942770  0.00995869  0.49707801  1
  Na  Na7  1  0.00013051  0.00027987  0.00018904  1
  Na  Na8  1  0.66577887  0.34231839  0.83363993  1
  Na  Na9  1  0.66573231  0.32434454  0.33354742  1
  Na  Na10  1  0.33336109  0.66662911  0.16205809  1
  Na  Na11  1  0.34281261  0.66552306  0.66309091  1
  Ti  Ti0  1  0.00103347  0.99910004  0.85480704  1
  Ti  Ti1  1  0.99641259  0.99686331  0.64289494  1
  Ti  Ti2  1  0.00133489  0.00105560  0.14448118  1
  Ti  Ti3  1  0.66712247  0.33239770  0.98199648  1
  Ti  Ti4  1  0.66590993  0.32712417  0.48315891  1
  Ti  Ti5  1  0.33269033  0.66641879  0.02000826  1
  Ti  Ti6  1  0.33189744  0.66527601  0.52067067  1
  Ti  Ti7  1  0.33206482  0.66742425  0.31689093  1
  Ti  Ti8  1  0.33885700  0.66556266  0.81619066  1
  Zn  Zn0  1  0.00655121  0.00744284  0.35287301  1
  Zn  Zn1  1  0.66540247  0.34044416  0.68151627  1
  Zn  Zn2  1  0.66686507  0.33327370  0.17782795  1
  P  P0  1  0.29032942  -0.00013465  0.25067146  1
  P  P1  1  0.70913793  0.70939494  0.25160048  1
  P  P2  1  -0.00031416  0.29003098  0.25078163  1
  P  P3  1  0.28706318  0.28830883  0.75051046  1
  P  P4  1  0.99821258  0.71248766  0.75087561  1
  P  P5  1  0.71195262  0.99406141  0.75073530  1
  P  P6  1  0.95983125  0.33413881  0.58501987  1
  P  P7  1  0.37463800  0.03966621  0.58497855  1
  P  P8  1  0.66508767  0.62392142  0.58299551  1
  P  P9  1  0.95990958  0.62603903  0.08352897  1
  P  P10  1  0.66547449  0.03931465  0.08362543  1
  P  P11  1  0.37450763  0.33470057  0.08349974  1
  P  P12  1  0.62346962  0.66584941  0.91804934  1
  P  P13  1  0.04347782  0.37756418  0.91682189  1
  P  P14  1  0.33491941  0.95653914  0.91694162  1
  P  P15  1  0.62069392  0.95912252  0.41818988  1
  P  P16  1  0.33211878  0.37511140  0.41845541  1
  P  P17  1  0.04249057  0.66409029  0.41852241  1
  O  O0  1  0.21280878  0.03471779  0.30618940  1
  O  O1  1  0.81604289  0.78313955  0.30924258  1
  O  O2  1  0.96245066  0.17619334  0.30611445  1
  O  O3  1  0.19229143  0.16988778  0.80654170  1
  O  O4  1  0.97961173  0.80865643  0.80689738  1
  O  O5  1  0.83102069  0.02147490  0.80624191  1
  O  O6  1  0.80000451  0.96828921  0.69401350  1
  O  O7  1  0.16585156  0.20258673  0.69469607  1
  O  O8  1  0.03357068  0.83378017  0.69501744  1
  O  O9  1  0.79980470  0.83399260  0.19605705  1
  O  O10  1  0.03584072  0.20288495  0.19433512  1
  O  O11  1  0.16772933  0.96477985  0.19416036  1
  O  O12  1  0.89186837  0.36932440  0.64348948  1
  O  O13  1  0.47891749  0.10713052  0.64331032  1
  O  O14  1  0.62700135  0.51525373  0.63943040  1
  O  O15  1  0.89536930  0.52451006  0.14242757  1
  O  O16  1  0.62874498  0.10442301  0.14236102  1
  O  O17  1  0.47569315  0.37109098  0.14246127  1
  O  O18  1  0.46985690  0.30658104  0.02870712  1
  O  O19  1  0.83669768  0.53018998  0.02872501  1
  O  O20  1  0.69360980  0.16293073  0.02876392  1
  O  O21  1  0.46992150  0.16414493  0.52960846  1
  O  O22  1  0.69608312  0.53848623  0.52530418  1
  O  O23  1  0.83604290  0.30609688  0.52961837  1
  O  O24  1  0.53353817  0.69495333  0.97242190  1
  O  O25  1  0.16310717  0.46857177  0.97121674  1
  O  O26  1  0.30594352  0.83722685  0.97135684  1
  O  O27  1  0.52349728  0.83682187  0.47159162  1
  O  O28  1  0.31606103  0.47689380  0.47233572  1
  O  O29  1  0.16135268  0.68417012  0.47213547  1
  O  O30  1  0.13081732  0.63772700  0.35971814  1
  O  O31  1  0.50587244  0.87105172  0.35927983  1
  O  O32  1  0.36553404  0.49564923  0.36016938  1
  O  O33  1  0.13055665  0.49179383  0.85879793  1
  O  O34  1  0.36160806  0.86934496  0.85890903  1
  O  O35  1  0.50405603  0.63895803  0.86115386  1
  O  O36  1  0.01863196  0.82379633  0.41513242  1
  O  O37  1  0.79892043  0.96949998  0.41430759  1
  O  O38  1  0.16959161  0.19619392  0.41510621  1
  O  O39  1  0.02571430  0.19346527  0.90940696  1
  O  O40  1  0.16803477  0.97425958  0.90973779  1
  O  O41  1  0.80629574  0.83235374  0.90951934  1
  O  O42  1  0.97589909  0.16500271  0.58849106  1
  O  O43  1  0.18959859  0.02456514  0.58908099  1
  O  O44  1  0.83483329  0.81041978  0.58884566  1
  O  O45  1  0.97624757  0.81170133  0.08809672  1
  O  O46  1  0.83511735  0.02304068  0.08817440  1
  O  O47  1  0.18849481  0.16499527  0.08806944  1
  O  O48  1  0.69146531  0.15807713  0.74839267  1
  O  O49  1  0.46648803  0.30186583  0.74810714  1
  O  O50  1  0.84047017  0.52746089  0.74859740  1
  O  O51  1  0.68111272  0.52284583  0.24437516  1
  O  O52  1  0.84216496  0.32000815  0.24375222  1
  O  O53  1  0.47765510  0.15757610  0.24386807  1
  O  O54  1  0.63987863  0.49941569  0.92352048  1
  O  O55  1  0.85961291  0.36023002  0.92353953  1
  O  O56  1  0.50062872  0.14054716  0.92353370  1
  O  O57  1  0.63268509  0.14088632  0.42375859  1
  O  O58  1  0.50826962  0.37100124  0.42330125  1
  O  O59  1  0.85772116  0.49384392  0.42327433  1
  O  O60  1  0.35008386  0.49641501  0.07228836  1
  O  O61  1  0.14611721  0.64980443  0.07226455  1
  O  O62  1  0.50327874  0.85373498  0.07221854  1
  O  O63  1  0.35025927  0.85457880  0.57313155  1
  O  O64  1  0.50506651  0.65200223  0.57290662  1
  O  O65  1  0.14527155  0.49541442  0.57366425  1
  O  O66  1  0.30340487  0.82588810  0.25503781  1
  O  O67  1  0.52191721  0.69602493  0.25527457  1
  O  O68  1  0.17371034  0.47681056  0.25557584  1
  O  O69  1  0.29710201  0.47129251  0.75754867  1
  O  O70  1  0.17185282  0.70009574  0.75682787  1
  O  O71  1  0.52407985  0.82797181  0.75696463  1
loop_
_geom_bond_atom_site_label_1
_geom_bond_atom_site_label_2
_geom_bond_distance
_geom_bond_site_symmetry_2
Na0 O53 2.355172 1_555
Na0 O52 2.391725 1_555
Na0 O67 2.404993 1_545
Na0 O16 2.484752 1_555
Na0 O66 2.558429 1_545
Na0 O31 2.755297 1_545
Na0 O2 2.768332 1_555
Na0 O9 2.778194 1_545
Na1 O51 2.361398 1_555
Na1 O53 2.390019 1_555
Na1 O68 2.398010 1_555
Na1 O17 2.483311 1_555
Na1 O67 2.557332 1_555
Na1 O32 2.776948 1_555
Na1 O10 2.784759 1_555
Na1 O0 2.790831 1_555
Na2 O52 2.351808 1_555
Na2 O51 2.381658 1_555
Na2 O66 2.398451 1_655
Na2 O15 2.477244 1_555
Na2 O68 2.555145 1_655
Na2 O30 2.768264 1_655
Na2 O11 2.794972 1_655
Na2 O1 2.842540 1_555
Na3 O48 2.323357 1_555
Na3 O69 2.365637 1_655
Na3 O50 2.370486 1_555
Na3 O12 2.444132 1_555
Na3 O70 2.552623 1_655
Na3 O33 2.752019 1_655
Na3 O7 2.799275 1_655
Na3 O5 2.925485 1_555
Na4 O49 2.297493 1_555
Na4 O70 2.363195 1_545
Na4 O48 2.415697 1_555
Na4 O13 2.457604 1_555
Na4 O71 2.505085 1_545
Na4 O34 2.744224 1_545
Na4 O8 2.806447 1_545
Na4 O3 2.931697 1_555
Na5 O37 2.295204 1_555
Na5 O58 2.338764 1_555
Na5 O36 2.357795 1_655
Na5 O59 2.511522 1_555
Na5 O1 2.540045 1_555
Na5 O22 2.685503 1_555
Na5 O32 2.863234 1_555
Na5 O27 2.906129 1_555
Na6 O38 2.373333 1_555
Na6 O36 2.467102 1_545
Na6 O37 2.494221 1_445
Na6 O42 2.534653 1_455
Na6 O43 2.539409 1_555
Na6 O44 2.616652 1_445
Na7 O46 2.490848 1_455
Na7 O47 2.491362 1_555
Na7 O45 2.492990 1_445
Na7 O40 2.559832 1_544
Na7 O39 2.564106 1_554
Na7 O41 2.564443 1_444
Na8 O50 2.456128 1_555
Na8 O49 2.476489 1_555
Na8 O54 2.493253 1_555
Na8 O48 2.564669 1_555
Na8 O55 2.568097 1_555
Na8 O56 2.572796 1_555
Na9 O57 2.488200 1_555
Na9 O53 2.526187 1_555
Na9 O52 2.528470 1_555
Na9 O59 2.545538 1_555
Na9 O58 2.563993 1_555
Na9 O51 2.589290 1_555
Na10 O60 2.532207 1_555
Na10 O61 2.532913 1_555
Na10 O62 2.533105 1_555
Na10 O66 2.572489 1_555
Na10 O67 2.573408 1_555
Na10 O68 2.584804 1_555
Na11 O64 2.486482 1_555
Na11 O65 2.559937 1_555
Na11 O71 2.570032 1_555
Na11 O63 2.570055 1_555
Na11 O69 2.597791 1_555
Na11 O70 2.661998 1_555
O0 P0 1.506895 1_555
O0 Zn0 1.986165 1_555
O1 P1 1.522343 1_555
O1 Zn0 2.072116 1_665
O2 P2 1.508912 1_655
O2 Zn0 1.992730 1_655
O3 P3 1.562913 1_555
O3 Ti0 1.916759 1_545
O4 P4 1.552873 1_555
O4 Ti0 1.904516 1_655
O5 P5 1.550145 1_545
O5 Ti0 1.921980 1_645
O6 P5 1.547567 1_555
O6 Ti1 1.965048 1_555
O7 P3 1.555547 1_555
O7 Ti1 2.021633 1_445
O8 P4 1.557403 1_455
O8 Ti1 1.984575 1_455
O9 P1 1.570724 1_555
O9 Ti2 1.992778 1_665
O10 P2 1.576585 1_555
O10 Ti2 1.974329 1_555
O11 P0 1.575058 1_565
O11 Ti2 1.971740 1_565
O12 P6 1.519122 1_555
O12 Zn1 2.046902 1_555
O13 P7 1.520316 1_555
O13 Zn1 2.053358 1_555
O14 P8 1.503895 1_555
O14 Zn1 1.958321 1_555
O15 P9 1.519547 1_555
O15 Zn2 2.015818 1_555
O16 P10 1.517639 1_555
O16 Zn2 2.018019 1_555
O17 P11 1.519255 1_555
O17 Zn2 2.016647 1_555
O18 P11 1.559725 1_555
O18 Ti3 1.924530 1_554
O19 P9 1.560313 1_555
O19 Ti3 1.923739 1_554
O20 P10 1.562650 1_555
O20 Ti3 1.915541 1_554
O21 P7 1.574144 1_555
O21 Ti4 1.893430 1_555
O22 P8 1.570948 1_555
O22 Ti4 1.968507 1_555
O23 P6 1.572137 1_555
O23 Ti4 1.891330 1_555
O24 P12 1.527428 1_555
O24 Ti5 1.953399 1_556
O25 P13 1.532131 1_555
O25 Ti5 1.948980 1_556
O26 P14 1.530728 1_555
O26 Ti5 1.949262 1_556
O27 P15 1.535514 1_555
O27 Ti6 1.930580 1_555
O28 P16 1.537041 1_555
O28 Ti6 1.911893 1_555
O29 P17 1.529107 1_555
O29 Ti6 1.910750 1_555
O30 P17 1.588586 1_555
O30 Ti7 1.898250 1_555
O31 P15 1.591018 1_555
O31 Ti7 1.913078 1_555
O32 P16 1.599141 1_555
O32 Ti7 1.924507 1_555
O33 P13 1.571698 1_555
O33 Ti8 1.936610 1_555
O34 P14 1.570675 1_555
O34 Ti8 1.939317 1_555
O35 P12 1.577253 1_555
O35 Ti8 1.861843 1_555
O36 P17 1.514443 1_555
O36 Zn0 2.160023 1_565
O37 P15 1.516557 1_555
O37 Zn0 2.156835 1_665
O38 P16 1.500718 1_555
O38 Zn0 2.075496 1_555
O39 P13 1.548125 1_555
O39 Ti0 2.008968 1_545
O40 P14 1.549932 1_555
O40 Ti0 1.993758 1_555
O41 P12 1.544392 1_555
O41 Ti0 2.003131 1_655
O42 P6 1.556932 1_555
O42 Ti1 1.978188 1_545
O43 P7 1.557826 1_555
O43 Ti1 1.980022 1_445
O44 P8 1.568995 1_555
O44 Ti1 1.946195 1_555
O45 P9 1.561605 1_555
O45 Ti2 1.997752 1_665
O46 P10 1.561749 1_555
O46 Ti2 1.995559 1_655
O47 P11 1.563920 1_555
O47 Ti2 1.987419 1_555
O48 P5 1.533498 1_545
O48 Zn1 2.270870 1_555
O49 P3 1.513079 1_555
O49 Zn1 2.173615 1_555
O50 P4 1.514668 1_555
O50 Zn1 2.173878 1_555
O51 P1 1.533349 1_555
O51 Zn2 2.175874 1_555
O52 P2 1.532553 1_655
O52 Zn2 2.161252 1_555
O53 P0 1.532854 1_555
O53 Zn2 2.167350 1_555
O54 P12 1.537932 1_555
O54 Ti3 2.053952 1_555
O55 P13 1.543739 1_655
O55 Ti3 2.038598 1_555
O56 P14 1.543138 1_545
O56 Ti3 2.042634 1_555
O57 P15 1.545874 1_545
O57 Ti4 1.999790 1_555
O58 P16 1.561301 1_555
O58 Ti4 2.081412 1_555
O59 P17 1.560142 1_655
O59 Ti4 2.062519 1_555
O60 P11 1.552984 1_555
O60 Ti5 1.950301 1_555
O61 P9 1.554045 1_455
O61 Ti5 1.944762 1_555
O62 P10 1.552500 1_565
O62 Ti5 1.950785 1_555
O63 P7 1.546908 1_565
O63 Ti6 1.963415 1_555
O64 P8 1.552153 1_555
O64 Ti6 1.954087 1_555
O65 P6 1.547836 1_455
O65 Ti6 1.955690 1_555
O66 P0 1.585619 1_565
O66 Ti7 2.051904 1_555
O67 P1 1.582932 1_555
O67 Ti7 2.064652 1_555
O68 P2 1.584889 1_555
O68 Ti7 2.058192 1_555
O69 P3 1.567095 1_555
O69 Ti8 2.022655 1_555
O70 P4 1.579883 1_455
O70 Ti8 2.095597 1_555
O71 P5 1.562863 1_555
O71 Ti8 2.015469 1_555
