# generated using pymatgen
data_Na10Zr4In4Si7S5O48
_symmetry_space_group_name_H-M   'P 1'
_cell_length_a   18.35086072
_cell_length_b   9.14766567
_cell_length_c   23.07040102
_cell_angle_alpha   89.88870998
_cell_angle_beta   90.21218416
_cell_angle_gamma   119.77097391
_symmetry_Int_Tables_number   1
_chemical_formula_structural   Na10Zr4In4Si7S5O48
_chemical_formula_sum   'Na30 Zr12 In12 Si21 S15 O144'
_cell_volume   3361.60879091
_cell_formula_units_Z   3
loop_
 _symmetry_equiv_pos_site_id
 _symmetry_equiv_pos_as_xyz
  1  'x, y, z'
loop_
 _atom_site_type_symbol
 _atom_site_label
 _atom_site_symmetry_multiplicity
 _atom_site_fract_x
 _atom_site_fract_y
 _atom_site_fract_z
 _atom_site_occupancy
  Na  Na0  1  0.18599749  0.37361357  0.24005871  1
  Na  Na1  1  0.68598812  0.37408518  0.24047466  1
  Na  Na2  1  0.99140002  0.62714489  0.25457541  1
  Na  Na3  1  0.49210602  0.62703959  0.25439908  1
  Na  Na4  1  0.49149335  0.35189109  0.75948801  1
  Na  Na5  1  0.18609272  0.99850886  0.74428187  1
  Na  Na6  1  0.68576517  -0.00050299  0.74332086  1
  Na  Na7  1  0.65904439  0.34173964  0.57935832  1
  Na  Na8  1  0.01874088  0.70571616  0.57685342  1
  Na  Na9  1  0.82577400  0.95880139  0.59126179  1
  Na  Na10  1  0.49122743  0.67127400  0.91136029  1
  Na  Na11  1  0.99276180  0.67361334  0.91007357  1
  Na  Na12  1  0.85213606  0.03840950  0.90538660  1
  Na  Na13  1  0.15694762  0.29299410  0.92352341  1
  Na  Na14  1  0.49165807  0.31274273  0.41041710  1
  Na  Na15  1  0.98915957  0.30911495  0.41061275  1
  Na  Na16  1  0.35226270  0.66541492  0.40539378  1
  Na  Na17  1  0.85259461  0.66734746  0.40914658  1
  Na  Na18  1  0.02166511  0.00661010  0.49596850  1
  Na  Na19  1  0.51838289  0.99190267  0.49434047  1
  Na  Na20  1  0.01376508  0.02207516  0.99860226  1
  Na  Na21  1  0.51748078  0.04405913  0.99346091  1
  Na  Na22  1  0.34065734  0.32277364  0.83116600  1
  Na  Na23  1  0.84583008  0.33961403  0.82438579  1
  Na  Na24  1  0.33689974  0.33489130  0.32719755  1
  Na  Na25  1  0.83578554  0.33428590  0.32939312  1
  Na  Na26  1  0.17585342  0.65979733  0.16021658  1
  Na  Na27  1  0.67544634  0.66040059  0.16077573  1
  Na  Na28  1  0.17615883  0.68317193  0.66730142  1
  Na  Na29  1  0.67391396  0.68638042  0.66448915  1
  Zr  Zr0  1  0.99803129  0.98779410  0.64901634  1
  Zr  Zr1  1  0.49579278  0.98220275  0.64879415  1
  Zr  Zr2  1  0.99949713  0.01269227  0.14661698  1
  Zr  Zr3  1  0.49901994  0.01117944  0.14654460  1
  Zr  Zr4  1  0.32961533  0.31954121  0.97957935  1
  Zr  Zr5  1  0.82449711  0.32295560  0.98033039  1
  Zr  Zr6  1  0.32619999  0.32830618  0.48010678  1
  Zr  Zr7  1  0.82776187  0.34120212  0.48056870  1
  Zr  Zr8  1  0.16475031  0.65388147  0.31332256  1
  Zr  Zr9  1  0.66413087  0.65404288  0.31374158  1
  Zr  Zr10  1  0.16250094  0.67493821  0.81335246  1
  Zr  Zr11  1  0.66508782  0.67564088  0.81396424  1
  In  In0  1  0.00133110  0.00062982  0.35027302  1
  In  In1  1  0.50163466  0.00030011  0.34966830  1
  In  In2  1  0.99866517  0.99896404  0.84756081  1
  In  In3  1  0.49757782  -0.00016297  0.85222635  1
  In  In4  1  0.33285191  0.32639427  0.68468644  1
  In  In5  1  0.83501048  0.33453255  0.68520140  1
  In  In6  1  0.33423883  0.34245467  0.18222568  1
  In  In7  1  0.83406629  0.34241878  0.18259874  1
  In  In8  1  0.16088251  0.65119701  0.01680961  1
  In  In9  1  0.65892386  0.64705057  0.01740674  1
  In  In10  1  0.16389074  0.67320885  0.51579539  1
  In  In11  1  0.66199943  0.66902951  0.51773091  1
  Si  Si0  1  0.35320344  0.70929910  0.25071302  1
  Si  Si1  1  0.85342825  0.70994781  0.25071410  1
  Si  Si2  1  0.99553430  0.29144530  0.25230228  1
  Si  Si3  1  0.49557443  0.29137283  0.25226550  1
  Si  Si4  1  0.99634395  0.69670178  0.75251344  1
  Si  Si5  1  0.49590907  0.69866417  0.75322014  1
  Si  Si6  1  0.35284533  0.99657282  0.74977354  1
  Si  Si7  1  0.85102869  0.00015954  0.75070930  1
  Si  Si8  1  0.18569341  0.03307428  0.58630102  1
  Si  Si9  1  0.68494797  0.03815520  0.58594776  1
  Si  Si10  1  0.83115907  0.62765972  0.58324269  1
  Si  Si11  1  0.18552608  0.33796792  0.08424611  1
  Si  Si12  1  0.68439611  0.33792644  0.08656450  1
  Si  Si13  1  0.01866431  0.36788016  0.91681444  1
  Si  Si14  1  0.51750426  0.36467787  0.91574342  1
  Si  Si15  1  0.16449581  0.95761351  0.91789594  1
  Si  Si16  1  0.66390319  0.95569239  0.91936236  1
  Si  Si17  1  0.16394337  0.37095537  0.41857429  1
  Si  Si18  1  0.66333394  0.36637392  0.41921220  1
  Si  Si19  1  0.01776025  0.66925769  0.41746309  1
  Si  Si20  1  0.51840620  0.66926220  0.41646692  1
  S  S0  1  0.14708032  0.00000809  0.24912264  1
  S  S1  1  0.64730525  0.99983147  0.24892417  1
  S  S2  1  0.14812615  0.29827149  0.75019332  1
  S  S3  1  0.64517519  0.29191605  0.74889426  1
  S  S4  1  0.48046459  0.32971527  0.58362519  1
  S  S5  1  0.98156992  0.33298184  0.58174656  1
  S  S6  1  0.33240073  0.62622315  0.58249268  1
  S  S7  1  0.48213662  0.63302922  0.08394543  1
  S  S8  1  0.98207570  0.63276987  0.08331182  1
  S  S9  1  0.33178865  0.03745995  0.08430081  1
  S  S10  1  0.83224406  0.03859107  0.08309378  1
  S  S11  1  0.31215906  0.66490619  0.91829568  1
  S  S12  1  0.81261662  0.66514389  0.91820884  1
  S  S13  1  0.31273744  0.96104802  0.41731577  1
  S  S14  1  0.81299136  0.96209994  0.41773964  1
  O  O0  1  0.11170324  0.03269784  0.30177076  1
  O  O1  1  0.61194544  0.03261570  0.30164394  1
  O  O2  1  0.40794645  0.78116671  0.31028403  1
  O  O3  1  0.90896288  0.78206432  0.30993437  1
  O  O4  1  0.48488490  0.19379847  0.31314136  1
  O  O5  1  0.98560746  0.19447676  0.31307758  1
  O  O6  1  0.11300119  0.20023939  0.80464943  1
  O  O7  1  0.60635862  0.18568610  0.80015152  1
  O  O8  1  0.48617332  0.77848361  0.81293389  1
  O  O9  1  0.98987331  0.78138273  0.81287268  1
  O  O10  1  0.41701134  0.04590645  0.80354758  1
  O  O11  1  0.90212644  0.02266029  0.81082048  1
  O  O12  1  0.40145194  0.98137790  0.69126809  1
  O  O13  1  0.90132144  0.98853401  0.69272897  1
  O  O14  1  0.09417618  0.21013434  0.69956633  1
  O  O15  1  0.59316528  0.21253057  0.69525205  1
  O  O16  1  0.01308763  0.82431093  0.69613960  1
  O  O17  1  0.51421800  0.82820131  0.69750595  1
  O  O18  1  0.40639576  0.82617977  0.19543446  1
  O  O19  1  0.90638793  0.82719632  0.19510711  1
  O  O20  1  0.01618417  0.20011940  0.19804705  1
  O  O21  1  0.51545361  0.19865669  0.19815968  1
  O  O22  1  0.09317337  0.97476340  0.19752401  1
  O  O23  1  0.59324378  0.97444978  0.19747309  1
  O  O24  1  0.44142365  0.34999427  0.63654549  1
  O  O25  1  0.94141455  0.35934796  0.63278550  1
  O  O26  1  0.23598609  0.11613794  0.64611334  1
  O  O27  1  0.73904589  0.11386275  0.64531208  1
  O  O28  1  0.32432087  0.52635226  0.63441935  1
  O  O29  1  0.81365289  0.50075448  0.63621178  1
  O  O30  1  0.44437948  0.53461242  0.13784177  1
  O  O31  1  0.94411817  0.53503723  0.13715229  1
  O  O32  1  0.32396030  0.11895866  0.13680669  1
  O  O33  1  0.82503605  0.12338835  0.13499497  1
  O  O34  1  0.23462839  0.35054905  0.14512046  1
  O  O35  1  0.73333179  0.35135103  0.14747981  1
  O  O36  1  0.23637848  0.31846563  0.02773783  1
  O  O37  1  0.73824991  0.31879070  0.03184911  1
  O  O38  1  0.43062380  0.54305661  0.03216388  1
  O  O39  1  0.93089304  0.54350263  0.03134751  1
  O  O40  1  0.34338753  0.14352594  0.03184264  1
  O  O41  1  0.84386128  0.14190875  0.02966925  1
  O  O42  1  0.23876495  0.15505791  0.53054520  1
  O  O43  1  0.73678750  0.16695624  0.53098862  1
  O  O44  1  0.34313462  0.54520071  0.52898816  1
  O  O45  1  0.85084537  0.54932649  0.52373717  1
  O  O46  1  0.43071514  0.31763207  0.53094886  1
  O  O47  1  0.93101537  0.31115571  0.52803180  1
  O  O48  1  0.27563378  0.68956293  0.97126088  1
  O  O49  1  0.77500754  0.68992472  0.97054460  1
  O  O50  1  0.08082454  0.43614452  0.97230989  1
  O  O51  1  0.57220473  0.44601748  0.97322587  1
  O  O52  1  0.14905007  0.83565580  0.97268196  1
  O  O53  1  0.65471512  0.84011979  0.97453202  1
  O  O54  1  0.27554438  0.86245843  0.47029850  1
  O  O55  1  0.77686558  0.86574652  0.47157875  1
  O  O56  1  0.15288181  0.46638704  0.47356980  1
  O  O57  1  0.65129438  0.45045288  0.47766585  1
  O  O58  1  0.06726569  0.69486950  0.47838548  1
  O  O59  1  0.57485224  0.69775513  0.47296230  1
  O  O60  1  0.06853211  0.64895778  0.36116199  1
  O  O61  1  0.56256001  0.64305310  0.35735212  1
  O  O62  1  0.26089546  0.88197296  0.36546879  1
  O  O63  1  0.75985981  0.87728290  0.36653039  1
  O  O64  1  0.18324413  0.49039650  0.35958565  1
  O  O65  1  0.67942606  0.49129952  0.36221104  1
  O  O66  1  0.06653788  0.49401830  0.86148448  1
  O  O67  1  0.56317419  0.48535730  0.85733972  1
  O  O68  1  0.17900663  0.87669164  0.85805328  1
  O  O69  1  0.68359911  0.87513121  0.86021167  1
  O  O70  1  0.25954038  0.63967832  0.86654865  1
  O  O71  1  0.76144221  0.64035935  0.86577175  1
  O  O72  1  0.99858439  0.82487965  0.41279013  1
  O  O73  1  0.49708590  0.82237523  0.41250573  1
  O  O74  1  0.39747619  0.97967722  0.41306459  1
  O  O75  1  0.89738402  0.97814642  0.41289809  1
  O  O76  1  0.07948089  0.18866465  0.41311621  1
  O  O77  1  0.57835157  0.18473456  0.41273302  1
  O  O78  1  0.00222196  0.17505973  0.91030354  1
  O  O79  1  0.50139905  0.17481956  0.91175252  1
  O  O80  1  0.08187787  0.98344361  0.91325496  1
  O  O81  1  0.57930120  0.96826920  0.91326290  1
  O  O82  1  0.39892587  0.80561456  0.91342870  1
  O  O83  1  0.89794824  0.81530401  0.91381161  1
  O  O84  1  0.48793487  0.17452585  0.58626426  1
  O  O85  1  0.98675011  0.17663339  0.58708034  1
  O  O86  1  0.09116968  0.01511040  0.58769153  1
  O  O87  1  0.59390863  0.03697766  0.58819425  1
  O  O88  1  0.41092272  0.79500866  0.58559057  1
  O  O89  1  0.91629944  0.81621590  0.58913621  1
  O  O90  1  0.48623743  0.79937323  0.08739904  1
  O  O91  1  0.98672583  0.79993149  0.08648828  1
  O  O92  1  0.40961650  0.02314366  0.08738723  1
  O  O93  1  0.91061556  0.02503995  0.08660548  1
  O  O94  1  0.09158814  0.16294890  0.08763534  1
  O  O95  1  0.59113830  0.16354631  0.08848406  1
  O  O96  1  0.33790789  0.16064903  0.74668432  1
  O  O97  1  0.83153160  0.15645400  0.74753329  1
  O  O98  1  0.23201070  0.31194674  0.74469143  1
  O  O99  1  0.72917966  0.31096749  0.74418964  1
  O  O100  1  0.41772648  0.50859387  0.74332193  1
  O  O101  1  0.91510675  0.51284106  0.74601873  1
  O  O102  1  0.33859892  0.51562180  0.24712896  1
  O  O103  1  0.83933877  0.51666598  0.24705916  1
  O  O104  1  0.41713879  0.32544447  0.24280695  1
  O  O105  1  0.91711958  0.32507257  0.24264687  1
  O  O106  1  0.23206228  0.14704525  0.24312560  1
  O  O107  1  0.73231090  0.14658291  0.24304683  1
  O  O108  1  0.31775443  0.50485361  0.92285857  1
  O  O109  1  0.82498592  0.51478308  0.92326931  1
  O  O110  1  0.42726457  0.37156571  0.92231319  1
  O  O111  1  0.92749774  0.36371546  0.92476094  1
  O  O112  1  0.24754076  0.15040567  0.92316382  1
  O  O113  1  0.75203051  0.14207343  0.92422560  1
  O  O114  1  0.32441955  0.13520459  0.42208755  1
  O  O115  1  0.82476685  0.13518710  0.42128082  1
  O  O116  1  0.25210163  0.36144350  0.42357348  1
  O  O117  1  0.75167144  0.35877773  0.42008045  1
  O  O118  1  0.42595410  0.48754163  0.42279174  1
  O  O119  1  0.92683541  0.48596243  0.41932323  1
  O  O120  1  0.17775772  0.50851737  0.08110425  1
  O  O121  1  0.67772652  0.50893996  0.08195287  1
  O  O122  1  0.06748225  0.65539994  0.08056244  1
  O  O123  1  0.56767756  0.65699874  0.08147182  1
  O  O124  1  0.25731290  0.86954632  0.07858325  1
  O  O125  1  0.75845074  0.87023894  0.07848490  1
  O  O126  1  0.17110781  0.83978572  0.58175988  1
  O  O127  1  0.67842618  0.85478815  0.57959960  1
  O  O128  1  0.25855412  0.64813789  0.57761044  1
  O  O129  1  0.74896297  0.65181770  0.57761544  1
  O  O130  1  0.06618500  0.48321098  0.57856316  1
  O  O131  1  0.56678840  0.47628931  0.58162146  1
  O  O132  1  0.15094875  0.84207588  0.25478395  1
  O  O133  1  0.65124785  0.84201310  0.25459705  1
  O  O134  1  0.25894690  0.69141171  0.25424525  1
  O  O135  1  0.75886109  0.69067952  0.25476007  1
  O  O136  1  0.08273227  0.48259629  0.25483162  1
  O  O137  1  0.58322092  0.48176815  0.25458668  1
  O  O138  1  0.15699155  0.46686773  0.75403865  1
  O  O139  1  0.64946543  0.45781128  0.75376482  1
  O  O140  1  0.08661498  0.69322505  0.75266203  1
  O  O141  1  0.58363735  0.68471226  0.75424961  1
  O  O142  1  0.25981889  0.82646691  0.75469334  1
  O  O143  1  0.75738023  0.82408051  0.75326660  1
loop_
_geom_bond_atom_site_label_1
_geom_bond_atom_site_label_2
_geom_bond_distance
_geom_bond_site_symmetry_2
Na0 O34 2.416906 1_555
Na0 O102 2.437424 1_555
Na0 O134 2.546804 1_555
Na0 O136 2.565794 1_555
Na0 O106 2.598843 1_555
Na0 O20 2.870757 1_555
Na0 O64 2.968817 1_555
Na1 O35 2.365563 1_555
Na1 O103 2.448698 1_555
Na1 O135 2.537463 1_555
Na1 O137 2.546251 1_555
Na1 O107 2.610197 1_555
Na1 O21 2.884094 1_555
Na2 O105 2.414343 1_555
Na2 O103 2.456545 1_555
Na2 O132 2.592548 1_655
Na2 O136 2.599662 1_655
Na2 O60 2.790268 1_655
Na2 O31 2.840228 1_555
Na2 O3 2.842238 1_555
Na3 O104 2.409688 1_555
Na3 O102 2.479577 1_555
Na3 O133 2.587010 1_555
Na3 O137 2.601571 1_555
Na3 O61 2.669265 1_555
Na3 O30 2.822905 1_555
Na3 O2 2.866956 1_555
Na4 O100 2.438765 1_555
Na4 O96 2.488102 1_555
Na4 O139 2.563782 1_555
Na4 O67 2.590553 1_555
Na4 O10 2.633635 1_555
Na4 O141 2.651550 1_555
Na4 O24 2.975631 1_555
Na5 O96 2.420769 1_565
Na5 O140 2.471140 1_555
Na5 O26 2.480509 1_565
Na5 O142 2.544705 1_555
Na5 O98 2.555753 1_565
Na5 O68 2.827589 1_555
Na5 O16 2.967981 1_555
Na6 O97 2.326118 1_555
Na6 O27 2.480814 1_555
Na6 O143 2.538744 1_545
Na6 O99 2.549333 1_555
Na6 O141 2.551306 1_545
Na7 O87 2.435740 1_555
Na7 O129 2.474291 1_555
Na7 O131 2.540474 1_555
Na7 O57 2.577254 1_555
Na7 O84 2.730897 1_555
Na7 O29 2.787006 1_555
Na7 O43 2.849715 1_555
Na7 O15 2.932570 1_555
Na8 O126 2.434689 1_555
Na8 O58 2.463125 1_555
Na8 O86 2.470617 1_565
Na8 O89 2.555021 1_455
Na8 O130 2.581025 1_555
Na9 O127 2.393695 1_555
Na9 O129 2.457876 1_555
Na9 O89 2.572143 1_555
Na9 O85 2.619571 1_565
Na9 O13 2.660773 1_555
Na9 O27 2.891943 1_565
Na9 O55 2.895872 1_555
Na10 O81 2.373726 1_555
Na10 O110 2.400395 1_555
Na10 O8 2.491339 1_555
Na10 O82 2.539569 1_555
Na10 O108 2.777387 1_555
Na10 O67 2.904999 1_555
Na10 O53 2.980787 1_555
Na10 O38 3.015741 1_556
Na11 O9 2.458812 1_555
Na11 O80 2.471777 1_655
Na11 O111 2.492623 1_555
Na11 O83 2.637381 1_555
Na11 O109 2.691801 1_555
Na11 O66 2.831206 1_655
Na11 O52 2.874874 1_655
Na12 O78 2.395903 1_655
Na12 O11 2.401943 1_555
Na12 O113 2.490030 1_555
Na12 O83 2.571170 1_545
Na12 O111 2.623244 1_555
Na12 O69 2.877015 1_545
Na13 O80 2.469525 1_545
Na13 O78 2.504340 1_555
Na13 O112 2.572689 1_555
Na13 O50 2.601331 1_555
Na13 O108 2.604822 1_555
Na13 O36 2.756521 1_556
Na13 O6 2.864364 1_555
Na14 O77 2.398776 1_555
Na14 O118 2.451733 1_555
Na14 O4 2.471606 1_555
Na14 O74 2.654129 1_545
Na14 O114 2.680190 1_555
Na14 O61 2.900826 1_555
Na14 O57 2.980750 1_555
Na14 O46 3.009699 1_555
Na15 O76 2.403593 1_655
Na15 O119 2.409539 1_555
Na15 O5 2.471325 1_555
Na15 O115 2.632533 1_555
Na15 O75 2.634750 1_545
Na15 O47 2.918626 1_555
Na15 O60 2.930760 1_655
Na15 O56 2.981510 1_655
Na16 O73 2.315115 1_555
Na16 O2 2.431675 1_555
Na16 O116 2.492367 1_555
Na16 O74 2.572202 1_555
Na16 O118 2.610730 1_555
Na16 O64 2.889844 1_555
Na16 O44 3.029208 1_555
Na17 O72 2.329350 1_555
Na17 O117 2.504087 1_555
Na17 O3 2.518006 1_555
Na17 O75 2.538899 1_555
Na17 O119 2.627793 1_555
Na17 O45 2.847915 1_555
Na17 O65 2.960321 1_555
Na18 O76 2.408465 1_555
Na18 O72 2.435681 1_445
Na18 O86 2.448030 1_555
Na18 O89 2.839716 1_445
Na18 O85 2.874051 1_455
Na18 O75 2.884775 1_445
Na19 O73 2.350764 1_555
Na19 O77 2.437608 1_565
Na19 O87 2.488558 1_565
Na19 O88 2.837849 1_555
Na19 O74 2.859159 1_555
Na19 O84 2.924033 1_565
Na20 O80 2.454329 1_545
Na20 O94 2.465799 1_556
Na20 O78 2.536370 1_555
Na20 O91 2.734368 1_446
Na20 O93 2.790232 1_456
Na20 O83 2.812952 1_445
Na21 O79 2.325714 1_555
Na21 O81 2.447958 1_545
Na21 O95 2.519477 1_556
Na21 O82 2.858903 1_545
Na21 O92 2.881708 1_556
Na21 O90 2.958274 1_546
Na22 O96 2.436578 1_555
Na22 O110 2.534041 1_555
Na22 O100 2.572386 1_555
Na22 O112 2.692394 1_555
Na22 O98 2.782110 1_555
Na22 O108 2.853278 1_555
Na23 O101 2.324062 1_555
Na23 O97 2.364574 1_555
Na23 O111 2.702818 1_555
Na23 O99 2.736706 1_555
Na23 O113 2.908257 1_555
Na23 O109 2.923620 1_555
Na24 O102 2.466540 1_555
Na24 O104 2.472723 1_555
Na24 O106 2.668008 1_555
Na24 O118 2.683923 1_555
Na24 O114 2.784650 1_555
Na24 O116 2.797717 1_555
Na25 O103 2.505243 1_555
Na25 O105 2.527369 1_555
Na25 O119 2.589328 1_555
Na25 O117 2.679409 1_555
Na25 O107 2.696214 1_555
Na25 O115 2.733927 1_555
Na26 O120 2.303428 1_555
Na26 O124 2.573211 1_555
Na26 O134 2.579641 1_555
Na26 O122 2.688365 1_555
Na26 O136 2.752355 1_555
Na26 O132 2.920154 1_555
Na27 O121 2.301340 1_555
Na27 O135 2.584164 1_555
Na27 O125 2.590883 1_555
Na27 O123 2.678005 1_555
Na27 O137 2.735963 1_555
Na27 O133 2.897579 1_555
Na28 O126 2.464798 1_555
Na28 O142 2.475680 1_555
Na28 O140 2.600284 1_555
Na28 O128 2.679087 1_555
Na28 O138 2.709580 1_555
Na28 O130 2.815645 1_555
Na29 O127 2.465439 1_555
Na29 O143 2.489651 1_555
Na29 O129 2.543396 1_555
Na29 O141 2.652012 1_555
Na29 O131 2.729021 1_555
Na29 O139 2.806001 1_555
In0 O3 2.089669 1_445
In0 O5 2.112909 1_455
In0 O72 2.139748 1_445
In0 O76 2.159149 1_555
In0 O0 2.205891 1_555
In0 O75 2.323357 1_445
In1 O2 2.091105 1_545
In1 O4 2.114307 1_555
In1 O77 2.140296 1_555
In1 O73 2.148124 1_545
In1 O1 2.198586 1_555
In1 O74 2.343013 1_545
In2 O11 2.067223 1_565
In2 O9 2.077097 1_555
In2 O78 2.144376 1_665
In2 O80 2.201430 1_655
In2 O6 2.223582 1_665
In2 O83 2.345639 1_555
In3 O10 2.056522 1_555
In3 O79 2.085519 1_555
In3 O8 2.133192 1_545
In3 O81 2.174436 1_545
In3 O7 2.226685 1_555
In3 O82 2.289687 1_545
In4 O26 2.061723 1_555
In4 O100 2.109243 1_555
In4 O96 2.117430 1_555
In4 O24 2.199550 1_555
In4 O28 2.233818 1_555
In4 O98 2.265764 1_555
In5 O29 2.079638 1_555
In5 O101 2.098174 1_555
In5 O27 2.118473 1_555
In5 O97 2.148008 1_555
In5 O25 2.214215 1_555
In5 O99 2.296271 1_555
In6 O34 2.049928 1_555
In6 O104 2.123767 1_555
In6 O102 2.154112 1_555
In6 O30 2.168785 1_555
In6 O32 2.222000 1_555
In6 O106 2.316530 1_555
In7 O35 2.054009 1_555
In7 O105 2.119170 1_555
In7 O103 2.148626 1_555
In7 O31 2.181110 1_555
In7 O33 2.219357 1_555
In7 O107 2.308350 1_555
In8 O50 2.051557 1_554
In8 O52 2.070339 1_554
In8 O120 2.095246 1_555
In8 O48 2.223235 1_554
In8 O122 2.277451 1_555
In8 O124 2.373677 1_555
In9 O51 2.010543 1_554
In9 O53 2.057107 1_554
In9 O121 2.086728 1_555
In9 O49 2.246394 1_554
In9 O123 2.273046 1_555
In9 O125 2.403899 1_555
In10 O56 2.048259 1_555
In10 O58 2.065215 1_555
In10 O126 2.112472 1_555
In10 O54 2.187066 1_555
In10 O130 2.290693 1_555
In10 O128 2.340957 1_555
In11 O59 2.024189 1_555
In11 O57 2.122872 1_555
In11 O127 2.124426 1_555
In11 O129 2.170853 1_555
In11 O55 2.248872 1_555
In11 O131 2.298639 1_555
O0 S0 1.478583 1_555
O1 S1 1.480137 1_545
O2 Si0 1.633276 1_555
O3 Si1 1.632767 1_555
O4 Si3 1.622003 1_555
O5 Si2 1.619421 1_555
O6 S2 1.491848 1_555
O7 S3 1.471206 1_555
O8 Si5 1.611884 1_555
O9 Si4 1.627883 1_555
O10 Si6 1.610241 1_545
O11 Si7 1.626229 1_555
O12 Si6 1.664186 1_555
O12 Zr1 1.989217 1_555
O13 Si7 1.661174 1_565
O13 Zr0 2.047402 1_555
O14 S2 1.482160 1_555
O14 Zr0 2.245002 1_445
O15 S3 1.508727 1_555
O15 Zr1 2.244275 1_545
O16 Si4 1.670152 1_455
O16 Zr0 1.973961 1_455
O17 Si5 1.664649 1_555
O17 Zr1 1.955991 1_555
O18 Si0 1.640080 1_555
O18 Zr3 2.043389 1_565
O19 Si1 1.646022 1_555
O19 Zr2 2.043962 1_565
O20 Si2 1.652334 1_455
O20 Zr2 1.981159 1_455
O21 Si3 1.650838 1_555
O21 Zr3 1.985378 1_555
O22 S0 1.488107 1_565
O22 Zr2 2.242893 1_465
O23 S1 1.486837 1_555
O23 Zr3 2.245768 1_565
O24 S4 1.475673 1_555
O25 S5 1.473662 1_555
O26 Si8 1.622180 1_555
O27 Si9 1.628407 1_555
O28 S6 1.467752 1_555
O29 Si10 1.603506 1_555
O30 S7 1.489707 1_555
O31 S8 1.486946 1_555
O32 S9 1.467965 1_555
O33 S10 1.469557 1_555
O34 Si11 1.638832 1_555
O35 Si12 1.636550 1_555
O36 Si11 1.666570 1_555
O36 Zr4 2.039426 1_554
O37 Si12 1.668117 1_555
O37 Zr5 1.967986 1_554
O38 S7 1.490282 1_555
O38 Zr4 2.305951 1_554
O39 S8 1.489970 1_555
O39 Zr5 2.312595 1_554
O40 S9 1.497872 1_555
O40 Zr4 2.122380 1_554
O41 S10 1.501713 1_555
O41 Zr5 2.176900 1_554
O42 Si8 1.665151 1_555
O42 Zr6 1.980297 1_555
O43 Si9 1.670596 1_555
O43 Zr7 2.011318 1_555
O44 S6 1.504039 1_555
O44 Zr6 2.167641 1_555
O45 Si10 1.671277 1_555
O45 Zr7 1.999823 1_555
O46 S4 1.488169 1_555
O46 Zr6 2.287512 1_555
O47 S5 1.498232 1_555
O47 Zr7 2.316340 1_555
O48 S11 1.466463 1_555
O49 S12 1.465653 1_555
O50 Si13 1.617163 1_555
O51 Si14 1.603797 1_555
O52 Si15 1.614203 1_555
O53 Si16 1.607939 1_555
O54 S13 1.471025 1_555
O55 S14 1.476730 1_555
O56 Si17 1.610979 1_555
O57 Si18 1.622941 1_555
O58 Si19 1.623607 1_555
O59 Si20 1.600897 1_555
O60 Si19 1.664749 1_555
O60 Zr8 2.067134 1_555
O61 Si20 1.666232 1_555
O61 Zr9 2.079412 1_555
O62 S13 1.473285 1_555
O62 Zr8 2.291712 1_555
O63 S14 1.480596 1_555
O63 Zr9 2.273927 1_555
O64 Si17 1.668758 1_555
O64 Zr8 1.996497 1_555
O65 Si18 1.668648 1_555
O65 Zr9 1.987872 1_555
O66 Si13 1.651829 1_555
O66 Zr10 2.046040 1_555
O67 Si14 1.679388 1_555
O67 Zr11 2.074414 1_555
O68 Si15 1.651471 1_555
O68 Zr10 2.002832 1_555
O69 Si16 1.675714 1_555
O69 Zr11 1.993287 1_555
O70 S11 1.477191 1_555
O70 Zr10 2.309537 1_555
O71 S12 1.475804 1_555
O71 Zr11 2.282271 1_555
O72 Si19 1.630528 1_655
O73 Si20 1.632976 1_555
O74 S13 1.481445 1_555
O75 S14 1.485898 1_555
O76 Si17 1.622213 1_555
O77 Si18 1.625174 1_555
O78 Si13 1.642245 1_555
O79 Si14 1.613334 1_555
O80 Si15 1.649344 1_555
O81 Si16 1.618348 1_555
O82 S11 1.473133 1_555
O83 S12 1.487874 1_555
O84 S4 1.493548 1_555
O84 Zr1 2.331856 1_545
O85 S5 1.484575 1_555
O85 Zr0 2.326366 1_545
O86 Si8 1.659568 1_555
O86 Zr0 2.139564 1_445
O87 Si9 1.666326 1_555
O87 Zr1 2.137169 1_545
O88 S6 1.501874 1_555
O88 Zr1 2.197377 1_555
O89 Si10 1.660661 1_555
O89 Zr0 2.068031 1_555
O90 S7 1.488008 1_555
O90 Zr3 2.286375 1_565
O91 S8 1.490545 1_555
O91 Zr2 2.307008 1_565
O92 S9 1.498984 1_555
O92 Zr3 2.174265 1_555
O93 S10 1.505472 1_555
O93 Zr2 2.180717 1_555
O94 Si11 1.673541 1_555
O94 Zr2 2.073594 1_455
O95 Si12 1.662704 1_555
O95 Zr3 2.064996 1_555
O96 Si6 1.655588 1_545
O97 Si7 1.638567 1_555
O98 S2 1.487119 1_555
O99 S3 1.467281 1_555
O100 Si5 1.629571 1_555
O101 Si4 1.607174 1_555
O102 Si0 1.657239 1_555
O103 Si1 1.657257 1_555
O104 Si3 1.630777 1_555
O105 Si2 1.628446 1_555
O106 S0 1.475850 1_555
O107 S1 1.474843 1_545
O108 S11 1.521134 1_555
O108 Zr4 2.233616 1_555
O109 S12 1.505404 1_555
O109 Zr5 2.188095 1_555
O110 Si14 1.695497 1_555
O110 Zr4 2.085957 1_555
O111 Si13 1.665200 1_655
O111 Zr5 2.161356 1_555
O112 Si15 1.666710 1_545
O112 Zr4 2.008833 1_555
O113 Si16 1.672144 1_545
O113 Zr5 1.998023 1_555
O114 S13 1.502489 1_545
O114 Zr6 2.205570 1_555
O115 S14 1.490283 1_545
O115 Zr7 2.309120 1_555
O116 Si17 1.666269 1_555
O116 Zr6 2.009122 1_555
O117 Si18 1.656717 1_555
O117 Zr7 2.032386 1_555
O118 Si20 1.692086 1_555
O118 Zr6 2.140949 1_555
O119 Si19 1.679061 1_655
O119 Zr7 2.162485 1_555
O120 Si11 1.637049 1_555
O121 Si12 1.631859 1_555
O122 S8 1.477072 1_455
O123 S7 1.474536 1_555
O124 S9 1.469469 1_565
O125 S10 1.464697 1_565
O126 Si8 1.655134 1_565
O127 Si9 1.628141 1_565
O128 S6 1.468968 1_555
O129 Si10 1.634114 1_555
O130 S5 1.478641 1_455
O131 S4 1.483360 1_555
O132 S0 1.486719 1_565
O132 Zr8 2.296333 1_555
O133 S1 1.486427 1_555
O133 Zr9 2.294897 1_555
O134 Si0 1.656854 1_555
O134 Zr8 2.095180 1_555
O135 Si1 1.657930 1_555
O135 Zr9 2.103105 1_555
O136 Si2 1.685986 1_455
O136 Zr8 2.047564 1_555
O137 Si3 1.685544 1_555
O137 Zr9 2.054316 1_555
O138 S2 1.471111 1_555
O138 Zr10 2.307269 1_555
O139 S3 1.484501 1_555
O139 Zr11 2.328543 1_555
O140 Si4 1.672562 1_455
O140 Zr10 2.035597 1_555
O141 Si5 1.677004 1_555
O141 Zr11 2.060666 1_555
O142 Si6 1.646588 1_555
O142 Zr10 2.120001 1_555
O143 Si7 1.674136 1_565
O143 Zr11 2.097502 1_555
