# generated using pymatgen
data_Ca10P6O25
_symmetry_space_group_name_H-M   'P 1'
_cell_length_a   9.59496077
_cell_length_b   9.59496077
_cell_length_c   6.90069700
_cell_angle_alpha   90.00000000
_cell_angle_beta   90.00000000
_cell_angle_gamma   120.00000532
_symmetry_Int_Tables_number   1
_chemical_formula_structural   Ca10P6O25
_chemical_formula_sum   'Ca10 P6 O25'
_cell_volume   550.18655593
_cell_formula_units_Z   1
loop_
 _symmetry_equiv_pos_site_id
 _symmetry_equiv_pos_as_xyz
  1  'x, y, z'
loop_
 _atom_site_type_symbol
 _atom_site_label
 _atom_site_symmetry_multiplicity
 _atom_site_fract_x
 _atom_site_fract_y
 _atom_site_fract_z
 _atom_site_occupancy
  Ca  Ca0  1  0.33333300  0.66666700  0.74646300  1
  Ca  Ca1  1  0.66666700  0.33333300  0.74380600  1
  Ca  Ca2  1  0.33333300  0.66666700  0.25353700  1
  Ca  Ca3  1  0.27532400  0.99563700  0.00000000  1
  Ca  Ca4  1  0.72031300  0.72467600  0.00000000  1
  Ca  Ca5  1  0.00436300  0.27968700  0.00000000  1
  Ca  Ca6  1  0.76993900  0.99187100  0.50000000  1
  Ca  Ca7  1  0.22193200  0.23006100  0.50000000  1
  Ca  Ca8  1  0.00812900  0.77806800  0.50000000  1
  Ca  Ca9  1  0.66666700  0.33333300  0.25619400  1
  P  P0  1  0.97073400  0.61567500  0.00000000  1
  P  P1  1  0.64494100  0.02926600  0.00000000  1
  P  P2  1  0.58759800  0.61832400  0.50000000  1
  P  P3  1  0.03072600  0.41240200  0.50000000  1
  P  P4  1  0.38167600  0.96927400  0.50000000  1
  P  P5  1  0.38432500  0.35505900  0.00000000  1
  O  O0  1  0.32481600  0.47895900  0.00000000  1
  O  O1  1  0.15414300  0.67518400  0.00000000  1
  O  O2  1  0.52104100  0.84585700  0.00000000  1
  O  O3  1  0.65540700  0.50210200  0.50000000  1
  O  O4  1  0.84669500  0.34459300  0.50000000  1
  O  O5  1  0.49789800  0.15330500  0.50000000  1
  O  O6  1  0.57361900  0.44755300  0.00000000  1
  O  O7  1  0.87393500  0.42638100  0.00000000  1
  O  O8  1  0.55244700  0.12606500  0.00000000  1
  O  O9  1  0.40019100  0.52626700  0.50000000  1
  O  O10  1  0.12607600  0.59980900  0.50000000  1
  O  O11  1  0.47373300  0.87392400  0.50000000  1
  O  O12  1  0.32418200  0.24191300  0.82137500  1
  O  O13  1  0.91773100  0.67581800  0.17862500  1
  O  O14  1  0.75808700  0.08226900  0.17862500  1
  O  O15  1  0.75808700  0.08226900  0.82137500  1
  O  O16  1  0.91773100  0.67581800  0.82137500  1
  O  O17  1  0.32418200  0.24191300  0.17862500  1
  O  O18  1  0.64355200  0.72758000  0.68290900  1
  O  O19  1  0.08402800  0.35644800  0.31709100  1
  O  O20  1  0.27242000  0.91597200  0.31709100  1
  O  O21  1  0.27242000  0.91597200  0.68290900  1
  O  O22  1  0.08402800  0.35644800  0.68290900  1
  O  O23  1  0.64355200  0.72758000  0.31709100  1
  O  O24  1  0.00000000  0.00000000  0.50000000  1
loop_
_geom_bond_atom_site_label_1
_geom_bond_atom_site_label_2
_geom_bond_distance
_geom_bond_site_symmetry_2
Ca0 O10 2.446027 1_555
Ca0 O11 2.446028 1_555
Ca0 O9 2.446034 1_555
Ca0 O1 2.482798 1_556
Ca0 O2 2.482801 1_556
Ca0 O0 2.482804 1_556
Ca0 O21 2.766587 1_555
Ca0 O22 2.766593 1_555
Ca0 O18 2.766596 1_555
Ca1 O4 2.374743 1_555
Ca1 O5 2.374746 1_555
Ca1 O3 2.374749 1_555
Ca1 O8 2.470249 1_556
Ca1 O7 2.470249 1_556
Ca1 O6 2.470249 1_556
Ca2 O10 2.446027 1_555
Ca2 O11 2.446028 1_555
Ca2 O9 2.446034 1_555
Ca2 O1 2.482798 1_555
Ca2 O2 2.482801 1_555
Ca2 O0 2.482804 1_555
Ca2 O20 2.766587 1_555
Ca2 O19 2.766593 1_555
Ca2 O23 2.766596 1_555
Ca3 O8 2.304070 1_565
Ca3 O21 2.313386 1_554
Ca3 O20 2.313386 1_555
Ca3 O17 2.493033 1_565
Ca3 O12 2.493033 1_564
Ca3 O1 2.689023 1_555
Ca4 O6 2.304070 1_555
Ca4 O18 2.313386 1_554
Ca4 O23 2.313386 1_555
Ca4 O13 2.493033 1_555
Ca4 O16 2.493033 1_554
Ca4 O2 2.689023 1_555
Ca5 O7 2.304062 1_455
Ca5 O22 2.313386 1_554
Ca5 O19 2.313386 1_555
Ca5 O14 2.493033 1_455
Ca5 O15 2.493033 1_454
Ca5 O0 2.689023 1_555
Ca6 O24 2.169479 1_665
Ca6 O14 2.404607 1_565
Ca6 O15 2.404607 1_565
Ca6 O11 2.478267 1_555
Ca6 O23 2.533603 1_555
Ca6 O18 2.533603 1_555
Ca7 O24 2.169479 1_555
Ca7 O17 2.404607 1_555
Ca7 O12 2.404607 1_555
Ca7 O9 2.478267 1_555
Ca7 O22 2.533604 1_555
Ca7 O19 2.533604 1_555
Ca8 O24 2.169479 1_565
Ca8 O16 2.404607 1_455
Ca8 O13 2.404607 1_455
Ca8 O10 2.478267 1_555
Ca8 O20 2.533603 1_555
Ca8 O21 2.533603 1_555
Ca9 O4 2.374743 1_555
Ca9 O5 2.374746 1_555
Ca9 O3 2.374749 1_555
Ca9 O8 2.470249 1_555
Ca9 O7 2.470249 1_555
Ca9 O6 2.470249 1_555
O0 P5 1.555026 1_555
O1 P0 1.555026 1_455
O2 P1 1.555026 1_565
O3 P2 1.546740 1_555
O4 P3 1.546740 1_655
O5 P4 1.546739 1_545
O6 P5 1.573070 1_555
O7 P0 1.573070 1_555
O8 P1 1.573062 1_555
O9 P2 1.557335 1_555
O10 P3 1.557335 1_555
O11 P4 1.557335 1_555
O12 P5 1.550650 1_556
O13 P0 1.550650 1_555
O14 P1 1.550650 1_555
O15 P1 1.550650 1_556
O16 P0 1.550650 1_556
O17 P5 1.550650 1_555
O18 P2 1.554838 1_555
O19 P3 1.554838 1_555
O20 P4 1.554838 1_555
O21 P4 1.554838 1_555
O22 P3 1.554838 1_555
O23 P2 1.554838 1_555
