# generated using pymatgen
data_Na10La2Ta6Si11SO48
_symmetry_space_group_name_H-M   'P 1'
_cell_length_a   18.35944293
_cell_length_b   9.15732435
_cell_length_c   22.77111950
_cell_angle_alpha   90.03952525
_cell_angle_beta   90.04641060
_cell_angle_gamma   119.93708103
_symmetry_Int_Tables_number   1
_chemical_formula_structural   Na10La2Ta6Si11SO48
_chemical_formula_sum   'Na30 La6 Ta18 Si33 S3 O144'
_cell_volume   3317.55110518
_cell_formula_units_Z   3
loop_
 _symmetry_equiv_pos_site_id
 _symmetry_equiv_pos_as_xyz
  1  'x, y, z'
loop_
 _atom_site_type_symbol
 _atom_site_label
 _atom_site_symmetry_multiplicity
 _atom_site_fract_x
 _atom_site_fract_y
 _atom_site_fract_z
 _atom_site_occupancy
  Na  Na0  1  0.31894794  0.98640778  0.25626809  1
  Na  Na1  1  0.82083363  0.98705378  0.25487519  1
  Na  Na2  1  0.81514081  0.64343012  0.74670684  1
  Na  Na3  1  0.18525642  0.98448068  0.74915405  1
  Na  Na4  1  0.67695719  0.00005399  0.74901341  1
  Na  Na5  1  0.01820716  0.71146047  0.58480959  1
  Na  Na6  1  0.83189860  0.95821436  0.58289944  1
  Na  Na7  1  0.64794672  0.96956266  0.07932707  1
  Na  Na8  1  0.33779259  0.71421286  0.08505569  1
  Na  Na9  1  0.83773823  0.71530144  0.08739340  1
  Na  Na10  1  0.01767687  0.32525394  0.08593459  1
  Na  Na11  1  0.51440048  0.32114347  0.08430689  1
  Na  Na12  1  0.98692461  0.65160450  0.91561305  1
  Na  Na13  1  0.34695791  0.03536267  0.91336089  1
  Na  Na14  1  0.48827224  0.32628870  0.41851349  1
  Na  Na15  1  0.98899189  0.32525737  0.41883076  1
  Na  Na16  1  0.33748769  0.65403030  0.41798782  1
  Na  Na17  1  0.83829864  0.65550511  0.41772512  1
  Na  Na18  1  0.01682836  0.01677383  0.50185424  1
  Na  Na19  1  0.50923652  0.00036748  0.50630839  1
  Na  Na20  1  0.01068689  0.01657019  0.00011608  1
  Na  Na21  1  0.50514158  0.99911493  0.99599002  1
  Na  Na22  1  0.34021095  0.37184139  0.83341077  1
  Na  Na23  1  0.83986560  0.32312271  0.83292369  1
  Na  Na24  1  0.32782235  0.33499125  0.33299617  1
  Na  Na25  1  0.82956627  0.33949287  0.33192035  1
  Na  Na26  1  0.15944634  0.64214849  0.17496487  1
  Na  Na27  1  0.66108676  0.62892296  0.17688073  1
  Na  Na28  1  0.17660466  0.67158915  0.66988923  1
  Na  Na29  1  0.65175997  0.63840926  0.66331782  1
  La  La0  1  0.99896186  0.00875917  0.64692274  1
  La  La1  1  0.00794714  0.00087385  0.14438494  1
  La  La2  1  0.49954579  0.00257595  0.14976989  1
  La  La3  1  0.16168365  0.64936952  0.32545284  1
  La  La4  1  0.66259274  0.65437691  0.32421839  1
  La  La5  1  0.17208544  0.66930766  0.82139051  1
  Ta  Ta0  1  0.99465684  0.99741376  0.35379498  1
  Ta  Ta1  1  0.49267846  0.99807154  0.35340671  1
  Ta  Ta2  1  0.99074680  0.98876636  0.85526370  1
  Ta  Ta3  1  0.49993659  0.99963807  0.85406637  1
  Ta  Ta4  1  0.50155391  0.00328346  0.64521387  1
  Ta  Ta5  1  0.34304332  0.33637155  0.68521615  1
  Ta  Ta6  1  0.83320286  0.33553123  0.68861706  1
  Ta  Ta7  1  0.33834823  0.34537870  0.18573948  1
  Ta  Ta8  1  0.84008819  0.34733221  0.18520165  1
  Ta  Ta9  1  0.33586009  0.34016443  0.97847287  1
  Ta  Ta10  1  0.82665291  0.31867309  0.97443321  1
  Ta  Ta11  1  0.33506973  0.33434641  0.48676681  1
  Ta  Ta12  1  0.82635234  0.32537710  0.48447499  1
  Ta  Ta13  1  0.16725389  0.67021361  0.01783931  1
  Ta  Ta14  1  0.66694249  0.66547123  0.01938326  1
  Ta  Ta15  1  0.16946342  0.66882252  0.52147173  1
  Ta  Ta16  1  0.66162678  0.66193426  0.52012309  1
  Ta  Ta17  1  0.65873386  0.65925210  0.81356288  1
  Si  Si0  1  0.34936599  0.69129709  0.24750010  1
  Si  Si1  1  0.85233911  0.69767318  0.24631506  1
  Si  Si2  1  0.99472722  0.29695848  0.24625200  1
  Si  Si3  1  0.49392717  0.30216300  0.24696506  1
  Si  Si4  1  0.64196998  0.29027254  0.74903496  1
  Si  Si5  1  0.99651509  0.69582900  0.74806261  1
  Si  Si6  1  0.49639719  0.71248088  0.74994950  1
  Si  Si7  1  0.36035237  0.00964741  0.74833272  1
  Si  Si8  1  0.84718807  0.99840299  0.75033458  1
  Si  Si9  1  0.48360056  0.33386254  0.58189529  1
  Si  Si10  1  0.98019613  0.35018303  0.58249318  1
  Si  Si11  1  0.19458759  0.03864866  0.58672423  1
  Si  Si12  1  0.68658084  0.03479152  0.58739561  1
  Si  Si13  1  0.33288123  0.62206350  0.58707766  1
  Si  Si14  1  0.82331164  0.61386249  0.58344121  1
  Si  Si15  1  0.48404071  0.61527553  0.08145448  1
  Si  Si16  1  0.97838037  0.61081633  0.07473092  1
  Si  Si17  1  0.32455466  0.04128794  0.08101496  1
  Si  Si18  1  0.82538740  0.04113670  0.08278871  1
  Si  Si19  1  0.19562503  0.35094576  0.08040067  1
  Si  Si20  1  0.69543629  0.34755814  0.07988347  1
  Si  Si21  1  0.32195109  0.67351935  0.91863562  1
  Si  Si22  1  0.80657506  0.65756609  0.91413414  1
  Si  Si23  1  0.01700901  0.36400732  0.91877009  1
  Si  Si24  1  0.52124994  0.37249099  0.91738206  1
  Si  Si25  1  0.16584960  0.97231063  0.91499431  1
  Si  Si26  1  0.66137412  0.94984481  0.91648874  1
  Si  Si27  1  0.31408214  0.97330463  0.41568361  1
  Si  Si28  1  0.81480232  0.96864871  0.41714477  1
  Si  Si29  1  0.16791887  0.36097334  0.42118229  1
  Si  Si30  1  0.66564031  0.36033091  0.41855593  1
  Si  Si31  1  0.01262973  0.66476548  0.42247035  1
  Si  Si32  1  0.51397244  0.66923135  0.41987783  1
  S  S0  1  0.15550255  0.01837816  0.25487615  1
  S  S1  1  0.65540450  0.01994637  0.25112730  1
  S  S2  1  0.15695423  0.28800161  0.75377303  1
  O  O0  1  0.10328137  0.02151339  0.30463092  1
  O  O1  1  0.60019849  0.01926649  0.29943909  1
  O  O2  1  0.41495306  0.81133665  0.30349576  1
  O  O3  1  0.91640166  0.81211824  0.30346343  1
  O  O4  1  0.48911172  0.16796264  0.30180990  1
  O  O5  1  0.98958672  0.16738772  0.30291537  1
  O  O6  1  0.10423017  0.18062792  0.80384697  1
  O  O7  1  0.59458757  0.16395387  0.80508005  1
  O  O8  1  0.48471927  0.80670362  0.80786633  1
  O  O9  1  0.98778514  0.80994037  0.80423937  1
  O  O10  1  0.41251560  0.02173818  0.80964737  1
  O  O11  1  0.91631942  0.02097721  0.80238645  1
  O  O12  1  0.41568387  0.99766107  0.69395740  1
  O  O13  1  0.87051679  0.94393260  0.68916965  1
  O  O14  1  0.11548417  0.21615581  0.69740917  1
  O  O15  1  0.58796649  0.19907898  0.69015052  1
  O  O16  1  0.00239071  0.78917174  0.68697327  1
  O  O17  1  0.51868704  0.84286762  0.69480830  1
  O  O18  1  0.38700089  0.77890983  0.18511478  1
  O  O19  1  0.89123534  0.79008959  0.18495530  1
  O  O20  1  0.00092859  0.21857884  0.18470243  1
  O  O21  1  0.50337060  0.23331249  0.18392790  1
  O  O22  1  0.11345758  0.99762763  0.19789864  1
  O  O23  1  0.61689767  0.00193431  0.19260935  1
  O  O24  1  0.43236847  0.35665262  0.63846635  1
  O  O25  1  0.92791682  0.36002575  0.64207169  1
  O  O26  1  0.24685809  0.13379520  0.64798748  1
  O  O27  1  0.74625703  0.12947142  0.64588621  1
  O  O28  1  0.31943539  0.49536449  0.64294905  1
  O  O29  1  0.81843196  0.50475260  0.64389307  1
  O  O30  1  0.43324514  0.50343033  0.14170960  1
  O  O31  1  0.93038563  0.49472231  0.13583723  1
  O  O32  1  0.31942787  0.13973092  0.14147134  1
  O  O33  1  0.81504101  0.13287762  0.14298501  1
  O  O34  1  0.25128610  0.35977704  0.14026295  1
  O  O35  1  0.75311805  0.36175058  0.13843787  1
  O  O36  1  0.25321941  0.35097032  0.02636199  1
  O  O37  1  0.74569789  0.34313305  0.02164520  1
  O  O38  1  0.42783831  0.49960255  0.02768645  1
  O  O39  1  0.92088256  0.50280213  0.01907358  1
  O  O40  1  0.33589880  0.15676588  0.02359361  1
  O  O41  1  0.82145838  0.15169819  0.02773894  1
  O  O42  1  0.25451056  0.16371159  0.53517970  1
  O  O43  1  0.74108695  0.14832084  0.53170392  1
  O  O44  1  0.34708129  0.53039283  0.53017423  1
  O  O45  1  0.82192333  0.50071482  0.52826049  1
  O  O46  1  0.43058050  0.32277324  0.52347358  1
  O  O47  1  0.92413230  0.35392656  0.52787130  1
  O  O48  1  0.26553936  0.69958438  0.97191811  1
  O  O49  1  0.76285957  0.68751250  0.97321494  1
  O  O50  1  0.08180281  0.46157179  0.97515379  1
  O  O51  1  0.58059770  0.46900255  0.97594697  1
  O  O52  1  0.15003138  0.82389766  0.96548005  1
  O  O53  1  0.65189213  0.83444484  0.97585731  1
  O  O54  1  0.25985463  0.82688458  0.46607108  1
  O  O55  1  0.76263296  0.82859975  0.46978247  1
  O  O56  1  0.14776312  0.46912031  0.47185548  1
  O  O57  1  0.64752598  0.46961434  0.47040747  1
  O  O58  1  0.07895537  0.69489429  0.47759183  1
  O  O59  1  0.58143902  0.69738588  0.47397810  1
  O  O60  1  0.03547630  0.58229080  0.36814738  1
  O  O61  1  0.53657997  0.58916197  0.36514126  1
  O  O62  1  0.27058069  0.92303269  0.35241286  1
  O  O63  1  0.77061515  0.92187271  0.35417035  1
  O  O64  1  0.20971231  0.48218370  0.36505257  1
  O  O65  1  0.70777263  0.48407354  0.36341072  1
  O  O66  1  0.04460657  0.49309722  0.86475851  1
  O  O67  1  0.56871618  0.49570902  0.86120477  1
  O  O68  1  0.19664482  0.93045538  0.85436234  1
  O  O69  1  0.67142902  0.85044383  0.86025357  1
  O  O70  1  0.27164558  0.62086605  0.85812411  1
  O  O71  1  0.74786530  0.63734600  0.85739336  1
  O  O72  1  0.01016898  0.83991125  0.40774297  1
  O  O73  1  0.51098772  0.84414667  0.40743152  1
  O  O74  1  0.40697961  0.97438980  0.40950256  1
  O  O75  1  0.90794933  0.97293821  0.40979926  1
  O  O76  1  0.07760710  0.18787477  0.40769515  1
  O  O77  1  0.57460235  0.18893175  0.40650388  1
  O  O78  1  0.01222842  0.18129646  0.90627881  1
  O  O79  1  0.51448186  0.18882164  0.90903487  1
  O  O80  1  0.07381676  0.96421526  0.90899189  1
  O  O81  1  0.57879759  0.97141751  0.90915733  1
  O  O82  1  0.40920040  0.85856475  0.91456850  1
  O  O83  1  0.90171453  0.82949011  0.90563112  1
  O  O84  1  0.49388236  0.16759761  0.58870528  1
  O  O85  1  0.97960970  0.17459865  0.57703497  1
  O  O86  1  0.10012087  0.00636597  0.58074486  1
  O  O87  1  0.59400726  0.01661712  0.59088955  1
  O  O88  1  0.41552469  0.81091834  0.59549852  1
  O  O89  1  0.90806614  0.79578462  0.57807082  1
  O  O90  1  0.49621029  0.80119709  0.07812901  1
  O  O91  1  0.98186347  0.78917940  0.07309945  1
  O  O92  1  0.40566985  0.01416949  0.07963393  1
  O  O93  1  0.90835296  0.02460565  0.07779785  1
  O  O94  1  0.10119029  0.19695639  0.07515120  1
  O  O95  1  0.60347684  0.18148659  0.07813191  1
  O  O96  1  0.35458029  0.18570788  0.74262790  1
  O  O97  1  0.83879427  0.16929170  0.74697063  1
  O  O98  1  0.23809282  0.28411455  0.75580262  1
  O  O99  1  0.73624678  0.30788322  0.74326841  1
  O  O100  1  0.41377824  0.52513572  0.74101785  1
  O  O101  1  0.90434567  0.51422003  0.74844619  1
  O  O102  1  0.34577383  0.50747127  0.24700193  1
  O  O103  1  0.84818599  0.51232757  0.24463584  1
  O  O104  1  0.39864791  0.28351414  0.24764988  1
  O  O105  1  0.90030173  0.28554284  0.24623703  1
  O  O106  1  0.23594665  0.18279935  0.25443389  1
  O  O107  1  0.73586103  0.18453624  0.25303030  1
  O  O108  1  0.34546801  0.52658369  0.93189784  1
  O  O109  1  0.82774307  0.50290062  0.91848896  1
  O  O110  1  0.42418685  0.33635360  0.92175431  1
  O  O111  1  0.91907510  0.32234074  0.92931591  1
  O  O112  1  0.24392424  0.15959413  0.93154562  1
  O  O113  1  0.74502488  0.13876792  0.92068595  1
  O  O114  1  0.34080436  0.16891353  0.42961380  1
  O  O115  1  0.84169407  0.16336604  0.43299922  1
  O  O116  1  0.24159618  0.32042161  0.44046162  1
  O  O117  1  0.73666497  0.30862869  0.43359961  1
  O  O118  1  0.41672829  0.52027748  0.43318755  1
  O  O119  1  0.91276261  0.51950118  0.43427521  1
  O  O120  1  0.19215782  0.52869078  0.07720729  1
  O  O121  1  0.68915623  0.52132145  0.07806665  1
  O  O122  1  0.06991959  0.61951800  0.07395354  1
  O  O123  1  0.57587668  0.62385174  0.08013872  1
  O  O124  1  0.23871217  0.85499644  0.07403163  1
  O  O125  1  0.74006587  0.85212060  0.07717769  1
  O  O126  1  0.18857263  0.85345317  0.57693614  1
  O  O127  1  0.68228680  0.85150799  0.57764529  1
  O  O128  1  0.24822780  0.63717786  0.57343918  1
  O  O129  1  0.74164434  0.64170932  0.57746450  1
  O  O130  1  0.07387626  0.52044456  0.57969429  1
  O  O131  1  0.57503254  0.50740725  0.57706799  1
  O  O132  1  0.17228440  0.87853512  0.25929074  1
  O  O133  1  0.67252895  0.87991662  0.25636427  1
  O  O134  1  0.26142835  0.68875085  0.25338333  1
  O  O135  1  0.76297422  0.68960589  0.25222467  1
  O  O136  1  0.07041927  0.48741738  0.25184303  1
  O  O137  1  0.56952638  0.49119463  0.25287068  1
  O  O138  1  0.17262810  0.46035438  0.75587400  1
  O  O139  1  0.65657202  0.48322400  0.75628924  1
  O  O140  1  0.07987563  0.68127736  0.75245006  1
  O  O141  1  0.58140448  0.69305543  0.75860625  1
  O  O142  1  0.26555241  0.85348846  0.74445936  1
  O  O143  1  0.75329881  0.83653956  0.76509488  1
loop_
_geom_bond_atom_site_label_1
_geom_bond_atom_site_label_2
_geom_bond_distance
_geom_bond_site_symmetry_2
Na0 O62 2.325729 1_555
Na0 O132 2.361469 1_555
Na0 O104 2.368445 1_565
Na0 O134 2.382401 1_555
Na1 O105 2.378961 1_565
Na1 O135 2.379712 1_555
Na1 O133 2.389823 1_555
Na1 O63 2.403059 1_555
Na2 O101 2.453140 1_555
Na2 O139 2.532549 1_555
Na2 O143 2.568121 1_555
Na2 O99 2.665141 1_555
Na2 O29 2.677722 1_555
Na2 O13 2.745430 1_555
Na2 O71 2.796056 1_555
Na3 O142 2.321339 1_555
Na3 O98 2.415614 1_565
Na3 O140 2.469179 1_555
Na3 O68 2.476281 1_555
Na3 O26 2.630722 1_565
Na3 O96 2.713896 1_565
Na4 O99 2.467042 1_555
Na4 O141 2.471360 1_545
Na4 O143 2.536776 1_545
Na4 O97 2.576152 1_555
Na4 O27 2.653601 1_555
Na4 O17 2.802846 1_545
Na4 O69 2.858340 1_545
Na4 O7 2.904383 1_555
Na5 O86 2.347376 1_565
Na5 O130 2.429429 1_555
Na5 O16 2.491555 1_555
Na5 O89 2.503389 1_455
Na5 O58 2.720378 1_555
Na5 O126 2.729109 1_555
Na6 O127 2.415446 1_555
Na6 O85 2.436412 1_565
Na6 O89 2.501217 1_555
Na6 O129 2.523312 1_555
Na6 O13 2.542809 1_555
Na6 O55 2.853885 1_555
Na7 O125 2.415537 1_555
Na7 O90 2.418966 1_555
Na7 O95 2.452534 1_565
Na7 O53 2.678287 1_554
Na7 O23 2.690161 1_565
Na7 O123 2.755457 1_555
Na8 O120 2.352069 1_555
Na8 O92 2.386910 1_565
Na8 O18 2.412290 1_555
Na8 O90 2.609045 1_555
Na8 O124 2.715588 1_555
Na8 O48 2.869044 1_554
Na9 O19 2.385828 1_555
Na9 O91 2.404213 1_555
Na9 O121 2.409138 1_555
Na9 O93 2.467234 1_565
Na9 O125 2.661133 1_555
Na9 O49 2.891128 1_554
Na10 O94 2.364241 1_555
Na10 O122 2.382733 1_555
Na10 O20 2.410684 1_555
Na10 O93 2.475066 1_455
Na10 O120 2.795861 1_555
Na10 O50 2.801815 1_554
Na10 O31 2.958180 1_455
Na11 O21 2.382144 1_555
Na11 O123 2.417581 1_555
Na11 O92 2.509326 1_555
Na11 O95 2.533267 1_555
Na11 O51 2.786724 1_554
Na11 O121 2.793802 1_555
Na12 O66 2.470476 1_655
Na12 O80 2.491080 1_655
Na12 O109 2.535327 1_555
Na12 O111 2.644521 1_555
Na12 O39 2.690213 1_556
Na12 O83 2.774163 1_555
Na12 O52 2.832384 1_655
Na12 O9 2.918330 1_555
Na13 O110 2.396279 1_555
Na13 O82 2.402984 1_545
Na13 O79 2.670371 1_555
Na13 O112 2.681879 1_555
Na13 O10 2.682499 1_555
Na13 O68 2.773023 1_545
Na13 O40 2.792875 1_556
Na13 O48 2.981338 1_545
Na14 O114 2.361820 1_555
Na14 O61 2.435822 1_555
Na14 O77 2.481751 1_555
Na14 O46 2.608730 1_555
Na14 O118 2.705810 1_555
Na14 O57 2.798172 1_555
Na14 O74 2.802159 1_545
Na14 O4 3.030097 1_555
Na15 O60 2.366607 1_655
Na15 O115 2.369754 1_555
Na15 O76 2.517338 1_655
Na15 O119 2.780456 1_555
Na15 O56 2.801719 1_655
Na15 O75 2.805792 1_545
Na15 O47 2.822761 1_555
Na15 O5 3.011260 1_555
Na16 O118 2.348343 1_555
Na16 O64 2.395987 1_555
Na16 O74 2.556712 1_555
Na16 O116 2.707332 1_555
Na16 O73 2.775256 1_555
Na16 O54 2.826261 1_555
Na16 O44 2.835702 1_555
Na16 O2 2.976772 1_555
Na17 O119 2.293766 1_555
Na17 O65 2.444275 1_555
Na17 O75 2.531508 1_555
Na17 O72 2.746530 1_655
Na17 O117 2.790908 1_555
Na17 O45 2.831212 1_555
Na17 O55 2.836432 1_555
Na17 O3 2.973431 1_555
Na18 O86 2.390806 1_555
Na18 O85 2.543739 1_455
Na18 O76 2.561400 1_555
Na18 O72 2.650980 1_545
Na18 O89 2.659295 1_445
Na18 O75 2.782475 1_445
Na19 O87 2.432582 1_555
Na19 O84 2.524428 1_555
Na19 O88 2.669457 1_545
Na19 O73 2.675546 1_545
Na19 O77 2.743787 1_555
Na19 O74 2.826171 1_545
Na20 O94 2.379278 1_555
Na20 O91 2.506853 1_445
Na20 O80 2.536921 1_544
Na20 O78 2.608446 1_554
Na20 O93 2.609115 1_455
Na20 O83 2.851957 1_444
Na21 O82 2.434205 1_555
Na21 O81 2.479637 1_555
Na21 O90 2.553157 1_556
Na21 O95 2.554987 1_566
Na21 O79 2.583779 1_565
Na21 O92 2.690444 1_566
Na22 O98 2.402674 1_555
Na22 O100 2.517432 1_555
Na22 O108 2.627844 1_555
Na22 O110 2.650550 1_555
Na22 O96 2.773649 1_555
Na22 O112 2.911930 1_555
Na23 O97 2.405008 1_555
Na23 O101 2.470789 1_555
Na23 O109 2.630228 1_555
Na23 O111 2.634001 1_555
Na23 O113 2.636666 1_555
Na23 O99 2.744960 1_555
Na24 O106 2.373443 1_555
Na24 O102 2.433832 1_555
Na24 O104 2.510893 1_555
Na24 O114 2.752396 1_555
Na24 O118 2.823590 1_555
Na24 O116 2.882386 1_555
Na25 O107 2.399011 1_555
Na25 O103 2.457164 1_555
Na25 O105 2.525976 1_555
Na25 O117 2.806423 1_555
Na25 O119 2.821081 1_555
Na25 O115 2.882935 1_555
Na26 O136 2.332455 1_555
Na26 O134 2.464227 1_555
Na26 O120 2.648997 1_555
Na26 O122 2.772807 1_555
Na26 O132 2.812967 1_555
Na26 O124 2.894797 1_555
Na27 O137 2.302669 1_555
Na27 O135 2.389021 1_555
Na27 O121 2.608658 1_555
Na27 O123 2.687782 1_555
Na27 O133 2.848593 1_555
Na27 O125 2.913456 1_555
Na28 O142 2.366720 1_555
Na28 O140 2.618874 1_555
Na28 O126 2.634838 1_555
Na28 O128 2.658824 1_555
Na28 O130 2.659965 1_555
Na28 O138 2.728584 1_555
Na29 O131 2.363553 1_555
Na29 O129 2.549829 1_555
Na29 O139 2.576508 1_555
Na29 O127 2.615990 1_555
Na29 O141 2.697257 1_555
Na29 O143 2.957969 1_555
La0 O16 2.237841 1_645
La0 O14 2.333014 1_655
La0 O13 2.333689 1_545
La0 O85 2.346509 1_555
La0 O86 2.401198 1_655
La0 O89 2.406177 1_545
La1 O19 2.246816 1_445
La1 O20 2.255649 1_555
La1 O22 2.300412 1_545
La1 O94 2.362295 1_555
La1 O91 2.385391 1_445
La1 O93 2.466221 1_455
La2 O18 2.212058 1_545
La2 O21 2.218998 1_555
La2 O23 2.367026 1_555
La2 O92 2.389730 1_555
La2 O95 2.423772 1_555
La2 O90 2.438991 1_545
La3 O60 2.296804 1_555
La3 O64 2.298383 1_555
La3 O136 2.308316 1_555
La3 O134 2.350173 1_555
La3 O62 2.376836 1_555
La3 O132 2.511723 1_555
La4 O61 2.280935 1_555
La4 O65 2.282207 1_555
La4 O137 2.288175 1_555
La4 O63 2.354865 1_555
La4 O135 2.366496 1_555
La4 O133 2.512986 1_555
La5 O70 2.246081 1_555
La5 O66 2.300697 1_555
La5 O68 2.325215 1_555
La5 O140 2.350227 1_555
La5 O138 2.429451 1_555
La5 O142 2.445069 1_555
O0 S0 1.494270 1_555
O0 Ta0 2.200883 1_445
O1 S1 1.494354 1_555
O1 Ta1 2.250874 1_545
O2 Si0 1.720053 1_555
O2 Ta1 1.952247 1_555
O3 Si1 1.714786 1_555
O3 Ta0 1.954057 1_555
O4 Si3 1.723834 1_555
O4 Ta1 1.977157 1_545
O5 Si2 1.723986 1_555
O5 Ta0 1.980056 1_545
O6 S2 1.502432 1_555
O6 Ta2 2.269751 1_445
O7 Si4 1.650150 1_555
O7 Ta3 1.980855 1_545
O8 Si6 1.647204 1_555
O8 Ta3 1.952067 1_555
O9 Si5 1.708696 1_555
O9 Ta2 1.985687 1_555
O10 Si7 1.664511 1_555
O10 Ta3 1.990454 1_545
O11 Si8 1.671489 1_545
O11 Ta2 1.950406 1_545
O12 Si7 1.640201 1_565
O12 Ta4 1.908392 1_565
O13 Si8 1.607906 1_555
O14 S2 1.468711 1_555
O15 Si4 1.627335 1_555
O15 Ta4 1.983545 1_555
O16 Si5 1.608479 1_455
O17 Si6 1.638567 1_555
O17 Ta4 1.998780 1_565
O18 Si0 1.609045 1_555
O19 Si1 1.605760 1_555
O20 Si2 1.604029 1_455
O21 Si3 1.611298 1_555
O22 S0 1.472061 1_565
O23 S1 1.477970 1_555
O24 Si9 1.668895 1_555
O24 Ta5 1.885822 1_555
O25 Si10 1.690626 1_555
O25 Ta6 1.952294 1_555
O26 Si11 1.669673 1_555
O26 Ta5 2.001026 1_555
O27 Si12 1.665527 1_555
O27 Ta6 2.010987 1_555
O28 Si13 1.656010 1_555
O28 Ta5 1.965987 1_555
O29 Si14 1.677498 1_555
O29 Ta6 1.983225 1_555
O30 Si15 1.688777 1_555
O30 Ta7 1.903537 1_555
O31 Si16 1.706412 1_555
O31 Ta8 1.898792 1_555
O32 Si17 1.673288 1_555
O32 Ta7 2.006759 1_555
O33 Si18 1.666998 1_555
O33 Ta8 2.021770 1_555
O34 Si19 1.680495 1_555
O34 Ta7 1.962786 1_555
O35 Si20 1.666225 1_555
O35 Ta8 1.977056 1_555
O36 Si19 1.623006 1_555
O36 Ta9 1.911373 1_554
O37 Si20 1.628208 1_555
O37 Ta10 1.936371 1_554
O38 Si15 1.609669 1_555
O38 Ta9 1.942421 1_554
O39 Si16 1.628775 1_555
O39 Ta10 1.988106 1_554
O40 Si17 1.629057 1_555
O40 Ta9 1.969706 1_554
O41 Si18 1.635887 1_555
O41 Ta10 1.917722 1_554
O42 Si11 1.626638 1_555
O42 Ta11 1.882225 1_555
O43 Si12 1.629711 1_555
O43 Ta12 1.925569 1_555
O44 Si13 1.633744 1_555
O44 Ta11 1.962307 1_555
O45 Si14 1.620144 1_555
O45 Ta12 1.925350 1_555
O46 Si9 1.620704 1_555
O46 Ta11 1.991975 1_555
O47 Si10 1.625078 1_555
O47 Ta12 1.948302 1_555
O48 Si21 1.688222 1_555
O48 Ta13 1.985175 1_556
O49 Si22 1.658373 1_555
O49 Ta14 1.973722 1_556
O50 Si23 1.672401 1_555
O50 Ta13 2.014862 1_556
O51 Si24 1.667823 1_555
O51 Ta14 1.968892 1_556
O52 Si25 1.691678 1_555
O52 Ta13 1.986945 1_556
O53 Si26 1.671340 1_555
O53 Ta14 1.970125 1_556
O54 Si27 1.666455 1_555
O54 Ta15 2.012210 1_555
O55 Si28 1.666365 1_555
O55 Ta16 2.064758 1_555
O56 Si29 1.677511 1_555
O56 Ta15 2.012144 1_555
O57 Si30 1.684450 1_555
O57 Ta16 1.997984 1_555
O58 Si31 1.672158 1_555
O58 Ta15 2.051869 1_555
O59 Si32 1.672336 1_555
O59 Ta16 1.962623 1_555
O60 Si31 1.610041 1_555
O61 Si32 1.602113 1_555
O62 Si27 1.598684 1_555
O63 Si28 1.596369 1_555
O64 Si29 1.614897 1_555
O65 Si30 1.608690 1_555
O66 Si23 1.603743 1_555
O67 Si24 1.640539 1_555
O67 Ta17 1.919867 1_555
O68 Si25 1.609224 1_555
O69 Si26 1.633675 1_555
O69 Ta17 1.959533 1_555
O70 Si21 1.592697 1_555
O71 Si22 1.632089 1_555
O71 Ta17 2.009843 1_555
O72 Si31 1.661305 1_555
O72 Ta0 2.020471 1_455
O73 Si32 1.654436 1_555
O73 Ta1 2.021840 1_555
O74 Si27 1.706538 1_555
O74 Ta1 1.953793 1_555
O75 Si28 1.699259 1_555
O75 Ta0 1.964254 1_555
O76 Si29 1.652693 1_555
O76 Ta0 2.051968 1_445
O77 Si30 1.647031 1_555
O77 Ta1 2.036955 1_545
O78 Si23 1.655521 1_555
O78 Ta2 1.978845 1_445
O79 Si24 1.634426 1_555
O79 Ta3 2.043044 1_545
O80 Si25 1.659446 1_555
O80 Ta2 2.052547 1_455
O81 Si26 1.632143 1_555
O81 Ta3 2.026750 1_555
O82 Si21 1.654434 1_555
O82 Ta3 2.049456 1_555
O83 Si22 1.680282 1_555
O83 Ta2 1.934015 1_555
O84 Si9 1.632468 1_555
O84 Ta4 2.038027 1_555
O85 Si10 1.607263 1_555
O86 Si11 1.612993 1_555
O87 Si12 1.624986 1_555
O87 Ta4 2.055002 1_555
O88 Si13 1.646157 1_555
O88 Ta4 2.024025 1_565
O89 Si14 1.620122 1_555
O90 Si15 1.604632 1_555
O91 Si16 1.602832 1_555
O92 Si17 1.627774 1_555
O93 Si18 1.608221 1_555
O94 Si19 1.602484 1_555
O95 Si20 1.613044 1_555
O96 Si7 1.672790 1_555
O96 Ta5 1.987762 1_555
O97 Si8 1.649036 1_545
O97 Ta6 2.062075 1_555
O98 S2 1.508410 1_555
O98 Ta5 2.368750 1_555
O99 Si4 1.661612 1_555
O99 Ta6 2.082217 1_555
O100 Si6 1.639235 1_555
O100 Ta5 2.010675 1_555
O101 Si5 1.679436 1_555
O101 Ta6 2.024955 1_555
O102 Si0 1.651460 1_555
O102 Ta7 1.990668 1_555
O103 Si1 1.660945 1_555
O103 Ta8 1.977187 1_555
O104 Si3 1.670704 1_555
O104 Ta7 2.039249 1_555
O105 Si2 1.683869 1_555
O105 Ta8 2.024066 1_555
O106 S0 1.492958 1_555
O106 Ta7 2.326420 1_555
O107 S1 1.494379 1_555
O107 Ta8 2.330321 1_555
O108 Si21 1.633486 1_555
O108 Ta9 1.942256 1_555
O109 Si22 1.648135 1_555
O109 Ta10 2.106807 1_555
O110 Si24 1.645228 1_555
O110 Ta9 2.087775 1_555
O111 Si23 1.658973 1_655
O111 Ta10 1.970231 1_555
O112 Si25 1.637857 1_545
O112 Ta9 1.983432 1_555
O113 Si26 1.645723 1_545
O113 Ta10 1.996979 1_555
O114 Si27 1.634546 1_545
O114 Ta11 2.038753 1_555
O115 Si28 1.635133 1_545
O115 Ta12 2.017312 1_555
O116 Si29 1.631249 1_555
O116 Ta11 1.962552 1_555
O117 Si30 1.630199 1_555
O117 Ta12 1.954878 1_555
O118 Si32 1.646421 1_555
O118 Ta11 2.023168 1_555
O119 Si31 1.664470 1_655
O119 Ta12 2.043163 1_555
O120 Si19 1.661991 1_555
O120 Ta13 2.075812 1_555
O121 Si20 1.652314 1_555
O121 Ta14 2.057507 1_555
O122 Si16 1.642406 1_455
O122 Ta13 2.053809 1_555
O123 Si15 1.648568 1_555
O123 Ta14 2.055002 1_555
O124 Si17 1.653808 1_565
O124 Ta13 2.000070 1_555
O125 Si18 1.661096 1_565
O125 Ta14 2.039476 1_555
O126 Si11 1.658448 1_565
O126 Ta15 1.995260 1_555
O127 Si12 1.655260 1_565
O127 Ta16 2.052331 1_555
O128 Si13 1.656832 1_555
O128 Ta15 1.997842 1_555
O129 Si14 1.647112 1_555
O129 Ta16 2.041129 1_555
O130 Si10 1.648307 1_455
O130 Ta15 2.076048 1_555
O131 Si9 1.641158 1_555
O131 Ta16 1.992940 1_555
O132 S0 1.462489 1_565
O133 S1 1.469655 1_565
O134 Si0 1.608676 1_555
O135 Si1 1.610846 1_555
O136 Si2 1.602982 1_455
O137 Si3 1.594464 1_555
O138 S2 1.456935 1_555
O139 Si4 1.657680 1_555
O139 Ta17 2.057669 1_555
O140 Si5 1.604165 1_455
O141 Si6 1.668199 1_555
O141 Ta17 2.028249 1_555
O142 Si7 1.611634 1_565
O143 Si8 1.653118 1_555
O143 Ta17 2.015029 1_555
