# generated using pymatgen
data_MgZn2(CoS2)4
_symmetry_space_group_name_H-M   'P 1'
_cell_length_a   7.11389798
_cell_length_b   6.81584617
_cell_length_c   6.81373812
_cell_angle_alpha   59.99330123
_cell_angle_beta   61.39363206
_cell_angle_gamma   61.37015467
_symmetry_Int_Tables_number   1
_chemical_formula_structural   MgZn2(CoS2)4
_chemical_formula_sum   'Mg1 Zn2 Co4 S8'
_cell_volume   238.36210001
_cell_formula_units_Z   1
loop_
 _symmetry_equiv_pos_site_id
 _symmetry_equiv_pos_as_xyz
  1  'x, y, z'
loop_
 _atom_site_type_symbol
 _atom_site_label
 _atom_site_symmetry_multiplicity
 _atom_site_fract_x
 _atom_site_fract_y
 _atom_site_fract_z
 _atom_site_occupancy
  Mg  Mg0  1  0.50000000  0.00000000  0.00000000  1
  Zn  Zn0  1  0.93908900  0.85364600  0.85366500  1
  Zn  Zn1  1  0.06091200  0.14635200  0.14633600  1
  Co  Co0  1  0.50000000  0.50000000  0.50000000  1
  Co  Co1  1  0.50000000  0.50000000  0.00000000  1
  Co  Co2  1  0.00000000  0.50000000  0.50000000  1
  Co  Co3  1  0.50000000  0.99999900  0.50000000  1
  S  S0  1  0.73684300  0.73703800  0.73731900  1
  S  S1  1  0.26286800  0.26315200  0.71095200  1
  S  S2  1  0.26327500  0.71135000  0.26261300  1
  S  S3  1  0.67895100  0.27359300  0.27374600  1
  S  S4  1  0.73672500  0.28865000  0.73738700  1
  S  S5  1  0.32105100  0.72640600  0.72625300  1
  S  S6  1  0.26315500  0.26296200  0.26268100  1
  S  S7  1  0.73713200  0.73684700  0.28904900  1
loop_
_geom_bond_atom_site_label_1
_geom_bond_atom_site_label_2
_geom_bond_distance
_geom_bond_site_symmetry_2
Mg0 S2 2.583955 1_545
Mg0 S4 2.583955 1_554
Mg0 S6 2.584895 1_555
Mg0 S0 2.584895 1_544
Mg0 S1 2.586585 1_554
Mg0 S7 2.586590 1_545
Mg0 Zn1 2.602449 1_555
Mg0 Zn0 2.602455 1_544
Co0 S5 2.235204 1_555
Co0 S3 2.235213 1_555
Co0 S4 2.341046 1_555
Co0 S2 2.341046 1_555
Co0 S7 2.341951 1_555
Co0 S1 2.341956 1_555
Co1 S5 2.234574 1_554
Co1 S3 2.234578 1_555
Co1 S4 2.341123 1_554
Co1 S2 2.341123 1_555
Co1 S0 2.341182 1_554
Co1 S6 2.341192 1_555
Co2 S7 2.351410 1_455
Co2 S1 2.351414 1_555
Co2 S6 2.354882 1_555
Co2 S0 2.354884 1_455
Co2 S2 2.356534 1_555
Co2 S4 2.356534 1_455
Co3 S5 2.234912 1_555
Co3 S3 2.234926 1_565
Co3 S0 2.341408 1_555
Co3 S6 2.341419 1_565
Co3 S7 2.342214 1_555
Co3 S1 2.342224 1_565
S0 Zn0 2.479587 1_555
S1 Zn1 2.480146 1_556
S2 Zn1 2.478549 1_565
S3 Zn1 2.263861 1_655
S4 Zn0 2.478560 1_545
S5 Zn0 2.263867 1_455
S6 Zn1 2.479574 1_555
S7 Zn0 2.480148 1_554
