# generated using pymatgen
data_Dy3InS6
_symmetry_space_group_name_H-M   'P 1'
_cell_length_a   3.83652216
_cell_length_b   13.47051407
_cell_length_c   16.45068087
_cell_angle_alpha   90.00000000
_cell_angle_beta   90.00000000
_cell_angle_gamma   90.00000000
_symmetry_Int_Tables_number   1
_chemical_formula_structural   Dy3InS6
_chemical_formula_sum   'Dy12 In4 S24'
_cell_volume   850.16996567
_cell_formula_units_Z   4
loop_
 _symmetry_equiv_pos_site_id
 _symmetry_equiv_pos_as_xyz
  1  'x, y, z'
loop_
 _atom_site_type_symbol
 _atom_site_label
 _atom_site_symmetry_multiplicity
 _atom_site_fract_x
 _atom_site_fract_y
 _atom_site_fract_z
 _atom_site_occupancy
  Dy  Dy0  1  0.24861735  0.03833126  0.77558716  1
  Dy  Dy1  1  0.24861735  0.96166874  0.22441284  1
  Dy  Dy2  1  0.75138265  0.46166874  0.27558716  1
  Dy  Dy3  1  0.75138265  0.53833126  0.72441284  1
  Dy  Dy4  1  0.25290345  0.25050053  0.60727104  1
  Dy  Dy5  1  0.25290345  0.74949947  0.39272896  1
  Dy  Dy6  1  0.74709655  0.24949947  0.10727104  1
  Dy  Dy7  1  0.74709655  0.75050053  0.89272896  1
  Dy  Dy8  1  0.75022051  0.30981815  0.85414254  1
  Dy  Dy9  1  0.75022051  0.69018185  0.14585746  1
  Dy  Dy10  1  0.24977949  0.19018185  0.35414254  1
  Dy  Dy11  1  0.24977949  0.80981815  0.64585746  1
  In  In0  1  0.75175121  0.00000000  0.50000000  1
  In  In1  1  0.24824879  0.50000000  0.00000000  1
  In  In2  1  0.25930533  0.50000000  0.50000000  1
  In  In3  1  0.74069467  0.00000000  0.00000000  1
  S  S0  1  0.75398675  0.40332256  0.58659039  1
  S  S1  1  0.75398675  0.59667744  0.41340961  1
  S  S2  1  0.24601325  0.09667744  0.08659039  1
  S  S3  1  0.24601325  0.90332256  0.91340961  1
  S  S4  1  0.24903906  0.30762430  0.97919401  1
  S  S5  1  0.24903906  0.69237570  0.02080599  1
  S  S6  1  0.75096094  0.19237570  0.47919401  1
  S  S7  1  0.75096094  0.80762430  0.52080599  1
  S  S8  1  0.74767550  0.11114065  0.88204921  1
  S  S9  1  0.74767550  0.88885935  0.11795079  1
  S  S10  1  0.25232450  0.38885935  0.38204921  1
  S  S11  1  0.25232450  0.61114065  0.61795079  1
  S  S12  1  0.75216640  0.18136797  0.71294891  1
  S  S13  1  0.75216640  0.81863203  0.28705109  1
  S  S14  1  0.24783360  0.31863203  0.21294891  1
  S  S15  1  0.24783360  0.68136797  0.78705109  1
  S  S16  1  0.25092787  0.38681325  0.75414831  1
  S  S17  1  0.25092787  0.61318675  0.24585169  1
  S  S18  1  0.74907213  0.11318675  0.25414831  1
  S  S19  1  0.74907213  0.88681325  0.74585169  1
  S  S20  1  0.25133725  0.01997099  0.60484194  1
  S  S21  1  0.25133725  0.98002901  0.39515806  1
  S  S22  1  0.74866275  0.48002901  0.10484194  1
  S  S23  1  0.74866275  0.51997099  0.89515806  1
loop_
_geom_bond_atom_site_label_1
_geom_bond_atom_site_label_2
_geom_bond_distance
_geom_bond_site_symmetry_2
Dy0 S8 2.774007 1_555
Dy0 S8 2.779000 1_455
Dy0 S20 2.819762 1_555
Dy0 S19 2.842201 1_445
Dy0 S19 2.844555 1_545
Dy0 S12 2.898613 1_455
Dy0 S3 2.906556 1_545
Dy0 S12 2.916579 1_555
Dy1 S9 2.774007 1_555
Dy1 S9 2.779000 1_455
Dy1 S21 2.819762 1_555
Dy1 S18 2.842201 1_465
Dy1 S18 2.844555 1_565
Dy1 S13 2.898613 1_455
Dy1 S2 2.906556 1_565
Dy1 S13 2.916579 1_555
Dy2 S10 2.774007 1_555
Dy2 S10 2.779000 1_655
Dy2 S22 2.819762 1_555
Dy2 S17 2.842201 1_655
Dy2 S17 2.844555 1_555
Dy2 S14 2.898613 1_655
Dy2 S1 2.906556 1_555
Dy2 S14 2.916579 1_555
Dy3 S11 2.774007 1_555
Dy3 S11 2.779000 1_655
Dy3 S23 2.819762 1_555
Dy3 S16 2.842201 1_655
Dy3 S16 2.844555 1_555
Dy3 S15 2.898613 1_655
Dy3 S0 2.906556 1_555
Dy3 S15 2.916579 1_555
Dy4 S12 2.749255 1_555
Dy4 S12 2.753198 1_455
Dy4 S0 2.831491 1_455
Dy4 S0 2.837116 1_555
Dy4 S6 2.950168 1_555
Dy4 S6 2.959843 1_455
Dy4 S16 3.034777 1_555
Dy4 S20 3.105614 1_555
Dy5 S13 2.749255 1_555
Dy5 S13 2.753198 1_455
Dy5 S1 2.831491 1_455
Dy5 S1 2.837116 1_555
Dy5 S7 2.950168 1_555
Dy5 S7 2.959843 1_455
Dy5 S17 3.034777 1_555
Dy5 S21 3.105614 1_555
Dy6 S14 2.749255 1_555
Dy6 S14 2.753198 1_655
Dy6 S2 2.831491 1_655
Dy6 S2 2.837116 1_555
Dy6 S4 2.950168 1_554
Dy6 S4 2.959843 1_654
Dy6 S18 3.034777 1_555
Dy6 S22 3.105614 1_555
Dy7 S15 2.749255 1_555
Dy7 S15 2.753198 1_655
Dy7 S3 2.831491 1_655
Dy7 S3 2.837116 1_555
Dy7 S5 2.950168 1_556
Dy7 S5 2.959843 1_656
Dy7 S19 3.034777 1_555
Dy7 S23 3.105614 1_555
Dy8 S8 2.715395 1_555
Dy8 S16 2.729646 1_555
Dy8 S16 2.733457 1_655
Dy8 S4 2.809845 1_655
Dy8 S4 2.816027 1_555
Dy8 S12 2.896384 1_555
Dy8 S23 2.910173 1_555
Dy9 S9 2.715395 1_555
Dy9 S17 2.729646 1_555
Dy9 S17 2.733457 1_655
Dy9 S5 2.809845 1_655
Dy9 S5 2.816027 1_555
Dy9 S13 2.896384 1_555
Dy9 S22 2.910173 1_555
Dy10 S10 2.715395 1_555
Dy10 S18 2.729646 1_555
Dy10 S18 2.733457 1_455
Dy10 S6 2.809845 1_455
Dy10 S6 2.816027 1_555
Dy10 S14 2.896384 1_555
Dy10 S21 2.910173 1_545
Dy11 S11 2.715395 1_555
Dy11 S19 2.729646 1_555
Dy11 S19 2.733457 1_455
Dy11 S7 2.809845 1_455
Dy11 S7 2.816027 1_555
Dy11 S15 2.896384 1_555
Dy11 S20 2.910173 1_565
In0 S21 2.592426 1_645
In0 S20 2.592426 1_655
In0 S21 2.594775 1_545
In0 S20 2.594775 1_555
In0 S6 2.613907 1_555
In0 S7 2.613907 1_545
In1 S22 2.592426 1_455
In1 S23 2.592426 1_454
In1 S22 2.594775 1_555
In1 S23 2.594775 1_554
In1 S5 2.613907 1_555
In1 S4 2.613907 1_554
In2 S10 2.450945 1_555
In2 S11 2.450945 1_555
In2 S0 2.706833 1_555
In2 S1 2.706833 1_555
In2 S1 2.735601 1_455
In2 S0 2.735601 1_455
In3 S9 2.450945 1_545
In3 S8 2.450945 1_554
In3 S3 2.706833 1_544
In3 S2 2.706833 1_555
In3 S2 2.735601 1_655
In3 S3 2.735601 1_644
