# generated using pymatgen
data_NaTa3AlSiP5O24
_symmetry_space_group_name_H-M   'P 1'
_cell_length_a   8.67956804
_cell_length_b   8.68140799
_cell_length_c   22.46290399
_cell_angle_alpha   89.79016704
_cell_angle_beta   90.10162268
_cell_angle_gamma   120.02574599
_symmetry_Int_Tables_number   1
_chemical_formula_structural   NaTa3AlSiP5O24
_chemical_formula_sum   'Na3 Ta9 Al3 Si3 P15 O72'
_cell_volume   1465.44380355
_cell_formula_units_Z   3
loop_
 _symmetry_equiv_pos_site_id
 _symmetry_equiv_pos_as_xyz
  1  'x, y, z'
loop_
 _atom_site_type_symbol
 _atom_site_label
 _atom_site_symmetry_multiplicity
 _atom_site_fract_x
 _atom_site_fract_y
 _atom_site_fract_z
 _atom_site_occupancy
  Na  Na0  1  0.00095123  0.00017952  0.99242284  1
  Na  Na1  1  0.66414347  0.33221105  0.83929012  1
  Na  Na2  1  0.66806238  0.33441109  0.33833381  1
  Ta  Ta0  1  0.99453450  0.99798098  0.36006918  1
  Ta  Ta1  1  0.00317595  0.00480822  0.64305011  1
  Ta  Ta2  1  0.99760554  0.00180774  0.14288231  1
  Ta  Ta3  1  0.66501025  0.33365103  0.69031781  1
  Ta  Ta4  1  0.66830992  0.33528824  0.18800757  1
  Ta  Ta5  1  0.33364082  0.66652049  0.01990866  1
  Ta  Ta6  1  0.33308704  0.66588784  0.52473963  1
  Ta  Ta7  1  0.33308279  0.66504817  0.31042148  1
  Ta  Ta8  1  0.33322664  0.66509049  0.81104939  1
  Al  Al0  1  0.00346390  0.00124256  0.85506259  1
  Al  Al1  1  0.66618426  0.33339607  0.97734348  1
  Al  Al2  1  0.66708952  0.33434194  0.48003454  1
  Si  Si0  1  0.71621650  0.71508726  0.25080257  1
  Si  Si1  1  0.99855177  0.28338947  0.25042796  1
  Si  Si2  1  0.27746652  0.27673254  0.75451115  1
  P  P0  1  0.28268730  0.00079319  0.25072931  1
  P  P1  1  0.99930616  0.72190543  0.75320233  1
  P  P2  1  0.72272904  0.00069645  0.75307641  1
  P  P3  1  0.94259244  0.33053384  0.58024824  1
  P  P4  1  0.38727363  0.05570227  0.58020909  1
  P  P5  1  0.67046511  0.61382823  0.58008409  1
  P  P6  1  0.94755843  0.61468258  0.07862466  1
  P  P7  1  0.66623954  0.05342658  0.07890530  1
  P  P8  1  0.38623211  0.33207641  0.07867128  1
  P  P9  1  0.63182176  0.66725595  0.91637402  1
  P  P10  1  0.03446441  0.36914863  0.91665414  1
  P  P11  1  0.33369406  0.96477789  0.91638636  1
  P  P12  1  0.61678326  0.96309467  0.41874865  1
  P  P13  1  0.34465700  0.38137216  0.41870163  1
  P  P14  1  0.03790288  0.65613003  0.41865002  1
  O  O0  1  0.20214350  0.03533745  0.30628317  1
  O  O1  1  0.84036642  0.80159476  0.30909655  1
  O  O2  1  0.96738769  0.16128731  0.30881419  1
  O  O3  1  0.19181476  0.15448080  0.81077517  1
  O  O4  1  0.96056936  0.79856174  0.80746897  1
  O  O5  1  0.83618936  0.03240581  0.80747062  1
  O  O6  1  0.80022984  0.96982172  0.69485972  1
  O  O7  1  0.16539316  0.19335056  0.69219300  1
  O  O8  1  0.02569702  0.82917036  0.69494315  1
  O  O9  1  0.80661883  0.83343318  0.19120347  1
  O  O10  1  0.03313784  0.19763342  0.19100411  1
  O  O11  1  0.17123023  0.97026605  0.19396277  1
  O  O12  1  0.86596690  0.36399202  0.63754503  1
  O  O13  1  0.49985436  0.13510882  0.63751539  1
  O  O14  1  0.63629229  0.49979875  0.63742684  1
  O  O15  1  0.86550719  0.50480830  0.13720799  1
  O  O16  1  0.63908772  0.13271144  0.13724424  1
  O  O17  1  0.49357662  0.35957358  0.13716536  1
  O  O18  1  0.47380134  0.30306104  0.02551767  1
  O  O19  1  0.82959729  0.52812854  0.02567929  1
  O  O20  1  0.69807600  0.17077214  0.02561994  1
  O  O21  1  0.47151429  0.17003151  0.52594635  1
  O  O22  1  0.69782697  0.52798990  0.52592094  1
  O  O23  1  0.82981833  0.30295140  0.52579742  1
  O  O24  1  0.53571324  0.69522286  0.97162848  1
  O  O25  1  0.16006573  0.46581063  0.97170552  1
  O  O26  1  0.30740395  0.83997520  0.97188026  1
  O  O27  1  0.52979381  0.83974250  0.47300631  1
  O  O28  1  0.30908197  0.46899392  0.47268983  1
  O  O29  1  0.16042797  0.68937203  0.47301831  1
  O  O30  1  0.12841909  0.63164628  0.36291475  1
  O  O31  1  0.50276255  0.87374100  0.36285713  1
  O  O32  1  0.36950697  0.49904990  0.36288113  1
  O  O33  1  0.13057129  0.49459283  0.86220479  1
  O  O34  1  0.36333829  0.87127997  0.86207543  1
  O  O35  1  0.50677632  0.63847564  0.86198207  1
  O  O36  1  0.02881732  0.82867686  0.41006440  1
  O  O37  1  0.80053068  0.97371649  0.41069467  1
  O  O38  1  0.17563313  0.19809407  0.40903442  1
  O  O39  1  0.02214436  0.18849074  0.90997484  1
  O  O40  1  0.16168632  0.97163222  0.91084627  1
  O  O41  1  0.81172056  0.83641455  0.90856951  1
  O  O42  1  0.96650120  0.16680910  0.59044882  1
  O  O43  1  0.19850549  0.02722316  0.59113003  1
  O  O44  1  0.83027635  0.80027794  0.59169396  1
  O  O45  1  0.97404912  0.80426999  0.08813483  1
  O  O46  1  0.83305026  0.02937378  0.08742417  1
  O  O47  1  0.19748784  0.16568603  0.08746363  1
  O  O48  1  0.70023211  0.16707182  0.74212480  1
  O  O49  1  0.47932251  0.30640554  0.74217943  1
  O  O50  1  0.83744059  0.53001371  0.74213888  1
  O  O51  1  0.68772959  0.51644802  0.24228771  1
  O  O52  1  0.82220398  0.30138481  0.24218845  1
  O  O53  1  0.46938618  0.16452241  0.24178573  1
  O  O54  1  0.64217588  0.49813556  0.92517419  1
  O  O55  1  0.85533522  0.35956572  0.92532264  1
  O  O56  1  0.50193627  0.14499077  0.92558762  1
  O  O57  1  0.64037439  0.14748553  0.42635094  1
  O  O58  1  0.50827789  0.36204881  0.42603596  1
  O  O59  1  0.85381777  0.49406968  0.42625630  1
  O  O60  1  0.36216587  0.49643321  0.07212628  1
  O  O61  1  0.13483255  0.63590201  0.07244852  1
  O  O62  1  0.50323620  0.86434448  0.07240311  1
  O  O63  1  0.36388371  0.86680758  0.57285345  1
  O  O64  1  0.50362348  0.63555647  0.57264305  1
  O  O65  1  0.13307827  0.49425828  0.57261248  1
  O  O66  1  0.30344340  0.83745585  0.26058945  1
  O  O67  1  0.52476899  0.69919993  0.26101578  1
  O  O68  1  0.16801654  0.47922106  0.26083066  1
  O  O69  1  0.30688785  0.47770981  0.76118115  1
  O  O70  1  0.16438998  0.70003250  0.76083492  1
  O  O71  1  0.53260355  0.84026515  0.76076889  1
loop_
_geom_bond_atom_site_label_1
_geom_bond_atom_site_label_2
_geom_bond_distance
_geom_bond_site_symmetry_2
Na0 O40 2.392495 1_545
Na0 O39 2.411326 1_555
Na0 O41 2.436910 1_445
Na0 O47 2.662480 1_556
Na0 O46 2.669568 1_456
Na0 O45 2.673401 1_446
Na1 O56 2.465391 1_555
Na1 O54 2.475810 1_555
Na1 O55 2.478410 1_555
Na1 O49 2.648301 1_555
Na1 O50 2.715315 1_555
Na1 O48 2.718825 1_555
Na2 O57 2.487581 1_555
Na2 O59 2.488676 1_555
Na2 O58 2.491625 1_555
Na2 O51 2.624434 1_555
Na2 O52 2.633464 1_555
Na2 O53 2.705040 1_555
Al0 O3 1.803215 1_555
Al0 O5 1.925998 1_455
Al0 O4 1.932450 1_445
Al0 O40 1.966479 1_545
Al0 O41 1.968027 1_445
Al0 O39 1.985067 1_555
Al1 O18 1.895477 1_556
Al1 O20 1.903844 1_556
Al1 O19 1.912300 1_556
Al1 O56 1.932278 1_555
Al1 O55 1.934947 1_555
Al1 O54 1.935772 1_555
Al2 O23 1.871871 1_555
Al2 O22 1.876882 1_555
Al2 O21 1.884684 1_555
Al2 O58 1.937245 1_555
Al2 O59 1.937628 1_555
Al2 O57 1.943269 1_555
O0 P0 1.533481 1_555
O0 Ta0 2.057172 1_445
O1 Si0 1.622386 1_555
O1 Ta0 1.932355 1_555
O2 Si1 1.618959 1_555
O2 Ta0 1.926769 1_545
O3 Si2 1.574891 1_555
O4 P1 1.507700 1_555
O5 P2 1.505124 1_555
O6 P2 1.555822 1_565
O6 Ta1 2.004681 1_665
O7 Si2 1.651575 1_555
O7 Ta1 1.892476 1_555
O8 P1 1.552710 1_455
O8 Ta1 2.001604 1_565
O9 Si0 1.628010 1_555
O9 Ta2 1.905917 1_565
O10 Si1 1.630494 1_455
O10 Ta2 1.908217 1_455
O11 P0 1.540650 1_565
O11 Ta2 2.016703 1_465
O12 P3 1.543472 1_555
O12 Ta3 2.015484 1_555
O13 P4 1.554027 1_555
O13 Ta3 1.992188 1_555
O14 P5 1.557330 1_555
O14 Ta3 1.974941 1_555
O15 P6 1.569414 1_555
O15 Ta4 1.967548 1_555
O16 P7 1.554558 1_555
O16 Ta4 2.006168 1_555
O17 P8 1.557846 1_555
O17 Ta4 1.990214 1_555
O18 P8 1.504584 1_555
O19 P6 1.503208 1_555
O20 P7 1.502449 1_555
O21 P4 1.507806 1_555
O22 P5 1.508896 1_555
O23 P3 1.508247 1_555
O24 P9 1.582369 1_555
O24 Ta5 1.970234 1_556
O25 P10 1.584029 1_555
O25 Ta5 1.964470 1_556
O26 P11 1.588569 1_555
O26 Ta5 1.952877 1_556
O27 P12 1.544929 1_555
O27 Ta6 1.989651 1_555
O28 P13 1.545265 1_555
O28 Ta6 1.997382 1_555
O29 P14 1.548087 1_555
O29 Ta6 1.983695 1_555
O30 P14 1.549972 1_555
O30 Ta7 2.029647 1_555
O31 P12 1.546554 1_555
O31 Ta7 2.043995 1_555
O32 P13 1.559969 1_555
O32 Ta7 2.001880 1_555
O33 P10 1.569235 1_555
O33 Ta8 1.998596 1_555
O34 P11 1.559096 1_555
O34 Ta8 2.032729 1_555
O35 P9 1.568226 1_555
O35 Ta8 1.992902 1_555
O36 P14 1.550262 1_555
O36 Ta0 1.983553 1_455
O37 P12 1.561569 1_555
O37 Ta0 1.955264 1_555
O38 P13 1.548024 1_555
O38 Ta0 1.993392 1_445
O39 P10 1.525628 1_555
O40 P11 1.528441 1_555
O41 P9 1.526336 1_555
O42 P3 1.551924 1_555
O42 Ta1 1.977355 1_655
O43 P4 1.549623 1_555
O43 Ta1 1.986845 1_555
O44 P5 1.538474 1_555
O44 Ta1 2.019363 1_665
O45 P6 1.559203 1_555
O45 Ta2 2.039298 1_565
O46 P7 1.574091 1_555
O46 Ta2 1.995668 1_555
O47 P8 1.562101 1_555
O47 Ta2 2.026856 1_455
O48 P2 1.569821 1_555
O48 Ta3 1.991964 1_555
O49 Si2 1.661986 1_555
O49 Ta3 1.906242 1_555
O50 P1 1.571714 1_555
O50 Ta3 1.988965 1_555
O51 Si0 1.626974 1_555
O51 Ta4 1.933017 1_555
O52 Si1 1.624672 1_555
O52 Ta4 1.933161 1_555
O53 P0 1.542916 1_555
O53 Ta4 2.017619 1_555
O54 P9 1.527296 1_555
O55 P10 1.527625 1_655
O56 P11 1.528953 1_545
O57 P12 1.519016 1_545
O58 P13 1.519712 1_555
O59 P14 1.520203 1_655
O60 P8 1.548476 1_555
O60 Ta5 1.992391 1_555
O61 P6 1.547981 1_455
O61 Ta5 1.996749 1_555
O62 P7 1.547363 1_565
O62 Ta5 1.996347 1_555
O63 P4 1.557686 1_565
O63 Ta6 1.956570 1_555
O64 P5 1.559755 1_555
O64 Ta6 1.949487 1_555
O65 P3 1.559040 1_455
O65 Ta6 1.948435 1_555
O66 P0 1.531485 1_565
O66 Ta7 1.982792 1_555
O67 Si0 1.613877 1_555
O67 Ta7 1.896866 1_555
O68 Si1 1.614783 1_455
O68 Ta7 1.894858 1_555
O69 Si2 1.639435 1_555
O69 Ta8 1.895676 1_555
O70 P1 1.545870 1_455
O70 Ta8 1.987035 1_555
O71 P2 1.546593 1_565
O71 Ta8 1.985858 1_555
