# generated using pymatgen
data_Dy(SiRh)2
_symmetry_space_group_name_H-M   'P 1'
_cell_length_a   4.03660046
_cell_length_b   4.03659979
_cell_length_c   5.73108333
_cell_angle_alpha   110.61993685
_cell_angle_beta   110.61992580
_cell_angle_gamma   90.00000847
_symmetry_Int_Tables_number   1
_chemical_formula_structural   Dy(SiRh)2
_chemical_formula_sum   'Dy1 Si2 Rh2'
_cell_volume   80.97752852
_cell_formula_units_Z   1
loop_
 _symmetry_equiv_pos_site_id
 _symmetry_equiv_pos_as_xyz
  1  'x, y, z'
loop_
 _atom_site_type_symbol
 _atom_site_label
 _atom_site_symmetry_multiplicity
 _atom_site_fract_x
 _atom_site_fract_y
 _atom_site_fract_z
 _atom_site_occupancy
  Dy  Dy0  1  0.00000000  0.00000000  -0.00000000  1
  Si  Si0  1  0.62197265  0.62197265  0.24394429  1
  Si  Si1  1  0.37802735  0.37802735  0.75605571  1
  Rh  Rh0  1  0.25000000  0.75000000  0.50000000  1
  Rh  Rh1  1  0.75000000  0.25000000  0.50000000  1
loop_
_geom_bond_atom_site_label_1
_geom_bond_atom_site_label_2
_geom_bond_distance
_geom_bond_site_symmetry_2
Dy0 Si0 3.101099 1_445
Dy0 Si1 3.101099 1_554
Dy0 Si0 3.101102 1_455
Dy0 Si1 3.101102 1_544
Dy0 Si0 3.101102 1_545
Dy0 Si1 3.101102 1_454
Dy0 Si1 3.101104 1_444
Dy0 Si0 3.101104 1_555
Dy0 Rh0 3.201265 1_555
Dy0 Rh1 3.201265 1_444
Dy0 Rh1 3.201265 1_455
Dy0 Rh0 3.201265 1_544
Dy0 Rh1 3.201265 1_454
Dy0 Rh0 3.201265 1_545
Dy0 Rh1 3.201265 1_555
Dy0 Rh0 3.201265 1_444
Si0 Si1 2.424676 1_554
Rh0 Si1 2.385970 1_565
Rh0 Si0 2.385971 1_455
Rh0 Si0 2.385974 1_555
Rh0 Si1 2.385974 1_555
Rh1 Si0 2.385970 1_545
Rh1 Si1 2.385971 1_655
Rh1 Si1 2.385974 1_555
Rh1 Si0 2.385974 1_555
