# generated using pymatgen
data_MgV2(PO5)2
_symmetry_space_group_name_H-M   'P 1'
_cell_length_a   5.39245397
_cell_length_b   5.26609252
_cell_length_c   7.37608340
_cell_angle_alpha   109.77791041
_cell_angle_beta   110.86143032
_cell_angle_gamma   97.18087365
_symmetry_Int_Tables_number   1
_chemical_formula_structural   MgV2(PO5)2
_chemical_formula_sum   'Mg1 V2 P2 O10'
_cell_volume   176.85878202
_cell_formula_units_Z   1
loop_
 _symmetry_equiv_pos_site_id
 _symmetry_equiv_pos_as_xyz
  1  'x, y, z'
loop_
 _atom_site_type_symbol
 _atom_site_label
 _atom_site_symmetry_multiplicity
 _atom_site_fract_x
 _atom_site_fract_y
 _atom_site_fract_z
 _atom_site_occupancy
  Mg  Mg0  1  0.39701300  0.52731900  0.27390400  1
  V  V0  1  0.99176800  0.49644900  0.49860100  1
  V  V1  1  0.50715500  0.98747400  0.98646800  1
  P  P0  1  0.11809600  0.92540300  0.24942100  1
  P  P1  1  0.88663300  0.08532100  0.74969000  1
  O  O0  1  0.15923100  0.76357700  0.39492100  1
  O  O1  1  0.32448100  0.83371300  0.15214500  1
  O  O2  1  0.88101500  0.24213700  0.60763100  1
  O  O3  1  0.68177400  0.15698800  0.84761600  1
  O  O4  1  0.81549300  0.83314700  0.08909300  1
  O  O5  1  0.20976200  0.25288800  0.37194600  1
  O  O6  1  0.18187300  0.17336900  0.93420600  1
  O  O7  1  0.78410200  0.76287500  0.59782400  1
  O  O8  1  0.68429800  0.33573600  0.24322900  1
  O  O9  1  0.30230600  0.68610600  0.75330600  1
loop_
_geom_bond_atom_site_label_1
_geom_bond_atom_site_label_2
_geom_bond_distance
_geom_bond_site_symmetry_2
Mg0 O8 1.988692 1_555
Mg0 O1 2.109790 1_555
Mg0 O0 2.109799 1_555
Mg0 O5 2.119815 1_555
Mg0 O6 2.307984 1_554
Mg0 O7 2.323639 1_555
O0 P0 1.556885 1_555
O0 V0 2.069178 1_455
O1 P0 1.566903 1_555
O1 V1 2.108791 1_554
O2 P1 1.533000 1_555
O2 V0 1.915197 1_555
O3 P1 1.540312 1_555
O3 V1 1.956509 1_545
O4 P0 1.528346 1_655
O4 V1 1.963619 1_554
O5 P0 1.564985 1_545
O5 V0 2.061044 1_455
O6 P1 1.564335 1_455
O6 V1 2.094462 1_545
O7 P1 1.575035 1_565
O7 V0 2.009909 1_555
O8 V0 1.832866 1_555
O8 V1 1.945694 1_544
O9 V1 1.748775 1_555
O9 V0 1.844624 1_455
