# generated using pymatgen
data_Rb2MgTi2Zn2(OF5)2
_symmetry_space_group_name_H-M   'P 1'
_cell_length_a   7.65347652
_cell_length_b   7.61428967
_cell_length_c   7.65248519
_cell_angle_alpha   60.45144743
_cell_angle_beta   57.74851438
_cell_angle_gamma   60.46631383
_symmetry_Int_Tables_number   1
_chemical_formula_structural   Rb2MgTi2Zn2(OF5)2
_chemical_formula_sum   'Rb2 Mg1 Ti2 Zn2 O2 F10'
_cell_volume   311.68669985
_cell_formula_units_Z   1
loop_
 _symmetry_equiv_pos_site_id
 _symmetry_equiv_pos_as_xyz
  1  'x, y, z'
loop_
 _atom_site_type_symbol
 _atom_site_label
 _atom_site_symmetry_multiplicity
 _atom_site_fract_x
 _atom_site_fract_y
 _atom_site_fract_z
 _atom_site_occupancy
  Rb  Rb0  1  0.45390717  0.45855345  0.13054369  1
  Rb  Rb1  1  0.61334367  0.67907913  0.51811480  1
  Mg  Mg0  1  0.26981813  0.24811463  0.71205093  1
  Ti  Ti0  1  0.98028749  0.99626014  0.53153151  1
  Ti  Ti1  1  0.49428341  0.98461738  0.03688295  1
  Zn  Zn0  1  0.98414584  0.97874007  0.03661395  1
  Zn  Zn1  1  0.98807455  0.50022110  0.03027168  1
  O  O0  1  0.28204312  0.95792500  0.30583236  1
  O  O1  1  0.70281897  0.03753313  0.72881677  1
  F  F0  1  0.07997556  0.05185414  0.69870196  1
  F  F1  1  0.05588931  0.66772340  0.10848502  1
  F  F2  1  0.07633049  0.68176532  0.69955667  1
  F  F3  1  0.66622419  0.04984445  0.11489580  1
  F  F4  1  0.32072322  0.31117897  0.91121061  1
  F  F5  1  0.66857074  0.67207805  0.11129310  1
  F  F6  1  0.32345345  0.94574487  0.91626939  1
  F  F7  1  0.91569657  0.30611806  0.34952770  1
  F  F8  1  0.91431640  0.92768887  0.35352934  1
  F  F9  1  0.96009771  0.30421884  0.92908577  1
loop_
_geom_bond_atom_site_label_1
_geom_bond_atom_site_label_2
_geom_bond_distance
_geom_bond_site_symmetry_2
O0 Ti1 1.805720 1_555
O0 Ti0 1.994355 1_455
O0 Rb1 3.043503 1_555
O1 Ti0 1.809970 1_545
O1 Ti1 1.987136 1_546
F0 Ti0 2.071725 1_445
F0 Zn0 2.119685 1_446
F1 Zn0 1.991962 1_455
F1 Zn1 1.997840 1_455
F1 Rb0 2.710187 1_555
F1 Rb1 3.154794 1_455
F2 Ti0 2.040692 1_455
F2 Zn1 2.101790 1_456
F3 Zn0 2.009466 1_545
F3 Ti1 2.027319 1_545
F3 Rb0 2.741162 1_555
F3 Rb1 2.975994 1_545
F4 Mg0 2.060375 1_555
F4 Zn1 2.142140 1_456
F4 Ti1 2.149588 1_546
F4 Rb0 3.150675 1_556
F5 Zn1 2.025782 1_555
F5 Ti1 2.027657 1_555
F5 Rb0 2.739176 1_555
F5 Rb1 2.934376 1_555
F6 Mg0 2.028699 1_565
F6 Ti1 2.141927 1_556
F6 Zn0 2.165084 1_456
F6 Rb0 3.089190 1_556
F7 Ti0 2.023515 1_545
F7 Zn1 2.064292 1_555
F7 Rb1 3.005424 1_555
F8 Ti0 2.019514 1_555
F8 Zn0 2.051818 1_555
F8 Rb1 3.053957 1_555
F9 Mg0 2.014840 1_655
F9 Zn1 2.122390 1_556
F9 Zn0 2.133882 1_546
F9 Rb0 3.112985 1_556
