# generated using pymatgen
data_Na8Hf3MgSi4(PO12)2
_symmetry_space_group_name_H-M   'P 1'
_cell_length_a   9.20014395
_cell_length_b   9.19439825
_cell_length_c   22.35461313
_cell_angle_alpha   89.96301942
_cell_angle_beta   90.07902296
_cell_angle_gamma   120.08495949
_symmetry_Int_Tables_number   1
_chemical_formula_structural   Na8Hf3MgSi4(PO12)2
_chemical_formula_sum   'Na24 Hf9 Mg3 Si12 P6 O72'
_cell_volume   1636.22442092
_cell_formula_units_Z   3
loop_
 _symmetry_equiv_pos_site_id
 _symmetry_equiv_pos_as_xyz
  1  'x, y, z'
loop_
 _atom_site_type_symbol
 _atom_site_label
 _atom_site_symmetry_multiplicity
 _atom_site_fract_x
 _atom_site_fract_y
 _atom_site_fract_z
 _atom_site_occupancy
  Na  Na0  1  0.63863442  0.01805606  0.23948801  1
  Na  Na1  1  0.38058328  0.36043280  0.24086728  1
  Na  Na2  1  0.98104088  0.62157632  0.24098313  1
  Na  Na3  1  0.63798401  0.62098602  0.74445972  1
  Na  Na4  1  0.97761721  0.36561076  0.74935918  1
  Na  Na5  1  0.38491592  0.01324444  0.74248108  1
  Na  Na6  1  0.31626132  0.33502120  0.58622236  1
  Na  Na7  1  0.02927855  0.69867146  0.58467520  1
  Na  Na8  1  0.66008830  0.97152006  0.59158054  1
  Na  Na9  1  0.31231823  0.97312157  0.08308411  1
  Na  Na10  1  0.66092836  0.68770478  0.08305948  1
  Na  Na11  1  0.02687546  0.33899509  0.08289305  1
  Na  Na12  1  0.96658891  0.66434241  0.91747652  1
  Na  Na13  1  0.69864597  0.03519782  0.91753527  1
  Na  Na14  1  0.33481038  0.30163409  0.91926889  1
  Na  Na15  1  0.97196080  0.29184956  0.41199356  1
  Na  Na16  1  0.31166883  0.03202197  0.41495074  1
  Na  Na17  1  0.71476389  0.67805307  0.41146443  1
  Na  Na18  1  0.00853619  0.99749512  0.49376245  1
  Na  Na19  1  0.00087788  0.00114365  0.99880375  1
  Na  Na20  1  0.67270291  0.33374126  0.82771952  1
  Na  Na21  1  0.66797960  0.33808058  0.32760300  1
  Na  Na22  1  0.33431705  0.66747089  0.15975858  1
  Na  Na23  1  0.34092137  0.67747210  0.66895101  1
  Hf  Hf0  1  0.99460566  0.99568740  0.85216631  1
  Hf  Hf1  1  0.99863892  0.99366616  0.64738754  1
  Hf  Hf2  1  0.00056257  0.99981286  0.14797706  1
  Hf  Hf3  1  0.66747922  0.33375087  0.98273934  1
  Hf  Hf4  1  0.66402266  0.33816519  0.48145720  1
  Hf  Hf5  1  0.33318132  0.66709385  0.01803331  1
  Hf  Hf6  1  0.33164190  0.66677310  0.51823423  1
  Hf  Hf7  1  0.33037559  0.66214413  0.31532387  1
  Hf  Hf8  1  0.33470982  0.67029947  0.81414943  1
  Mg  Mg0  1  0.00374183  0.99978460  0.35169162  1
  Mg  Mg1  1  0.66465892  0.33189327  0.68466056  1
  Mg  Mg2  1  0.66649102  0.33311136  0.17861969  1
  Si  Si0  1  -0.00011413  0.69989291  0.74980051  1
  Si  Si1  1  0.70262951  0.00093940  0.74922408  1
  Si  Si2  1  0.37327961  0.03885340  0.58520304  1
  Si  Si3  1  0.66490538  0.62860431  0.58578627  1
  Si  Si4  1  0.96308912  0.62810198  0.08686092  1
  Si  Si5  1  0.66560023  0.03740534  0.08676348  1
  Si  Si6  1  0.37231393  0.33487333  0.08658617  1
  Si  Si7  1  0.62779281  0.66483006  0.91622131  1
  Si  Si8  1  0.03791253  0.37125435  0.91589507  1
  Si  Si9  1  0.33459196  0.96456507  0.91646919  1
  Si  Si10  1  0.33216464  0.36827460  0.41657789  1
  Si  Si11  1  0.03375017  0.66432035  0.41617179  1
  P  P0  1  0.29636364  0.00028956  0.25343614  1
  P  P1  1  0.70578791  0.70799191  0.25377556  1
  P  P2  1  0.00008275  0.29311135  0.25375239  1
  P  P3  1  0.29147356  0.29341008  0.75001272  1
  P  P4  1  0.96010206  0.33474499  0.58428509  1
  P  P5  1  0.62638029  0.96079904  0.41608019  1
  O  O0  1  0.21005347  0.01870171  0.30868501  1
  O  O1  1  0.81031220  0.79522150  0.30900272  1
  O  O2  1  0.98151956  0.18818901  0.30895765  1
  O  O3  1  0.19907935  0.18424781  0.80563857  1
  O  O4  1  0.98197707  0.79926892  0.80816378  1
  O  O5  1  0.82058281  0.02253271  0.80789506  1
  O  O6  1  0.79789436  0.97674765  0.69038191  1
  O  O7  1  0.18118090  0.20712234  0.69343164  1
  O  O8  1  0.03129049  0.82319552  0.69093432  1
  O  O9  1  0.79393316  0.81725579  0.19679774  1
  O  O10  1  0.02381853  0.20675442  0.19693740  1
  O  O11  1  0.18464733  0.97507299  0.19666243  1
  O  O12  1  0.88497242  0.36648675  0.63929854  1
  O  O13  1  0.48889198  0.11540458  0.64339247  1
  O  O14  1  0.62833204  0.51268987  0.64363930  1
  O  O15  1  0.88610786  0.51481362  0.14579566  1
  O  O16  1  0.62898927  0.11423998  0.14554867  1
  O  O17  1  0.48571691  0.37153416  0.14554330  1
  O  O18  1  0.45810394  0.29977674  0.02737415  1
  O  O19  1  0.84239741  0.54253644  0.02751228  1
  O  O20  1  0.70046367  0.15840441  0.02757899  1
  O  O21  1  0.46448254  0.15570166  0.52515838  1
  O  O22  1  0.69884867  0.54099205  0.52600689  1
  O  O23  1  0.84954457  0.30676571  0.52738628  1
  O  O24  1  0.54041412  0.69648519  0.97466938  1
  O  O25  1  0.15572866  0.45972709  0.97475355  1
  O  O26  1  0.30183241  0.84496163  0.97498989  1
  O  O27  1  0.53655894  0.85003697  0.47174218  1
  O  O28  1  0.31293476  0.46608519  0.47477738  1
  O  O29  1  0.15361580  0.69089792  0.47443760  1
  O  O30  1  0.13156267  0.63919405  0.35820821  1
  O  O31  1  0.51157088  0.87385601  0.36055941  1
  O  O32  1  0.36661353  0.49391836  0.35850749  1
  O  O33  1  0.12734990  0.49013873  0.85732263  1
  O  O34  1  0.36445531  0.87305445  0.85836796  1
  O  O35  1  0.50888061  0.63484396  0.85768356  1
  O  O36  1  0.00922346  0.82611431  0.41295880  1
  O  O37  1  0.79875123  0.97719916  0.41151859  1
  O  O38  1  0.16445587  0.18578582  0.41315938  1
  O  O39  1  0.02126500  0.18532187  0.91226817  1
  O  O40  1  0.16881866  0.98614957  0.91174316  1
  O  O41  1  0.81502719  0.83392941  0.91265176  1
  O  O42  1  0.98168109  0.17694081  0.58801782  1
  O  O43  1  0.18772915  0.02837392  0.58669509  1
  O  O44  1  0.83512673  0.81845577  0.58708743  1
  O  O45  1  0.98095438  0.81668943  0.09145104  1
  O  O46  1  0.83606432  0.01939352  0.09157907  1
  O  O47  1  0.18344914  0.16423911  0.09133574  1
  O  O48  1  0.68224940  0.16511587  0.74833846  1
  O  O49  1  0.46368184  0.30951687  0.74764445  1
  O  O50  1  0.83164037  0.51815240  0.74753955  1
  O  O51  1  0.68234804  0.53009522  0.24933522  1
  O  O52  1  0.84681103  0.31772934  0.24888544  1
  O  O53  1  0.47360181  0.15592978  0.24845508  1
  O  O54  1  0.64642548  0.49773550  0.92137748  1
  O  O55  1  0.85240616  0.35380821  0.92112960  1
  O  O56  1  0.50388084  0.14906130  0.92125077  1
  O  O57  1  0.64007916  0.13566739  0.42132774  1
  O  O58  1  0.50411409  0.35356587  0.41995218  1
  O  O59  1  0.85287990  0.48600827  0.41942882  1
  O  O60  1  0.34604803  0.49828969  0.07847596  1
  O  O61  1  0.15260658  0.65432906  0.07878381  1
  O  O62  1  0.50203550  0.84759678  0.07872158  1
  O  O63  1  0.34175085  0.84571205  0.57771836  1
  O  O64  1  0.50112440  0.65553445  0.57727837  1
  O  O65  1  0.14005071  0.49137803  0.57600905  1
  O  O66  1  0.31117815  0.83606841  0.25480110  1
  O  O67  1  0.52820915  0.69656807  0.25418276  1
  O  O68  1  0.16696067  0.47198267  0.25467892  1
  O  O69  1  0.30293942  0.46801606  0.75330968  1
  O  O70  1  0.17138981  0.68520116  0.75185061  1
  O  O71  1  0.51986910  0.82360158  0.75153376  1
loop_
_geom_bond_atom_site_label_1
_geom_bond_atom_site_label_2
_geom_bond_distance
_geom_bond_site_symmetry_2
Na0 O16 2.296873 1_555
Na0 O53 2.425552 1_555
Na0 O52 2.452153 1_555
Na0 O67 2.620360 1_545
Na0 O66 2.634623 1_545
Na1 O17 2.322342 1_555
Na1 O51 2.415359 1_555
Na1 O53 2.430850 1_555
Na1 O68 2.651959 1_555
Na1 O67 2.697514 1_555
Na1 O32 2.932905 1_555
Na1 O10 3.012889 1_555
Na2 O15 2.322131 1_555
Na2 O52 2.429415 1_555
Na2 O51 2.444957 1_555
Na2 O66 2.683806 1_655
Na2 O68 2.695922 1_655
Na2 O30 2.928608 1_655
Na2 O11 2.991876 1_655
Na3 O50 2.400310 1_555
Na3 O14 2.447991 1_555
Na3 O49 2.484695 1_555
Na3 O71 2.589752 1_555
Na3 O69 2.678368 1_555
Na3 O35 2.827333 1_555
Na4 O50 2.379208 1_555
Na4 O48 2.400166 1_555
Na4 O70 2.561974 1_655
Na4 O12 2.604038 1_555
Na4 O69 2.650755 1_655
Na4 O33 2.728845 1_655
Na5 O48 2.370584 1_555
Na5 O13 2.409625 1_555
Na5 O49 2.445401 1_555
Na5 O71 2.606171 1_545
Na5 O70 2.657102 1_545
Na5 O34 2.856900 1_545
Na6 O43 2.450528 1_555
Na6 O64 2.567535 1_555
Na6 O65 2.661230 1_555
Na6 O42 2.665361 1_455
Na6 O7 2.685240 1_555
Na6 O28 2.773555 1_555
Na6 O14 2.801706 1_555
Na6 O21 2.950153 1_555
Na7 O63 2.494150 1_555
Na7 O44 2.525690 1_455
Na7 O65 2.580140 1_555
Na7 O43 2.624149 1_565
Na7 O8 2.633586 1_555
Na7 O29 2.734319 1_555
Na7 O12 2.918281 1_455
Na7 O22 2.938765 1_455
Na8 O6 2.533623 1_555
Na8 O64 2.534144 1_555
Na8 O63 2.571599 1_555
Na8 O42 2.593350 1_565
Na8 O44 2.618546 1_555
Na8 O13 2.769187 1_565
Na8 O27 2.904948 1_555
Na9 O62 2.531453 1_555
Na9 O61 2.538052 1_555
Na9 O47 2.572400 1_565
Na9 O45 2.646280 1_455
Na9 O26 2.669438 1_554
Na9 O11 2.802841 1_555
Na9 O16 2.884895 1_565
Na9 O18 2.886423 1_565
Na10 O60 2.525287 1_555
Na10 O62 2.541968 1_555
Na10 O45 2.570703 1_555
Na10 O46 2.646967 1_565
Na10 O24 2.681219 1_554
Na10 O9 2.813341 1_555
Na10 O17 2.881508 1_555
Na10 O19 2.890116 1_555
Na11 O61 2.527856 1_555
Na11 O60 2.542895 1_555
Na11 O46 2.565710 1_455
Na11 O47 2.647972 1_555
Na11 O25 2.677049 1_554
Na11 O10 2.817904 1_555
Na11 O20 2.880541 1_455
Na11 O15 2.893898 1_455
Na12 O55 2.501024 1_555
Na12 O54 2.550930 1_555
Na12 O41 2.562493 1_555
Na12 O40 2.591081 1_655
Na12 O19 2.707709 1_556
Na12 O4 2.711348 1_555
Na12 O26 2.963164 1_655
Na12 O33 2.990738 1_655
Na13 O56 2.488967 1_555
Na13 O55 2.536630 1_555
Na13 O41 2.563194 1_545
Na13 O39 2.573376 1_655
Na13 O20 2.705468 1_556
Na13 O5 2.723642 1_555
Na13 O34 2.970024 1_545
Na13 O24 2.983933 1_545
Na14 O54 2.507914 1_555
Na14 O40 2.516596 1_545
Na14 O39 2.528945 1_555
Na14 O56 2.564512 1_555
Na14 O18 2.671887 1_556
Na14 O3 2.796467 1_555
Na14 O25 2.962229 1_555
Na14 O35 2.987937 1_555
Na15 O38 2.412339 1_655
Na15 O37 2.507403 1_545
Na15 O2 2.511747 1_555
Na15 O59 2.525152 1_555
Na15 O57 2.652193 1_555
Na15 O23 2.846875 1_555
Na16 O38 2.398782 1_555
Na16 O36 2.459076 1_545
Na16 O0 2.532112 1_555
Na16 O58 2.576749 1_555
Na16 O57 2.677639 1_555
Na16 O21 2.780376 1_555
Na17 O36 2.344312 1_655
Na17 O37 2.455892 1_555
Na17 O1 2.496516 1_555
Na17 O58 2.626100 1_555
Na17 O59 2.648131 1_555
Na17 O22 2.824505 1_555
Na18 O36 2.399905 1_555
Na18 O38 2.411400 1_565
Na18 O43 2.576129 1_565
Na18 O37 2.601861 1_455
Na18 O44 2.641830 1_455
Na18 O42 2.763591 1_465
Na19 O39 2.514621 1_555
Na19 O41 2.521026 1_445
Na19 O40 2.533020 1_545
Na19 O47 2.611120 1_556
Na19 O45 2.623759 1_446
Na19 O46 2.625424 1_456
Na20 O48 2.387666 1_555
Na20 O50 2.396530 1_555
Na20 O49 2.552157 1_555
Na20 O55 2.610160 1_555
Na20 O56 2.650962 1_555
Na20 O54 2.662039 1_555
Na21 O51 2.440953 1_555
Na21 O53 2.475033 1_555
Na21 O52 2.481038 1_555
Na21 O59 2.575210 1_555
Na21 O58 2.603675 1_555
Na21 O57 2.727041 1_555
Na22 O62 2.418116 1_555
Na22 O61 2.423940 1_555
Na22 O60 2.430109 1_555
Na22 O67 2.687205 1_555
Na22 O66 2.701616 1_555
Na22 O68 2.708014 1_555
Na23 O71 2.387656 1_555
Na23 O70 2.447720 1_555
Na23 O63 2.556643 1_555
Na23 O69 2.590291 1_555
Na23 O64 2.592222 1_555
Na23 O65 2.735590 1_555
Hf0 O5 1.998796 1_565
Hf0 O4 2.008521 1_555
Hf0 O41 2.076025 1_555
Hf0 O3 2.087987 1_665
Hf0 O39 2.116298 1_665
Hf0 O40 2.117835 1_655
Hf1 O8 1.990935 1_655
Hf1 O6 2.018809 1_555
Hf1 O44 2.059815 1_555
Hf1 O43 2.102000 1_665
Hf1 O7 2.103579 1_665
Hf1 O42 2.210304 1_565
Hf2 O45 2.040037 1_455
Hf2 O47 2.042797 1_565
Hf2 O46 2.044486 1_465
Hf2 O9 2.103956 1_455
Hf2 O10 2.111365 1_565
Hf2 O11 2.117867 1_555
Hf3 O19 2.043884 1_556
Hf3 O20 2.045390 1_556
Hf3 O18 2.050700 1_556
Hf3 O56 2.115007 1_555
Hf3 O54 2.117028 1_555
Hf3 O55 2.125333 1_555
Hf4 O22 1.993658 1_555
Hf4 O21 2.013487 1_555
Hf4 O58 2.068298 1_555
Hf4 O59 2.103745 1_555
Hf4 O23 2.130631 1_555
Hf4 O57 2.216532 1_555
Hf5 O25 2.028275 1_554
Hf5 O24 2.033706 1_554
Hf5 O26 2.038044 1_554
Hf5 O62 2.102488 1_555
Hf5 O61 2.104420 1_555
Hf5 O60 2.104660 1_555
Hf6 O29 2.012433 1_555
Hf6 O28 2.015341 1_555
Hf6 O27 2.071700 1_555
Hf6 O63 2.081526 1_555
Hf6 O64 2.083224 1_555
Hf6 O65 2.128245 1_555
Hf7 O30 1.981619 1_555
Hf7 O32 1.987367 1_555
Hf7 O31 2.082124 1_555
Hf7 O68 2.125384 1_555
Hf7 O66 2.167632 1_555
Hf7 O67 2.170204 1_555
Hf8 O34 2.004355 1_555
Hf8 O35 2.034709 1_555
Hf8 O33 2.037060 1_555
Hf8 O70 2.101519 1_555
Hf8 O71 2.108243 1_555
Hf8 O69 2.202600 1_555
Mg0 O0 2.056973 1_565
Mg0 O1 2.063266 1_455
Mg0 O2 2.075460 1_465
Mg0 O38 2.112185 1_565
Mg0 O36 2.122694 1_555
Mg0 O37 2.236633 1_455
Mg1 O13 2.049210 1_555
Mg1 O14 2.066419 1_555
Mg1 O12 2.144005 1_555
Mg1 O50 2.151321 1_555
Mg1 O48 2.156210 1_555
Mg1 O49 2.251449 1_555
Mg2 O16 2.005099 1_555
Mg2 O17 2.005721 1_555
Mg2 O15 2.007538 1_555
Mg2 O53 2.312198 1_555
Mg2 O52 2.338212 1_555
Mg2 O51 2.353441 1_555
O0 P0 1.523922 1_555
O1 P1 1.522153 1_555
O2 P2 1.522058 1_655
O3 P3 1.556331 1_555
O4 Si0 1.648416 1_655
O5 Si1 1.648534 1_555
O6 Si1 1.657379 1_565
O7 P3 1.565106 1_555
O8 Si0 1.664674 1_555
O9 P1 1.572787 1_555
O10 P2 1.570706 1_555
O11 P0 1.574409 1_565
O12 P4 1.510102 1_555
O13 Si2 1.601760 1_555
O14 Si3 1.600482 1_555
O15 Si4 1.607319 1_555
O16 Si5 1.606366 1_555
O17 Si6 1.607287 1_555
O18 Si6 1.654677 1_555
O19 Si4 1.653340 1_555
O20 Si5 1.653038 1_555
O21 Si2 1.660557 1_555
O22 Si3 1.669425 1_555
O23 P4 1.566250 1_555
O24 Si7 1.635874 1_555
O25 Si8 1.637462 1_555
O26 Si9 1.636609 1_555
O27 P5 1.557487 1_555
O28 Si10 1.641459 1_555
O29 Si11 1.642756 1_555
O30 Si11 1.659572 1_555
O31 P5 1.564062 1_555
O32 Si10 1.658999 1_555
O33 Si8 1.638809 1_555
O34 Si9 1.644546 1_555
O35 Si7 1.636885 1_555
O36 Si11 1.614119 1_555
O37 P5 1.519441 1_555
O38 Si10 1.614344 1_555
O39 Si8 1.640180 1_555
O40 Si9 1.636940 1_555
O41 Si7 1.645019 1_555
O42 P4 1.562088 1_555
O43 Si2 1.661266 1_555
O44 Si3 1.661223 1_555
O45 Si4 1.660896 1_555
O46 Si5 1.660862 1_555
O47 Si6 1.661050 1_555
O48 Si1 1.611788 1_555
O49 P3 1.516529 1_555
O50 Si0 1.611666 1_655
O51 P1 1.542153 1_555
O52 P2 1.539823 1_655
O53 P0 1.542720 1_555
O54 Si7 1.633019 1_555
O55 Si8 1.636538 1_655
O56 Si9 1.632698 1_545
O57 P5 1.552979 1_545
O58 Si10 1.655513 1_555
O59 Si11 1.651428 1_655
O60 Si6 1.646924 1_555
O61 Si4 1.646247 1_455
O62 Si5 1.645959 1_565
O63 Si2 1.658157 1_565
O64 Si3 1.655644 1_555
O65 P4 1.568199 1_455
O66 P0 1.582909 1_565
O67 P1 1.583746 1_555
O68 P2 1.590858 1_555
O69 P3 1.556986 1_555
O70 Si0 1.650295 1_555
O71 Si1 1.655274 1_565
