# generated using pymatgen
data_Na10Sc7TaSi6(SO8)6
_symmetry_space_group_name_H-M   'P 1'
_cell_length_a   18.11920316
_cell_length_b   9.05940441
_cell_length_c   22.91030260
_cell_angle_alpha   90.11734265
_cell_angle_beta   89.78565276
_cell_angle_gamma   119.91452869
_symmetry_Int_Tables_number   1
_chemical_formula_structural   Na10Sc7TaSi6(SO8)6
_chemical_formula_sum   'Na30 Sc21 Ta3 Si18 S18 O144'
_cell_volume   3259.64683156
_cell_formula_units_Z   3
loop_
 _symmetry_equiv_pos_site_id
 _symmetry_equiv_pos_as_xyz
  1  'x, y, z'
loop_
 _atom_site_type_symbol
 _atom_site_label
 _atom_site_symmetry_multiplicity
 _atom_site_fract_x
 _atom_site_fract_y
 _atom_site_fract_z
 _atom_site_occupancy
  Na  Na0  1  0.31852653  0.00470132  0.25013554  1
  Na  Na1  1  0.82119856  0.00149001  0.25159947  1
  Na  Na2  1  0.18426568  0.36332849  0.25063565  1
  Na  Na3  1  0.68569242  0.37600745  0.24441102  1
  Na  Na4  1  0.99682573  0.62929606  0.24794799  1
  Na  Na5  1  0.49602491  0.62197281  0.25152105  1
  Na  Na6  1  0.31407761  0.62579394  0.74916844  1
  Na  Na7  1  0.81023629  0.62521266  0.74981504  1
  Na  Na8  1  0.99761341  0.35517928  0.74889102  1
  Na  Na9  1  0.68571184  0.00875804  0.75314440  1
  Na  Na10  1  0.15936537  0.34240925  0.58245495  1
  Na  Na11  1  0.01312094  0.69231855  0.58202866  1
  Na  Na12  1  0.33163424  0.96487782  0.58457487  1
  Na  Na13  1  0.83102272  0.96536417  0.58076573  1
  Na  Na14  1  0.83094166  0.68402101  0.07807920  1
  Na  Na15  1  0.16929088  0.30593380  0.91237869  1
  Na  Na16  1  0.67111809  0.30982980  0.91679876  1
  Na  Na17  1  0.35554793  0.66593491  0.41722642  1
  Na  Na18  1  0.99933011  0.99667244  0.49549791  1
  Na  Na19  1  0.50611507  0.99170659  0.49899444  1
  Na  Na20  1  0.99337578  0.98221230  0.99697980  1
  Na  Na21  1  0.49529238  0.98153366  0.99885784  1
  Na  Na22  1  0.33286181  0.32984947  0.83402647  1
  Na  Na23  1  0.83099150  0.33173518  0.83602063  1
  Na  Na24  1  0.33867803  0.33377359  0.33300918  1
  Na  Na25  1  0.83828984  0.34076676  0.33330029  1
  Na  Na26  1  0.16138337  0.66426418  0.16440361  1
  Na  Na27  1  0.65813185  0.64922062  0.16159416  1
  Na  Na28  1  0.16774596  0.66917778  0.66447688  1
  Na  Na29  1  0.66350395  0.64376529  0.66754921  1
  Sc  Sc0  1  0.99865655  0.99884320  0.34763693  1
  Sc  Sc1  1  0.49803692  0.99447552  0.35221411  1
  Sc  Sc2  1  0.99378670  0.99885054  0.85211471  1
  Sc  Sc3  1  0.49932704  0.99654168  0.85323605  1
  Sc  Sc4  1  0.50418236  0.00726120  0.64804645  1
  Sc  Sc5  1  0.32467202  0.32718986  0.68261103  1
  Sc  Sc6  1  0.82993490  0.33642104  0.68383268  1
  Sc  Sc7  1  0.34005385  0.34392184  0.18649527  1
  Sc  Sc8  1  0.84013683  0.35282405  0.18082061  1
  Sc  Sc9  1  0.34165774  0.36015079  0.98227610  1
  Sc  Sc10  1  0.83328828  0.35328090  0.98440158  1
  Sc  Sc11  1  0.33624959  0.34515267  0.48335495  1
  Sc  Sc12  1  0.83875093  0.34442127  0.48440005  1
  Sc  Sc13  1  0.16912161  0.67198038  0.01835909  1
  Sc  Sc14  1  0.66567045  0.66059436  0.02115406  1
  Sc  Sc15  1  0.16706663  0.66589162  0.52224763  1
  Sc  Sc16  1  0.66159869  0.66223468  0.51542718  1
  Sc  Sc17  1  0.16457675  0.66471416  0.30889888  1
  Sc  Sc18  1  0.66030971  0.65313825  0.31649216  1
  Sc  Sc19  1  0.17136991  0.66204150  0.81736550  1
  Sc  Sc20  1  0.67175342  0.65741518  0.81466421  1
  Ta  Ta0  1  0.99902659  0.00853737  0.64553755  1
  Ta  Ta1  1  0.00101687  0.99357988  0.15069084  1
  Ta  Ta2  1  0.49653068  0.00230496  0.14317398  1
  Si  Si0  1  0.14704993  0.00340521  0.25172084  1
  Si  Si1  1  0.35539388  0.71117940  0.25073255  1
  Si  Si2  1  0.85215868  0.70583377  0.25162114  1
  Si  Si3  1  0.99684266  0.28690314  0.25001908  1
  Si  Si4  1  0.50056863  0.28803198  0.25101573  1
  Si  Si5  1  0.14719257  0.29093279  0.75300617  1
  Si  Si6  1  0.64441697  0.29098962  0.75133165  1
  Si  Si7  1  0.85231802  0.00226860  0.74997002  1
  Si  Si8  1  0.97740667  0.33461993  0.58435376  1
  Si  Si9  1  0.18825201  0.04261201  0.58233624  1
  Si  Si10  1  0.33807943  0.63515547  0.58327809  1
  Si  Si11  1  0.82958368  0.62523135  0.58469497  1
  Si  Si12  1  0.48277796  0.62940533  0.08524964  1
  Si  Si13  1  0.98588874  0.63364130  0.08352228  1
  Si  Si14  1  0.68537899  0.33070420  0.08396152  1
  Si  Si15  1  0.31574162  0.67004275  0.91724331  1
  Si  Si16  1  0.81642171  0.67042131  0.91809704  1
  Si  Si17  1  0.51829674  0.66720730  0.41615579  1
  S  S0  1  0.64421023  0.00046856  0.24886136  1
  S  S1  1  0.00178648  0.71269137  0.74953034  1
  S  S2  1  0.49969370  0.70723434  0.74981258  1
  S  S3  1  0.35470733  0.00338391  0.75017511  1
  S  S4  1  0.47969653  0.33528983  0.58416205  1
  S  S5  1  0.68637983  0.04095819  0.58242676  1
  S  S6  1  0.33255654  0.04147841  0.08365756  1
  S  S7  1  0.83522573  0.04332283  0.08400747  1
  S  S8  1  0.18518706  0.33061950  0.08348192  1
  S  S9  1  0.01987426  0.37536550  0.91688126  1
  S  S10  1  0.51969927  0.37447740  0.91619259  1
  S  S11  1  0.16717456  0.95920285  0.91695734  1
  S  S12  1  0.66719701  0.95829320  0.91591957  1
  S  S13  1  0.31182663  0.96028093  0.41658195  1
  S  S14  1  0.81377719  0.96260914  0.41685028  1
  S  S15  1  0.16490210  0.37100181  0.41675425  1
  S  S16  1  0.66795591  0.37130953  0.41671213  1
  S  S17  1  0.01985740  0.66711168  0.41703739  1
  O  O0  1  0.10392574  0.04194665  0.30676863  1
  O  O1  1  0.60680325  0.03119969  0.30150762  1
  O  O2  1  0.41373926  0.78972824  0.30871374  1
  O  O3  1  0.91694458  0.79327945  0.30530054  1
  O  O4  1  0.48589106  0.16756657  0.30676651  1
  O  O5  1  0.98013037  0.16608890  0.30598689  1
  O  O6  1  0.10327376  0.18029090  0.81089833  1
  O  O7  1  0.60174016  0.17035962  0.80917265  1
  O  O8  1  0.48297689  0.78568500  0.80176636  1
  O  O9  1  0.98797993  0.79304162  0.80083820  1
  O  O10  1  0.40708302  0.02043523  0.80167862  1
  O  O11  1  0.91621461  0.03515536  0.80368393  1
  O  O12  1  0.39110369  0.96984005  0.69619996  1
  O  O13  1  0.90128166  0.97029786  0.69189145  1
  O  O14  1  0.08399994  0.19024745  0.69450624  1
  O  O15  1  0.58598520  0.19252822  0.69453383  1
  O  O16  1  0.01282486  0.81509143  0.69506042  1
  O  O17  1  0.51254588  0.81431816  0.69736825  1
  O  O18  1  0.40519140  0.84142563  0.19520784  1
  O  O19  1  0.90164640  0.83187857  0.19252477  1
  O  O20  1  0.01474473  0.19272463  0.19267215  1
  O  O21  1  0.51525796  0.19112996  0.19382332  1
  O  O22  1  0.08190817  0.96821593  0.19402338  1
  O  O23  1  0.58879103  0.97081529  0.19669323  1
  O  O24  1  0.44036163  0.36024465  0.63695564  1
  O  O25  1  0.93906376  0.36897532  0.64343662  1
  O  O26  1  0.24945030  0.12076643  0.63923319  1
  O  O27  1  0.73869581  0.11576291  0.63629422  1
  O  O28  1  0.31757398  0.51297802  0.64111429  1
  O  O29  1  0.81861660  0.51874511  0.64421574  1
  O  O30  1  0.43926752  0.51670727  0.14371095  1
  O  O31  1  0.94439544  0.52849661  0.14413405  1
  O  O32  1  0.32151615  0.11662010  0.13787814  1
  O  O33  1  0.82358100  0.11907783  0.13832689  1
  O  O34  1  0.23605661  0.35205640  0.13638012  1
  O  O35  1  0.74288629  0.35990991  0.14236947  1
  O  O36  1  0.22342630  0.30120291  0.03033266  1
  O  O37  1  0.72473494  0.29530322  0.02480422  1
  O  O38  1  0.42089526  0.54353034  0.02854025  1
  O  O39  1  0.91926729  0.54691209  0.02959552  1
  O  O40  1  0.34591344  0.14644194  0.03189389  1
  O  O41  1  0.84836595  0.14862143  0.03224910  1
  O  O42  1  0.22813810  0.16737404  0.52665993  1
  O  O43  1  0.72772056  0.14850240  0.53093907  1
  O  O44  1  0.34930295  0.54659403  0.52441507  1
  O  O45  1  0.85297702  0.54070827  0.52931066  1
  O  O46  1  0.42536246  0.30351517  0.53181708  1
  O  O47  1  0.91419906  0.28563721  0.52879075  1
  O  O48  1  0.26436251  0.68942936  0.97230264  1
  O  O49  1  0.76894845  0.69180330  0.97569761  1
  O  O50  1  0.07536136  0.46193812  0.96747924  1
  O  O51  1  0.57297173  0.45328686  0.96836322  1
  O  O52  1  0.15426407  0.85324079  0.96921616  1
  O  O53  1  0.65434838  0.85170218  0.96730379  1
  O  O54  1  0.27085267  0.85136028  0.46917124  1
  O  O55  1  0.77229316  0.85838285  0.47023880  1
  O  O56  1  0.15606026  0.45639197  0.46990979  1
  O  O57  1  0.65714876  0.45790875  0.46828155  1
  O  O58  1  0.07077486  0.68434301  0.47014522  1
  O  O59  1  0.57937741  0.68881462  0.47197012  1
  O  O60  1  0.06139855  0.64647453  0.36386423  1
  O  O61  1  0.56376632  0.64542702  0.35646008  1
  O  O62  1  0.26059140  0.87638646  0.36347202  1
  O  O63  1  0.76278398  0.87859001  0.36348256  1
  O  O64  1  0.17718395  0.47906931  0.36413023  1
  O  O65  1  0.68150713  0.47516184  0.36257281  1
  O  O66  1  0.05855216  0.47737762  0.86211201  1
  O  O67  1  0.55813033  0.47984864  0.86355188  1
  O  O68  1  0.17701915  0.87527433  0.86381103  1
  O  O69  1  0.67484725  0.87777702  0.86105397  1
  O  O70  1  0.25590112  0.63453290  0.85745917  1
  O  O71  1  0.75568582  0.63573526  0.85945803  1
  O  O72  1  0.01113812  0.82118718  0.41372487  1
  O  O73  1  0.50622579  0.83650221  0.41381882  1
  O  O74  1  0.39692233  0.97141994  0.41256981  1
  O  O75  1  0.89970463  0.97915998  0.41345257  1
  O  O76  1  0.08825005  0.20089615  0.41306582  1
  O  O77  1  0.59058929  0.20225754  0.41150435  1
  O  O78  1  0.01770263  0.20806334  0.91247505  1
  O  O79  1  0.51465535  0.20436959  0.91006336  1
  O  O80  1  0.09179959  0.98375843  0.91210550  1
  O  O81  1  0.59095036  0.98418500  0.91189204  1
  O  O82  1  0.40999213  0.83737491  0.90981569  1
  O  O83  1  0.91167158  0.83713985  0.91152521  1
  O  O84  1  0.48589731  0.17629730  0.58958893  1
  O  O85  1  0.98908459  0.16181554  0.59148313  1
  O  O86  1  0.09145724  0.01839705  0.59437691  1
  O  O87  1  0.60034638  0.01997700  0.58872491  1
  O  O88  1  0.41723662  0.83052779  0.59021278  1
  O  O89  1  0.92090389  0.81631597  0.59311006  1
  O  O90  1  0.48840245  0.81914245  0.09517896  1
  O  O91  1  0.98828358  0.82414306  0.09113044  1
  O  O92  1  0.41258453  0.02508408  0.08932829  1
  O  O93  1  0.91332326  0.02132802  0.08978224  1
  O  O94  1  0.09775535  0.17402119  0.08980102  1
  O  O95  1  0.58903513  0.16042625  0.09363953  1
  O  O96  1  0.34738343  0.15742007  0.74507678  1
  O  O97  1  0.84519250  0.17339576  0.74248818  1
  O  O98  1  0.24456868  0.32510915  0.74589251  1
  O  O99  1  0.74062013  0.31138297  0.74615016  1
  O  O100  1  0.42348761  0.53545213  0.74356553  1
  O  O101  1  0.92424657  0.54064431  0.74445609  1
  O  O102  1  0.34147092  0.51979027  0.24336336  1
  O  O103  1  0.84006148  0.51498982  0.24538446  1
  O  O104  1  0.41527525  0.30483717  0.24417145  1
  O  O105  1  0.91130211  0.30277526  0.24351261  1
  O  O106  1  0.23997976  0.16681541  0.24056147  1
  O  O107  1  0.73060468  0.15086189  0.24192722  1
  O  O108  1  0.31642609  0.48705308  0.92149047  1
  O  O109  1  0.81868496  0.48856298  0.92021775  1
  O  O110  1  0.43222773  0.34768047  0.92282218  1
  O  O111  1  0.93350099  0.35006516  0.92274224  1
  O  O112  1  0.24443663  0.13139771  0.92278468  1
  O  O113  1  0.74445626  0.13059850  0.92041732  1
  O  O114  1  0.32100445  0.13023404  0.42263769  1
  O  O115  1  0.82044581  0.13303287  0.42158872  1
  O  O116  1  0.24434231  0.36009784  0.42042607  1
  O  O117  1  0.74486070  0.35297912  0.42280637  1
  O  O118  1  0.42174303  0.49703375  0.42025719  1
  O  O119  1  0.93396725  0.50979377  0.42108260  1
  O  O120  1  0.17512031  0.48243094  0.07732197  1
  O  O121  1  0.67994647  0.50568490  0.07846609  1
  O  O122  1  0.08036328  0.65848397  0.07612742  1
  O  O123  1  0.57792424  0.65949049  0.07641325  1
  O  O124  1  0.25889370  0.86750293  0.07839718  1
  O  O125  1  0.76069003  0.86860280  0.07914134  1
  O  O126  1  0.17276058  0.84883312  0.57542708  1
  O  O127  1  0.68046867  0.87097153  0.57664325  1
  O  O128  1  0.25009521  0.64939660  0.57625586  1
  O  O129  1  0.75251807  0.66713946  0.57632974  1
  O  O130  1  0.07330941  0.49555541  0.57553921  1
  O  O131  1  0.56619324  0.48516273  0.57714001  1
  O  O132  1  0.15177598  0.82777611  0.25545101  1
  O  O133  1  0.65293540  0.84557254  0.25416536  1
  O  O134  1  0.26143468  0.69675221  0.25587503  1
  O  O135  1  0.76080559  0.70062390  0.25480771  1
  O  O136  1  0.08351889  0.47478806  0.25515372  1
  O  O137  1  0.58652599  0.47847057  0.25359569  1
  O  O138  1  0.15131499  0.48020169  0.75288542  1
  O  O139  1  0.65623635  0.48269282  0.75437728  1
  O  O140  1  0.07735481  0.69075654  0.75439499  1
  O  O141  1  0.57857460  0.69834668  0.75696126  1
  O  O142  1  0.26800412  0.84602273  0.75616617  1
  O  O143  1  0.75765091  0.83292429  0.75289411  1
loop_
_geom_bond_atom_site_label_1
_geom_bond_atom_site_label_2
_geom_bond_distance
_geom_bond_site_symmetry_2
Na0 O104 2.393843 1_555
Na0 O134 2.447969 1_545
Na0 O106 2.513768 1_555
Na0 O132 2.623065 1_545
Na0 O32 2.756853 1_555
Na0 O62 2.823171 1_545
Na0 O18 2.920916 1_545
Na0 O4 2.935175 1_555
Na1 O135 2.378530 1_545
Na1 O105 2.388492 1_555
Na1 O107 2.606588 1_555
Na1 O133 2.645272 1_545
Na1 O63 2.783216 1_545
Na1 O5 2.793769 1_555
Na1 O33 2.799265 1_555
Na1 O19 2.920324 1_545
Na2 O106 2.455791 1_555
Na2 O102 2.474033 1_555
Na2 O136 2.489830 1_555
Na2 O134 2.623122 1_555
Na2 O34 2.796271 1_555
Na2 O64 2.827977 1_555
Na2 O0 2.832647 1_555
Na2 O20 2.978915 1_555
Na3 O137 2.407166 1_555
Na3 O103 2.428371 1_555
Na3 O107 2.545685 1_555
Na3 O135 2.562222 1_555
Na3 O35 2.586839 1_555
Na3 O65 2.863148 1_555
Na3 O21 2.923180 1_555
Na3 O1 3.010206 1_555
Na4 O132 2.472305 1_655
Na4 O103 2.492211 1_555
Na4 O31 2.556551 1_555
Na4 O105 2.567060 1_555
Na4 O136 2.578749 1_655
Na4 O3 2.854967 1_555
Na4 O60 2.878488 1_655
Na4 O22 2.934352 1_655
Na5 O102 2.480249 1_555
Na5 O104 2.496125 1_555
Na5 O133 2.539036 1_555
Na5 O137 2.551175 1_555
Na5 O61 2.663019 1_555
Na5 O30 2.664380 1_555
Na6 O98 2.364345 1_555
Na6 O100 2.496456 1_555
Na6 O142 2.522333 1_555
Na6 O138 2.561858 1_555
Na6 O28 2.688865 1_555
Na6 O70 2.708415 1_555
Na6 O8 2.918021 1_555
Na6 O12 2.966358 1_555
Na7 O139 2.422601 1_555
Na7 O99 2.470677 1_555
Na7 O143 2.498205 1_555
Na7 O101 2.538852 1_555
Na7 O29 2.634430 1_555
Na7 O71 2.714844 1_555
Na8 O97 2.413812 1_555
Na8 O138 2.429504 1_655
Na8 O101 2.613443 1_555
Na8 O140 2.639034 1_655
Na8 O25 2.670347 1_555
Na8 O11 2.809397 1_555
Na8 O66 2.821994 1_655
Na8 O14 2.923281 1_655
Na9 O99 2.410793 1_555
Na9 O141 2.497801 1_545
Na9 O143 2.511472 1_545
Na9 O97 2.516297 1_555
Na9 O69 2.708165 1_545
Na9 O27 2.844515 1_555
Na9 O7 2.881912 1_555
Na10 O128 2.428384 1_555
Na10 O130 2.557700 1_555
Na10 O86 2.569676 1_555
Na10 O85 2.683414 1_455
Na10 O42 2.766210 1_555
Na10 O56 2.791414 1_555
Na10 O28 2.830810 1_555
Na10 O14 2.909617 1_555
Na11 O89 2.446642 1_455
Na11 O126 2.511372 1_555
Na11 O130 2.515079 1_555
Na11 O86 2.576568 1_565
Na11 O58 2.778743 1_555
Na11 O45 2.794507 1_455
Na11 O16 2.817297 1_555
Na11 O25 2.905663 1_455
Na12 O88 2.406019 1_555
Na12 O84 2.481162 1_565
Na12 O128 2.485133 1_555
Na12 O126 2.533961 1_555
Na12 O12 2.770389 1_555
Na12 O26 2.802925 1_565
Na12 O54 2.853395 1_555
Na12 O46 2.925756 1_565
Na13 O129 2.345183 1_555
Na13 O127 2.420042 1_555
Na13 O85 2.519831 1_565
Na13 O89 2.598824 1_555
Na13 O55 2.732251 1_555
Na13 O47 2.783356 1_565
Na13 O13 2.841017 1_555
Na13 O27 2.919571 1_565
Na14 O121 2.384666 1_555
Na14 O91 2.494734 1_555
Na14 O125 2.557300 1_555
Na14 O49 2.620666 1_554
Na14 O93 2.662329 1_565
Na14 O39 2.702173 1_555
Na14 O19 2.934184 1_555
Na14 O35 2.943487 1_555
Na15 O108 2.341575 1_555
Na15 O78 2.429243 1_555
Na15 O80 2.530387 1_545
Na15 O112 2.561687 1_555
Na15 O6 2.604566 1_555
Na15 O70 2.872074 1_555
Na15 O36 2.885997 1_556
Na15 O50 2.977132 1_555
Na16 O109 2.336656 1_555
Na16 O79 2.504963 1_555
Na16 O81 2.559612 1_545
Na16 O113 2.561759 1_555
Na16 O37 2.689015 1_556
Na16 O7 2.771790 1_555
Na16 O71 2.877401 1_555
Na16 O51 2.920673 1_555
Na17 O118 2.369874 1_555
Na17 O73 2.374594 1_555
Na17 O74 2.482693 1_555
Na17 O116 2.484658 1_555
Na17 O44 2.664407 1_555
Na17 O2 2.713362 1_555
Na18 O72 2.531219 1_655
Na18 O75 2.560353 1_555
Na18 O76 2.569794 1_665
Na18 O89 2.713946 1_555
Na18 O85 2.714606 1_565
Na18 O86 2.766908 1_665
Na19 O73 2.403437 1_555
Na19 O88 2.595165 1_555
Na19 O87 2.606696 1_565
Na19 O77 2.660747 1_565
Na19 O74 2.744774 1_555
Na19 O84 2.798167 1_565
Na20 O83 2.412963 1_555
Na20 O91 2.567350 1_556
Na20 O80 2.628857 1_655
Na20 O93 2.690063 1_566
Na20 O78 2.690580 1_665
Na20 O94 2.802808 1_666
Na21 O82 2.501066 1_555
Na21 O90 2.622537 1_556
Na21 O81 2.628167 1_555
Na21 O92 2.694571 1_566
Na21 O95 2.737597 1_566
Na21 O79 2.764406 1_565
Na22 O108 2.557175 1_555
Na22 O98 2.567794 1_555
Na22 O112 2.655536 1_555
Na22 O96 2.656165 1_555
Na22 O110 2.672479 1_555
Na22 O100 2.720420 1_555
Na23 O109 2.467958 1_555
Na23 O113 2.580597 1_555
Na23 O99 2.584011 1_555
Na23 O97 2.658412 1_555
Na23 O111 2.672741 1_555
Na23 O101 2.763646 1_555
Na24 O118 2.497680 1_555
Na24 O104 2.544984 1_555
Na24 O102 2.643662 1_555
Na24 O114 2.672234 1_555
Na24 O106 2.699842 1_555
Na24 O116 2.714507 1_555
Na25 O103 2.551697 1_555
Na25 O105 2.555579 1_555
Na25 O119 2.600096 1_555
Na25 O115 2.672345 1_555
Na25 O117 2.691270 1_555
Na25 O107 2.795859 1_555
Na26 O122 2.488608 1_555
Na26 O132 2.611038 1_555
Na26 O136 2.614739 1_555
Na26 O124 2.671789 1_555
Na26 O120 2.673504 1_555
Na26 O134 2.694154 1_555
Na27 O121 2.443582 1_555
Na27 O123 2.466980 1_555
Na27 O137 2.551482 1_555
Na27 O125 2.697593 1_555
Na27 O135 2.720285 1_555
Na27 O133 2.796632 1_555
Na28 O128 2.566373 1_555
Na28 O138 2.573606 1_555
Na28 O126 2.585382 1_555
Na28 O130 2.623399 1_555
Na28 O140 2.693868 1_555
Na28 O142 2.718700 1_555
Na29 O139 2.433533 1_555
Na29 O129 2.578692 1_555
Na29 O143 2.601009 1_555
Na29 O131 2.636648 1_555
Na29 O141 2.745901 1_555
Na29 O127 2.837352 1_555
O0 Si0 1.608085 1_555
O0 Sc0 1.978015 1_445
O1 S0 1.473906 1_555
O1 Sc1 2.162084 1_545
O2 Si1 1.626297 1_555
O2 Sc1 1.986147 1_555
O3 Si2 1.611603 1_555
O3 Sc0 1.963209 1_555
O4 Si4 1.614575 1_555
O4 Sc1 1.985981 1_545
O5 Si3 1.614325 1_555
O5 Sc0 1.958184 1_545
O6 Si5 1.612163 1_555
O6 Sc2 2.066149 1_445
O7 Si6 1.644282 1_555
O7 Sc3 2.005030 1_545
O8 S2 1.490696 1_555
O8 Sc3 2.134522 1_555
O9 S1 1.466333 1_655
O9 Sc2 2.159584 1_555
O10 S3 1.475871 1_555
O10 Sc3 2.147625 1_545
O11 Si7 1.615134 1_555
O11 Sc2 1.946565 1_545
O12 S3 1.499549 1_565
O12 Sc4 2.195858 1_565
O13 Si7 1.699222 1_565
O13 Ta0 1.939059 1_565
O14 Si5 1.704135 1_555
O14 Ta0 1.953571 1_455
O15 Si6 1.635071 1_555
O15 Sc4 1.916108 1_555
O16 S1 1.508549 1_555
O16 Ta0 2.206433 1_465
O17 S2 1.488740 1_555
O17 Sc4 2.151444 1_565
O18 Si1 1.661408 1_555
O18 Ta2 1.967446 1_565
O19 Si2 1.707929 1_555
O19 Ta1 1.915325 1_655
O20 Si3 1.681544 1_455
O20 Ta1 1.946515 1_545
O21 Si4 1.668565 1_555
O21 Ta2 1.950333 1_555
O22 Si0 1.696099 1_565
O22 Ta1 1.879987 1_555
O23 S0 1.499189 1_565
O23 Ta2 2.207208 1_565
O24 S4 1.474839 1_555
O24 Sc5 2.221845 1_555
O25 Si8 1.618239 1_555
O25 Sc6 2.063760 1_555
O26 Si9 1.629117 1_555
O26 Sc5 1.950063 1_555
O27 S5 1.498487 1_555
O27 Sc6 2.150268 1_555
O28 Si10 1.646529 1_555
O28 Sc5 1.994162 1_555
O29 Si11 1.625363 1_555
O29 Sc6 1.984824 1_555
O30 Si12 1.628711 1_555
O30 Sc7 1.956811 1_555
O31 Si13 1.638353 1_555
O31 Sc8 1.950084 1_555
O32 S6 1.475470 1_555
O32 Sc7 2.212996 1_555
O33 S7 1.484319 1_555
O33 Sc8 2.209561 1_555
O34 S8 1.478129 1_555
O34 Sc7 2.242653 1_555
O35 Si14 1.637184 1_555
O35 Sc8 2.002455 1_555
O36 S8 1.486714 1_555
O36 Sc9 2.220434 1_554
O37 Si14 1.633197 1_555
O37 Sc10 1.989804 1_554
O38 Si12 1.639261 1_555
O38 Sc9 1.889404 1_554
O39 Si13 1.631591 1_555
O39 Sc10 1.963438 1_554
O40 S6 1.463604 1_555
O40 Sc9 2.281475 1_554
O41 S7 1.465878 1_555
O41 Sc10 2.286862 1_554
O42 Si9 1.615901 1_555
O42 Sc11 2.064157 1_555
O43 S5 1.473758 1_555
O43 Sc12 2.182797 1_555
O44 Si10 1.630938 1_555
O44 Sc11 1.958412 1_555
O45 Si11 1.640660 1_555
O45 Sc12 1.955650 1_555
O46 S4 1.488293 1_555
O46 Sc11 2.145866 1_555
O47 Si8 1.621942 1_555
O47 Sc12 1.981293 1_555
O48 Si15 1.625452 1_555
O48 Sc13 1.957381 1_556
O49 Si16 1.635710 1_555
O49 Sc14 2.031065 1_556
O50 S9 1.479260 1_555
O50 Sc13 2.155733 1_556
O51 S10 1.479133 1_555
O51 Sc14 2.161178 1_556
O52 S11 1.479294 1_555
O52 Sc13 2.118342 1_556
O53 S12 1.466603 1_555
O53 Sc14 2.219582 1_556
O54 S13 1.497994 1_555
O54 Sc15 2.162846 1_555
O55 S14 1.497530 1_555
O55 Sc16 2.165506 1_555
O56 S15 1.491795 1_555
O56 Sc15 2.166722 1_555
O57 S16 1.482369 1_555
O57 Sc16 2.107896 1_555
O58 S17 1.489933 1_555
O58 Sc15 2.191847 1_555
O59 Si17 1.640668 1_555
O59 Sc16 1.907506 1_555
O60 S17 1.489332 1_555
O60 Sc17 2.187063 1_555
O61 Si17 1.655526 1_555
O61 Sc18 1.941584 1_555
O62 S13 1.490269 1_555
O62 Sc17 2.223974 1_555
O63 S14 1.493708 1_555
O63 Sc18 2.236419 1_555
O64 S15 1.499029 1_555
O64 Sc17 2.208159 1_555
O65 S16 1.502005 1_555
O65 Sc18 2.118833 1_555
O66 S9 1.507274 1_555
O66 Sc19 2.146792 1_555
O67 S10 1.478529 1_555
O67 Sc20 2.183478 1_555
O68 S11 1.490752 1_555
O68 Sc19 2.160931 1_555
O69 S12 1.492343 1_555
O69 Sc20 2.235672 1_555
O70 Si15 1.678249 1_555
O70 Sc19 1.908913 1_555
O71 Si16 1.667049 1_555
O71 Sc20 1.927425 1_555
O72 S17 1.483086 1_555
O72 Sc0 2.304251 1_455
O73 Si17 1.654683 1_555
O73 Sc1 2.069741 1_555
O74 S13 1.496586 1_555
O74 Sc1 2.216498 1_555
O75 S14 1.489594 1_555
O75 Sc0 2.276404 1_555
O76 S15 1.475300 1_555
O76 Sc0 2.296969 1_445
O77 S16 1.477840 1_555
O77 Sc1 2.249169 1_545
O78 S9 1.499625 1_555
O78 Sc2 2.206127 1_445
O79 S10 1.503900 1_555
O79 Sc3 2.188191 1_545
O80 S11 1.493769 1_555
O80 Sc2 2.307116 1_455
O81 S12 1.515394 1_555
O81 Sc3 2.185667 1_555
O82 Si15 1.630995 1_555
O82 Sc3 2.010861 1_555
O83 Si16 1.637529 1_555
O83 Sc2 2.007864 1_555
O84 S4 1.504998 1_555
O84 Sc4 2.183183 1_555
O85 Si8 1.689366 1_555
O85 Ta0 1.937147 1_555
O86 Si9 1.677220 1_555
O86 Ta0 2.005791 1_455
O87 S5 1.479824 1_555
O87 Sc4 2.163119 1_555
O88 Si10 1.638180 1_555
O88 Sc4 2.071727 1_565
O89 Si11 1.707579 1_555
O89 Ta0 2.006102 1_565
O90 Si12 1.685414 1_555
O90 Ta2 1.932401 1_565
O91 Si13 1.713153 1_555
O91 Ta1 1.977871 1_655
O92 S6 1.535533 1_555
O92 Ta2 2.050883 1_555
O93 S7 1.530478 1_555
O93 Ta1 2.225214 1_645
O94 S8 1.516826 1_555
O94 Ta1 2.196308 1_545
O95 Si14 1.669960 1_555
O95 Ta2 1.935682 1_555
O96 S3 1.471086 1_555
O96 Sc5 2.286394 1_555
O97 Si7 1.628007 1_555
O97 Sc6 2.117000 1_555
O98 Si5 1.639706 1_555
O98 Sc5 2.041062 1_555
O99 Si6 1.662539 1_555
O99 Sc6 2.080061 1_555
O100 S2 1.485342 1_555
O100 Sc5 2.313916 1_555
O101 S1 1.494359 1_655
O101 Sc6 2.264074 1_555
O102 Si1 1.631348 1_555
O102 Sc7 2.046350 1_555
O103 Si2 1.636735 1_555
O103 Sc8 2.083118 1_555
O104 Si4 1.634859 1_555
O104 Sc7 2.055675 1_555
O105 Si3 1.633792 1_555
O105 Sc8 2.128589 1_555
O106 Si0 1.613763 1_555
O106 Sc7 2.118041 1_555
O107 S0 1.484510 1_555
O107 Sc8 2.369436 1_555
O108 Si15 1.667041 1_555
O108 Sc9 2.001417 1_555
O109 Si16 1.669168 1_555
O109 Sc10 2.016947 1_555
O110 S10 1.486116 1_555
O110 Sc9 2.174563 1_555
O111 S9 1.469900 1_655
O111 Sc10 2.307991 1_555
O112 S11 1.494488 1_545
O112 Sc9 2.370806 1_555
O113 S12 1.492590 1_545
O113 Sc10 2.361395 1_555
O114 S13 1.470176 1_545
O114 Sc11 2.292948 1_555
O115 S14 1.491130 1_545
O115 Sc12 2.281882 1_555
O116 S15 1.493803 1_555
O116 Sc11 2.261353 1_555
O117 S16 1.490348 1_555
O117 Sc12 2.245306 1_555
O118 Si17 1.659959 1_555
O118 Sc11 2.061080 1_555
O119 S17 1.499651 1_655
O119 Sc12 2.176566 1_555
O120 S8 1.481855 1_555
O120 Sc13 2.232081 1_555
O121 Si14 1.641649 1_555
O121 Sc14 2.032888 1_555
O122 Si13 1.619676 1_455
O122 Sc13 2.035089 1_555
O123 Si12 1.617502 1_555
O123 Sc14 2.024785 1_555
O124 S6 1.477268 1_565
O124 Sc13 2.192795 1_555
O125 S7 1.486617 1_565
O125 Sc14 2.247454 1_555
O126 Si9 1.641160 1_565
O126 Sc15 2.015922 1_555
O127 S5 1.495098 1_565
O127 Sc16 2.237785 1_555
O128 Si10 1.670678 1_555
O128 Sc15 2.013833 1_555
O129 Si11 1.631500 1_555
O129 Sc16 2.146309 1_555
O130 Si8 1.630229 1_455
O130 Sc15 2.033561 1_555
O131 S4 1.483990 1_555
O131 Sc16 2.187635 1_555
O132 Si0 1.637904 1_565
O132 Sc17 2.021570 1_555
O133 S0 1.493663 1_565
O133 Sc18 2.310849 1_555
O134 Si1 1.644985 1_555
O134 Sc17 2.029133 1_555
O135 Si2 1.633579 1_555
O135 Sc18 2.167912 1_555
O136 Si3 1.646763 1_455
O136 Sc17 2.029302 1_555
O137 Si4 1.651035 1_555
O137 Sc18 2.064634 1_555
O138 Si5 1.678669 1_555
O138 Sc19 2.103595 1_555
O139 Si6 1.641817 1_555
O139 Sc20 2.010551 1_555
O140 S1 1.483018 1_555
O140 Sc19 2.347923 1_555
O141 S2 1.480768 1_555
O141 Sc20 2.319215 1_555
O142 S3 1.511477 1_565
O142 Sc19 2.211355 1_555
O143 Si7 1.635601 1_565
O143 Sc20 2.116047 1_555
