# generated using pymatgen
data_MgFe4(HO2)4
_symmetry_space_group_name_H-M   'P 1'
_cell_length_a   10.33601953
_cell_length_b   3.06562918
_cell_length_c   5.64572284
_cell_angle_alpha   90.00000000
_cell_angle_beta   90.50303900
_cell_angle_gamma   90.00000000
_symmetry_Int_Tables_number   1
_chemical_formula_structural   MgFe4(HO2)4
_chemical_formula_sum   'Mg1 Fe4 H4 O8'
_cell_volume   178.88575465
_cell_formula_units_Z   1
loop_
 _symmetry_equiv_pos_site_id
 _symmetry_equiv_pos_as_xyz
  1  'x, y, z'
loop_
 _atom_site_type_symbol
 _atom_site_label
 _atom_site_symmetry_multiplicity
 _atom_site_fract_x
 _atom_site_fract_y
 _atom_site_fract_z
 _atom_site_occupancy
  Mg  Mg0  1  0.22432159  0.75000000  0.20290835  1
  Fe  Fe0  1  0.67513146  0.25000000  0.73481311  1
  Fe  Fe1  1  0.09019818  0.25000000  0.73794890  1
  Fe  Fe2  1  0.41854997  0.75000000  0.52687420  1
  Fe  Fe3  1  0.88883235  0.75000000  0.02271537  1
  H  H0  1  0.40483471  0.25000000  0.92188766  1
  H  H1  1  0.87135966  0.25000000  0.43195430  1
  H  H2  1  0.64740672  0.75000000  0.15631216  1
  H  H3  1  0.03113605  0.75000000  0.40385157  1
  O  O0  1  0.34751156  0.25000000  0.29821280  1
  O  O1  1  0.89569880  0.25000000  0.26346023  1
  O  O2  1  0.68649781  0.75000000  0.99837934  1
  O  O3  1  0.11455273  0.75000000  0.48892555  1
  O  O4  1  0.36989721  0.25000000  0.75908550  1
  O  O5  1  0.87706622  0.25000000  0.78346115  1
  O  O6  1  0.59575311  0.75000000  0.52821535  1
  O  O7  1  0.08625187  0.75000000  0.97710546  1
loop_
_geom_bond_atom_site_label_1
_geom_bond_atom_site_label_2
_geom_bond_distance
_geom_bond_site_symmetry_2
Mg0 O7 1.905207 1_554
Mg0 O3 1.981646 1_555
Mg0 O0 2.061135 1_565
Mg0 O0 2.061135 1_555
Fe0 O6 2.089579 1_545
Fe0 O6 2.089579 1_555
Fe0 O5 2.102803 1_555
Fe0 O2 2.138799 1_545
Fe0 O2 2.138799 1_555
Fe1 O7 2.043336 1_545
Fe1 O7 2.043336 1_555
Fe1 O3 2.096594 1_555
Fe1 O3 2.096594 1_545
Fe1 O5 2.220110 1_455
Fe2 O6 1.831524 1_555
Fe2 O4 2.081515 1_555
Fe2 O4 2.081515 1_565
Fe2 O0 2.130395 1_555
Fe2 O0 2.130395 1_565
Fe3 O5 2.045968 1_564
Fe3 O5 2.045968 1_554
Fe3 O1 2.049446 1_555
Fe3 O1 2.049446 1_565
Fe3 O7 2.058957 1_654
Fe3 O2 2.094638 1_554
H0 O4 0.984574 1_555
H1 O1 0.986106 1_555
H2 O2 0.982146 1_554
H3 O3 0.983262 1_555
