# generated using pymatgen
data_MgNbTlBr4O
_symmetry_space_group_name_H-M   'P 1'
_cell_length_a   3.99466024
_cell_length_b   7.85105809
_cell_length_c   8.11940413
_cell_angle_alpha   107.58922444
_cell_angle_beta   90.11724785
_cell_angle_gamma   104.33490506
_symmetry_Int_Tables_number   1
_chemical_formula_structural   MgNbTlBr4O
_chemical_formula_sum   'Mg1 Nb1 Tl1 Br4 O1'
_cell_volume   234.36450519
_cell_formula_units_Z   1
loop_
 _symmetry_equiv_pos_site_id
 _symmetry_equiv_pos_as_xyz
  1  'x, y, z'
loop_
 _atom_site_type_symbol
 _atom_site_label
 _atom_site_symmetry_multiplicity
 _atom_site_fract_x
 _atom_site_fract_y
 _atom_site_fract_z
 _atom_site_occupancy
  Mg  Mg0  1  0.26112500  0.52297300  0.84914700  1
  Nb  Nb0  1  0.49921500  0.99424600  0.48254600  1
  Tl  Tl0  1  0.00570600  0.01126500  0.06511600  1
  Br  Br0  1  0.64815700  0.29231800  0.80418300  1
  Br  Br1  1  0.36967100  0.75031900  0.68819700  1
  Br  Br2  1  0.34239000  0.69240100  0.17398900  1
  Br  Br3  1  0.62474000  0.26012800  0.33210400  1
  O  O0  1  0.99829600  0.99301600  0.48805300  1
loop_
_geom_bond_atom_site_label_1
_geom_bond_atom_site_label_2
_geom_bond_distance
_geom_bond_site_symmetry_2
Nb0 O0 1.996547 1_555
Nb0 O0 1.999289 1_455
Br0 Mg0 2.606149 1_555
Br0 Mg0 2.609466 1_655
Br0 Nb0 2.874187 1_545
Br1 Mg0 2.471944 1_555
Br1 Nb0 2.858130 1_555
Br2 Mg0 2.548249 1_554
Br2 Nb0 2.820484 1_555
Br3 Nb0 2.669499 1_545
Br3 Tl0 3.107636 1_555
Br3 Tl0 3.123900 1_655
