# generated using pymatgen
data_Na6Si5Sn4SO24
_symmetry_space_group_name_H-M   'P 1'
_cell_length_a   9.05200771
_cell_length_b   9.05112815
_cell_length_c   22.68085424
_cell_angle_alpha   90.11797824
_cell_angle_beta   89.49295310
_cell_angle_gamma   119.98828395
_symmetry_Int_Tables_number   1
_chemical_formula_structural   Na6Si5Sn4SO24
_chemical_formula_sum   'Na18 Si15 Sn12 S3 O72'
_cell_volume   1609.42337251
_cell_formula_units_Z   3
loop_
 _symmetry_equiv_pos_site_id
 _symmetry_equiv_pos_as_xyz
  1  'x, y, z'
loop_
 _atom_site_type_symbol
 _atom_site_label
 _atom_site_symmetry_multiplicity
 _atom_site_fract_x
 _atom_site_fract_y
 _atom_site_fract_z
 _atom_site_occupancy
  Na  Na0  1  0.63681032  0.00095452  0.25217550  1
  Na  Na1  1  0.36452516  0.36510773  0.24722893  1
  Na  Na2  1  0.00001762  0.63498586  0.25051734  1
  Na  Na3  1  0.63513987  0.63429892  0.74755117  1
  Na  Na4  1  0.99801947  0.36526856  0.75021764  1
  Na  Na5  1  0.36752067  0.00307433  0.75076432  1
  Na  Na6  1  0.30099684  0.33233249  0.58558078  1
  Na  Na7  1  0.03158014  0.70060478  0.58311507  1
  Na  Na8  1  0.66956884  0.96835082  0.58295512  1
  Na  Na9  1  0.03878253  0.33714647  0.08531007  1
  Na  Na10  1  0.97580004  0.66674673  0.91728004  1
  Na  Na11  1  0.33324459  0.02548407  0.41667211  1
  Na  Na12  1  0.98503875  0.99071769  0.49848592  1
  Na  Na13  1  0.01738262  0.00684208  0.00009412  1
  Na  Na14  1  0.66023532  0.31806610  0.83426224  1
  Na  Na15  1  0.68188880  0.33978725  0.33540250  1
  Na  Na16  1  0.33372431  0.66639938  0.16531354  1
  Na  Na17  1  0.33403604  0.66749157  0.66671901  1
  Si  Si0  1  0.29350955  0.00235203  0.25176698  1
  Si  Si1  1  0.70799945  0.71025286  0.24896826  1
  Si  Si2  1  0.99926113  0.28819988  0.24919167  1
  Si  Si3  1  0.29572183  0.29551790  0.74896520  1
  Si  Si4  1  0.99750594  0.70965647  0.75088933  1
  Si  Si5  1  0.70926989  0.99919934  0.75102208  1
  Si  Si6  1  0.96209492  0.33257621  0.58406247  1
  Si  Si7  1  0.37669656  0.04596044  0.58270117  1
  Si  Si8  1  0.66563959  0.62357004  0.58260293  1
  Si  Si9  1  0.95488754  0.62844819  0.08214462  1
  Si  Si10  1  0.37419216  0.33557432  0.08292132  1
  Si  Si11  1  0.03504158  0.36582489  0.91698713  1
  Si  Si12  1  0.33626390  0.96241441  0.91696823  1
  Si  Si13  1  0.63101583  0.96260331  0.41675954  1
  Si  Si14  1  0.03583395  0.66538743  0.41654105  1
  Sn  Sn0  1  0.98703972  0.98845591  0.35126102  1
  Sn  Sn1  1  0.01206720  0.01252235  0.85176458  1
  Sn  Sn2  1  0.99984407  0.00046227  0.64861382  1
  Sn  Sn3  1  0.00998164  0.99540331  0.14844355  1
  Sn  Sn4  1  0.66909756  0.33514661  0.68473926  1
  Sn  Sn5  1  0.66615172  0.34202323  0.18527082  1
  Sn  Sn6  1  0.66038642  0.32833624  0.98100822  1
  Sn  Sn7  1  0.68140404  0.33447664  0.48201453  1
  Sn  Sn8  1  0.31642397  0.65668176  0.01850750  1
  Sn  Sn9  1  0.33642936  0.67683217  0.51877984  1
  Sn  Sn10  1  0.33023010  0.67193971  0.31451860  1
  Sn  Sn11  1  0.32571751  0.67002787  0.81473276  1
  S  S0  1  0.66503158  0.03675424  0.08370934  1
  S  S1  1  0.62476305  0.66834169  0.91672268  1
  S  S2  1  0.33333991  0.37321206  0.41660022  1
  O  O0  1  0.21736332  0.04780227  0.31059364  1
  O  O1  1  0.83083601  0.78181564  0.30602495  1
  O  O2  1  0.95935005  0.16510845  0.30619937  1
  O  O3  1  0.21799337  0.16894979  0.80519844  1
  O  O4  1  0.95673944  0.78884830  0.80965974  1
  O  O5  1  0.83517078  0.03954268  0.80655945  1
  O  O6  1  0.78216101  0.95666824  0.69054232  1
  O  O7  1  0.17581758  0.22134270  0.69030193  1
  O  O8  1  0.04030470  0.82867145  0.69182465  1
  O  O9  1  0.78719069  0.83786759  0.19242372  1
  O  O10  1  0.03773379  0.21147176  0.18919849  1
  O  O11  1  0.16909615  0.95383120  0.19547599  1
  O  O12  1  0.88853054  0.37987183  0.64322407  1
  O  O13  1  0.49586357  0.12258804  0.64128897  1
  O  O14  1  0.62369642  0.50826429  0.64281903  1
  O  O15  1  0.87837453  0.50205944  0.14058427  1
  O  O16  1  0.63451188  0.11144331  0.13812999  1
  O  O17  1  0.48153039  0.36327047  0.14388738  1
  O  O18  1  0.46028394  0.29766221  0.02626215  1
  O  O19  1  0.84300745  0.53858480  0.02286386  1
  O  O20  1  0.69816404  0.14956602  0.03135520  1
  O  O21  1  0.45603499  0.16594576  0.52396729  1
  O  O22  1  0.70628025  0.53785572  0.52656392  1
  O  O23  1  0.83621888  0.28405594  0.52832091  1
  O  O24  1  0.54275265  0.69307346  0.96952280  1
  O  O25  1  0.15101528  0.44721369  0.97569439  1
  O  O26  1  0.30035616  0.83515111  0.97334249  1
  O  O27  1  0.54742970  0.84550968  0.47618532  1
  O  O28  1  0.30725687  0.45282526  0.47048367  1
  O  O29  1  0.15712538  0.70262203  0.47510697  1
  O  O30  1  0.11919543  0.63113106  0.35705732  1
  O  O31  1  0.50953397  0.87850587  0.35830065  1
  O  O32  1  0.35927304  0.47848932  0.36278622  1
  O  O33  1  0.11789445  0.48980809  0.85829959  1
  O  O34  1  0.37034679  0.88335688  0.85628727  1
  O  O35  1  0.52233069  0.64097345  0.86243245  1
  O  O36  1  0.03929313  0.84972137  0.41172096  1
  O  O37  1  0.82087388  0.98520845  0.41289357  1
  O  O38  1  0.18011261  0.20224844  0.41241480  1
  O  O39  1  0.01291340  0.17651444  0.91272776  1
  O  O40  1  0.15256070  0.96047466  0.91230972  1
  O  O41  1  0.79704691  0.81933151  0.91227274  1
  O  O42  1  0.98049615  0.16241380  0.58923473  1
  O  O43  1  0.18643770  0.02503582  0.58809672  1
  O  O44  1  0.83612786  0.81336936  0.58792569  1
  O  O45  1  0.96927329  0.81465517  0.08712614  1
  O  O46  1  0.82301281  0.02819024  0.08835223  1
  O  O47  1  0.17644577  0.17274990  0.08742298  1
  O  O48  1  0.68873410  0.16917549  0.74522222  1
  O  O49  1  0.48451309  0.31362000  0.74394164  1
  O  O50  1  0.82789139  0.51997648  0.74569970  1
  O  O51  1  0.68768346  0.51960869  0.24475825  1
  O  O52  1  0.82788449  0.30744925  0.24290994  1
  O  O53  1  0.48496096  0.16992563  0.24359957  1
  O  O54  1  0.64473423  0.51462647  0.92093892  1
  O  O55  1  0.85243186  0.36661217  0.92298335  1
  O  O56  1  0.50519636  0.15159510  0.92205656  1
  O  O57  1  0.62761500  0.14372966  0.42149182  1
  O  O58  1  0.48589112  0.35474218  0.42076754  1
  O  O59  1  0.84641345  0.49740887  0.42045695  1
  O  O60  1  0.35689804  0.50968026  0.07699154  1
  O  O61  1  0.14353970  0.63956056  0.07967659  1
  O  O62  1  0.51335360  0.86702277  0.07649387  1
  O  O63  1  0.35679864  0.85496136  0.57922115  1
  O  O64  1  0.49234081  0.63932461  0.57642627  1
  O  O65  1  0.15197753  0.50261250  0.57578666  1
  O  O66  1  0.31365478  0.83193599  0.25518099  1
  O  O67  1  0.51532164  0.68464411  0.25715723  1
  O  O68  1  0.17187633  0.47799281  0.25612933  1
  O  O69  1  0.31594882  0.48572073  0.75745611  1
  O  O70  1  0.16899551  0.69073035  0.75418382  1
  O  O71  1  0.52016708  0.82583587  0.75704493  1
loop_
_geom_bond_atom_site_label_1
_geom_bond_atom_site_label_2
_geom_bond_distance
_geom_bond_site_symmetry_2
Na0 O52 2.435361 1_555
Na0 O67 2.504100 1_545
Na0 O53 2.524600 1_555
Na0 O66 2.534812 1_545
Na0 O31 2.652328 1_545
Na0 O16 2.779153 1_555
Na0 O9 2.799340 1_545
Na0 O2 2.820035 1_555
Na1 O68 2.428950 1_555
Na1 O53 2.497858 1_555
Na1 O67 2.516922 1_555
Na1 O51 2.534535 1_555
Na1 O17 2.566962 1_555
Na1 O32 2.821386 1_555
Na1 O0 2.871737 1_555
Na1 O10 2.892375 1_555
Na2 O51 2.481028 1_455
Na2 O66 2.488874 1_555
Na2 O52 2.575140 1_455
Na2 O68 2.582528 1_555
Na2 O30 2.662369 1_555
Na2 O15 2.754783 1_455
Na2 O1 2.773075 1_455
Na2 O11 2.791965 1_555
Na3 O50 2.433115 1_555
Na3 O71 2.435786 1_555
Na3 O69 2.512509 1_555
Na3 O49 2.516985 1_555
Na3 O14 2.613373 1_555
Na3 O35 2.801697 1_555
Na3 O6 2.839001 1_555
Na3 O4 2.899908 1_555
Na4 O48 2.457352 1_555
Na4 O69 2.523692 1_655
Na4 O50 2.549891 1_555
Na4 O70 2.554400 1_655
Na4 O12 2.657721 1_555
Na4 O33 2.696365 1_655
Na4 O5 2.852288 1_555
Na4 O7 2.860740 1_655
Na5 O49 2.463588 1_555
Na5 O70 2.479428 1_545
Na5 O48 2.520880 1_555
Na5 O71 2.592931 1_545
Na5 O34 2.634843 1_545
Na5 O13 2.718241 1_555
Na5 O3 2.757638 1_555
Na5 O8 2.905085 1_545
Na6 O43 2.435375 1_555
Na6 O64 2.439029 1_555
Na6 O42 2.514948 1_455
Na6 O65 2.515809 1_555
Na6 O7 2.599778 1_555
Na6 O28 2.820399 1_555
Na6 O14 2.857012 1_555
Na6 O21 2.873985 1_555
Na7 O44 2.446440 1_455
Na7 O65 2.524827 1_555
Na7 O43 2.547000 1_565
Na7 O63 2.551585 1_555
Na7 O29 2.687582 1_555
Na7 O8 2.707275 1_555
Na7 O12 2.861835 1_455
Na7 O22 2.865103 1_455
Na8 O42 2.468034 1_565
Na8 O63 2.485036 1_555
Na8 O44 2.524166 1_555
Na8 O64 2.586680 1_555
Na8 O27 2.670268 1_555
Na8 O6 2.675287 1_555
Na8 O23 2.765648 1_565
Na8 O13 2.884722 1_565
Na9 O47 2.371519 1_555
Na9 O61 2.410886 1_555
Na9 O46 2.485553 1_455
Na9 O60 2.502525 1_555
Na9 O10 2.616464 1_555
Na9 O25 2.675710 1_554
Na9 O15 2.834551 1_455
Na9 O20 2.951607 1_455
Na10 O40 2.320896 1_655
Na10 O55 2.368502 1_555
Na10 O54 2.599008 1_555
Na10 O41 2.603109 1_555
Na10 O19 2.663056 1_556
Na10 O4 2.723676 1_555
Na10 O33 2.833480 1_655
Na10 O26 2.855342 1_655
Na11 O36 2.323054 1_545
Na11 O57 2.326275 1_555
Na11 O58 2.585335 1_555
Na11 O38 2.590448 1_555
Na11 O0 2.681083 1_555
Na11 O21 2.719636 1_555
Na11 O31 2.854203 1_545
Na11 O29 2.856432 1_545
Na12 O37 2.440493 1_555
Na12 O44 2.512127 1_555
Na12 O36 2.518240 1_655
Na12 O42 2.588897 1_565
Na12 O43 2.654770 1_665
Na12 O38 2.677587 1_665
Na13 O40 2.470704 1_544
Na13 O47 2.475500 1_555
Na13 O45 2.520659 1_445
Na13 O39 2.522432 1_554
Na13 O46 2.723225 1_455
Na13 O41 2.738338 1_444
Na14 O56 2.460487 1_555
Na14 O48 2.507617 1_555
Na14 O55 2.561880 1_555
Na14 O49 2.592614 1_555
Na14 O50 2.620388 1_555
Na14 O54 2.698127 1_555
Na15 O59 2.427000 1_555
Na15 O57 2.515695 1_555
Na15 O52 2.562823 1_555
Na15 O51 2.608639 1_555
Na15 O58 2.663247 1_555
Na15 O53 2.681349 1_555
Na16 O60 2.519384 1_555
Na16 O61 2.536640 1_555
Na16 O66 2.585614 1_555
Na16 O68 2.600132 1_555
Na16 O67 2.618497 1_555
Na16 O62 2.646702 1_555
Na17 O70 2.543903 1_555
Na17 O63 2.552862 1_555
Na17 O64 2.573613 1_555
Na17 O69 2.589912 1_555
Na17 O71 2.593254 1_555
Na17 O65 2.604907 1_555
O0 Si0 1.639951 1_555
O0 Sn0 2.081963 1_445
O1 Si1 1.622542 1_555
O1 Sn0 1.980961 1_555
O2 Si2 1.624465 1_555
O2 Sn0 2.018852 1_545
O3 Si3 1.618176 1_555
O3 Sn1 1.981869 1_555
O4 Si4 1.636613 1_555
O4 Sn1 2.061152 1_665
O5 Si5 1.620600 1_545
O5 Sn1 2.024020 1_655
O6 Si5 1.643443 1_555
O6 Sn2 2.032688 1_565
O7 Si3 1.640897 1_555
O7 Sn2 2.064867 1_455
O8 Si4 1.638504 1_455
O8 Sn2 2.023433 1_465
O9 Si1 1.629386 1_555
O9 Sn3 2.047180 1_655
O10 Si2 1.638464 1_455
O10 Sn3 2.060998 1_545
O11 Si0 1.618622 1_565
O11 Sn3 1.981059 1_555
O12 Si6 1.641336 1_555
O12 Sn4 2.039749 1_555
O13 Si7 1.638318 1_555
O13 Sn4 2.033536 1_555
O14 Si8 1.642930 1_555
O14 Sn4 2.045698 1_555
O15 Si9 1.656248 1_555
O15 Sn5 2.001436 1_555
O16 S0 1.494678 1_555
O16 Sn5 2.231484 1_555
O17 Si10 1.642498 1_555
O17 Sn5 2.015105 1_555
O18 Si10 1.619960 1_555
O18 Sn6 1.969022 1_554
O19 Si9 1.640472 1_555
O19 Sn6 2.032465 1_554
O20 S0 1.495028 1_555
O20 Sn6 2.146324 1_554
O21 Si7 1.636802 1_555
O21 Sn7 2.062730 1_555
O22 Si8 1.620389 1_555
O22 Sn7 2.010531 1_555
O23 Si6 1.616331 1_555
O23 Sn7 1.985586 1_555
O24 S1 1.478045 1_555
O24 Sn8 2.196993 1_556
O25 Si11 1.632588 1_555
O25 Sn8 1.989903 1_556
O26 Si12 1.640661 1_555
O26 Sn8 1.980954 1_556
O27 Si13 1.642736 1_555
O27 Sn9 1.992648 1_555
O28 S2 1.493291 1_555
O28 Sn9 2.200274 1_555
O29 Si14 1.654557 1_555
O29 Sn9 2.019436 1_555
O30 Si14 1.643127 1_555
O30 Sn10 1.994994 1_555
O31 Si13 1.652740 1_555
O31 Sn10 2.025687 1_555
O32 S2 1.492961 1_555
O32 Sn10 2.192383 1_555
O33 Si11 1.655513 1_555
O33 Sn11 2.020487 1_555
O34 Si12 1.646364 1_555
O34 Sn11 1.999807 1_555
O35 S1 1.492201 1_555
O35 Sn11 2.215897 1_555
O36 Si14 1.656822 1_555
O36 Sn0 2.072014 1_455
O37 Si13 1.627583 1_555
O37 Sn0 2.033743 1_555
O38 S2 1.477671 1_555
O38 Sn0 2.318164 1_445
O39 Si11 1.625426 1_555
O39 Sn1 2.023726 1_555
O40 Si12 1.658484 1_555
O40 Sn1 2.087453 1_565
O41 S1 1.475536 1_555
O41 Sn1 2.299945 1_665
O42 Si6 1.634364 1_555
O42 Sn2 2.064484 1_555
O43 Si7 1.639271 1_555
O43 Sn2 2.090695 1_455
O44 Si8 1.643052 1_555
O44 Sn2 2.115725 1_565
O45 Si9 1.627981 1_555
O45 Sn3 2.035535 1_655
O46 S0 1.475005 1_555
O46 Sn3 2.313990 1_645
O47 Si10 1.657338 1_555
O47 Sn3 2.077732 1_545
O48 Si5 1.644968 1_545
O48 Sn4 2.109468 1_555
O49 Si3 1.636164 1_555
O49 Sn4 2.066077 1_555
O50 Si4 1.638903 1_555
O50 Sn4 2.097214 1_555
O51 Si1 1.644037 1_555
O51 Sn5 2.030892 1_555
O52 Si2 1.652693 1_555
O52 Sn5 2.108037 1_555
O53 Si0 1.645000 1_555
O53 Sn5 2.069489 1_555
O54 S1 1.493256 1_555
O54 Sn6 2.229578 1_555
O55 Si11 1.660932 1_655
O55 Sn6 2.057520 1_555
O56 Si12 1.633554 1_545
O56 Sn6 2.024409 1_555
O57 Si13 1.658240 1_545
O57 Sn7 2.064912 1_555
O58 S2 1.475430 1_555
O58 Sn7 2.337637 1_555
O59 Si14 1.628289 1_655
O59 Sn7 2.030951 1_555
O60 Si10 1.665463 1_555
O60 Sn8 2.041377 1_555
O61 Si9 1.660138 1_455
O61 Sn8 2.029261 1_555
O62 S0 1.471870 1_565
O62 Sn8 2.273884 1_555
O63 Si7 1.647937 1_565
O63 Sn9 2.052041 1_555
O64 Si8 1.651778 1_555
O64 Sn9 2.080857 1_555
O65 Si6 1.645987 1_455
O65 Sn9 2.069865 1_555
O66 Si0 1.643271 1_565
O66 Sn10 2.039533 1_555
O67 Si1 1.649394 1_555
O67 Sn10 2.069400 1_555
O68 Si2 1.654456 1_455
O68 Sn10 2.097310 1_555
O69 Si3 1.648790 1_555
O69 Sn11 2.079408 1_555
O70 Si4 1.646988 1_455
O70 Sn11 2.057889 1_555
O71 Si5 1.650055 1_555
O71 Sn11 2.069865 1_555
