# generated using pymatgen
data_MnBiO3
_symmetry_space_group_name_H-M   'P 1'
_cell_length_a   5.62901617
_cell_length_b   5.62945159
_cell_length_c   9.85565012
_cell_angle_alpha   91.89493016
_cell_angle_beta   105.05685774
_cell_angle_gamma   119.16396708
_symmetry_Int_Tables_number   1
_chemical_formula_structural   MnBiO3
_chemical_formula_sum   'Mn4 Bi4 O12'
_cell_volume   258.59046579
_cell_formula_units_Z   4
loop_
 _symmetry_equiv_pos_site_id
 _symmetry_equiv_pos_as_xyz
  1  'x, y, z'
loop_
 _atom_site_type_symbol
 _atom_site_label
 _atom_site_symmetry_multiplicity
 _atom_site_fract_x
 _atom_site_fract_y
 _atom_site_fract_z
 _atom_site_occupancy
  Mn  Mn0  1  0.78684000  0.78679600  0.00003700  1
  Mn  Mn1  1  0.71270200  0.21274200  0.49996100  1
  Mn  Mn2  1  0.24940300  0.50032100  0.25002500  1
  Mn  Mn3  1  0.25029900  0.99937400  0.74998500  1
  Bi  Bi0  1  0.54638600  0.64561200  0.62646400  1
  Bi  Bi1  1  0.01913700  0.91988000  0.37352600  1
  Bi  Bi2  1  0.95512200  0.35500200  0.87366800  1
  Bi  Bi3  1  0.48129500  0.08141600  0.12633400  1
  O  O0  1  0.09206900  0.73010200  0.17123000  1
  O  O1  1  0.55882500  0.92086900  0.82878400  1
  O  O2  1  0.40759000  0.27165600  0.32930700  1
  O  O3  1  0.94241600  0.07828300  0.67068300  1
  O  O4  1  0.95669900  0.28676400  0.37773900  1
  O  O5  1  0.90908100  0.57907000  0.62229500  1
  O  O6  1  0.54028700  0.71286700  0.12098500  1
  O  O7  1  0.59183700  0.41919200  0.87897600  1
  O  O8  1  0.39162500  0.10525400  0.58437000  1
  O  O9  1  0.52074300  0.80709800  0.41559200  1
  O  O10  1  0.10818700  0.89317100  0.91555200  1
  O  O11  1  0.97775900  0.19283000  0.08448700  1
loop_
_geom_bond_atom_site_label_1
_geom_bond_atom_site_label_2
_geom_bond_distance
_geom_bond_site_symmetry_2
Mn0 O6 1.962052 1_555
Mn0 O7 1.962979 1_554
Mn0 O10 2.020818 1_654
Mn0 O11 2.021800 1_565
Mn0 O0 2.228114 1_655
Mn0 O1 2.229038 1_554
Mn1 O4 1.961126 1_555
Mn1 O5 1.962074 1_555
Mn1 O8 2.018245 1_555
Mn1 O9 2.019000 1_545
Mn1 O2 2.231541 1_555
Mn1 O3 2.232439 1_555
Mn2 O2 1.970438 1_555
Mn2 O0 1.971371 1_555
Mn2 O9 1.981402 1_555
Mn2 O11 1.983344 1_455
Mn2 O4 2.234141 1_455
Mn2 O6 2.236787 1_555
Mn3 O3 1.970095 1_465
Mn3 O1 1.970926 1_555
Mn3 O8 1.982220 1_565
Mn3 O10 1.984093 1_555
Mn3 O5 2.233659 1_455
Mn3 O7 2.236261 1_565
Bi0 O5 2.257906 1_555
Bi0 O3 2.285868 1_565
Bi0 O9 2.294229 1_555
Bi0 O1 2.449365 1_555
Bi0 O8 2.707460 1_555
Bi0 O7 2.842604 1_555
Bi1 O4 2.258392 1_465
Bi1 O2 2.285764 1_565
Bi1 O8 2.294290 1_565
Bi1 O0 2.448843 1_555
Bi1 O9 2.707647 1_455
Bi1 O6 2.842452 1_455
Bi2 O7 2.256016 1_555
Bi2 O1 2.290659 1_545
Bi2 O11 2.295222 1_556
Bi2 O3 2.458648 1_555
Bi2 O10 2.698083 1_655
Bi2 O5 2.826246 1_555
Bi3 O6 2.256296 1_545
Bi3 O0 2.290385 1_545
Bi3 O10 2.295203 1_544
Bi3 O2 2.458323 1_555
Bi3 O11 2.698320 1_555
Bi3 O4 2.826216 1_555
