# generated using pymatgen
data_Na3ZrSi2GePO12
_symmetry_space_group_name_H-M   'P 1'
_cell_length_a   8.90699696
_cell_length_b   8.93839294
_cell_length_c   22.21723535
_cell_angle_alpha   90.12733646
_cell_angle_beta   89.98337394
_cell_angle_gamma   119.92817696
_symmetry_Int_Tables_number   1
_chemical_formula_structural   Na3ZrSi2GePO12
_chemical_formula_sum   'Na18 Zr6 Si12 Ge6 P6 O72'
_cell_volume   1532.93587310
_cell_formula_units_Z   6
loop_
 _symmetry_equiv_pos_site_id
 _symmetry_equiv_pos_as_xyz
  1  'x, y, z'
loop_
 _atom_site_type_symbol
 _atom_site_label
 _atom_site_symmetry_multiplicity
 _atom_site_fract_x
 _atom_site_fract_y
 _atom_site_fract_z
 _atom_site_occupancy
  Na  Na0  1  0.99754005  0.98674871  0.50001764  1
  Na  Na1  1  0.00635871  0.00147344  0.99811021  1
  Na  Na2  1  0.66473787  0.32349049  0.84050839  1
  Na  Na3  1  0.66700007  0.33172641  0.32545490  1
  Na  Na4  1  0.33141136  0.66099070  0.16401719  1
  Na  Na5  1  0.35110036  0.66860140  0.67473264  1
  Na  Na6  1  0.64531682  0.00050995  0.24704449  1
  Na  Na7  1  0.99760016  0.64406271  0.25192400  1
  Na  Na8  1  0.99574645  0.35880157  0.75723211  1
  Na  Na9  1  0.37307377  0.00398890  0.76155342  1
  Na  Na10  1  0.30968385  0.33611793  0.58655658  1
  Na  Na11  1  0.66097817  0.96484860  0.58913272  1
  Na  Na12  1  0.66696107  0.70767767  0.07927782  1
  Na  Na13  1  0.04107933  0.33379608  0.08271043  1
  Na  Na14  1  0.96079208  0.66363024  0.91871581  1
  Na  Na15  1  0.33544049  0.29705467  0.92143110  1
  Na  Na16  1  0.32937173  0.03068141  0.41571120  1
  Na  Na17  1  0.70563798  0.67072355  0.41722633  1
  Zr  Zr0  1  0.99377272  0.00195507  0.34669188  1
  Zr  Zr1  1  0.99459236  0.99309147  0.65262345  1
  Zr  Zr2  1  0.00670782  0.00243064  0.14279342  1
  Zr  Zr3  1  0.66161650  0.33779361  0.69386453  1
  Zr  Zr4  1  0.67714936  0.33576228  0.47578674  1
  Zr  Zr5  1  0.32853523  0.67086421  0.52122194  1
  Si  Si0  1  0.68962765  0.69125311  0.24515427  1
  Si  Si1  1  0.00096713  0.30722657  0.24164328  1
  Si  Si2  1  0.28701604  0.29900626  0.76045517  1
  Si  Si3  1  0.70325046  0.98493580  0.75863634  1
  Si  Si4  1  0.37026693  0.04100402  0.58464414  1
  Si  Si5  1  0.67417109  0.63037872  0.58012391  1
  Si  Si6  1  0.95421954  0.61293179  0.07722314  1
  Si  Si7  1  0.38981274  0.33962110  0.07618740  1
  Si  Si8  1  0.04124852  0.37512333  0.91875376  1
  Si  Si9  1  0.33531452  0.95231314  0.91920458  1
  Si  Si10  1  0.61675766  0.95206905  0.41098574  1
  Si  Si11  1  0.04385230  0.66377873  0.40712221  1
  Ge  Ge0  1  0.00585740  0.00929543  0.85913385  1
  Ge  Ge1  1  0.67323506  0.34559274  0.18020842  1
  Ge  Ge2  1  0.66440766  0.32016316  0.97945657  1
  Ge  Ge3  1  0.32190042  0.65782241  0.01865859  1
  Ge  Ge4  1  0.32900380  0.65833314  0.30929842  1
  Ge  Ge5  1  0.33552801  0.67116852  0.82022683  1
  P  P0  1  0.30896807  0.00775318  0.24834963  1
  P  P1  1  0.00714910  0.71301854  0.76303573  1
  P  P2  1  0.95999352  0.33433269  0.59007268  1
  P  P3  1  0.65272064  0.04326508  0.08119801  1
  P  P4  1  0.62288289  0.67419415  0.91915380  1
  P  P5  1  0.32982491  0.37900401  0.41338180  1
  O  O0  1  0.23386071  0.02963561  0.30818637  1
  O  O1  1  0.81954660  0.77856578  0.30342319  1
  O  O2  1  0.96146861  0.17032313  0.29636630  1
  O  O3  1  0.20423999  0.16353776  0.81735539  1
  O  O4  1  0.98570054  0.79482925  0.82123011  1
  O  O5  1  0.84724219  0.02123083  0.81071285  1
  O  O6  1  0.77617344  0.96510370  0.69284970  1
  O  O7  1  0.17186164  0.21486458  0.69906466  1
  O  O8  1  0.02599830  0.82672201  0.70800481  1
  O  O9  1  0.78186503  0.82289542  0.18820521  1
  O  O10  1  0.02944532  0.22313605  0.18080813  1
  O  O11  1  0.17746630  0.97758900  0.19744935  1
  O  O12  1  0.88031048  0.34484034  0.65000919  1
  O  O13  1  0.48551764  0.13466075  0.64505359  1
  O  O14  1  0.66643867  0.51104529  0.63674080  1
  O  O15  1  0.87345037  0.49521255  0.13834611  1
  O  O16  1  0.63571055  0.12747861  0.13989831  1
  O  O17  1  0.51832445  0.37079643  0.13310413  1
  O  O18  1  0.47223550  0.31249344  0.01414225  1
  O  O19  1  0.82862834  0.52267033  0.01850064  1
  O  O20  1  0.69042039  0.16260482  0.02635483  1
  O  O21  1  0.46656310  0.14865961  0.52332198  1
  O  O22  1  0.68460750  0.54578919  0.51609115  1
  O  O23  1  0.84878825  0.32549281  0.53525958  1
  O  O24  1  0.54496425  0.69859435  0.97883678  1
  O  O25  1  0.17079156  0.45382540  0.97787169  1
  O  O26  1  0.29267735  0.81348765  0.97370262  1
  O  O27  1  0.53713639  0.84864977  0.47441948  1
  O  O28  1  0.31681194  0.45441383  0.47429424  1
  O  O29  1  0.15493191  0.67693514  0.46688956  1
  O  O30  1  0.13996301  0.65560055  0.34546376  1
  O  O31  1  0.49713960  0.85017738  0.35214021  1
  O  O32  1  0.34634102  0.49471287  0.35945554  1
  O  O33  1  0.12819543  0.50953826  0.86180556  1
  O  O34  1  0.36103129  0.87120519  0.85650610  1
  O  O35  1  0.49655784  0.64193115  0.86648748  1
  O  O36  1  0.02980641  0.84021592  0.40927520  1
  O  O37  1  0.80743253  0.96822325  0.40823276  1
  O  O38  1  0.17280165  0.19556954  0.40865079  1
  O  O39  1  0.02784072  0.18462114  0.91238637  1
  O  O40  1  0.15841091  0.97504922  0.91658517  1
  O  O41  1  0.80850812  0.83457984  0.91405890  1
  O  O42  1  0.96758487  0.16543802  0.58720329  1
  O  O43  1  0.18714810  0.03820099  0.58772129  1
  O  O44  1  0.83646971  0.82549575  0.58468683  1
  O  O45  1  0.96750937  0.80175092  0.08288355  1
  O  O46  1  0.81693163  0.02198003  0.08333174  1
  O  O47  1  0.19306588  0.17455297  0.08147493  1
  O  O48  1  0.68602280  0.16104372  0.75662658  1
  O  O49  1  0.47930086  0.31983882  0.75489048  1
  O  O50  1  0.85188296  0.52839340  0.75747874  1
  O  O51  1  0.68470392  0.50723550  0.23706443  1
  O  O52  1  0.81975062  0.31597087  0.23752099  1
  O  O53  1  0.48781176  0.16829411  0.23822572  1
  O  O54  1  0.64207232  0.50945084  0.91846708  1
  O  O55  1  0.84722262  0.35652367  0.92503897  1
  O  O56  1  0.50634745  0.14916948  0.92427033  1
  O  O57  1  0.62939604  0.14013985  0.41194606  1
  O  O58  1  0.49561175  0.36261943  0.41224844  1
  O  O59  1  0.84835145  0.49837157  0.40917920  1
  O  O60  1  0.37208499  0.51870987  0.07486987  1
  O  O61  1  0.14651429  0.62707396  0.07379615  1
  O  O62  1  0.49177876  0.86071330  0.07575990  1
  O  O63  1  0.35414112  0.85149980  0.58485986  1
  O  O64  1  0.49391014  0.63713435  0.58387719  1
  O  O65  1  0.14495682  0.48790497  0.58606329  1
  O  O66  1  0.32571127  0.84268063  0.24784697  1
  O  O67  1  0.50171784  0.68009863  0.25418259  1
  O  O68  1  0.16856374  0.50012840  0.25164049  1
  O  O69  1  0.29245125  0.48431851  0.76753593  1
  O  O70  1  0.17567045  0.70126663  0.76106048  1
  O  O71  1  0.50792900  0.81608692  0.76406057  1
loop_
_geom_bond_atom_site_label_1
_geom_bond_atom_site_label_2
_geom_bond_distance
_geom_bond_site_symmetry_2
Na0 O44 2.370958 1_555
Na0 O43 2.466451 1_665
Na0 O36 2.495208 1_655
Na0 O37 2.602638 1_555
Na0 O42 2.604891 1_565
Na0 O38 2.673753 1_665
Na1 O40 2.342331 1_545
Na1 O47 2.451781 1_556
Na1 O39 2.458643 1_555
Na1 O41 2.486846 1_445
Na1 O45 2.500430 1_446
Na1 O46 2.602006 1_456
Na2 O56 2.387307 1_555
Na2 O55 2.403440 1_555
Na2 O48 2.424834 1_555
Na2 O54 2.474949 1_555
Na2 O49 2.509029 1_555
Na2 O50 2.550053 1_555
Na3 O52 2.424065 1_555
Na3 O59 2.424164 1_555
Na3 O53 2.469794 1_555
Na3 O51 2.471650 1_555
Na3 O57 2.485801 1_555
Na3 O58 2.557646 1_555
Na4 O68 2.427117 1_555
Na4 O67 2.466750 1_555
Na4 O60 2.473772 1_555
Na4 O66 2.485470 1_555
Na4 O61 2.514560 1_555
Na4 O62 2.557658 1_555
Na5 O71 2.404235 1_555
Na5 O64 2.474805 1_555
Na5 O69 2.528469 1_555
Na5 O63 2.574989 1_555
Na5 O70 2.580005 1_555
Na5 O65 2.624817 1_555
Na6 O52 2.457747 1_555
Na6 O66 2.467219 1_545
Na6 O67 2.492009 1_545
Na6 O53 2.521214 1_555
Na6 O16 2.659149 1_555
Na6 O2 2.676519 1_555
Na6 O31 2.691094 1_545
Na6 O9 2.761357 1_545
Na7 O30 2.409877 1_655
Na7 O68 2.434928 1_655
Na7 O51 2.443272 1_555
Na7 O66 2.554285 1_655
Na7 O52 2.563719 1_555
Na7 O1 2.676754 1_555
Na7 O15 2.806974 1_555
Na7 O11 2.857988 1_655
Na8 O69 2.309963 1_655
Na8 O48 2.422664 1_555
Na8 O50 2.424470 1_555
Na8 O12 2.572873 1_555
Na8 O33 2.646997 1_655
Na8 O70 2.655126 1_655
Na8 O7 2.791282 1_655
Na8 O5 2.880682 1_555
Na9 O70 2.380306 1_545
Na9 O34 2.398853 1_545
Na9 O48 2.418355 1_555
Na9 O49 2.494779 1_555
Na9 O71 2.506033 1_545
Na9 O13 2.812702 1_555
Na9 O3 2.821918 1_555
Na9 O8 2.930675 1_545
Na10 O43 2.320163 1_555
Na10 O64 2.351739 1_555
Na10 O65 2.445397 1_555
Na10 O42 2.640810 1_455
Na10 O28 2.699545 1_555
Na10 O7 2.759054 1_555
Na11 O63 2.396154 1_555
Na11 O42 2.406039 1_565
Na11 O44 2.438578 1_555
Na11 O6 2.522222 1_555
Na11 O64 2.541173 1_555
Na11 O27 2.763620 1_555
Na12 O60 2.309462 1_555
Na12 O45 2.373487 1_555
Na12 O46 2.437073 1_565
Na12 O24 2.465686 1_554
Na12 O62 2.538154 1_555
Na12 O9 2.627436 1_555
Na12 O17 2.878759 1_555
Na12 O19 2.999409 1_555
Na13 O61 2.310583 1_555
Na13 O10 2.376199 1_555
Na13 O47 2.404555 1_555
Na13 O46 2.490387 1_455
Na13 O60 2.567693 1_555
Na13 O25 2.585319 1_554
Na13 O15 2.824774 1_455
Na13 O20 2.981465 1_455
Na14 O55 2.410211 1_555
Na14 O4 2.422153 1_555
Na14 O40 2.441392 1_655
Na14 O54 2.460579 1_555
Na14 O41 2.500841 1_555
Na14 O19 2.533576 1_556
Na14 O33 2.785568 1_655
Na14 O26 2.840592 1_655
Na15 O18 2.361939 1_556
Na15 O39 2.410143 1_555
Na15 O54 2.427857 1_555
Na15 O56 2.465128 1_555
Na15 O40 2.500441 1_545
Na15 O3 2.595034 1_555
Na15 O25 2.779992 1_555
Na15 O35 2.941719 1_555
Na16 O57 2.344540 1_555
Na16 O36 2.346211 1_545
Na16 O38 2.488709 1_555
Na16 O0 2.534525 1_555
Na16 O58 2.572683 1_555
Na16 O21 2.650644 1_555
Na17 O37 2.351521 1_555
Na17 O22 2.430781 1_555
Na17 O58 2.440114 1_555
Na17 O59 2.444122 1_555
Na17 O36 2.509851 1_655
Na17 O1 2.717497 1_555
Ge0 O5 1.821108 1_455
Ge0 O3 1.859702 1_555
Ge0 O39 1.892016 1_555
Ge0 O40 1.996752 1_545
Ge0 O4 2.016360 1_445
Ge0 O41 2.070226 1_445
Ge1 O17 1.833531 1_555
Ge1 O15 1.859726 1_555
Ge1 O51 1.881032 1_555
Ge1 O52 1.934365 1_555
Ge1 O16 2.014172 1_555
Ge1 O53 2.072875 1_555
Ge2 O18 1.846828 1_556
Ge2 O20 1.858751 1_556
Ge2 O19 1.876244 1_556
Ge2 O56 1.914922 1_555
Ge2 O55 1.921284 1_555
Ge2 O54 2.254879 1_555
Ge3 O26 1.835495 1_554
Ge3 O25 1.871362 1_554
Ge3 O61 1.894333 1_555
Ge3 O60 1.966579 1_555
Ge3 O24 2.034936 1_554
Ge3 O62 2.107266 1_555
Ge4 O30 1.854615 1_555
Ge4 O31 1.876253 1_555
Ge4 O67 1.898735 1_555
Ge4 O32 1.907154 1_555
Ge4 O68 1.912951 1_555
Ge4 O66 2.153658 1_555
Ge5 O34 1.867262 1_555
Ge5 O35 1.886239 1_555
Ge5 O71 1.901144 1_555
Ge5 O69 1.912889 1_555
Ge5 O33 1.921887 1_555
Ge5 O70 2.052451 1_555
O0 P0 1.543375 1_555
O0 Zr0 2.199552 1_455
O1 Si0 1.649035 1_555
O1 Zr0 2.054199 1_565
O2 Si1 1.635894 1_655
O2 Zr0 2.009357 1_555
O3 Si2 1.650260 1_555
O4 P1 1.542051 1_655
O5 Si3 1.634870 1_545
O6 Si3 1.644007 1_555
O6 Zr1 2.039723 1_555
O7 Si2 1.644531 1_555
O7 Zr1 2.087072 1_445
O8 P1 1.546314 1_555
O8 Zr1 2.055965 1_455
O9 Si0 1.643710 1_555
O9 Zr2 2.098351 1_665
O10 Si1 1.625304 1_555
O10 Zr2 2.059154 1_555
O11 P0 1.551694 1_565
O11 Zr2 2.043616 1_565
O12 P2 1.533355 1_555
O12 Zr3 2.150442 1_555
O13 Si4 1.641407 1_555
O13 Zr3 2.020755 1_555
O14 Si5 1.630133 1_555
O14 Zr3 1.988218 1_555
O15 Si6 1.649027 1_555
O16 P3 1.549100 1_555
O17 Si7 1.633378 1_555
O18 Si7 1.635082 1_555
O19 Si6 1.643169 1_555
O20 P3 1.543826 1_555
O21 Si4 1.642979 1_555
O21 Zr4 2.075354 1_555
O22 Si5 1.633852 1_555
O22 Zr4 2.049058 1_555
O23 P2 1.546786 1_555
O23 Zr4 2.057485 1_555
O24 P4 1.560993 1_555
O25 Si8 1.654744 1_555
O26 Si9 1.638967 1_555
O27 Si10 1.641559 1_555
O27 Zr5 2.029474 1_555
O28 P5 1.540460 1_555
O28 Zr5 2.151877 1_555
O29 Si11 1.624780 1_555
O29 Zr5 1.983978 1_555
O30 Si11 1.635869 1_555
O31 Si10 1.643518 1_555
O32 P5 1.542832 1_555
O33 Si8 1.649792 1_555
O34 Si9 1.636917 1_555
O35 P4 1.547195 1_555
O36 Si11 1.643657 1_555
O36 Zr0 2.144411 1_465
O37 Si10 1.632248 1_555
O37 Zr0 2.053343 1_565
O38 P5 1.538375 1_555
O38 Zr0 2.160952 1_455
O39 Si8 1.652203 1_555
O40 Si9 1.687329 1_555
O41 P4 1.561128 1_555
O42 P2 1.545670 1_555
O42 Zr1 2.218889 1_545
O43 Si4 1.620110 1_555
O43 Zr1 2.120011 1_445
O44 Si5 1.620272 1_555
O44 Zr1 2.095665 1_555
O45 Si6 1.636462 1_555
O45 Zr2 2.115619 1_665
O46 P3 1.566993 1_555
O46 Zr2 2.220373 1_655
O47 Si7 1.637800 1_555
O47 Zr2 2.106647 1_555
O48 Si3 1.656724 1_545
O48 Zr3 2.200051 1_555
O49 Si2 1.632479 1_555
O49 Zr3 2.059289 1_555
O50 P1 1.540476 1_655
O50 Zr3 2.209465 1_555
O51 Si0 1.632905 1_555
O52 Si1 1.657046 1_655
O53 P0 1.538702 1_555
O54 P4 1.564884 1_555
O55 Si8 1.657422 1_655
O56 Si9 1.659524 1_545
O57 Si10 1.627905 1_545
O57 Zr4 2.120686 1_555
O58 P5 1.555110 1_555
O58 Zr4 2.248348 1_555
O59 Si11 1.628352 1_655
O59 Zr4 2.103441 1_555
O60 Si7 1.685427 1_555
O61 Si6 1.655078 1_455
O62 P3 1.548313 1_565
O63 Si4 1.626990 1_565
O63 Zr5 2.068941 1_555
O64 Si5 1.638640 1_555
O64 Zr5 2.155117 1_555
O65 P2 1.533059 1_455
O65 Zr5 2.182719 1_555
O66 P0 1.555283 1_565
O67 Si0 1.638557 1_555
O68 Si1 1.637341 1_555
O69 Si2 1.639989 1_555
O70 P1 1.556692 1_555
O71 Si3 1.643077 1_555
