# generated using pymatgen
data_MgMn6(O2F)4
_symmetry_space_group_name_H-M   'P 1'
_cell_length_a   5.08638743
_cell_length_b   7.70746804
_cell_length_c   5.60738161
_cell_angle_alpha   92.14812400
_cell_angle_beta   96.75630656
_cell_angle_gamma   84.26001671
_symmetry_Int_Tables_number   1
_chemical_formula_structural   MgMn6(O2F)4
_chemical_formula_sum   'Mg1 Mn6 O8 F4'
_cell_volume   217.13240413
_cell_formula_units_Z   1
loop_
 _symmetry_equiv_pos_site_id
 _symmetry_equiv_pos_as_xyz
  1  'x, y, z'
loop_
 _atom_site_type_symbol
 _atom_site_label
 _atom_site_symmetry_multiplicity
 _atom_site_fract_x
 _atom_site_fract_y
 _atom_site_fract_z
 _atom_site_occupancy
  Mg  Mg0  1  0.03423532  0.48800532  0.05125362  1
  Mn  Mn0  1  0.47267948  0.99540169  0.49036717  1
  Mn  Mn1  1  0.51476471  0.68316170  0.18245633  1
  Mn  Mn2  1  0.53334492  0.35459699  0.84381296  1
  Mn  Mn3  1  0.02176912  0.69176868  0.64744997  1
  Mn  Mn4  1  0.84334287  0.27776069  0.44896164  1
  Mn  Mn5  1  0.00613208  0.01217093  0.97817378  1
  O  O0  1  0.82779129  0.45370721  0.70614840  1
  O  O1  1  0.79685750  0.09805478  0.22743001  1
  O  O2  1  0.71730246  0.13177423  0.72451369  1
  O  O3  1  0.68173412  0.77632163  0.48216273  1
  O  O4  1  0.71248257  0.44547383  0.19251606  1
  O  O5  1  0.32091538  0.57909054  0.88641488  1
  O  O6  1  0.30563490  0.90605640  0.19375218  1
  O  O7  1  0.16802761  0.90843820  0.70223879  1
  F  F0  1  0.84808634  0.74586243  0.99315412  1
  F  F1  1  0.26628343  0.22970593  0.49318154  1
  F  F2  1  0.20414594  0.56707371  0.36376690  1
  F  F3  1  0.23835993  0.25557613  0.98748423  1
loop_
_geom_bond_atom_site_label_1
_geom_bond_atom_site_label_2
_geom_bond_distance
_geom_bond_site_symmetry_2
Mg0 O4 1.960873 1_455
Mg0 O5 2.010970 1_554
Mg0 O0 2.110997 1_454
Mn0 O3 1.905398 1_555
Mn0 O6 1.913407 1_555
Mn0 O2 2.037285 1_565
Mn0 O7 2.227672 1_555
Mn0 O1 2.537538 1_565
Mn1 O6 1.931069 1_555
Mn1 O3 1.938253 1_555
Mn1 O4 1.999137 1_555
Mn1 O5 2.011095 1_554
Mn2 O5 1.968295 1_555
Mn2 O0 1.991858 1_555
Mn2 O2 2.003042 1_555
Mn2 O4 2.179416 1_556
Mn3 O7 1.895492 1_555
Mn3 O3 1.928134 1_455
Mn3 O5 2.051369 1_555
Mn3 O0 2.220877 1_455
Mn4 O1 1.839797 1_555
Mn4 O0 1.945205 1_555
Mn4 O4 1.980860 1_555
Mn4 O2 2.138258 1_555
Mn5 O1 1.914285 1_456
Mn5 O7 1.945953 1_545
Mn5 O6 1.960228 1_546
Mn5 O2 2.089714 1_455
F0 Mg0 2.133549 1_656
F0 Mn1 2.204651 1_556
F0 Mn3 2.231747 1_655
F0 Mn5 2.285862 1_665
F1 Mn0 1.996531 1_545
F1 Mn4 2.132720 1_455
F1 Mn2 2.475618 1_555
F2 Mg0 1.964198 1_555
F2 Mn3 2.090177 1_555
F2 Mn1 2.249284 1_555
F3 Mn2 2.010543 1_555
F3 Mg0 2.020491 1_556
F3 Mn5 2.310603 1_555
