# generated using pymatgen
data_Na5La2SiGe2P5O24
_symmetry_space_group_name_H-M   'P 1'
_cell_length_a   9.16720145
_cell_length_b   9.21745973
_cell_length_c   22.85759262
_cell_angle_alpha   90.31960814
_cell_angle_beta   89.39199744
_cell_angle_gamma   120.70551625
_symmetry_Int_Tables_number   1
_chemical_formula_structural   Na5La2SiGe2P5O24
_chemical_formula_sum   'Na15 La6 Si3 Ge6 P15 O72'
_cell_volume   1660.55423945
_cell_formula_units_Z   3
loop_
 _symmetry_equiv_pos_site_id
 _symmetry_equiv_pos_as_xyz
  1  'x, y, z'
loop_
 _atom_site_type_symbol
 _atom_site_label
 _atom_site_symmetry_multiplicity
 _atom_site_fract_x
 _atom_site_fract_y
 _atom_site_fract_z
 _atom_site_occupancy
  Na  Na0  1  0.99782753  0.64801580  0.24744025  1
  Na  Na1  1  0.62743932  0.63163493  0.74578624  1
  Na  Na2  1  0.37547718  0.99720404  0.74941123  1
  Na  Na3  1  0.66649388  0.96996074  0.58675284  1
  Na  Na4  1  0.30688352  0.97578040  0.08042897  1
  Na  Na5  1  0.67438267  0.69856977  0.07835777  1
  Na  Na6  1  0.02981299  0.33153375  0.08192811  1
  Na  Na7  1  0.96161435  0.30109987  0.42151952  1
  Na  Na8  1  0.34206053  0.03884755  0.42295571  1
  Na  Na9  1  0.00808831  0.99068580  0.50754431  1
  Na  Na10  1  0.00128100  0.99247716  0.99170913  1
  Na  Na11  1  0.68336238  0.33643809  0.82951195  1
  Na  Na12  1  0.65061734  0.33226890  0.32862940  1
  Na  Na13  1  0.34555311  0.66683211  0.16476698  1
  Na  Na14  1  0.31583446  0.64845807  0.66059116  1
  La  La0  1  0.99145694  0.99340872  0.34969457  1
  La  La1  1  0.00055383  0.00328213  0.15763675  1
  La  La2  1  0.66752865  0.33780225  0.97438782  1
  La  La3  1  0.66013307  0.34232638  0.50062777  1
  La  La4  1  0.34883816  0.66727232  0.31419788  1
  La  La5  1  0.32378438  0.65885062  0.80605758  1
  Si  Si0  1  0.73903870  0.02485290  0.74605638  1
  Si  Si1  1  0.34803203  0.01824012  0.58598043  1
  Si  Si2  1  0.97221648  0.62619428  0.08232990  1
  Ge  Ge0  1  0.99013929  0.00393478  0.85152050  1
  Ge  Ge1  1  0.00465476  0.00020748  0.65055785  1
  Ge  Ge2  1  0.67263182  0.31489911  0.68133710  1
  Ge  Ge3  1  0.67208424  0.33128591  0.18014785  1
  Ge  Ge4  1  0.31700537  0.66491132  0.00886156  1
  Ge  Ge5  1  0.32810163  0.66984639  0.52304363  1
  P  P0  1  0.33312357  0.01966123  0.24511315  1
  P  P1  1  0.68579007  0.66050960  0.23886265  1
  P  P2  1  0.97845299  0.31278984  0.24541472  1
  P  P3  1  0.28684915  0.26467978  0.74615810  1
  P  P4  1  0.97912108  0.71686718  0.74647483  1
  P  P5  1  0.97706490  0.33097445  0.58631937  1
  P  P6  1  0.66972430  0.64642130  0.59160125  1
  P  P7  1  0.65144766  0.03210945  0.08382409  1
  P  P8  1  0.38246656  0.35039625  0.08521988  1
  P  P9  1  0.63641838  0.69622196  0.91388101  1
  P  P10  1  0.05134722  0.35141036  0.91622755  1
  P  P11  1  0.30004755  0.94614675  0.91249520  1
  P  P12  1  0.62685139  0.95853714  0.42861210  1
  P  P13  1  0.32743629  0.37597365  0.42722352  1
  P  P14  1  0.04988167  0.67065495  0.42317020  1
  O  O0  1  0.24785451  0.03879824  0.30182549  1
  O  O1  1  0.80291496  0.75658057  0.29199429  1
  O  O2  1  0.96451193  0.20957834  0.30092382  1
  O  O3  1  0.20397031  0.15853009  0.80325764  1
  O  O4  1  0.94894244  0.79561934  0.80346097  1
  O  O5  1  0.84806541  0.04624442  0.80661126  1
  O  O6  1  0.82920593  0.99707173  0.68931807  1
  O  O7  1  0.17751781  0.17828334  0.69238592  1
  O  O8  1  0.00261679  0.82727591  0.69303768  1
  O  O9  1  0.76165233  0.75641215  0.18171233  1
  O  O10  1  0.00548773  0.24048921  0.18874043  1
  O  O11  1  0.22188930  0.98708036  0.19101116  1
  O  O12  1  0.87436696  0.36619788  0.63623143  1
  O  O13  1  0.50704486  0.12792138  0.63714722  1
  O  O14  1  0.63772448  0.51752065  0.64264095  1
  O  O15  1  0.88023648  0.49600270  0.14090394  1
  O  O16  1  0.62461781  0.12348134  0.13862713  1
  O  O17  1  0.50127711  0.37141404  0.13840621  1
  O  O18  1  0.44264354  0.30085606  0.03056254  1
  O  O19  1  0.84406621  0.55528267  0.02912962  1
  O  O20  1  0.69177123  0.14161820  0.03011002  1
  O  O21  1  0.40416413  0.11284270  0.52401114  1
  O  O22  1  0.71217969  0.59504878  0.53344281  1
  O  O23  1  0.87542557  0.28468810  0.52935132  1
  O  O24  1  0.53718943  0.70902008  0.97185178  1
  O  O25  1  0.15712950  0.44594716  0.97455581  1
  O  O26  1  0.28440337  0.83347644  0.96996426  1
  O  O27  1  0.52873903  0.84791044  0.48413960  1
  O  O28  1  0.31845584  0.48326813  0.48036404  1
  O  O29  1  0.17136158  0.68520531  0.47486585  1
  O  O30  1  0.12000255  0.65982323  0.36299809  1
  O  O31  1  0.53118756  0.88170113  0.37203265  1
  O  O32  1  0.33709453  0.45923538  0.36879029  1
  O  O33  1  0.13519309  0.45928906  0.86325395  1
  O  O34  1  0.32495822  0.87129068  0.85664609  1
  O  O35  1  0.54141259  0.67532717  0.85772590  1
  O  O36  1  0.04393726  0.83582629  0.42560969  1
  O  O37  1  0.80496706  0.97899799  0.42736293  1
  O  O38  1  0.15864059  0.20135840  0.42853143  1
  O  O39  1  0.04989469  0.18040589  0.91147478  1
  O  O40  1  0.13170691  0.95117761  0.90953854  1
  O  O41  1  0.81412964  0.86521324  0.91131630  1
  O  O42  1  0.99562845  0.17581299  0.59909055  1
  O  O43  1  0.16282638  -0.00167612  0.60042446  1
  O  O44  1  0.82416224  0.83129414  0.60049943  1
  O  O45  1  0.02173042  0.82134584  0.09034226  1
  O  O46  1  0.79958979  -0.00087327  0.09092115  1
  O  O47  1  0.19573436  0.20701545  0.09281906  1
  O  O48  1  0.70784990  0.19231347  0.73886252  1
  O  O49  1  0.46816163  0.27903474  0.74129381  1
  O  O50  1  0.81578672  0.53420745  0.74123349  1
  O  O51  1  0.69245089  0.49492937  0.23742926  1
  O  O52  1  0.80850540  0.31228600  0.24155188  1
  O  O53  1  0.50292482  0.18811676  0.23721204  1
  O  O54  1  0.66346373  0.54621092  0.91894906  1
  O  O55  1  0.87102264  0.31849625  0.91973833  1
  O  O56  1  0.45331214  0.12343141  0.91872570  1
  O  O57  1  0.64635080  0.13579706  0.43092912  1
  O  O58  1  0.47822038  0.34610726  0.42831165  1
  O  O59  1  0.87678946  0.50743553  0.42904628  1
  O  O60  1  0.38341255  0.52093980  0.07924486  1
  O  O61  1  0.15788247  0.62581418  0.07011789  1
  O  O62  1  0.48088491  0.85706191  0.07818618  1
  O  O63  1  0.34662159  0.83368896  0.58071801  1
  O  O64  1  0.50703030  0.66275131  0.58651249  1
  O  O65  1  0.15322568  0.49811871  0.58032834  1
  O  O66  1  0.35330022  0.86469815  0.24813123  1
  O  O67  1  0.50635403  0.62720693  0.24353321  1
  O  O68  1  0.12543553  0.49724996  0.24860730  1
  O  O69  1  0.32168454  0.44642142  0.74596464  1
  O  O70  1  0.14103368  0.70631085  0.74652724  1
  O  O71  1  0.54715664  0.85943117  0.74518046  1
loop_
_geom_bond_atom_site_label_1
_geom_bond_atom_site_label_2
_geom_bond_distance
_geom_bond_site_symmetry_2
Na0 O68 2.227476 1_655
Na0 O51 2.419963 1_555
Na0 O1 2.647117 1_555
Na0 O52 2.668714 1_555
Na0 O15 2.744169 1_555
Na0 O66 2.821761 1_655
Na0 O30 2.859755 1_655
Na0 O11 3.013822 1_655
Na1 O50 2.318871 1_555
Na1 O69 2.425673 1_555
Na1 O71 2.555247 1_555
Na1 O14 2.596669 1_555
Na1 O35 2.756982 1_555
Na1 O49 2.803320 1_555
Na1 O4 2.867016 1_555
Na2 O49 2.291863 1_565
Na2 O70 2.434886 1_555
Na2 O71 2.476982 1_555
Na2 O48 2.639954 1_565
Na2 O34 2.651084 1_555
Na2 O13 2.824170 1_565
Na2 O3 2.919616 1_565
Na3 O44 2.392137 1_555
Na3 O64 2.434754 1_555
Na3 O63 2.537810 1_555
Na3 O27 2.635191 1_555
Na3 O42 2.636085 1_565
Na3 O6 2.733232 1_555
Na3 O13 2.775314 1_565
Na3 O23 2.849633 1_565
Na4 O45 2.258722 1_555
Na4 O62 2.350463 1_555
Na4 O11 2.654253 1_555
Na4 O61 2.797427 1_555
Na4 O26 2.799361 1_554
Na4 O47 2.804696 1_565
Na4 O18 2.833015 1_565
Na4 O16 2.849457 1_565
Na5 O60 2.309804 1_555
Na5 O46 2.413624 1_565
Na5 O9 2.468978 1_555
Na5 O19 2.733963 1_555
Na5 O24 2.776508 1_554
Na5 O45 2.798192 1_655
Na5 O62 2.815560 1_555
Na5 O17 2.934038 1_555
Na6 O47 2.342415 1_555
Na6 O61 2.357575 1_555
Na6 O10 2.556357 1_555
Na6 O25 2.684940 1_554
Na6 O46 2.697811 1_455
Na6 O60 2.788673 1_555
Na6 O15 2.838395 1_455
Na6 O20 2.930048 1_455
Na7 O59 2.399025 1_555
Na7 O38 2.415949 1_655
Na7 O57 2.492743 1_555
Na7 O37 2.557535 1_545
Na7 O23 2.561843 1_555
Na7 O2 2.882046 1_555
Na8 O21 2.395549 1_555
Na8 O36 2.397794 1_545
Na8 O58 2.446066 1_555
Na8 O57 2.465010 1_555
Na8 O38 2.766383 1_555
Na8 O0 2.908968 1_555
Na9 O36 2.467624 1_555
Na9 O38 2.487298 1_565
Na9 O43 2.546487 1_565
Na9 O37 2.589052 1_455
Na9 O44 2.635309 1_455
Na9 O42 2.730873 1_465
Na10 O40 2.347632 1_555
Na10 O41 2.384069 1_455
Na10 O39 2.406732 1_565
Na10 O45 2.820779 1_556
Na10 O46 2.930909 1_466
Na10 O47 2.977569 1_566
Na11 O48 2.524377 1_555
Na11 O50 2.568557 1_555
Na11 O49 2.691553 1_555
Na11 O55 2.758590 1_555
Na11 O56 2.861044 1_555
Na11 O54 2.873918 1_555
Na12 O53 2.481291 1_555
Na12 O51 2.484219 1_555
Na12 O52 2.509487 1_555
Na12 O58 2.798514 1_555
Na12 O57 2.953283 1_555
Na12 O59 2.969002 1_555
Na13 O67 2.482202 1_555
Na13 O60 2.486583 1_555
Na13 O62 2.509035 1_555
Na13 O66 2.606558 1_555
Na13 O68 2.630173 1_555
Na13 O61 2.681208 1_555
Na14 O65 2.329868 1_555
Na14 O64 2.379124 1_555
Na14 O63 2.420675 1_555
Na14 O69 2.724656 1_555
Na14 O70 2.739485 1_555
Na14 O71 2.801891 1_555
La0 O1 2.378064 1_555
La0 O37 2.407983 1_555
La0 O2 2.409815 1_565
La0 O0 2.417253 1_665
La0 O36 2.472200 1_655
La0 O38 2.508019 1_665
La1 O11 2.250506 1_545
La1 O10 2.273851 1_555
La1 O9 2.275113 1_445
La1 O47 2.338024 1_555
La1 O45 2.348056 1_545
La1 O46 2.389113 1_455
La2 O19 2.214745 1_556
La2 O18 2.290513 1_556
La2 O55 2.314978 1_555
La2 O20 2.320296 1_556
La2 O54 2.323505 1_555
La2 O56 2.332751 1_555
La3 O22 2.251595 1_555
La3 O21 2.276656 1_555
La3 O58 2.373398 1_555
La3 O23 2.389718 1_555
La3 O59 2.410365 1_555
La3 O57 2.429579 1_555
La4 O32 2.249183 1_555
La4 O31 2.256552 1_555
La4 O67 2.306264 1_555
La4 O30 2.335324 1_555
La4 O66 2.355212 1_555
La4 O68 2.378903 1_555
La5 O33 2.193826 1_555
La5 O34 2.263865 1_555
La5 O35 2.266412 1_555
La5 O71 2.376863 1_555
La5 O70 2.377622 1_555
La5 O69 2.377634 1_555
Ge0 O5 1.858410 1_555
Ge0 O39 1.976122 1_655
Ge0 O41 1.993044 1_545
Ge0 O3 2.051598 1_655
Ge0 O4 2.069063 1_545
Ge0 O40 2.089883 1_645
Ge1 O6 1.815271 1_445
Ge1 O43 1.845576 1_555
Ge1 O8 1.862911 1_545
Ge1 O7 1.864882 1_555
Ge1 O44 1.964809 1_445
Ge1 O42 2.042274 1_455
Ge2 O48 1.872979 1_555
Ge2 O13 1.906871 1_555
Ge2 O12 1.943856 1_555
Ge2 O49 2.195138 1_555
Ge2 O50 2.231811 1_555
Ge2 O14 2.237783 1_555
Ge3 O51 1.928708 1_555
Ge3 O53 1.932336 1_555
Ge3 O15 1.941931 1_555
Ge3 O52 1.956601 1_555
Ge3 O16 1.973889 1_555
Ge3 O17 2.031271 1_555
Ge4 O61 1.908827 1_555
Ge4 O26 1.946592 1_554
Ge4 O25 1.955058 1_554
Ge4 O24 2.021057 1_554
Ge4 O62 2.281816 1_555
Ge4 O60 2.364216 1_555
Ge5 O29 1.881594 1_555
Ge5 O28 1.935192 1_555
Ge5 O27 1.940669 1_555
Ge5 O63 1.941176 1_555
Ge5 O65 2.043803 1_555
Ge5 O64 2.227230 1_555
O0 P0 1.561828 1_555
O1 P1 1.567354 1_555
O2 P2 1.554709 1_555
O3 P3 1.572270 1_555
O4 P4 1.577032 1_555
O5 Si0 1.666948 1_555
O6 Si0 1.618786 1_565
O7 P3 1.532811 1_555
O8 P4 1.535720 1_455
O9 P1 1.528826 1_555
O10 P2 1.528376 1_455
O11 P0 1.539205 1_565
O12 P5 1.605789 1_555
O13 Si1 1.741491 1_555
O14 P6 1.584625 1_555
O15 Si2 1.704175 1_555
O16 P7 1.591299 1_555
O17 P8 1.584848 1_555
O18 P8 1.519850 1_555
O19 Si2 1.588499 1_555
O20 P7 1.511981 1_555
O21 Si1 1.603626 1_555
O22 P6 1.520891 1_555
O23 P5 1.536021 1_555
O24 P9 1.636906 1_555
O25 P10 1.621339 1_555
O26 P11 1.638229 1_555
O27 P12 1.585324 1_555
O28 P13 1.589937 1_555
O29 P14 1.589987 1_555
O30 P14 1.536268 1_555
O31 P12 1.524064 1_555
O32 P13 1.523257 1_555
O33 P10 1.502948 1_555
O34 P11 1.517489 1_555
O35 P9 1.514213 1_555
O36 P14 1.551670 1_555
O37 P12 1.545016 1_555
O38 P13 1.562661 1_555
O39 P10 1.572627 1_555
O40 P11 1.569571 1_555
O41 P9 1.578363 1_555
O42 P5 1.553674 1_555
O43 Si1 1.641878 1_555
O44 P6 1.577339 1_555
O45 Si2 1.624657 1_455
O46 P7 1.545933 1_555
O47 P8 1.546915 1_555
O48 Si0 1.716362 1_555
O49 P3 1.601306 1_555
O50 P4 1.586831 1_555
O51 P1 1.558445 1_555
O52 P2 1.559016 1_555
O53 P0 1.547713 1_555
O54 P9 1.529479 1_555
O55 P10 1.521976 1_655
O56 P11 1.523671 1_545
O57 P12 1.550905 1_545
O58 P13 1.541587 1_555
O59 P14 1.535923 1_655
O60 P8 1.574259 1_555
O61 Si2 1.723618 1_455
O62 P7 1.578060 1_565
O63 Si1 1.698129 1_565
O64 P6 1.579161 1_555
O65 P5 1.567496 1_455
O66 P0 1.533095 1_565
O67 P1 1.514061 1_555
O68 P2 1.540386 1_455
O69 P3 1.536881 1_555
O70 P4 1.536263 1_455
O71 Si0 1.637310 1_565
