# generated using pymatgen
data_MgAl2(CoO3)2
_symmetry_space_group_name_H-M   'P 1'
_cell_length_a   5.10519409
_cell_length_b   5.61275427
_cell_length_c   5.09477054
_cell_angle_alpha   90.11070675
_cell_angle_beta   60.01096554
_cell_angle_gamma   117.08907961
_symmetry_Int_Tables_number   1
_chemical_formula_structural   MgAl2(CoO3)2
_chemical_formula_sum   'Mg1 Al2 Co2 O6'
_cell_volume   107.64220548
_cell_formula_units_Z   1
loop_
 _symmetry_equiv_pos_site_id
 _symmetry_equiv_pos_as_xyz
  1  'x, y, z'
loop_
 _atom_site_type_symbol
 _atom_site_label
 _atom_site_symmetry_multiplicity
 _atom_site_fract_x
 _atom_site_fract_y
 _atom_site_fract_z
 _atom_site_occupancy
  Mg  Mg0  1  0.41591003  0.62317189  0.79115247  1
  Al  Al0  1  0.03297420  0.04706967  0.98273701  1
  Al  Al1  1  0.67269088  0.50913557  0.16175437  1
  Co  Co0  1  0.32368514  0.97795935  0.33558630  1
  Co  Co1  1  0.94951564  0.42505240  0.52444733  1
  O  O0  1  0.86014970  0.76794914  0.78027828  1
  O  O1  1  0.86262659  0.28398646  0.94451700  1
  O  O2  1  0.55087398  0.76815761  0.35722150  1
  O  O3  1  0.47532163  0.28221320  0.57651110  1
  O  O4  1  0.12631422  0.76869102  0.09209431  1
  O  O5  1  0.22994000  0.28411170  0.19119934  1
loop_
_geom_bond_atom_site_label_1
_geom_bond_atom_site_label_2
_geom_bond_distance
_geom_bond_site_symmetry_2
Mg0 O2 1.999510 1_555
Mg0 O0 2.000756 1_555
Mg0 O4 2.008127 1_556
Mg0 O5 2.261000 1_556
Mg0 O1 2.261698 1_455
Mg0 O3 2.266967 1_555
Al0 O3 1.936203 1_555
Al0 O5 1.937251 1_556
Al0 O1 1.945759 1_455
Al0 O4 1.981330 1_546
Al0 O0 1.985297 1_445
Al0 O2 1.989129 1_446
Al1 O0 1.920628 1_554
Al1 O2 1.921155 1_555
Al1 O4 1.928497 1_655
Al1 O5 1.946411 1_555
Al1 O1 1.949333 1_554
Al1 O3 1.953397 1_555
Co0 O4 2.024818 1_555
Co0 O2 2.028853 1_555
Co0 O0 2.057339 1_455
Co0 O1 2.172371 1_564
Co0 O3 2.181737 1_565
Co0 O5 2.197441 1_565
Co1 O1 2.035090 1_555
Co1 O5 2.038218 1_655
Co1 O3 2.040811 1_555
Co1 O0 2.409691 1_555
Co1 O4 2.414589 1_655
Co1 O2 2.422129 1_655
