# generated using pymatgen
data_Na6Hf7Mg(PO4)12
_symmetry_space_group_name_H-M   'P 1'
_cell_length_a   17.72969419
_cell_length_b   8.87770549
_cell_length_c   23.07349815
_cell_angle_alpha   90.02702137
_cell_angle_beta   90.01405402
_cell_angle_gamma   120.01457219
_symmetry_Int_Tables_number   1
_chemical_formula_structural   Na6Hf7Mg(PO4)12
_chemical_formula_sum   'Na18 Hf21 Mg3 P36 O144'
_cell_volume   3144.72119132
_cell_formula_units_Z   3
loop_
 _symmetry_equiv_pos_site_id
 _symmetry_equiv_pos_as_xyz
  1  'x, y, z'
loop_
 _atom_site_type_symbol
 _atom_site_label
 _atom_site_symmetry_multiplicity
 _atom_site_fract_x
 _atom_site_fract_y
 _atom_site_fract_z
 _atom_site_occupancy
  Na  Na0  1  0.68811683  0.36518198  0.24501991  1
  Na  Na1  1  0.99356549  0.62300009  0.24482006  1
  Na  Na2  1  0.99354505  0.36148120  0.74216741  1
  Na  Na3  1  0.49377728  0.36167527  0.74221786  1
  Na  Na4  1  0.18630882  0.00876997  0.74222487  1
  Na  Na5  1  0.68641788  0.00903313  0.74246755  1
  Na  Na6  1  0.99994549  0.99923241  0.50028596  1
  Na  Na7  1  0.49987402  0.99998163  0.50050736  1
  Na  Na8  1  0.99801745  0.99686156  0.00186765  1
  Na  Na9  1  0.50195956  0.00368520  0.00116716  1
  Na  Na10  1  0.33308925  0.34612014  0.82961162  1
  Na  Na11  1  0.83273320  0.34551870  0.83121148  1
  Na  Na12  1  0.33312500  0.33371453  0.33586516  1
  Na  Na13  1  0.83320674  0.31892601  0.33126553  1
  Na  Na14  1  0.17007428  0.66446439  0.16578807  1
  Na  Na15  1  0.66938656  0.68236097  0.16495419  1
  Na  Na16  1  0.17269332  0.66517320  0.66006411  1
  Na  Na17  1  0.67272649  0.66533931  0.66032252  1
  Hf  Hf0  1  0.00025387  0.00322091  0.35411981  1
  Hf  Hf1  1  0.49920005  0.99814929  0.35448783  1
  Hf  Hf2  1  0.99931228  0.99790895  0.85439695  1
  Hf  Hf3  1  0.49961215  0.99779675  0.85448815  1
  Hf  Hf4  1  0.99856929  0.99748852  0.64405810  1
  Hf  Hf5  1  0.49872275  0.99724981  0.64403291  1
  Hf  Hf6  1  0.99770633  0.00113490  0.14591625  1
  Hf  Hf7  1  0.50099686  0.99930866  0.14556605  1
  Hf  Hf8  1  0.33334759  0.33421459  0.18664078  1
  Hf  Hf9  1  0.33346131  0.33221780  0.98003910  1
  Hf  Hf10  1  0.83340503  0.33296354  0.98263947  1
  Hf  Hf11  1  0.33329576  0.33278625  0.48272855  1
  Hf  Hf12  1  0.83349940  0.33448651  0.48186663  1
  Hf  Hf13  1  0.16535180  0.66634333  0.02075532  1
  Hf  Hf14  1  0.66746253  0.66622448  0.02070592  1
  Hf  Hf15  1  0.16619140  0.66691445  0.52005729  1
  Hf  Hf16  1  0.66645376  0.66639853  0.52020436  1
  Hf  Hf17  1  0.16950641  0.66559847  0.31447865  1
  Hf  Hf18  1  0.66623193  0.67314984  0.31478465  1
  Hf  Hf19  1  0.16897517  0.66552216  0.81534670  1
  Hf  Hf20  1  0.66919710  0.66626640  0.81549293  1
  Mg  Mg0  1  0.33289734  0.34066842  0.68176972  1
  Mg  Mg1  1  0.83285818  0.34049764  0.68179973  1
  Mg  Mg2  1  0.83302405  0.32433514  0.18314952  1
  P  P0  1  0.14468079  0.00011639  0.25010201  1
  P  P1  1  0.64587896  0.00126108  0.24983273  1
  P  P2  1  0.35563865  0.71095290  0.24954537  1
  P  P3  1  0.85396084  0.70828475  0.25013574  1
  P  P4  1  0.99887075  0.29119926  0.25018622  1
  P  P5  1  0.49965779  0.28899963  0.25045886  1
  P  P6  1  0.14539263  0.28943814  0.75005867  1
  P  P7  1  0.64535860  0.28970517  0.75004339  1
  P  P8  1  -0.00136974  0.70728789  0.75066260  1
  P  P9  1  0.49857847  0.70715682  0.75065555  1
  P  P10  1  0.35453487  0.00015348  0.75002615  1
  P  P11  1  0.85440838  0.00007508  0.74992711  1
  P  P12  1  0.47894925  0.33448989  0.58623665  1
  P  P13  1  0.97878085  0.33472677  0.58600134  1
  P  P14  1  0.18865713  0.04226370  0.58635376  1
  P  P15  1  0.68897026  0.04258637  0.58603002  1
  P  P16  1  0.33216596  0.62182535  0.58443340  1
  P  P17  1  0.83237166  0.62178616  0.58449993  1
  P  P18  1  0.47812107  0.62281416  0.08308072  1
  P  P19  1  0.97832580  0.62409558  0.08617919  1
  P  P20  1  0.33342243  0.04355478  0.08347383  1
  P  P21  1  0.83269783  0.04319223  0.08431049  1
  P  P22  1  0.18826079  0.33329524  0.08313545  1
  P  P23  1  0.68857261  0.33415565  0.08606304  1
  P  P24  1  0.31252290  0.66660781  0.91801396  1
  P  P25  1  0.81282352  0.66543240  0.91754552  1
  P  P26  1  0.02052679  0.37516199  0.91624104  1
  P  P27  1  0.52098552  0.37538554  0.91608419  1
  P  P28  1  0.16703993  0.95814120  0.91612858  1
  P  P29  1  0.66731536  0.95858924  0.91658453  1
  P  P30  1  0.31177984  0.95823406  0.41695006  1
  P  P31  1  0.81220925  0.95877676  0.41728715  1
  P  P32  1  0.16734964  0.37575864  0.41735336  1
  P  P33  1  0.66722945  0.37674691  0.41545214  1
  P  P34  1  0.02099777  0.66608858  0.41541538  1
  P  P35  1  0.52037426  0.66526813  0.41720713  1
  O  O0  1  0.10162993  0.02432763  0.30437125  1
  O  O1  1  0.59879346  0.02376467  0.30314871  1
  O  O2  1  0.41063126  0.79742180  0.30388387  1
  O  O3  1  0.91225162  0.80126937  0.30324500  1
  O  O4  1  0.48731830  0.17759939  0.30440212  1
  O  O5  1  0.99048083  0.18037611  0.30409065  1
  O  O6  1  0.09953588  0.17479284  0.80393263  1
  O  O7  1  0.59945657  0.17484285  0.80391766  1
  O  O8  1  0.48930688  0.79929007  0.80476026  1
  O  O9  1  0.98943159  0.79953187  0.80474723  1
  O  O10  1  0.41191841  0.02295779  0.80361391  1
  O  O11  1  0.91187333  0.02306573  0.80350433  1
  O  O12  1  0.39792630  0.97388389  0.69629423  1
  O  O13  1  0.89789599  0.97374895  0.69628486  1
  O  O14  1  0.08600697  0.20405571  0.69686211  1
  O  O15  1  0.58597991  0.20420945  0.69683659  1
  O  O16  1  0.01590233  0.82599811  0.69758433  1
  O  O17  1  0.51571541  0.82575644  0.69756726  1
  O  O18  1  0.39919485  0.82245040  0.19558420  1
  O  O19  1  0.89753249  0.82142492  0.19602821  1
  O  O20  1  0.01221348  0.20406194  0.19614833  1
  O  O21  1  0.51471189  0.20334604  0.19677827  1
  O  O22  1  0.08659494  0.97028429  0.19659016  1
  O  O23  1  0.58888491  0.97522989  0.19562879  1
  O  O24  1  0.44189717  0.35990165  0.64240325  1
  O  O25  1  0.94191610  0.35986335  0.64236449  1
  O  O26  1  0.23869534  0.11573465  0.64254257  1
  O  O27  1  0.73860345  0.11569395  0.64243097  1
  O  O28  1  0.31820661  0.51607812  0.63848783  1
  O  O29  1  0.81814426  0.51593573  0.63859740  1
  O  O30  1  0.43419680  0.51136887  0.13719869  1
  O  O31  1  0.94135999  0.52373712  0.14207459  1
  O  O32  1  0.32170167  0.13227272  0.13740411  1
  O  O33  1  0.81843386  0.12121812  0.13806154  1
  O  O34  1  0.24432124  0.35757989  0.13730890  1
  O  O35  1  0.73861744  0.36046550  0.14208977  1
  O  O36  1  0.23249778  0.30972423  0.02912919  1
  O  O37  1  0.73382792  0.30987492  0.03216066  1
  O  O38  1  0.42247399  0.53453729  0.02898263  1
  O  O39  1  0.92137404  0.53269652  0.03212606  1
  O  O40  1  0.34544860  0.15485790  0.02927043  1
  O  O41  1  0.84529152  0.15382421  0.02921369  1
  O  O42  1  0.23440087  0.15734714  0.53280223  1
  O  O43  1  0.73480161  0.15816945  0.53259596  1
  O  O44  1  0.34486654  0.53567405  0.52965632  1
  O  O45  1  0.84489355  0.53609436  0.52959184  1
  O  O46  1  0.42156768  0.31176279  0.53263515  1
  O  O47  1  0.92132907  0.31211968  0.53248935  1
  O  O48  1  0.26787419  0.68989726  0.97126541  1
  O  O49  1  0.76835371  0.68909293  0.97082733  1
  O  O50  1  0.07854772  0.46754686  0.96898317  1
  O  O51  1  0.57829524  0.46772145  0.96876958  1
  O  O52  1  0.15604987  0.84387872  0.96893001  1
  O  O53  1  0.65547591  0.84286197  0.96906865  1
  O  O54  1  0.26779988  0.84610986  0.47042965  1
  O  O55  1  0.76793198  0.84660262  0.47064635  1
  O  O56  1  0.15542956  0.46428960  0.47073000  1
  O  O57  1  0.65524633  0.46804199  0.46825490  1
  O  O58  1  0.07853468  0.68974276  0.46832613  1
  O  O59  1  0.57672579  0.68971001  0.47059655  1
  O  O60  1  0.06360574  0.64319032  0.35970336  1
  O  O61  1  0.56456269  0.64187150  0.36269740  1
  O  O62  1  0.25614687  0.87003136  0.36235216  1
  O  O63  1  0.75605126  0.87053143  0.36274054  1
  O  O64  1  0.17928073  0.48751314  0.36277227  1
  O  O65  1  0.67831823  0.48381332  0.35965170  1
  O  O66  1  0.06330058  0.48323829  0.86043109  1
  O  O67  1  0.56314934  0.48309324  0.86023609  1
  O  O68  1  0.17870887  0.87363673  0.86035062  1
  O  O69  1  0.67850602  0.87340565  0.86059019  1
  O  O70  1  0.25659986  0.64246953  0.86326588  1
  O  O71  1  0.75676424  0.64165548  0.86286555  1
  O  O72  1  0.01172936  0.82974782  0.40938389  1
  O  O73  1  0.51135280  0.82901001  0.41034859  1
  O  O74  1  0.40288154  0.97677605  0.41015899  1
  O  O75  1  0.90327105  0.97740269  0.41026043  1
  O  O76  1  0.08550226  0.19389734  0.41067404  1
  O  O77  1  0.58516139  0.19402496  0.40945158  1
  O  O78  1  0.01164516  0.19372580  0.91000543  1
  O  O79  1  0.51162219  0.19356930  0.91018837  1
  O  O80  1  0.08534755  0.97666051  0.91049568  1
  O  O81  1  0.58537777  0.97688014  0.91053432  1
  O  O82  1  0.40314787  0.82969966  0.91112913  1
  O  O83  1  0.90345018  0.82894377  0.91068412  1
  O  O84  1  0.48852903  0.16900396  0.58927188  1
  O  O85  1  0.98858176  0.16937646  0.58927865  1
  O  O86  1  0.09628699  0.02320013  0.58980607  1
  O  O87  1  0.59647349  0.02334765  0.58976243  1
  O  O88  1  0.41525670  0.80633156  0.58913866  1
  O  O89  1  0.91528992  0.80648291  0.58914671  1
  O  O90  1  0.48713561  0.80451219  0.08914837  1
  O  O91  1  0.98904248  0.80916041  0.08936757  1
  O  O92  1  0.41502463  0.02514473  0.09003414  1
  O  O93  1  0.91547281  0.02386404  0.08849240  1
  O  O94  1  0.09740641  0.17045815  0.08974014  1
  O  O95  1  0.59597600  0.16877990  0.08912430  1
  O  O96  1  0.34477405  0.16229033  0.74595996  1
  O  O97  1  0.84471809  0.16219888  0.74582161  1
  O  O98  1  0.23451544  0.30404971  0.74505917  1
  O  O99  1  0.73453168  0.30422865  0.74499286  1
  O  O100  1  0.42126684  0.52296846  0.74571954  1
  O  O101  1  0.92131481  0.52313220  0.74570607  1
  O  O102  1  0.34573019  0.52833238  0.24293608  1
  O  O103  1  0.84469727  0.52710311  0.24582800  1
  O  O104  1  0.41962788  0.31198873  0.24328148  1
  O  O105  1  0.92027594  0.31752440  0.24598768  1
  O  O106  1  0.23617739  0.16077768  0.24292730  1
  O  O107  1  0.73462334  0.16683270  0.24553279  1
  O  O108  1  0.32152227  0.50356209  0.92352931  1
  O  O109  1  0.82186865  0.50296548  0.92333692  1
  O  O110  1  0.43036850  0.35779991  0.92261470  1
  O  O111  1  0.93034102  0.35828919  0.92290270  1
  O  O112  1  0.24860438  0.13942143  0.92252665  1
  O  O113  1  0.74859854  0.13976705  0.92312538  1
  O  O114  1  0.32128660  0.13967890  0.42320518  1
  O  O115  1  0.82134179  0.13973263  0.42345388  1
  O  O116  1  0.24860858  0.35653812  0.42341047  1
  O  O117  1  0.74847129  0.35751739  0.42256194  1
  O  O118  1  0.42986874  0.50200862  0.42334992  1
  O  O119  1  0.93054441  0.50262673  0.42264835  1
  O  O120  1  0.17899986  0.49689637  0.07674127  1
  O  O121  1  0.67614509  0.49392568  0.07558499  1
  O  O122  1  0.07065221  0.64652815  0.07565481  1
  O  O123  1  0.56939139  0.64284768  0.07686573  1
  O  O124  1  0.25173964  0.86151689  0.07696322  1
  O  O125  1  0.75229969  0.85774716  0.07494161  1
  O  O126  1  0.17693037  0.85853287  0.57610871  1
  O  O127  1  0.67708915  0.85849457  0.57601439  1
  O  O128  1  0.25224280  0.64726673  0.57523397  1
  O  O129  1  0.75225288  0.64670016  0.57534416  1
  O  O130  1  0.07078887  0.49588936  0.57617038  1
  O  O131  1  0.57091659  0.49528045  0.57623351  1
  O  O132  1  0.15051644  0.83158948  0.25640202  1
  O  O133  1  0.65395806  0.83606869  0.25650979  1
  O  O134  1  0.26416574  0.69169152  0.25570295  1
  O  O135  1  0.76132385  0.68508395  0.25667287  1
  O  O136  1  0.08204691  0.47653273  0.25622238  1
  O  O137  1  0.58402632  0.46899834  0.25692656  1
  O  O138  1  0.15050348  0.46939022  0.75734371  1
  O  O139  1  0.65042872  0.46955733  0.75733012  1
  O  O140  1  0.08414700  0.69445641  0.75741071  1
  O  O141  1  0.58404732  0.69430647  0.75732187  1
  O  O142  1  0.26165160  0.83741284  0.75668436  1
  O  O143  1  0.76159352  0.83741001  0.75661586  1
loop_
_geom_bond_atom_site_label_1
_geom_bond_atom_site_label_2
_geom_bond_distance
_geom_bond_site_symmetry_2
Na0 O107 2.287646 1_555
Na0 O103 2.404398 1_555
Na0 O137 2.456099 1_555
Na0 O135 2.476663 1_555
Na0 O35 2.546037 1_555
Na0 O65 2.883712 1_555
Na0 O21 2.886692 1_555
Na0 O1 2.948992 1_555
Na1 O103 2.333180 1_555
Na1 O105 2.349118 1_555
Na1 O132 2.467359 1_655
Na1 O136 2.502360 1_655
Na1 O31 2.536616 1_555
Na1 O60 2.894125 1_655
Na1 O22 2.894994 1_655
Na1 O3 2.946516 1_555
Na2 O97 2.330138 1_555
Na2 O101 2.354717 1_555
Na2 O138 2.473175 1_655
Na2 O25 2.475234 1_555
Na2 O140 2.586604 1_655
Na2 O14 2.832827 1_655
Na2 O11 2.962868 1_555
Na2 O66 2.966849 1_655
Na3 O96 2.332741 1_555
Na3 O100 2.356108 1_555
Na3 O139 2.467940 1_555
Na3 O24 2.476872 1_555
Na3 O141 2.583343 1_555
Na3 O15 2.829961 1_555
Na3 O67 2.959583 1_555
Na3 O10 2.965524 1_555
Na4 O98 2.316221 1_555
Na4 O96 2.434625 1_555
Na4 O140 2.476813 1_545
Na4 O26 2.485001 1_555
Na4 O142 2.498633 1_545
Na4 O16 2.813217 1_545
Na4 O68 2.954263 1_545
Na4 O6 2.972224 1_555
Na5 O99 2.315652 1_555
Na5 O97 2.431833 1_555
Na5 O141 2.479150 1_545
Na5 O27 2.491397 1_555
Na5 O143 2.497268 1_545
Na5 O17 2.819709 1_545
Na5 O69 2.955015 1_545
Na5 O7 2.970513 1_555
Na6 O89 2.611527 1_555
Na6 O85 2.615386 1_565
Na6 O86 2.619849 1_665
Na6 O76 2.635352 1_665
Na6 O75 2.637369 1_555
Na6 O72 2.649248 1_655
Na7 O84 2.605006 1_565
Na7 O88 2.610162 1_555
Na7 O87 2.619156 1_565
Na7 O73 2.641793 1_555
Na7 O74 2.643637 1_555
Na7 O77 2.658405 1_565
Na8 O93 2.558551 1_565
Na8 O91 2.572196 1_555
Na8 O94 2.620973 1_665
Na8 O83 2.637175 1_554
Na8 O80 2.674576 1_654
Na8 O78 2.680814 1_664
Na9 O95 2.568428 1_555
Na9 O90 2.618275 1_545
Na9 O92 2.628950 1_555
Na9 O81 2.640142 1_544
Na9 O79 2.644292 1_554
Na9 O82 2.656863 1_544
Na10 O100 2.490918 1_555
Na10 O98 2.518848 1_555
Na10 O96 2.601383 1_555
Na10 O108 2.641164 1_555
Na10 O110 2.722026 1_555
Na10 O112 2.731770 1_555
Na11 O101 2.524317 1_555
Na11 O99 2.546062 1_555
Na11 O109 2.603081 1_555
Na11 O97 2.630358 1_555
Na11 O111 2.699128 1_555
Na11 O113 2.708980 1_555
Na12 O116 2.582937 1_555
Na12 O118 2.584683 1_555
Na12 O114 2.591203 1_555
Na12 O104 2.692578 1_555
Na12 O102 2.692604 1_555
Na12 O106 2.695367 1_555
Na13 O105 2.505107 1_555
Na13 O107 2.534947 1_555
Na13 O115 2.601573 1_555
Na13 O103 2.640124 1_555
Na13 O119 2.695006 1_555
Na13 O117 2.706962 1_555
Na14 O120 2.586951 1_555
Na14 O134 2.596143 1_555
Na14 O124 2.613040 1_555
Na14 O136 2.640692 1_555
Na14 O122 2.678570 1_555
Na14 O132 2.684225 1_555
Na15 O125 2.571675 1_555
Na15 O133 2.602032 1_555
Na15 O123 2.602430 1_555
Na15 O135 2.663642 1_555
Na15 O121 2.694878 1_555
Na15 O137 2.742107 1_555
Na16 O128 2.463933 1_555
Na16 O130 2.559094 1_555
Na16 O126 2.564966 1_555
Na16 O142 2.716262 1_555
Na16 O138 2.744801 1_555
Na16 O140 2.826081 1_555
Na17 O129 2.468688 1_555
Na17 O131 2.563430 1_555
Na17 O127 2.569259 1_555
Na17 O143 2.709184 1_555
Na17 O139 2.739333 1_555
Na17 O141 2.820099 1_555
Hf0 O5 2.027381 1_455
Hf0 O3 2.055545 1_445
Hf0 O0 2.060953 1_555
Hf0 O76 2.071227 1_555
Hf0 O75 2.072239 1_445
Hf0 O72 2.086694 1_545
Hf1 O1 2.042645 1_565
Hf1 O2 2.049953 1_555
Hf1 O4 2.062829 1_565
Hf1 O74 2.068667 1_555
Hf1 O73 2.070693 1_555
Hf1 O77 2.073779 1_565
Hf2 O9 2.033226 1_555
Hf2 O11 2.043979 1_565
Hf2 O6 2.047037 1_665
Hf2 O83 2.068286 1_555
Hf2 O80 2.079652 1_655
Hf2 O78 2.081739 1_665
Hf3 O8 2.032587 1_555
Hf3 O7 2.045669 1_565
Hf3 O10 2.047428 1_565
Hf3 O81 2.073829 1_555
Hf3 O82 2.075959 1_555
Hf3 O79 2.084532 1_565
Hf4 O89 2.037889 1_555
Hf4 O86 2.055806 1_665
Hf4 O85 2.056590 1_565
Hf4 O13 2.075432 1_555
Hf4 O14 2.098447 1_665
Hf4 O16 2.099342 1_655
Hf5 O88 2.038303 1_555
Hf5 O87 2.055465 1_565
Hf5 O84 2.057069 1_565
Hf5 O12 2.078755 1_555
Hf5 O17 2.096408 1_555
Hf5 O15 2.099241 1_565
Hf6 O20 2.046782 1_655
Hf6 O19 2.050511 1_545
Hf6 O93 2.053188 1_555
Hf6 O22 2.087341 1_645
Hf6 O91 2.089628 1_545
Hf6 O94 2.099749 1_655
Hf7 O23 2.034863 1_555
Hf7 O18 2.054860 1_555
Hf7 O95 2.064835 1_565
Hf7 O21 2.072127 1_565
Hf7 O90 2.078011 1_555
Hf7 O92 2.089697 1_565
Hf8 O34 2.038856 1_555
Hf8 O30 2.039929 1_555
Hf8 O32 2.043272 1_555
Hf8 O102 2.079542 1_555
Hf8 O106 2.091567 1_555
Hf8 O104 2.094804 1_555
Hf9 O40 2.037422 1_556
Hf9 O38 2.037986 1_556
Hf9 O36 2.042234 1_556
Hf9 O110 2.090494 1_555
Hf9 O112 2.091570 1_555
Hf9 O108 2.093478 1_555
Hf10 O41 2.016246 1_556
Hf10 O37 2.025753 1_556
Hf10 O39 2.027537 1_556
Hf10 O109 2.121917 1_555
Hf10 O113 2.122482 1_555
Hf10 O111 2.125789 1_555
Hf11 O44 2.021668 1_555
Hf11 O46 2.025268 1_555
Hf11 O42 2.026234 1_555
Hf11 O116 2.118532 1_555
Hf11 O118 2.120231 1_555
Hf11 O114 2.122039 1_555
Hf12 O45 2.023157 1_555
Hf12 O47 2.034029 1_555
Hf12 O43 2.035866 1_555
Hf12 O115 2.115924 1_555
Hf12 O119 2.118763 1_555
Hf12 O117 2.120017 1_555
Hf13 O122 2.039687 1_555
Hf13 O50 2.046958 1_554
Hf13 O52 2.050111 1_554
Hf13 O48 2.067041 1_554
Hf13 O120 2.087113 1_555
Hf13 O124 2.090931 1_555
Hf14 O125 2.039091 1_555
Hf14 O49 2.050205 1_554
Hf14 O121 2.050397 1_555
Hf14 O51 2.061734 1_554
Hf14 O53 2.063690 1_554
Hf14 O123 2.094242 1_555
Hf15 O58 2.048299 1_555
Hf15 O56 2.054805 1_555
Hf15 O54 2.054979 1_555
Hf15 O128 2.060194 1_555
Hf15 O130 2.067909 1_555
Hf15 O126 2.067970 1_555
Hf16 O59 2.052439 1_555
Hf16 O57 2.055489 1_555
Hf16 O55 2.055986 1_555
Hf16 O129 2.056373 1_555
Hf16 O131 2.068042 1_555
Hf16 O127 2.068382 1_555
Hf17 O64 2.011690 1_555
Hf17 O62 2.020349 1_555
Hf17 O60 2.069121 1_555
Hf17 O134 2.078926 1_555
Hf17 O136 2.102746 1_555
Hf17 O132 2.139767 1_555
Hf18 O63 2.009095 1_555
Hf18 O61 2.012217 1_555
Hf18 O133 2.064898 1_555
Hf18 O65 2.074815 1_555
Hf18 O135 2.115196 1_555
Hf18 O137 2.131969 1_555
Hf19 O70 1.998843 1_555
Hf19 O66 2.044619 1_555
Hf19 O68 2.049566 1_555
Hf19 O142 2.086897 1_555
Hf19 O138 2.087407 1_555
Hf19 O140 2.121500 1_555
Hf20 O71 1.997906 1_555
Hf20 O69 2.045994 1_555
Hf20 O67 2.046711 1_555
Hf20 O143 2.085794 1_555
Hf20 O139 2.092273 1_555
Hf20 O141 2.125540 1_555
Mg0 O28 1.974151 1_555
Mg0 O26 2.063301 1_555
Mg0 O24 2.063923 1_555
Mg0 O100 2.170498 1_555
Mg0 O98 2.171428 1_555
Mg0 O96 2.254194 1_555
Mg1 O29 1.973655 1_555
Mg1 O27 2.064390 1_555
Mg1 O25 2.065091 1_555
Mg1 O99 2.170002 1_555
Mg1 O101 2.171497 1_555
Mg1 O97 2.250982 1_555
Mg2 O33 1.982986 1_555
Mg2 O31 2.078954 1_555
Mg2 O35 2.082947 1_555
Mg2 O105 2.142770 1_555
Mg2 O107 2.152514 1_555
Mg2 O103 2.235945 1_555
O0 P0 1.536586 1_555
O1 P1 1.554768 1_555
O2 P2 1.536743 1_555
O3 P3 1.547927 1_555
O4 P5 1.536214 1_555
O5 P4 1.546570 1_555
O6 P6 1.554329 1_555
O7 P7 1.555251 1_555
O8 P9 1.545364 1_555
O9 P8 1.545082 1_655
O10 P10 1.548543 1_555
O11 P11 1.548875 1_555
O12 P10 1.537202 1_565
O13 P11 1.536720 1_565
O14 P6 1.545889 1_555
O15 P7 1.546173 1_555
O16 P8 1.543649 1_555
O17 P9 1.543603 1_555
O18 P2 1.537286 1_555
O19 P3 1.545851 1_555
O20 P4 1.546389 1_455
O21 P5 1.544637 1_555
O22 P0 1.543185 1_565
O23 P1 1.550536 1_565
O24 P12 1.519987 1_555
O25 P13 1.521296 1_555
O26 P14 1.520875 1_555
O27 P15 1.521978 1_555
O28 P16 1.505643 1_555
O29 P17 1.506269 1_555
O30 P18 1.541228 1_555
O31 P19 1.517889 1_555
O32 P20 1.541069 1_555
O33 P21 1.502176 1_555
O34 P22 1.543234 1_555
O35 P23 1.518156 1_555
O36 P22 1.541478 1_555
O37 P23 1.552530 1_555
O38 P18 1.539671 1_555
O39 P19 1.553129 1_555
O40 P20 1.541593 1_555
O41 P21 1.553240 1_555
O42 P14 1.549534 1_555
O43 P15 1.549445 1_555
O44 P16 1.550687 1_555
O45 P17 1.549616 1_555
O46 P12 1.548911 1_555
O47 P13 1.548213 1_555
O48 P24 1.530708 1_555
O49 P25 1.530715 1_555
O50 P26 1.538250 1_555
O51 P27 1.532099 1_555
O52 P28 1.534529 1_555
O53 P29 1.533507 1_555
O54 P30 1.531870 1_555
O55 P31 1.530788 1_555
O56 P32 1.531202 1_555
O57 P33 1.535533 1_555
O58 P34 1.536230 1_555
O59 P35 1.531360 1_555
O60 P34 1.555086 1_555
O61 P35 1.549792 1_555
O62 P30 1.548812 1_555
O63 P31 1.551517 1_555
O64 P32 1.551268 1_555
O65 P33 1.553744 1_555
O66 P26 1.558091 1_555
O67 P27 1.555692 1_555
O68 P28 1.554496 1_555
O69 P29 1.558780 1_555
O70 P24 1.552838 1_555
O71 P25 1.553526 1_555
O72 P34 1.548025 1_555
O73 P35 1.548078 1_555
O74 P30 1.547478 1_555
O75 P31 1.547030 1_555
O76 P32 1.546587 1_555
O77 P33 1.551143 1_555
O78 P26 1.544665 1_555
O79 P27 1.543738 1_555
O80 P28 1.542689 1_555
O81 P29 1.546673 1_555
O82 P24 1.541487 1_555
O83 P25 1.543008 1_555
O84 P12 1.562639 1_555
O85 P13 1.563977 1_555
O86 P14 1.561992 1_555
O87 P15 1.563923 1_555
O88 P16 1.565468 1_555
O89 P17 1.565078 1_555
O90 P18 1.545628 1_555
O91 P19 1.558325 1_555
O92 P20 1.542493 1_555
O93 P21 1.563460 1_555
O94 P22 1.542223 1_555
O95 P23 1.563487 1_555
O96 P10 1.536216 1_555
O97 P11 1.535430 1_555
O98 P6 1.523797 1_555
O99 P7 1.525113 1_555
O100 P9 1.524144 1_555
O101 P8 1.524023 1_655
O102 P2 1.548351 1_555
O103 P3 1.536099 1_555
O104 P5 1.540130 1_555
O105 P4 1.526925 1_555
O106 P0 1.542361 1_555
O107 P1 1.527254 1_555
O108 P24 1.538846 1_555
O109 P25 1.534756 1_555
O110 P27 1.541910 1_555
O111 P26 1.537297 1_655
O112 P28 1.540906 1_545
O113 P29 1.538631 1_545
O114 P30 1.540164 1_545
O115 P31 1.538428 1_545
O116 P32 1.539519 1_555
O117 P33 1.541655 1_555
O118 P35 1.539216 1_555
O119 P34 1.541981 1_655
O120 P22 1.548215 1_555
O121 P23 1.559420 1_555
O122 P19 1.565962 1_455
O123 P18 1.543685 1_555
O124 P20 1.545899 1_565
O125 P21 1.562285 1_565
O126 P14 1.555621 1_565
O127 P15 1.556907 1_565
O128 P16 1.556946 1_555
O129 P17 1.557412 1_555
O130 P13 1.557265 1_455
O131 P12 1.556126 1_555
O132 P0 1.557340 1_565
O133 P1 1.550910 1_565
O134 P2 1.549939 1_555
O135 P3 1.557064 1_555
O136 P4 1.572733 1_455
O137 P5 1.556154 1_555
O138 P6 1.563196 1_555
O139 P7 1.562647 1_555
O140 P8 1.583897 1_555
O141 P9 1.582962 1_555
O142 P10 1.562987 1_565
O143 P11 1.562073 1_565
