# generated using pymatgen
data_MgV2Bi2(PbO5)2
_symmetry_space_group_name_H-M   'P 1'
_cell_length_a   5.99878455
_cell_length_b   7.50425976
_cell_length_c   7.60926021
_cell_angle_alpha   111.26954586
_cell_angle_beta   117.57752288
_cell_angle_gamma   83.57578685
_symmetry_Int_Tables_number   1
_chemical_formula_structural   MgV2Bi2(PbO5)2
_chemical_formula_sum   'Mg1 V2 Bi2 Pb2 O10'
_cell_volume   282.29027408
_cell_formula_units_Z   1
loop_
 _symmetry_equiv_pos_site_id
 _symmetry_equiv_pos_as_xyz
  1  'x, y, z'
loop_
 _atom_site_type_symbol
 _atom_site_label
 _atom_site_symmetry_multiplicity
 _atom_site_fract_x
 _atom_site_fract_y
 _atom_site_fract_z
 _atom_site_occupancy
  Mg  Mg0  1  0.06330500  0.86067500  0.08539600  1
  V  V0  1  0.17947200  0.62604600  0.32932100  1
  V  V1  1  0.82692000  0.36830500  0.68700400  1
  Bi  Bi0  1  0.44792900  0.23170300  0.04760500  1
  Bi  Bi1  1  0.52825900  0.72949500  0.94842800  1
  Pb  Pb0  1  0.16012400  0.24567500  0.44164000  1
  Pb  Pb1  1  0.77351100  0.90733500  0.62100500  1
  O  O0  1  0.27543500  0.96949600  0.00374000  1
  O  O1  1  0.70634000  0.96274000  0.94887800  1
  O  O2  1  0.74376200  0.32802300  0.40686000  1
  O  O3  1  0.26793200  0.58528700  0.57876700  1
  O  O4  1  0.61278200  0.21797800  0.68491800  1
  O  O5  1  0.91401500  0.77959000  0.26375900  1
  O  O6  1  0.88237000  0.62015500  0.83794600  1
  O  O7  1  0.15371800  0.38314000  0.15229000  1
  O  O8  1  0.11627700  0.23235000  0.72624200  1
  O  O9  1  0.38356300  0.76682300  0.30101700  1
loop_
_geom_bond_atom_site_label_1
_geom_bond_atom_site_label_2
_geom_bond_distance
_geom_bond_site_symmetry_2
Mg0 O0 2.001249 1_555
Mg0 O6 2.015356 1_454
Mg0 O1 2.098040 1_454
Mg0 O9 2.120354 1_555
Mg0 O5 2.204720 1_455
Mg0 Pb0 3.044402 1_565
Bi0 O0 2.170989 1_545
Bi0 O7 2.288449 1_555
Bi0 O8 2.332334 1_554
Bi0 O2 2.346580 1_555
Bi0 O1 2.513793 1_544
Bi1 O1 2.148386 1_555
Bi1 O0 2.269550 1_556
Bi1 O3 2.371606 1_555
Bi1 O5 2.377555 1_556
Bi1 O6 2.579799 1_555
O1 Pb1 2.588503 1_555
O2 V1 1.861713 1_555
O2 Pb0 2.418985 1_655
O3 V0 1.852086 1_555
O3 Pb0 2.411796 1_555
O4 V1 1.793145 1_555
O4 Pb1 2.389366 1_545
O4 Pb0 2.518350 1_555
O5 V0 1.839352 1_655
O6 V1 1.792706 1_555
O7 V0 1.802784 1_555
O7 Pb0 2.733841 1_555
O8 V1 1.867582 1_455
O8 Pb0 2.336547 1_555
O9 V0 1.833023 1_555
O9 Pb1 2.434751 1_555
