# generated using pymatgen
data_Ho3Ge3Ir2
_symmetry_space_group_name_H-M   'P 1'
_cell_length_a   4.29001969
_cell_length_b   5.61490375
_cell_length_c   14.20095286
_cell_angle_alpha   90.00000000
_cell_angle_beta   90.00000000
_cell_angle_gamma   112.45890442
_symmetry_Int_Tables_number   1
_chemical_formula_structural   Ho3Ge3Ir2
_chemical_formula_sum   'Ho6 Ge6 Ir4'
_cell_volume   316.12826619
_cell_formula_units_Z   2
loop_
 _symmetry_equiv_pos_site_id
 _symmetry_equiv_pos_as_xyz
  1  'x, y, z'
loop_
 _atom_site_type_symbol
 _atom_site_label
 _atom_site_symmetry_multiplicity
 _atom_site_fract_x
 _atom_site_fract_y
 _atom_site_fract_z
 _atom_site_occupancy
  Ho  Ho0  1  0.08509788  0.17019475  0.10986226  1
  Ho  Ho1  1  0.91490212  0.82980525  0.89013774  1
  Ho  Ho2  1  0.91490212  0.82980525  0.60986226  1
  Ho  Ho3  1  0.08509788  0.17019475  0.39013774  1
  Ho  Ho4  1  0.35728919  0.71457737  0.25000000  1
  Ho  Ho5  1  0.64271081  0.28542263  0.75000000  1
  Ge  Ge0  1  0.65637387  0.31274874  0.25000000  1
  Ge  Ge1  1  0.34362613  0.68725126  0.75000000  1
  Ge  Ge2  1  0.62384571  0.24769041  0.53562119  1
  Ge  Ge3  1  0.37615429  0.75230959  0.46437881  1
  Ge  Ge4  1  0.37615429  0.75230959  0.03562119  1
  Ge  Ge5  1  0.62384571  0.24769041  0.96437881  1
  Ir  Ir0  1  0.19991384  0.39982668  0.60221715  1
  Ir  Ir1  1  0.80008616  0.60017332  0.39778285  1
  Ir  Ir2  1  0.80008616  0.60017332  0.10221715  1
  Ir  Ir3  1  0.19991384  0.39982668  0.89778285  1
loop_
_geom_bond_atom_site_label_1
_geom_bond_atom_site_label_2
_geom_bond_distance
_geom_bond_site_symmetry_2
Ho0 Ir2 2.959853 1_445
Ho0 Ir2 3.096930 1_555
Ho0 Ir2 3.096935 1_455
Ho0 Ir3 3.238881 1_554
Ho1 Ir3 2.959853 1_665
Ho1 Ir3 3.096930 1_555
Ho1 Ir3 3.096935 1_655
Ho1 Ir2 3.238881 1_556
Ho2 Ir0 2.959853 1_665
Ho2 Ir0 3.096930 1_555
Ho2 Ir0 3.096935 1_655
Ho2 Ir1 3.238881 1_555
Ho3 Ir1 2.959853 1_445
Ho3 Ir1 3.096930 1_555
Ho3 Ir1 3.096935 1_455
Ho3 Ir0 3.238881 1_555
Ho4 Ir2 3.059057 1_555
Ho4 Ir1 3.059057 1_555
Ho4 Ir2 3.059063 1_455
Ho4 Ir1 3.059063 1_455
Ho5 Ir3 3.059057 1_555
Ho5 Ir0 3.059057 1_555
Ho5 Ir3 3.059063 1_655
Ho5 Ir0 3.059063 1_655
Ge0 Ir2 2.574646 1_555
Ge0 Ir1 2.574646 1_555
Ge0 Ho4 2.991438 1_555
Ge0 Ho4 2.991444 1_655
Ge0 Ho0 3.018060 1_555
Ge0 Ho3 3.018060 1_555
Ge0 Ho0 3.018066 1_655
Ge0 Ho3 3.018066 1_655
Ge0 Ho4 3.103932 1_545
Ge1 Ir3 2.574646 1_555
Ge1 Ir0 2.574646 1_555
Ge1 Ho5 2.991438 1_555
Ge1 Ho5 2.991444 1_455
Ge1 Ho1 3.018060 1_555
Ge1 Ho2 3.018060 1_555
Ge1 Ho1 3.018066 1_455
Ge1 Ho2 3.018066 1_455
Ge1 Ho5 3.103932 1_565
Ge2 Ir0 2.473597 1_555
Ge2 Ir0 2.473597 1_655
Ge2 Ir1 2.678986 1_555
Ge2 Ge3 2.762476 1_545
Ge2 Ho3 3.005186 1_655
Ge2 Ho3 3.005186 1_555
Ge2 Ho5 3.050673 1_555
Ge2 Ho2 3.199319 1_555
Ge2 Ho2 3.227171 1_545
Ge2 Ho2 3.227177 1_445
Ge3 Ir1 2.473597 1_555
Ge3 Ir1 2.473597 1_455
Ge3 Ir0 2.678986 1_555
Ge3 Ho2 3.005186 1_455
Ge3 Ho2 3.005186 1_555
Ge3 Ho4 3.050673 1_555
Ge3 Ho3 3.199319 1_555
Ge3 Ho3 3.227171 1_565
Ge3 Ho3 3.227177 1_665
Ge4 Ir2 2.473597 1_555
Ge4 Ir2 2.473597 1_455
Ge4 Ir3 2.678986 1_554
Ge4 Ge5 2.762476 1_564
Ge4 Ho1 3.005186 1_454
Ge4 Ho1 3.005186 1_554
Ge4 Ho4 3.050673 1_555
Ge4 Ho0 3.199319 1_555
Ge4 Ho0 3.227171 1_565
Ge4 Ho0 3.227177 1_665
Ge5 Ir3 2.473597 1_555
Ge5 Ir3 2.473597 1_655
Ge5 Ir2 2.678986 1_556
Ge5 Ho0 3.005186 1_656
Ge5 Ho0 3.005186 1_556
Ge5 Ho5 3.050673 1_555
Ge5 Ho1 3.199319 1_555
Ge5 Ho1 3.227171 1_545
Ge5 Ho1 3.227177 1_445
