# generated using pymatgen
data_CaH2
_symmetry_space_group_name_H-M   'P 1'
_cell_length_a   3.56828652
_cell_length_b   5.89884487
_cell_length_c   6.77455253
_cell_angle_alpha   90.00000000
_cell_angle_beta   90.00000000
_cell_angle_gamma   90.00000000
_symmetry_Int_Tables_number   1
_chemical_formula_structural   CaH2
_chemical_formula_sum   'Ca4 H8'
_cell_volume   142.59598880
_cell_formula_units_Z   4
loop_
 _symmetry_equiv_pos_site_id
 _symmetry_equiv_pos_as_xyz
  1  'x, y, z'
loop_
 _atom_site_type_symbol
 _atom_site_label
 _atom_site_symmetry_multiplicity
 _atom_site_fract_x
 _atom_site_fract_y
 _atom_site_fract_z
 _atom_site_occupancy
  Ca  Ca0  1  0.25000000  0.73948903  0.38921790  1
  Ca  Ca1  1  0.75000000  0.26051097  0.61078210  1
  Ca  Ca2  1  0.25000000  0.23948903  0.11078210  1
  Ca  Ca3  1  0.75000000  0.76051097  0.88921790  1
  H  H0  1  0.25000000  0.47414221  0.82285509  1
  H  H1  1  0.75000000  0.52585779  0.17714491  1
  H  H2  1  0.25000000  0.97414221  0.67714491  1
  H  H3  1  0.75000000  0.02585779  0.32285509  1
  H  H4  1  0.75000000  0.64452886  0.57248197  1
  H  H5  1  0.25000000  0.35547114  0.42751803  1
  H  H6  1  0.75000000  0.14452886  0.92751803  1
  H  H7  1  0.25000000  0.85547114  0.07248197  1
loop_
_geom_bond_atom_site_label_1
_geom_bond_atom_site_label_2
_geom_bond_distance
_geom_bond_site_symmetry_2
Ca0 H4 2.244625 1_555
Ca0 H4 2.244625 1_455
Ca0 H7 2.252175 1_555
Ca0 H5 2.280073 1_555
Ca0 H2 2.391801 1_555
Ca0 H3 2.497766 1_565
Ca0 H3 2.497766 1_465
Ca0 H1 2.614445 1_555
Ca0 H1 2.614445 1_455
Ca1 H5 2.244625 1_555
Ca1 H5 2.244625 1_655
Ca1 H6 2.252175 1_555
Ca1 H4 2.280073 1_555
Ca1 H3 2.391801 1_555
Ca1 H2 2.497766 1_645
Ca1 H2 2.497766 1_545
Ca1 H0 2.614445 1_555
Ca1 H0 2.614445 1_655
Ca2 H6 2.244625 1_454
Ca2 H6 2.244625 1_554
Ca2 H5 2.252175 1_555
Ca2 H7 2.280073 1_545
Ca2 H0 2.391801 1_554
Ca2 H1 2.497766 1_555
Ca2 H1 2.497766 1_455
Ca2 H3 2.614445 1_455
Ca2 H3 2.614445 1_555
Ca3 H7 2.244625 1_556
Ca3 H7 2.244625 1_656
Ca3 H4 2.252175 1_555
Ca3 H6 2.280073 1_565
Ca3 H1 2.391801 1_556
Ca3 H0 2.497766 1_555
Ca3 H0 2.497766 1_655
Ca3 H2 2.614445 1_555
Ca3 H2 2.614445 1_655
