# generated using pymatgen
data_MgMo2(RhO3)4
_symmetry_space_group_name_H-M   'P 1'
_cell_length_a   4.75128187
_cell_length_b   4.78220260
_cell_length_c   9.38975300
_cell_angle_alpha   90.00000000
_cell_angle_beta   90.00000000
_cell_angle_gamma   89.45915067
_symmetry_Int_Tables_number   1
_chemical_formula_structural   MgMo2(RhO3)4
_chemical_formula_sum   'Mg1 Mo2 Rh4 O12'
_cell_volume   213.34063595
_cell_formula_units_Z   1
loop_
 _symmetry_equiv_pos_site_id
 _symmetry_equiv_pos_as_xyz
  1  'x, y, z'
loop_
 _atom_site_type_symbol
 _atom_site_label
 _atom_site_symmetry_multiplicity
 _atom_site_fract_x
 _atom_site_fract_y
 _atom_site_fract_z
 _atom_site_occupancy
  Mg  Mg0  1  0.50000000  0.00000000  0.19624300  1
  Mo  Mo0  1  0.00000000  0.00000000  0.98198500  1
  Mo  Mo1  1  0.50000000  0.50000000  0.50202600  1
  Rh  Rh0  1  0.50000000  0.50000000  0.82732500  1
  Rh  Rh1  1  0.00000000  0.00000000  0.33223100  1
  Rh  Rh2  1  0.50000000  0.50000000  0.15956100  1
  Rh  Rh3  1  0.00000000  0.00000000  0.66020100  1
  O  O0  1  0.68590100  0.70205200  0.65925300  1
  O  O1  1  0.31409900  0.29794800  0.65925300  1
  O  O2  1  0.66966100  0.71934800  0.33033100  1
  O  O3  1  0.16820000  0.78391600  0.15674300  1
  O  O4  1  0.83180000  0.21608400  0.15674300  1
  O  O5  1  0.81429300  0.20569800  0.82812600  1
  O  O6  1  0.31866300  0.27264800  0.99780600  1
  O  O7  1  0.18920700  0.78408400  0.49438400  1
  O  O8  1  0.81079300  0.21591600  0.49438400  1
  O  O9  1  0.68133700  0.72735200  0.99780600  1
  O  O10  1  0.33033900  0.28065200  0.33033100  1
  O  O11  1  0.18570700  0.79430200  0.82812600  1
loop_
_geom_bond_atom_site_label_1
_geom_bond_atom_site_label_2
_geom_bond_distance
_geom_bond_site_symmetry_2
Mg0 O3 1.929098 1_545
Mg0 O4 1.929098 1_555
Mg0 O10 2.003977 1_555
Mg0 O2 2.003977 1_545
Mg0 O6 2.427541 1_554
Mg0 O9 2.427541 1_544
Mo0 O11 1.953701 1_545
Mo0 O5 1.953701 1_455
Mo0 O6 2.012897 1_555
Mo0 O9 2.012897 1_445
Mo0 O3 2.093697 1_546
Mo0 O4 2.093697 1_456
Mo1 O0 1.977233 1_555
Mo1 O1 1.977233 1_555
Mo1 O7 1.998366 1_555
Mo1 O8 1.998366 1_555
Mo1 O2 2.089308 1_555
Mo1 O10 2.089308 1_555
O0 Rh0 2.054384 1_555
O0 Rh3 2.073063 1_665
O1 Rh0 2.054384 1_555
O1 Rh3 2.073063 1_555
O2 Rh1 2.074813 1_665
O2 Rh2 2.082613 1_555
O3 Rh2 2.070998 1_555
O3 Rh1 2.099074 1_565
O4 Rh2 2.070998 1_555
O4 Rh1 2.099074 1_655
O5 Rh0 2.042331 1_555
O5 Rh3 2.053293 1_655
O6 Rh2 2.061306 1_556
O6 Rh0 2.122401 1_555
O7 Rh1 2.043292 1_565
O7 Rh3 2.069055 1_565
O8 Rh1 2.043292 1_655
O8 Rh3 2.069055 1_655
O9 Rh2 2.061306 1_556
O9 Rh0 2.122401 1_555
O10 Rh1 2.074813 1_555
O10 Rh2 2.082613 1_555
O11 Rh0 2.042331 1_555
O11 Rh3 2.053293 1_565
