# generated using pymatgen
data_MoF4
_symmetry_space_group_name_H-M   'P 1'
_cell_length_a   4.92610602
_cell_length_b   5.22054729
_cell_length_c   5.67516106
_cell_angle_alpha   116.62740848
_cell_angle_beta   102.50717972
_cell_angle_gamma   90.03018914
_symmetry_Int_Tables_number   1
_chemical_formula_structural   MoF4
_chemical_formula_sum   'Mo2 F8'
_cell_volume   126.57372544
_cell_formula_units_Z   2
loop_
 _symmetry_equiv_pos_site_id
 _symmetry_equiv_pos_as_xyz
  1  'x, y, z'
loop_
 _atom_site_type_symbol
 _atom_site_label
 _atom_site_symmetry_multiplicity
 _atom_site_fract_x
 _atom_site_fract_y
 _atom_site_fract_z
 _atom_site_occupancy
  Mo  Mo0  1  0.97801094  0.46519929  0.02811776  1
  Mo  Mo1  1  0.53324560  0.96265353  0.02351247  1
  F  F0  1  0.69601939  0.60293572  0.79611899  1
  F  F1  1  0.84323182  0.84543664  0.26794016  1
  F  F2  1  0.26736637  0.26782224  0.18337033  1
  F  F3  1  0.32076233  0.77362689  0.18592275  1
  F  F4  1  0.14311958  0.32412469  0.73788566  1
  F  F5  1  0.22814674  0.81739039  0.72637910  1
  F  F6  1  0.70371120  0.10300387  0.79565326  1
  F  F7  1  0.78356604  0.34517075  0.26763152  1
loop_
_geom_bond_atom_site_label_1
_geom_bond_atom_site_label_2
_geom_bond_distance
_geom_bond_site_symmetry_2
F0 Mo1 2.027900 1_556
F0 Mo0 2.058576 1_556
F1 Mo0 2.050527 1_555
F1 Mo1 2.115401 1_555
F2 Mo0 2.034996 1_455
F2 Mo1 2.073138 1_545
F3 Mo1 2.037412 1_555
F3 Mo0 2.072458 1_455
F4 Mo0 1.846734 1_456
F5 Mo1 1.852649 1_556
F6 Mo0 2.032436 1_556
F6 Mo1 2.057472 1_546
F7 Mo1 2.050681 1_545
F7 Mo0 2.117675 1_555
