# generated using pymatgen
data_V(PO3)3
_symmetry_space_group_name_H-M   'P 1'
_cell_length_a   8.55569200
_cell_length_b   8.59838300
_cell_length_c   8.71541200
_cell_angle_alpha   90.00000000
_cell_angle_beta   90.00000000
_cell_angle_gamma   90.00000000
_symmetry_Int_Tables_number   1
_chemical_formula_structural   V(PO3)3
_chemical_formula_sum   'V4 P12 O36'
_cell_volume   641.15030040
_cell_formula_units_Z   4
loop_
 _symmetry_equiv_pos_site_id
 _symmetry_equiv_pos_as_xyz
  1  'x, y, z'
loop_
 _atom_site_type_symbol
 _atom_site_label
 _atom_site_symmetry_multiplicity
 _atom_site_fract_x
 _atom_site_fract_y
 _atom_site_fract_z
 _atom_site_occupancy
  V  V0  1  0.12952900  0.14403300  0.15576100  1
  V  V1  1  0.87047100  0.64403300  0.34423900  1
  V  V2  1  0.37047100  0.85596700  0.65576100  1
  V  V3  1  0.62952900  0.35596700  0.84423900  1
  P  P0  1  0.70180600  0.30919700  0.44574500  1
  P  P1  1  0.31379700  0.48435400  0.68952200  1
  P  P2  1  0.29819400  0.80919700  0.05425500  1
  P  P3  1  0.53337600  0.82255700  0.31328500  1
  P  P4  1  0.46662400  0.32255700  0.18671500  1
  P  P5  1  0.79819400  0.69080300  0.94574500  1
  P  P6  1  0.20180600  0.19080300  0.55425500  1
  P  P7  1  0.18620300  0.51564600  0.18952200  1
  P  P8  1  0.96662400  0.17744300  0.81328500  1
  P  P9  1  0.68620300  0.98435400  0.81047800  1
  P  P10  1  0.81379700  0.01564600  0.31047800  1
  P  P11  1  0.03337600  0.67744300  0.68671500  1
  O  O0  1  0.95483900  0.71967400  0.84815700  1
  O  O1  1  0.30922100  0.08170600  0.63712300  1
  O  O2  1  0.09021800  0.12653600  0.92340600  1
  O  O3  1  0.13808000  0.80934300  0.64116800  1
  O  O4  1  0.63808000  0.69065700  0.35883200  1
  O  O5  1  0.34652700  0.84183100  0.89272800  1
  O  O6  1  0.86014300  0.03061500  0.75848900  1
  O  O7  1  0.86192000  0.30934300  0.85883200  1
  O  O8  1  0.45483900  0.78032600  0.15184300  1
  O  O9  1  0.40978200  0.87346400  0.42340600  1
  O  O10  1  0.60485000  0.90082300  0.68117600  1
  O  O11  1  0.39617700  0.62432600  0.62477100  1
  O  O12  1  0.10382300  0.37567400  0.12477100  1
  O  O13  1  0.59021800  0.37346400  0.07659400  1
  O  O14  1  0.13985700  0.53061500  0.74151100  1
  O  O15  1  0.72136800  0.86272200  0.94621800  1
  O  O16  1  0.36192000  0.19065700  0.14116800  1
  O  O17  1  0.10485000  0.59917700  0.31882400  1
  O  O18  1  0.89515000  0.09917700  0.18117600  1
  O  O19  1  0.77863200  0.13727800  0.44621800  1
  O  O20  1  0.60382300  0.12432600  0.87522900  1
  O  O21  1  0.15347300  0.15816900  0.39272800  1
  O  O22  1  0.89617700  0.87567400  0.37522900  1
  O  O23  1  0.63985700  0.96938500  0.25848900  1
  O  O24  1  0.80922100  0.41829400  0.36287700  1
  O  O25  1  0.90978200  0.62653600  0.57659400  1
  O  O26  1  0.84652700  0.65816900  0.10727200  1
  O  O27  1  0.39515000  0.40082300  0.81882400  1
  O  O28  1  0.65347300  0.34183100  0.60727200  1
  O  O29  1  0.19077900  0.91829400  0.13712300  1
  O  O30  1  0.27863200  0.36272200  0.55378200  1
  O  O31  1  0.22136800  0.63727800  0.05378200  1
  O  O32  1  0.04516100  0.21967400  0.65184300  1
  O  O33  1  0.36014300  0.46938500  0.24151100  1
  O  O34  1  0.69077900  0.58170600  0.86287700  1
  O  O35  1  0.54516100  0.28032600  0.34815700  1
loop_
_geom_bond_atom_site_label_1
_geom_bond_atom_site_label_2
_geom_bond_distance
_geom_bond_site_symmetry_2
O0 P11 1.600968 1_655
O0 P5 1.606599 1_555
O1 P6 1.498715 1_555
O1 V2 2.017038 1_545
O2 P8 1.493613 1_455
O2 V0 2.058315 1_556
O3 P11 1.498768 1_555
O3 V2 2.032262 1_555
O4 P3 1.498768 1_555
O4 V1 2.032262 1_555
O5 P2 1.493843 1_556
O5 V2 2.078956 1_555
O6 P9 1.605676 1_545
O6 P8 1.628463 1_555
O7 P8 1.498768 1_555
O7 V3 2.032262 1_555
O8 P3 1.600968 1_555
O8 P2 1.606599 1_555
O9 P3 1.493613 1_555
O9 V2 2.058315 1_555
O10 P9 1.506740 1_555
O10 V2 2.054007 1_555
O11 P1 1.504570 1_555
O11 V2 2.021964 1_555
O12 P7 1.504570 1_555
O12 V0 2.021964 1_555
O13 P4 1.493613 1_555
O13 V3 2.058315 1_554
O14 P1 1.605676 1_555
O14 P11 1.628463 1_555
O15 P9 1.607438 1_555
O15 P5 1.617779 1_555
O16 P4 1.498768 1_555
O16 V0 2.032262 1_555
O17 P7 1.506740 1_555
O17 V1 2.054007 1_455
O18 P10 1.506740 1_555
O18 V0 2.054007 1_655
O19 P10 1.607438 1_555
O19 P0 1.617779 1_555
O20 P9 1.504570 1_545
O20 V3 2.021964 1_555
O21 P6 1.493843 1_555
O21 V0 2.078956 1_555
O22 P10 1.504570 1_565
O22 V1 2.021964 1_555
O23 P10 1.605676 1_565
O23 P3 1.628463 1_555
O24 P0 1.498715 1_555
O24 V1 2.017038 1_555
O25 P11 1.493613 1_655
O25 V1 2.058315 1_555
O26 P5 1.493843 1_554
O26 V1 2.078956 1_555
O27 P1 1.506740 1_555
O27 V3 2.054007 1_555
O28 P0 1.493843 1_555
O28 V3 2.078956 1_555
O29 P2 1.498715 1_555
O29 V0 2.017038 1_565
O30 P1 1.607438 1_555
O30 P6 1.617779 1_555
O31 P7 1.607438 1_555
O31 P2 1.617779 1_555
O32 P8 1.600968 1_455
O32 P6 1.606599 1_555
O33 P7 1.605676 1_555
O33 P4 1.628463 1_555
O34 P5 1.498715 1_555
O34 V3 2.017038 1_555
O35 P4 1.600968 1_555
O35 P0 1.606599 1_555
