# generated using pymatgen
data_MgCd2Te2(MoO6)2
_symmetry_space_group_name_H-M   'P 1'
_cell_length_a   5.34286700
_cell_length_b   5.34286700
_cell_length_c   10.39293000
_cell_angle_alpha   90.00000000
_cell_angle_beta   90.00000000
_cell_angle_gamma   90.00000000
_symmetry_Int_Tables_number   1
_chemical_formula_structural   MgCd2Te2(MoO6)2
_chemical_formula_sum   'Mg1 Cd2 Te2 Mo2 O12'
_cell_volume   296.67894708
_cell_formula_units_Z   1
loop_
 _symmetry_equiv_pos_site_id
 _symmetry_equiv_pos_as_xyz
  1  'x, y, z'
loop_
 _atom_site_type_symbol
 _atom_site_label
 _atom_site_symmetry_multiplicity
 _atom_site_fract_x
 _atom_site_fract_y
 _atom_site_fract_z
 _atom_site_occupancy
  Mg  Mg0  1  0.50000000  0.50000000  0.00000000  1
  Cd  Cd0  1  0.00000000  0.00000000  0.50000000  1
  Cd  Cd1  1  0.50000000  0.50000000  0.50000000  1
  Te  Te0  1  0.00000000  0.50000000  0.26965300  1
  Te  Te1  1  0.50000000  0.00000000  0.73034700  1
  Mo  Mo0  1  0.50000000  0.00000000  0.21926700  1
  Mo  Mo1  1  0.00000000  0.50000000  0.78073300  1
  O  O0  1  0.35876900  0.23570700  0.11139000  1
  O  O1  1  0.23570700  0.64123100  0.88861000  1
  O  O2  1  0.64123100  0.76429300  0.11139000  1
  O  O3  1  0.76429300  0.35876900  0.88861000  1
  O  O4  1  0.26530600  0.78748500  0.30637200  1
  O  O5  1  0.21251500  0.26530600  0.69362800  1
  O  O6  1  0.73469400  0.21251500  0.30637200  1
  O  O7  1  0.78748500  0.73469400  0.69362800  1
  O  O8  1  0.19889700  0.30678900  0.38747700  1
  O  O9  1  0.30678900  0.80110300  0.61252300  1
  O  O10  1  0.80110300  0.69321100  0.38747700  1
  O  O11  1  0.69321100  0.19889700  0.61252300  1
loop_
_geom_bond_atom_site_label_1
_geom_bond_atom_site_label_2
_geom_bond_distance
_geom_bond_site_symmetry_2
Mg0 O0 1.975743 1_555
Mg0 O3 1.975743 1_554
Mg0 O1 1.975743 1_554
Mg0 O2 1.975743 1_555
Cd0 O10 2.276762 1_445
Cd0 O8 2.276762 1_555
Cd0 O11 2.276762 1_455
Cd0 O9 2.276762 1_545
Cd0 O4 2.710741 1_545
Cd0 O5 2.710741 1_555
Cd0 O7 2.710741 1_445
Cd0 O6 2.710741 1_455
Cd1 O8 2.240832 1_555
Cd1 O10 2.240832 1_555
Cd1 O11 2.240832 1_555
Cd1 O9 2.240832 1_555
Mo0 O0 1.847255 1_555
Mo0 O2 1.847255 1_545
Mo0 O6 1.918622 1_555
Mo0 O4 1.918622 1_545
Mo1 O3 1.847255 1_455
Mo1 O1 1.847255 1_555
Mo1 O7 1.918622 1_455
Mo1 O5 1.918622 1_555
O4 Te0 2.124665 1_555
O5 Te1 2.124665 1_555
O6 Te0 2.124665 1_655
O7 Te1 2.124665 1_565
O8 Te0 1.922088 1_555
O9 Te1 1.922088 1_565
O10 Te0 1.922088 1_655
O11 Te1 1.922088 1_555
