# generated using pymatgen
data_Na2HfZrSi2SO12
_symmetry_space_group_name_H-M   'P 1'
_cell_length_a   9.09852798
_cell_length_b   9.09740200
_cell_length_c   23.11890369
_cell_angle_alpha   89.82554661
_cell_angle_beta   90.18410048
_cell_angle_gamma   119.92900057
_symmetry_Int_Tables_number   1
_chemical_formula_structural   Na2HfZrSi2SO12
_chemical_formula_sum   'Na12 Hf6 Zr6 Si12 S6 O72'
_cell_volume   1658.41726943
_cell_formula_units_Z   6
loop_
 _symmetry_equiv_pos_site_id
 _symmetry_equiv_pos_as_xyz
  1  'x, y, z'
loop_
 _atom_site_type_symbol
 _atom_site_label
 _atom_site_symmetry_multiplicity
 _atom_site_fract_x
 _atom_site_fract_y
 _atom_site_fract_z
 _atom_site_occupancy
  Na  Na0  1  0.99172233  0.62527717  0.25465833  1
  Na  Na1  1  0.37544299  0.00737942  0.75551671  1
  Na  Na2  1  0.65844302  0.95863591  0.58809210  1
  Na  Na3  1  0.04280420  0.34126248  0.08794669  1
  Na  Na4  1  0.32519985  0.29082270  0.92175691  1
  Na  Na5  1  0.70908700  0.67403499  0.42177561  1
  Na  Na6  1  0.01726709  0.98412448  0.50127948  1
  Na  Na7  1  0.01647007  0.98257153  0.00105699  1
  Na  Na8  1  0.68437323  0.31714962  0.83473970  1
  Na  Na9  1  0.68262863  0.31584921  0.33420582  1
  Na  Na10  1  0.35058728  0.65056062  0.16762678  1
  Na  Na11  1  0.34937269  0.64919651  0.66818715  1
  Hf  Hf0  1  0.00340743  0.01518847  0.85393607  1
  Hf  Hf1  1  0.67014687  0.34828356  0.18571004  1
  Hf  Hf2  1  0.66550384  0.33275262  0.97962024  1
  Hf  Hf3  1  0.31753197  0.66270677  0.01974620  1
  Hf  Hf4  1  0.33617875  0.68086621  0.51986695  1
  Hf  Hf5  1  0.33396602  0.66791481  0.81445251  1
  Zr  Zr0  1  0.98380340  0.99638653  0.35312682  1
  Zr  Zr1  1  0.99913729  0.99936899  0.64769850  1
  Zr  Zr2  1  0.00088949  0.00062786  0.14606693  1
  Zr  Zr3  1  0.65030986  0.32952857  0.68693040  1
  Zr  Zr4  1  0.66761223  0.33423893  0.48044172  1
  Zr  Zr5  1  0.33237791  0.66610851  0.31338630  1
  Si  Si0  1  0.70336096  0.70796209  0.24965758  1
  Si  Si1  1  0.99692626  0.29396748  0.24716338  1
  Si  Si2  1  0.28862648  0.29704826  0.75138943  1
  Si  Si3  1  0.70566028  0.99945652  0.74897569  1
  Si  Si4  1  0.36931218  0.04093462  0.58347211  1
  Si  Si5  1  0.66420080  0.62793207  0.58106656  1
  Si  Si6  1  0.95498263  0.62667387  0.08277249  1
  Si  Si7  1  0.37573259  0.33667581  0.08058919  1
  Si  Si8  1  0.03788272  0.37798661  0.91690702  1
  Si  Si9  1  0.33201469  0.95934681  0.91482741  1
  Si  Si10  1  0.62214831  0.96188293  0.41739144  1
  Si  Si11  1  0.04046554  0.66831891  0.41487481  1
  S  S0  1  0.29434920  0.00447024  0.25036679  1
  S  S1  1  0.99930941  0.70823901  0.75201275  1
  S  S2  1  0.96106149  0.33725148  0.58405107  1
  S  S3  1  0.66216428  0.04286021  0.08319282  1
  S  S4  1  0.62412704  0.66885829  0.91737339  1
  S  S5  1  0.33042025  0.37503230  0.41793628  1
  O  O0  1  0.21686914  0.02739256  0.30241325  1
  O  O1  1  0.82158955  0.78831647  0.30809233  1
  O  O2  1  0.98638991  0.17817757  0.30315118  1
  O  O3  1  0.20517800  0.17619077  0.80894613  1
  O  O4  1  0.97806803  0.79054408  0.80385243  1
  O  O5  1  0.82359522  0.00944402  0.80413829  1
  O  O6  1  0.78874647  0.97500515  0.68923371  1
  O  O7  1  0.17252863  0.19383885  0.69573255  1
  O  O8  1  0.02522914  0.81395181  0.69952785  1
  O  O9  1  0.80948477  0.82772805  0.19508167  1
  O  O10  1  0.02228493  0.20915169  0.18810657  1
  O  O11  1  0.18754411  0.97993426  0.19817870  1
  O  O12  1  0.88309469  0.36034593  0.63606341  1
  O  O13  1  0.48818405  0.12194820  0.64176291  1
  O  O14  1  0.65362420  0.51134307  0.63684192  1
  O  O15  1  0.87399243  0.50900524  0.14120981  1
  O  O16  1  0.64076997  0.12139481  0.13565000  1
  O  O17  1  0.49057851  0.34621712  0.13661607  1
  O  O18  1  0.46090720  0.31241158  0.02156319  1
  O  O19  1  0.83660524  0.52114293  0.02812378  1
  O  O20  1  0.68478538  0.14905105  0.03124641  1
  O  O21  1  0.47490877  0.16023973  0.52884320  1
  O  O22  1  0.68975918  0.54388039  0.52194202  1
  O  O23  1  0.85470746  0.31284073  0.53187796  1
  O  O24  1  0.54526999  0.69186300  0.96958737  1
  O  O25  1  0.15772883  0.45934307  0.97498838  1
  O  O26  1  0.32096484  0.84244920  0.97045783  1
  O  O27  1  0.53874094  0.84307729  0.47529074  1
  O  O28  1  0.31090754  0.45715384  0.47005944  1
  O  O29  1  0.15632871  0.67650764  0.47038790  1
  O  O30  1  0.12387195  0.64438200  0.35520339  1
  O  O31  1  0.50637762  0.85783141  0.36189668  1
  O  O32  1  0.35355219  0.47988707  0.36549302  1
  O  O33  1  0.14293421  0.49674106  0.86220840  1
  O  O34  1  0.35710555  0.87468271  0.85579643  1
  O  O35  1  0.51726492  0.64394362  0.86542649  1
  O  O36  1  0.02538931  0.84142373  0.41238136  1
  O  O37  1  0.80870352  0.97269431  0.41242657  1
  O  O38  1  0.18409816  0.20420374  0.41226481  1
  O  O39  1  0.02568688  0.19053812  0.91076212  1
  O  O40  1  0.15905882  0.97565239  0.91132541  1
  O  O41  1  0.79615917  0.81480973  0.91044402  1
  O  O42  1  0.96978238  0.17762013  0.58776744  1
  O  O43  1  0.18162391  0.01907383  0.58861814  1
  O  O44  1  0.82487193  0.82352343  0.58701400  1
  O  O45  1  0.97789193  0.81541484  0.08758296  1
  O  O46  1  0.82215522  0.03444620  0.08658712  1
  O  O47  1  0.17932564  0.17540031  0.08621898  1
  O  O48  1  0.68995822  0.17239914  0.74595868  1
  O  O49  1  0.47516211  0.30753001  0.74590342  1
  O  O50  1  0.85356706  0.53760030  0.74581304  1
  O  O51  1  0.69186794  0.52160424  0.24333399  1
  O  O52  1  0.82360759  0.30850246  0.24395039  1
  O  O53  1  0.46670209  0.15070749  0.24302537  1
  O  O54  1  0.63295422  0.50903190  0.92158329  1
  O  O55  1  0.84942162  0.35507117  0.92256375  1
  O  O56  1  0.49314924  0.15531257  0.92117435  1
  O  O57  1  0.64525286  0.15030881  0.42160886  1
  O  O58  1  0.49022140  0.36678793  0.42143767  1
  O  O59  1  0.84444046  0.50756815  0.42017546  1
  O  O60  1  0.35990036  0.50977064  0.07739485  1
  O  O61  1  0.14233882  0.63900100  0.07687512  1
  O  O62  1  0.51577040  0.87063409  0.07659970  1
  O  O63  1  0.35763289  0.85445811  0.57732651  1
  O  O64  1  0.49078636  0.64241528  0.57797426  1
  O  O65  1  0.13332142  0.48338827  0.57686810  1
  O  O66  1  0.30333440  0.84495583  0.25391469  1
  O  O67  1  0.51554109  0.68586998  0.25451875  1
  O  O68  1  0.15765245  0.48969632  0.25293716  1
  O  O69  1  0.31173453  0.48523137  0.75686621  1
  O  O70  1  0.15923748  0.69972505  0.75657158  1
  O  O71  1  0.51011726  0.83863718  0.75539530  1
loop_
_geom_bond_atom_site_label_1
_geom_bond_atom_site_label_2
_geom_bond_distance
_geom_bond_site_symmetry_2
Na0 O68 2.379290 1_655
Na0 O51 2.414671 1_555
Na0 O52 2.511816 1_555
Na0 O66 2.525634 1_655
Na0 O30 2.579753 1_655
Na0 O15 2.830833 1_555
Na0 O1 2.904602 1_555
Na1 O71 2.394804 1_545
Na1 O49 2.419539 1_555
Na1 O48 2.491332 1_555
Na1 O70 2.491950 1_545
Na1 O34 2.577673 1_545
Na1 O13 2.826400 1_555
Na1 O3 2.946533 1_555
Na2 O44 2.379534 1_555
Na2 O63 2.420674 1_555
Na2 O64 2.506081 1_555
Na2 O42 2.522312 1_565
Na2 O6 2.589103 1_555
Na2 O27 2.819246 1_555
Na2 O13 2.909788 1_565
Na3 O47 2.385853 1_555
Na3 O61 2.402491 1_555
Na3 O46 2.496173 1_455
Na3 O60 2.514422 1_555
Na3 O10 2.569670 1_555
Na3 O25 2.818996 1_554
Na3 O15 2.926877 1_455
Na4 O56 2.394791 1_555
Na4 O39 2.416477 1_555
Na4 O54 2.496951 1_555
Na4 O40 2.498236 1_545
Na4 O18 2.574833 1_556
Na4 O3 2.818497 1_555
Na4 O25 2.922541 1_555
Na5 O59 2.381831 1_555
Na5 O37 2.406406 1_555
Na5 O58 2.494848 1_555
Na5 O36 2.505450 1_655
Na5 O22 2.563928 1_555
Na5 O1 2.824006 1_555
Na5 O27 2.949600 1_555
Na6 O43 2.434021 1_565
Na6 O36 2.455140 1_555
Na6 O44 2.565191 1_455
Na6 O38 2.740461 1_565
Na6 O37 2.758767 1_455
Na6 O42 2.840642 1_465
Na7 O45 2.427059 1_455
Na7 O40 2.467830 1_554
Na7 O47 2.560827 1_565
Na7 O41 2.770486 1_454
Na7 O39 2.786219 1_564
Na7 O46 2.849410 1_465
Na8 O55 2.442199 1_555
Na8 O48 2.456303 1_555
Na8 O56 2.576082 1_555
Na8 O50 2.744655 1_555
Na8 O49 2.767463 1_555
Na8 O54 2.852958 1_555
Na9 O57 2.437534 1_555
Na9 O52 2.471298 1_555
Na9 O59 2.569010 1_555
Na9 O53 2.758238 1_555
Na9 O51 2.782914 1_555
Na9 O58 2.860842 1_555
Na10 O67 2.427890 1_555
Na10 O60 2.474884 1_555
Na10 O68 2.560138 1_555
Na10 O62 2.772723 1_555
Na10 O61 2.789275 1_555
Na10 O66 2.842121 1_555
Na11 O69 2.453904 1_555
Na11 O64 2.471103 1_555
Na11 O71 2.580917 1_555
Na11 O65 2.762348 1_555
Na11 O63 2.782487 1_555
Na11 O70 2.863785 1_555
Hf0 O5 1.976786 1_455
Hf0 O3 1.979207 1_555
Hf0 O39 2.000042 1_555
Hf0 O40 2.094904 1_545
Hf0 O4 2.261194 1_445
Hf0 O41 2.270845 1_445
Hf1 O17 1.978754 1_555
Hf1 O15 1.983250 1_555
Hf1 O51 2.000043 1_555
Hf1 O52 2.093479 1_555
Hf1 O53 2.257035 1_555
Hf1 O16 2.265701 1_555
Hf2 O19 1.989071 1_556
Hf2 O18 2.026468 1_556
Hf2 O55 2.062748 1_555
Hf2 O56 2.089113 1_555
Hf2 O20 2.127748 1_556
Hf2 O54 2.217671 1_555
Hf3 O26 1.977671 1_554
Hf3 O25 1.981249 1_554
Hf3 O61 2.000129 1_555
Hf3 O60 2.093146 1_555
Hf3 O62 2.270334 1_555
Hf3 O24 2.274582 1_554
Hf4 O29 1.977699 1_555
Hf4 O27 1.981284 1_555
Hf4 O63 2.000060 1_555
Hf4 O64 2.093285 1_555
Hf4 O65 2.250162 1_555
Hf4 O28 2.250883 1_555
Hf5 O33 1.991480 1_555
Hf5 O34 2.027500 1_555
Hf5 O69 2.061969 1_555
Hf5 O71 2.088619 1_555
Hf5 O35 2.136923 1_555
Hf5 O70 2.201091 1_555
O0 S0 1.463538 1_555
O0 Zr0 2.316902 1_445
O1 Si0 1.651845 1_555
O1 Zr0 2.014878 1_555
O2 Si1 1.638888 1_555
O2 Zr0 2.005070 1_545
O3 Si2 1.649410 1_555
O4 S1 1.478410 1_555
O5 Si3 1.637275 1_545
O6 Si3 1.644678 1_555
O6 Zr1 2.054917 1_555
O7 Si2 1.631568 1_555
O7 Zr1 2.016841 1_445
O8 S1 1.490385 1_455
O8 Zr1 2.173229 1_455
O9 Si0 1.631291 1_555
O9 Zr2 2.014811 1_665
O10 Si1 1.642807 1_455
O10 Zr2 2.054927 1_555
O11 S0 1.492493 1_565
O11 Zr2 2.162306 1_565
O12 S2 1.465960 1_555
O12 Zr3 2.317099 1_555
O13 Si4 1.652364 1_555
O13 Zr3 2.013701 1_555
O14 Si5 1.639388 1_555
O14 Zr3 2.004118 1_555
O15 Si6 1.650640 1_555
O16 S3 1.471286 1_555
O17 Si7 1.636656 1_555
O18 Si7 1.640367 1_555
O19 Si6 1.626289 1_555
O20 S3 1.487958 1_555
O21 Si4 1.629440 1_555
O21 Zr4 2.016022 1_555
O22 Si5 1.641039 1_555
O22 Zr4 2.055464 1_555
O23 S2 1.490058 1_555
O23 Zr4 2.160097 1_555
O24 S4 1.474002 1_555
O25 Si8 1.652631 1_555
O26 Si9 1.637366 1_555
O27 Si10 1.647758 1_555
O28 S5 1.476812 1_555
O29 Si11 1.636306 1_555
O30 Si11 1.643136 1_555
O30 Zr5 2.051618 1_555
O31 Si10 1.629531 1_555
O31 Zr5 2.012815 1_555
O32 S5 1.489458 1_555
O32 Zr5 2.161051 1_555
O33 Si8 1.627556 1_555
O34 Si9 1.640644 1_555
O35 S4 1.487703 1_555
O36 Si11 1.648362 1_555
O36 Zr0 2.127060 1_455
O37 Si10 1.654852 1_555
O37 Zr0 2.033142 1_555
O38 S5 1.463003 1_555
O38 Zr0 2.307906 1_445
O39 Si8 1.659240 1_555
O40 Si9 1.654374 1_555
O41 S4 1.471435 1_555
O42 S2 1.495604 1_555
O42 Zr1 2.244290 1_545
O43 Si4 1.622397 1_555
O43 Zr1 2.090603 1_445
O44 Si5 1.651275 1_555
O44 Zr1 2.123627 1_555
O45 Si6 1.627256 1_555
O45 Zr2 2.090752 1_665
O46 S3 1.497145 1_555
O46 Zr2 2.261076 1_655
O47 Si7 1.657431 1_555
O47 Zr2 2.122131 1_555
O48 Si3 1.650514 1_545
O48 Zr3 2.129638 1_555
O49 Si2 1.656950 1_555
O49 Zr3 2.032847 1_555
O50 S1 1.461104 1_555
O50 Zr3 2.315753 1_555
O51 Si0 1.652605 1_555
O52 Si1 1.648338 1_555
O53 S0 1.475264 1_555
O54 S4 1.498555 1_555
O55 Si8 1.626467 1_655
O56 Si9 1.655704 1_545
O57 Si10 1.622788 1_545
O57 Zr4 2.088944 1_555
O58 S5 1.494720 1_555
O58 Zr4 2.239139 1_555
O59 Si11 1.652975 1_655
O59 Zr4 2.117949 1_555
O60 Si7 1.652725 1_555
O61 Si6 1.657616 1_455
O62 S3 1.473077 1_565
O63 Si4 1.652547 1_565
O64 Si5 1.648830 1_555
O65 S2 1.473986 1_455
O66 S0 1.495630 1_565
O66 Zr5 2.240665 1_555
O67 Si0 1.622249 1_555
O67 Zr5 2.091868 1_555
O68 Si1 1.651914 1_455
O68 Zr5 2.123562 1_555
O69 Si2 1.622678 1_555
O70 S1 1.498626 1_455
O71 Si3 1.652540 1_555
