# generated using pymatgen
data_K(BH)5
_symmetry_space_group_name_H-M   'P 1'
_cell_length_a   11.15683857
_cell_length_b   6.75432245
_cell_length_c   14.21130534
_cell_angle_alpha   63.76600591
_cell_angle_beta   90.00000000
_cell_angle_gamma   90.00000000
_symmetry_Int_Tables_number   1
_chemical_formula_structural   K(BH)5
_chemical_formula_sum   'K8 B40 H40'
_cell_volume   960.61097351
_cell_formula_units_Z   8
loop_
 _symmetry_equiv_pos_site_id
 _symmetry_equiv_pos_as_xyz
  1  'x, y, z'
loop_
 _atom_site_type_symbol
 _atom_site_label
 _atom_site_symmetry_multiplicity
 _atom_site_fract_x
 _atom_site_fract_y
 _atom_site_fract_z
 _atom_site_occupancy
  K  K0  1  0.63067218  0.81803292  0.44717982  1
  K  K1  1  0.13067218  0.18196708  0.05282018  1
  K  K2  1  0.36932782  0.18196708  0.55282018  1
  K  K3  1  0.86932782  0.81803292  0.94717982  1
  K  K4  1  0.53320298  0.38934564  0.84136703  1
  K  K5  1  0.03320298  0.61065436  0.65863297  1
  K  K6  1  0.46679702  0.61065436  0.15863297  1
  K  K7  1  0.96679702  0.38934564  0.34136703  1
  B  B0  1  0.82367161  0.00724041  0.13749785  1
  B  B1  1  0.32367161  0.99275959  0.36250215  1
  B  B2  1  0.17632839  0.99275959  0.86250215  1
  B  B3  1  0.67632839  0.00724041  0.63749785  1
  B  B4  1  0.71998932  0.39740526  0.12976861  1
  B  B5  1  0.21998932  0.60259474  0.37023139  1
  B  B6  1  0.28001068  0.60259474  0.87023139  1
  B  B7  1  0.78001068  0.39740526  0.62976861  1
  B  B8  1  0.63640447  0.19050573  0.21832763  1
  B  B9  1  0.13640447  0.80949427  0.28167237  1
  B  B10  1  0.36359553  0.80949427  0.78167237  1
  B  B11  1  0.86359553  0.19050573  0.71832763  1
  B  B12  1  0.73217574  0.38002808  0.00736098  1
  B  B13  1  0.23217574  0.61997192  0.49263902  1
  B  B14  1  0.26782426  0.61997192  0.99263902  1
  B  B15  1  0.76782426  0.38002808  0.50736098  1
  B  B16  1  0.85776876  0.29913327  0.09977640  1
  B  B17  1  0.35776876  0.70086673  0.40022360  1
  B  B18  1  0.14223124  0.70086673  0.90022360  1
  B  B19  1  0.64223124  0.29913327  0.59977640  1
  B  B20  1  0.60699294  0.24817299  0.09182279  1
  B  B21  1  0.10699294  0.75182701  0.40817721  1
  B  B22  1  0.39300706  0.75182701  0.90817721  1
  B  B23  1  0.89300706  0.24817299  0.59182279  1
  B  B24  1  0.78486975  0.13339205  0.22246694  1
  B  B25  1  0.28486975  0.86660795  0.27753306  1
  B  B26  1  0.21513025  0.86660795  0.77753306  1
  B  B27  1  0.71513025  0.13339205  0.72246694  1
  B  B28  1  0.69926552  0.08985749  0.04560345  1
  B  B29  1  0.19926552  0.91014251  0.45439655  1
  B  B30  1  0.30073448  0.91014251  0.95439655  1
  B  B31  1  0.80073448  0.08985749  0.54560345  1
  B  B32  1  0.67226698  0.98613115  0.18461959  1
  B  B33  1  0.17226698  0.01386885  0.31538041  1
  B  B34  1  0.32773302  0.01386885  0.81538041  1
  B  B35  1  0.82773302  0.98613115  0.68461959  1
  B  B36  1  0.83927272  0.19906378  0.01052858  1
  B  B37  1  0.33927272  0.80093622  0.48947142  1
  B  B38  1  0.16072728  0.80093622  0.98947142  1
  B  B39  1  0.66072728  0.19906378  0.51052858  1
  H  H0  1  0.88377569  0.84389026  0.17124301  1
  H  H1  1  0.38377569  0.15610974  0.32875699  1
  H  H2  1  0.11622431  0.15610974  0.82875699  1
  H  H3  1  0.61622431  0.84389026  0.67124301  1
  H  H4  1  0.71360795  0.54274321  0.92704386  1
  H  H5  1  0.21360795  0.45725679  0.57295614  1
  H  H6  1  0.28639205  0.45725679  0.07295614  1
  H  H7  1  0.78639205  0.54274321  0.42704386  1
  H  H8  1  0.71944341  0.57634787  0.12846638  1
  H  H9  1  0.21944341  0.42365213  0.37153362  1
  H  H10  1  0.28055659  0.42365213  0.87153362  1
  H  H11  1  0.78055659  0.57634787  0.62846638  1
  H  H12  1  0.57104100  0.19128322  0.28396459  1
  H  H13  1  0.07104100  0.80871678  0.21603541  1
  H  H14  1  0.42895900  0.80871678  0.71603541  1
  H  H15  1  0.92895900  0.19128322  0.78396459  1
  H  H16  1  0.84067856  0.07854861  0.30223488  1
  H  H17  1  0.34067856  0.92145139  0.19776512  1
  H  H18  1  0.15932144  0.92145139  0.69776512  1
  H  H19  1  0.65932144  0.07854861  0.80223488  1
  H  H20  1  0.65131954  0.00039698  0.99883598  1
  H  H21  1  0.15131954  0.99960302  0.50116402  1
  H  H22  1  0.34868046  0.99960302  0.00116402  1
  H  H23  1  0.84868046  0.00039698  0.49883598  1
  H  H24  1  0.90554014  0.20891383  0.94270339  1
  H  H25  1  0.40554014  0.79108617  0.55729661  1
  H  H26  1  0.09445986  0.79108617  0.05729661  1
  H  H27  1  0.59445986  0.20891383  0.44270339  1
  H  H28  1  0.50699278  0.29638758  0.05874203  1
  H  H29  1  0.00699278  0.70361242  0.44125797  1
  H  H30  1  0.49300722  0.70361242  0.94125797  1
  H  H31  1  0.99300722  0.29638758  0.55874203  1
  H  H32  1  0.94842168  0.39490684  0.10078614  1
  H  H33  1  0.44842168  0.60509316  0.39921386  1
  H  H34  1  0.05157832  0.60509316  0.89921386  1
  H  H35  1  0.55157832  0.39490684  0.60078614  1
  H  H36  1  0.63121457  0.80460651  0.23321351  1
  H  H37  1  0.13121457  0.19539349  0.26678649  1
  H  H38  1  0.36878543  0.19539349  0.76678649  1
  H  H39  1  0.86878543  0.80460651  0.73321351  1
loop_
_geom_bond_atom_site_label_1
_geom_bond_atom_site_label_2
_geom_bond_distance
_geom_bond_site_symmetry_2
B0 H0 1.195486 1_545
B1 H1 1.195486 1_565
B2 H2 1.195486 1_565
B3 H3 1.195486 1_545
B4 H8 1.200586 1_555
B5 H9 1.200586 1_555
B6 H10 1.200586 1_555
B7 H11 1.200586 1_555
B8 H12 1.185856 1_555
B9 H13 1.185856 1_555
B10 H14 1.185856 1_555
B11 H15 1.185856 1_555
B12 H4 1.201905 1_554
B13 H5 1.201905 1_555
B14 H6 1.201905 1_556
B15 H7 1.201905 1_555
B16 H32 1.204078 1_555
B17 H33 1.204078 1_555
B18 H34 1.204078 1_555
B19 H35 1.204078 1_555
B20 H28 1.198528 1_555
B21 H29 1.198528 1_555
B22 H30 1.198528 1_555
B23 H31 1.198528 1_555
B24 H16 1.199472 1_555
B25 H17 1.199472 1_555
B26 H18 1.199472 1_555
B27 H19 1.199472 1_555
B28 H20 1.203341 1_554
B29 H21 1.203341 1_555
B30 H22 1.203341 1_556
B31 H23 1.203341 1_555
B32 H36 1.200580 1_555
B33 H37 1.200580 1_555
B34 H38 1.200580 1_555
B35 H39 1.200580 1_555
B36 H24 1.193072 1_554
B37 H25 1.193072 1_555
B38 H26 1.193072 1_556
B39 H27 1.193072 1_555
H4 K3 2.651036 1_555
H4 K4 2.778929 1_555
H5 K2 2.651036 1_555
H5 K5 2.778929 1_555
H6 K1 2.651036 1_555
H6 K6 2.778929 1_555
H7 K0 2.651036 1_555
H7 K7 2.778929 1_555
H8 K6 2.875860 1_555
H8 K3 2.894907 1_554
H9 K7 2.875860 1_455
H9 K2 2.894907 1_555
H10 K4 2.875860 1_555
H10 K1 2.894907 1_556
H11 K5 2.875860 1_655
H11 K0 2.894907 1_555
H12 K0 2.647395 1_545
H12 K6 2.843974 1_555
H13 K1 2.647395 1_565
H13 K7 2.843974 1_455
H14 K2 2.647395 1_565
H14 K4 2.843974 1_555
H15 K3 2.647395 1_545
H15 K5 2.843974 1_655
H16 K7 2.779924 1_555
H17 K6 2.779924 1_555
H18 K5 2.779924 1_555
H19 K4 2.779924 1_555
H20 K4 2.906654 1_555
H20 K3 2.961673 1_545
H21 K5 2.906654 1_555
H21 K2 2.961673 1_565
H22 K6 2.906654 1_555
H22 K1 2.961673 1_565
H23 K7 2.906654 1_555
H23 K0 2.961673 1_545
H24 K3 2.643692 1_545
H24 K1 2.922189 1_656
H25 K2 2.643692 1_565
H25 K0 2.922189 1_555
H26 K1 2.643692 1_565
H26 K3 2.922189 1_454
H27 K0 2.643692 1_545
H27 K2 2.922189 1_555
H28 K4 2.882364 1_554
H29 K5 2.882364 1_555
H30 K6 2.882364 1_556
H31 K7 2.882364 1_555
H32 K1 2.744901 1_655
H32 K3 2.862904 1_554
H33 K0 2.744901 1_555
H33 K2 2.862904 1_555
H34 K3 2.744901 1_455
H34 K1 2.862904 1_556
H35 K2 2.744901 1_555
H35 K0 2.862904 1_555
H36 K6 2.726163 1_555
H37 K7 2.726163 1_455
H38 K4 2.726163 1_555
H39 K5 2.726163 1_655
