# generated using pymatgen
data_Na4Mg(FeO2)4
_symmetry_space_group_name_H-M   'P 1'
_cell_length_a   5.97961615
_cell_length_b   5.83561475
_cell_length_c   6.96447847
_cell_angle_alpha   89.40610539
_cell_angle_beta   89.02375161
_cell_angle_gamma   87.17662177
_symmetry_Int_Tables_number   1
_chemical_formula_structural   Na4Mg(FeO2)4
_chemical_formula_sum   'Na4 Mg1 Fe4 O8'
_cell_volume   242.68236229
_cell_formula_units_Z   1
loop_
 _symmetry_equiv_pos_site_id
 _symmetry_equiv_pos_as_xyz
  1  'x, y, z'
loop_
 _atom_site_type_symbol
 _atom_site_label
 _atom_site_symmetry_multiplicity
 _atom_site_fract_x
 _atom_site_fract_y
 _atom_site_fract_z
 _atom_site_occupancy
  Na  Na0  1  0.49026655  0.87524033  0.38164704  1
  Na  Na1  1  0.00266681  0.07552444  0.59480119  1
  Na  Na2  1  0.11128306  0.71293191  0.87633109  1
  Na  Na3  1  0.37759472  0.39116046  0.13746860  1
  Mg  Mg0  1  0.78576938  0.38245539  0.88158435  1
  Fe  Fe0  1  0.97467298  0.56449378  0.37378799  1
  Fe  Fe1  1  0.46367484  0.38374955  0.61215027  1
  Fe  Fe2  1  0.52660872  0.91353063  0.88223501  1
  Fe  Fe3  1  0.01052009  0.06333681  0.14772623  1
  O  O0  1  0.87614526  0.87506106  0.34735977  1
  O  O1  1  0.38909477  0.06189575  0.66590026  1
  O  O2  1  0.50209654  0.58045630  0.87209779  1
  O  O3  1  0.96285474  0.42862815  0.11473940  1
  O  O4  1  0.28757969  0.54864458  0.42123605  1
  O  O5  1  0.83228966  0.43747554  0.59888589  1
  O  O6  1  0.81766029  0.03638784  0.89725030  1
  O  O7  1  0.33540991  0.00236046  0.09294875  1
loop_
_geom_bond_atom_site_label_1
_geom_bond_atom_site_label_2
_geom_bond_distance
_geom_bond_site_symmetry_2
Na0 O0 2.315630 1_555
Na0 O4 2.320048 1_555
Na0 O1 2.326057 1_565
Na0 O7 2.327068 1_565
Na1 O0 2.254781 1_445
Na1 O5 2.299658 1_455
Na1 O1 2.368729 1_555
Na1 O6 2.376641 1_455
Na2 O2 2.424837 1_555
Na2 O3 2.516931 1_456
Na2 O6 2.517397 1_465
Na2 O7 2.696199 1_566
Na3 O4 2.234438 1_555
Na3 O2 2.276411 1_554
Na3 O7 2.319751 1_555
Na3 O3 2.486450 1_455
Mg0 O3 1.981510 1_556
Mg0 O2 2.006459 1_555
Mg0 O5 2.008448 1_555
Mg0 O6 2.021118 1_555
Fe0 O0 1.886052 1_555
Fe0 O4 1.903158 1_655
Fe0 O5 1.929909 1_555
Fe0 O3 1.981932 1_555
Fe1 O4 1.929759 1_555
Fe1 O1 1.982159 1_555
Fe1 O2 2.175143 1_555
Fe1 O5 2.241821 1_555
Fe2 O7 1.905162 1_566
Fe2 O1 1.908092 1_565
Fe2 O6 1.919515 1_565
Fe2 O2 1.958488 1_555
Fe3 O0 1.950146 1_445
Fe3 O7 1.988910 1_555
Fe3 O6 2.118920 1_454
Fe3 O3 2.147180 1_455
