# generated using pymatgen
data_Na4Ca3HfP2(SO6)4
_symmetry_space_group_name_H-M   'P 1'
_cell_length_a   9.20524259
_cell_length_b   9.23383309
_cell_length_c   23.58632420
_cell_angle_alpha   90.31279665
_cell_angle_beta   89.94164914
_cell_angle_gamma   119.96004533
_symmetry_Int_Tables_number   1
_chemical_formula_structural   Na4Ca3HfP2(SO6)4
_chemical_formula_sum   'Na12 Ca9 Hf3 P6 S12 O72'
_cell_volume   1736.90293145
_cell_formula_units_Z   3
loop_
 _symmetry_equiv_pos_site_id
 _symmetry_equiv_pos_as_xyz
  1  'x, y, z'
loop_
 _atom_site_type_symbol
 _atom_site_label
 _atom_site_symmetry_multiplicity
 _atom_site_fract_x
 _atom_site_fract_y
 _atom_site_fract_z
 _atom_site_occupancy
  Na  Na0  1  0.63682194  0.99873156  0.25742288  1
  Na  Na1  1  0.36040034  0.36152141  0.25063481  1
  Na  Na2  1  0.31361903  0.34676592  0.59552543  1
  Na  Na3  1  0.66389832  0.94891776  0.57983238  1
  Na  Na4  1  0.98966710  0.68376293  0.91173333  1
  Na  Na5  1  0.31665742  0.29610761  0.90580115  1
  Na  Na6  1  0.97297180  0.96990522  0.49587476  1
  Na  Na7  1  0.98254080  0.00112124  0.99417990  1
  Na  Na8  1  0.65178051  0.31696182  0.82163773  1
  Na  Na9  1  0.68319042  0.33605153  0.33934033  1
  Na  Na10  1  0.31445652  0.66629617  0.15912030  1
  Na  Na11  1  0.32849972  0.65531948  0.67588199  1
  Ca  Ca0  1  0.99373939  0.99495769  0.35423130  1
  Ca  Ca1  1  0.99398960  0.00290755  0.84704680  1
  Ca  Ca2  1  0.00180610  0.99248517  0.65678615  1
  Ca  Ca3  1  0.99948033  0.99405802  0.14253439  1
  Ca  Ca4  1  0.66638684  0.34611298  0.68806358  1
  Ca  Ca5  1  0.67653665  0.34185162  0.18057291  1
  Ca  Ca6  1  0.34009131  0.67119810  0.01586087  1
  Ca  Ca7  1  0.33514436  0.66986324  0.51193036  1
  Ca  Ca8  1  0.33378750  0.67778598  0.32673871  1
  Hf  Hf0  1  0.66583109  0.32644766  0.97788697  1
  Hf  Hf1  1  0.66945075  0.34005028  0.48214095  1
  Hf  Hf2  1  0.33713049  0.66238172  0.82083315  1
  P  P0  1  0.30559497  0.31457283  0.75294899  1
  P  P1  1  0.66594505  0.62891677  0.58112761  1
  P  P2  1  0.62843365  0.65841603  0.91948423  1
  P  P3  1  0.03819370  0.37720488  0.91885960  1
  P  P4  1  0.33724049  0.96229888  0.91763958  1
  P  P5  1  0.64468678  0.98651697  0.41945998  1
  S  S0  1  0.30209439  0.00159272  0.24938059  1
  S  S1  1  0.69377823  0.69889766  0.25014666  1
  S  S2  1  0.00386831  0.29744119  0.24994176  1
  S  S3  1  0.01417176  0.69502614  0.75565035  1
  S  S4  1  0.68112381  0.98802314  0.74979940  1
  S  S5  1  0.95695273  0.33000577  0.58177105  1
  S  S6  1  0.37921722  0.04759887  0.58110125  1
  S  S7  1  0.95853031  0.62636262  0.07846927  1
  S  S8  1  0.66855640  0.04359906  0.08255310  1
  S  S9  1  0.37419650  0.33178167  0.08150448  1
  S  S10  1  0.34110870  0.35932303  0.41777346  1
  S  S11  1  0.01896541  0.65846834  0.41921242  1
  O  O0  1  0.21770834  0.01657634  0.30003300  1
  O  O1  1  0.79130632  0.77979999  0.30127175  1
  O  O2  1  0.98530876  0.19595468  0.30037254  1
  O  O3  1  0.21407249  0.21079754  0.80521788  1
  O  O4  1  0.99298726  0.77240788  0.80744669  1
  O  O5  1  0.78835739  0.00484324  0.79792145  1
  O  O6  1  0.74853042  0.96339020  0.69551803  1
  O  O7  1  0.21018328  0.24396147  0.69595565  1
  O  O8  1  0.03351298  0.79430795  0.70460491  1
  O  O9  1  0.77782340  0.79757000  0.19904021  1
  O  O10  1  0.02220502  0.21580239  0.19813581  1
  O  O11  1  0.20634717  0.98842104  0.19751816  1
  O  O12  1  0.87891300  0.34479553  0.63343405  1
  O  O13  1  0.47765566  0.12358377  0.63246141  1
  O  O14  1  0.64713660  0.52618326  0.63347669  1
  O  O15  1  0.87580050  0.53830961  0.13055375  1
  O  O16  1  0.66402756  0.11940157  0.13712961  1
  O  O17  1  0.45803353  0.33657989  0.13545928  1
  O  O18  1  0.47909724  0.32917387  0.03181079  1
  O  O19  1  0.85624790  0.52591467  0.02731158  1
  O  O20  1  0.67094579  0.15300239  0.03393380  1
  O  O21  1  0.47482830  0.15374006  0.53045525  1
  O  O22  1  0.67481806  0.52674440  0.52799780  1
  O  O23  1  0.85199899  0.32287153  0.53109281  1
  O  O24  1  0.55784373  0.68713094  0.97299646  1
  O  O25  1  0.14210289  0.45280846  0.97153504  1
  O  O26  1  0.30269443  0.85754391  0.97019225  1
  O  O27  1  0.55206227  0.87970023  0.47119451  1
  O  O28  1  0.32219887  0.44329805  0.46799142  1
  O  O29  1  0.11760464  0.67159876  0.46958093  1
  O  O30  1  0.08838054  0.63044351  0.36682708  1
  O  O31  1  0.54798323  0.91629201  0.36290663  1
  O  O32  1  0.36344595  0.45516596  0.36507397  1
  O  O33  1  0.12711766  0.49939425  0.86699650  1
  O  O34  1  0.36506204  0.87372448  0.86518075  1
  O  O35  1  0.50738504  0.62988664  0.86740690  1
  O  O36  1  0.99515122  0.80394011  0.41554139  1
  O  O37  1  0.82194620  0.01082565  0.41718139  1
  O  O38  1  0.19954575  0.18829209  0.41372609  1
  O  O39  1  0.01184536  0.20214446  0.90909332  1
  O  O40  1  0.19156328  0.99761539  0.90865389  1
  O  O41  1  0.81083440  0.79330746  0.90917711  1
  O  O42  1  0.96293694  0.17059785  0.58084996  1
  O  O43  1  0.21666482  0.04504686  0.58220532  1
  O  O44  1  0.82047366  0.80690391  0.58066559  1
  O  O45  1  0.96735330  0.79082610  0.07602447  1
  O  O46  1  0.82365613  0.03362605  0.07810319  1
  O  O47  1  0.20879323  0.17691652  0.07776456  1
  O  O48  1  0.65835186  0.13493511  0.74675959  1
  O  O49  1  0.48480864  0.34259981  0.75129601  1
  O  O50  1  0.87107352  0.52337843  0.75053874  1
  O  O51  1  0.66286710  0.52375476  0.24671162  1
  O  O52  1  0.84884147  0.31151394  0.24682611  1
  O  O53  1  0.47390173  0.15776877  0.24735328  1
  O  O54  1  0.62785182  0.48310077  0.92453818  1
  O  O55  1  0.86213998  0.37038123  0.92469514  1
  O  O56  1  0.50081428  0.14173319  0.92534913  1
  O  O57  1  0.65983055  0.16552323  0.42764092  1
  O  O58  1  0.50016574  0.34906558  0.42446047  1
  O  O59  1  0.84666806  0.50462960  0.42531145  1
  O  O60  1  0.35616736  0.48124513  0.07904208  1
  O  O61  1  0.12728547  0.64606739  0.07735595  1
  O  O62  1  0.51864539  0.87698139  0.07921405  1
  O  O63  1  0.35636987  0.87816665  0.57478386  1
  O  O64  1  0.50450585  0.64453353  0.57673549  1
  O  O65  1  0.13079889  0.47180497  0.57613653  1
  O  O66  1  0.33079226  0.85563870  0.25230488  1
  O  O67  1  0.52283561  0.68505784  0.25326340  1
  O  O68  1  0.15791274  0.46592400  0.25461391  1
  O  O69  1  0.31957337  0.49370608  0.76162765  1
  O  O70  1  0.17276587  0.68534266  0.76120634  1
  O  O71  1  0.51140432  0.83307506  0.75877868  1
loop_
_geom_bond_atom_site_label_1
_geom_bond_atom_site_label_2
_geom_bond_distance
_geom_bond_site_symmetry_2
Na0 O66 2.444908 1_555
Na0 O67 2.541938 1_555
Na0 O52 2.567102 1_565
Na0 O53 2.581932 1_565
Na0 O31 2.614005 1_555
Na1 O51 2.416602 1_555
Na1 O68 2.491159 1_555
Na1 O53 2.568840 1_555
Na1 O67 2.588666 1_555
Na1 O32 2.825707 1_555
Na1 O17 2.904383 1_555
Na1 O10 2.973451 1_555
Na1 O0 3.014432 1_555
Na2 O64 2.455637 1_555
Na2 O43 2.482880 1_555
Na2 O65 2.514444 1_555
Na2 O7 2.556567 1_555
Na2 O14 2.807275 1_555
Na2 O42 2.817443 1_455
Na3 O44 2.384421 1_555
Na3 O64 2.436570 1_555
Na3 O42 2.477861 1_565
Na3 O63 2.570502 1_555
Na3 O27 2.713736 1_555
Na3 O6 2.822483 1_555
Na4 O41 2.323958 1_555
Na4 O55 2.541885 1_555
Na4 O40 2.545691 1_655
Na4 O4 2.591927 1_555
Na4 O33 2.782383 1_655
Na4 O26 2.853912 1_655
Na4 O54 2.908192 1_555
Na4 O19 3.051700 1_556
Na5 O40 2.399826 1_545
Na5 O39 2.490076 1_555
Na5 O3 2.526199 1_555
Na5 O54 2.537067 1_555
Na5 O56 2.746013 1_555
Na5 O35 2.832710 1_555
Na6 O37 2.461330 1_565
Na6 O44 2.480415 1_555
Na6 O36 2.502076 1_555
Na6 O42 2.754962 1_565
Na6 O38 2.829200 1_665
Na6 O43 2.845890 1_665
Na7 O46 2.563876 1_556
Na7 O39 2.661826 1_655
Na7 O41 2.671189 1_545
Na7 O45 2.699254 1_546
Na7 O47 2.730571 1_656
Na7 O40 2.797514 1_645
Na8 O49 2.354569 1_555
Na8 O48 2.452915 1_555
Na8 O50 2.589424 1_555
Na8 O56 2.885039 1_555
Na8 O54 2.930577 1_555
Na8 O55 2.990653 1_555
Na9 O59 2.536038 1_555
Na9 O57 2.561247 1_555
Na9 O58 2.660147 1_555
Na9 O52 2.733288 1_555
Na9 O53 2.816168 1_555
Na9 O51 2.859775 1_555
Na10 O61 2.530622 1_555
Na10 O62 2.692637 1_555
Na10 O60 2.693165 1_555
Na10 O66 2.757930 1_555
Na10 O68 2.819357 1_555
Na10 O67 2.883153 1_555
Na11 O69 2.496816 1_555
Na11 O71 2.561884 1_555
Na11 O70 2.562627 1_555
Na11 O64 2.873047 1_555
Na11 O65 2.933149 1_555
Ca0 O37 2.225101 1_565
Ca0 O2 2.287837 1_565
Ca0 O36 2.291981 1_555
Ca0 O1 2.293422 1_555
Ca0 O38 2.311997 1_665
Ca0 O0 2.347533 1_665
Ca1 O3 2.212455 1_655
Ca1 O5 2.228095 1_555
Ca1 O39 2.285244 1_655
Ca1 O4 2.315436 1_545
Ca1 O41 2.345771 1_545
Ca1 O40 2.348721 1_645
Ca2 O8 2.294036 1_555
Ca2 O7 2.335893 1_565
Ca2 O6 2.390647 1_455
Ca2 O44 2.462076 1_455
Ca2 O43 2.507033 1_565
Ca2 O42 2.581092 1_465
Ca3 O11 2.327131 1_655
Ca3 O45 2.341903 1_555
Ca3 O10 2.345105 1_665
Ca3 O9 2.356839 1_555
Ca3 O46 2.379963 1_565
Ca3 O47 2.381182 1_665
Ca4 O14 2.184467 1_555
Ca4 O49 2.227218 1_555
Ca4 O50 2.302113 1_555
Ca4 O13 2.317339 1_555
Ca4 O12 2.346528 1_555
Ca4 O48 2.368489 1_555
Ca5 O15 2.177779 1_555
Ca5 O16 2.241297 1_555
Ca5 O17 2.255267 1_555
Ca5 O51 2.335101 1_555
Ca5 O52 2.343024 1_555
Ca5 O53 2.388734 1_555
Ca6 O24 2.182802 1_554
Ca6 O25 2.188894 1_554
Ca6 O26 2.202759 1_554
Ca6 O62 2.323705 1_555
Ca6 O61 2.353487 1_555
Ca6 O60 2.367988 1_555
Ca7 O27 2.194701 1_555
Ca7 O29 2.245957 1_555
Ca7 O28 2.278717 1_555
Ca7 O64 2.279153 1_555
Ca7 O63 2.351520 1_555
Ca7 O65 2.401004 1_555
Ca8 O31 2.260849 1_555
Ca8 O30 2.280828 1_555
Ca8 O32 2.387272 1_555
Ca8 O66 2.420081 1_555
Ca8 O67 2.432010 1_555
Ca8 O68 2.479520 1_555
Hf0 O56 2.035961 1_555
Hf0 O55 2.067085 1_555
Hf0 O54 2.079377 1_555
Hf0 O20 2.100787 1_556
Hf0 O19 2.140082 1_556
Hf0 O18 2.147420 1_556
Hf1 O22 2.009678 1_555
Hf1 O57 2.022972 1_555
Hf1 O59 2.075823 1_555
Hf1 O21 2.099221 1_555
Hf1 O58 2.102679 1_555
Hf1 O23 2.110493 1_555
Hf2 O69 2.031584 1_555
Hf2 O35 2.056638 1_555
Hf2 O33 2.072564 1_555
Hf2 O34 2.108480 1_555
Hf2 O70 2.154079 1_555
Hf2 O71 2.166795 1_555
O0 S0 1.467487 1_555
O1 S1 1.463096 1_555
O2 S2 1.474472 1_655
O3 P0 1.533733 1_555
O4 S3 1.473177 1_655
O5 S4 1.460827 1_545
O6 S4 1.487306 1_555
O7 P0 1.557057 1_555
O8 S3 1.473187 1_555
O9 S1 1.479108 1_555
O10 S2 1.485411 1_555
O11 S0 1.476972 1_565
O12 S5 1.453939 1_555
O13 S6 1.462470 1_555
O14 P1 1.517470 1_555
O15 S7 1.463133 1_555
O16 S8 1.472379 1_555
O17 S9 1.477930 1_555
O18 S9 1.525596 1_555
O19 S7 1.523343 1_555
O20 S8 1.525272 1_555
O21 S6 1.520274 1_555
O22 P1 1.590898 1_555
O23 S5 1.518037 1_555
O24 P2 1.500780 1_555
O25 P3 1.507277 1_555
O26 P4 1.509389 1_555
O27 P5 1.536178 1_555
O28 S10 1.469308 1_555
O29 S11 1.463281 1_555
O30 S11 1.470364 1_555
O31 P5 1.551964 1_555
O32 S10 1.483326 1_555
O33 P3 1.590597 1_555
O34 P4 1.569386 1_555
O35 P2 1.589290 1_555
O36 S11 1.468102 1_655
O37 P5 1.532940 1_545
O38 S10 1.464393 1_555
O39 P3 1.526220 1_555
O40 P4 1.545199 1_555
O41 P2 1.530805 1_555
O42 S5 1.500255 1_555
O43 S6 1.484910 1_555
O44 P1 1.545898 1_555
O45 S7 1.481185 1_555
O46 S8 1.479466 1_555
O47 S9 1.481608 1_555
O48 S4 1.474602 1_545
O49 P0 1.537394 1_555
O50 S3 1.474709 1_655
O51 S1 1.497328 1_555
O52 S2 1.498105 1_655
O53 S0 1.518489 1_555
O54 P2 1.621203 1_555
O55 P3 1.595922 1_655
O56 P4 1.597183 1_545
O57 P5 1.598506 1_545
O58 S10 1.522088 1_555
O59 S11 1.518414 1_655
O60 S9 1.471501 1_555
O61 S7 1.471261 1_455
O62 S8 1.468302 1_565
O63 S6 1.477497 1_565
O64 P1 1.566683 1_555
O65 S5 1.483798 1_455
O66 S0 1.499176 1_565
O67 S1 1.515543 1_555
O68 S2 1.496092 1_555
O69 P0 1.605688 1_555
O70 S3 1.512404 1_555
O71 S4 1.517495 1_555
