# generated using pymatgen
data_NaSbO3
_symmetry_space_group_name_H-M   'P 1'
_cell_length_a   5.47647400
_cell_length_b   5.53594800
_cell_length_c   7.79696900
_cell_angle_alpha   90.00000000
_cell_angle_beta   90.00000000
_cell_angle_gamma   90.00000000
_symmetry_Int_Tables_number   1
_chemical_formula_structural   NaSbO3
_chemical_formula_sum   'Na4 Sb4 O12'
_cell_volume   236.38441497
_cell_formula_units_Z   4
loop_
 _symmetry_equiv_pos_site_id
 _symmetry_equiv_pos_as_xyz
  1  'x, y, z'
loop_
 _atom_site_type_symbol
 _atom_site_label
 _atom_site_symmetry_multiplicity
 _atom_site_fract_x
 _atom_site_fract_y
 _atom_site_fract_z
 _atom_site_occupancy
  Na  Na0  1  0.50725500  0.53752600  0.25000000  1
  Na  Na1  1  0.00725500  0.96247400  0.75000000  1
  Na  Na2  1  0.99274500  0.03752600  0.25000000  1
  Na  Na3  1  0.49274500  0.46247400  0.75000000  1
  Sb  Sb0  1  0.00000000  0.50000000  0.00000000  1
  Sb  Sb1  1  0.50000000  0.00000000  0.00000000  1
  Sb  Sb2  1  0.50000000  0.00000000  0.50000000  1
  Sb  Sb3  1  0.00000000  0.50000000  0.50000000  1
  O  O0  1  0.70212600  0.29537300  0.45436800  1
  O  O1  1  0.20212600  0.20462700  0.54563200  1
  O  O2  1  0.79787400  0.79537300  0.04563200  1
  O  O3  1  0.29787400  0.70462700  0.95436800  1
  O  O4  1  0.29787400  0.70462700  0.54563200  1
  O  O5  1  0.79787400  0.79537300  0.45436800  1
  O  O6  1  0.20212600  0.20462700  0.95436800  1
  O  O7  1  0.70212600  0.29537300  0.04563200  1
  O  O8  1  0.41124000  0.97522400  0.25000000  1
  O  O9  1  0.91124000  0.52477600  0.75000000  1
  O  O10  1  0.08876000  0.47522400  0.25000000  1
  O  O11  1  0.58876000  0.02477600  0.75000000  1
loop_
_geom_bond_atom_site_label_1
_geom_bond_atom_site_label_2
_geom_bond_distance
_geom_bond_site_symmetry_2
Na0 O10 2.317683 1_555
Na0 O0 2.339889 1_555
Na0 O7 2.339889 1_555
Na0 O8 2.479471 1_555
Na0 O5 2.666406 1_555
Na0 O2 2.666406 1_555
Na0 O3 2.735648 1_554
Na0 O4 2.735648 1_555
Na1 O11 2.317683 1_465
Na1 O1 2.339889 1_565
Na1 O6 2.339889 1_565
Na1 O9 2.479471 1_455
Na1 O4 2.666406 1_555
Na1 O3 2.666406 1_555
Na1 O2 2.735648 1_456
Na1 O5 2.735648 1_455
Na2 O8 2.317683 1_645
Na2 O2 2.339889 1_545
Na2 O5 2.339889 1_545
Na2 O10 2.479471 1_655
Na2 O0 2.666406 1_555
Na2 O7 2.666406 1_555
Na2 O1 2.735648 1_655
Na2 O6 2.735648 1_654
Na3 O9 2.317683 1_555
Na3 O3 2.339889 1_555
Na3 O4 2.339889 1_555
Na3 O11 2.479471 1_555
Na3 O6 2.666406 1_555
Na3 O1 2.666406 1_555
Na3 O7 2.735648 1_556
Na3 O0 2.735648 1_555
O0 Sb2 2.006409 1_555
O0 Sb3 2.017665 1_655
O1 Sb3 2.006409 1_555
O1 Sb2 2.017665 1_555
O2 Sb0 2.006409 1_655
O2 Sb1 2.017665 1_565
O3 Sb1 2.006409 1_566
O3 Sb0 2.017665 1_556
O4 Sb2 2.006409 1_565
O4 Sb3 2.017665 1_555
O5 Sb3 2.006409 1_655
O5 Sb2 2.017665 1_565
O6 Sb0 2.006409 1_556
O6 Sb1 2.017665 1_556
O7 Sb1 2.006409 1_555
O7 Sb0 2.017665 1_655
O8 Sb1 2.013614 1_565
O8 Sb2 2.013614 1_565
O9 Sb0 2.013614 1_656
O9 Sb3 2.013614 1_655
O10 Sb0 2.013614 1_555
O10 Sb3 2.013614 1_555
O11 Sb1 2.013614 1_556
O11 Sb2 2.013614 1_555
