# generated using pymatgen
data_Na7Zr2In2Si3(PO8)3
_symmetry_space_group_name_H-M   'P 1'
_cell_length_a   9.23364298
_cell_length_b   9.22782044
_cell_length_c   22.72791485
_cell_angle_alpha   89.91024215
_cell_angle_beta   90.16635732
_cell_angle_gamma   120.02665949
_symmetry_Int_Tables_number   1
_chemical_formula_structural   Na7Zr2In2Si3(PO8)3
_chemical_formula_sum   'Na21 Zr6 In6 Si9 P9 O72'
_cell_volume   1676.65563748
_cell_formula_units_Z   3
loop_
 _symmetry_equiv_pos_site_id
 _symmetry_equiv_pos_as_xyz
  1  'x, y, z'
loop_
 _atom_site_type_symbol
 _atom_site_label
 _atom_site_symmetry_multiplicity
 _atom_site_fract_x
 _atom_site_fract_y
 _atom_site_fract_z
 _atom_site_occupancy
  Na  Na0  1  0.63240516  0.00412387  0.25342763  1
  Na  Na1  1  0.36725126  0.37160648  0.24726387  1
  Na  Na2  1  -0.00001303  0.62275536  0.24994830  1
  Na  Na3  1  0.63128160  0.63461382  0.75039004  1
  Na  Na4  1  0.99059329  0.36279637  0.74876210  1
  Na  Na5  1  0.37585239  0.00164291  0.74652595  1
  Na  Na6  1  0.03332598  0.69397946  0.58353015  1
  Na  Na7  1  0.66137775  0.97184275  0.58304566  1
  Na  Na8  1  0.66744577  0.68903968  0.08199341  1
  Na  Na9  1  0.03098566  0.33874680  0.08699454  1
  Na  Na10  1  0.95753717  0.66337759  0.92027501  1
  Na  Na11  1  0.70324424  0.03202397  0.91525406  1
  Na  Na12  1  0.34244521  0.30498081  0.91871834  1
  Na  Na13  1  0.96673380  0.30679963  0.41523333  1
  Na  Na14  1  0.33600141  0.02738785  0.41833029  1
  Na  Na15  1  0.00107746  0.99897774  0.50023970  1
  Na  Na16  1  0.01027049  0.99383708  0.00014756  1
  Na  Na17  1  0.66673360  0.33360457  0.83335467  1
  Na  Na18  1  0.67538631  0.34358663  0.33418668  1
  Na  Na19  1  0.32355992  0.66715154  0.16683602  1
  Na  Na20  1  0.33369552  0.66101479  0.66545547  1
  Zr  Zr0  1  0.99031405  0.99549748  0.35392487  1
  Zr  Zr1  1  0.00232414  0.00611883  0.64727460  1
  Zr  Zr2  1  0.00911157  0.00485322  0.14674364  1
  Zr  Zr3  1  0.66570264  0.33206138  0.48264481  1
  Zr  Zr4  1  0.33608190  0.67021467  0.01886539  1
  Zr  Zr5  1  0.33351867  0.66634014  0.51726962  1
  In  In0  1  0.99553777  0.99879184  0.84996894  1
  In  In1  1  0.66648795  0.32874292  0.68081201  1
  In  In2  1  0.66991762  0.33517495  0.18124249  1
  In  In3  1  0.66341850  0.33657317  0.98597141  1
  In  In4  1  0.32956834  0.66392146  0.31847840  1
  In  In5  1  0.33836786  0.66895557  0.81661105  1
  Si  Si0  1  0.99950001  0.29832534  0.25004938  1
  Si  Si1  1  0.70133829  0.00169583  0.75084783  1
  Si  Si2  1  0.96534025  0.33546217  0.58456289  1
  Si  Si3  1  0.36709342  0.03415907  0.58367298  1
  Si  Si4  1  0.96576474  0.63160517  0.08344514  1
  Si  Si5  1  0.37004799  0.33287963  0.08272292  1
  Si  Si6  1  0.63277065  0.66442710  0.91530284  1
  Si  Si7  1  0.62808840  0.96279187  0.41571449  1
  Si  Si8  1  0.03465816  0.66567546  0.41534309  1
  P  P0  1  0.29457387  0.00138929  0.25156200  1
  P  P1  1  0.70521618  0.70659095  0.24875806  1
  P  P2  1  0.29477126  0.29436172  0.75213425  1
  P  P3  1  0.99853502  0.70296554  0.75089718  1
  P  P4  1  0.66525832  0.62638111  0.58640221  1
  P  P5  1  0.66662160  0.03690820  0.08381762  1
  P  P6  1  0.03867252  0.37211147  0.91583208  1
  P  P7  1  0.33496506  0.96363325  0.91452703  1
  P  P8  1  0.33532538  0.37166266  0.41395705  1
  O  O0  1  0.20897047  0.02043727  0.30734177  1
  O  O1  1  0.82013701  0.79945217  0.30238697  1
  O  O2  1  0.97979053  0.18090947  0.30775366  1
  O  O3  1  0.22301341  0.19065267  0.80913249  1
  O  O4  1  0.97725624  0.78293941  0.80760324  1
  O  O5  1  0.81451261  0.03613921  0.81033168  1
  O  O6  1  0.79930418  0.97624447  0.69420325  1
  O  O7  1  0.17901832  0.19546994  0.69941648  1
  O  O8  1  0.02351074  0.81635219  0.69665911  1
  O  O9  1  0.79067721  0.81115751  0.19320115  1
  O  O10  1  0.01930305  0.20142150  0.19267808  1
  O  O11  1  0.17996145  0.97949804  0.19825135  1
  O  O12  1  0.89472910  0.37944504  0.64360319  1
  O  O13  1  0.47839680  0.10912233  0.64317564  1
  O  O14  1  0.63935757  0.53099185  0.64458564  1
  O  O15  1  0.89299412  0.51397504  0.14223735  1
  O  O16  1  0.63749576  0.11036635  0.14039721  1
  O  O17  1  0.48548044  0.37192301  0.14187506  1
  O  O18  1  0.44190767  0.29867673  0.02267465  1
  O  O19  1  0.85115139  0.55462509  0.02449309  1
  O  O20  1  0.70104040  0.14681824  0.02862857  1
  O  O21  1  0.45808714  0.14983557  0.52583342  1
  O  O22  1  0.69177829  0.53452463  0.53452698  1
  O  O23  1  0.84111807  0.30485736  0.52803218  1
  O  O24  1  0.53546287  0.68976195  0.97189444  1
  O  O25  1  0.14999494  0.46642645  0.96983869  1
  O  O26  1  0.30895939  0.84457964  0.96652380  1
  O  O27  1  0.53894680  0.84837552  0.47364082  1
  O  O28  1  0.30692182  0.46299622  0.46544438  1
  O  O29  1  0.15832727  0.69346135  0.47182101  1
  O  O30  1  0.10510826  0.62218466  0.35597527  1
  O  O31  1  0.51720438  0.88649235  0.35589565  1
  O  O32  1  0.36282368  0.46712206  0.35557251  1
  O  O33  1  0.11237959  0.47856418  0.85935097  1
  O  O34  1  0.35762078  0.88864916  0.85665106  1
  O  O35  1  0.51937865  0.63126666  0.85592969  1
  O  O36  1  0.03341722  0.84313593  0.41128692  1
  O  O37  1  0.82053105  0.99402672  0.41271464  1
  O  O38  1  0.17327699  0.19461401  0.41114106  1
  O  O39  1  0.03485065  0.20143313  0.91450417  1
  O  O40  1  0.17716500  0.98385206  0.91326874  1
  O  O41  1  0.81883111  0.83666346  0.91539706  1
  O  O42  1  0.96856196  0.15854309  0.58889588  1
  O  O43  1  0.17445797  -0.00005976  0.58820310  1
  O  O44  1  0.82886666  0.80240944  0.58919681  1
  O  O45  1  0.97310006  0.81274692  0.09076721  1
  O  O46  1  0.82424227  0.01613863  0.08988973  1
  O  O47  1  0.17611876  0.17547033  0.08864695  1
  O  O48  1  0.68254618  0.16986033  0.74745955  1
  O  O49  1  0.47343171  0.32111543  0.74559064  1
  O  O50  1  0.83661364  0.52936616  0.74646964  1
  O  O51  1  0.68815385  0.53037549  0.24825947  1
  O  O52  1  0.82685318  0.30970797  0.24872735  1
  O  O53  1  0.46848503  0.16277575  0.24687259  1
  O  O54  1  0.65207479  0.49657001  0.91835030  1
  O  O55  1  0.85871136  0.34349615  0.92161649  1
  O  O56  1  0.49739555  0.13612908  0.92084148  1
  O  O57  1  0.64616539  0.15037766  0.42167123  1
  O  O58  1  0.48507901  0.34322842  0.42285026  1
  O  O59  1  0.84980546  0.50048833  0.42460988  1
  O  O60  1  0.35148925  0.50314384  0.07693105  1
  O  O61  1  0.15082690  0.64899667  0.07580325  1
  O  O62  1  0.51414947  0.85749864  0.07687078  1
  O  O63  1  0.35278285  0.84788626  0.57744307  1
  O  O64  1  0.51625207  0.65644406  0.57762012  1
  O  O65  1  0.15058284  0.49931225  0.57547018  1
  O  O66  1  0.31210772  0.84262820  0.25205090  1
  O  O67  1  0.53149040  0.69389453  0.25309570  1
  O  O68  1  0.17181463  0.48285993  0.25109423  1
  O  O69  1  0.29791988  0.46463951  0.75238345  1
  O  O70  1  0.15658137  0.68293401  0.75303736  1
  O  O71  1  0.51569725  0.82938783  0.75080618  1
loop_
_geom_bond_atom_site_label_1
_geom_bond_atom_site_label_2
_geom_bond_distance
_geom_bond_site_symmetry_2
Na0 O52 2.473844 1_555
Na0 O67 2.528627 1_545
Na0 O66 2.560728 1_545
Na0 O31 2.566001 1_545
Na0 O53 2.583048 1_555
Na0 O16 2.740354 1_555
Na1 O68 2.484637 1_555
Na1 O53 2.527896 1_555
Na1 O51 2.565535 1_555
Na1 O67 2.578459 1_555
Na1 O32 2.623281 1_555
Na1 O17 2.634590 1_555
Na2 O68 2.496788 1_555
Na2 O52 2.505889 1_455
Na2 O51 2.561600 1_455
Na2 O66 2.563639 1_555
Na2 O30 2.596284 1_555
Na2 O15 2.641539 1_455
Na3 O49 2.507064 1_555
Na3 O71 2.507881 1_555
Na3 O50 2.527838 1_555
Na3 O14 2.604255 1_555
Na3 O35 2.608557 1_555
Na3 O69 2.665678 1_555
Na4 O48 2.488516 1_555
Na4 O69 2.504521 1_655
Na4 O70 2.560131 1_655
Na4 O50 2.563844 1_555
Na4 O12 2.577229 1_555
Na4 O33 2.740979 1_655
Na5 O48 2.455605 1_555
Na5 O71 2.501294 1_545
Na5 O13 2.542337 1_555
Na5 O70 2.609914 1_545
Na5 O49 2.616246 1_555
Na5 O34 2.683041 1_545
Na6 O43 2.449226 1_565
Na6 O65 2.526139 1_555
Na6 O44 2.544452 1_455
Na6 O63 2.558569 1_555
Na6 O29 2.793011 1_555
Na6 O8 2.829709 1_555
Na6 O12 2.864702 1_455
Na6 O22 2.948227 1_455
Na7 O42 2.477713 1_565
Na7 O63 2.486036 1_555
Na7 O64 2.525570 1_555
Na7 O44 2.697008 1_555
Na7 O27 2.731756 1_555
Na7 O6 2.817104 1_555
Na7 O13 2.913421 1_565
Na7 O23 2.942264 1_565
Na8 O45 2.466038 1_555
Na8 O60 2.541125 1_555
Na8 O62 2.575709 1_555
Na8 O46 2.620257 1_565
Na8 O9 2.768017 1_555
Na8 O24 2.781583 1_554
Na8 O19 2.871816 1_555
Na8 O17 2.884205 1_555
Na9 O47 2.467322 1_555
Na9 O61 2.512833 1_555
Na9 O60 2.573235 1_555
Na9 O46 2.612175 1_455
Na9 O10 2.691109 1_555
Na9 O15 2.809292 1_455
Na9 O25 2.897782 1_554
Na9 O20 2.960060 1_455
Na10 O54 2.445628 1_555
Na10 O41 2.501576 1_555
Na10 O19 2.569452 1_556
Na10 O55 2.617426 1_555
Na10 O40 2.623321 1_655
Na10 O4 2.756971 1_555
Na11 O55 2.492688 1_555
Na11 O41 2.512886 1_545
Na11 O56 2.526066 1_555
Na11 O5 2.592017 1_555
Na11 O39 2.651279 1_655
Na11 O20 2.791538 1_556
Na12 O54 2.498216 1_555
Na12 O39 2.504330 1_555
Na12 O18 2.543557 1_556
Na12 O40 2.568982 1_545
Na12 O56 2.589911 1_555
Na12 O3 2.713015 1_555
Na13 O37 2.501308 1_545
Na13 O59 2.517827 1_555
Na13 O57 2.567571 1_555
Na13 O38 2.587433 1_655
Na13 O2 2.735333 1_555
Na13 O23 2.813264 1_555
Na13 O30 2.862266 1_655
Na13 O28 2.949567 1_655
Na14 O36 2.442675 1_545
Na14 O57 2.498403 1_555
Na14 O58 2.526811 1_555
Na14 O38 2.642698 1_555
Na14 O21 2.689836 1_555
Na14 O0 2.766075 1_555
Na14 O29 2.933442 1_545
Na14 O31 2.949606 1_545
Na15 O43 2.554840 1_565
Na15 O37 2.577456 1_455
Na15 O36 2.585914 1_555
Na15 O42 2.602609 1_465
Na15 O38 2.649995 1_565
Na15 O44 2.650844 1_455
Na16 O41 2.522231 1_454
Na16 O40 2.538227 1_554
Na16 O45 2.563497 1_455
Na16 O47 2.573717 1_565
Na16 O39 2.658167 1_564
Na16 O46 2.743817 1_465
Na17 O54 2.495168 1_555
Na17 O48 2.519383 1_555
Na17 O50 2.606573 1_555
Na17 O56 2.621894 1_555
Na17 O49 2.636676 1_555
Na17 O55 2.644369 1_555
Na18 O52 2.506319 1_555
Na18 O59 2.563213 1_555
Na18 O51 2.566380 1_555
Na18 O57 2.591446 1_555
Na18 O58 2.676449 1_555
Na18 O53 2.677689 1_555
Na19 O68 2.478555 1_555
Na19 O66 2.562541 1_555
Na19 O61 2.562646 1_555
Na19 O60 2.633560 1_555
Na19 O67 2.663864 1_555
Na19 O62 2.697996 1_555
Na20 O71 2.525582 1_555
Na20 O69 2.586450 1_555
Na20 O63 2.587103 1_555
Na20 O65 2.594725 1_555
Na20 O64 2.630488 1_555
Na20 O70 2.651226 1_555
In0 O5 2.071507 1_565
In0 O4 2.142815 1_555
In0 O41 2.162388 1_555
In0 O3 2.166148 1_665
In0 O39 2.259637 1_665
In0 O40 2.262332 1_655
In1 O13 2.080733 1_555
In1 O12 2.097117 1_555
In1 O48 2.162257 1_555
In1 O14 2.164648 1_555
In1 O50 2.281749 1_555
In1 O49 2.289023 1_555
In2 O15 2.087037 1_555
In2 O17 2.093806 1_555
In2 O16 2.153558 1_555
In2 O52 2.198721 1_555
In2 O53 2.294041 1_555
In2 O51 2.301413 1_555
In3 O18 2.072385 1_556
In3 O19 2.079918 1_556
In3 O54 2.167842 1_555
In3 O20 2.174445 1_556
In3 O56 2.262766 1_555
In3 O55 2.301071 1_555
In4 O31 2.092581 1_555
In4 O30 2.092983 1_555
In4 O32 2.157503 1_555
In4 O68 2.195046 1_555
In4 O67 2.293404 1_555
In4 O66 2.298191 1_555
In5 O35 2.070068 1_555
In5 O34 2.147980 1_555
In5 O71 2.165843 1_555
In5 O33 2.173003 1_555
In5 O70 2.263609 1_555
In5 O69 2.264027 1_555
O0 P0 1.551919 1_555
O0 Zr0 2.190172 1_445
O1 P1 1.559387 1_555
O1 Zr0 2.065168 1_555
O2 Si0 1.651270 1_555
O2 Zr0 2.048938 1_545
O3 P2 1.549054 1_555
O4 P3 1.547199 1_555
O5 Si1 1.637545 1_555
O6 Si1 1.658672 1_565
O6 Zr1 2.054575 1_665
O7 P2 1.559032 1_555
O7 Zr1 2.064350 1_555
O8 P3 1.556812 1_455
O8 Zr1 2.167937 1_565
O9 P1 1.545345 1_555
O9 Zr2 2.185451 1_665
O10 Si0 1.643765 1_455
O10 Zr2 2.055123 1_555
O11 P0 1.551845 1_565
O11 Zr2 2.066818 1_565
O12 Si2 1.631579 1_555
O13 Si3 1.626966 1_555
O14 P4 1.538904 1_555
O15 Si4 1.638888 1_555
O16 P5 1.540337 1_555
O17 Si5 1.637731 1_555
O18 Si5 1.618235 1_555
O19 Si4 1.631623 1_555
O20 P5 1.542320 1_555
O21 Si3 1.636430 1_555
O21 Zr3 2.060519 1_555
O22 P4 1.543071 1_555
O22 Zr3 2.119906 1_555
O23 Si2 1.647597 1_555
O23 Zr3 2.036433 1_555
O24 Si6 1.653536 1_555
O24 Zr4 2.059124 1_556
O25 P6 1.556085 1_555
O25 Zr4 2.119435 1_556
O26 P7 1.547500 1_555
O26 Zr4 2.112432 1_556
O27 Si7 1.630253 1_555
O27 Zr5 2.054219 1_555
O28 P8 1.540965 1_555
O28 Zr5 2.124317 1_555
O29 Si8 1.648303 1_555
O29 Zr5 2.034968 1_555
O30 Si8 1.634909 1_555
O31 Si7 1.632750 1_555
O32 P8 1.541328 1_555
O33 P6 1.551795 1_555
O34 P7 1.549883 1_555
O35 Si6 1.638075 1_555
O36 Si8 1.645775 1_555
O36 Zr0 2.094300 1_455
O37 Si7 1.653277 1_555
O37 Zr0 2.057687 1_555
O38 P8 1.570162 1_555
O38 Zr0 2.193019 1_445
O39 P6 1.557968 1_555
O40 P7 1.559004 1_555
O41 Si6 1.656774 1_555
O42 Si2 1.650448 1_555
O42 Zr1 2.065578 1_655
O43 Si3 1.647127 1_555
O43 Zr1 2.106024 1_555
O44 P4 1.571197 1_555
O44 Zr1 2.196262 1_665
O45 Si4 1.647373 1_555
O45 Zr2 2.070350 1_665
O46 P5 1.565862 1_555
O46 Zr2 2.181545 1_655
O47 Si5 1.652932 1_555
O47 Zr2 2.043476 1_555
O48 Si1 1.647158 1_555
O49 P2 1.548626 1_555
O50 P3 1.553816 1_555
O51 P1 1.553305 1_555
O52 Si0 1.649415 1_555
O53 P0 1.554028 1_555
O54 Si6 1.646737 1_555
O55 P6 1.552505 1_655
O56 P7 1.553690 1_545
O57 Si7 1.659523 1_545
O57 Zr3 2.113511 1_555
O58 P8 1.543723 1_555
O58 Zr3 2.190324 1_555
O59 Si8 1.636603 1_655
O59 Zr3 2.099421 1_555
O60 Si5 1.668515 1_555
O60 Zr4 2.085847 1_555
O61 Si4 1.644108 1_455
O61 Zr4 2.077480 1_555
O62 P5 1.553945 1_565
O62 Zr4 2.139839 1_555
O63 Si3 1.662961 1_565
O63 Zr5 2.101450 1_555
O64 P4 1.545977 1_555
O64 Zr5 2.208411 1_555
O65 Si2 1.633181 1_455
O65 Zr5 2.092751 1_555
O66 P0 1.552396 1_565
O67 P1 1.552238 1_555
O68 Si0 1.649294 1_455
O69 P2 1.556967 1_555
O70 P3 1.560689 1_455
O71 Si1 1.654914 1_565
