# generated using pymatgen
data_CsMnP3HO10
_symmetry_space_group_name_H-M   'P 1'
_cell_length_a   6.33504922
_cell_length_b   6.33504922
_cell_length_c   6.60529833
_cell_angle_alpha   73.45161492
_cell_angle_beta   73.45161492
_cell_angle_gamma   87.74702512
_symmetry_Int_Tables_number   1
_chemical_formula_structural   CsMnP3HO10
_chemical_formula_sum   'Cs1 Mn1 P3 H1 O10'
_cell_volume   243.33166301
_cell_formula_units_Z   1
loop_
 _symmetry_equiv_pos_site_id
 _symmetry_equiv_pos_as_xyz
  1  'x, y, z'
loop_
 _atom_site_type_symbol
 _atom_site_label
 _atom_site_symmetry_multiplicity
 _atom_site_fract_x
 _atom_site_fract_y
 _atom_site_fract_z
 _atom_site_occupancy
  Cs  Cs0  1  0.00110500  0.99889500  0.50000000  1
  Mn  Mn0  1  0.33591700  0.66408300  0.00000000  1
  P  P0  1  0.43524600  0.56475400  0.50000000  1
  P  P1  1  0.44248500  0.20373500  0.89299600  1
  P  P2  1  0.79626500  0.55751500  0.10700400  1
  H  H0  1  0.75140300  0.24859700  0.00000000  1
  O  O0  1  0.41188300  0.71721200  0.64183900  1
  O  O1  1  0.28278800  0.58811700  0.35816100  1
  O  O2  1  0.69182500  0.19723300  0.86141300  1
  O  O3  1  0.80276700  0.30817500  0.13858700  1
  O  O4  1  0.01953700  0.68031700  0.02332400  1
  O  O5  1  0.31968300  0.98046300  0.97667600  1
  O  O6  1  0.65362400  0.67431800  0.95833600  1
  O  O7  1  0.41005800  0.30957100  0.64863500  1
  O  O8  1  0.69042900  0.58994200  0.35136500  1
  O  O9  1  0.32568200  0.34637600  0.04166400  1
loop_
_geom_bond_atom_site_label_1
_geom_bond_atom_site_label_2
_geom_bond_distance
_geom_bond_site_symmetry_2
Cs0 O3 3.157090 1_465
Cs0 O2 3.157090 1_465
Cs0 O1 3.302338 1_555
Cs0 O0 3.302338 1_555
Cs0 O9 3.354493 1_565
Cs0 O6 3.354493 1_455
Cs0 O4 3.503279 1_556
Cs0 O5 3.503279 1_554
Cs0 O7 3.807881 1_565
Cs0 O8 3.807881 1_455
Mn0 O6 1.953312 1_554
Mn0 O9 1.953312 1_555
Mn0 O5 1.966820 1_554
Mn0 O4 1.966820 1_555
Mn0 O0 2.202793 1_554
Mn0 O1 2.202793 1_555
H0 O3 1.209321 1_555
H0 O2 1.209321 1_554
O0 P0 1.502573 1_555
O1 P0 1.502573 1_555
O2 P1 1.533740 1_555
O3 P2 1.533740 1_555
O4 P2 1.519071 1_455
O5 P1 1.519071 1_565
O6 P2 1.538636 1_556
O7 P0 1.621623 1_555
O7 P1 1.630509 1_555
O8 P0 1.621623 1_555
O8 P2 1.630509 1_555
O9 P1 1.538636 1_554
