# generated using pymatgen
data_NaNb2SiGe2P5O24
_symmetry_space_group_name_H-M   'P 1'
_cell_length_a   8.62529043
_cell_length_b   8.62175254
_cell_length_c   22.15130683
_cell_angle_alpha   90.04055609
_cell_angle_beta   89.94090446
_cell_angle_gamma   119.92756367
_symmetry_Int_Tables_number   1
_chemical_formula_structural   NaNb2SiGe2P5O24
_chemical_formula_sum   'Na3 Nb6 Si3 Ge6 P15 O72'
_cell_volume   1427.62965368
_cell_formula_units_Z   3
loop_
 _symmetry_equiv_pos_site_id
 _symmetry_equiv_pos_as_xyz
  1  'x, y, z'
loop_
 _atom_site_type_symbol
 _atom_site_label
 _atom_site_symmetry_multiplicity
 _atom_site_fract_x
 _atom_site_fract_y
 _atom_site_fract_z
 _atom_site_occupancy
  Na  Na0  1  0.99971517  0.99937031  0.99840256  1
  Na  Na1  1  0.66668376  0.33378607  0.82951102  1
  Na  Na2  1  0.66816290  0.33409261  0.33858153  1
  Nb  Nb0  1  0.99817941  0.00386663  0.36271918  1
  Nb  Nb1  1  0.00073978  0.99939519  0.63642193  1
  Nb  Nb2  1  0.66811576  0.33367260  0.19367267  1
  Nb  Nb3  1  0.66463821  0.33382690  0.97673855  1
  Nb  Nb4  1  0.33653486  0.67194512  0.02356817  1
  Nb  Nb5  1  0.33847216  0.66986247  0.80463579  1
  Si  Si0  1  0.01835704  0.29352760  0.25061733  1
  Si  Si1  1  0.62982173  0.67988752  0.91336930  1
  Si  Si2  1  0.32133152  0.95113726  0.91375356  1
  Ge  Ge0  1  0.99962790  0.99830485  0.85292140  1
  Ge  Ge1  1  0.00207782  0.00225902  0.15041675  1
  Ge  Ge2  1  0.66608529  0.33363195  0.68381461  1
  Ge  Ge3  1  0.66764369  0.33374006  0.47985596  1
  Ge  Ge4  1  0.33189362  0.66597780  0.52261297  1
  Ge  Ge5  1  0.33170610  0.66463478  0.31236908  1
  P  P0  1  0.27597009  0.98572620  0.25148565  1
  P  P1  1  0.71000538  0.72486764  0.25168193  1
  P  P2  1  0.28937151  0.27481750  0.74853028  1
  P  P3  1  0.98419966  0.70748832  0.74846074  1
  P  P4  1  0.72621597  0.01661222  0.74839091  1
  P  P5  1  0.95269112  0.34767550  0.58124325  1
  P  P6  1  0.39601031  0.04724228  0.58108767  1
  P  P7  1  0.65126741  0.60465201  0.58114072  1
  P  P8  1  0.95338698  0.63217543  0.08612270  1
  P  P9  1  0.67981795  0.04714401  0.08576795  1
  P  P10  1  0.36642833  0.32012724  0.08575359  1
  P  P11  1  0.05134974  0.37564134  0.91411252  1
  P  P12  1  0.60189649  0.94872209  0.41881384  1
  P  P13  1  0.34787367  0.39613391  0.41912675  1
  P  P14  1  0.04917145  0.65452393  0.41905180  1
  O  O0  1  0.19648162  0.02732140  0.30711762  1
  O  O1  1  0.83199349  0.79894622  0.30737471  1
  O  O2  1  0.97027024  0.16295008  0.30981292  1
  O  O3  1  0.20589376  0.16021276  0.80568130  1
  O  O4  1  0.95218840  0.79090826  0.80558889  1
  O  O5  1  0.83985778  0.04783795  0.80560913  1
  O  O6  1  0.80862495  0.98307389  0.69199341  1
  O  O7  1  0.17460824  0.19060951  0.69194271  1
  O  O8  1  0.01827034  0.82415342  0.69204064  1
  O  O9  1  0.79519361  0.83319520  0.19351303  1
  O  O10  1  0.04270849  0.20037849  0.19046995  1
  O  O11  1  0.16447670  0.95466510  0.19345742  1
  O  O12  1  0.87102811  0.37997310  0.63900879  1
  O  O13  1  0.50864391  0.12847803  0.63904456  1
  O  O14  1  0.61895493  0.49128363  0.63899437  1
  O  O15  1  0.86279295  0.51183495  0.14136180  1
  O  O16  1  0.64837501  0.13623253  0.14102000  1
  O  O17  1  0.48649867  0.35281085  0.14065094  1
  O  O18  1  0.46004695  0.29664394  0.02887223  1
  O  O19  1  0.83740544  0.54368823  0.02944418  1
  O  O20  1  0.70591160  0.16263061  0.02915892  1
  O  O21  1  0.47011978  0.16974074  0.52540751  1
  O  O22  1  0.70059368  0.53080979  0.52550769  1
  O  O23  1  0.83047656  0.29901520  0.52547017  1
  O  O24  1  0.53310926  0.70109798  0.97411925  1
  O  O25  1  0.16209972  0.46027080  0.97182076  1
  O  O26  1  0.29388851  0.83155069  0.97451796  1
  O  O27  1  0.52620068  0.83295973  0.47536362  1
  O  O28  1  0.30498384  0.47009398  0.47573548  1
  O  O29  1  0.16466383  0.69490232  0.47590937  1
  O  O30  1  0.12933596  0.62069909  0.36171560  1
  O  O31  1  0.49066926  0.87043177  0.36092110  1
  O  O32  1  0.38290701  0.50945859  0.36171907  1
  O  O33  1  0.12998071  0.49387510  0.85826246  1
  O  O34  1  0.36092332  0.86105297  0.85584193  1
  O  O35  1  0.49860452  0.63180945  0.85544804  1
  O  O36  1  0.02702025  0.82148290  0.40998837  1
  O  O37  1  0.79110028  0.96748561  0.41096582  1
  O  O38  1  0.18017302  0.20543325  0.41070553  1
  O  O39  1  0.03249010  0.19088905  0.90692462  1
  O  O40  1  0.15087029  0.97692702  0.90679251  1
  O  O41  1  0.81962884  0.85867720  0.90641146  1
  O  O42  1  0.97262427  0.17789444  0.59061534  1
  O  O43  1  0.20642931  0.02779539  0.59028046  1
  O  O44  1  0.82137627  0.79392763  0.59064859  1
  O  O45  1  0.97072101  0.81738887  0.09302080  1
  O  O46  1  0.84483270  0.02514569  0.09152082  1
  O  O47  1  0.18406051  0.14800275  0.09028723  1
  O  O48  1  0.70169592  0.18184035  0.74123041  1
  O  O49  1  0.47868085  0.29757085  0.74138698  1
  O  O50  1  0.81605295  0.51953310  0.74101804  1
  O  O51  1  0.68503964  0.53175271  0.24402152  1
  O  O52  1  0.83501882  0.31151597  0.24440404  1
  O  O53  1  0.46471671  0.15930047  0.24376782  1
  O  O54  1  0.65125413  0.50259641  0.92329493  1
  O  O55  1  0.86376566  0.35683245  0.92354713  1
  O  O56  1  0.50502982  0.14469820  0.92346769  1
  O  O57  1  0.63070649  0.14173129  0.42478442  1
  O  O58  1  0.51322342  0.36910476  0.42521926  1
  O  O59  1  0.85745886  0.48740054  0.42506927  1
  O  O60  1  0.34745651  0.48593824  0.07617558  1
  O  O61  1  0.13539143  0.64387743  0.07792778  1
  O  O62  1  0.50826663  0.86356517  0.07821518  1
  O  O63  1  0.36940732  0.85942988  0.57359720  1
  O  O64  1  0.49020419  0.63124137  0.57333467  1
  O  O65  1  0.14009575  0.50921693  0.57360965  1
  O  O66  1  0.30411006  0.82724144  0.26092968  1
  O  O67  1  0.52832144  0.70902962  0.26107036  1
  O  O68  1  0.18765138  0.48724451  0.26161692  1
  O  O69  1  0.30443241  0.46025374  0.75531671  1
  O  O70  1  0.15089094  0.68642369  0.75594993  1
  O  O71  1  0.53891118  0.84621238  0.75487910  1
loop_
_geom_bond_atom_site_label_1
_geom_bond_atom_site_label_2
_geom_bond_distance
_geom_bond_site_symmetry_2
Na0 O40 2.470005 1_655
Na0 O41 2.481822 1_555
Na0 O47 2.506581 1_666
Na0 O46 2.525593 1_566
Na0 O39 2.539758 1_665
Na0 O45 2.555235 1_556
Na1 O50 2.451034 1_555
Na1 O48 2.453855 1_555
Na1 O49 2.457238 1_555
Na1 O54 2.576855 1_555
Na1 O56 2.581517 1_555
Na1 O55 2.633966 1_555
Na2 O59 2.435725 1_555
Na2 O58 2.440614 1_555
Na2 O57 2.443309 1_555
Na2 O52 2.594981 1_555
Na2 O51 2.658904 1_555
Na2 O53 2.669424 1_555
Nb0 O2 1.909170 1_555
Nb0 O37 1.966798 1_545
Nb0 O38 1.973055 1_655
Nb0 O36 2.006011 1_645
Nb0 O0 2.033285 1_655
Nb0 O1 2.037817 1_545
Nb1 O43 1.953287 1_565
Nb1 O44 1.955951 1_455
Nb1 O42 1.957532 1_465
Nb1 O7 2.003356 1_565
Nb1 O6 2.011042 1_455
Nb1 O8 2.013584 1_555
Nb2 O52 1.910444 1_555
Nb2 O51 1.982587 1_555
Nb2 O53 1.983937 1_555
Nb2 O15 1.986612 1_555
Nb2 O16 1.998862 1_555
Nb2 O17 2.030415 1_555
Nb3 O54 1.924171 1_555
Nb3 O56 1.925437 1_555
Nb3 O18 1.995562 1_556
Nb3 O55 2.008429 1_555
Nb3 O19 2.041499 1_556
Nb3 O20 2.044814 1_556
Nb4 O24 1.925895 1_554
Nb4 O26 1.928068 1_554
Nb4 O62 1.986930 1_555
Nb4 O60 2.022952 1_555
Nb4 O61 2.023768 1_555
Nb4 O25 2.041827 1_554
Nb5 O34 1.928888 1_555
Nb5 O35 1.933412 1_555
Nb5 O71 1.972571 1_555
Nb5 O69 2.003523 1_555
Nb5 O70 2.008861 1_555
Nb5 O33 2.054939 1_555
Ge0 O41 1.843055 1_555
Ge0 O40 1.844764 1_655
Ge0 O3 1.931064 1_665
Ge0 O4 1.931912 1_555
Ge0 O5 1.941816 1_565
Ge0 O39 1.948484 1_665
Ge1 O10 1.796918 1_555
Ge1 O11 1.901648 1_545
Ge1 O9 1.903506 1_445
Ge1 O45 1.948800 1_445
Ge1 O47 1.961341 1_555
Ge1 O46 1.962534 1_455
Ge2 O14 1.884822 1_555
Ge2 O13 1.886741 1_555
Ge2 O12 1.887236 1_555
Ge2 O50 1.944109 1_555
Ge2 O48 1.956753 1_555
Ge2 O49 1.957222 1_555
Ge3 O23 1.872447 1_555
Ge3 O22 1.872596 1_555
Ge3 O21 1.874780 1_555
Ge3 O58 1.934117 1_555
Ge3 O59 1.934515 1_555
Ge3 O57 1.949840 1_555
Ge4 O27 1.888890 1_555
Ge4 O29 1.890865 1_555
Ge4 O28 1.895066 1_555
Ge4 O65 1.899171 1_555
Ge4 O63 1.903060 1_555
Ge4 O64 1.904803 1_555
Ge5 O68 1.803088 1_555
Ge5 O66 1.912137 1_555
Ge5 O67 1.913810 1_555
Ge5 O30 1.929251 1_555
Ge5 O31 1.938487 1_555
Ge5 O32 1.942321 1_555
O0 P0 1.536313 1_545
O1 P1 1.538819 1_555
O2 Si0 1.641316 1_655
O3 P2 1.545134 1_555
O4 P3 1.546304 1_555
O5 P4 1.542232 1_555
O6 P4 1.533717 1_565
O7 P2 1.536996 1_555
O8 P3 1.538225 1_455
O9 P1 1.545144 1_555
O10 Si0 1.621869 1_555
O11 P0 1.547211 1_555
O12 P5 1.550597 1_555
O13 P6 1.550779 1_555
O14 P7 1.550678 1_555
O15 P8 1.541166 1_555
O16 P9 1.538607 1_555
O17 P10 1.530245 1_555
O18 P10 1.562464 1_555
O19 P8 1.548800 1_555
O20 P9 1.546632 1_555
O21 P6 1.540093 1_555
O22 P7 1.540482 1_555
O23 P5 1.540849 1_555
O24 Si1 1.640036 1_555
O25 P11 1.544249 1_555
O26 Si2 1.639701 1_555
O27 P12 1.530174 1_555
O28 P13 1.532700 1_555
O29 P14 1.534835 1_555
O30 P14 1.541133 1_555
O31 P12 1.541336 1_555
O32 P13 1.539295 1_555
O33 P11 1.529663 1_555
O34 Si2 1.621053 1_555
O35 Si1 1.622671 1_555
O36 P14 1.556864 1_555
O37 P12 1.567048 1_555
O38 P13 1.567629 1_555
O39 P11 1.526517 1_555
O40 Si2 1.600517 1_555
O41 Si1 1.600585 1_555
O42 P5 1.570676 1_555
O43 P6 1.571376 1_555
O44 P7 1.572015 1_555
O45 P8 1.535303 1_555
O46 P9 1.532241 1_555
O47 P10 1.535356 1_555
O48 P4 1.549277 1_555
O49 P2 1.552290 1_555
O50 P3 1.552948 1_555
O51 P1 1.577745 1_555
O52 Si0 1.669983 1_655
O53 P0 1.577326 1_545
O54 Si1 1.643631 1_555
O55 P11 1.557350 1_655
O56 Si2 1.644262 1_545
O57 P12 1.560623 1_545
O58 P13 1.561604 1_555
O59 P14 1.565462 1_655
O60 P10 1.532780 1_555
O61 P8 1.532623 1_455
O62 P9 1.544629 1_565
O63 P6 1.526820 1_565
O64 P7 1.526665 1_555
O65 P5 1.527944 1_455
O66 P0 1.516971 1_555
O67 P1 1.517721 1_555
O68 Si0 1.596174 1_555
O69 P2 1.545333 1_555
O70 P3 1.545555 1_455
O71 P4 1.555828 1_565
