# generated using pymatgen
data_MgMn6(O2F)4
_symmetry_space_group_name_H-M   'P 1'
_cell_length_a   7.54627409
_cell_length_b   5.66212800
_cell_length_c   5.87233794
_cell_angle_alpha   74.51565773
_cell_angle_beta   68.36428627
_cell_angle_gamma   72.20746398
_symmetry_Int_Tables_number   1
_chemical_formula_structural   MgMn6(O2F)4
_chemical_formula_sum   'Mg1 Mn6 O8 F4'
_cell_volume   218.67841960
_cell_formula_units_Z   1
loop_
 _symmetry_equiv_pos_site_id
 _symmetry_equiv_pos_as_xyz
  1  'x, y, z'
loop_
 _atom_site_type_symbol
 _atom_site_label
 _atom_site_symmetry_multiplicity
 _atom_site_fract_x
 _atom_site_fract_y
 _atom_site_fract_z
 _atom_site_occupancy
  Mg  Mg0  1  0.15126600  0.33185300  0.84677900  1
  Mn  Mn0  1  0.81899100  0.68223600  0.66205500  1
  Mn  Mn1  1  0.67983900  0.37992400  0.29923500  1
  Mn  Mn2  1  0.34780100  0.71074100  0.64450800  1
  Mn  Mn3  1  0.16078400  0.30993100  0.32418300  1
  Mn  Mn4  1  0.51424600  0.02644500  0.01851500  1
  Mn  Mn5  1  0.96316000  0.92298900  0.05928600  1
  O  O0  1  0.34005600  0.36904900  0.98849800  1
  O  O1  1  0.62967800  0.60380200  0.53932400  1
  O  O2  1  0.97124100  0.21068000  0.19148600  1
  O  O3  1  0.69538100  0.12806200  0.11618400  1
  O  O4  1  0.04362700  0.71303500  0.79151500  1
  O  O5  1  0.32986700  0.97445900  0.34424900  1
  O  O6  1  0.65367700  0.68279200  0.00946300  1
  O  O7  1  0.00846000  0.64872200  0.33160800  1
  F  F0  1  0.66207200  0.07274400  0.65290000  1
  F  F1  1  0.28120500  0.95759900  0.88262000  1
  F  F2  1  0.35305100  0.39963500  0.49498800  1
  F  F3  1  0.99744900  0.25625300  0.68355400  1
loop_
_geom_bond_atom_site_label_1
_geom_bond_atom_site_label_2
_geom_bond_distance
_geom_bond_site_symmetry_2
Mg0 O0 1.979359 1_555
Mg0 O4 2.042633 1_555
Mg0 O2 2.052817 1_456
Mn0 O7 1.957215 1_655
Mn0 O6 1.960249 1_556
Mn0 O1 2.018781 1_555
Mn0 O4 2.164189 1_655
Mn1 O3 1.956084 1_555
Mn1 O1 2.001355 1_555
Mn1 O2 2.040626 1_555
Mn1 O6 2.087596 1_555
Mn2 O1 1.927824 1_555
Mn2 O5 2.000895 1_555
Mn2 O4 2.130902 1_555
Mn2 O0 2.392130 1_555
Mn3 O7 1.913926 1_555
Mn3 O5 1.939107 1_545
Mn3 O0 1.945759 1_554
Mn3 O2 2.125060 1_455
Mn4 O6 1.912811 1_545
Mn4 O5 1.915341 1_545
Mn4 O3 1.939938 1_555
Mn4 O0 1.987949 1_554
Mn5 O3 1.954118 1_565
Mn5 O7 1.959202 1_655
Mn5 O2 2.007659 1_565
Mn5 O4 2.026663 1_654
F0 Mn4 2.008697 1_556
F0 Mn0 2.162736 1_545
F0 Mn1 2.316206 1_555
F1 Mg0 2.034804 1_565
F1 Mn2 2.063373 1_555
F1 Mn5 2.284240 1_456
F1 Mn4 2.345499 1_566
F2 Mg0 2.085141 1_555
F2 Mn2 2.152444 1_555
F2 Mn3 2.272593 1_555
F2 Mn1 2.285848 1_555
F3 Mg0 1.947427 1_655
F3 Mn3 2.008365 1_655
F3 Mn0 2.371666 1_555
F3 Mn5 2.479975 1_546
