# generated using pymatgen
data_MgNb4(SnO6)2
_symmetry_space_group_name_H-M   'P 1'
_cell_length_a   5.14637588
_cell_length_b   5.72222225
_cell_length_c   9.49488708
_cell_angle_alpha   89.48640705
_cell_angle_beta   110.23321019
_cell_angle_gamma   90.39705954
_symmetry_Int_Tables_number   1
_chemical_formula_structural   MgNb4(SnO6)2
_chemical_formula_sum   'Mg1 Nb4 Sn2 O12'
_cell_volume   262.34531263
_cell_formula_units_Z   1
loop_
 _symmetry_equiv_pos_site_id
 _symmetry_equiv_pos_as_xyz
  1  'x, y, z'
loop_
 _atom_site_type_symbol
 _atom_site_label
 _atom_site_symmetry_multiplicity
 _atom_site_fract_x
 _atom_site_fract_y
 _atom_site_fract_z
 _atom_site_occupancy
  Mg  Mg0  1  0.47988600  0.80232300  0.87018500  1
  Nb  Nb0  1  0.40474000  0.16429300  0.37259100  1
  Nb  Nb1  1  0.12799800  0.34394600  0.67191900  1
  Nb  Nb2  1  0.60636200  0.85541000  0.60992700  1
  Nb  Nb3  1  0.87696400  0.65115000  0.33278600  1
  Sn  Sn0  1  0.80457200  0.28014800  0.97699500  1
  Sn  Sn1  1  0.19535200  0.81224000  0.05492200  1
  O  O0  1  0.75464100  0.17788600  0.56654200  1
  O  O1  1  0.16464100  0.35226400  0.44225000  1
  O  O2  1  0.24873300  0.83736500  0.43094200  1
  O  O3  1  0.85662300  0.65055900  0.56227000  1
  O  O4  1  0.60136900  0.41456500  0.29113700  1
  O  O5  1  0.33775000  0.06261400  0.71139800  1
  O  O6  1  0.94449700  0.62220800  0.14074400  1
  O  O7  1  0.83630800  0.91043300  0.86064000  1
  O  O8  1  0.06907400  0.39383300  0.85345500  1
  O  O9  1  0.13293500  0.11743400  0.15040000  1
  O  O10  1  0.63598100  0.90717700  0.29561000  1
  O  O11  1  0.42157400  0.58462700  0.70528600  1
loop_
_geom_bond_atom_site_label_1
_geom_bond_atom_site_label_2
_geom_bond_distance
_geom_bond_site_symmetry_2
Mg0 O11 1.948855 1_555
Mg0 O7 1.963099 1_555
Mg0 O5 2.058784 1_565
Mg0 Sn1 2.646449 1_556
Nb0 O1 1.928124 1_555
Nb0 O4 2.043151 1_555
Nb0 O0 2.084912 1_555
Nb0 O9 2.107858 1_555
Nb0 O2 2.172454 1_545
Nb0 O10 2.181818 1_545
Nb1 O8 1.875106 1_555
Nb1 O5 1.905449 1_555
Nb1 O11 1.981845 1_555
Nb1 O0 2.063476 1_455
Nb1 O1 2.252921 1_555
Nb1 O3 2.260129 1_455
Nb2 O3 1.916021 1_555
Nb2 O2 2.030575 1_555
Nb2 O0 2.083591 1_565
Nb2 O11 2.162188 1_555
Nb2 O5 2.282421 1_565
Nb2 O7 2.286055 1_555
Nb3 O10 1.876735 1_555
Nb3 O4 1.896257 1_555
Nb3 O6 1.979298 1_555
Nb3 O2 2.102564 1_655
Nb3 O3 2.217277 1_555
Nb3 O1 2.266298 1_655
O6 Sn1 2.050715 1_655
O6 Sn0 2.455135 1_554
O7 Sn1 2.184264 1_656
O7 Sn0 2.427845 1_565
O8 Sn0 2.174977 1_455
O9 Sn1 2.052431 1_545
O9 Sn0 2.122094 1_454
O10 Sn1 2.660948 1_555
