# generated using pymatgen
data_Na4Sc2Si2SO12
_symmetry_space_group_name_H-M   'P 1'
_cell_length_a   9.21185893
_cell_length_b   9.21185860
_cell_length_c   22.47732296
_cell_angle_alpha   89.92268693
_cell_angle_beta   90.07731306
_cell_angle_gamma   119.73119157
_symmetry_Int_Tables_number   1
_chemical_formula_structural   Na4Sc2Si2SO12
_chemical_formula_sum   'Na24 Sc12 Si12 S6 O72'
_cell_volume   1656.30090460
_cell_formula_units_Z   6
loop_
 _symmetry_equiv_pos_site_id
 _symmetry_equiv_pos_as_xyz
  1  'x, y, z'
loop_
 _atom_site_type_symbol
 _atom_site_label
 _atom_site_symmetry_multiplicity
 _atom_site_fract_x
 _atom_site_fract_y
 _atom_site_fract_z
 _atom_site_occupancy
  Na  Na0  1  0.65045796  0.99916706  0.25582534  1
  Na  Na1  1  0.36633496  0.37968457  0.24094133  1
  Na  Na2  1  0.98947110  0.61843708  0.25417697  1
  Na  Na3  1  0.62031543  0.63366504  0.74094133  1
  Na  Na4  1  0.00083294  0.34954204  0.75582534  1
  Na  Na5  1  0.38156292  0.01052890  0.75417697  1
  Na  Na6  1  0.31712496  0.33250006  0.58915834  1
  Na  Na7  1  0.03300196  0.71301757  0.57427433  1
  Na  Na8  1  0.65613810  0.95177008  0.58750997  1
  Na  Na9  1  0.28698243  0.96699804  0.07427433  1
  Na  Na10  1  0.66749994  0.68287504  0.08915834  1
  Na  Na11  1  0.04822992  0.34386190  0.08750997  1
  Na  Na12  1  0.98379096  0.66583406  0.92249234  1
  Na  Na13  1  0.69966796  0.04635157  0.90760833  1
  Na  Na14  1  0.32280410  0.28510408  0.92084397  1
  Na  Na15  1  0.95364843  0.30033204  0.40760833  1
  Na  Na16  1  0.33416594  0.01620904  0.42249234  1
  Na  Na17  1  0.71489592  0.67719590  0.42084397  1
  Na  Na18  1  0.99063183  0.97573052  0.50024737  1
  Na  Na19  1  0.02426948  0.00936817  0.00024737  1
  Na  Na20  1  0.65729883  0.30906352  0.83358037  1
  Na  Na21  1  0.69093648  0.34270117  0.33358037  1
  Na  Na22  1  0.32396483  0.64239752  0.16691437  1
  Na  Na23  1  0.35760248  0.67603517  0.66691437  1
  Sc  Sc0  1  0.98074493  0.98792885  0.35093102  1
  Sc  Sc1  1  0.01207115  0.01925507  0.85093102  1
  Sc  Sc2  1  0.99756920  0.00254207  0.64947213  1
  Sc  Sc3  1  0.99745793  0.00243080  0.14947213  1
  Sc  Sc4  1  0.64741193  0.32126185  0.68426402  1
  Sc  Sc5  1  0.67873815  0.35258807  0.18426402  1
  Sc  Sc6  1  0.66423620  0.33587507  0.98280513  1
  Sc  Sc7  1  0.66412493  0.33576380  0.48280513  1
  Sc  Sc8  1  0.31407793  0.65459585  0.01759802  1
  Sc  Sc9  1  0.34540415  0.68592207  0.51759802  1
  Sc  Sc10  1  0.33090220  0.66920907  0.31613913  1
  Sc  Sc11  1  0.33079093  0.66909780  0.81613913  1
  Si  Si0  1  0.69901224  0.70203220  0.24924446  1
  Si  Si1  1  0.99966104  0.29621821  0.25019470  1
  Si  Si2  1  0.29796780  0.30098776  0.74924446  1
  Si  Si3  1  0.70378179  0.00033896  0.75019470  1
  Si  Si4  1  0.36567924  0.03536520  0.58257746  1
  Si  Si5  1  0.66632804  0.62955121  0.58352770  1
  Si  Si6  1  0.96463480  0.63432076  0.08257746  1
  Si  Si7  1  0.37044879  0.33367196  0.08352770  1
  Si  Si8  1  0.03234524  0.36869920  0.91591146  1
  Si  Si9  1  0.33299404  0.96288521  0.91686170  1
  Si  Si10  1  0.63130080  0.96765476  0.41591146  1
  Si  Si11  1  0.03711479  0.66700596  0.41686170  1
  S  S0  1  0.29400096  0.00036108  0.25018732  1
  S  S1  1  0.99963892  0.70599904  0.75018732  1
  S  S2  1  0.96066796  0.33369408  0.58352032  1
  S  S3  1  0.66630592  0.03933204  0.08352032  1
  S  S4  1  0.62733396  0.66702808  0.91685432  1
  S  S5  1  0.33297192  0.37266604  0.41685432  1
  O  O0  1  0.21691057  0.02480458  0.30385244  1
  O  O1  1  0.81776326  0.78753584  0.30789139  1
  O  O2  1  0.97998698  0.18244607  0.30912147  1
  O  O3  1  0.21246416  0.18223674  0.80789139  1
  O  O4  1  0.97519542  0.78308943  0.80385244  1
  O  O5  1  0.81755393  0.02001302  0.80912147  1
  O  O6  1  0.79096651  0.97048268  0.69123399  1
  O  O7  1  0.18012877  0.20956524  0.69096069  1
  O  O8  1  0.02097709  0.80895169  0.69661003  1
  O  O9  1  0.79043476  0.81987123  0.19096069  1
  O  O10  1  0.02951732  0.20903349  0.19123399  1
  O  O11  1  0.19104831  0.97902291  0.19661003  1
  O  O12  1  0.88357757  0.35813758  0.63718544  1
  O  O13  1  0.48443026  0.12086884  0.64122439  1
  O  O14  1  0.64665398  0.51577907  0.64245447  1
  O  O15  1  0.87913116  0.51556974  0.14122439  1
  O  O16  1  0.64186242  0.11642243  0.13718544  1
  O  O17  1  0.48422093  0.35334602  0.14245447  1
  O  O18  1  0.45763351  0.30381568  0.02456699  1
  O  O19  1  0.84679577  0.54289824  0.02429369  1
  O  O20  1  0.68764409  0.14228469  0.02994303  1
  O  O21  1  0.45710176  0.15320423  0.52429369  1
  O  O22  1  0.69618432  0.54236649  0.52456699  1
  O  O23  1  0.85771531  0.31235591  0.52994303  1
  O  O24  1  0.55024357  0.69147158  0.97051944  1
  O  O25  1  0.15109626  0.45420284  0.97455839  1
  O  O26  1  0.31331998  0.84911307  0.97578847  1
  O  O27  1  0.54579716  0.84890374  0.47455839  1
  O  O28  1  0.30852842  0.44975643  0.47051944  1
  O  O29  1  0.15088693  0.68668002  0.47578847  1
  O  O30  1  0.12429951  0.63714968  0.35790099  1
  O  O31  1  0.51346177  0.87623224  0.35762769  1
  O  O32  1  0.35431009  0.47561869  0.36327703  1
  O  O33  1  0.12376776  0.48653823  0.85762769  1
  O  O34  1  0.36285032  0.87570049  0.85790099  1
  O  O35  1  0.52438131  0.64568991  0.86327703  1
  O  O36  1  0.03004525  0.84282193  0.41315793  1
  O  O37  1  0.82034421  0.98953536  0.41332642  1
  O  O38  1  0.18678528  0.20192906  0.41116205  1
  O  O39  1  0.01046464  0.17965579  0.91332642  1
  O  O40  1  0.15717807  0.96995475  0.91315793  1
  O  O41  1  0.79807094  0.81321472  0.91116205  1
  O  O42  1  0.97410246  0.17855233  0.58708090  1
  O  O43  1  0.17973529  0.01885787  0.58735398  1
  O  O44  1  0.83093661  0.81898221  0.58702809  1
  O  O45  1  0.98114213  0.82026471  0.08735398  1
  O  O46  1  0.82144767  0.02589754  0.08708090  1
  O  O47  1  0.18101779  0.16906339  0.08702809  1
  O  O48  1  0.69671225  0.17615493  0.74649093  1
  O  O49  1  0.48701121  0.32286836  0.74665942  1
  O  O50  1  0.85345228  0.53526206  0.74449505  1
  O  O51  1  0.67713164  0.51298879  0.24665942  1
  O  O52  1  0.82384507  0.30328775  0.24649093  1
  O  O53  1  0.46473794  0.14654772  0.24449505  1
  O  O54  1  0.64076946  0.51188533  0.92041390  1
  O  O55  1  0.84640229  0.35219087  0.92068698  1
  O  O56  1  0.49760361  0.15231521  0.92036109  1
  O  O57  1  0.64780913  0.15359771  0.42068698  1
  O  O58  1  0.48811467  0.35923054  0.42041390  1
  O  O59  1  0.84768479  0.50239639  0.42036109  1
  O  O60  1  0.36337825  0.50948893  0.07982493  1
  O  O61  1  0.15367721  0.65620236  0.07999342  1
  O  O62  1  0.52011828  0.86859606  0.07782905  1
  O  O63  1  0.34379764  0.84632279  0.57999342  1
  O  O64  1  0.49051107  0.63662175  0.57982493  1
  O  O65  1  0.13140394  0.47988172  0.57782905  1
  O  O66  1  0.30743546  0.84521933  0.25374790  1
  O  O67  1  0.51306829  0.68552487  0.25402098  1
  O  O68  1  0.16426961  0.48564921  0.25369509  1
  O  O69  1  0.31447513  0.48693171  0.75402098  1
  O  O70  1  0.15478067  0.69256454  0.75374790  1
  O  O71  1  0.51435079  0.83573039  0.75369509  1
loop_
_geom_bond_atom_site_label_1
_geom_bond_atom_site_label_2
_geom_bond_distance
_geom_bond_site_symmetry_2
Na0 O52 2.450453 1_565
Na0 O67 2.514825 1_555
Na0 O31 2.587358 1_555
Na0 O53 2.671459 1_565
Na0 O66 2.748310 1_555
Na0 O16 2.891503 1_565
Na0 O2 2.900442 1_565
Na0 O9 2.939436 1_555
Na1 O67 2.464743 1_555
Na1 O51 2.496723 1_555
Na1 O68 2.510815 1_555
Na1 O17 2.531400 1_555
Na1 O53 2.714890 1_555
Na1 O32 2.908438 1_555
Na1 O10 2.916157 1_555
Na2 O68 2.458233 1_655
Na2 O52 2.528452 1_555
Na2 O51 2.545106 1_555
Na2 O30 2.605542 1_655
Na2 O66 2.621918 1_655
Na2 O15 2.724178 1_555
Na2 O1 2.973248 1_555
Na3 O69 2.464743 1_555
Na3 O49 2.496723 1_555
Na3 O71 2.510815 1_555
Na3 O14 2.531400 1_555
Na3 O50 2.714891 1_555
Na3 O35 2.908438 1_555
Na3 O6 2.916157 1_555
Na4 O48 2.450453 1_455
Na4 O69 2.514825 1_555
Na4 O33 2.587358 1_555
Na4 O50 2.671459 1_455
Na4 O70 2.748310 1_555
Na4 O12 2.891503 1_455
Na4 O5 2.900442 1_455
Na4 O7 2.939436 1_555
Na5 O71 2.458233 1_545
Na5 O48 2.528453 1_555
Na5 O49 2.545106 1_555
Na5 O34 2.605542 1_545
Na5 O70 2.621918 1_545
Na5 O13 2.724178 1_555
Na5 O3 2.973248 1_555
Na6 O64 2.450458 1_555
Na6 O43 2.514825 1_555
Na6 O7 2.587358 1_555
Na6 O65 2.671473 1_555
Na6 O42 2.748310 1_455
Na6 O28 2.891487 1_555
Na6 O14 2.900442 1_555
Na6 O21 2.939436 1_555
Na7 O43 2.464743 1_565
Na7 O63 2.496715 1_555
Na7 O44 2.510815 1_455
Na7 O29 2.531373 1_555
Na7 O65 2.714876 1_555
Na7 O8 2.908438 1_555
Na7 O22 2.916157 1_455
Na8 O44 2.458233 1_555
Na8 O64 2.528443 1_555
Na8 O63 2.545115 1_555
Na8 O6 2.605542 1_555
Na8 O42 2.621918 1_565
Na8 O27 2.724158 1_555
Na8 O13 2.973248 1_565
Na9 O45 2.464743 1_455
Na9 O61 2.496715 1_555
Na9 O47 2.510815 1_565
Na9 O26 2.531373 1_554
Na9 O62 2.714876 1_555
Na9 O11 2.908438 1_555
Na9 O18 2.916157 1_565
Na10 O60 2.450458 1_555
Na10 O45 2.514825 1_555
Na10 O9 2.587358 1_555
Na10 O62 2.671473 1_555
Na10 O46 2.748310 1_565
Na10 O24 2.891487 1_554
Na10 O17 2.900442 1_555
Na10 O19 2.939436 1_555
Na11 O47 2.458233 1_555
Na11 O60 2.528443 1_555
Na11 O61 2.545115 1_555
Na11 O10 2.605542 1_555
Na11 O46 2.621918 1_455
Na11 O25 2.724158 1_554
Na11 O15 2.973248 1_455
Na12 O40 2.450453 1_655
Na12 O55 2.514834 1_555
Na12 O19 2.587337 1_556
Na12 O41 2.671459 1_555
Na12 O54 2.748302 1_555
Na12 O4 2.891503 1_555
Na12 O26 2.900442 1_655
Na12 O33 2.939436 1_655
Na13 O55 2.464732 1_555
Na13 O39 2.496723 1_655
Na13 O56 2.510797 1_555
Na13 O5 2.531400 1_555
Na13 O41 2.714890 1_545
Na13 O20 2.908412 1_556
Na13 O34 2.916157 1_545
Na14 O56 2.458249 1_555
Na14 O40 2.528452 1_545
Na14 O39 2.545106 1_555
Na14 O18 2.605527 1_556
Na14 O54 2.621923 1_555
Na14 O3 2.724178 1_555
Na14 O25 2.973248 1_555
Na15 O57 2.464733 1_555
Na15 O37 2.496723 1_545
Na15 O59 2.510797 1_555
Na15 O2 2.531400 1_555
Na15 O38 2.714891 1_655
Na15 O23 2.908412 1_555
Na15 O30 2.916157 1_655
Na16 O36 2.450453 1_545
Na16 O57 2.514834 1_555
Na16 O21 2.587337 1_555
Na16 O38 2.671459 1_555
Na16 O58 2.748302 1_555
Na16 O0 2.891503 1_555
Na16 O29 2.900442 1_545
Na16 O31 2.939436 1_545
Na17 O59 2.458249 1_555
Na17 O36 2.528453 1_655
Na17 O37 2.545106 1_555
Na17 O22 2.605527 1_555
Na17 O58 2.621923 1_555
Na17 O1 2.724178 1_555
Na17 O27 2.973248 1_555
Na18 O36 2.431473 1_655
Na18 O44 2.438682 1_555
Na18 O43 2.516407 1_665
Na18 O37 2.546162 1_555
Na18 O42 2.759757 1_565
Na18 O38 2.807219 1_665
Na19 O40 2.431473 1_544
Na19 O47 2.438682 1_555
Na19 O45 2.516407 1_445
Na19 O39 2.546162 1_554
Na19 O46 2.759757 1_455
Na19 O41 2.807219 1_444
Na20 O48 2.431473 1_555
Na20 O56 2.438682 1_555
Na20 O55 2.516407 1_555
Na20 O49 2.546162 1_555
Na20 O54 2.759757 1_555
Na20 O50 2.807219 1_555
Na21 O52 2.431473 1_555
Na21 O59 2.438682 1_555
Na21 O57 2.516407 1_555
Na21 O51 2.546162 1_555
Na21 O58 2.759757 1_555
Na21 O53 2.807219 1_555
Na22 O60 2.431473 1_555
Na22 O68 2.438682 1_555
Na22 O67 2.516407 1_555
Na22 O61 2.546162 1_555
Na22 O66 2.759757 1_555
Na22 O62 2.807219 1_555
Na23 O64 2.431473 1_555
Na23 O71 2.438682 1_555
Na23 O69 2.516407 1_555
Na23 O63 2.546162 1_555
Na23 O70 2.759757 1_555
Na23 O65 2.807219 1_555
O0 S0 1.473666 1_555
O0 Sc0 2.289177 1_445
O1 Si0 1.642883 1_555
O1 Sc0 1.962045 1_555
O2 Si1 1.641374 1_555
O2 Sc0 2.025299 1_545
O3 Si2 1.642883 1_555
O3 Sc1 1.962045 1_555
O4 S1 1.473666 1_555
O4 Sc1 2.289177 1_665
O5 Si3 1.641374 1_555
O5 Sc1 2.025300 1_655
O6 Si3 1.643160 1_565
O6 Sc2 2.009253 1_565
O7 Si2 1.642027 1_555
O7 Sc2 2.038196 1_455
O8 S1 1.483578 1_455
O8 Sc2 2.173720 1_465
O9 Si0 1.642027 1_555
O9 Sc3 2.038196 1_565
O10 Si1 1.643160 1_455
O10 Sc3 2.009253 1_455
O11 S0 1.483578 1_565
O11 Sc3 2.173720 1_465
O12 S2 1.473666 1_555
O12 Sc4 2.289177 1_555
O13 Si4 1.642883 1_555
O13 Sc4 1.962045 1_555
O14 Si5 1.641374 1_555
O14 Sc4 2.025299 1_555
O15 Si6 1.642883 1_555
O15 Sc5 1.962045 1_555
O16 S3 1.473666 1_555
O16 Sc5 2.289177 1_555
O17 Si7 1.641374 1_555
O17 Sc5 2.025300 1_555
O18 Si7 1.643160 1_555
O18 Sc6 2.009253 1_554
O19 Si6 1.642027 1_555
O19 Sc6 2.038196 1_554
O20 S3 1.483578 1_555
O20 Sc6 2.173720 1_554
O21 Si4 1.642027 1_555
O21 Sc7 2.038196 1_555
O22 Si5 1.643160 1_555
O22 Sc7 2.009253 1_555
O23 S2 1.483578 1_555
O23 Sc7 2.173720 1_555
O24 S4 1.473666 1_555
O24 Sc8 2.289177 1_556
O25 Si8 1.642883 1_555
O25 Sc8 1.962045 1_556
O26 Si9 1.641374 1_555
O26 Sc8 2.025299 1_556
O27 Si10 1.642883 1_555
O27 Sc9 1.962045 1_555
O28 S5 1.473666 1_555
O28 Sc9 2.289177 1_555
O29 Si11 1.641374 1_555
O29 Sc9 2.025300 1_555
O30 Si11 1.643160 1_555
O30 Sc10 2.009253 1_555
O31 Si10 1.642027 1_555
O31 Sc10 2.038196 1_555
O32 S5 1.483578 1_555
O32 Sc10 2.173720 1_555
O33 Si8 1.642027 1_555
O33 Sc11 2.038196 1_555
O34 Si9 1.643160 1_555
O34 Sc11 2.009253 1_555
O35 S4 1.483578 1_555
O35 Sc11 2.173720 1_555
O36 Si11 1.654837 1_555
O36 Sc0 2.131839 1_455
O37 Si10 1.651881 1_555
O37 Sc0 2.043962 1_555
O38 S5 1.484199 1_555
O38 Sc0 2.368667 1_445
O39 Si8 1.651881 1_555
O39 Sc1 2.043962 1_555
O40 Si9 1.654837 1_555
O40 Sc1 2.131839 1_565
O41 S4 1.484199 1_555
O41 Sc1 2.368667 1_665
O42 S2 1.496417 1_555
O42 Sc2 2.232262 1_555
O43 Si4 1.646434 1_555
O43 Sc2 2.131590 1_455
O44 Si5 1.651092 1_555
O44 Sc2 2.147467 1_565
O45 Si6 1.646434 1_555
O45 Sc3 2.131590 1_565
O46 S3 1.496417 1_555
O46 Sc3 2.232262 1_555
O47 Si7 1.651092 1_555
O47 Sc3 2.147467 1_455
O48 Si3 1.654837 1_555
O48 Sc4 2.131839 1_555
O49 Si2 1.651881 1_555
O49 Sc4 2.043962 1_555
O50 S1 1.484199 1_555
O50 Sc4 2.368667 1_555
O51 Si0 1.651881 1_555
O51 Sc5 2.043962 1_555
O52 Si1 1.654837 1_555
O52 Sc5 2.131839 1_555
O53 S0 1.484199 1_555
O53 Sc5 2.368667 1_555
O54 S4 1.496430 1_555
O54 Sc6 2.232262 1_555
O55 Si8 1.646419 1_655
O55 Sc6 2.131590 1_555
O56 Si9 1.651089 1_545
O56 Sc6 2.147467 1_555
O57 Si10 1.646419 1_545
O57 Sc7 2.131590 1_555
O58 S5 1.496430 1_555
O58 Sc7 2.232262 1_555
O59 Si11 1.651089 1_655
O59 Sc7 2.147467 1_555
O60 Si7 1.654850 1_555
O60 Sc8 2.131839 1_555
O61 Si6 1.651868 1_455
O61 Sc8 2.043962 1_555
O62 S3 1.484195 1_565
O62 Sc8 2.368667 1_555
O63 Si4 1.651867 1_565
O63 Sc9 2.043962 1_555
O64 Si5 1.654850 1_555
O64 Sc9 2.131839 1_555
O65 S2 1.484195 1_455
O65 Sc9 2.368667 1_555
O66 S0 1.496417 1_565
O66 Sc10 2.232262 1_555
O67 Si0 1.646434 1_555
O67 Sc10 2.131590 1_555
O68 Si1 1.651092 1_455
O68 Sc10 2.147467 1_555
O69 Si2 1.646434 1_555
O69 Sc11 2.131590 1_555
O70 S1 1.496417 1_455
O70 Sc11 2.232262 1_555
O71 Si3 1.651092 1_565
O71 Sc11 2.147467 1_555
