# generated using pymatgen
data_MgTi(CoO3)2
_symmetry_space_group_name_H-M   'P 1'
_cell_length_a   6.41423303
_cell_length_b   3.02781479
_cell_length_c   5.90804961
_cell_angle_alpha   90.00856240
_cell_angle_beta   102.10794815
_cell_angle_gamma   76.37008762
_symmetry_Int_Tables_number   1
_chemical_formula_structural   MgTi(CoO3)2
_chemical_formula_sum   'Mg1 Ti1 Co2 O6'
_cell_volume   108.88221664
_cell_formula_units_Z   1
loop_
 _symmetry_equiv_pos_site_id
 _symmetry_equiv_pos_as_xyz
  1  'x, y, z'
loop_
 _atom_site_type_symbol
 _atom_site_label
 _atom_site_symmetry_multiplicity
 _atom_site_fract_x
 _atom_site_fract_y
 _atom_site_fract_z
 _atom_site_occupancy
  Mg  Mg0  1  0.65990300  0.66598300  0.15823500  1
  Ti  Ti0  1  0.29312100  0.34777500  0.37823100  1
  Co  Co0  1  0.02758600  0.98290900  0.97194800  1
  Co  Co1  1  0.68552200  0.65296100  0.66127200  1
  O  O0  1  0.00163200  0.49586600  0.22032900  1
  O  O1  1  0.34880000  0.82137200  0.58218400  1
  O  O2  1  0.69447100  0.14894600  0.91426700  1
  O  O3  1  0.32369000  0.83611600  0.13648400  1
  O  O4  1  0.63292000  0.18008800  0.40935500  1
  O  O5  1  0.98784700  0.50228000  0.74794800  1
loop_
_geom_bond_atom_site_label_1
_geom_bond_atom_site_label_2
_geom_bond_distance
_geom_bond_site_symmetry_2
Mg0 O3 2.071900 1_555
Mg0 O0 2.082081 1_655
Mg0 O2 2.132439 1_554
Mg0 O2 2.133688 1_564
Mg0 O4 2.150330 1_555
Mg0 O4 2.152723 1_565
Co0 O3 1.891433 1_556
Co0 O5 1.989850 1_465
Co0 O5 1.991700 1_455
Co0 O2 2.030417 1_465
Co0 O0 2.138527 1_566
Co0 O0 2.138835 1_556
Co1 O5 1.843185 1_555
Co1 O1 2.049584 1_555
Co1 O4 2.096506 1_555
Co1 O4 2.100617 1_565
Co1 O2 2.118896 1_555
Co1 O2 2.120533 1_565
O0 Ti0 1.854816 1_555
O1 Ti0 1.916146 1_565
O1 Ti0 1.922513 1_555
O3 Ti0 2.109990 1_565
O3 Ti0 2.125884 1_555
O4 Ti0 2.086238 1_555
