# generated using pymatgen
data_MgTe4Mo2W2(SeS)2
_symmetry_space_group_name_H-M   'P 1'
_cell_length_a   6.77010800
_cell_length_b   6.77007092
_cell_length_c   77.78974800
_cell_angle_alpha   89.99949594
_cell_angle_beta   90.00040492
_cell_angle_gamma   119.99680774
_symmetry_Int_Tables_number   1
_chemical_formula_structural   MgTe4Mo2W2(SeS)2
_chemical_formula_sum   'Mg8 Te32 Mo16 W16 Se16 S16'
_cell_volume   3087.84705251
_cell_formula_units_Z   8
loop_
 _symmetry_equiv_pos_site_id
 _symmetry_equiv_pos_as_xyz
  1  'x, y, z'
loop_
 _atom_site_type_symbol
 _atom_site_label
 _atom_site_symmetry_multiplicity
 _atom_site_fract_x
 _atom_site_fract_y
 _atom_site_fract_z
 _atom_site_occupancy
  Mg  Mg0_0  1  0.15222100  0.33624900  0.43748550  1
  Mg  Mg0_1  1  0.15222100  0.33624900  0.93748550  1
  Mg  Mg0_2  1  0.15222100  0.83624900  0.43748550  1
  Mg  Mg0_3  1  0.15222100  0.83624900  0.93748550  1
  Mg  Mg0_4  1  0.65222100  0.33624900  0.43748550  1
  Mg  Mg0_5  1  0.65222100  0.33624900  0.93748550  1
  Mg  Mg0_6  1  0.65222100  0.83624900  0.43748550  1
  Mg  Mg0_7  1  0.65222100  0.83624900  0.93748550  1
  Te  Te0_0  1  0.16667950  0.33335950  0.35292150  1
  Te  Te0_1  1  0.16667950  0.33335950  0.85292150  1
  Te  Te0_2  1  0.16667950  0.83335950  0.35292150  1
  Te  Te0_3  1  0.16667950  0.83335950  0.85292150  1
  Te  Te0_4  1  0.66667950  0.33335950  0.35292150  1
  Te  Te0_5  1  0.66667950  0.33335950  0.85292150  1
  Te  Te0_6  1  0.66667950  0.83335950  0.35292150  1
  Te  Te0_7  1  0.66667950  0.83335950  0.85292150  1
  Te  Te1_0  1  0.33332200  0.16664400  0.02281700  1
  Te  Te1_1  1  0.33332200  0.16664400  0.52281700  1
  Te  Te1_2  1  0.33332200  0.66664400  0.02281700  1
  Te  Te1_3  1  0.33332200  0.66664400  0.52281700  1
  Te  Te1_4  1  0.83332200  0.16664400  0.02281700  1
  Te  Te1_5  1  0.83332200  0.16664400  0.52281700  1
  Te  Te1_6  1  0.83332200  0.66664400  0.02281700  1
  Te  Te1_7  1  0.83332200  0.66664400  0.52281700  1
  Te  Te2_0  1  0.33332300  0.16663950  0.07111300  1
  Te  Te2_1  1  0.33332300  0.16663950  0.57111300  1
  Te  Te2_2  1  0.33332300  0.66663950  0.07111300  1
  Te  Te2_3  1  0.33332300  0.66663950  0.57111300  1
  Te  Te2_4  1  0.83332300  0.16663950  0.07111300  1
  Te  Te2_5  1  0.83332300  0.16663950  0.57111300  1
  Te  Te2_6  1  0.83332300  0.66663950  0.07111300  1
  Te  Te2_7  1  0.83332300  0.66663950  0.57111300  1
  Te  Te3_0  1  0.16668050  0.33336750  0.30460900  1
  Te  Te3_1  1  0.16668050  0.33336750  0.80460900  1
  Te  Te3_2  1  0.16668050  0.83336750  0.30460900  1
  Te  Te3_3  1  0.16668050  0.83336750  0.80460900  1
  Te  Te3_4  1  0.66668050  0.33336750  0.30460900  1
  Te  Te3_5  1  0.66668050  0.33336750  0.80460900  1
  Te  Te3_6  1  0.66668050  0.83336750  0.30460900  1
  Te  Te3_7  1  0.66668050  0.83336750  0.80460900  1
  Mo  Mo0_0  1  0.16665300  0.33331200  0.04694100  1
  Mo  Mo0_1  1  0.16665300  0.33331200  0.54694100  1
  Mo  Mo0_2  1  0.16665300  0.83331200  0.04694100  1
  Mo  Mo0_3  1  0.16665300  0.83331200  0.54694100  1
  Mo  Mo0_4  1  0.66665300  0.33331200  0.04694100  1
  Mo  Mo0_5  1  0.66665300  0.33331200  0.54694100  1
  Mo  Mo0_6  1  0.66665300  0.83331200  0.04694100  1
  Mo  Mo0_7  1  0.66665300  0.83331200  0.54694100  1
  Mo  Mo1_0  1  0.33334750  0.16668750  0.32879400  1
  Mo  Mo1_1  1  0.33334750  0.16668750  0.82879400  1
  Mo  Mo1_2  1  0.33334750  0.66668750  0.32879400  1
  Mo  Mo1_3  1  0.33334750  0.66668750  0.82879400  1
  Mo  Mo1_4  1  0.83334750  0.16668750  0.32879400  1
  Mo  Mo1_5  1  0.83334750  0.16668750  0.82879400  1
  Mo  Mo1_6  1  0.83334750  0.66668750  0.32879400  1
  Mo  Mo1_7  1  0.83334750  0.66668750  0.82879400  1
  W  W0_0  1  0.16665550  0.33331650  0.23482350  1
  W  W0_1  1  0.16665550  0.33331650  0.73482350  1
  W  W0_2  1  0.16665550  0.83331650  0.23482350  1
  W  W0_3  1  0.16665550  0.83331650  0.73482350  1
  W  W0_4  1  0.66665550  0.33331650  0.23482350  1
  W  W0_5  1  0.66665550  0.33331650  0.73482350  1
  W  W0_6  1  0.66665550  0.83331650  0.23482350  1
  W  W0_7  1  0.66665550  0.83331650  0.73482350  1
  W  W1_0  1  0.33336000  0.16668000  0.14090800  1
  W  W1_1  1  0.33336000  0.16668000  0.64090800  1
  W  W1_2  1  0.33336000  0.66668000  0.14090800  1
  W  W1_3  1  0.33336000  0.66668000  0.64090800  1
  W  W1_4  1  0.83336000  0.16668000  0.14090800  1
  W  W1_5  1  0.83336000  0.16668000  0.64090800  1
  W  W1_6  1  0.83336000  0.66668000  0.14090800  1
  W  W1_7  1  0.83336000  0.66668000  0.64090800  1
  Se  Se0_0  1  0.33332700  0.16664000  0.21347650  1
  Se  Se0_1  1  0.33332700  0.16664000  0.71347650  1
  Se  Se0_2  1  0.33332700  0.66664000  0.21347650  1
  Se  Se0_3  1  0.33332700  0.66664000  0.71347650  1
  Se  Se0_4  1  0.83332700  0.16664000  0.21347650  1
  Se  Se0_5  1  0.83332700  0.16664000  0.71347650  1
  Se  Se0_6  1  0.83332700  0.66664000  0.21347650  1
  Se  Se0_7  1  0.83332700  0.66664000  0.71347650  1
  Se  Se1_0  1  0.33332750  0.16664900  0.25615500  1
  Se  Se1_1  1  0.33332750  0.16664900  0.75615500  1
  Se  Se1_2  1  0.33332750  0.66664900  0.25615500  1
  Se  Se1_3  1  0.33332750  0.66664900  0.75615500  1
  Se  Se1_4  1  0.83332750  0.16664900  0.25615500  1
  Se  Se1_5  1  0.83332750  0.16664900  0.75615500  1
  Se  Se1_6  1  0.83332750  0.66664900  0.25615500  1
  Se  Se1_7  1  0.83332750  0.66664900  0.75615500  1
  S  S0_0  1  0.16668250  0.33336400  0.16028200  1
  S  S0_1  1  0.16668250  0.33336400  0.66028200  1
  S  S0_2  1  0.16668250  0.83336400  0.16028200  1
  S  S0_3  1  0.16668250  0.83336400  0.66028200  1
  S  S0_4  1  0.66668250  0.33336400  0.16028200  1
  S  S0_5  1  0.66668250  0.33336400  0.66028200  1
  S  S0_6  1  0.66668250  0.83336400  0.16028200  1
  S  S0_7  1  0.66668250  0.83336400  0.66028200  1
  S  S1_0  1  0.16667500  0.33335950  0.12150850  1
  S  S1_1  1  0.16667500  0.33335950  0.62150850  1
  S  S1_2  1  0.16667500  0.83335950  0.12150850  1
  S  S1_3  1  0.16667500  0.83335950  0.62150850  1
  S  S1_4  1  0.66667500  0.33335950  0.12150850  1
  S  S1_5  1  0.66667500  0.33335950  0.62150850  1
  S  S1_6  1  0.66667500  0.83335950  0.12150850  1
  S  S1_7  1  0.66667500  0.83335950  0.62150850  1
loop_
_geom_bond_atom_site_label_1
_geom_bond_atom_site_label_2
_geom_bond_distance
_geom_bond_site_symmetry_2
Mg0_0 Mg0_2 3.385035 1_545
Mg0_0 Mg0_2 3.385035 1_555
Mg0_0 Mg0_4 3.385054 1_455
Mg0_0 Mg0_4 3.385054 1_555
Mg0_0 Mg0_6 3.385208 1_555
Mg0_0 Mg0_6 3.385208 1_445
Mg0_1 Mg0_3 3.385035 1_555
Mg0_1 Mg0_3 3.385035 1_545
Mg0_1 Mg0_5 3.385054 1_555
Mg0_1 Mg0_5 3.385054 1_455
Mg0_1 Mg0_7 3.385208 1_555
Mg0_1 Mg0_7 3.385208 1_445
Mg0_2 Mg0_6 3.385054 1_455
Mg0_2 Mg0_6 3.385054 1_555
Mg0_2 Mg0_4 3.385208 1_565
Mg0_2 Mg0_4 3.385208 1_455
Mg0_3 Mg0_7 3.385054 1_455
Mg0_3 Mg0_7 3.385054 1_555
Mg0_3 Mg0_5 3.385208 1_455
Mg0_3 Mg0_5 3.385208 1_565
Mg0_4 Mg0_6 3.385035 1_555
Mg0_4 Mg0_6 3.385035 1_545
Mg0_5 Mg0_7 3.385035 1_555
Mg0_5 Mg0_7 3.385035 1_545
Mo0_0 Te1_0 2.709458 1_555
Mo0_0 Te1_2 2.709481 1_555
Mo0_0 Te1_4 2.709488 1_455
Mo0_0 Te2_0 2.712044 1_555
Mo0_0 Te2_2 2.712066 1_555
Mo0_0 Te2_4 2.712080 1_455
Mo0_1 Te1_1 2.709458 1_555
Mo0_1 Te1_3 2.709481 1_555
Mo0_1 Te1_5 2.709488 1_455
Mo0_1 Te2_1 2.712044 1_555
Mo0_1 Te2_3 2.712066 1_555
Mo0_1 Te2_5 2.712080 1_455
Mo0_2 Te1_2 2.709458 1_555
Mo0_2 Te1_0 2.709481 1_565
Mo0_2 Te1_6 2.709488 1_455
Mo0_2 Te2_2 2.712044 1_555
Mo0_2 Te2_0 2.712066 1_565
Mo0_2 Te2_6 2.712080 1_455
Mo0_3 Te1_3 2.709458 1_555
Mo0_3 Te1_1 2.709481 1_565
Mo0_3 Te1_7 2.709488 1_455
Mo0_3 Te2_3 2.712044 1_555
Mo0_3 Te2_1 2.712066 1_565
Mo0_3 Te2_7 2.712080 1_455
Mo0_4 Te1_4 2.709458 1_555
Mo0_4 Te1_6 2.709481 1_555
Mo0_4 Te1_0 2.709488 1_555
Mo0_4 Te2_4 2.712044 1_555
Mo0_4 Te2_6 2.712066 1_555
Mo0_4 Te2_0 2.712080 1_555
Mo0_5 Te1_5 2.709458 1_555
Mo0_5 Te1_7 2.709481 1_555
Mo0_5 Te1_1 2.709488 1_555
Mo0_5 Te2_5 2.712044 1_555
Mo0_5 Te2_7 2.712066 1_555
Mo0_5 Te2_1 2.712080 1_555
Mo0_6 Te1_6 2.709458 1_555
Mo0_6 Te1_4 2.709481 1_565
Mo0_6 Te1_2 2.709488 1_555
Mo0_6 Te2_6 2.712044 1_555
Mo0_6 Te2_4 2.712066 1_565
Mo0_6 Te2_2 2.712080 1_555
Mo0_7 Te1_7 2.709458 1_555
Mo0_7 Te1_5 2.709481 1_565
Mo0_7 Te1_3 2.709488 1_555
Mo0_7 Te2_7 2.712044 1_555
Mo0_7 Te2_5 2.712066 1_565
Mo0_7 Te2_3 2.712080 1_555
Mo1_0 Te0_2 2.709652 1_545
Mo1_0 Te0_0 2.709660 1_555
Mo1_0 Te0_4 2.709681 1_555
Mo1_0 Te3_2 2.712735 1_545
Mo1_0 Te3_0 2.712765 1_555
Mo1_0 Te3_4 2.712794 1_555
Mo1_1 Te0_3 2.709652 1_545
Mo1_1 Te0_1 2.709660 1_555
Mo1_1 Te0_5 2.709681 1_555
Mo1_1 Te3_3 2.712735 1_545
Mo1_1 Te3_1 2.712765 1_555
Mo1_1 Te3_5 2.712794 1_555
Mo1_2 Te0_0 2.709652 1_555
Mo1_2 Te0_2 2.709660 1_555
Mo1_2 Te0_6 2.709681 1_555
Mo1_2 Te3_0 2.712735 1_555
Mo1_2 Te3_2 2.712765 1_555
Mo1_2 Te3_6 2.712794 1_555
Mo1_3 Te0_1 2.709652 1_555
Mo1_3 Te0_3 2.709660 1_555
Mo1_3 Te0_7 2.709681 1_555
Mo1_3 Te3_1 2.712735 1_555
Mo1_3 Te3_3 2.712765 1_555
Mo1_3 Te3_7 2.712794 1_555
Mo1_4 Te0_6 2.709652 1_545
Mo1_4 Te0_4 2.709660 1_555
Mo1_4 Te0_0 2.709681 1_655
Mo1_4 Te3_6 2.712735 1_545
Mo1_4 Te3_4 2.712765 1_555
Mo1_4 Te3_0 2.712794 1_655
Mo1_5 Te0_7 2.709652 1_545
Mo1_5 Te0_5 2.709660 1_555
Mo1_5 Te0_1 2.709681 1_655
Mo1_5 Te3_7 2.712735 1_545
Mo1_5 Te3_5 2.712765 1_555
Mo1_5 Te3_1 2.712794 1_655
Mo1_6 Te0_4 2.709652 1_555
Mo1_6 Te0_6 2.709660 1_555
Mo1_6 Te0_2 2.709681 1_655
Mo1_6 Te3_4 2.712735 1_555
Mo1_6 Te3_6 2.712765 1_555
Mo1_6 Te3_2 2.712794 1_655
Mo1_7 Te0_5 2.709652 1_555
Mo1_7 Te0_7 2.709660 1_555
Mo1_7 Te0_3 2.709681 1_655
Mo1_7 Te3_5 2.712735 1_555
Mo1_7 Te3_7 2.712765 1_555
Mo1_7 Te3_3 2.712794 1_655
Se0_0 W0_2 2.564564 1_545
Se0_0 W0_4 2.564598 1_555
Se0_0 W0_0 2.564625 1_555
Se0_1 W0_3 2.564564 1_545
Se0_1 W0_5 2.564598 1_555
Se0_1 W0_1 2.564625 1_555
Se0_2 W0_0 2.564564 1_555
Se0_2 W0_6 2.564598 1_555
Se0_2 W0_2 2.564625 1_555
Se0_3 W0_1 2.564564 1_555
Se0_3 W0_7 2.564598 1_555
Se0_3 W0_3 2.564625 1_555
Se0_4 W0_6 2.564564 1_545
Se0_4 W0_0 2.564598 1_655
Se0_4 W0_4 2.564625 1_555
Se0_5 W0_7 2.564564 1_545
Se0_5 W0_1 2.564598 1_655
Se0_5 W0_5 2.564625 1_555
Se0_6 W0_4 2.564564 1_555
Se0_6 W0_2 2.564598 1_655
Se0_6 W0_6 2.564625 1_555
Se0_7 W0_5 2.564564 1_555
Se0_7 W0_3 2.564598 1_655
Se0_7 W0_7 2.564625 1_555
Se1_0 W0_0 2.563783 1_555
Se1_0 W0_4 2.563823 1_555
Se1_0 W0_2 2.563839 1_545
Se1_1 W0_1 2.563783 1_555
Se1_1 W0_5 2.563823 1_555
Se1_1 W0_3 2.563839 1_545
Se1_2 W0_2 2.563783 1_555
Se1_2 W0_6 2.563823 1_555
Se1_2 W0_0 2.563839 1_555
Se1_3 W0_3 2.563783 1_555
Se1_3 W0_7 2.563823 1_555
Se1_3 W0_1 2.563839 1_555
Se1_4 W0_4 2.563783 1_555
Se1_4 W0_0 2.563823 1_655
Se1_4 W0_6 2.563839 1_545
Se1_5 W0_5 2.563783 1_555
Se1_5 W0_1 2.563823 1_655
Se1_5 W0_7 2.563839 1_545
Se1_6 W0_6 2.563783 1_555
Se1_6 W0_2 2.563823 1_655
Se1_6 W0_4 2.563839 1_555
Se1_7 W0_7 2.563783 1_555
Se1_7 W0_3 2.563823 1_655
Se1_7 W0_5 2.563839 1_555
S0_0 W1_2 2.467924 1_555
S0_0 W1_4 2.467966 1_455
S0_0 W1_0 2.468083 1_555
S0_1 W1_3 2.467924 1_555
S0_1 W1_5 2.467966 1_455
S0_1 W1_1 2.468083 1_555
S0_2 W1_0 2.467924 1_565
S0_2 W1_6 2.467966 1_455
S0_2 W1_2 2.468083 1_555
S0_3 W1_1 2.467924 1_565
S0_3 W1_7 2.467966 1_455
S0_3 W1_3 2.468083 1_555
S0_4 W1_6 2.467924 1_555
S0_4 W1_0 2.467966 1_555
S0_4 W1_4 2.468083 1_555
S0_5 W1_7 2.467924 1_555
S0_5 W1_1 2.467966 1_555
S0_5 W1_5 2.468083 1_555
S0_6 W1_4 2.467924 1_565
S0_6 W1_2 2.467966 1_555
S0_6 W1_6 2.468083 1_555
S0_7 W1_5 2.467924 1_565
S0_7 W1_3 2.467966 1_555
S0_7 W1_7 2.468083 1_555
S1_0 W1_4 2.469150 1_455
S1_0 W1_2 2.469171 1_555
S1_0 W1_0 2.469286 1_555
S1_1 W1_5 2.469150 1_455
S1_1 W1_3 2.469171 1_555
S1_1 W1_1 2.469286 1_555
S1_2 W1_6 2.469150 1_455
S1_2 W1_0 2.469171 1_565
S1_2 W1_2 2.469286 1_555
S1_3 W1_7 2.469150 1_455
S1_3 W1_1 2.469171 1_565
S1_3 W1_3 2.469286 1_555
S1_4 W1_0 2.469150 1_555
S1_4 W1_6 2.469171 1_555
S1_4 W1_4 2.469286 1_555
S1_5 W1_1 2.469150 1_555
S1_5 W1_7 2.469171 1_555
S1_5 W1_5 2.469286 1_555
S1_6 W1_2 2.469150 1_555
S1_6 W1_4 2.469171 1_565
S1_6 W1_6 2.469286 1_555
S1_7 W1_3 2.469150 1_555
S1_7 W1_5 2.469171 1_565
S1_7 W1_7 2.469286 1_555
