# generated using pymatgen
data_ErNiSb
_symmetry_space_group_name_H-M   'P 1'
_cell_length_a   4.43223389
_cell_length_b   4.43223537
_cell_length_c   4.43223516
_cell_angle_alpha   60.00000917
_cell_angle_beta   59.99999812
_cell_angle_gamma   60.00000980
_symmetry_Int_Tables_number   1
_chemical_formula_structural   ErNiSb
_chemical_formula_sum   'Er1 Ni1 Sb1'
_cell_volume   61.56775783
_cell_formula_units_Z   1
loop_
 _symmetry_equiv_pos_site_id
 _symmetry_equiv_pos_as_xyz
  1  'x, y, z'
loop_
 _atom_site_type_symbol
 _atom_site_label
 _atom_site_symmetry_multiplicity
 _atom_site_fract_x
 _atom_site_fract_y
 _atom_site_fract_z
 _atom_site_occupancy
  Er  Er0  1  0.50000000  0.50000000  0.50000000  1
  Ni  Ni0  1  0.25000000  0.25000000  0.25000000  1
  Sb  Sb0  1  0.00000000  -0.00000000  0.00000000  1
loop_
_geom_bond_atom_site_label_1
_geom_bond_atom_site_label_2
_geom_bond_distance
_geom_bond_site_symmetry_2
Er0 Ni0 2.714178 1_655
Er0 Ni0 2.714178 1_555
Er0 Ni0 2.714179 1_556
Er0 Ni0 2.714179 1_565
Er0 Sb0 3.134063 1_665
Er0 Sb0 3.134063 1_556
Er0 Sb0 3.134064 1_565
Er0 Sb0 3.134064 1_566
Er0 Sb0 3.134064 1_655
Er0 Sb0 3.134064 1_656
Ni0 Sb0 2.714178 1_655
Ni0 Sb0 2.714178 1_555
Ni0 Sb0 2.714179 1_556
Ni0 Sb0 2.714179 1_565
