# generated using pymatgen
data_Li6VCl8
_symmetry_space_group_name_H-M   'P 1'
_cell_length_a   7.22501375
_cell_length_b   7.22501375
_cell_length_c   7.22501375
_cell_angle_alpha   60.00000000
_cell_angle_beta   60.00000000
_cell_angle_gamma   60.00000000
_symmetry_Int_Tables_number   1
_chemical_formula_structural   Li6VCl8
_chemical_formula_sum   'Li6 V1 Cl8'
_cell_volume   266.68650312
_cell_formula_units_Z   1
loop_
 _symmetry_equiv_pos_site_id
 _symmetry_equiv_pos_as_xyz
  1  'x, y, z'
loop_
 _atom_site_type_symbol
 _atom_site_label
 _atom_site_symmetry_multiplicity
 _atom_site_fract_x
 _atom_site_fract_y
 _atom_site_fract_z
 _atom_site_occupancy
  Li  Li0  1  0.50000000  0.50000000  -0.00000000  1
  Li  Li1  1  0.00000000  0.50000000  -0.00000000  1
  Li  Li2  1  0.50000000  -0.00000000  -0.00000000  1
  Li  Li3  1  0.00000000  0.50000000  0.50000000  1
  Li  Li4  1  0.50000000  -0.00000000  0.50000000  1
  Li  Li5  1  0.00000000  -0.00000000  0.50000000  1
  V  V0  1  0.00000000  -0.00000000  -0.00000000  1
  Cl  Cl0  1  0.75726948  0.24273052  0.75726948  1
  Cl  Cl1  1  0.25000000  0.25000000  0.25000000  1
  Cl  Cl2  1  0.75000000  0.75000000  0.75000000  1
  Cl  Cl3  1  0.24273052  0.75726948  0.24273052  1
  Cl  Cl4  1  0.24273052  0.75726948  0.75726948  1
  Cl  Cl5  1  0.75726948  0.24273052  0.24273052  1
  Cl  Cl6  1  0.75726948  0.75726948  0.24273052  1
  Cl  Cl7  1  0.24273052  0.24273052  0.75726948  1
loop_
_geom_bond_atom_site_label_1
_geom_bond_atom_site_label_2
_geom_bond_distance
_geom_bond_site_symmetry_2
Cl0 V0 2.480151 1_656
Cl0 Li0 2.555508 1_556
Cl0 Li3 2.555508 1_655
Cl0 Li2 2.555508 1_556
Cl0 Li5 2.555508 1_655
Cl1 Li4 2.554428 1_555
Cl1 Li2 2.554428 1_555
Cl1 Li3 2.554428 1_555
Cl1 Li0 2.554428 1_555
Cl1 Li1 2.554428 1_555
Cl1 Li5 2.554428 1_555
Cl2 Li4 2.554428 1_565
Cl2 Li1 2.554428 1_656
Cl2 Li0 2.554428 1_556
Cl2 Li5 2.554428 1_665
Cl2 Li2 2.554428 1_566
Cl2 Li3 2.554428 1_655
Cl3 V0 2.480151 1_565
Cl3 Li2 2.555508 1_565
Cl3 Li5 2.555508 1_565
Cl3 Li3 2.555508 1_555
Cl3 Li0 2.555508 1_555
Cl4 V0 2.480151 1_566
Cl4 Li0 2.555508 1_556
Cl4 Li4 2.555508 1_565
Cl4 Li1 2.555508 1_556
Cl4 Li5 2.555508 1_565
Cl5 V0 2.480151 1_655
Cl5 Li5 2.555508 1_655
Cl5 Li1 2.555508 1_655
Cl5 Li0 2.555508 1_555
Cl5 Li4 2.555508 1_555
Cl6 V0 2.480151 1_665
Cl6 Li3 2.555508 1_655
Cl6 Li4 2.555508 1_565
Cl6 Li1 2.555508 1_655
Cl6 Li2 2.555508 1_565
Cl7 V0 2.480151 1_556
Cl7 Li1 2.555508 1_556
Cl7 Li2 2.555508 1_556
Cl7 Li3 2.555508 1_555
Cl7 Li4 2.555508 1_555
