# generated using pymatgen
data_Bi2PdO4
_symmetry_space_group_name_H-M   'P 1'
_cell_length_a   8.57130481
_cell_length_b   8.57130481
_cell_length_c   5.98628831
_cell_angle_alpha   90.00000000
_cell_angle_beta   90.00000000
_cell_angle_gamma   90.00000000
_symmetry_Int_Tables_number   1
_chemical_formula_structural   Bi2PdO4
_chemical_formula_sum   'Bi8 Pd4 O16'
_cell_volume   439.79623650
_cell_formula_units_Z   4
loop_
 _symmetry_equiv_pos_site_id
 _symmetry_equiv_pos_as_xyz
  1  'x, y, z'
loop_
 _atom_site_type_symbol
 _atom_site_label
 _atom_site_symmetry_multiplicity
 _atom_site_fract_x
 _atom_site_fract_y
 _atom_site_fract_z
 _atom_site_occupancy
  Bi  Bi0  1  0.32964478  0.67035522  0.75000000  1
  Bi  Bi1  1  0.17035522  0.17035522  0.75000000  1
  Bi  Bi2  1  0.82964478  0.82964478  0.75000000  1
  Bi  Bi3  1  0.67035522  0.32964478  0.75000000  1
  Bi  Bi4  1  0.17035522  0.82964478  0.25000000  1
  Bi  Bi5  1  0.32964478  0.32964478  0.25000000  1
  Bi  Bi6  1  0.67035522  0.67035522  0.25000000  1
  Bi  Bi7  1  0.82964478  0.17035522  0.25000000  1
  Pd  Pd0  1  0.00000000  0.50000000  0.58131621  1
  Pd  Pd1  1  0.50000000  -0.00000000  0.91868379  1
  Pd  Pd2  1  0.50000000  -0.00000000  0.41868379  1
  Pd  Pd3  1  0.00000000  0.50000000  0.08131621  1
  O  O0  1  0.21132408  0.39446453  0.58966081  1
  O  O1  1  0.78867592  0.60553547  0.58966081  1
  O  O2  1  0.10553547  0.71132408  0.58966081  1
  O  O3  1  0.89446453  0.28867592  0.58966081  1
  O  O4  1  0.39446453  0.21132408  0.91033919  1
  O  O5  1  0.71132408  0.10553547  0.91033919  1
  O  O6  1  0.28867592  0.89446453  0.91033919  1
  O  O7  1  0.60553547  0.78867592  0.91033919  1
  O  O8  1  0.28867592  0.10553547  0.41033919  1
  O  O9  1  0.71132408  0.89446453  0.41033919  1
  O  O10  1  0.39446453  0.78867592  0.41033919  1
  O  O11  1  0.60553547  0.21132408  0.41033919  1
  O  O12  1  0.89446453  0.71132408  0.08966081  1
  O  O13  1  0.21132408  0.60553547  0.08966081  1
  O  O14  1  0.78867592  0.39446453  0.08966081  1
  O  O15  1  0.10553547  0.28867592  0.08966081  1
loop_
_geom_bond_atom_site_label_1
_geom_bond_atom_site_label_2
_geom_bond_distance
_geom_bond_site_symmetry_2
Bi0 O2 2.175888 1_555
Bi0 O6 2.175888 1_555
Bi0 O10 2.339134 1_555
Bi0 O13 2.339134 1_556
Bi0 O7 2.746238 1_555
Bi0 O0 2.746238 1_555
Bi1 O4 2.175888 1_555
Bi1 O0 2.175888 1_555
Bi1 O8 2.339134 1_555
Bi1 O15 2.339134 1_556
Bi1 O6 2.746238 1_545
Bi1 O3 2.746238 1_455
Bi2 O1 2.175888 1_555
Bi2 O7 2.175888 1_555
Bi2 O9 2.339134 1_555
Bi2 O12 2.339134 1_556
Bi2 O5 2.746238 1_565
Bi2 O2 2.746238 1_655
Bi3 O5 2.175888 1_555
Bi3 O3 2.175888 1_555
Bi3 O14 2.339134 1_556
Bi3 O11 2.339134 1_555
Bi3 O1 2.746238 1_555
Bi3 O4 2.746238 1_555
Bi4 O10 2.175888 1_555
Bi4 O13 2.175888 1_555
Bi4 O2 2.339134 1_555
Bi4 O6 2.339134 1_554
Bi4 O12 2.746238 1_455
Bi4 O8 2.746238 1_565
Bi5 O15 2.175888 1_555
Bi5 O8 2.175888 1_555
Bi5 O4 2.339134 1_554
Bi5 O0 2.339134 1_555
Bi5 O11 2.746238 1_555
Bi5 O13 2.746238 1_555
Bi6 O9 2.175888 1_555
Bi6 O12 2.175888 1_555
Bi6 O1 2.339134 1_555
Bi6 O7 2.339134 1_554
Bi6 O10 2.746238 1_555
Bi6 O14 2.746238 1_555
Bi7 O11 2.175888 1_555
Bi7 O14 2.175888 1_555
Bi7 O3 2.339134 1_555
Bi7 O5 2.339134 1_554
Bi7 O15 2.746238 1_655
Bi7 O9 2.746238 1_545
O0 Pd0 2.025252 1_555
O1 Pd0 2.025252 1_655
O2 Pd0 2.025252 1_555
O3 Pd0 2.025252 1_655
O4 Pd1 2.025252 1_555
O5 Pd1 2.025252 1_555
O6 Pd1 2.025252 1_565
O7 Pd1 2.025252 1_565
O8 Pd2 2.025252 1_555
O9 Pd2 2.025252 1_565
O10 Pd2 2.025252 1_565
O11 Pd2 2.025252 1_555
O12 Pd3 2.025252 1_655
O13 Pd3 2.025252 1_555
O14 Pd3 2.025252 1_655
O15 Pd3 2.025252 1_555
