# generated using pymatgen
data_Na2TiCr(PO4)3
_symmetry_space_group_name_H-M   'P 1'
_cell_length_a   9.87969400
_cell_length_b   9.87969400
_cell_length_c   9.87969400
_cell_angle_alpha   90.00000000
_cell_angle_beta   90.00000000
_cell_angle_gamma   90.00000000
_symmetry_Int_Tables_number   1
_chemical_formula_structural   Na2TiCr(PO4)3
_chemical_formula_sum   'Na8 Ti4 Cr4 P12 O48'
_cell_volume   964.34066476
_cell_formula_units_Z   4
loop_
 _symmetry_equiv_pos_site_id
 _symmetry_equiv_pos_as_xyz
  1  'x, y, z'
loop_
 _atom_site_type_symbol
 _atom_site_label
 _atom_site_symmetry_multiplicity
 _atom_site_fract_x
 _atom_site_fract_y
 _atom_site_fract_z
 _atom_site_occupancy
  Na  Na0  1  0.93072000  0.93072000  0.93072000  1
  Na  Na1  1  0.35055600  0.85055600  0.64944400  1
  Na  Na2  1  0.14944400  0.14944400  0.14944400  1
  Na  Na3  1  0.06928000  0.43072000  0.56928000  1
  Na  Na4  1  0.85055600  0.64944400  0.35055600  1
  Na  Na5  1  0.43072000  0.56928000  0.06928000  1
  Na  Na6  1  0.56928000  0.06928000  0.43072000  1
  Na  Na7  1  0.64944400  0.35055600  0.85055600  1
  Ti  Ti0  1  0.11019100  0.61019100  0.88980900  1
  Ti  Ti1  1  0.61019100  0.88980900  0.11019100  1
  Ti  Ti2  1  0.88980900  0.11019100  0.61019100  1
  Ti  Ti3  1  0.38980900  0.38980900  0.38980900  1
  Cr  Cr0  1  0.33706300  0.16293700  0.83706300  1
  Cr  Cr1  1  0.16293700  0.83706300  0.33706300  1
  Cr  Cr2  1  0.83706300  0.33706300  0.16293700  1
  Cr  Cr3  1  0.66293700  0.66293700  0.66293700  1
  P  P0  1  0.79116900  0.62064300  0.97518800  1
  P  P1  1  0.87935700  0.02481200  0.29116900  1
  P  P2  1  0.37935700  0.47518800  0.70883100  1
  P  P3  1  0.47518800  0.70883100  0.37935700  1
  P  P4  1  0.29116900  0.87935700  0.02481200  1
  P  P5  1  0.12064300  0.52481200  0.20883100  1
  P  P6  1  0.62064300  0.97518800  0.79116900  1
  P  P7  1  0.20883100  0.12064300  0.52481200  1
  P  P8  1  0.97518800  0.79116900  0.62064300  1
  P  P9  1  0.52481200  0.20883100  0.12064300  1
  P  P10  1  0.70883100  0.37935700  0.47518800  1
  P  P11  1  0.02481200  0.29116900  0.87935700  1
  O  O0  1  0.94483300  0.26632000  0.00971000  1
  O  O1  1  0.44483300  0.23368000  0.99029000  1
  O  O2  1  0.05516700  0.76632000  0.49029000  1
  O  O3  1  0.23368000  0.99029000  0.44483300  1
  O  O4  1  0.49029000  0.05516700  0.76632000  1
  O  O5  1  0.99029000  0.44483300  0.23368000  1
  O  O6  1  0.26632000  0.00971000  0.94483300  1
  O  O7  1  0.00971000  0.94483300  0.26632000  1
  O  O8  1  0.76632000  0.49029000  0.05516700  1
  O  O9  1  0.73368000  0.50971000  0.55516700  1
  O  O10  1  0.50971000  0.55516700  0.73368000  1
  O  O11  1  0.55516700  0.73368000  0.50971000  1
  O  O12  1  0.01703000  0.43997400  0.82731300  1
  O  O13  1  0.51703000  0.06002600  0.17268700  1
  O  O14  1  0.98297000  0.93997400  0.67268700  1
  O  O15  1  0.06002600  0.17268700  0.51703000  1
  O  O16  1  0.67268700  0.98297000  0.93997400  1
  O  O17  1  0.17268700  0.51703000  0.06002600  1
  O  O18  1  0.76906900  0.95575400  0.20125300  1
  O  O19  1  0.43997400  0.82731300  0.01703000  1
  O  O20  1  0.93997400  0.67268700  0.98297000  1
  O  O21  1  0.56002600  0.32731300  0.48297000  1
  O  O22  1  0.32731300  0.48297000  0.56002600  1
  O  O23  1  0.48297000  0.56002600  0.32731300  1
  O  O24  1  0.04424600  0.70125300  0.73093100  1
  O  O25  1  0.54424600  0.79874700  0.26906900  1
  O  O26  1  0.95575400  0.20125300  0.76906900  1
  O  O27  1  0.79874700  0.26906900  0.54424600  1
  O  O28  1  0.59438300  0.82801000  0.75089500  1
  O  O29  1  0.75089500  0.59438300  0.82801000  1
  O  O30  1  0.82801000  0.75089500  0.59438300  1
  O  O31  1  0.67199000  0.24910500  0.09438300  1
  O  O32  1  0.25089500  0.90561700  0.17199000  1
  O  O33  1  0.17199000  0.25089500  0.90561700  1
  O  O34  1  0.74910500  0.40561700  0.32801000  1
  O  O35  1  0.24910500  0.09438300  0.67199000  1
  O  O36  1  0.32801000  0.74910500  0.40561700  1
  O  O37  1  0.09438300  0.67199000  0.24910500  1
  O  O38  1  0.40561700  0.32801000  0.74910500  1
  O  O39  1  0.90561700  0.17199000  0.25089500  1
  O  O40  1  0.45575400  0.29874700  0.23093100  1
  O  O41  1  0.23093100  0.45575400  0.29874700  1
  O  O42  1  0.29874700  0.23093100  0.45575400  1
  O  O43  1  0.20125300  0.76906900  0.95575400  1
  O  O44  1  0.73093100  0.04424600  0.70125300  1
  O  O45  1  0.70125300  0.73093100  0.04424600  1
  O  O46  1  0.26906900  0.54424600  0.79874700  1
  O  O47  1  0.82731300  0.01703000  0.43997400  1
loop_
_geom_bond_atom_site_label_1
_geom_bond_atom_site_label_2
_geom_bond_distance
_geom_bond_site_symmetry_2
Na0 O16 2.602633 1_555
Na0 O14 2.602633 1_555
Na0 O20 2.602633 1_555
Na1 O28 2.618627 1_555
Na1 O36 2.618627 1_555
Na1 O35 2.618627 1_565
Na1 O11 2.706590 1_555
Na1 O4 2.706590 1_565
Na1 O3 2.706590 1_555
Na2 O39 2.618627 1_455
Na2 O33 2.618627 1_554
Na2 O32 2.618627 1_545
Na2 O6 2.706590 1_554
Na2 O7 2.706590 1_545
Na2 O0 2.706590 1_455
Na3 O15 2.602633 1_555
Na3 O12 2.602633 1_555
Na3 O22 2.602633 1_555
Na4 O34 2.618627 1_555
Na4 O30 2.618627 1_555
Na4 O37 2.618627 1_655
Na4 O5 2.706590 1_555
Na4 O9 2.706590 1_555
Na4 O2 2.706590 1_655
Na5 O17 2.602633 1_555
Na5 O19 2.602633 1_555
Na5 O23 2.602633 1_555
Na6 O47 2.602633 1_555
Na6 O13 2.602633 1_555
Na6 O21 2.602633 1_555
Na7 O29 2.618627 1_555
Na7 O38 2.618627 1_555
Na7 O31 2.618627 1_556
Na7 O8 2.706590 1_556
Na7 O1 2.706590 1_555
Na7 O10 2.706590 1_555
Cr0 O33 1.968152 1_555
Cr0 O38 1.968152 1_555
Cr0 O35 1.968152 1_555
Cr0 O4 1.978344 1_555
Cr0 O1 1.978344 1_555
Cr0 O6 1.978344 1_555
Cr1 O32 1.968152 1_555
Cr1 O36 1.968152 1_555
Cr1 O37 1.968152 1_555
Cr1 O2 1.978344 1_555
Cr1 O3 1.978344 1_555
Cr1 O7 1.978344 1_555
Cr2 O39 1.968152 1_555
Cr2 O34 1.968152 1_555
Cr2 O31 1.968152 1_555
Cr2 O5 1.978344 1_555
Cr2 O8 1.978344 1_555
Cr2 O0 1.978344 1_555
Cr3 O29 1.968152 1_555
Cr3 O28 1.968152 1_555
Cr3 O30 1.968152 1_555
Cr3 O10 1.978344 1_555
Cr3 O11 1.978344 1_555
Cr3 O9 1.978344 1_555
O0 P11 1.530747 1_654
O1 P9 1.530747 1_556
O2 P8 1.530747 1_455
O3 P7 1.530747 1_565
O4 P6 1.530747 1_545
O5 P5 1.530747 1_655
O6 P4 1.530747 1_546
O7 P1 1.530747 1_465
O8 P0 1.530747 1_554
O9 P10 1.530747 1_555
O10 P2 1.530747 1_555
O11 P3 1.530747 1_555
O12 P11 1.559367 1_555
O12 Ti0 2.014066 1_555
O13 P9 1.559367 1_555
O13 Ti1 2.014066 1_545
O14 P8 1.559367 1_555
O14 Ti2 2.014066 1_565
O15 P7 1.559367 1_555
O15 Ti2 2.014066 1_455
O16 P6 1.559367 1_555
O16 Ti1 2.014066 1_556
O17 P5 1.559367 1_555
O17 Ti0 2.014066 1_554
O18 P1 1.562658 1_565
O18 Ti1 1.922946 1_555
O19 P4 1.559367 1_555
O19 Ti1 2.014066 1_555
O20 P0 1.559367 1_555
O20 Ti0 2.014066 1_655
O21 P10 1.559367 1_555
O21 Ti3 2.014066 1_555
O22 P2 1.559367 1_555
O22 Ti3 2.014066 1_555
O23 P3 1.559367 1_555
O23 Ti3 2.014066 1_555
O24 P8 1.562658 1_455
O24 Ti0 1.922946 1_555
O25 P3 1.562658 1_555
O25 Ti1 1.922946 1_555
O26 P11 1.562658 1_655
O26 Ti2 1.922946 1_555
O27 P10 1.562658 1_555
O27 Ti2 1.922946 1_555
O28 P6 1.529693 1_555
O29 P0 1.529693 1_555
O30 P8 1.529693 1_555
O31 P9 1.529693 1_555
O32 P4 1.529693 1_555
O33 P11 1.529693 1_555
O34 P10 1.529693 1_555
O35 P7 1.529693 1_555
O36 P3 1.529693 1_555
O37 P5 1.529693 1_555
O38 P2 1.529693 1_555
O39 P1 1.529693 1_555
O40 P9 1.562658 1_555
O40 Ti3 1.922946 1_555
O41 P5 1.562658 1_555
O41 Ti3 1.922946 1_555
O42 P7 1.562658 1_555
O42 Ti3 1.922946 1_555
O43 P4 1.562658 1_556
O43 Ti0 1.922946 1_555
O44 P6 1.562658 1_545
O44 Ti2 1.922946 1_555
O45 P0 1.562658 1_554
O45 Ti1 1.922946 1_555
O46 P2 1.562658 1_555
O46 Ti0 1.922946 1_555
O47 P1 1.559367 1_555
O47 Ti2 2.014066 1_555
