# generated using pymatgen
data_Fe3W3C
_symmetry_space_group_name_H-M   'P 1'
_cell_length_a   7.83168702
_cell_length_b   7.83168702
_cell_length_c   7.83168702
_cell_angle_alpha   60.00000000
_cell_angle_beta   60.00000000
_cell_angle_gamma   60.00000000
_symmetry_Int_Tables_number   1
_chemical_formula_structural   Fe3W3C
_chemical_formula_sum   'Fe12 W12 C4'
_cell_volume   339.66513592
_cell_formula_units_Z   4
loop_
 _symmetry_equiv_pos_site_id
 _symmetry_equiv_pos_as_xyz
  1  'x, y, z'
loop_
 _atom_site_type_symbol
 _atom_site_label
 _atom_site_symmetry_multiplicity
 _atom_site_fract_x
 _atom_site_fract_y
 _atom_site_fract_z
 _atom_site_occupancy
  Fe  Fe0  1  0.82730600  0.51808300  0.82730600  1
  Fe  Fe1  1  0.42269400  0.42269400  0.73191700  1
  Fe  Fe2  1  0.51808300  0.82730600  0.82730600  1
  Fe  Fe3  1  0.82730600  0.82730600  0.82730600  1
  Fe  Fe4  1  0.82730600  0.82730600  0.51808300  1
  Fe  Fe5  1  0.42269400  0.42269400  0.42269400  1
  Fe  Fe6  1  0.62500000  0.62500000  0.62500000  1
  Fe  Fe7  1  0.73191700  0.42269400  0.42269400  1
  Fe  Fe8  1  0.42269400  0.73191700  0.42269400  1
  Fe  Fe9  1  0.62500000  0.62500000  0.12500000  1
  Fe  Fe10  1  0.12500000  0.62500000  0.62500000  1
  Fe  Fe11  1  0.62500000  0.12500000  0.62500000  1
  W  W0  1  0.45332300  0.04667700  0.04667700  1
  W  W1  1  0.45332300  0.45332300  0.04667700  1
  W  W2  1  0.79667700  0.20332300  0.20332300  1
  W  W3  1  0.04667700  0.04667700  0.45332300  1
  W  W4  1  0.20332300  0.79667700  0.79667700  1
  W  W5  1  0.20332300  0.20332300  0.79667700  1
  W  W6  1  0.79667700  0.79667700  0.20332300  1
  W  W7  1  0.45332300  0.04667700  0.45332300  1
  W  W8  1  0.04667700  0.45332300  0.45332300  1
  W  W9  1  0.79667700  0.20332300  0.79667700  1
  W  W10  1  0.20332300  0.79667700  0.20332300  1
  W  W11  1  0.04667700  0.45332300  0.04667700  1
  C  C0  1  0.12500000  0.62500000  0.12500000  1
  C  C1  1  0.12500000  0.12500000  0.12500000  1
  C  C2  1  0.62500000  0.12500000  0.12500000  1
  C  C3  1  0.12500000  0.12500000  0.62500000  1
loop_
_geom_bond_atom_site_label_1
_geom_bond_atom_site_label_2
_geom_bond_distance
_geom_bond_site_symmetry_2
Fe0 Fe10 2.361926 1_655
Fe0 Fe9 2.361926 1_556
Fe0 Fe6 2.361932 1_555
Fe0 Fe2 2.421738 1_555
Fe0 Fe4 2.421738 1_555
Fe0 Fe3 2.421738 1_555
Fe0 W11 2.714692 1_656
Fe0 W8 2.714698 1_655
Fe0 W1 2.714698 1_556
Fe0 W5 2.726163 1_655
Fe0 W2 2.726163 1_556
Fe0 W9 2.726168 1_555
Fe1 Fe11 2.361926 1_555
Fe1 Fe10 2.361926 1_555
Fe1 Fe6 2.361932 1_555
Fe1 Fe8 2.421738 1_555
Fe1 Fe5 2.421738 1_555
Fe1 Fe7 2.421738 1_555
Fe1 W5 2.714692 1_555
Fe1 W4 2.714698 1_555
Fe1 W9 2.714698 1_555
Fe1 W0 2.726163 1_556
Fe1 W11 2.726163 1_556
Fe1 W1 2.726168 1_556
Fe2 Fe9 2.361926 1_556
Fe2 Fe6 2.361932 1_555
Fe2 Fe4 2.421738 1_555
Fe2 Fe3 2.421738 1_555
Fe2 W0 2.714692 1_566
Fe2 W7 2.714698 1_565
Fe2 W1 2.714698 1_556
Fe2 W10 2.726163 1_556
Fe2 W5 2.726163 1_565
Fe2 W4 2.726168 1_555
Fe3 Fe9 2.361930 1_556
Fe3 Fe4 2.421738 1_555
Fe3 W3 2.714695 1_665
Fe3 W11 2.714695 1_656
Fe3 W0 2.714695 1_566
Fe3 W4 2.726160 1_655
Fe3 W9 2.726160 1_565
Fe3 W6 2.726160 1_556
Fe4 Fe6 2.361932 1_555
Fe4 W3 2.714692 1_665
Fe4 W8 2.714698 1_655
Fe4 W7 2.714698 1_565
Fe4 W10 2.726163 1_655
Fe4 W2 2.726163 1_565
Fe4 W6 2.726168 1_555
Fe5 Fe9 2.361930 1_555
Fe5 Fe8 2.421738 1_555
Fe5 Fe7 2.421738 1_555
Fe5 W10 2.714695 1_555
Fe5 W2 2.714695 1_555
Fe5 W5 2.714695 1_555
Fe5 W1 2.726160 1_555
Fe5 W8 2.726160 1_555
Fe5 W7 2.726160 1_555
Fe6 Fe8 2.361932 1_555
Fe6 Fe7 2.361932 1_555
Fe6 W9 2.729273 1_555
Fe6 W6 2.729273 1_555
Fe6 W4 2.729273 1_555
Fe6 W8 2.729273 1_655
Fe6 W7 2.729273 1_565
Fe6 W1 2.729273 1_556
Fe7 Fe9 2.361926 1_555
Fe7 Fe8 2.421738 1_555
Fe7 W2 2.714692 1_555
Fe7 W9 2.714698 1_555
Fe7 W6 2.714698 1_555
Fe7 W3 2.726163 1_655
Fe7 W11 2.726163 1_655
Fe7 W8 2.726168 1_655
Fe8 Fe9 2.361926 1_555
Fe8 W10 2.714692 1_555
Fe8 W4 2.714698 1_555
Fe8 W6 2.714698 1_555
Fe8 W0 2.726163 1_565
Fe8 W3 2.726163 1_565
Fe8 W7 2.726168 1_565
Fe9 W6 2.729273 1_555
Fe9 W10 2.729273 1_555
Fe9 W2 2.729273 1_555
Fe9 W0 2.729273 1_565
Fe9 W11 2.729273 1_655
Fe9 W1 2.729273 1_555
Fe10 Fe8 2.361926 1_555
Fe10 Fe4 2.361926 1_455
Fe10 Fe3 2.361930 1_455
Fe10 Fe5 2.361930 1_555
Fe10 W5 2.729273 1_555
Fe10 W10 2.729273 1_555
Fe10 W4 2.729273 1_555
Fe10 W3 2.729273 1_565
Fe10 W8 2.729273 1_555
Fe10 W11 2.729273 1_556
Fe11 Fe7 2.361926 1_555
Fe11 Fe4 2.361926 1_545
Fe11 Fe2 2.361926 1_545
Fe11 Fe5 2.361930 1_555
Fe11 Fe3 2.361930 1_545
Fe11 W2 2.729273 1_555
Fe11 W5 2.729273 1_555
Fe11 W9 2.729273 1_555
Fe11 W7 2.729273 1_555
Fe11 W3 2.729273 1_655
Fe11 W0 2.729273 1_556
C0 W10 2.141490 1_555
C0 W8 2.141490 1_555
C0 W1 2.141490 1_555
C0 W11 2.141490 1_555
C0 W6 2.141490 1_455
C0 W4 2.141490 1_554
C1 W3 2.141490 1_555
C1 W11 2.141490 1_555
C1 W0 2.141490 1_555
C1 W5 2.141490 1_554
C1 W10 2.141490 1_545
C1 W2 2.141490 1_455
C2 W2 2.141490 1_555
C2 W6 2.141490 1_545
C2 W7 2.141490 1_555
C2 W1 2.141490 1_555
C2 W9 2.141490 1_554
C2 W0 2.141490 1_555
C3 W5 2.141490 1_555
C3 W7 2.141490 1_555
C3 W8 2.141490 1_555
C3 W3 2.141490 1_555
C3 W9 2.141490 1_455
C3 W4 2.141490 1_545
