# generated using pymatgen
data_YMgAg(WO4)2
_symmetry_space_group_name_H-M   'P 1'
_cell_length_a   5.43677200
_cell_length_b   6.19766367
_cell_length_c   6.22495149
_cell_angle_alpha   108.56029911
_cell_angle_beta   117.36711865
_cell_angle_gamma   88.97551747
_symmetry_Int_Tables_number   1
_chemical_formula_structural   YMgAg(WO4)2
_chemical_formula_sum   'Y1 Mg1 Ag1 W2 O8'
_cell_volume   174.52044939
_cell_formula_units_Z   1
loop_
 _symmetry_equiv_pos_site_id
 _symmetry_equiv_pos_as_xyz
  1  'x, y, z'
loop_
 _atom_site_type_symbol
 _atom_site_label
 _atom_site_symmetry_multiplicity
 _atom_site_fract_x
 _atom_site_fract_y
 _atom_site_fract_z
 _atom_site_occupancy
  Y  Y0  1  0.61451502  0.72797802  0.13594696  1
  Mg  Mg0  1  0.31607949  0.60080410  0.52570017  1
  Ag  Ag0  1  0.04300257  0.98703825  0.98605476  1
  W  W0  1  0.86333182  0.37666205  0.59697599  1
  W  W1  1  0.36150430  0.10191381  0.60101699  1
  O  O0  1  0.17077358  0.64606652  0.80363206  1
  O  O1  1  0.60392664  0.53231261  0.38164767  1
  O  O2  1  0.12650709  0.20532568  0.78794571  1
  O  O3  1  0.57175416  0.06723868  0.39585284  1
  O  O4  1  0.55493965  0.93344359  0.81459912  1
  O  O5  1  0.08596094  0.81063861  0.34476356  1
  O  O6  1  0.08734970  0.28563161  0.39220439  1
  O  O7  1  0.63385404  0.42427348  0.79433679  1
loop_
_geom_bond_atom_site_label_1
_geom_bond_atom_site_label_2
_geom_bond_distance
_geom_bond_site_symmetry_2
Mg0 O5 2.025801 1_555
Mg0 O6 2.038608 1_555
Mg0 O1 2.111282 1_555
Mg0 O0 2.153085 1_555
Mg0 O4 2.181540 1_555
Mg0 O7 2.327919 1_555
Ag0 O2 2.270685 1_565
Ag0 O0 2.320105 1_555
Ag0 O4 2.343616 1_455
Ag0 O6 2.520296 1_566
Ag0 O5 2.702092 1_556
Ag0 O3 2.742308 1_566
O0 W0 1.998030 1_455
O0 Y0 2.268086 1_556
O1 W0 1.937216 1_555
O1 Y0 2.253299 1_555
O2 W0 1.942557 1_455
O2 W1 2.063949 1_555
O3 W1 2.035329 1_555
O3 W0 2.124525 1_555
O3 Y0 2.292461 1_545
O4 W1 1.876919 1_565
O4 Y0 2.595989 1_556
O5 W1 2.028325 1_565
O5 Y0 2.254262 1_455
O6 W1 2.075563 1_555
O6 W0 2.090800 1_455
O7 W0 2.078038 1_555
O7 W1 2.137562 1_555
O7 Y0 2.392983 1_556
