# generated using pymatgen
data_MgTi2(Bi2O5)2
_symmetry_space_group_name_H-M   'P 1'
_cell_length_a   3.96941508
_cell_length_b   6.77484472
_cell_length_c   10.32460200
_cell_angle_alpha   90.00000000
_cell_angle_beta   90.00000000
_cell_angle_gamma   73.07963826
_symmetry_Int_Tables_number   1
_chemical_formula_structural   MgTi2(Bi2O5)2
_chemical_formula_sum   'Mg1 Ti2 Bi4 O10'
_cell_volume   265.63150997
_cell_formula_units_Z   1
loop_
 _symmetry_equiv_pos_site_id
 _symmetry_equiv_pos_as_xyz
  1  'x, y, z'
loop_
 _atom_site_type_symbol
 _atom_site_label
 _atom_site_symmetry_multiplicity
 _atom_site_fract_x
 _atom_site_fract_y
 _atom_site_fract_z
 _atom_site_occupancy
  Mg  Mg0  1  0.52375000  0.94421800  0.25000000  1
  Ti  Ti0  1  0.17675600  0.63914700  0.25000000  1
  Ti  Ti1  1  0.83448600  0.33701800  0.75000000  1
  Bi  Bi0  1  0.14243900  0.71640400  0.92393900  1
  Bi  Bi1  1  0.14243900  0.71640400  0.57606100  1
  Bi  Bi2  1  0.86101400  0.27599000  0.07455900  1
  Bi  Bi3  1  0.86101400  0.27599000  0.42544100  1
  O  O0  1  0.06176500  0.88103400  0.37207900  1
  O  O1  1  0.06176500  0.88103400  0.12792100  1
  O  O2  1  0.72028300  0.55926500  0.90741300  1
  O  O3  1  0.72028300  0.55926500  0.59258700  1
  O  O4  1  0.28866500  0.42019500  0.75000000  1
  O  O5  1  0.68758800  0.62664700  0.25000000  1
  O  O6  1  0.26142000  0.47718900  0.08542600  1
  O  O7  1  0.26142000  0.47718900  0.41457400  1
  O  O8  1  0.93079000  0.13775600  0.61824200  1
  O  O9  1  0.93079000  0.13775600  0.88175800  1
loop_
_geom_bond_atom_site_label_1
_geom_bond_atom_site_label_2
_geom_bond_distance
_geom_bond_site_symmetry_2
Mg0 O5 2.058498 1_555
Mg0 O0 2.364672 1_555
Mg0 O1 2.364672 1_555
Mg0 O0 2.408438 1_655
Mg0 O1 2.408438 1_655
Bi0 O2 2.236554 1_555
Bi0 O2 2.238055 1_455
Bi0 O6 2.276810 1_556
Bi0 O1 2.360934 1_556
Bi0 O4 2.628897 1_555
Bi0 O9 2.765541 1_465
Bi1 O3 2.236554 1_555
Bi1 O3 2.238055 1_455
Bi1 O7 2.276810 1_555
Bi1 O0 2.360934 1_555
Bi1 O4 2.628897 1_555
Bi1 O8 2.765541 1_465
Bi2 O9 2.182945 1_554
Bi2 O6 2.376296 1_555
Bi2 O6 2.378612 1_655
Bi2 O2 2.519768 1_554
Bi2 O1 2.618610 1_645
Bi3 O8 2.182945 1_555
Bi3 O7 2.376296 1_555
Bi3 O7 2.378612 1_655
Bi3 O3 2.519768 1_555
Bi3 O0 2.618610 1_645
O0 Ti0 2.011737 1_555
O1 Ti0 2.011737 1_555
O2 Ti1 2.171786 1_555
O3 Ti1 2.171786 1_555
O4 Ti1 2.039380 1_455
O4 Ti1 2.073883 1_555
O5 Ti0 1.968026 1_655
O5 Ti0 2.004695 1_555
O6 Ti0 1.997344 1_555
O7 Ti0 1.997344 1_555
O8 Ti1 1.875822 1_555
O9 Ti1 1.875822 1_555
