# generated using pymatgen
data_Na30Mg4Ta20Si33(SO48)3
_symmetry_space_group_name_H-M   'P 1'
_cell_length_a   18.01973058
_cell_length_b   9.01594468
_cell_length_c   22.48528560
_cell_angle_alpha   90.04718429
_cell_angle_beta   89.98285618
_cell_angle_gamma   120.03287319
_symmetry_Int_Tables_number   1
_chemical_formula_structural   Na30Mg4Ta20Si33(SO48)3
_chemical_formula_sum   'Na30 Mg4 Ta20 Si33 S3 O144'
_cell_volume   3162.60143963
_cell_formula_units_Z   1
loop_
 _symmetry_equiv_pos_site_id
 _symmetry_equiv_pos_as_xyz
  1  'x, y, z'
loop_
 _atom_site_type_symbol
 _atom_site_label
 _atom_site_symmetry_multiplicity
 _atom_site_fract_x
 _atom_site_fract_y
 _atom_site_fract_z
 _atom_site_occupancy
  Na  Na0  1  0.31558769  0.98190169  0.25538838  1
  Na  Na1  1  0.18483349  0.38926706  0.25709803  1
  Na  Na2  1  0.68011800  0.38379321  0.25323012  1
  Na  Na3  1  0.50507266  0.63454597  0.26032556  1
  Na  Na4  1  0.31319255  0.64186696  0.75808909  1
  Na  Na5  1  0.00397892  0.38741528  0.75654319  1
  Na  Na6  1  0.18435770  0.97845978  0.75524381  1
  Na  Na7  1  0.65046845  0.33249755  0.58373626  1
  Na  Na8  1  0.64378358  0.96823841  0.08610860  1
  Na  Na9  1  0.33994383  0.71961068  0.08977531  1
  Na  Na10  1  0.51829196  0.31656835  0.09005170  1
  Na  Na11  1  0.99025704  0.66129303  0.91357091  1
  Na  Na12  1  0.34403628  0.02540881  0.91519491  1
  Na  Na13  1  0.66572653  0.29814527  0.91572883  1
  Na  Na14  1  0.48843717  0.31790417  0.41401492  1
  Na  Na15  1  0.99109510  0.32325094  0.41398850  1
  Na  Na16  1  0.34094571  0.66084622  0.41463276  1
  Na  Na17  1  0.84217699  0.65841591  0.41385798  1
  Na  Na18  1  0.01001106  0.00625602  0.50103303  1
  Na  Na19  1  0.50102840  0.98785546  0.50220213  1
  Na  Na20  1  0.00618289  0.01697921  0.00202095  1
  Na  Na21  1  0.49791782  0.99050124  0.00628914  1
  Na  Na22  1  0.33980384  0.34587754  0.83728172  1
  Na  Na23  1  0.82910108  0.32147881  0.83125394  1
  Na  Na24  1  0.32968948  0.32667959  0.33695217  1
  Na  Na25  1  0.83470651  0.32503057  0.33341576  1
  Na  Na26  1  0.15746328  0.65456349  0.17137115  1
  Na  Na27  1  0.67583749  0.66838873  0.17398449  1
  Na  Na28  1  0.16720031  0.67893532  0.66566032  1
  Na  Na29  1  0.66793165  0.67642426  0.66675658  1
  Mg  Mg0  1  0.49715788  0.00385496  0.14477130  1
  Mg  Mg1  1  0.16418406  0.65673907  0.31597159  1
  Mg  Mg2  1  0.66961465  0.66534483  0.31572755  1
  Mg  Mg3  1  0.16790506  0.67636533  0.81668850  1
  Ta  Ta0  1  0.99345370  0.99537797  0.35702662  1
  Ta  Ta1  1  0.49457732  0.99705116  0.35534431  1
  Ta  Ta2  1  0.99429796  0.99370179  0.85799870  1
  Ta  Ta3  1  0.49811003  0.99480965  0.85540239  1
  Ta  Ta4  1  0.99399664  0.98764358  0.64087489  1
  Ta  Ta5  1  0.49872753  0.99488395  0.64511408  1
  Ta  Ta6  1  0.99414250  0.99894214  0.14236902  1
  Ta  Ta7  1  0.34077886  0.33556800  0.68467329  1
  Ta  Ta8  1  0.83048503  0.33165657  0.68947942  1
  Ta  Ta9  1  0.33748144  0.33780489  0.18528709  1
  Ta  Ta10  1  0.84045324  0.34510711  0.18709302  1
  Ta  Ta11  1  0.33085057  0.33805249  0.97910138  1
  Ta  Ta12  1  0.83541446  0.32911154  0.97861966  1
  Ta  Ta13  1  0.33126545  0.32999435  0.48097412  1
  Ta  Ta14  1  0.83354431  0.33036575  0.48045769  1
  Ta  Ta15  1  0.16423912  0.66504460  0.02010919  1
  Ta  Ta16  1  0.66935187  0.66670248  0.02210683  1
  Ta  Ta17  1  0.16503833  0.66571100  0.52170431  1
  Ta  Ta18  1  0.66670659  0.67158934  0.51957568  1
  Ta  Ta19  1  0.66542609  0.66408026  0.80975582  1
  Si  Si0  1  0.35285316  0.70801167  0.24595614  1
  Si  Si1  1  0.85294892  0.70858571  0.24960843  1
  Si  Si2  1  0.99936708  0.29108624  0.24958831  1
  Si  Si3  1  0.50149537  0.29479217  0.24642686  1
  Si  Si4  1  0.64331277  0.28661599  0.75001773  1
  Si  Si5  1  0.99990133  0.71033443  0.74945395  1
  Si  Si6  1  0.50010074  0.71019555  0.74974062  1
  Si  Si7  1  0.35458256  0.00202630  0.75021275  1
  Si  Si8  1  0.85511864  0.99875925  0.74957885  1
  Si  Si9  1  0.48121639  0.33280861  0.58087740  1
  Si  Si10  1  0.97893323  0.33700922  0.58576369  1
  Si  Si11  1  0.18859982  0.04195368  0.58538661  1
  Si  Si12  1  0.68937692  0.04044249  0.58466907  1
  Si  Si13  1  0.33166943  0.62213428  0.58413010  1
  Si  Si14  1  0.83189426  0.61939313  0.58260978  1
  Si  Si15  1  0.48086545  0.62705802  0.08247170  1
  Si  Si16  1  0.97967903  0.62555990  0.08120977  1
  Si  Si17  1  0.33096471  0.04072204  0.08133284  1
  Si  Si18  1  0.83170473  0.04523974  0.08472635  1
  Si  Si19  1  0.18745932  0.33258895  0.08445458  1
  Si  Si20  1  0.69034151  0.33516811  0.08377405  1
  Si  Si21  1  0.30883124  0.66347539  0.91333574  1
  Si  Si22  1  0.80920526  0.66399572  0.91594631  1
  Si  Si23  1  0.02432173  0.37846424  0.91295402  1
  Si  Si24  1  0.52130708  0.38041330  0.91661666  1
  Si  Si25  1  0.16757198  0.96014912  0.91399142  1
  Si  Si26  1  0.66644380  0.95121555  0.91662954  1
  Si  Si27  1  0.30548867  0.95472235  0.41298481  1
  Si  Si28  1  0.80655378  0.95542244  0.41398754  1
  Si  Si29  1  0.16707143  0.37560853  0.41474888  1
  Si  Si30  1  0.66740708  0.37415275  0.41475667  1
  Si  Si31  1  0.02449822  0.66838571  0.41516762  1
  Si  Si32  1  0.52232314  0.66883714  0.41368645  1
  S  S0  1  0.14172727  0.99848258  0.24885778  1
  S  S1  1  0.64545918  0.00410814  0.24890997  1
  S  S2  1  0.14309692  0.28400220  0.74951321  1
  O  O0  1  0.10100315  0.02513126  0.30254650  1
  O  O1  1  0.60066026  0.02811642  0.30165941  1
  O  O2  1  0.41615540  0.80023234  0.30675193  1
  O  O3  1  0.91294939  0.80128369  0.30954621  1
  O  O4  1  0.48674509  0.16756246  0.30631291  1
  O  O5  1  0.98857995  0.16985826  0.30905254  1
  O  O6  1  0.10275174  0.17695862  0.80339416  1
  O  O7  1  0.59696687  0.16931045  0.80932250  1
  O  O8  1  0.48320702  0.80365006  0.80689229  1
  O  O9  1  0.99017926  0.80903697  0.80920606  1
  O  O10  1  0.41324241  0.02812344  0.81024320  1
  O  O11  1  0.91911498  0.03054314  0.80694323  1
  O  O12  1  0.40921105  0.98636657  0.69401076  1
  O  O13  1  0.90516095  0.97902107  0.69213170  1
  O  O14  1  0.09073210  0.20032805  0.69595483  1
  O  O15  1  0.58723110  0.19643423  0.69002745  1
  O  O16  1  0.01173058  0.84004377  0.69400187  1
  O  O17  1  0.51210130  0.82868082  0.69164294  1
  O  O18  1  0.40043781  0.81627778  0.18824922  1
  O  O19  1  0.91053631  0.82760080  0.19330607  1
  O  O20  1  0.00878031  0.18115528  0.19370070  1
  O  O21  1  0.51658874  0.21072407  0.18859761  1
  O  O22  1  0.09216706  0.98449297  0.19457774  1
  O  O23  1  0.59643841  0.98285137  0.19369246  1
  O  O24  1  0.43261496  0.35895382  0.63957910  1
  O  O25  1  0.93145313  0.36061950  0.64430341  1
  O  O26  1  0.24788365  0.13828888  0.64483122  1
  O  O27  1  0.74887679  0.13587908  0.64293122  1
  O  O28  1  0.32093638  0.50303850  0.64338085  1
  O  O29  1  0.81742951  0.49514857  0.63963789  1
  O  O30  1  0.43451524  0.50144338  0.14239935  1
  O  O31  1  0.93168440  0.50125891  0.13937655  1
  O  O32  1  0.31886940  0.13698651  0.14152388  1
  O  O33  1  0.81570899  0.13826543  0.14125932  1
  O  O34  1  0.24920495  0.36346522  0.14353099  1
  O  O35  1  0.74943511  0.36017990  0.14308424  1
  O  O36  1  0.23577766  0.30837316  0.02726590  1
  O  O37  1  0.74052755  0.31549874  0.02520555  1
  O  O38  1  0.41655872  0.52259638  0.02800579  1
  O  O39  1  0.92064340  0.53576669  0.02211136  1
  O  O40  1  0.34298174  0.16440450  0.02462445  1
  O  O41  1  0.84589602  0.16414224  0.02614536  1
  O  O42  1  0.23815550  0.16591035  0.52880783  1
  O  O43  1  0.73694045  0.16836694  0.52831633  1
  O  O44  1  0.34609729  0.52961307  0.52614903  1
  O  O45  1  0.84624368  0.53346900  0.52351344  1
  O  O46  1  0.42259011  0.31012820  0.52328071  1
  O  O47  1  0.91986446  0.30721457  0.52656296  1
  O  O48  1  0.26419508  0.69930582  0.97223678  1
  O  O49  1  0.76506613  0.69374637  0.97478837  1
  O  O50  1  0.08377656  0.47242469  0.97186699  1
  O  O51  1  0.58333951  0.46989801  0.97528373  1
  O  O52  1  0.14862379  0.82753887  0.97047241  1
  O  O53  1  0.65383387  0.83814019  0.97708019  1
  O  O54  1  0.26267428  0.82657309  0.47045749  1
  O  O55  1  0.76557174  0.83056413  0.47344854  1
  O  O56  1  0.14850898  0.46894707  0.47168770  1
  O  O57  1  0.64950832  0.46352343  0.47414102  1
  O  O58  1  0.08300346  0.69714215  0.47526182  1
  O  O59  1  0.58372354  0.69254521  0.47214542  1
  O  O60  1  0.05938768  0.61316624  0.35975743  1
  O  O61  1  0.55576993  0.62155118  0.35523602  1
  O  O62  1  0.25757169  0.88602257  0.35138362  1
  O  O63  1  0.75282403  0.87597733  0.35644266  1
  O  O64  1  0.19215728  0.48723963  0.35536709  1
  O  O65  1  0.68992622  0.48808881  0.35614197  1
  O  O66  1  0.05714626  0.49170365  0.85389058  1
  O  O67  1  0.56997318  0.50006415  0.85929308  1
  O  O68  1  0.18984211  0.89469219  0.85423094  1
  O  O69  1  0.68007945  0.85699324  0.85945101  1
  O  O70  1  0.25792711  0.63373550  0.85258318  1
  O  O71  1  0.74776811  0.63140946  0.85917636  1
  O  O72  1  0.00998740  0.83607670  0.40947196  1
  O  O73  1  0.50935661  0.83772940  0.41012407  1
  O  O74  1  0.40486852  0.97344186  0.40946552  1
  O  O75  1  0.90542051  0.97395585  0.41147293  1
  O  O76  1  0.07955347  0.18469280  0.40948216  1
  O  O77  1  0.57880564  0.18485554  0.40883151  1
  O  O78  1  0.01328103  0.18580229  0.90912366  1
  O  O79  1  0.51454179  0.19101892  0.91116938  1
  O  O80  1  0.07949931  0.97416093  0.90982079  1
  O  O81  1  0.58300518  0.97880470  0.91003927  1
  O  O82  1  0.40511663  0.84343508  0.91136487  1
  O  O83  1  0.90611769  0.83201784  0.91062455  1
  O  O84  1  0.49244512  0.16500708  0.58769457  1
  O  O85  1  0.99019593  0.16749634  0.59316074  1
  O  O86  1  0.09474355  0.02797359  0.59211241  1
  O  O87  1  0.59615230  0.03052148  0.58925539  1
  O  O88  1  0.41800405  0.81141982  0.59054114  1
  O  O89  1  0.91723466  0.81050786  0.58837528  1
  O  O90  1  0.49265131  0.81375840  0.08671972  1
  O  O91  1  0.99014021  0.81437137  0.09027263  1
  O  O92  1  0.41565247  0.02404008  0.08333137  1
  O  O93  1  0.91595054  0.02252447  0.08963147  1
  O  O94  1  0.09377890  0.16214654  0.09192449  1
  O  O95  1  0.59732510  0.16585231  0.08465636  1
  O  O96  1  0.34326475  0.17407810  0.74489986  1
  O  O97  1  0.85109977  0.17620782  0.74545884  1
  O  O98  1  0.22995105  0.29924318  0.74588246  1
  O  O99  1  0.73843648  0.30461723  0.74489054  1
  O  O100  1  0.40959749  0.52359557  0.74465093  1
  O  O101  1  0.91253487  0.52143819  0.74485055  1
  O  O102  1  0.34505163  0.51195176  0.24578020  1
  O  O103  1  0.84477711  0.51527682  0.24498606  1
  O  O104  1  0.40677153  0.29410231  0.24582802  1
  O  O105  1  0.90946045  0.29639850  0.24340947  1
  O  O106  1  0.22861432  0.16246850  0.24567229  1
  O  O107  1  0.73070000  0.16732360  0.24726183  1
  O  O108  1  0.32533576  0.50280927  0.92532495  1
  O  O109  1  0.82116124  0.49554939  0.92118501  1
  O  O110  1  0.42427055  0.34770872  0.92243423  1
  O  O111  1  0.92800300  0.35660573  0.92515019  1
  O  O112  1  0.25093789  0.14955326  0.92609023  1
  O  O113  1  0.74963262  0.14750097  0.92268837  1
  O  O114  1  0.32919864  0.15440238  0.42475307  1
  O  O115  1  0.83044361  0.15486403  0.42514367  1
  O  O116  1  0.25059671  0.35098307  0.42734736  1
  O  O117  1  0.75101281  0.35056797  0.42698462  1
  O  O118  1  0.42438970  0.50338250  0.42591942  1
  O  O119  1  0.92540006  0.50307987  0.42671467  1
  O  O120  1  0.18400334  0.50929537  0.07687725  1
  O  O121  1  0.68091776  0.50738414  0.07751430  1
  O  O122  1  0.07243470  0.63790698  0.07615494  1
  O  O123  1  0.57290852  0.63196813  0.07812100  1
  O  O124  1  0.24525529  0.85076451  0.07637291  1
  O  O125  1  0.74452637  0.85899367  0.07819146  1
  O  O126  1  0.18070907  0.85578833  0.57771103  1
  O  O127  1  0.67930000  0.85202639  0.57658352  1
  O  O128  1  0.24684056  0.63975775  0.57705438  1
  O  O129  1  0.74518475  0.63240732  0.57697912  1
  O  O130  1  0.07334141  0.50633249  0.57799983  1
  O  O131  1  0.57630514  0.50165790  0.57790031  1
  O  O132  1  0.15449129  0.85217689  0.25248921  1
  O  O133  1  0.65476558  0.85309703  0.25605543  1
  O  O134  1  0.25936647  0.68816979  0.25209773  1
  O  O135  1  0.75926788  0.68366719  0.24942232  1
  O  O136  1  0.08435145  0.47350918  0.25063475  1
  O  O137  1  0.57955805  0.48834260  0.25338460  1
  O  O138  1  0.15266995  0.45492990  0.75350647  1
  O  O139  1  0.65323643  0.47675557  0.75648448  1
  O  O140  1  0.08346256  0.68891935  0.75014554  1
  O  O141  1  0.58324334  0.68682680  0.75584567  1
  O  O142  1  0.26214102  0.83028899  0.74940842  1
  O  O143  1  0.76141921  0.82880340  0.75657490  1
loop_
_geom_bond_atom_site_label_1
_geom_bond_atom_site_label_2
_geom_bond_distance
_geom_bond_site_symmetry_2
Na0 O134 2.315012 1_555
Na0 O62 2.365657 1_555
Na0 O104 2.457685 1_565
Na0 O132 2.529920 1_555
Na0 O106 2.776515 1_565
Na0 O32 2.904585 1_565
Na0 O4 2.908025 1_565
Na1 O136 2.292035 1_555
Na1 O134 2.335872 1_555
Na1 O64 2.358029 1_555
Na1 O102 2.535138 1_555
Na1 O106 2.546255 1_555
Na1 O34 2.861429 1_555
Na2 O135 2.343423 1_555
Na2 O137 2.425255 1_555
Na2 O65 2.469889 1_555
Na2 O107 2.537323 1_555
Na2 O103 2.592795 1_555
Na2 O35 2.828928 1_555
Na2 O21 2.937068 1_555
Na2 O1 2.987974 1_555
Na3 O137 2.309538 1_555
Na3 O61 2.347627 1_555
Na3 O133 2.418207 1_555
Na3 O102 2.540288 1_555
Na3 O104 2.687298 1_555
Na3 O2 2.877638 1_555
Na3 O30 2.925257 1_555
Na4 O142 2.309827 1_555
Na4 O70 2.331845 1_555
Na4 O100 2.469737 1_555
Na4 O138 2.517556 1_555
Na4 O98 2.688561 1_555
Na4 O8 2.871198 1_555
Na4 O28 2.899650 1_555
Na5 O140 2.358969 1_555
Na5 O66 2.385230 1_555
Na5 O138 2.433435 1_555
Na5 O97 2.454777 1_455
Na5 O101 2.497662 1_455
Na5 O25 2.796524 1_455
Na6 O140 2.319923 1_555
Na6 O68 2.368914 1_555
Na6 O142 2.374937 1_555
Na6 O96 2.511794 1_565
Na6 O98 2.589655 1_565
Na6 O26 2.811314 1_565
Na7 O129 2.372441 1_555
Na7 O87 2.391439 1_555
Na7 O84 2.468304 1_555
Na7 O131 2.483930 1_555
Na7 O15 2.668212 1_555
Na7 O57 2.737476 1_555
Na7 O29 2.892224 1_555
Na7 O43 2.911105 1_555
Na8 O95 2.317207 1_565
Na8 O90 2.357949 1_555
Na8 O125 2.467114 1_555
Na8 O23 2.589941 1_555
Na8 O123 2.641682 1_555
Na8 O53 2.761574 1_554
Na9 O92 2.380753 1_565
Na9 O18 2.428556 1_555
Na9 O90 2.441156 1_555
Na9 O120 2.498352 1_555
Na9 O124 2.533951 1_555
Na10 O92 2.348672 1_555
Na10 O21 2.407414 1_555
Na10 O95 2.413745 1_555
Na10 O123 2.515248 1_555
Na10 O121 2.565272 1_555
Na10 O51 2.885567 1_554
Na10 O30 2.992865 1_555
Na11 O111 2.405989 1_555
Na11 O80 2.451467 1_655
Na11 O109 2.643706 1_555
Na11 O83 2.647401 1_555
Na11 O9 2.699677 1_555
Na11 O39 2.718893 1_556
Na11 O66 2.726149 1_655
Na11 O52 2.782941 1_655
Na12 O82 2.391221 1_545
Na12 O112 2.450725 1_555
Na12 O110 2.520844 1_555
Na12 O79 2.661874 1_555
Na12 O10 2.663186 1_555
Na12 O40 2.764756 1_556
Na12 O68 2.776697 1_545
Na12 O48 2.851353 1_545
Na13 O79 2.394024 1_555
Na13 O109 2.457150 1_555
Na13 O113 2.492252 1_555
Na13 O81 2.496272 1_545
Na13 O7 2.676828 1_555
Na13 O37 2.773283 1_556
Na13 O71 2.896450 1_555
Na13 O51 2.948170 1_555
Na14 O77 2.461552 1_555
Na14 O118 2.476103 1_555
Na14 O114 2.496210 1_555
Na14 O74 2.690985 1_545
Na14 O46 2.713724 1_555
Na14 O61 2.719150 1_555
Na14 O4 2.766981 1_555
Na14 O57 2.856703 1_555
Na15 O119 2.456067 1_555
Na15 O76 2.470752 1_655
Na15 O115 2.519734 1_555
Na15 O60 2.572570 1_655
Na15 O5 2.722856 1_555
Na15 O75 2.727139 1_545
Na15 O56 2.779279 1_655
Na15 O47 2.808672 1_555
Na16 O116 2.446491 1_555
Na16 O74 2.456469 1_555
Na16 O118 2.545284 1_555
Na16 O73 2.630339 1_555
Na16 O64 2.685550 1_555
Na16 O2 2.756519 1_555
Na16 O44 2.794810 1_555
Na16 O54 2.811210 1_555
Na17 O117 2.434416 1_555
Na17 O75 2.479900 1_555
Na17 O119 2.529275 1_555
Na17 O72 2.621266 1_655
Na17 O3 2.673143 1_555
Na17 O65 2.711250 1_555
Na17 O45 2.727833 1_555
Na17 O55 2.872268 1_555
Na18 O86 2.503130 1_555
Na18 O76 2.526266 1_555
Na18 O72 2.566489 1_545
Na18 O89 2.610925 1_445
Na18 O85 2.654470 1_455
Na18 O75 2.672847 1_445
Na19 O87 2.501671 1_565
Na19 O88 2.517018 1_555
Na19 O73 2.517866 1_555
Na19 O84 2.551921 1_565
Na19 O77 2.653169 1_565
Na19 O74 2.672790 1_555
Na20 O94 2.494115 1_555
Na20 O78 2.550788 1_554
Na20 O93 2.570261 1_455
Na20 O80 2.588428 1_544
Na20 O91 2.614410 1_445
Na20 O83 2.691137 1_444
Na21 O90 2.381642 1_555
Na21 O92 2.395029 1_565
Na21 O95 2.444527 1_565
Na21 O82 2.624533 1_554
Na21 O81 2.684261 1_554
Na21 O79 2.719634 1_564
Na22 O110 2.441207 1_555
Na22 O108 2.520579 1_555
Na22 O100 2.544411 1_555
Na22 O96 2.609463 1_555
Na22 O112 2.617547 1_555
Na22 O98 2.736194 1_555
Na23 O97 2.471686 1_555
Na23 O99 2.493201 1_555
Na23 O113 2.548139 1_555
Na23 O101 2.564352 1_555
Na23 O109 2.606123 1_555
Na23 O111 2.677718 1_555
Na24 O114 2.510280 1_555
Na24 O116 2.553574 1_555
Na24 O102 2.571367 1_555
Na24 O104 2.572833 1_555
Na24 O118 2.593725 1_555
Na24 O106 2.649495 1_555
Na25 O105 2.514477 1_555
Na25 O115 2.549682 1_555
Na25 O107 2.572377 1_555
Na25 O103 2.573411 1_555
Na25 O119 2.649376 1_555
Na25 O117 2.664370 1_555
Na26 O136 2.329694 1_555
Na26 O134 2.490512 1_555
Na26 O132 2.567910 1_555
Na26 O122 2.593260 1_555
Na26 O120 2.660894 1_555
Na26 O124 2.719848 1_555
Na27 O135 2.224914 1_555
Na27 O137 2.452813 1_555
Na27 O121 2.636004 1_555
Na27 O133 2.636364 1_555
Na27 O125 2.645747 1_555
Na27 O123 2.754228 1_555
Na28 O142 2.448645 1_555
Na28 O140 2.455139 1_555
Na28 O126 2.475645 1_555
Na28 O130 2.555326 1_555
Na28 O128 2.580346 1_555
Na28 O138 2.743347 1_555
Na29 O127 2.517928 1_555
Na29 O143 2.546546 1_555
Na29 O141 2.547856 1_555
Na29 O131 2.567745 1_555
Na29 O129 2.592377 1_555
Na29 O139 2.628664 1_555
Mg0 O18 1.976029 1_545
Mg0 O21 1.978852 1_555
Mg0 O92 2.089958 1_555
Mg0 O90 2.122483 1_545
Mg0 O95 2.140371 1_555
Mg0 O23 2.187935 1_545
Mg1 O60 1.986614 1_555
Mg1 O64 2.036598 1_555
Mg1 O62 2.062799 1_555
Mg1 O136 2.138985 1_555
Mg1 O134 2.144176 1_555
Mg1 O132 2.342058 1_555
Mg2 O63 1.959699 1_555
Mg2 O65 2.025309 1_555
Mg2 O61 2.083799 1_555
Mg2 O137 2.133213 1_555
Mg2 O135 2.142849 1_555
Mg2 O133 2.279183 1_555
Mg3 O68 1.990507 1_555
Mg3 O70 2.013945 1_555
Mg3 O66 2.032272 1_555
Mg3 O140 2.177370 1_555
Mg3 O142 2.177399 1_555
Mg3 O138 2.350829 1_555
O0 S0 1.493008 1_545
O0 Ta0 2.192534 1_445
O1 S1 1.509717 1_555
O1 Ta1 2.157079 1_545
O2 Si0 1.706135 1_555
O2 Ta1 1.956338 1_555
O3 Si1 1.666829 1_555
O3 Ta0 1.939915 1_555
O4 Si3 1.702005 1_555
O4 Ta1 1.954179 1_545
O5 Si2 1.676228 1_555
O5 Ta0 1.946056 1_545
O6 S2 1.492255 1_555
O6 Ta2 2.196909 1_445
O7 Si4 1.646730 1_555
O7 Ta3 1.979458 1_545
O8 Si6 1.645831 1_555
O8 Ta3 1.940634 1_555
O9 Si5 1.667831 1_555
O9 Ta2 1.963290 1_555
O10 Si7 1.657113 1_555
O10 Ta3 1.980211 1_545
O11 Si8 1.656863 1_545
O11 Ta2 1.927604 1_545
O12 Si7 1.650462 1_565
O12 Ta5 1.921394 1_555
O13 Si8 1.634903 1_555
O13 Ta4 1.942003 1_555
O14 S2 1.482027 1_555
O14 Ta4 2.213798 1_445
O15 Si4 1.636582 1_555
O15 Ta5 1.990582 1_545
O16 Si5 1.649370 1_455
O16 Ta4 1.930947 1_455
O17 Si6 1.632593 1_555
O17 Ta5 1.939663 1_555
O18 Si0 1.592265 1_555
O19 Si1 1.648569 1_555
O19 Ta6 1.907921 1_555
O20 Si2 1.660237 1_455
O20 Ta6 1.914142 1_445
O21 Si3 1.594924 1_555
O22 S0 1.480114 1_555
O22 Ta6 2.178760 1_455
O23 S1 1.479645 1_565
O24 Si9 1.664395 1_555
O24 Ta7 1.860433 1_555
O25 Si10 1.640457 1_555
O25 Ta8 1.983448 1_555
O26 Si11 1.659019 1_555
O26 Ta7 1.945822 1_555
O27 Si12 1.637575 1_555
O27 Ta8 1.942486 1_555
O28 Si13 1.661215 1_555
O28 Ta7 1.952598 1_555
O29 Si14 1.636130 1_555
O29 Ta8 1.958085 1_555
O30 Si15 1.688473 1_555
O30 Ta9 1.892893 1_555
O31 Si16 1.657122 1_555
O31 Ta10 1.876298 1_555
O32 Si17 1.679211 1_555
O32 Ta9 1.936071 1_555
O33 Si18 1.625542 1_555
O33 Ta10 1.975711 1_555
O34 Si19 1.664394 1_555
O34 Ta9 1.958334 1_555
O35 Si20 1.650228 1_555
O35 Ta10 1.977872 1_555
O36 Si19 1.627408 1_555
O36 Ta11 1.928724 1_554
O37 Si20 1.656205 1_555
O37 Ta12 1.955744 1_554
O38 Si15 1.623625 1_555
O38 Ta11 1.946429 1_554
O39 Si16 1.640094 1_555
O39 Ta12 1.979916 1_554
O40 Si17 1.636071 1_555
O40 Ta11 1.972816 1_554
O41 Si18 1.636268 1_555
O41 Ta12 1.916717 1_554
O42 Si11 1.633269 1_555
O42 Ta13 1.917651 1_555
O43 Si12 1.637877 1_555
O43 Ta14 1.943710 1_555
O44 Si13 1.636523 1_555
O44 Ta13 1.964176 1_555
O45 Si14 1.622133 1_555
O45 Ta14 1.980039 1_555
O46 Si9 1.618403 1_555
O46 Ta13 1.985302 1_555
O47 Si10 1.640460 1_555
O47 Ta14 1.965727 1_555
O48 Si21 1.662562 1_555
O48 Ta15 1.985147 1_556
O49 Si22 1.633234 1_555
O49 Ta16 1.935097 1_556
O50 Si23 1.646430 1_555
O50 Ta15 1.942217 1_556
O51 Si24 1.654372 1_555
O51 Ta16 1.975891 1_556
O52 Si25 1.659078 1_555
O52 Ta15 1.971476 1_556
O53 Si26 1.645828 1_555
O53 Ta16 1.981847 1_556
O54 Si27 1.646129 1_555
O54 Ta17 1.993482 1_555
O55 Si28 1.664301 1_555
O55 Ta18 1.936305 1_555
O56 Si29 1.654972 1_555
O56 Ta17 1.992145 1_555
O57 Si30 1.671629 1_555
O57 Ta18 2.018383 1_555
O58 Si31 1.652625 1_555
O58 Ta17 1.943388 1_555
O59 Si32 1.661731 1_555
O59 Ta18 1.921768 1_555
O60 Si31 1.583428 1_555
O61 Si32 1.590009 1_555
O62 Si27 1.584837 1_555
O63 Si28 1.558750 1_555
O64 Si29 1.595790 1_555
O65 Si30 1.594234 1_555
O66 Si23 1.597884 1_555
O67 Si24 1.627509 1_555
O67 Ta19 1.959963 1_555
O68 Si25 1.596990 1_555
O69 Si26 1.625405 1_555
O69 Ta19 1.969956 1_555
O70 Si21 1.591636 1_555
O71 Si22 1.617410 1_555
O71 Ta19 1.990536 1_555
O72 Si31 1.663327 1_555
O72 Ta0 1.993374 1_455
O73 Si32 1.654101 1_555
O73 Ta1 2.009352 1_555
O74 Si27 1.714381 1_555
O74 Ta1 1.947873 1_555
O75 Si28 1.704997 1_555
O75 Ta0 1.935216 1_555
O76 Si29 1.657245 1_555
O76 Ta0 2.014603 1_445
O77 Si30 1.658850 1_555
O77 Ta1 2.010557 1_545
O78 Si23 1.648669 1_555
O78 Ta2 1.960134 1_445
O79 Si24 1.654372 1_555
O79 Ta3 2.064385 1_545
O80 Si25 1.656583 1_555
O80 Ta2 2.004530 1_455
O81 Si26 1.648948 1_555
O81 Ta3 2.023050 1_555
O82 Si21 1.681372 1_555
O82 Ta3 1.991573 1_555
O83 Si22 1.646488 1_555
O83 Ta2 1.932142 1_555
O84 Si9 1.630979 1_555
O84 Ta5 2.051708 1_545
O85 Si10 1.647887 1_555
O85 Ta4 1.974641 1_545
O86 Si11 1.638788 1_555
O86 Ta4 1.992205 1_445
O87 Si12 1.640165 1_555
O87 Ta5 2.048780 1_545
O88 Si13 1.641833 1_555
O88 Ta5 1.986695 1_555
O89 Si14 1.642565 1_555
O89 Ta4 1.908922 1_555
O90 Si15 1.590459 1_555
O91 Si16 1.628855 1_555
O91 Ta6 2.005805 1_555
O92 Si17 1.607257 1_555
O93 Si18 1.634027 1_555
O93 Ta6 1.933375 1_545
O94 Si19 1.625702 1_555
O94 Ta6 2.008051 1_445
O95 Si20 1.605908 1_555
O96 Si7 1.667066 1_555
O96 Ta7 2.006079 1_555
O97 Si8 1.640007 1_545
O97 Ta8 2.052055 1_555
O98 S2 1.503235 1_555
O98 Ta7 2.309595 1_555
O99 Si4 1.642931 1_555
O99 Ta8 1.989356 1_555
O100 Si6 1.660275 1_555
O100 Ta7 2.030600 1_555
O101 Si5 1.644879 1_555
O101 Ta8 2.032019 1_555
O102 Si0 1.701664 1_555
O102 Ta9 2.028836 1_555
O103 Si1 1.677161 1_555
O103 Ta10 1.982828 1_555
O104 Si3 1.703851 1_555
O104 Ta9 2.015358 1_555
O105 Si2 1.650490 1_555
O105 Ta10 1.972589 1_555
O106 S0 1.524920 1_545
O106 Ta9 2.255820 1_555
O107 S1 1.504544 1_555
O107 Ta10 2.267105 1_555
O108 Si21 1.640540 1_555
O108 Ta11 1.956861 1_555
O109 Si22 1.641517 1_555
O109 Ta12 2.091587 1_555
O110 Si24 1.626464 1_555
O110 Ta11 2.077775 1_555
O111 Si23 1.668501 1_655
O111 Ta12 1.968716 1_555
O112 Si25 1.636593 1_545
O112 Ta11 1.982594 1_555
O113 Si26 1.655824 1_545
O113 Ta12 2.028869 1_555
O114 Si27 1.650151 1_545
O114 Ta13 2.010835 1_555
O115 Si28 1.645014 1_545
O115 Ta14 1.990492 1_555
O116 Si29 1.652190 1_555
O116 Ta13 1.969671 1_555
O117 Si30 1.646672 1_555
O117 Ta14 1.990771 1_555
O118 Si32 1.667473 1_555
O118 Ta13 2.041624 1_555
O119 Si31 1.677429 1_655
O119 Ta14 2.011646 1_555
O120 Si19 1.634284 1_555
O120 Ta15 2.057143 1_555
O121 Si20 1.650393 1_555
O121 Ta16 1.990380 1_555
O122 Si16 1.622545 1_455
O122 Ta15 1.994683 1_555
O123 Si15 1.639777 1_555
O123 Ta16 2.039410 1_555
O124 Si17 1.637987 1_565
O124 Ta15 2.021438 1_555
O125 Si18 1.633494 1_565
O125 Ta16 2.019304 1_555
O126 Si11 1.621068 1_565
O126 Ta17 2.028486 1_555
O127 Si12 1.625581 1_565
O127 Ta18 1.992064 1_555
O128 Si13 1.621872 1_555
O128 Ta17 2.030606 1_555
O129 Si14 1.629358 1_555
O129 Ta18 2.071842 1_555
O130 Si10 1.629639 1_455
O130 Ta17 2.005601 1_555
O131 Si9 1.626962 1_555
O131 Ta18 2.055390 1_555
O132 S0 1.450323 1_555
O133 S1 1.461700 1_565
O134 Si0 1.608479 1_555
O135 Si1 1.587629 1_555
O136 Si2 1.590459 1_455
O137 Si3 1.609629 1_555
O138 S2 1.465062 1_555
O139 Si4 1.638491 1_555
O139 Ta19 1.990206 1_555
O140 Si5 1.611161 1_455
O141 Si6 1.619878 1_555
O141 Ta19 2.002509 1_555
O142 Si7 1.609583 1_565
O143 Si8 1.622962 1_555
O143 Ta19 2.014406 1_555
