# generated using pymatgen
data_TbAgS2
_symmetry_space_group_name_H-M   'P 1'
_cell_length_a   7.65436852
_cell_length_b   7.65534942
_cell_length_c   12.50302907
_cell_angle_alpha   89.98673354
_cell_angle_beta   90.00000000
_cell_angle_gamma   90.00000000
_symmetry_Int_Tables_number   1
_chemical_formula_structural   TbAgS2
_chemical_formula_sum   'Tb8 Ag8 S16'
_cell_volume   732.63829474
_cell_formula_units_Z   8
loop_
 _symmetry_equiv_pos_site_id
 _symmetry_equiv_pos_as_xyz
  1  'x, y, z'
loop_
 _atom_site_type_symbol
 _atom_site_label
 _atom_site_symmetry_multiplicity
 _atom_site_fract_x
 _atom_site_fract_y
 _atom_site_fract_z
 _atom_site_occupancy
  Tb  Tb0  1  0.27804025  0.50021821  0.25291737  1
  Tb  Tb1  1  0.77804025  0.49978179  0.74708263  1
  Tb  Tb2  1  0.02829449  0.24887437  0.50291710  1
  Tb  Tb3  1  0.52829449  0.75112563  0.49708290  1
  Tb  Tb4  1  0.27952381  -0.00011638  0.75291574  1
  Tb  Tb5  1  0.77952381  0.00011638  0.24708426  1
  Tb  Tb6  1  0.52907411  0.25131321  0.00286245  1
  Tb  Tb7  1  0.02907411  0.74868679  0.99713755  1
  Ag  Ag0  1  0.29273594  0.00616874  0.31441312  1
  Ag  Ag1  1  0.79273594  0.99383126  0.68558688  1
  Ag  Ag2  1  0.51696546  0.26772583  0.56373404  1
  Ag  Ag3  1  0.01696546  0.73227417  0.43626596  1
  Ag  Ag4  1  0.76792670  0.50342867  0.18505499  1
  Ag  Ag5  1  0.26792670  0.49657133  0.81494501  1
  Ag  Ag6  1  0.04318120  0.23007665  0.06320150  1
  Ag  Ag7  1  0.54318120  0.76992335  0.93679850  1
  S  S0  1  0.55059162  0.27125503  0.22386760  1
  S  S1  1  0.05059162  0.72874497  0.77613240  1
  S  S2  1  0.25309801  0.47416759  0.03276247  1
  S  S3  1  0.75309801  0.52583241  0.96723753  1
  S  S4  1  0.30471309  0.02610836  0.53263446  1
  S  S5  1  0.80471309  0.97389164  0.46736554  1
  S  S6  1  0.05570763  0.22289224  0.28231165  1
  S  S7  1  0.55570763  0.77710776  0.71768835  1
  S  S8  1  0.25671189  0.52165336  0.47401877  1
  S  S9  1  0.75671189  0.47834664  0.52598123  1
  S  S10  1  0.00730362  0.22873342  0.72377599  1
  S  S11  1  0.50730362  0.77126658  0.27622401  1
  S  S12  1  0.80095143  0.02161162  0.02583426  1
  S  S13  1  0.30095143  0.97838838  0.97416574  1
  S  S14  1  0.00198275  0.72287429  0.21751373  1
  S  S15  1  0.50198275  0.27712571  0.78248627  1
loop_
_geom_bond_atom_site_label_1
_geom_bond_atom_site_label_2
_geom_bond_distance
_geom_bond_site_symmetry_2
Ag0 S11 2.481840 1_545
Ag0 S6 2.490998 1_555
Ag0 S4 2.734267 1_555
Ag0 S0 3.048659 1_555
Ag1 S10 2.481840 1_665
Ag1 S7 2.490998 1_555
Ag1 S5 2.734267 1_555
Ag1 S1 3.048659 1_655
Ag2 S9 2.487937 1_555
Ag2 S4 2.492450 1_555
Ag2 S15 2.738431 1_555
Ag2 S8 3.000727 1_555
Ag3 S8 2.487937 1_555
Ag3 S5 2.492450 1_455
Ag3 S14 2.738431 1_555
Ag3 S9 3.000727 1_455
Ag4 S0 2.482253 1_555
Ag4 S14 2.489347 1_655
Ag4 S3 2.731093 1_554
Ag4 S11 3.079641 1_555
Ag5 S1 2.482253 1_555
Ag5 S15 2.489347 1_555
Ag5 S2 2.731093 1_556
Ag5 S10 3.079641 1_555
Ag6 S12 2.490618 1_455
Ag6 S2 2.493577 1_555
Ag6 S6 2.741757 1_555
Ag6 S13 2.974164 1_544
Ag7 S13 2.490618 1_555
Ag7 S3 2.493577 1_555
Ag7 S7 2.741757 1_555
Ag7 S12 2.974164 1_566
S0 Tb5 2.731852 1_555
S0 Tb0 2.748957 1_555
S0 Tb6 2.772380 1_555
S1 Tb4 2.731852 1_565
S1 Tb1 2.748957 1_455
S1 Tb7 2.772380 1_555
S2 Tb6 2.740970 1_555
S2 Tb7 2.748608 1_554
S2 Tb0 2.766460 1_555
S3 Tb7 2.740970 1_655
S3 Tb6 2.748608 1_556
S3 Tb1 2.766460 1_555
S4 Tb2 2.742743 1_555
S4 Tb3 2.749221 1_545
S4 Tb4 2.768167 1_555
S5 Tb3 2.742743 1_555
S5 Tb2 2.749221 1_665
S5 Tb5 2.768167 1_565
S6 Tb0 2.745565 1_555
S6 Tb5 2.751704 1_455
S6 Tb2 2.773394 1_555
S7 Tb1 2.745565 1_555
S7 Tb4 2.751704 1_565
S7 Tb3 2.773394 1_555
S8 Tb3 2.736921 1_555
S8 Tb2 2.747313 1_555
S8 Tb0 2.774149 1_555
S9 Tb2 2.736921 1_655
S9 Tb3 2.747313 1_555
S9 Tb1 2.774149 1_555
S10 Tb1 2.733176 1_455
S10 Tb4 2.746522 1_555
S10 Tb2 2.770334 1_555
S11 Tb0 2.733176 1_555
S11 Tb5 2.746522 1_565
S11 Tb3 2.770334 1_555
S12 Tb6 2.739554 1_555
S12 Tb7 2.746523 1_644
S12 Tb5 2.775997 1_555
S13 Tb7 2.739554 1_555
S13 Tb6 2.746523 1_566
S13 Tb4 2.775997 1_565
S14 Tb5 2.746096 1_465
S14 Tb0 2.750620 1_555
S14 Tb7 2.770173 1_554
S15 Tb4 2.746096 1_555
S15 Tb1 2.750620 1_555
S15 Tb6 2.770173 1_556
