# generated using pymatgen
data_ReBi3O8
_symmetry_space_group_name_H-M   'P 1'
_cell_length_a   11.54335519
_cell_length_b   11.54335519
_cell_length_c   11.54335519
_cell_angle_alpha   90.00000000
_cell_angle_beta   90.00000000
_cell_angle_gamma   90.00000000
_symmetry_Int_Tables_number   1
_chemical_formula_structural   ReBi3O8
_chemical_formula_sum   'Re8 Bi24 O64'
_cell_volume   1538.14110183
_cell_formula_units_Z   8
loop_
 _symmetry_equiv_pos_site_id
 _symmetry_equiv_pos_as_xyz
  1  'x, y, z'
loop_
 _atom_site_type_symbol
 _atom_site_label
 _atom_site_symmetry_multiplicity
 _atom_site_fract_x
 _atom_site_fract_y
 _atom_site_fract_z
 _atom_site_occupancy
  Re  Re0  1  0.12042423  0.12042423  0.12042423  1
  Re  Re1  1  0.37957577  0.87957577  0.62042423  1
  Re  Re2  1  0.62042423  0.37957577  0.87957577  1
  Re  Re3  1  0.87957577  0.62042423  0.37957577  1
  Re  Re4  1  0.61641848  0.61641848  0.61641848  1
  Re  Re5  1  0.88358152  0.38358152  0.11641848  1
  Re  Re6  1  0.11641848  0.88358152  0.38358152  1
  Re  Re7  1  0.38358152  0.11641848  0.88358152  1
  Bi  Bi0  1  0.34845404  0.36182504  0.61560989  1
  Bi  Bi1  1  0.15154596  0.63817496  0.11560989  1
  Bi  Bi2  1  0.63817496  0.11560989  0.15154596  1
  Bi  Bi3  1  0.11560989  0.15154596  0.63817496  1
  Bi  Bi4  1  0.35530582  0.64439657  0.88891822  1
  Bi  Bi5  1  0.85530582  0.85560343  0.11108178  1
  Bi  Bi6  1  0.64469418  0.14439657  0.61108178  1
  Bi  Bi7  1  0.85560343  0.11108178  0.85530582  1
  Bi  Bi8  1  0.61108178  0.64469418  0.14439657  1
  Bi  Bi9  1  0.11108178  0.85530582  0.85560343  1
  Bi  Bi10  1  0.64439657  0.88891822  0.35530582  1
  Bi  Bi11  1  0.88891822  0.35530582  0.64439657  1
  Bi  Bi12  1  0.14439657  0.61108178  0.64469418  1
  Bi  Bi13  1  0.35560343  0.38891822  0.14469418  1
  Bi  Bi14  1  0.38891822  0.14469418  0.35560343  1
  Bi  Bi15  1  0.14469418  0.35560343  0.38891822  1
  Bi  Bi16  1  0.13817496  0.38439011  0.84845404  1
  Bi  Bi17  1  0.84845404  0.13817496  0.38439011  1
  Bi  Bi18  1  0.86182504  0.88439011  0.65154596  1
  Bi  Bi19  1  0.36182504  0.61560989  0.34845404  1
  Bi  Bi20  1  0.65154596  0.86182504  0.88439011  1
  Bi  Bi21  1  0.61560989  0.34845404  0.36182504  1
  Bi  Bi22  1  0.88439011  0.65154596  0.86182504  1
  Bi  Bi23  1  0.38439011  0.84845404  0.13817496  1
  O  O0  1  0.24097742  0.46788872  0.50321031  1
  O  O1  1  0.74097742  0.03211128  0.49678969  1
  O  O2  1  0.75902258  0.96788872  0.99678969  1
  O  O3  1  0.03211128  0.49678969  0.74097742  1
  O  O4  1  0.99678969  0.75902258  0.96788872  1
  O  O5  1  0.49678969  0.74097742  0.03211128  1
  O  O6  1  0.46788872  0.50321031  0.24097742  1
  O  O7  1  0.50321031  0.24097742  0.46788872  1
  O  O8  1  0.96788872  0.99678969  0.75902258  1
  O  O9  1  0.53211128  0.00321031  0.25902258  1
  O  O10  1  0.00321031  0.25902258  0.53211128  1
  O  O11  1  0.25902258  0.53211128  0.00321031  1
  O  O12  1  0.25731543  0.77259938  0.00339773  1
  O  O13  1  0.75731543  0.72740062  0.99660227  1
  O  O14  1  0.74268457  0.27259938  0.49660227  1
  O  O15  1  0.72740062  0.99660227  0.75731543  1
  O  O16  1  0.49660227  0.74268457  0.27259938  1
  O  O17  1  0.99660227  0.75731543  0.72740062  1
  O  O18  1  0.77259938  0.00339773  0.25731543  1
  O  O19  1  0.00339773  0.25731543  0.77259938  1
  O  O20  1  0.27259938  0.49660227  0.74268457  1
  O  O21  1  0.22740062  0.50339773  0.24268457  1
  O  O22  1  0.50339773  0.24268457  0.22740062  1
  O  O23  1  0.88507030  0.24281889  0.06242787  1
  O  O24  1  0.24268457  0.22740062  0.50339773  1
  O  O25  1  0.26907033  0.73092967  0.23092967  1
  O  O26  1  0.73092967  0.23092967  0.26907033  1
  O  O27  1  0.76907033  0.76907033  0.76907033  1
  O  O28  1  0.71627237  0.78372763  0.21627237  1
  O  O29  1  0.78372763  0.21627237  0.71627237  1
  O  O30  1  0.21627237  0.71627237  0.78372763  1
  O  O31  1  0.28372763  0.28372763  0.28372763  1
  O  O32  1  0.03284219  0.03284219  0.03284219  1
  O  O33  1  0.46715781  0.96715781  0.53284219  1
  O  O34  1  0.53284219  0.46715781  0.96715781  1
  O  O35  1  0.96715781  0.53284219  0.46715781  1
  O  O36  1  0.52852152  0.52852152  0.52852152  1
  O  O37  1  0.97147848  0.47147848  0.02852152  1
  O  O38  1  0.02852152  0.97147848  0.47147848  1
  O  O39  1  0.47147848  0.02852152  0.97147848  1
  O  O40  1  0.14306361  0.25520355  0.05593898  1
  O  O41  1  0.05593898  0.14306361  0.25520355  1
  O  O42  1  0.25520355  0.05593898  0.14306361  1
  O  O43  1  0.24479645  0.94406102  0.64306361  1
  O  O44  1  0.55593898  0.35693639  0.74479645  1
  O  O45  1  0.74479645  0.55593898  0.35693639  1
  O  O46  1  0.44406102  0.85693639  0.75520355  1
  O  O47  1  0.94406102  0.64306361  0.24479645  1
  O  O48  1  0.75520355  0.44406102  0.85693639  1
  O  O49  1  0.64306361  0.24479645  0.94406102  1
  O  O50  1  0.85693639  0.75520355  0.44406102  1
  O  O51  1  0.35693639  0.74479645  0.55593898  1
  O  O52  1  0.61492970  0.75718111  0.56242787  1
  O  O53  1  0.56242787  0.61492970  0.75718111  1
  O  O54  1  0.75718111  0.56242787  0.61492970  1
  O  O55  1  0.74281889  0.43757213  0.11492970  1
  O  O56  1  0.06242787  0.88507030  0.24281889  1
  O  O57  1  0.24281889  0.06242787  0.88507030  1
  O  O58  1  0.93757213  0.38507030  0.25718111  1
  O  O59  1  0.43757213  0.11492970  0.74281889  1
  O  O60  1  0.25718111  0.93757213  0.38507030  1
  O  O61  1  0.11492970  0.74281889  0.43757213  1
  O  O62  1  0.38507030  0.25718111  0.93757213  1
  O  O63  1  0.23092967  0.26907033  0.73092967  1
loop_
_geom_bond_atom_site_label_1
_geom_bond_atom_site_label_2
_geom_bond_distance
_geom_bond_site_symmetry_2
Bi0 O0 2.172924 1_555
Bi0 O63 2.181482 1_555
Bi0 O20 2.310598 1_555
Bi0 O24 2.361418 1_555
Bi0 O7 2.836360 1_555
Bi1 O11 2.172924 1_555
Bi1 O25 2.181482 1_555
Bi1 O21 2.310598 1_555
Bi1 O12 2.361418 1_555
Bi1 O4 2.836360 1_454
Bi2 O9 2.172924 1_555
Bi2 O26 2.181482 1_555
Bi2 O22 2.310598 1_555
Bi2 O18 2.361418 1_555
Bi2 O2 2.836360 1_544
Bi3 O10 2.172924 1_555
Bi3 O63 2.181482 1_555
Bi3 O24 2.310598 1_555
Bi3 O19 2.361418 1_555
Bi3 O8 2.836360 1_445
Bi4 O11 2.157747 1_556
Bi4 O30 2.176818 1_555
Bi4 O12 2.283824 1_556
Bi4 O5 2.577293 1_556
Bi4 O20 2.582922 1_555
Bi4 O53 2.853860 1_555
Bi5 O2 2.157747 1_554
Bi5 O28 2.176818 1_555
Bi5 O13 2.283824 1_554
Bi5 O4 2.577293 1_554
Bi5 O18 2.582922 1_565
Bi5 O56 2.853860 1_655
Bi6 O1 2.157747 1_555
Bi6 O29 2.176818 1_555
Bi6 O14 2.283824 1_555
Bi6 O7 2.577293 1_555
Bi6 O15 2.582922 1_545
Bi6 O59 2.853860 1_555
Bi7 O8 2.157747 1_545
Bi7 O29 2.176818 1_555
Bi7 O15 2.283824 1_545
Bi7 O2 2.577293 1_545
Bi7 O19 2.582922 1_655
Bi7 O23 2.853860 1_556
Bi8 O5 2.157747 1_555
Bi8 O28 2.176818 1_555
Bi8 O16 2.283824 1_555
Bi8 O6 2.577293 1_555
Bi8 O13 2.582922 1_554
Bi8 O55 2.853860 1_555
Bi9 O4 2.157747 1_455
Bi9 O30 2.176818 1_555
Bi9 O17 2.283824 1_455
Bi9 O8 2.577293 1_455
Bi9 O12 2.582922 1_556
Bi9 O57 2.853860 1_565
Bi10 O9 2.157747 1_565
Bi10 O28 2.176818 1_555
Bi10 O18 2.283824 1_565
Bi10 O1 2.577293 1_565
Bi10 O16 2.582922 1_555
Bi10 O52 2.853860 1_555
Bi11 O10 2.157747 1_655
Bi11 O29 2.176818 1_555
Bi11 O19 2.283824 1_655
Bi11 O3 2.577293 1_655
Bi11 O14 2.582922 1_555
Bi11 O54 2.853860 1_555
Bi12 O3 2.157747 1_555
Bi12 O30 2.176818 1_555
Bi12 O20 2.283824 1_555
Bi12 O0 2.577293 1_555
Bi12 O17 2.582922 1_455
Bi12 O61 2.853860 1_555
Bi13 O6 2.157747 1_555
Bi13 O31 2.176818 1_555
Bi13 O21 2.283824 1_555
Bi13 O11 2.577293 1_555
Bi13 O22 2.582922 1_555
Bi13 O62 2.853860 1_554
Bi14 O7 2.157747 1_555
Bi14 O31 2.176818 1_555
Bi14 O22 2.283824 1_555
Bi14 O9 2.577293 1_555
Bi14 O24 2.582922 1_555
Bi14 O60 2.853860 1_545
Bi15 O0 2.157747 1_555
Bi15 O31 2.176818 1_555
Bi15 O24 2.283824 1_555
Bi15 O10 2.577293 1_555
Bi15 O21 2.582922 1_555
Bi15 O58 2.853860 1_455
Bi16 O3 2.172924 1_555
Bi16 O63 2.181482 1_555
Bi16 O19 2.310598 1_555
Bi16 O20 2.361418 1_555
Bi16 O11 2.836360 1_556
Bi17 O1 2.172924 1_555
Bi17 O26 2.181482 1_555
Bi17 O18 2.310598 1_555
Bi17 O14 2.361418 1_555
Bi17 O10 2.836360 1_655
Bi18 O8 2.172924 1_555
Bi18 O27 2.181482 1_555
Bi18 O17 2.310598 1_555
Bi18 O15 2.361418 1_555
Bi18 O1 2.836360 1_565
Bi19 O6 2.172924 1_555
Bi19 O25 2.181482 1_555
Bi19 O16 2.310598 1_555
Bi19 O21 2.361418 1_555
Bi19 O0 2.836360 1_555
Bi20 O2 2.172924 1_555
Bi20 O27 2.181482 1_555
Bi20 O15 2.310598 1_555
Bi20 O13 2.361418 1_555
Bi20 O5 2.836360 1_556
Bi21 O7 2.172924 1_555
Bi21 O26 2.181482 1_555
Bi21 O14 2.310598 1_555
Bi21 O22 2.361418 1_555
Bi21 O6 2.836360 1_555
Bi22 O4 2.172924 1_555
Bi22 O27 2.181482 1_555
Bi22 O13 2.310598 1_555
Bi22 O17 2.361418 1_555
Bi22 O3 2.836360 1_655
Bi23 O5 2.172924 1_555
Bi23 O25 2.181482 1_555
Bi23 O12 2.310598 1_555
Bi23 O16 2.361418 1_555
Bi23 O9 2.836360 1_565
O23 Re5 1.740381 1_555
O32 Re0 1.751087 1_555
O33 Re1 1.751087 1_555
O34 Re2 1.751087 1_555
O35 Re3 1.751087 1_555
O36 Re4 1.757383 1_555
O37 Re5 1.757383 1_555
O38 Re6 1.757383 1_555
O39 Re7 1.757383 1_555
O40 Re0 1.744397 1_555
O41 Re0 1.744397 1_555
O42 Re0 1.744397 1_555
O43 Re1 1.744397 1_555
O44 Re2 1.744397 1_555
O45 Re3 1.744397 1_555
O46 Re1 1.744397 1_555
O47 Re3 1.744397 1_555
O48 Re2 1.744397 1_555
O49 Re2 1.744397 1_555
O50 Re3 1.744397 1_555
O51 Re1 1.744397 1_555
O52 Re4 1.740381 1_555
O53 Re4 1.740381 1_555
O54 Re4 1.740381 1_555
O55 Re5 1.740381 1_555
O56 Re6 1.740381 1_555
O57 Re7 1.740381 1_555
O58 Re5 1.740381 1_555
O59 Re7 1.740381 1_555
O60 Re6 1.740381 1_555
O61 Re6 1.740381 1_555
O62 Re7 1.740381 1_555
