# generated using pymatgen
data_NaZn2H3(SO4)2
_symmetry_space_group_name_H-M   'P 1'
_cell_length_a   6.38264400
_cell_length_b   7.93289345
_cell_length_c   8.99946014
_cell_angle_alpha   99.79430841
_cell_angle_beta   109.57709124
_cell_angle_gamma   112.28069389
_symmetry_Int_Tables_number   1
_chemical_formula_structural   NaZn2H3(SO4)2
_chemical_formula_sum   'Na2 Zn4 H6 S4 O16'
_cell_volume   373.48501053
_cell_formula_units_Z   2
loop_
 _symmetry_equiv_pos_site_id
 _symmetry_equiv_pos_as_xyz
  1  'x, y, z'
loop_
 _atom_site_type_symbol
 _atom_site_label
 _atom_site_symmetry_multiplicity
 _atom_site_fract_x
 _atom_site_fract_y
 _atom_site_fract_z
 _atom_site_occupancy
  Na  Na0  1  0.43557900  0.82591800  0.08994200  1
  Na  Na1  1  0.56442100  0.17408200  0.91005800  1
  Zn  Zn0  1  0.18658200  0.17252300  0.19433500  1
  Zn  Zn1  1  0.81341800  0.82747700  0.80566500  1
  Zn  Zn2  1  0.50000000  0.00000000  0.50000000  1
  Zn  Zn3  1  0.00000000  0.00000000  0.50000000  1
  H  H0  1  0.54991200  0.55794100  0.26965700  1
  H  H1  1  0.45008800  0.44205900  0.73034300  1
  H  H2  1  0.29703900  0.55261000  0.27124800  1
  H  H3  1  0.70296100  0.44739000  0.72875200  1
  H  H4  1  0.38855000  0.28013700  0.50717400  1
  H  H5  1  0.61145000  0.71986300  0.49282600  1
  S  S0  1  0.24076100  0.74575600  0.70298900  1
  S  S1  1  0.93451100  0.70029100  0.15292800  1
  S  S2  1  0.75923900  0.25424400  0.29701100  1
  S  S3  1  0.06548900  0.29970900  0.84707200  1
  O  O0  1  0.40935500  0.49207200  0.29857500  1
  O  O1  1  0.59064500  0.50792800  0.70142500  1
  O  O2  1  0.28925300  0.14398400  0.43131900  1
  O  O3  1  0.71074700  0.85601600  0.56868100  1
  O  O4  1  0.81839300  0.74275200  0.27128400  1
  O  O5  1  0.18160700  0.25724800  0.72871600  1
  O  O6  1  0.79264900  0.25509800  0.73449100  1
  O  O7  1  0.20735100  0.74490200  0.26550900  1
  O  O8  1  0.97067800  0.86338700  0.07408300  1
  O  O9  1  0.02932200  0.13661300  0.92591700  1
  O  O10  1  0.72839800  0.07927600  0.36531900  1
  O  O11  1  0.27160200  0.92072400  0.63468100  1
  O  O12  1  0.50977300  0.82537100  0.84511600  1
  O  O13  1  0.49022700  0.17462900  0.15488400  1
  O  O14  1  0.09640600  0.75648800  0.80699200  1
  O  O15  1  0.90359400  0.24351200  0.19300800  1
loop_
_geom_bond_atom_site_label_1
_geom_bond_atom_site_label_2
_geom_bond_distance
_geom_bond_site_symmetry_2
Na0 O12 2.403401 1_554
Na0 O10 2.455049 1_565
Na0 O7 2.491872 1_555
Na0 O14 2.529515 1_554
Na0 O13 2.587906 1_565
Na0 O4 2.825792 1_555
Na1 O13 2.403401 1_556
Na1 O11 2.455049 1_545
Na1 O6 2.491872 1_555
Na1 O15 2.529515 1_556
Na1 O12 2.587906 1_545
Na1 O5 2.825792 1_555
H0 O0 0.996424 1_555
H1 O1 0.996424 1_555
H2 O0 0.994038 1_555
H3 O1 0.994038 1_555
H4 O2 0.987121 1_555
H5 O3 0.987121 1_555
O0 Zn0 2.211699 1_555
O1 Zn1 2.211699 1_555
O2 Zn2 2.084252 1_555
O2 Zn0 2.090309 1_555
O2 Zn3 2.121558 1_555
O3 Zn2 2.084252 1_565
O3 Zn1 2.090309 1_555
O3 Zn3 2.121558 1_665
O4 S1 1.547106 1_555
O4 Zn3 2.218812 1_665
O5 S3 1.547106 1_555
O5 Zn3 2.218812 1_555
O6 S3 1.553274 1_655
O6 Zn2 2.253156 1_555
O7 S1 1.553274 1_455
O7 Zn2 2.253156 1_565
O8 S1 1.557684 1_555
O8 Zn0 2.149238 1_665
O8 Zn1 2.201824 1_554
O9 S3 1.557684 1_555
O9 Zn1 2.149238 1_445
O9 Zn0 2.201824 1_556
O10 S2 1.583479 1_555
O10 Zn3 2.132528 1_655
O10 Zn2 2.176685 1_555
O11 S0 1.583479 1_555
O11 Zn3 2.132528 1_565
O11 Zn2 2.176685 1_565
O12 S0 1.553740 1_555
O12 Zn1 2.078698 1_555
O13 S2 1.553740 1_555
O13 Zn0 2.078698 1_555
O14 S0 1.530521 1_555
O14 Zn1 2.082983 1_455
O15 S2 1.530521 1_555
O15 Zn0 2.082983 1_655
