# generated using pymatgen
data_Te3Cl2
_symmetry_space_group_name_H-M   'P 1'
_cell_length_a   7.29716994
_cell_length_b   8.76062300
_cell_length_c   10.35199724
_cell_angle_alpha   90.00000000
_cell_angle_beta   99.33603375
_cell_angle_gamma   90.00000000
_symmetry_Int_Tables_number   1
_chemical_formula_structural   Te3Cl2
_chemical_formula_sum   'Te12 Cl8'
_cell_volume   653.01392991
_cell_formula_units_Z   4
loop_
 _symmetry_equiv_pos_site_id
 _symmetry_equiv_pos_as_xyz
  1  'x, y, z'
loop_
 _atom_site_type_symbol
 _atom_site_label
 _atom_site_symmetry_multiplicity
 _atom_site_fract_x
 _atom_site_fract_y
 _atom_site_fract_z
 _atom_site_occupancy
  Te  Te0  1  0.94614636  0.65401034  0.65006200  1
  Te  Te1  1  0.55385364  0.15401134  0.84993800  1
  Te  Te2  1  0.05385364  0.34598966  0.34993800  1
  Te  Te3  1  0.44614636  0.84598966  0.15006200  1
  Te  Te4  1  0.02933370  0.65003200  0.33333806  1
  Te  Te5  1  0.47066630  0.15003200  0.16666194  1
  Te  Te6  1  0.97066630  0.34996800  0.66666194  1
  Te  Te7  1  0.52933370  0.84996800  0.83333806  1
  Te  Te8  1  0.40234120  0.75637622  0.41352504  1
  Te  Te9  1  0.09765880  0.25637622  0.08647496  1
  Te  Te10  1  0.59765880  0.24362378  0.58647496  1
  Te  Te11  1  0.90234120  0.74362378  0.91352504  1
  Cl  Cl0  1  0.54592516  0.51883200  0.33169590  1
  Cl  Cl1  1  0.95407484  0.01883200  0.16830410  1
  Cl  Cl2  1  0.45407484  0.48116800  0.66830410  1
  Cl  Cl3  1  0.04592516  0.98116800  0.83169590  1
  Cl  Cl4  1  0.24486592  -0.00790732  0.48246976  1
  Cl  Cl5  1  0.25513408  0.49209268  0.01753024  1
  Cl  Cl6  1  0.75513408  0.00790732  0.51753024  1
  Cl  Cl7  1  0.74486592  0.50790732  0.98246976  1
loop_
_geom_bond_atom_site_label_1
_geom_bond_atom_site_label_2
_geom_bond_distance
_geom_bond_site_symmetry_2
Te0 Te6 2.673263 1_555
Te0 Te11 2.905153 1_555
Te0 Te4 3.430086 1_655
Te1 Te7 2.673272 1_545
Te1 Te10 2.905150 1_555
Te1 Te5 3.430086 1_556
Te2 Te4 2.673263 1_555
Te2 Te9 2.905153 1_555
Te2 Te6 3.430086 1_455
Te3 Te5 2.673263 1_565
Te3 Te8 2.905153 1_555
Te3 Te7 3.430086 1_554
Te4 Te8 2.869264 1_555
Te5 Te9 2.869264 1_555
Te10 Te6 2.869264 1_555
Te11 Te7 2.869264 1_555
Cl0 Te8 2.536540 1_555
Cl1 Te9 2.536540 1_655
Cl2 Te10 2.536540 1_555
Cl3 Te11 2.536540 1_455
Cl4 Te8 2.521962 1_545
Cl5 Te9 2.521962 1_555
Cl6 Te10 2.521962 1_555
Cl7 Te11 2.521962 1_555
