# generated using pymatgen
data_MgNbBi3O7
_symmetry_space_group_name_H-M   'P 1'
_cell_length_a   4.96146971
_cell_length_b   4.90689687
_cell_length_c   18.37460737
_cell_angle_alpha   47.81249887
_cell_angle_beta   46.27402060
_cell_angle_gamma   46.33419289
_symmetry_Int_Tables_number   1
_chemical_formula_structural   MgNbBi3O7
_chemical_formula_sum   'Mg1 Nb1 Bi3 O7'
_cell_volume   217.09158676
_cell_formula_units_Z   1
loop_
 _symmetry_equiv_pos_site_id
 _symmetry_equiv_pos_as_xyz
  1  'x, y, z'
loop_
 _atom_site_type_symbol
 _atom_site_label
 _atom_site_symmetry_multiplicity
 _atom_site_fract_x
 _atom_site_fract_y
 _atom_site_fract_z
 _atom_site_occupancy
  Mg  Mg0  1  0.47928564  0.42105542  0.62861015  1
  Nb  Nb0  1  0.02498439  0.92731548  0.49246400  1
  Bi  Bi0  1  -0.00367229  0.71915177  0.04469927  1
  Bi  Bi1  1  0.02547979  0.03823194  0.26472695  1
  Bi  Bi2  1  0.91294376  0.92414202  0.79470686  1
  O  O0  1  0.33115060  0.19311559  0.34634891  1
  O  O1  1  0.81084022  0.71859777  0.19124427  1
  O  O2  1  0.47822059  0.38763008  0.52377542  1
  O  O3  1  0.82607727  0.71977488  0.49302634  1
  O  O4  1  0.33127741  0.31609367  0.77683892  1
  O  O5  1  0.90690608  0.84562494  0.63642492  1
  O  O6  1  0.61917254  0.68259946  0.96296699  1
loop_
_geom_bond_atom_site_label_1
_geom_bond_atom_site_label_2
_geom_bond_distance
_geom_bond_site_symmetry_2
Mg0 O3 1.991926 1_555
Mg0 O5 2.023311 1_455
Mg0 O4 2.023855 1_555
Mg0 O5 2.024526 1_545
Mg0 O2 2.043811 1_555
Nb0 O3 1.835950 1_455
Nb0 O0 1.900391 1_565
Nb0 O2 1.979492 1_465
Nb0 O2 1.979769 1_555
Nb0 O5 2.063716 1_455
Bi0 O1 2.159976 1_455
Bi0 O6 2.240045 1_554
Bi1 O1 2.264202 1_455
Bi1 O0 2.338251 1_455
Bi1 O1 2.568654 1_545
Bi1 O0 2.802218 1_545
Bi2 O6 2.078970 1_555
Bi2 O4 2.220917 1_565
Bi2 O4 2.267141 1_655
