# generated using pymatgen
data_Li2NiP2O7
_symmetry_space_group_name_H-M   'P 1'
_cell_length_a   13.34650700
_cell_length_b   5.04894800
_cell_length_c   9.33685407
_cell_angle_alpha   59.80527415
_cell_angle_beta   90.00000000
_cell_angle_gamma   90.00000000
_symmetry_Int_Tables_number   1
_chemical_formula_structural   Li2NiP2O7
_chemical_formula_sum   'Li8 Ni4 P8 O28'
_cell_volume   543.80626142
_cell_formula_units_Z   4
loop_
 _symmetry_equiv_pos_site_id
 _symmetry_equiv_pos_as_xyz
  1  'x, y, z'
loop_
 _atom_site_type_symbol
 _atom_site_label
 _atom_site_symmetry_multiplicity
 _atom_site_fract_x
 _atom_site_fract_y
 _atom_site_fract_z
 _atom_site_occupancy
  Li  Li0  1  0.10803500  0.96347600  0.86676500  1
  Li  Li1  1  0.69918300  0.42323600  0.83514200  1
  Li  Li2  1  0.19918300  0.57676400  0.66485800  1
  Li  Li3  1  0.60803500  0.03652400  0.63323500  1
  Li  Li4  1  0.39196500  0.96347600  0.36676500  1
  Li  Li5  1  0.80081700  0.42323600  0.33514200  1
  Li  Li6  1  0.30081700  0.57676400  0.16485800  1
  Li  Li7  1  0.89196500  0.03652400  0.13323500  1
  Ni  Ni0  1  0.83699100  0.03471100  0.75929100  1
  Ni  Ni1  1  0.33699100  0.96528900  0.74070900  1
  Ni  Ni2  1  0.66300900  0.03471100  0.25929100  1
  Ni  Ni3  1  0.16300900  0.96528900  0.24070900  1
  P  P0  1  0.67924500  0.73426500  0.03319200  1
  P  P1  1  0.02913100  0.47413100  0.22496400  1
  P  P2  1  0.52913100  0.52586900  0.27503600  1
  P  P3  1  0.17924500  0.26573500  0.46680800  1
  P  P4  1  0.32075500  0.26573500  0.96680800  1
  P  P5  1  0.97086900  0.52586900  0.77503600  1
  P  P6  1  0.82075500  0.73426500  0.53319200  1
  P  P7  1  0.47086900  0.47413100  0.72496400  1
  O  O0  1  0.96471400  0.78115000  0.82013000  1
  O  O1  1  0.56165600  0.69996000  0.07643000  1
  O  O2  1  0.10832800  0.72919800  0.13040000  1
  O  O3  1  0.73109600  0.80082700  0.15890100  1
  O  O4  1  0.28789800  0.57204200  0.95039200  1
  O  O5  1  0.43834400  0.30004000  0.92357000  1
  O  O6  1  0.89167200  0.27080200  0.86960000  1
  O  O7  1  0.26890400  0.19917300  0.84109900  1
  O  O8  1  0.69265400  0.00305900  0.85525500  1
  O  O9  1  0.71210200  0.42795800  0.04960800  1
  O  O10  1  0.07436900  0.40328700  0.77996500  1
  O  O11  1  0.57436900  0.59671300  0.72003500  1
  O  O12  1  0.46471400  0.21885000  0.67987000  1
  O  O13  1  0.76890400  0.80082700  0.65890100  1
  O  O14  1  0.19265400  0.99694100  0.64474500  1
  O  O15  1  0.39167200  0.72919800  0.63040000  1
  O  O16  1  0.30734600  0.99694100  0.14474500  1
  O  O17  1  0.78789800  0.42795800  0.54960800  1
  O  O18  1  0.21210200  0.57204200  0.45039200  1
  O  O19  1  0.06165600  0.30004000  0.42357000  1
  O  O20  1  0.60832800  0.27080200  0.36960000  1
  O  O21  1  0.80734600  0.00305900  0.35525500  1
  O  O22  1  0.23109600  0.19917300  0.34109900  1
  O  O23  1  0.53528600  0.78115000  0.32013000  1
  O  O24  1  0.42563100  0.40328700  0.27996500  1
  O  O25  1  0.92563100  0.59671300  0.22003500  1
  O  O26  1  0.03528600  0.21885000  0.17987000  1
  O  O27  1  0.93834400  0.69996000  0.57643000  1
loop_
_geom_bond_atom_site_label_1
_geom_bond_atom_site_label_2
_geom_bond_distance
_geom_bond_site_symmetry_2
Li0 O10 1.994859 1_565
Li0 O2 2.128263 1_556
Li0 O0 2.258128 1_455
Li0 O14 2.291049 1_555
Li0 O7 2.407593 1_565
Li1 O11 1.936579 1_555
Li1 O13 2.013113 1_555
Li1 O9 2.021899 1_556
Li1 O8 2.035358 1_555
Li2 O10 1.936579 1_555
Li2 O7 2.013113 1_555
Li2 O18 2.021899 1_555
Li2 O14 2.035358 1_555
Li3 O11 1.994859 1_545
Li3 O20 2.128263 1_555
Li3 O12 2.258128 1_555
Li3 O8 2.291049 1_555
Li3 O13 2.407593 1_545
Li4 O24 1.994859 1_565
Li4 O15 2.128263 1_555
Li4 O23 2.258128 1_555
Li4 O16 2.291049 1_555
Li4 O22 2.407593 1_565
Li5 O25 1.936579 1_555
Li5 O3 2.013113 1_555
Li5 O17 2.021899 1_555
Li5 O21 2.035358 1_555
Li6 O24 1.936579 1_555
Li6 O22 2.013113 1_555
Li6 O4 2.021899 1_554
Li6 O16 2.035358 1_555
Li7 O25 1.994859 1_545
Li7 O6 2.128263 1_554
Li7 O26 2.258128 1_655
Li7 O21 2.291049 1_555
Li7 O3 2.407593 1_545
Ni0 O0 2.033712 1_545
Ni0 O13 2.052359 1_545
Ni0 O6 2.061357 1_555
Ni0 O17 2.072284 1_555
Ni0 O8 2.096503 1_555
Ni1 O12 2.033712 1_565
Ni1 O7 2.052359 1_565
Ni1 O15 2.061357 1_555
Ni1 O4 2.072284 1_555
Ni1 O14 2.096503 1_555
Ni2 O23 2.033712 1_545
Ni2 O3 2.052359 1_545
Ni2 O20 2.061357 1_555
Ni2 O9 2.072284 1_555
Ni2 O21 2.096503 1_555
Ni3 O26 2.033712 1_565
Ni3 O22 2.052359 1_565
Ni3 O2 2.061357 1_555
Ni3 O18 2.072284 1_555
Ni3 O16 2.096503 1_555
O0 P5 1.546334 1_555
O1 P0 1.608001 1_555
O1 P2 1.661370 1_555
O2 P1 1.552920 1_555
O3 P0 1.538263 1_555
O4 P4 1.539192 1_555
O5 P4 1.608001 1_555
O5 P7 1.661370 1_555
O6 P5 1.552920 1_555
O7 P4 1.538263 1_555
O8 P0 1.538189 1_546
O9 P0 1.539192 1_555
O10 P5 1.504886 1_455
O11 P7 1.504886 1_555
O12 P7 1.546334 1_555
O13 P6 1.538263 1_555
O14 P3 1.538189 1_565
O15 P7 1.552920 1_555
O16 P4 1.538189 1_564
O17 P6 1.539192 1_555
O18 P3 1.539192 1_555
O19 P3 1.608001 1_555
O19 P1 1.661370 1_555
O20 P2 1.552920 1_555
O21 P6 1.538189 1_545
O22 P3 1.538263 1_555
O23 P2 1.546334 1_555
O24 P2 1.504886 1_555
O25 P1 1.504886 1_655
O26 P1 1.546334 1_555
O27 P6 1.608001 1_555
O27 P5 1.661370 1_555
