# generated using pymatgen
data_LiNiP2O7
_symmetry_space_group_name_H-M   'P 1'
_cell_length_a   8.02133415
_cell_length_b   8.02133415
_cell_length_c   8.60428443
_cell_angle_alpha   70.03772853
_cell_angle_beta   70.03772853
_cell_angle_gamma   36.67472447
_symmetry_Int_Tables_number   1
_chemical_formula_structural   LiNiP2O7
_chemical_formula_sum   'Li2 Ni2 P4 O14'
_cell_volume   308.53134218
_cell_formula_units_Z   2
loop_
 _symmetry_equiv_pos_site_id
 _symmetry_equiv_pos_as_xyz
  1  'x, y, z'
loop_
 _atom_site_type_symbol
 _atom_site_label
 _atom_site_symmetry_multiplicity
 _atom_site_fract_x
 _atom_site_fract_y
 _atom_site_fract_z
 _atom_site_occupancy
  Li  Li0  1  0.87069100  0.52629600  0.45942800  1
  Li  Li1  1  0.52629600  0.87069100  0.95942800  1
  Ni  Ni0  1  0.51604800  0.48183300  0.50436600  1
  Ni  Ni1  1  0.48183300  0.51604800  0.00436600  1
  P  P0  1  0.05556600  0.74562300  0.80507400  1
  P  P1  1  0.24455500  0.94974700  0.68933200  1
  P  P2  1  0.94974700  0.24455500  0.18933200  1
  P  P3  1  0.74562300  0.05556600  0.30507400  1
  O  O0  1  0.79092000  0.84824700  0.86008300  1
  O  O1  1  0.24361500  0.56939300  0.94710500  1
  O  O2  1  0.21629200  0.13623600  0.11744000  1
  O  O3  1  0.72186700  0.46375200  0.06488300  1
  O  O4  1  0.01409000  0.98287600  0.24046000  1
  O  O5  1  0.81209900  0.38116700  0.35256700  1
  O  O6  1  0.46375200  0.72186700  0.56488300  1
  O  O7  1  0.57372200  0.23261900  0.15515300  1
  O  O8  1  0.13623600  0.21629200  0.61744000  1
  O  O9  1  0.84824700  0.79092000  0.36008300  1
  O  O10  1  0.38116700  0.81209900  0.85256700  1
  O  O11  1  0.56939300  0.24361500  0.44710500  1
  O  O12  1  0.23261900  0.57372200  0.65515300  1
  O  O13  1  0.98287600  0.01409000  0.74046000  1
loop_
_geom_bond_atom_site_label_1
_geom_bond_atom_site_label_2
_geom_bond_distance
_geom_bond_site_symmetry_2
Li0 O9 1.876667 1_555
Li0 O8 1.934327 1_655
Li0 O5 2.079672 1_555
Li0 O6 2.162137 1_555
Li1 O0 1.876667 1_555
Li1 O2 1.934327 1_566
Li1 O10 2.079672 1_555
Li1 O3 2.162137 1_556
Ni0 O11 1.806768 1_555
Ni0 O12 1.829266 1_555
Ni0 O6 1.842303 1_555
Ni0 O5 1.877153 1_555
Ni1 O1 1.806768 1_554
Ni1 O7 1.829266 1_555
Ni1 O3 1.842303 1_555
Ni1 O10 1.877153 1_554
O0 P0 1.478145 1_655
O1 P0 1.557491 1_555
O2 P2 1.480843 1_455
O3 P2 1.573160 1_555
O4 P2 1.628663 1_465
O4 P3 1.635914 1_465
O5 P2 1.563268 1_555
O6 P1 1.573160 1_555
O7 P3 1.550690 1_555
O8 P1 1.480843 1_545
O9 P3 1.478145 1_565
O10 P1 1.563268 1_555
O11 P3 1.557491 1_555
O12 P0 1.550690 1_555
O13 P1 1.628663 1_645
O13 P0 1.635914 1_645
