# generated using pymatgen
data_MgV4O8
_symmetry_space_group_name_H-M   'P 1'
_cell_length_a   5.25742398
_cell_length_b   5.25807898
_cell_length_c   6.34259641
_cell_angle_alpha   90.23194114
_cell_angle_beta   89.75601933
_cell_angle_gamma   65.29249668
_symmetry_Int_Tables_number   1
_chemical_formula_structural   MgV4O8
_chemical_formula_sum   'Mg1 V4 O8'
_cell_volume   159.27843755
_cell_formula_units_Z   1
loop_
 _symmetry_equiv_pos_site_id
 _symmetry_equiv_pos_as_xyz
  1  'x, y, z'
loop_
 _atom_site_type_symbol
 _atom_site_label
 _atom_site_symmetry_multiplicity
 _atom_site_fract_x
 _atom_site_fract_y
 _atom_site_fract_z
 _atom_site_occupancy
  Mg  Mg0  1  0.66101100  0.66614200  0.25009300  1
  V  V0  1  0.00392400  0.00210700  0.99424300  1
  V  V1  1  0.00066700  0.00522900  0.50566900  1
  V  V2  1  0.34394000  0.34566200  0.24995100  1
  V  V3  1  0.64776300  0.64861200  0.75011900  1
  O  O0  1  0.22370300  0.21209800  0.03732900  1
  O  O1  1  0.21361000  0.22210500  0.46256000  1
  O  O2  1  0.23923200  0.73567700  0.24871700  1
  O  O3  1  0.26488200  0.78431700  0.74728500  1
  O  O4  1  0.73386600  0.24199900  0.25123200  1
  O  O5  1  0.78404800  0.26533600  0.75263900  1
  O  O6  1  0.77951300  0.76626300  0.98107100  1
  O  O7  1  0.76634000  0.77945400  0.51909300  1
loop_
_geom_bond_atom_site_label_1
_geom_bond_atom_site_label_2
_geom_bond_distance
_geom_bond_site_symmetry_2
Mg0 O7 1.961693 1_555
Mg0 O6 1.961925 1_554
Mg0 O2 2.091257 1_555
Mg0 O4 2.099167 1_555
O0 V2 1.755614 1_555
O0 V0 1.922428 1_554
O1 V2 1.755383 1_555
O1 V1 1.922415 1_555
O2 V2 1.888127 1_555
O2 V0 2.164389 1_564
O2 V1 2.171589 1_565
O3 V3 1.833351 1_555
O3 V0 2.073864 1_565
O3 V1 2.076288 1_565
O4 V2 1.888322 1_555
O4 V1 2.167364 1_655
O4 V0 2.174911 1_654
O5 V3 1.835290 1_555
O5 V1 2.070406 1_655
O5 V0 2.072423 1_655
O6 V3 1.835138 1_555
O6 V0 2.039577 1_665
O7 V3 1.835210 1_555
O7 V1 2.038827 1_665
