# generated using pymatgen
data_Cs6InAs3
_symmetry_space_group_name_H-M   'P 1'
_cell_length_a   6.38915172
_cell_length_b   10.60654224
_cell_length_c   12.32187342
_cell_angle_alpha   78.64223433
_cell_angle_beta   90.00000000
_cell_angle_gamma   90.00000000
_symmetry_Int_Tables_number   1
_chemical_formula_structural   Cs6InAs3
_chemical_formula_sum   'Cs12 In2 As6'
_cell_volume   818.66161780
_cell_formula_units_Z   2
loop_
 _symmetry_equiv_pos_site_id
 _symmetry_equiv_pos_as_xyz
  1  'x, y, z'
loop_
 _atom_site_type_symbol
 _atom_site_label
 _atom_site_symmetry_multiplicity
 _atom_site_fract_x
 _atom_site_fract_y
 _atom_site_fract_z
 _atom_site_occupancy
  Cs  Cs0  1  0.75000000  0.46325050  0.07372568  1
  Cs  Cs1  1  0.25000000  0.53674950  0.92627432  1
  Cs  Cs2  1  0.75000000  0.74747547  0.22255277  1
  Cs  Cs3  1  0.25000000  0.25252453  0.77744723  1
  Cs  Cs4  1  0.25000000  0.56176804  0.53870712  1
  Cs  Cs5  1  0.75000000  0.43823196  0.46129288  1
  Cs  Cs6  1  0.25000000  0.86792133  0.01791499  1
  Cs  Cs7  1  0.75000000  0.13207867  0.98208501  1
  Cs  Cs8  1  0.25000000  0.88254398  0.67520168  1
  Cs  Cs9  1  0.75000000  0.11745602  0.32479832  1
  Cs  Cs10  1  0.25000000  0.91289344  0.36381232  1
  Cs  Cs11  1  0.75000000  0.08710656  0.63618768  1
  In  In0  1  0.25000000  0.32737482  0.27716985  1
  In  In1  1  0.75000000  0.67262518  0.72283015  1
  As  As0  1  0.25000000  0.18661303  0.12091037  1
  As  As1  1  0.75000000  0.81338697  0.87908963  1
  As  As2  1  0.25000000  0.21080963  0.48643917  1
  As  As3  1  0.75000000  0.78919037  0.51356083  1
  As  As4  1  0.25000000  0.57742073  0.22728798  1
  As  As5  1  0.75000000  0.42257927  0.77271202  1
loop_
_geom_bond_atom_site_label_1
_geom_bond_atom_site_label_2
_geom_bond_distance
_geom_bond_site_symmetry_2
Cs8 In1 3.872006 1_455
Cs8 In1 3.872006 1_555
Cs9 In0 3.872006 1_555
Cs9 In0 3.872006 1_655
As0 In0 2.658659 1_555
As0 Cs7 3.722326 1_554
As0 Cs7 3.722326 1_454
As0 Cs10 3.736883 1_545
As0 Cs6 3.837460 1_545
As0 Cs1 4.004443 1_554
As0 Cs9 4.040928 1_555
As0 Cs9 4.040928 1_455
As1 In1 2.658659 1_555
As1 Cs6 3.722326 1_556
As1 Cs6 3.722326 1_656
As1 Cs11 3.736883 1_565
As1 Cs7 3.837460 1_565
As1 Cs0 4.004443 1_556
As1 Cs8 4.040928 1_555
As1 Cs8 4.040928 1_655
As2 In0 2.630974 1_555
As2 Cs3 3.698426 1_555
As2 Cs10 3.761430 1_545
As2 Cs8 3.787198 1_545
As2 Cs11 3.791828 1_455
As2 Cs11 3.791828 1_555
As2 Cs4 3.900734 1_555
As2 Cs5 3.978125 1_455
As2 Cs5 3.978125 1_555
As2 Cs9 3.991169 1_555
As2 Cs9 3.991169 1_455
As3 In1 2.630974 1_555
As3 Cs2 3.698426 1_555
As3 Cs11 3.761430 1_565
As3 Cs9 3.787198 1_565
As3 Cs10 3.791828 1_555
As3 Cs10 3.791828 1_655
As3 Cs5 3.900734 1_555
As3 Cs4 3.978125 1_555
As3 Cs4 3.978125 1_655
As3 Cs8 3.991169 1_655
As3 Cs8 3.991169 1_555
As4 In0 2.601824 1_555
As4 Cs6 3.608136 1_555
As4 Cs2 3.663410 1_555
As4 Cs2 3.663410 1_455
As4 Cs4 3.808052 1_555
As4 Cs1 3.817506 1_554
As4 Cs0 4.019270 1_555
As4 Cs0 4.019270 1_455
As5 In1 2.601824 1_555
As5 Cs7 3.608136 1_555
As5 Cs3 3.663410 1_555
As5 Cs3 3.663410 1_655
As5 Cs5 3.808052 1_555
As5 Cs0 3.817506 1_556
As5 Cs1 4.019270 1_655
As5 Cs1 4.019270 1_555
