# generated using pymatgen
data_Na3TiNb(SiO4)3
_symmetry_space_group_name_H-M   'P 1'
_cell_length_a   9.04778298
_cell_length_b   9.04371623
_cell_length_c   22.18530725
_cell_angle_alpha   89.99999999
_cell_angle_beta   90.19476688
_cell_angle_gamma   119.98513488
_symmetry_Int_Tables_number   1
_chemical_formula_structural   Na3TiNb(SiO4)3
_chemical_formula_sum   'Na18 Ti6 Nb6 Si18 O72'
_cell_volume   1572.34147619
_cell_formula_units_Z   6
loop_
 _symmetry_equiv_pos_site_id
 _symmetry_equiv_pos_as_xyz
  1  'x, y, z'
loop_
 _atom_site_type_symbol
 _atom_site_label
 _atom_site_symmetry_multiplicity
 _atom_site_fract_x
 _atom_site_fract_y
 _atom_site_fract_z
 _atom_site_occupancy
  Na  Na0  1  0.98832649  0.97282350  0.49492516  1
  Na  Na1  1  0.98832649  0.01550299  0.99492516  1
  Na  Na2  1  0.66529861  0.33491039  0.82829515  1
  Na  Na3  1  0.66529861  0.33038721  0.32829515  1
  Na  Na4  1  0.33064309  0.66396910  0.16167653  1
  Na  Na5  1  0.33064309  0.66667500  0.66167653  1
  Na  Na6  1  0.37299506  0.36957803  0.24804367  1
  Na  Na7  1  0.99223455  0.62620596  0.24704957  1
  Na  Na8  1  0.99223455  0.36602859  0.74704957  1
  Na  Na9  1  0.37299506  0.00341703  0.74804367  1
  Na  Na10  1  0.29810604  0.34122032  0.58007157  1
  Na  Na11  1  0.66347437  0.96262785  0.58091195  1
  Na  Na12  1  0.29810604  0.95688472  0.08007157  1
  Na  Na13  1  0.66347437  0.70084552  0.08091195  1
  Na  Na14  1  0.96722319  0.67628310  0.91441784  1
  Na  Na15  1  0.33045169  0.29317524  0.91405845  1
  Na  Na16  1  0.96722319  0.29094108  0.41441784  1
  Na  Na17  1  0.33045169  0.03727745  0.41405845  1
  Ti  Ti0  1  0.99564770  0.99703586  0.35417871  1
  Ti  Ti1  1  0.99564770  0.99861183  0.85417871  1
  Ti  Ti2  1  0.66714267  0.33851408  0.68762562  1
  Ti  Ti3  1  0.66714267  0.32862759  0.18762562  1
  Ti  Ti4  1  0.32924102  0.65974030  0.02092586  1
  Ti  Ti5  1  0.32924102  0.66950172  0.52092586  1
  Nb  Nb0  1  -0.00025181  0.99705723  0.64426553  1
  Nb  Nb1  1  -0.00025181  0.00269096  0.14426553  1
  Nb  Nb2  1  0.66813590  0.32870264  0.97748676  1
  Nb  Nb3  1  0.66813590  0.33943226  0.47748676  1
  Nb  Nb4  1  0.33783574  0.67037271  0.31093559  1
  Nb  Nb5  1  0.33783574  0.66746403  0.81093559  1
  Si  Si0  1  0.29155394  0.00470697  0.25158338  1
  Si  Si1  1  0.71253651  0.71226983  0.24977917  1
  Si  Si2  1  0.99215394  0.28484168  0.25316937  1
  Si  Si3  1  0.29155394  0.28684697  0.75158338  1
  Si  Si4  1  0.99215394  0.70731226  0.75316937  1
  Si  Si5  1  0.71253651  0.00026669  0.74977917  1
  Si  Si6  1  0.95840214  0.34147128  0.58515289  1
  Si  Si7  1  0.37968151  0.04238785  0.58493045  1
  Si  Si8  1  0.66529977  0.62165309  0.58471672  1
  Si  Si9  1  0.95840214  0.61692986  0.08515289  1
  Si  Si10  1  0.66529977  0.04364568  0.08471672  1
  Si  Si11  1  0.37968151  0.33729266  0.08493045  1
  Si  Si12  1  0.62633955  0.67606995  0.92056381  1
  Si  Si13  1  0.04599541  0.37639394  0.91574237  1
  Si  Si14  1  0.33264978  0.95439771  0.91813553  1
  Si  Si15  1  0.62633955  0.95027060  0.42056381  1
  Si  Si16  1  0.33264978  0.37825306  0.41813553  1
  Si  Si17  1  0.04599541  0.66960247  0.41574237  1
  O  O0  1  0.19784337  0.02988754  0.31077707  1
  O  O1  1  0.84042863  0.81859525  0.30588754  1
  O  O2  1  0.97925866  0.17817925  0.31416864  1
  O  O3  1  0.19784337  0.16795583  0.81077707  1
  O  O4  1  0.97925866  0.80107941  0.81416864  1
  O  O5  1  0.84042863  0.02183338  0.80588754  1
  O  O6  1  0.80022074  0.97847760  0.68776686  1
  O  O7  1  0.16923314  0.19770975  0.69128897  1
  O  O8  1  0.02147309  0.83637951  0.69542316  1
  O  O9  1  0.80022074  0.82174315  0.18776686  1
  O  O10  1  0.02147309  0.18509358  0.19542316  1
  O  O11  1  0.16923314  0.97152340  0.19128897  1
  O  O12  1  0.86092768  0.35377007  0.64523677  1
  O  O13  1  0.49799618  0.13563794  0.64445965  1
  O  O14  1  0.64293202  0.49603232  0.64128750  1
  O  O15  1  0.86092768  0.50715661  0.14523677  1
  O  O16  1  0.64293202  0.14689870  0.14128750  1
  O  O17  1  0.49799618  0.36235724  0.14445965  1
  O  O18  1  0.47169341  0.30826051  0.02488256  1
  O  O19  1  0.83652424  0.52855179  0.02494776  1
  O  O20  1  0.68834769  0.16201412  0.02457826  1
  O  O21  1  0.47169341  0.16343190  0.52488256  1
  O  O22  1  0.68834769  0.52633257  0.52457826  1
  O  O23  1  0.83652424  0.30797145  0.52494776  1
  O  O24  1  0.53421248  0.69214944  0.98129085  1
  O  O25  1  0.17318396  0.48019593  0.97263680  1
  O  O26  1  0.31274812  0.83691968  0.97702596  1
  O  O27  1  0.53421248  0.84206404  0.48129085  1
  O  O28  1  0.31274812  0.47582943  0.47702596  1
  O  O29  1  0.17318396  0.69298903  0.47263680  1
  O  O30  1  0.13102477  0.63720295  0.35478169  1
  O  O31  1  0.49610083  0.85251142  0.36252406  1
  O  O32  1  0.35250707  0.49098255  0.35684317  1
  O  O33  1  0.13102477  0.49382282  0.85478169  1
  O  O34  1  0.35250707  0.86152552  0.85684317  1
  O  O35  1  0.49610083  0.64359041  0.86252406  1
  O  O36  1  0.03396092  0.84227415  0.41175968  1
  O  O37  1  0.81781289  0.97937943  0.41342748  1
  O  O38  1  0.16330751  0.18778996  0.41517766  1
  O  O39  1  0.03396092  0.19168676  0.91175968  1
  O  O40  1  0.16330751  0.97551755  0.91517766  1
  O  O41  1  0.81781289  0.83843346  0.91342748  1
  O  O42  1  0.97351576  0.16512955  0.58701839  1
  O  O43  1  0.19379380  0.03503637  0.58792168  1
  O  O44  1  0.83478579  0.81317025  0.58661654  1
  O  O45  1  0.97351576  0.80838622  0.08701839  1
  O  O46  1  0.83478579  0.02161554  0.08661654  1
  O  O47  1  0.19379380  0.15875742  0.08792168  1
  O  O48  1  0.69330803  0.17010952  0.74833444  1
  O  O49  1  0.47684584  0.29977499  0.74572156  1
  O  O50  1  0.83016141  0.51519159  0.74660592  1
  O  O51  1  0.69330803  0.52319751  0.24833444  1
  O  O52  1  0.83016141  0.31496881  0.24660592  1
  O  O53  1  0.47684584  0.17706985  0.24572156  1
  O  O54  1  0.63809172  0.49848026  0.92099262  1
  O  O55  1  0.86130264  0.36984974  0.92086034  1
  O  O56  1  0.50105178  0.14904019  0.91933717  1
  O  O57  1  0.63809172  0.13961046  0.42099262  1
  O  O58  1  0.50105178  0.35201060  0.41933717  1
  O  O59  1  0.86130264  0.49145190  0.42086034  1
  O  O60  1  0.36393540  0.50841299  0.07961730  1
  O  O61  1  0.15096659  0.64689205  0.07952174  1
  O  O62  1  0.49490075  0.85626857  0.08146697  1
  O  O63  1  0.36393540  0.85552341  0.57961730  1
  O  O64  1  0.49490075  0.63863318  0.58146697  1
  O  O65  1  0.15096659  0.50407554  0.57952174  1
  O  O66  1  0.29979772  0.82669842  0.25471688  1
  O  O67  1  0.51963772  0.68822958  0.25380096  1
  O  O68  1  0.16975079  0.47412671  0.25265377  1
  O  O69  1  0.29979772  0.47310030  0.75471688  1
  O  O70  1  0.16975079  0.69562507  0.75265377  1
  O  O71  1  0.51963772  0.83140914  0.75380096  1
loop_
_geom_bond_atom_site_label_1
_geom_bond_atom_site_label_2
_geom_bond_distance
_geom_bond_site_symmetry_2
Na0 O36 2.336894 1_655
Na0 O37 2.392733 1_555
Na0 O44 2.483322 1_555
Na0 O38 2.521647 1_665
Na0 O43 2.637723 1_665
Na0 O42 2.729794 1_565
Na1 O39 2.336893 1_655
Na1 O41 2.392732 1_545
Na1 O46 2.483322 1_556
Na1 O40 2.521647 1_645
Na1 O47 2.637723 1_656
Na1 O45 2.729794 1_546
Na2 O50 2.398990 1_555
Na2 O49 2.408611 1_555
Na2 O48 2.411027 1_555
Na2 O56 2.576257 1_555
Na2 O54 2.616403 1_555
Na2 O55 2.622432 1_555
Na3 O52 2.398990 1_555
Na3 O53 2.408611 1_555
Na3 O51 2.411027 1_555
Na3 O58 2.576258 1_555
Na3 O57 2.616403 1_555
Na3 O59 2.622432 1_555
Na4 O61 2.391139 1_555
Na4 O60 2.410682 1_555
Na4 O62 2.415417 1_555
Na4 O68 2.581156 1_555
Na4 O67 2.598184 1_555
Na4 O66 2.630361 1_555
Na5 O65 2.391139 1_555
Na5 O63 2.410682 1_555
Na5 O64 2.415417 1_555
Na5 O70 2.581156 1_555
Na5 O71 2.598184 1_555
Na5 O69 2.630361 1_555
Na6 O53 2.356277 1_555
Na6 O68 2.454636 1_555
Na6 O67 2.501690 1_555
Na6 O51 2.510902 1_555
Na6 O17 2.579900 1_555
Na6 O32 2.696761 1_555
Na7 O51 2.380277 1_555
Na7 O52 2.438732 1_555
Na7 O66 2.452294 1_655
Na7 O15 2.525030 1_555
Na7 O68 2.587157 1_655
Na7 O30 2.674693 1_655
Na8 O48 2.380279 1_555
Na8 O50 2.438724 1_555
Na8 O69 2.452293 1_655
Na8 O12 2.525029 1_555
Na8 O70 2.587165 1_655
Na8 O33 2.674695 1_655
Na9 O49 2.356269 1_555
Na9 O70 2.454629 1_545
Na9 O71 2.501682 1_545
Na9 O48 2.510902 1_555
Na9 O13 2.579898 1_555
Na9 O34 2.696757 1_545
Na10 O64 2.370338 1_555
Na10 O65 2.429281 1_555
Na10 O43 2.444903 1_555
Na10 O42 2.552063 1_455
Na10 O28 2.562545 1_555
Na10 O7 2.763871 1_555
Na11 O63 2.378984 1_555
Na11 O42 2.470573 1_565
Na11 O27 2.479741 1_555
Na11 O44 2.517581 1_555
Na11 O64 2.538718 1_555
Na11 O6 2.640817 1_555
Na12 O62 2.370325 1_555
Na12 O61 2.429265 1_555
Na12 O47 2.444912 1_565
Na12 O45 2.552064 1_455
Na12 O26 2.562537 1_554
Na12 O11 2.763873 1_555
Na13 O60 2.378981 1_555
Na13 O45 2.470572 1_555
Na13 O24 2.479745 1_554
Na13 O46 2.517589 1_565
Na13 O62 2.538734 1_555
Na13 O9 2.640819 1_555
Na14 O40 2.381619 1_655
Na14 O41 2.441244 1_555
Na14 O55 2.442377 1_555
Na14 O4 2.472021 1_555
Na14 O54 2.586796 1_555
Na14 O19 2.763493 1_556
Na15 O39 2.362052 1_555
Na15 O54 2.459681 1_555
Na15 O56 2.470898 1_555
Na15 O40 2.489647 1_545
Na15 O3 2.568146 1_555
Na15 O18 2.738817 1_556
Na16 O38 2.381626 1_655
Na16 O37 2.441252 1_545
Na16 O59 2.442360 1_555
Na16 O2 2.472025 1_555
Na16 O57 2.586795 1_555
Na16 O23 2.763488 1_555
Na17 O36 2.362053 1_545
Na17 O57 2.459685 1_555
Na17 O58 2.470883 1_555
Na17 O38 2.489640 1_555
Na17 O0 2.568144 1_555
Na17 O21 2.738814 1_555
Nb0 O8 1.929325 1_555
Nb0 O6 1.981745 1_455
Nb0 O7 1.985058 1_565
Nb0 O44 2.033488 1_455
Nb0 O43 2.043299 1_565
Nb0 O42 2.082858 1_465
Nb1 O10 1.929325 1_555
Nb1 O9 1.981745 1_445
Nb1 O11 1.985058 1_545
Nb1 O46 2.033488 1_455
Nb1 O47 2.043299 1_555
Nb1 O45 2.082858 1_445
Nb2 O20 1.916164 1_556
Nb2 O19 1.983227 1_556
Nb2 O18 1.995775 1_556
Nb2 O56 2.030075 1_555
Nb2 O55 2.033744 1_555
Nb2 O54 2.101701 1_555
Nb3 O22 1.916164 1_555
Nb3 O23 1.983227 1_555
Nb3 O21 1.995775 1_555
Nb3 O58 2.030075 1_555
Nb3 O59 2.033744 1_555
Nb3 O57 2.101700 1_555
Nb4 O31 1.924804 1_555
Nb4 O32 1.975166 1_555
Nb4 O30 1.997208 1_555
Nb4 O67 2.021665 1_555
Nb4 O66 2.038672 1_555
Nb4 O68 2.103166 1_555
Nb5 O35 1.924804 1_555
Nb5 O34 1.975166 1_555
Nb5 O33 1.997208 1_555
Nb5 O71 2.021665 1_555
Nb5 O69 2.038672 1_555
Nb5 O70 2.103166 1_555
O0 Si0 1.641916 1_555
O0 Ti0 1.957265 1_445
O1 Si1 1.640461 1_555
O1 Ti0 1.857090 1_555
O2 Si2 1.632201 1_555
O2 Ti0 1.932753 1_545
O3 Si3 1.641916 1_555
O3 Ti1 1.957265 1_445
O4 Si4 1.632201 1_555
O4 Ti1 1.932752 1_555
O5 Si5 1.640461 1_555
O5 Ti1 1.857090 1_545
O6 Si5 1.650647 1_565
O7 Si3 1.661980 1_555
O8 Si4 1.663403 1_455
O9 Si1 1.650647 1_555
O10 Si2 1.663403 1_455
O11 Si0 1.661980 1_565
O12 Si6 1.634945 1_555
O12 Ti2 1.935708 1_555
O13 Si7 1.639922 1_555
O13 Ti2 1.951649 1_555
O14 Si8 1.636664 1_555
O14 Ti2 1.855948 1_555
O15 Si9 1.634945 1_555
O15 Ti3 1.935708 1_555
O16 Si10 1.636664 1_555
O16 Ti3 1.855948 1_555
O17 Si11 1.639922 1_555
O17 Ti3 1.951649 1_555
O18 Si11 1.662146 1_555
O19 Si9 1.657665 1_555
O20 Si10 1.657787 1_555
O21 Si7 1.662146 1_555
O22 Si8 1.657787 1_555
O23 Si6 1.657665 1_555
O24 Si12 1.630894 1_555
O24 Ti4 1.940664 1_556
O25 Si13 1.645922 1_555
O25 Ti4 1.864398 1_556
O26 Si14 1.636619 1_555
O26 Ti4 1.943293 1_556
O27 Si15 1.630894 1_555
O27 Ti5 1.940664 1_555
O28 Si16 1.636619 1_555
O28 Ti5 1.943293 1_555
O29 Si17 1.645922 1_555
O29 Ti5 1.864398 1_555
O30 Si17 1.655049 1_555
O31 Si15 1.666296 1_555
O32 Si16 1.655068 1_555
O33 Si13 1.655049 1_555
O34 Si14 1.655068 1_555
O35 Si12 1.666296 1_555
O36 Si17 1.621151 1_555
O36 Ti0 2.047666 1_455
O37 Si15 1.625306 1_555
O37 Ti0 2.024788 1_555
O38 Si16 1.637128 1_555
O38 Ti0 2.116330 1_445
O39 Si13 1.621160 1_555
O39 Ti1 2.047666 1_445
O40 Si14 1.637123 1_555
O40 Ti1 2.116330 1_455
O41 Si12 1.625302 1_555
O41 Ti1 2.024788 1_555
O42 Si6 1.667840 1_555
O43 Si7 1.651214 1_555
O44 Si8 1.642550 1_555
O45 Si9 1.667850 1_555
O46 Si10 1.642545 1_555
O47 Si11 1.651209 1_555
O48 Si5 1.630243 1_555
O48 Ti2 2.132556 1_555
O49 Si3 1.626878 1_555
O49 Ti2 2.039746 1_555
O50 Si4 1.625227 1_555
O50 Ti2 2.017899 1_555
O51 Si1 1.630252 1_555
O51 Ti3 2.132556 1_555
O52 Si2 1.625221 1_555
O52 Ti3 2.017899 1_555
O53 Si0 1.626873 1_555
O53 Ti3 2.039746 1_555
O54 Si12 1.661792 1_555
O55 Si13 1.646594 1_655
O56 Si14 1.655212 1_545
O57 Si15 1.661774 1_545
O58 Si16 1.655223 1_555
O59 Si17 1.646602 1_655
O60 Si11 1.627700 1_555
O60 Ti4 2.023255 1_555
O61 Si9 1.629160 1_455
O61 Ti4 2.032748 1_555
O62 Si10 1.625293 1_565
O62 Ti4 2.129091 1_555
O63 Si7 1.627682 1_565
O63 Ti5 2.023255 1_555
O64 Si8 1.625304 1_555
O64 Ti5 2.129091 1_555
O65 Si6 1.629167 1_455
O65 Ti5 2.032748 1_555
O66 Si0 1.649857 1_565
O67 Si1 1.650182 1_555
O68 Si2 1.662287 1_455
O69 Si3 1.649866 1_555
O70 Si4 1.662282 1_455
O71 Si5 1.650178 1_565
