# generated using pymatgen
data_HfSnRh
_symmetry_space_group_name_H-M   'P 1'
_cell_length_a   7.32541470
_cell_length_b   7.32541497
_cell_length_c   7.20906122
_cell_angle_alpha   90.00000000
_cell_angle_beta   90.00000000
_cell_angle_gamma   119.99999880
_symmetry_Int_Tables_number   1
_chemical_formula_structural   HfSnRh
_chemical_formula_sum   'Hf6 Sn6 Rh6'
_cell_volume   335.02236303
_cell_formula_units_Z   6
loop_
 _symmetry_equiv_pos_site_id
 _symmetry_equiv_pos_as_xyz
  1  'x, y, z'
loop_
 _atom_site_type_symbol
 _atom_site_label
 _atom_site_symmetry_multiplicity
 _atom_site_fract_x
 _atom_site_fract_y
 _atom_site_fract_z
 _atom_site_occupancy
  Hf  Hf0  1  0.01785669  0.40557253  0.75000000  1
  Hf  Hf1  1  0.59442747  0.61228516  0.75000000  1
  Hf  Hf2  1  0.38771484  0.98214331  0.75000000  1
  Hf  Hf3  1  0.98214331  0.38771484  0.25000000  1
  Hf  Hf4  1  0.61228516  0.59442747  0.25000000  1
  Hf  Hf5  1  0.40557253  0.01785669  0.25000000  1
  Sn  Sn0  1  0.27088113  0.27088113  0.50000000  1
  Sn  Sn1  1  -0.00000000  0.72911887  0.50000000  1
  Sn  Sn2  1  -0.00000000  0.72911887  -0.00000000  1
  Sn  Sn3  1  0.72911887  -0.00000000  0.50000000  1
  Sn  Sn4  1  0.72911887  -0.00000000  -0.00000000  1
  Sn  Sn5  1  0.27088113  0.27088113  0.00000000  1
  Rh  Rh0  1  0.33333300  0.66666700  0.46363732  1
  Rh  Rh1  1  0.66666700  0.33333300  0.53636268  1
  Rh  Rh2  1  0.33333300  0.66666700  0.03636268  1
  Rh  Rh3  1  0.00000000  -0.00000000  0.75000000  1
  Rh  Rh4  1  0.00000000  -0.00000000  0.25000000  1
  Rh  Rh5  1  0.66666700  0.33333300  0.96363732  1
loop_
_geom_bond_atom_site_label_1
_geom_bond_atom_site_label_2
_geom_bond_distance
_geom_bond_site_symmetry_2
Hf0 Rh5 2.812287 1_455
Hf0 Rh1 2.812287 1_455
Hf0 Rh3 2.907791 1_555
Hf0 Rh0 2.973304 1_555
Hf0 Rh2 2.973304 1_556
Hf0 Sn2 3.031951 1_556
Hf0 Sn1 3.031951 1_555
Hf0 Sn5 3.079931 1_556
Hf0 Sn0 3.079931 1_555
Hf0 Sn4 3.203852 1_456
Hf0 Sn3 3.203852 1_455
Hf1 Rh1 2.812299 1_555
Hf1 Rh5 2.812299 1_555
Hf1 Rh3 2.907787 1_665
Hf1 Rh0 2.973304 1_555
Hf1 Rh2 2.973304 1_556
Hf1 Sn5 3.031954 1_556
Hf1 Sn0 3.031954 1_555
Hf1 Sn3 3.079926 1_565
Hf1 Sn4 3.079926 1_566
Hf1 Sn2 3.203853 1_656
Hf1 Sn1 3.203853 1_655
Hf2 Rh1 2.812291 1_565
Hf2 Rh5 2.812291 1_565
Hf2 Rh3 2.907783 1_565
Hf2 Rh0 2.973304 1_555
Hf2 Rh2 2.973304 1_556
Hf2 Sn4 3.031957 1_566
Hf2 Sn3 3.031957 1_565
Hf2 Sn2 3.079927 1_556
Hf2 Sn1 3.079927 1_555
Hf2 Sn0 3.203848 1_565
Hf2 Sn5 3.203848 1_566
Hf3 Rh2 2.812291 1_655
Hf3 Rh0 2.812291 1_655
Hf3 Rh4 2.907783 1_655
Hf3 Rh5 2.973304 1_554
Hf3 Rh1 2.973304 1_555
Hf3 Sn1 3.031957 1_655
Hf3 Sn2 3.031957 1_655
Hf3 Sn3 3.079927 1_555
Hf3 Sn4 3.079927 1_555
Hf3 Sn0 3.203848 1_655
Hf3 Sn5 3.203848 1_655
Hf4 Rh2 2.812299 1_555
Hf4 Rh0 2.812299 1_555
Hf4 Rh4 2.907787 1_665
Hf4 Rh1 2.973304 1_555
Hf4 Rh5 2.973304 1_554
Hf4 Sn0 3.031954 1_555
Hf4 Sn5 3.031954 1_555
Hf4 Sn2 3.079926 1_655
Hf4 Sn1 3.079926 1_655
Hf4 Sn3 3.203854 1_565
Hf4 Sn4 3.203854 1_565
Hf5 Rh2 2.812287 1_545
Hf5 Rh0 2.812287 1_545
Hf5 Rh4 2.907791 1_555
Hf5 Rh5 2.973304 1_554
Hf5 Rh1 2.973304 1_555
Hf5 Sn4 3.031951 1_555
Hf5 Sn3 3.031951 1_555
Hf5 Sn0 3.079931 1_555
Hf5 Sn5 3.079931 1_555
Hf5 Sn1 3.203852 1_545
Hf5 Sn2 3.203852 1_545
Rh0 Sn1 2.712471 1_555
Rh0 Sn3 2.712476 1_565
Rh0 Sn0 2.712479 1_555
Rh1 Sn3 2.712471 1_555
Rh1 Sn1 2.712476 1_655
Rh1 Sn0 2.712478 1_555
Rh2 Sn2 2.712471 1_555
Rh2 Sn4 2.712476 1_565
Rh2 Sn5 2.712479 1_555
Rh3 Sn3 2.680610 1_455
Rh3 Sn4 2.680610 1_456
Rh3 Sn1 2.680611 1_545
Rh3 Sn5 2.680611 1_556
Rh3 Sn2 2.680611 1_546
Rh3 Sn0 2.680611 1_555
Rh4 Sn4 2.680610 1_455
Rh4 Sn3 2.680610 1_455
Rh4 Sn1 2.680611 1_545
Rh4 Sn5 2.680611 1_555
Rh4 Sn2 2.680611 1_545
Rh4 Sn0 2.680611 1_555
Rh5 Sn4 2.712471 1_556
Rh5 Sn2 2.712476 1_656
Rh5 Sn5 2.712478 1_556
