# generated using pymatgen
data_Na5Ta2Si5Ge2PO24
_symmetry_space_group_name_H-M   'P 1'
_cell_length_a   8.83733400
_cell_length_b   8.83458631
_cell_length_c   22.19635450
_cell_angle_alpha   89.93267712
_cell_angle_beta   90.15336947
_cell_angle_gamma   119.94510320
_symmetry_Int_Tables_number   1
_chemical_formula_structural   Na5Ta2Si5Ge2PO24
_chemical_formula_sum   'Na15 Ta6 Si15 Ge6 P3 O72'
_cell_volume   1501.61356724
_cell_formula_units_Z   3
loop_
 _symmetry_equiv_pos_site_id
 _symmetry_equiv_pos_as_xyz
  1  'x, y, z'
loop_
 _atom_site_type_symbol
 _atom_site_label
 _atom_site_symmetry_multiplicity
 _atom_site_fract_x
 _atom_site_fract_y
 _atom_site_fract_z
 _atom_site_occupancy
  Na  Na0  1  0.63732235  0.00343583  0.24879075  1
  Na  Na1  1  0.36694727  0.36319430  0.24780482  1
  Na  Na2  1  0.99556389  0.63197593  0.24828949  1
  Na  Na3  1  0.99957331  0.36455412  0.75002147  1
  Na  Na4  1  0.03301162  0.69781134  0.57969212  1
  Na  Na5  1  0.66222833  0.96557488  0.57981188  1
  Na  Na6  1  0.96607425  0.66632063  0.91910222  1
  Na  Na7  1  0.70066699  0.03395494  0.91788879  1
  Na  Na8  1  0.33187987  0.29888951  0.91970826  1
  Na  Na9  1  0.00559929  0.00595149  0.49318401  1
  Na  Na10  1  0.00233021  0.00057137  0.00210363  1
  Na  Na11  1  0.66055166  0.33181692  0.83358404  1
  Na  Na12  1  0.66837091  0.33341483  0.33338591  1
  Na  Na13  1  0.33242402  0.66454997  0.16063812  1
  Na  Na14  1  0.33964457  0.66516216  0.66363717  1
  Ta  Ta0  1  0.00270530  0.00289465  0.64467370  1
  Ta  Ta1  1  0.00411504  0.00011431  0.14185549  1
  Ta  Ta2  1  0.66285168  0.33426949  0.68753182  1
  Ta  Ta3  1  0.66860928  0.33250701  0.47520608  1
  Ta  Ta4  1  0.33159917  0.66779346  0.31414058  1
  Ta  Ta5  1  0.33422733  0.67340046  0.81218592  1
  Si  Si0  1  0.28868183  0.00686913  0.25132406  1
  Si  Si1  1  0.71662208  0.71142057  0.24992154  1
  Si  Si2  1  0.99341589  0.28073222  0.25064917  1
  Si  Si3  1  0.29002823  0.28561303  0.75295434  1
  Si  Si4  1  0.99728953  0.71711937  0.75289673  1
  Si  Si5  1  0.71427937  0.99716699  0.75213583  1
  Si  Si6  1  0.96603838  0.34107298  0.58138783  1
  Si  Si7  1  0.37733917  0.04141736  0.58067975  1
  Si  Si8  1  0.65429197  0.61871351  0.58041494  1
  Si  Si9  1  0.95200383  0.61242235  0.08203527  1
  Si  Si10  1  0.38784287  0.34383038  0.08141979  1
  Si  Si11  1  0.04034066  0.37361565  0.91922505  1
  Si  Si12  1  0.33339838  0.95766835  0.92118189  1
  Si  Si13  1  0.63057881  0.95279408  0.41797084  1
  Si  Si14  1  0.04776919  0.67861582  0.41802553  1
  Ge  Ge0  1  0.99397890  0.99335353  0.35365185  1
  Ge  Ge1  1  0.00740992  0.00548502  0.85212762  1
  Ge  Ge2  1  0.66804004  0.33917164  0.18473686  1
  Ge  Ge3  1  0.66563481  0.32911558  0.98443724  1
  Ge  Ge4  1  0.31849389  0.65692782  0.02335514  1
  Ge  Ge5  1  0.33456801  0.66824495  0.51809548  1
  P  P0  1  0.65954627  0.04304773  0.08275311  1
  P  P1  1  0.62230663  0.66728239  0.91902589  1
  P  P2  1  0.32550278  0.37403128  0.41808599  1
  O  O0  1  0.20113910  0.04614953  0.30892274  1
  O  O1  1  0.84205962  0.79563076  0.30827716  1
  O  O2  1  0.95613750  0.15592518  0.30902023  1
  O  O3  1  0.20465805  0.16961400  0.81338509  1
  O  O4  1  0.96612088  0.80254367  0.81312589  1
  O  O5  1  0.83961374  0.03814059  0.81162824  1
  O  O6  1  0.79914586  0.96825176  0.69105212  1
  O  O7  1  0.16220226  0.19972130  0.69426714  1
  O  O8  1  0.03159959  0.83112497  0.69157661  1
  O  O9  1  0.79934842  0.84004634  0.19176245  1
  O  O10  1  0.03774523  0.19865087  0.19189061  1
  O  O11  1  0.16076649  0.96029644  0.19231162  1
  O  O12  1  0.87717395  0.37341641  0.64242934  1
  O  O13  1  0.50395853  0.13159013  0.64027916  1
  O  O14  1  0.63235039  0.50057274  0.64104536  1
  O  O15  1  0.86744309  0.49780277  0.14372285  1
  O  O16  1  0.63204379  0.12663741  0.14035333  1
  O  O17  1  0.50024325  0.36741403  0.14343931  1
  O  O18  1  0.46789172  0.30043377  0.02083599  1
  O  O19  1  0.83161442  0.52920535  0.02089669  1
  O  O20  1  0.69783736  0.15865069  0.02455724  1
  O  O21  1  0.46860504  0.16957454  0.52430580  1
  O  O22  1  0.70508090  0.53349847  0.52531209  1
  O  O23  1  0.82864001  0.29627658  0.52617661  1
  O  O24  1  0.53963522  0.70718069  0.97327523  1
  O  O25  1  0.17702451  0.46405823  0.97432963  1
  O  O26  1  0.29363060  0.82156960  0.97597679  1
  O  O27  1  0.53661026  0.83382521  0.47786992  1
  O  O28  1  0.29977401  0.46477221  0.47349660  1
  O  O29  1  0.16646530  0.70087882  0.47786416  1
  O  O30  1  0.13271115  0.63698793  0.35800943  1
  O  O31  1  0.50504318  0.86414948  0.35794325  1
  O  O32  1  0.36000289  0.48990662  0.35998467  1
  O  O33  1  0.12597434  0.49719007  0.85861142  1
  O  O34  1  0.37291202  0.87086661  0.86110566  1
  O  O35  1  0.50369784  0.63318648  0.86203309  1
  O  O36  1  0.03250768  0.85219683  0.40946710  1
  O  O37  1  0.82262546  0.97580429  0.40975143  1
  O  O38  1  0.16423880  0.19405335  0.41061161  1
  O  O39  1  0.01935702  0.17718564  0.91083241  1
  O  O40  1  0.15621007  0.97403995  0.91151197  1
  O  O41  1  0.80704720  0.83272901  0.91120950  1
  O  O42  1  0.97186756  0.15996239  0.58849073  1
  O  O43  1  0.18246838  0.01646164  0.58875856  1
  O  O44  1  0.83250912  0.81175127  0.58950161  1
  O  O45  1  0.96958788  0.80730978  0.08802327  1
  O  O46  1  0.82730434  0.02826175  0.08829920  1
  O  O47  1  0.19138233  0.16803075  0.08819413  1
  O  O48  1  0.70050671  0.17429695  0.74518826  1
  O  O49  1  0.48147038  0.30641498  0.74549124  1
  O  O50  1  0.83218253  0.51844451  0.74626146  1
  O  O51  1  0.69134345  0.51440727  0.24306088  1
  O  O52  1  0.82189504  0.30596826  0.24215651  1
  O  O53  1  0.48596001  0.17450625  0.24173500  1
  O  O54  1  0.64046143  0.50129026  0.92196255  1
  O  O55  1  0.84469790  0.35480870  0.92502666  1
  O  O56  1  0.51014137  0.15367961  0.92510610  1
  O  O57  1  0.64021257  0.14356901  0.42202626  1
  O  O58  1  0.49456276  0.36216900  0.42285791  1
  O  O59  1  0.85520234  0.50044273  0.42267973  1
  O  O60  1  0.36809957  0.51845199  0.07455272  1
  O  O61  1  0.14907012  0.63935971  0.07664817  1
  O  O62  1  0.49738712  0.86018521  0.07529854  1
  O  O63  1  0.35819480  0.84853495  0.57658541  1
  O  O64  1  0.48768617  0.64636694  0.57528142  1
  O  O65  1  0.15391076  0.51542163  0.57459452  1
  O  O66  1  0.30924398  0.83053468  0.25650588  1
  O  O67  1  0.51884091  0.68651211  0.25657621  1
  O  O68  1  0.16879035  0.47744048  0.25660411  1
  O  O69  1  0.30323719  0.47683434  0.75834641  1
  O  O70  1  0.16866170  0.68955224  0.75741443  1
  O  O71  1  0.52116969  0.82535897  0.75725364  1
loop_
_geom_bond_atom_site_label_1
_geom_bond_atom_site_label_2
_geom_bond_distance
_geom_bond_site_symmetry_2
Na0 O52 2.339627 1_555
Na0 O67 2.457362 1_545
Na0 O53 2.472758 1_555
Na0 O66 2.519802 1_545
Na0 O16 2.650291 1_555
Na0 O31 2.706053 1_545
Na0 O2 2.781190 1_555
Na0 O9 2.795292 1_545
Na1 O53 2.377982 1_555
Na1 O68 2.427005 1_555
Na1 O67 2.484094 1_555
Na1 O51 2.488399 1_555
Na1 O17 2.593438 1_555
Na1 O32 2.744615 1_555
Na1 O0 2.781566 1_555
Na1 O10 2.807155 1_555
Na2 O51 2.351831 1_555
Na2 O66 2.436860 1_655
Na2 O52 2.501211 1_555
Na2 O68 2.515147 1_655
Na2 O15 2.593570 1_555
Na2 O30 2.707934 1_655
Na2 O1 2.770540 1_555
Na2 O11 2.803959 1_655
Na3 O48 2.320739 1_555
Na3 O69 2.357949 1_655
Na3 O50 2.459790 1_555
Na3 O70 2.494039 1_655
Na3 O12 2.636233 1_555
Na3 O33 2.667561 1_655
Na3 O7 2.796581 1_655
Na3 O5 2.848767 1_555
Na4 O65 2.338923 1_555
Na4 O44 2.446135 1_455
Na4 O43 2.449058 1_565
Na4 O63 2.493367 1_555
Na4 O29 2.546061 1_555
Na4 O8 2.752531 1_555
Na4 O22 2.783572 1_455
Na4 O12 2.847758 1_455
Na5 O63 2.349252 1_555
Na5 O42 2.404292 1_565
Na5 O64 2.449349 1_555
Na5 O44 2.489329 1_555
Na5 O27 2.531781 1_555
Na5 O6 2.741677 1_555
Na5 O23 2.797785 1_565
Na5 O13 2.823387 1_565
Na6 O40 2.383785 1_655
Na6 O55 2.407198 1_555
Na6 O54 2.494462 1_555
Na6 O41 2.495570 1_555
Na6 O19 2.560364 1_556
Na6 O4 2.640922 1_555
Na6 O26 2.806259 1_655
Na6 O33 2.855702 1_655
Na7 O41 2.395010 1_545
Na7 O56 2.399836 1_555
Na7 O39 2.449835 1_655
Na7 O55 2.465400 1_555
Na7 O20 2.618004 1_556
Na7 O5 2.653696 1_555
Na7 O24 2.787533 1_545
Na7 O34 2.805790 1_545
Na8 O54 2.401650 1_555
Na8 O39 2.419863 1_555
Na8 O56 2.481553 1_555
Na8 O40 2.496259 1_545
Na8 O18 2.540223 1_556
Na8 O3 2.616902 1_555
Na8 O25 2.734707 1_555
Na8 O35 2.862059 1_555
Na9 O37 2.381246 1_445
Na9 O36 2.384410 1_545
Na9 O38 2.401444 1_555
Na9 O43 2.605750 1_555
Na9 O42 2.613504 1_455
Na9 O44 2.691256 1_445
Na10 O45 2.477502 1_445
Na10 O47 2.480621 1_555
Na10 O40 2.506300 1_544
Na10 O39 2.514211 1_554
Na10 O46 2.550973 1_455
Na10 O41 2.584776 1_444
Na11 O49 2.451170 1_555
Na11 O50 2.507468 1_555
Na11 O56 2.507773 1_555
Na11 O54 2.528943 1_555
Na11 O48 2.532129 1_555
Na11 O55 2.542144 1_555
Na12 O51 2.507614 1_555
Na12 O57 2.514792 1_555
Na12 O52 2.518792 1_555
Na12 O59 2.527625 1_555
Na12 O53 2.537279 1_555
Na12 O58 2.602863 1_555
Na13 O61 2.403205 1_555
Na13 O60 2.414894 1_555
Na13 O62 2.488415 1_555
Na13 O67 2.636173 1_555
Na13 O68 2.642489 1_555
Na13 O66 2.651395 1_555
Na14 O64 2.411803 1_555
Na14 O63 2.472665 1_555
Na14 O65 2.484241 1_555
Na14 O71 2.572306 1_555
Na14 O69 2.598454 1_555
Na14 O70 2.646751 1_555
Ge0 O1 1.877162 1_555
Ge0 O36 1.903675 1_655
Ge0 O2 1.905376 1_565
Ge0 O37 1.908653 1_555
Ge0 O0 1.926402 1_665
Ge0 O38 2.082767 1_665
Ge1 O3 1.833659 1_555
Ge1 O4 1.856316 1_445
Ge1 O5 1.873387 1_455
Ge1 O39 1.963175 1_555
Ge1 O40 1.974433 1_545
Ge1 O41 2.119951 1_445
Ge2 O15 1.854237 1_555
Ge2 O17 1.860913 1_555
Ge2 O51 1.949374 1_555
Ge2 O52 1.986740 1_555
Ge2 O53 1.993924 1_555
Ge2 O16 2.000914 1_555
Ge3 O18 1.826411 1_556
Ge3 O19 1.827476 1_556
Ge3 O20 1.888218 1_556
Ge3 O56 1.973233 1_555
Ge3 O55 1.986574 1_555
Ge3 O54 2.148813 1_555
Ge4 O61 1.855314 1_555
Ge4 O60 1.873423 1_555
Ge4 O25 1.876401 1_554
Ge4 O26 1.893179 1_554
Ge4 O62 2.052834 1_555
Ge4 O24 2.096736 1_554
Ge5 O29 1.872800 1_555
Ge5 O27 1.876975 1_555
Ge5 O64 1.931553 1_555
Ge5 O28 1.938196 1_555
Ge5 O65 1.949167 1_555
Ge5 O63 1.984300 1_555
O0 Si0 1.621059 1_555
O1 Si1 1.622135 1_555
O2 Si2 1.624569 1_555
O3 Si3 1.627551 1_555
O4 Si4 1.626197 1_555
O5 Si5 1.641534 1_545
O6 Si5 1.632044 1_555
O6 Ta0 1.961897 1_665
O7 Si3 1.639343 1_555
O7 Ta0 1.942031 1_555
O8 Si4 1.628811 1_455
O8 Ta0 1.957959 1_565
O9 Si1 1.632321 1_555
O9 Ta1 1.988418 1_665
O10 Si2 1.633675 1_455
O10 Ta1 1.969929 1_555
O11 Si0 1.640700 1_565
O11 Ta1 1.942030 1_565
O12 Si6 1.662759 1_555
O12 Ta2 2.016082 1_555
O13 Si7 1.655715 1_555
O13 Ta2 1.940204 1_555
O14 Si8 1.653517 1_555
O14 Ta2 1.919963 1_555
O15 Si9 1.644813 1_555
O16 P0 1.556309 1_555
O17 Si10 1.646778 1_555
O18 Si10 1.653126 1_555
O19 Si9 1.651592 1_555
O20 P0 1.574918 1_555
O21 Si7 1.608905 1_555
O21 Ta3 1.962252 1_555
O22 Si8 1.614497 1_555
O22 Ta3 1.981208 1_555
O23 Si6 1.626727 1_555
O23 Ta3 1.955766 1_555
O24 P1 1.539729 1_555
O25 Si11 1.619990 1_555
O26 Si12 1.620329 1_555
O27 Si13 1.641110 1_555
O28 P2 1.546878 1_555
O29 Si14 1.640212 1_555
O30 Si14 1.659955 1_555
O30 Ta4 1.908533 1_555
O31 Si13 1.657261 1_555
O31 Ta4 1.909299 1_555
O32 P2 1.578451 1_555
O32 Ta4 1.989209 1_555
O33 Si11 1.658874 1_555
O33 Ta5 2.004624 1_555
O34 Si12 1.661443 1_555
O34 Ta5 1.935553 1_555
O35 P1 1.571088 1_555
O35 Ta5 2.028499 1_555
O36 Si14 1.616048 1_555
O37 Si13 1.616218 1_555
O38 P2 1.524418 1_555
O39 Si11 1.661303 1_555
O40 Si12 1.656254 1_555
O41 P1 1.565415 1_555
O42 Si6 1.633793 1_555
O42 Ta0 1.981560 1_655
O43 Si7 1.633716 1_555
O43 Ta0 1.974480 1_555
O44 Si8 1.657474 1_555
O44 Ta0 2.018138 1_665
O45 Si9 1.655160 1_555
O45 Ta1 1.976408 1_665
O46 P0 1.556422 1_555
O46 Ta1 2.072140 1_655
O47 Si10 1.660708 1_555
O47 Ta1 1.978289 1_555
O48 Si5 1.636122 1_545
O48 Ta2 2.051563 1_555
O49 Si3 1.616959 1_555
O49 Ta2 1.975217 1_555
O50 Si4 1.635272 1_555
O50 Ta2 2.037119 1_555
O51 Si1 1.647666 1_555
O52 Si2 1.648820 1_555
O53 Si0 1.643683 1_555
O54 P1 1.554072 1_555
O55 Si11 1.657662 1_655
O56 Si12 1.656891 1_545
O57 Si13 1.647133 1_545
O57 Ta3 1.956365 1_555
O58 P2 1.552352 1_555
O58 Ta3 2.043687 1_555
O59 Si14 1.646428 1_655
O59 Ta3 1.960469 1_555
O60 Si10 1.643672 1_555
O61 Si9 1.640482 1_455
O62 P0 1.542398 1_565
O63 Si7 1.628829 1_565
O64 Si8 1.612027 1_555
O65 Si6 1.612302 1_455
O66 Si0 1.659880 1_565
O66 Ta4 2.005147 1_555
O67 Si1 1.656070 1_555
O67 Ta4 2.033627 1_555
O68 Si2 1.658342 1_455
O68 Ta4 2.027022 1_555
O69 Si3 1.638724 1_555
O69 Ta5 2.011754 1_555
O70 Si4 1.652379 1_455
O70 Ta5 1.959004 1_555
O71 Si5 1.625971 1_555
O71 Ta5 1.952187 1_555
