# generated using pymatgen
data_BaNdMgCo2O5
_symmetry_space_group_name_H-M   'P 1'
_cell_length_a   4.10193192
_cell_length_b   3.59614277
_cell_length_c   10.48067499
_cell_angle_alpha   90.00000000
_cell_angle_beta   90.00000000
_cell_angle_gamma   90.00000000
_symmetry_Int_Tables_number   1
_chemical_formula_structural   BaNdMgCo2O5
_chemical_formula_sum   'Ba1 Nd1 Mg1 Co2 O5'
_cell_volume   154.60182879
_cell_formula_units_Z   1
loop_
 _symmetry_equiv_pos_site_id
 _symmetry_equiv_pos_as_xyz
  1  'x, y, z'
loop_
 _atom_site_type_symbol
 _atom_site_label
 _atom_site_symmetry_multiplicity
 _atom_site_fract_x
 _atom_site_fract_y
 _atom_site_fract_z
 _atom_site_occupancy
  Ba  Ba0  1  0.50000000  0.50000000  0.44377056  1
  Nd  Nd0  1  0.50000000  0.50000000  0.07730429  1
  Mg  Mg0  1  0.50000000  0.50000000  0.79017669  1
  Co  Co0  1  0.00000000  0.00000000  0.65261495  1
  Co  Co1  1  0.00000000  0.00000000  0.25828965  1
  O  O0  1  0.50000000  0.00000000  0.92106518  1
  O  O1  1  0.50000000  0.00000000  0.23719984  1
  O  O2  1  0.00000000  0.50000000  0.72884254  1
  O  O3  1  0.00000000  0.50000000  0.17550314  1
  O  O4  1  0.00000000  0.00000000  0.46523315  1
loop_
_geom_bond_atom_site_label_1
_geom_bond_atom_site_label_2
_geom_bond_distance
_geom_bond_site_symmetry_2
Ba0 O4 2.736809 1_555
Ba0 O4 2.736809 1_655
Ba0 O4 2.736809 1_565
Ba0 O4 2.736809 1_665
Ba0 O1 2.814301 1_555
Ba0 O1 2.814301 1_565
Nd0 O3 2.294710 1_555
Nd0 O3 2.294710 1_655
Nd0 O0 2.431962 1_554
Nd0 O0 2.431962 1_564
Nd0 O1 2.457928 1_555
Nd0 O1 2.457928 1_565
Mg0 O2 2.149345 1_555
Mg0 O2 2.149345 1_655
Mg0 O0 2.261613 1_555
Mg0 O0 2.261613 1_565
Co0 O4 1.963888 1_555
Co0 O2 1.967569 1_555
Co0 O2 1.967569 1_545
Co1 O3 1.996470 1_545
Co1 O3 1.996470 1_555
Co1 O1 2.062842 1_555
Co1 O1 2.062842 1_455
Co1 O4 2.168908 1_555
