# generated using pymatgen
data_BaLaMgZnRuO6
_symmetry_space_group_name_H-M   'P 1'
_cell_length_a   6.83195176
_cell_length_b   6.05173156
_cell_length_c   6.77575552
_cell_angle_alpha   129.73402082
_cell_angle_beta   133.12515333
_cell_angle_gamma   69.20494132
_symmetry_Int_Tables_number   1
_chemical_formula_structural   BaLaMgZnRuO6
_chemical_formula_sum   'Ba1 La1 Mg1 Zn1 Ru1 O6'
_cell_volume   155.55441812
_cell_formula_units_Z   1
loop_
 _symmetry_equiv_pos_site_id
 _symmetry_equiv_pos_as_xyz
  1  'x, y, z'
loop_
 _atom_site_type_symbol
 _atom_site_label
 _atom_site_symmetry_multiplicity
 _atom_site_fract_x
 _atom_site_fract_y
 _atom_site_fract_z
 _atom_site_occupancy
  Ba  Ba0  1  0.80429297  0.29172175  0.49188433  1
  La  La0  1  0.22918903  0.67513990  0.52915678  1
  Mg  Mg0  1  0.47941501  0.98409942  0.47471996  1
  Zn  Zn0  1  0.97410521  0.99298232  0.97109402  1
  Ru  Ru0  1  0.49733624  0.49793909  -0.00192883  1
  O  O0  1  0.18309607  0.23692497  0.45475935  1
  O  O1  1  0.31625760  0.54565346  0.18225018  1
  O  O2  1  0.35545105  0.88923651  0.05867008  1
  O  O3  1  0.82163448  0.79467472  0.50976787  1
  O  O4  1  0.59989595  0.07261315  0.88550031  1
  O  O5  1  0.70361140  0.48330071  0.88162594  1
loop_
_geom_bond_atom_site_label_1
_geom_bond_atom_site_label_2
_geom_bond_distance
_geom_bond_site_symmetry_2
Ba0 O5 2.606547 1_555
Ba0 O0 2.654210 1_655
Ba0 O4 2.663669 1_554
Ba0 O2 2.794440 1_545
Ba0 O1 2.955375 1_656
Ba0 O1 2.966494 1_555
Ba0 O3 3.009644 1_555
Ba0 O3 3.044678 1_545
La0 O1 2.391410 1_555
La0 O2 2.432019 1_556
La0 O0 2.460288 1_555
La0 O3 2.546486 1_455
La0 O4 2.563252 1_565
La0 O5 2.801201 1_555
La0 O5 2.898299 1_454
Mg0 O4 1.996548 1_565
Mg0 O2 2.001487 1_555
Mg0 O0 2.036786 1_565
Mg0 O3 2.126672 1_555
Mg0 O1 2.137214 1_555
Mg0 O5 2.436740 1_565
O0 Zn0 1.967782 1_444
O0 Ru0 2.196538 1_556
O1 Ru0 2.137206 1_555
O2 Ru0 2.094518 1_555
O2 Zn0 2.176064 1_454
O3 Zn0 1.983996 1_555
O3 Ru0 2.125435 1_555
O4 Zn0 2.135424 1_545
O4 Ru0 2.153632 1_556
O5 Ru0 1.989620 1_556
