# generated using pymatgen
data_Dy(HO)3
_symmetry_space_group_name_H-M   'P 1'
_cell_length_a   6.25108165
_cell_length_b   6.25105926
_cell_length_c   3.52069213
_cell_angle_alpha   89.99999672
_cell_angle_beta   90.00000303
_cell_angle_gamma   120.00050292
_symmetry_Int_Tables_number   1
_chemical_formula_structural   Dy(HO)3
_chemical_formula_sum   'Dy2 H6 O6'
_cell_volume   119.14210483
_cell_formula_units_Z   2
loop_
 _symmetry_equiv_pos_site_id
 _symmetry_equiv_pos_as_xyz
  1  'x, y, z'
loop_
 _atom_site_type_symbol
 _atom_site_label
 _atom_site_symmetry_multiplicity
 _atom_site_fract_x
 _atom_site_fract_y
 _atom_site_fract_z
 _atom_site_occupancy
  Dy  Dy0  1  0.66666728  0.33333855  0.74999990  1
  Dy  Dy1  1  0.33333245  0.66666108  0.25000020  1
  H  H0  1  0.72339758  0.86412505  0.74999994  1
  H  H1  1  0.85927994  0.72338427  0.24999994  1
  H  H2  1  0.14072869  0.27660215  0.75000009  1
  H  H3  1  0.27661914  0.13590203  0.24999999  1
  H  H4  1  0.86409731  0.14071856  0.25000000  1
  H  H5  1  0.13587539  0.85927250  0.75000005  1
  O  O0  1  0.91570155  0.60511326  0.24999990  1
  O  O1  1  0.60508299  0.68937147  0.74999982  1
  O  O2  1  0.08428500  0.39491584  0.75000005  1
  O  O3  1  0.39488216  0.31057982  0.25000016  1
  O  O4  1  0.68941633  0.08429841  0.25000011  1
  O  O5  1  0.31063420  0.91571700  0.74999985  1
loop_
_geom_bond_atom_site_label_1
_geom_bond_atom_site_label_2
_geom_bond_distance
_geom_bond_site_symmetry_2
Dy0 O0 2.400768 1_555
Dy0 O0 2.400768 1_556
Dy0 O3 2.400788 1_555
Dy0 O3 2.400789 1_556
Dy0 O4 2.400821 1_555
Dy0 O4 2.400822 1_556
Dy0 O5 2.440943 1_545
Dy0 O1 2.440945 1_555
Dy0 O2 2.440967 1_655
Dy1 O2 2.400721 1_555
Dy1 O2 2.400722 1_554
Dy1 O1 2.400730 1_555
Dy1 O1 2.400732 1_554
Dy1 O5 2.400765 1_555
Dy1 O5 2.400767 1_554
Dy1 O3 2.441112 1_555
Dy1 O0 2.441118 1_455
Dy1 O4 2.441124 1_565
H0 O1 0.965601 1_555
H1 O0 0.965270 1_555
H2 O2 0.965626 1_555
H3 O3 0.965182 1_555
H4 O4 0.965200 1_555
H5 O5 0.965632 1_555
