# generated using pymatgen
data_HfPbO3
_symmetry_space_group_name_H-M   'P 1'
_cell_length_a   5.83973713
_cell_length_b   8.16659022
_cell_length_c   11.68453719
_cell_angle_alpha   90.00000000
_cell_angle_beta   90.00000000
_cell_angle_gamma   90.00000000
_symmetry_Int_Tables_number   1
_chemical_formula_structural   HfPbO3
_chemical_formula_sum   'Hf8 Pb8 O24'
_cell_volume   557.24422671
_cell_formula_units_Z   8
loop_
 _symmetry_equiv_pos_site_id
 _symmetry_equiv_pos_as_xyz
  1  'x, y, z'
loop_
 _atom_site_type_symbol
 _atom_site_label
 _atom_site_symmetry_multiplicity
 _atom_site_fract_x
 _atom_site_fract_y
 _atom_site_fract_z
 _atom_site_occupancy
  Hf  Hf0  1  0.25746471  0.25551487  0.62399106  1
  Hf  Hf1  1  0.24253529  0.25551487  0.12399106  1
  Hf  Hf2  1  0.74255019  0.75641461  0.37597599  1
  Hf  Hf3  1  0.24255019  0.75641461  0.12402401  1
  Hf  Hf4  1  0.75746471  0.25551487  0.87600894  1
  Hf  Hf5  1  0.25744981  0.75641461  0.62402401  1
  Hf  Hf6  1  0.75744981  0.75641461  0.87597599  1
  Hf  Hf7  1  0.74253529  0.25551487  0.37600894  1
  Pb  Pb0  1  0.20605851  0.00559717  0.37573775  1
  Pb  Pb1  1  0.20950449  0.50553187  0.37024793  1
  Pb  Pb2  1  0.29394149  0.00559717  0.87573775  1
  Pb  Pb3  1  0.79394149  0.00559717  0.62426225  1
  Pb  Pb4  1  0.70605851  0.00559717  0.12426225  1
  Pb  Pb5  1  0.29049551  0.50553187  0.87024793  1
  Pb  Pb6  1  0.70950449  0.50553187  0.12975207  1
  Pb  Pb7  1  0.79049551  0.50553187  0.62975207  1
  O  O0  1  0.00000000  0.77539642  0.00000000  1
  O  O1  1  0.23056904  0.00601071  0.65291015  1
  O  O2  1  0.20800260  0.50601754  0.59880240  1
  O  O3  1  0.97411401  0.72886794  0.74028778  1
  O  O4  1  0.00000000  0.79703147  0.50000000  1
  O  O5  1  0.79199740  0.50601754  0.40119760  1
  O  O6  1  0.52588599  0.72886794  0.24028778  1
  O  O7  1  0.52565345  0.28354432  0.24036620  1
  O  O8  1  0.50000000  0.79703147  0.00000000  1
  O  O9  1  0.73056904  0.00601071  0.84708985  1
  O  O10  1  0.70800260  0.50601754  0.90119760  1
  O  O11  1  0.02565345  0.28354432  0.25963380  1
  O  O12  1  0.50000000  0.77539642  0.50000000  1
  O  O13  1  0.00000000  0.21538142  0.50000000  1
  O  O14  1  0.47411401  0.72886794  0.75971222  1
  O  O15  1  0.50000000  0.23719463  0.50000000  1
  O  O16  1  0.02588599  0.72886794  0.25971222  1
  O  O17  1  0.47434655  0.28354432  0.75963380  1
  O  O18  1  0.76943096  0.00601071  0.34708985  1
  O  O19  1  0.29199740  0.50601754  0.09880240  1
  O  O20  1  0.26943096  0.00601071  0.15291015  1
  O  O21  1  0.00000000  0.23719463  0.00000000  1
  O  O22  1  0.97434655  0.28354432  0.74036620  1
  O  O23  1  0.50000000  0.21538142  0.00000000  1
loop_
_geom_bond_atom_site_label_1
_geom_bond_atom_site_label_2
_geom_bond_distance
_geom_bond_site_symmetry_2
Hf0 O15 2.031592 1_555
Hf0 O17 2.041686 1_555
Hf0 O1 2.071390 1_555
Hf0 O2 2.086902 1_555
Hf0 O13 2.113521 1_555
Hf0 O22 2.152892 1_455
Hf1 O21 2.031592 1_555
Hf1 O11 2.041686 1_555
Hf1 O20 2.071390 1_555
Hf1 O19 2.086902 1_555
Hf1 O23 2.113521 1_555
Hf1 O7 2.152892 1_555
Hf2 O12 2.032333 1_555
Hf2 O6 2.040872 1_555
Hf2 O18 2.072059 1_565
Hf2 O5 2.086099 1_555
Hf2 O4 2.114339 1_655
Hf2 O16 2.152631 1_655
Hf3 O0 2.032333 1_555
Hf3 O16 2.040872 1_555
Hf3 O20 2.072059 1_565
Hf3 O19 2.086099 1_555
Hf3 O8 2.114339 1_555
Hf3 O6 2.152631 1_555
Hf4 O21 2.031592 1_656
Hf4 O22 2.041686 1_555
Hf4 O9 2.071390 1_555
Hf4 O10 2.086902 1_555
Hf4 O23 2.113521 1_556
Hf4 O17 2.152892 1_555
Hf5 O12 2.032333 1_555
Hf5 O14 2.040872 1_555
Hf5 O1 2.072059 1_565
Hf5 O2 2.086099 1_555
Hf5 O4 2.114339 1_555
Hf5 O3 2.152631 1_455
Hf6 O0 2.032333 1_656
Hf6 O3 2.040872 1_555
Hf6 O9 2.072059 1_565
Hf6 O10 2.086099 1_555
Hf6 O8 2.114339 1_556
Hf6 O14 2.152631 1_555
Hf7 O15 2.031592 1_555
Hf7 O7 2.041686 1_555
Hf7 O18 2.071390 1_555
Hf7 O5 2.086902 1_555
Hf7 O13 2.113521 1_655
Hf7 O11 2.152892 1_655
O1 Pb3 2.571671 1_455
O1 Pb2 2.629809 1_555
O2 Pb7 2.464808 1_455
O2 Pb1 2.670571 1_555
O3 Pb7 2.478811 1_555
O4 Pb0 2.541117 1_565
O4 Pb3 2.541117 1_465
O5 Pb1 2.464808 1_655
O5 Pb7 2.670571 1_555
O6 Pb6 2.478811 1_555
O7 Pb6 2.471788 1_555
O8 Pb4 2.541117 1_565
O8 Pb2 2.541117 1_564
O9 Pb2 2.571671 1_555
O9 Pb3 2.629809 1_555
O10 Pb5 2.464808 1_555
O10 Pb6 2.670571 1_556
O11 Pb1 2.471788 1_555
O13 Pb3 2.547798 1_455
O13 Pb0 2.547798 1_555
O14 Pb5 2.478811 1_555
O16 Pb1 2.478811 1_555
O17 Pb5 2.471788 1_555
O18 Pb0 2.571671 1_655
O18 Pb4 2.629809 1_555
O19 Pb6 2.464808 1_555
O19 Pb5 2.670571 1_554
O20 Pb4 2.571671 1_555
O20 Pb0 2.629809 1_555
O22 Pb7 2.471788 1_555
O23 Pb4 2.547798 1_555
O23 Pb2 2.547798 1_554
