# generated using pymatgen
data_RbInTe2
_symmetry_space_group_name_H-M   'P 1'
_cell_length_a   7.36271561
_cell_length_b   7.36271622
_cell_length_c   7.36271683
_cell_angle_alpha   104.81431159
_cell_angle_beta   104.81431580
_cell_angle_gamma   119.25028683
_symmetry_Int_Tables_number   1
_chemical_formula_structural   RbInTe2
_chemical_formula_sum   'Rb2 In2 Te4'
_cell_volume   300.43747995
_cell_formula_units_Z   2
loop_
 _symmetry_equiv_pos_site_id
 _symmetry_equiv_pos_as_xyz
  1  'x, y, z'
loop_
 _atom_site_type_symbol
 _atom_site_label
 _atom_site_symmetry_multiplicity
 _atom_site_fract_x
 _atom_site_fract_y
 _atom_site_fract_z
 _atom_site_occupancy
  Rb  Rb0  1  0.75000000  0.75000000  -0.00000000  1
  Rb  Rb1  1  0.25000000  0.25000000  -0.00000000  1
  In  In0  1  0.75000000  0.25000000  0.50000000  1
  In  In1  1  0.25000000  0.75000000  0.50000000  1
  Te  Te0  1  0.33157543  0.16842457  0.50000000  1
  Te  Te1  1  0.16842457  0.66842457  0.83684914  1
  Te  Te2  1  0.83157543  0.33157543  0.16315086  1
  Te  Te3  1  0.66842457  0.83157543  0.50000000  1
loop_
_geom_bond_atom_site_label_1
_geom_bond_atom_site_label_2
_geom_bond_distance
_geom_bond_site_symmetry_2
Rb0 Te0 3.824449 1_665
Rb0 Te1 3.824449 1_554
Rb0 Te0 3.824449 1_554
Rb0 Te1 3.824449 1_654
Rb0 Te2 3.824449 1_565
Rb0 Te2 3.824449 1_555
Rb0 Te3 3.824450 1_554
Rb0 Te3 3.824450 1_555
Rb1 Te3 3.824449 1_444
Rb1 Te2 3.824449 1_555
Rb1 Te3 3.824449 1_555
Rb1 Te2 3.824449 1_455
Rb1 Te1 3.824449 1_544
Rb1 Te1 3.824449 1_554
Rb1 Te0 3.824450 1_555
Rb1 Te0 3.824450 1_554
In0 Te1 2.836098 1_655
In0 Te0 2.836098 1_555
In0 Te3 2.836099 1_545
In0 Te2 2.836099 1_555
In1 Te2 2.836098 1_455
In1 Te3 2.836098 1_555
In1 Te0 2.836099 1_565
In1 Te1 2.836099 1_555
