# generated using pymatgen
data_Ca2InPt2
_symmetry_space_group_name_H-M   'P 1'
_cell_length_a   5.70407326
_cell_length_b   5.80303653
_cell_length_c   8.14688356
_cell_angle_alpha   102.72041036
_cell_angle_beta   90.00000000
_cell_angle_gamma   119.43745340
_symmetry_Int_Tables_number   1
_chemical_formula_structural   Ca2InPt2
_chemical_formula_sum   'Ca4 In2 Pt4'
_cell_volume   227.22262024
_cell_formula_units_Z   2
loop_
 _symmetry_equiv_pos_site_id
 _symmetry_equiv_pos_as_xyz
  1  'x, y, z'
loop_
 _atom_site_type_symbol
 _atom_site_label
 _atom_site_symmetry_multiplicity
 _atom_site_fract_x
 _atom_site_fract_y
 _atom_site_fract_z
 _atom_site_occupancy
  Ca  Ca0  1  0.20340807  0.70266448  0.35102874  1
  Ca  Ca1  1  0.50074259  0.29733552  0.14897126  1
  Ca  Ca2  1  0.79659193  0.29733552  0.64897126  1
  Ca  Ca3  1  0.49925741  0.70266448  0.85102874  1
  In  In0  1  0.84808936  0.00000000  0.25000000  1
  In  In1  1  0.15191064  0.00000000  0.75000000  1
  Pt  Pt0  1  0.00251429  0.72666145  0.99696120  1
  Pt  Pt1  1  0.27585284  0.27333855  0.50303880  1
  Pt  Pt2  1  0.99748571  0.27333855  0.00303880  1
  Pt  Pt3  1  0.72414716  0.72666145  0.49696120  1
loop_
_geom_bond_atom_site_label_1
_geom_bond_atom_site_label_2
_geom_bond_distance
_geom_bond_site_symmetry_2
Ca0 Pt3 3.034383 1_455
Ca0 Pt1 3.085475 1_565
Ca0 Pt2 3.104371 1_455
Ca0 Pt3 3.126700 1_555
Ca0 Pt0 3.160201 1_554
Ca0 Pt1 3.206583 1_555
Ca0 In0 3.400859 1_565
Ca0 In1 3.414196 1_565
Ca0 In0 3.436650 1_455
Ca0 In0 3.438786 1_465
Ca1 Pt2 3.034377 1_455
Ca1 Pt0 3.085473 1_544
Ca1 Pt3 3.104371 1_555
Ca1 Pt2 3.126706 1_555
Ca1 Pt1 3.160199 1_555
Ca1 Pt0 3.206586 1_654
Ca1 In0 3.400863 1_555
Ca1 In1 3.414194 1_554
Ca1 In0 3.436650 1_565
Ca1 In0 3.438782 1_455
Ca2 Pt1 3.034383 1_655
Ca2 Pt3 3.085475 1_545
Ca2 Pt0 3.104371 1_655
Ca2 Pt1 3.126700 1_555
Ca2 Pt2 3.160201 1_556
Ca2 Pt3 3.206583 1_555
Ca2 In1 3.400859 1_555
Ca2 In0 3.414196 1_555
Ca2 In1 3.436650 1_665
Ca2 In1 3.438786 1_655
Ca3 Pt0 3.034377 1_655
Ca3 Pt2 3.085473 1_566
Ca3 Pt1 3.104371 1_555
Ca3 Pt0 3.126706 1_555
Ca3 Pt3 3.160199 1_555
Ca3 Pt2 3.206586 1_456
Ca3 In1 3.400863 1_565
Ca3 In0 3.414194 1_566
Ca3 In1 3.436650 1_555
Ca3 In1 3.438782 1_665
In0 Pt2 2.714219 1_555
In0 Pt3 2.714219 1_545
In0 Pt0 2.734035 1_644
In0 Pt1 2.734035 1_655
In1 Pt1 2.714219 1_555
In1 Pt0 2.714219 1_545
In1 Pt2 2.734035 1_456
In1 Pt3 2.734035 1_445
Pt0 Pt2 2.628076 1_456
Pt1 Pt3 2.628076 1_555
