# generated using pymatgen
data_LiNi(PO3)3
_symmetry_space_group_name_H-M   'P 1'
_cell_length_a   9.63279600
_cell_length_b   9.36032771
_cell_length_c   9.38026386
_cell_angle_alpha   108.75259712
_cell_angle_beta   104.66366454
_cell_angle_gamma   109.76292845
_symmetry_Int_Tables_number   1
_chemical_formula_structural   LiNi(PO3)3
_chemical_formula_sum   'Li4 Ni4 P12 O36'
_cell_volume   688.78072397
_cell_formula_units_Z   4
loop_
 _symmetry_equiv_pos_site_id
 _symmetry_equiv_pos_as_xyz
  1  'x, y, z'
loop_
 _atom_site_type_symbol
 _atom_site_label
 _atom_site_symmetry_multiplicity
 _atom_site_fract_x
 _atom_site_fract_y
 _atom_site_fract_z
 _atom_site_occupancy
  Li  Li0  1  0.50392800  0.93277100  0.34735000  1
  Li  Li1  1  0.32610000  0.15415800  0.36078800  1
  Li  Li2  1  0.67390000  0.84584200  0.63921200  1
  Li  Li3  1  0.49607200  0.06722900  0.65265000  1
  Ni  Ni0  1  0.27607200  0.22886300  0.75067600  1
  Ni  Ni1  1  0.21168400  0.29654200  0.09687300  1
  Ni  Ni2  1  0.78831600  0.70345800  0.90312700  1
  Ni  Ni3  1  0.72392800  0.77113700  0.24932400  1
  P  P0  1  0.92481100  0.08960800  0.18772100  1
  P  P1  1  0.89966400  0.15138500  0.51390200  1
  P  P2  1  0.83990200  0.21357000  0.94377000  1
  P  P3  1  0.64684000  0.39342100  0.99736900  1
  P  P4  1  0.07518900  0.91039200  0.81227900  1
  P  P5  1  0.10033600  0.84861500  0.48609800  1
  P  P6  1  0.16009800  0.78643000  0.05623000  1
  P  P7  1  0.29136500  0.65836800  0.42701700  1
  P  P8  1  0.40805900  0.56247100  0.69208600  1
  P  P9  1  0.35316000  0.60657900  0.00263100  1
  P  P10  1  0.59194100  0.43752900  0.30791400  1
  P  P11  1  0.70863500  0.34163200  0.57298300  1
  O  O0  1  0.93770300  0.18953300  0.36799200  1
  O  O1  1  0.99318200  0.72720500  0.04854400  1
  O  O2  1  0.83185400  0.16756600  0.09484800  1
  O  O3  1  0.80628900  0.37698100  0.00020500  1
  O  O4  1  0.06229700  0.81046700  0.63200800  1
  O  O5  1  0.00681800  0.27279500  0.95145600  1
  O  O6  1  0.16814600  0.83243400  0.90515200  1
  O  O7  1  0.19371100  0.62301900  0.99979500  1
  O  O8  1  0.13641300  0.69390100  0.40365500  1
  O  O9  1  0.04709900  0.17499200  0.63662800  1
  O  O10  1  0.19012700  0.09812800  0.88356500  1
  O  O11  1  0.32241900  0.42650900  0.97071000  1
  O  O12  1  0.36751200  0.63560500  0.84750600  1
  O  O13  1  0.28696200  0.59219800  0.56604200  1
  O  O14  1  0.29764700  0.92576900  0.21406800  1
  O  O15  1  0.09269500  0.13962800  0.19148900  1
  O  O16  1  0.25157600  0.51749700  0.26904400  1
  O  O17  1  0.44353700  0.82241300  0.49691800  1
  O  O18  1  0.35556600  0.37536900  0.63338900  1
  O  O19  1  0.25234500  0.01583900  0.56143500  1
  O  O20  1  0.58034300  0.68015100  0.73198500  1
  O  O21  1  0.50340900  0.25102600  0.84453700  1
  O  O22  1  0.49659100  0.74897400  0.15546300  1
  O  O23  1  0.41965700  0.31984900  0.26801500  1
  O  O24  1  0.74765500  0.98416100  0.43856500  1
  O  O25  1  0.64443400  0.62463100  0.36661100  1
  O  O26  1  0.55646300  0.17758700  0.50308200  1
  O  O27  1  0.74842400  0.48250300  0.73095600  1
  O  O28  1  0.90730500  0.86037200  0.80851100  1
  O  O29  1  0.70235300  0.07423100  0.78593200  1
  O  O30  1  0.71303800  0.40780200  0.43395800  1
  O  O31  1  0.63248800  0.36439500  0.15249400  1
  O  O32  1  0.67758100  0.57349100  0.02929000  1
  O  O33  1  0.80987300  0.90187200  0.11643500  1
  O  O34  1  0.95290100  0.82500800  0.36337200  1
  O  O35  1  0.86358700  0.30609900  0.59634500  1
loop_
_geom_bond_atom_site_label_1
_geom_bond_atom_site_label_2
_geom_bond_distance
_geom_bond_site_symmetry_2
Li0 O22 2.016664 1_555
Li0 O14 2.029101 1_555
Li0 O17 2.076659 1_555
Li0 O26 2.080972 1_565
Li0 O24 2.104785 1_555
Li1 O14 2.015062 1_545
Li1 O23 2.072317 1_555
Li1 O26 2.176450 1_555
Li1 O15 2.332837 1_555
Li1 O18 2.595645 1_555
Li2 O29 2.015062 1_565
Li2 O20 2.072317 1_555
Li2 O17 2.176450 1_555
Li2 O28 2.332837 1_555
Li2 O25 2.595645 1_555
Li3 O21 2.016664 1_555
Li3 O29 2.029101 1_555
Li3 O26 2.076659 1_555
Li3 O17 2.080972 1_545
Li3 O19 2.104785 1_555
Ni0 O9 1.992489 1_555
Ni0 O21 2.052563 1_555
Ni0 O18 2.088973 1_555
Ni0 O19 2.095194 1_555
Ni0 O11 2.098033 1_555
Ni0 O10 2.134220 1_555
Ni1 O5 1.987467 1_554
Ni1 O16 2.008516 1_555
Ni1 O15 2.115052 1_555
Ni1 O23 2.118772 1_555
Ni1 O10 2.153010 1_554
Ni1 O11 2.169229 1_554
Ni2 O1 1.987467 1_556
Ni2 O27 2.008516 1_555
Ni2 O28 2.115052 1_555
Ni2 O20 2.118772 1_555
Ni2 O33 2.153010 1_556
Ni2 O32 2.169229 1_556
Ni3 O34 1.992489 1_555
Ni3 O22 2.052563 1_555
Ni3 O25 2.088973 1_555
Ni3 O24 2.095194 1_555
Ni3 O32 2.098033 1_555
Ni3 O33 2.134220 1_555
O0 P0 1.596216 1_555
O0 P1 1.617003 1_555
O1 P6 1.486805 1_655
O2 P0 1.596525 1_555
O2 P2 1.620237 1_554
O3 P3 1.589114 1_554
O3 P2 1.620424 1_554
O4 P4 1.596216 1_555
O4 P5 1.617003 1_555
O5 P2 1.486805 1_455
O6 P4 1.596525 1_555
O6 P6 1.620237 1_556
O7 P9 1.589114 1_556
O7 P6 1.620424 1_556
O8 P5 1.603859 1_555
O8 P7 1.613551 1_555
O9 P1 1.479038 1_455
O10 P4 1.521476 1_545
O11 P9 1.520323 1_556
O12 P9 1.594028 1_556
O12 P8 1.604373 1_555
O13 P8 1.602751 1_555
O13 P7 1.617297 1_555
O14 P6 1.498430 1_555
O15 P0 1.511340 1_455
O16 P7 1.481818 1_555
O17 P7 1.510075 1_555
O18 P8 1.505388 1_555
O19 P5 1.519370 1_545
O20 P8 1.513884 1_555
O21 P3 1.504635 1_555
O22 P9 1.504635 1_555
O23 P10 1.513884 1_555
O24 P1 1.519370 1_565
O25 P10 1.505388 1_555
O26 P11 1.510075 1_555
O27 P11 1.481818 1_555
O28 P4 1.511340 1_655
O29 P2 1.498430 1_555
O30 P10 1.602751 1_555
O30 P11 1.617297 1_555
O31 P3 1.594028 1_554
O31 P10 1.604373 1_555
O32 P3 1.520323 1_554
O33 P0 1.521476 1_565
O34 P5 1.479038 1_655
O35 P1 1.603859 1_555
O35 P11 1.613551 1_555
