# generated using pymatgen
data_Fe2Cu2Ge4O13
_symmetry_space_group_name_H-M   'P 1'
_cell_length_a   8.70946200
_cell_length_b   4.96754100
_cell_length_c   12.19843272
_cell_angle_alpha   83.87928193
_cell_angle_beta   90.00000000
_cell_angle_gamma   90.00000000
_symmetry_Int_Tables_number   1
_chemical_formula_structural   Fe2Cu2Ge4O13
_chemical_formula_sum   'Fe4 Cu4 Ge8 O26'
_cell_volume   524.75190673
_cell_formula_units_Z   2
loop_
 _symmetry_equiv_pos_site_id
 _symmetry_equiv_pos_as_xyz
  1  'x, y, z'
loop_
 _atom_site_type_symbol
 _atom_site_label
 _atom_site_symmetry_multiplicity
 _atom_site_fract_x
 _atom_site_fract_y
 _atom_site_fract_z
 _atom_site_occupancy
  Fe  Fe0  1  0.06367300  0.04506200  0.62329000  1
  Fe  Fe1  1  0.56367300  0.95493800  0.37671000  1
  Fe  Fe2  1  0.93632700  0.95493800  0.37671000  1
  Fe  Fe3  1  0.43632700  0.04506200  0.62329000  1
  Cu  Cu0  1  0.99788900  0.04215800  0.87373200  1
  Cu  Cu1  1  0.49788900  0.95784200  0.12626800  1
  Cu  Cu2  1  0.00211100  0.95784200  0.12626800  1
  Cu  Cu3  1  0.50211100  0.04215800  0.87373200  1
  Ge  Ge0  1  0.75000000  0.39263100  0.51216600  1
  Ge  Ge1  1  0.25000000  0.60736900  0.48783400  1
  Ge  Ge2  1  0.75000000  0.60699600  0.99437100  1
  Ge  Ge3  1  0.25000000  0.39300400  0.00562900  1
  Ge  Ge4  1  0.75000000  0.67186600  0.74581300  1
  Ge  Ge5  1  0.25000000  0.32813400  0.25418700  1
  Ge  Ge6  1  0.75000000  0.51419800  0.24046500  1
  Ge  Ge7  1  0.25000000  0.48580200  0.75953500  1
  O  O0  1  0.41994800  0.20061800  0.00312900  1
  O  O1  1  0.91994800  0.79938200  0.99687100  1
  O  O2  1  0.58005200  0.79938200  0.99687100  1
  O  O3  1  0.08005200  0.20061800  0.00312900  1
  O  O4  1  0.75000000  0.71856300  0.43600700  1
  O  O5  1  0.25000000  0.28143700  0.56399300  1
  O  O6  1  0.42022000  0.13035300  0.25926900  1
  O  O7  1  0.92022000  0.86964700  0.74073100  1
  O  O8  1  0.57978000  0.86964700  0.74073100  1
  O  O9  1  0.07978000  0.13035300  0.25926900  1
  O  O10  1  0.42372100  0.79335900  0.49587700  1
  O  O11  1  0.92372100  0.20664100  0.50412300  1
  O  O12  1  0.57627900  0.20664100  0.50412300  1
  O  O13  1  0.07627900  0.79335900  0.49587700  1
  O  O14  1  0.75000000  0.44761800  0.87168200  1
  O  O15  1  0.25000000  0.55238200  0.12831800  1
  O  O16  1  0.25000000  0.78875700  0.66842900  1
  O  O17  1  0.75000000  0.21124300  0.33157100  1
  O  O18  1  0.25000000  0.56845700  0.34614100  1
  O  O19  1  0.75000000  0.43154300  0.65385900  1
  O  O20  1  0.25000000  0.63299500  0.88771500  1
  O  O21  1  0.75000000  0.36700500  0.11228500  1
  O  O22  1  0.08431200  0.27983600  0.75121700  1
  O  O23  1  0.58431200  0.72016400  0.24878300  1
  O  O24  1  0.91568800  0.72016400  0.24878300  1
  O  O25  1  0.41568800  0.27983600  0.75121700  1
loop_
_geom_bond_atom_site_label_1
_geom_bond_atom_site_label_2
_geom_bond_distance
_geom_bond_site_symmetry_2
Fe0 O11 1.998567 1_455
Fe0 O7 2.026433 1_445
Fe0 O22 2.053226 1_555
Fe0 O5 2.086707 1_555
Fe0 O13 2.098925 1_545
Fe0 O16 2.099583 1_545
Fe1 O10 1.998567 1_555
Fe1 O6 2.026433 1_565
Fe1 O23 2.053226 1_555
Fe1 O4 2.086707 1_555
Fe1 O12 2.098925 1_565
Fe1 O17 2.099583 1_565
Fe2 O13 1.998567 1_655
Fe2 O9 2.026433 1_665
Fe2 O24 2.053226 1_555
Fe2 O4 2.086707 1_555
Fe2 O11 2.098925 1_565
Fe2 O17 2.099583 1_565
Fe3 O12 1.998567 1_555
Fe3 O8 2.026433 1_545
Fe3 O25 2.053226 1_555
Fe3 O5 2.086707 1_555
Fe3 O10 2.098925 1_545
Fe3 O16 2.099583 1_545
Cu0 O1 1.945571 1_545
Cu0 O22 1.953913 1_655
Cu0 O3 1.971832 1_656
Cu0 O7 2.029936 1_545
Cu1 O0 1.945571 1_565
Cu1 O23 1.953913 1_555
Cu1 O2 1.971832 1_554
Cu1 O6 2.029936 1_565
Cu2 O3 1.945571 1_565
Cu2 O24 1.953913 1_455
Cu2 O1 1.971832 1_454
Cu2 O9 2.029936 1_565
Cu3 O2 1.945571 1_545
Cu3 O25 1.953913 1_555
Cu3 O0 1.971832 1_556
Cu3 O8 2.029936 1_545
Ge0 O19 1.759571 1_555
Ge0 O4 1.778691 1_555
Ge0 O11 1.780952 1_555
Ge0 O12 1.780952 1_555
Ge1 O18 1.759571 1_555
Ge1 O5 1.778691 1_555
Ge1 O10 1.780952 1_555
Ge1 O13 1.780952 1_555
Ge2 O1 1.763899 1_555
Ge2 O2 1.763899 1_555
Ge2 O14 1.766166 1_555
Ge2 O21 1.767621 1_556
Ge3 O3 1.763899 1_555
Ge3 O0 1.763899 1_555
Ge3 O15 1.766166 1_555
Ge3 O20 1.767621 1_554
Ge4 O19 1.723064 1_555
Ge4 O8 1.775954 1_555
Ge4 O7 1.775954 1_555
Ge4 O14 1.798233 1_555
Ge5 O18 1.723064 1_555
Ge5 O9 1.775954 1_555
Ge5 O6 1.775954 1_555
Ge5 O15 1.798233 1_555
Ge6 O17 1.772932 1_555
Ge6 O24 1.778106 1_555
Ge6 O23 1.778106 1_555
Ge6 O21 1.795346 1_555
Ge7 O16 1.772932 1_555
Ge7 O25 1.778106 1_555
Ge7 O22 1.778106 1_555
Ge7 O20 1.795346 1_555
