# generated using pymatgen
data_CsSbSe2
_symmetry_space_group_name_H-M   'P 1'
_cell_length_a   10.26036463
_cell_length_b   7.50931955
_cell_length_c   7.85318512
_cell_angle_alpha   77.68835493
_cell_angle_beta   90.00000000
_cell_angle_gamma   90.00000000
_symmetry_Int_Tables_number   1
_chemical_formula_structural   CsSbSe2
_chemical_formula_sum   'Cs4 Sb4 Se8'
_cell_volume   591.15964897
_cell_formula_units_Z   4
loop_
 _symmetry_equiv_pos_site_id
 _symmetry_equiv_pos_as_xyz
  1  'x, y, z'
loop_
 _atom_site_type_symbol
 _atom_site_label
 _atom_site_symmetry_multiplicity
 _atom_site_fract_x
 _atom_site_fract_y
 _atom_site_fract_z
 _atom_site_occupancy
  Cs  Cs0  1  0.93603331  0.28556753  0.34298685  1
  Cs  Cs1  1  0.43603331  0.21443247  0.65701315  1
  Cs  Cs2  1  0.06396669  0.71443247  0.65701315  1
  Cs  Cs3  1  0.56396669  0.78556753  0.34298685  1
  Sb  Sb0  1  0.16612101  0.86274312  0.08916510  1
  Sb  Sb1  1  0.83387899  0.13725688  0.91083490  1
  Sb  Sb2  1  0.66612101  0.63725688  0.91083490  1
  Sb  Sb3  1  0.33387899  0.36274312  0.08916510  1
  Se  Se0  1  0.07108333  0.19883622  0.82162585  1
  Se  Se1  1  0.57108333  0.30116378  0.17837415  1
  Se  Se2  1  0.92891667  0.80116378  0.17837415  1
  Se  Se3  1  0.42891667  0.69883622  0.82162585  1
  Se  Se4  1  0.24798552  0.04406548  0.31437279  1
  Se  Se5  1  0.74798552  0.45593452  0.68562721  1
  Se  Se6  1  0.75201448  0.95593452  0.68562721  1
  Se  Se7  1  0.25201448  0.54406548  0.31437279  1
loop_
_geom_bond_atom_site_label_1
_geom_bond_atom_site_label_2
_geom_bond_distance
_geom_bond_site_symmetry_2
Cs0 Se4 3.709162 1_655
Cs0 Se5 3.750736 1_555
Cs0 Se6 3.753951 1_545
Cs0 Se7 3.760799 1_655
Cs0 Se2 3.812172 1_555
Cs0 Se0 3.927991 1_655
Cs0 Sb1 3.933001 1_554
Cs0 Se1 3.954964 1_555
Cs0 Se2 4.112612 1_545
Cs1 Se5 3.709162 1_555
Cs1 Se4 3.750736 1_555
Cs1 Se7 3.753951 1_555
Cs1 Se6 3.760799 1_545
Cs1 Se3 3.812172 1_545
Cs1 Se1 3.927991 1_555
Cs1 Sb3 3.933001 1_556
Cs1 Se0 3.954964 1_555
Cs1 Se3 4.112612 1_555
Cs2 Se6 3.709162 1_455
Cs2 Se7 3.750736 1_555
Cs2 Se4 3.753951 1_565
Cs2 Se5 3.760799 1_455
Cs2 Se0 3.812172 1_555
Cs2 Se2 3.927991 1_455
Cs2 Sb0 3.933001 1_556
Cs2 Se3 3.954964 1_555
Cs2 Se0 4.112612 1_565
Cs3 Se7 3.709162 1_555
Cs3 Se6 3.750736 1_555
Cs3 Se5 3.753951 1_555
Cs3 Se4 3.760799 1_565
Cs3 Se1 3.812172 1_565
Cs3 Se3 3.927991 1_555
Cs3 Sb2 3.933001 1_554
Cs3 Se2 3.954964 1_555
Cs3 Se1 4.112612 1_555
Sb0 Se2 2.547524 1_455
Sb0 Se4 2.591219 1_565
Sb0 Se7 2.797571 1_555
Sb0 Se0 3.077917 1_564
Sb1 Se0 2.547524 1_655
Sb1 Se6 2.591219 1_545
Sb1 Se5 2.797571 1_555
Sb1 Se2 3.077917 1_546
Sb2 Se3 2.547524 1_555
Sb2 Se5 2.591219 1_555
Sb2 Se6 2.797571 1_555
Sb2 Se1 3.077917 1_556
Sb3 Se1 2.547524 1_555
Sb3 Se7 2.591219 1_555
Sb3 Se4 2.797571 1_555
Sb3 Se3 3.077917 1_554
