# generated using pymatgen
data_YNiSn2
_symmetry_space_group_name_H-M   'P 1'
_cell_length_a   4.44692400
_cell_length_b   14.72319900
_cell_length_c   16.11723400
_cell_angle_alpha   90.00000000
_cell_angle_beta   90.00000000
_cell_angle_gamma   90.00000000
_symmetry_Int_Tables_number   1
_chemical_formula_structural   YNiSn2
_chemical_formula_sum   'Y12 Ni12 Sn24'
_cell_volume   1055.24280731
_cell_formula_units_Z   12
loop_
 _symmetry_equiv_pos_site_id
 _symmetry_equiv_pos_as_xyz
  1  'x, y, z'
loop_
 _atom_site_type_symbol
 _atom_site_label
 _atom_site_symmetry_multiplicity
 _atom_site_fract_x
 _atom_site_fract_y
 _atom_site_fract_z
 _atom_site_occupancy
  Y  Y0  1  0.25000000  0.97412800  0.34918900  1
  Y  Y1  1  0.25000000  0.52587200  0.84918900  1
  Y  Y2  1  0.75000000  0.02587200  0.65081100  1
  Y  Y3  1  0.75000000  0.47412800  0.15081100  1
  Y  Y4  1  0.25000000  0.27140500  0.87395600  1
  Y  Y5  1  0.25000000  0.22859500  0.37395600  1
  Y  Y6  1  0.75000000  0.72859500  0.12604400  1
  Y  Y7  1  0.75000000  0.77140500  0.62604400  1
  Y  Y8  1  0.25000000  0.39362700  0.64496500  1
  Y  Y9  1  0.25000000  0.10637300  0.14496500  1
  Y  Y10  1  0.75000000  0.60637300  0.35503500  1
  Y  Y11  1  0.75000000  0.89362700  0.85503500  1
  Ni  Ni0  1  0.25000000  0.60506500  0.05141100  1
  Ni  Ni1  1  0.25000000  0.89493500  0.55141100  1
  Ni  Ni2  1  0.75000000  0.39493500  0.94858900  1
  Ni  Ni3  1  0.75000000  0.10506500  0.44858900  1
  Ni  Ni4  1  0.25000000  0.74876800  0.30357800  1
  Ni  Ni5  1  0.25000000  0.75123200  0.80357800  1
  Ni  Ni6  1  0.75000000  0.25123200  0.69642200  1
  Ni  Ni7  1  0.75000000  0.24876800  0.19642200  1
  Ni  Ni8  1  0.25000000  0.04511900  0.79871500  1
  Ni  Ni9  1  0.25000000  0.45488100  0.29871500  1
  Ni  Ni10  1  0.75000000  0.95488100  0.20128500  1
  Ni  Ni11  1  0.75000000  0.54511900  0.70128500  1
  Sn  Sn0  1  0.25000000  0.17512300  0.68411400  1
  Sn  Sn1  1  0.25000000  0.32487700  0.18411400  1
  Sn  Sn2  1  0.75000000  0.82487700  0.31588600  1
  Sn  Sn3  1  0.75000000  0.67512300  0.81588600  1
  Sn  Sn4  1  0.25000000  0.04969300  0.95538600  1
  Sn  Sn5  1  0.25000000  0.45030700  0.45538600  1
  Sn  Sn6  1  0.75000000  0.95030700  0.04461400  1
  Sn  Sn7  1  0.75000000  0.54969300  0.54461400  1
  Sn  Sn8  1  0.25000000  0.07811600  0.51968200  1
  Sn  Sn9  1  0.25000000  0.42188400  0.01968200  1
  Sn  Sn10  1  0.75000000  0.92188400  0.48031800  1
  Sn  Sn11  1  0.75000000  0.57811600  0.98031800  1
  Sn  Sn12  1  0.25000000  0.60593200  0.21389400  1
  Sn  Sn13  1  0.25000000  0.89406800  0.71389400  1
  Sn  Sn14  1  0.75000000  0.39406800  0.78610600  1
  Sn  Sn15  1  0.75000000  0.10593200  0.28610600  1
  Sn  Sn16  1  0.25000000  0.73922900  0.46642900  1
  Sn  Sn17  1  0.25000000  0.76077100  0.96642900  1
  Sn  Sn18  1  0.75000000  0.26077100  0.53357100  1
  Sn  Sn19  1  0.75000000  0.23922900  0.03357100  1
  Sn  Sn20  1  0.25000000  0.87203000  0.17380500  1
  Sn  Sn21  1  0.25000000  0.62797000  0.67380500  1
  Sn  Sn22  1  0.75000000  0.12797000  0.82619500  1
  Sn  Sn23  1  0.75000000  0.37203000  0.32619500  1
loop_
_geom_bond_atom_site_label_1
_geom_bond_atom_site_label_2
_geom_bond_distance
_geom_bond_site_symmetry_2
Ni0 Sn11 2.532612 1_454
Ni0 Sn11 2.532612 1_554
Ni0 Sn12 2.618808 1_555
Ni0 Sn17 2.670491 1_554
Ni0 Sn9 2.745064 1_555
Ni0 Y6 3.114253 1_455
Ni0 Y6 3.114253 1_555
Ni0 Y3 3.350644 1_455
Ni0 Y3 3.350644 1_555
Ni0 Y1 3.461541 1_554
Ni1 Sn10 2.532612 1_555
Ni1 Sn10 2.532612 1_455
Ni1 Sn13 2.618808 1_555
Ni1 Sn16 2.670491 1_555
Ni1 Sn8 2.745064 1_565
Ni1 Y7 3.114253 1_455
Ni1 Y7 3.114253 1_555
Ni1 Y2 3.350644 1_565
Ni1 Y2 3.350644 1_465
Ni1 Y0 3.461541 1_555
Ni2 Sn9 2.532612 1_556
Ni2 Sn9 2.532612 1_656
Ni2 Sn14 2.618808 1_555
Ni2 Sn19 2.670491 1_556
Ni2 Sn11 2.745064 1_555
Ni2 Y4 3.114253 1_555
Ni2 Y4 3.114253 1_655
Ni2 Y1 3.350644 1_555
Ni2 Y1 3.350644 1_655
Ni2 Y3 3.461541 1_556
Ni3 Sn8 2.532612 1_655
Ni3 Sn8 2.532612 1_555
Ni3 Sn15 2.618808 1_555
Ni3 Sn18 2.670491 1_555
Ni3 Sn10 2.745064 1_545
Ni3 Y5 3.114253 1_655
Ni3 Y5 3.114253 1_555
Ni3 Y0 3.350644 1_645
Ni3 Y0 3.350644 1_545
Ni3 Y2 3.461541 1_555
Ni4 Sn2 2.497760 1_555
Ni4 Sn2 2.497760 1_455
Ni4 Sn12 2.551856 1_555
Ni4 Sn16 2.628462 1_555
Ni4 Sn20 2.769161 1_555
Ni4 Y10 3.166536 1_555
Ni4 Y10 3.166536 1_455
Ni4 Y0 3.398480 1_555
Ni5 Sn3 2.497760 1_555
Ni5 Sn3 2.497760 1_455
Ni5 Sn13 2.551856 1_555
Ni5 Sn17 2.628462 1_555
Ni5 Sn21 2.769161 1_555
Ni5 Y11 3.166536 1_555
Ni5 Y11 3.166536 1_455
Ni5 Y1 3.398480 1_555
Ni6 Sn0 2.497760 1_555
Ni6 Sn0 2.497760 1_655
Ni6 Sn14 2.551856 1_555
Ni6 Sn18 2.628462 1_555
Ni6 Sn22 2.769161 1_555
Ni6 Y8 3.166536 1_555
Ni6 Y8 3.166536 1_655
Ni6 Y2 3.398480 1_555
Ni7 Sn1 2.497760 1_555
Ni7 Sn1 2.497760 1_655
Ni7 Sn15 2.551856 1_555
Ni7 Sn19 2.628462 1_555
Ni7 Sn23 2.769161 1_555
Ni7 Y9 3.166536 1_655
Ni7 Y9 3.166536 1_555
Ni7 Y3 3.398480 1_555
Ni8 Sn4 2.526001 1_555
Ni8 Sn22 2.574478 1_555
Ni8 Sn22 2.574478 1_455
Ni8 Sn13 2.610532 1_545
Ni8 Sn0 2.659940 1_555
Ni8 Y2 3.272095 1_555
Ni8 Y2 3.272095 1_455
Ni8 Y11 3.277596 1_445
Ni8 Y11 3.277596 1_545
Ni9 Sn5 2.526001 1_555
Ni9 Sn23 2.574478 1_455
Ni9 Sn23 2.574478 1_555
Ni9 Sn12 2.610532 1_555
Ni9 Sn1 2.659940 1_555
Ni9 Y3 3.272095 1_455
Ni9 Y3 3.272095 1_555
Ni9 Y10 3.277596 1_455
Ni9 Y10 3.277596 1_555
Ni10 Sn6 2.526001 1_555
Ni10 Sn20 2.574478 1_555
Ni10 Sn20 2.574478 1_655
Ni10 Sn15 2.610532 1_565
Ni10 Sn2 2.659940 1_555
Ni10 Y0 3.272095 1_555
Ni10 Y0 3.272095 1_655
Ni10 Y9 3.277596 1_665
Ni10 Y9 3.277596 1_565
Ni11 Sn7 2.526001 1_555
Ni11 Sn21 2.574478 1_655
Ni11 Sn21 2.574478 1_555
Ni11 Sn14 2.610532 1_555
Ni11 Sn3 2.659940 1_555
Ni11 Y1 3.272095 1_555
Ni11 Y1 3.272095 1_655
Ni11 Y8 3.277596 1_655
Ni11 Y8 3.277596 1_555
Sn0 Sn8 3.010550 1_555
Sn0 Y2 3.171858 1_455
Sn0 Y2 3.171858 1_555
Sn0 Y8 3.278371 1_555
Sn0 Y4 3.372160 1_555
Sn1 Sn9 3.010550 1_555
Sn1 Y3 3.171858 1_555
Sn1 Y3 3.171858 1_455
Sn1 Y9 3.278371 1_555
Sn1 Y5 3.372160 1_555
Sn2 Y0 3.171858 1_655
Sn2 Y0 3.171858 1_555
Sn2 Y10 3.278371 1_555
Sn2 Y6 3.372160 1_555
Sn3 Y1 3.171858 1_555
Sn3 Y1 3.171858 1_655
Sn3 Y11 3.278371 1_555
Sn3 Y7 3.372160 1_555
Sn4 Y9 3.167400 1_556
Sn4 Y4 3.518264 1_555
Sn4 Y11 3.583231 1_445
Sn4 Y11 3.583231 1_545
Sn5 Y8 3.167400 1_555
Sn5 Y5 3.518264 1_555
Sn5 Y10 3.583231 1_455
Sn5 Y10 3.583231 1_555
Sn6 Y11 3.167400 1_554
Sn6 Y6 3.518264 1_555
Sn6 Y9 3.583231 1_665
Sn6 Y9 3.583231 1_565
Sn7 Y10 3.167400 1_555
Sn7 Y7 3.518264 1_555
Sn7 Y8 3.583231 1_555
Sn7 Y8 3.583231 1_655
Sn8 Y0 3.145615 1_545
Sn8 Y2 3.162604 1_455
Sn8 Y2 3.162604 1_555
Sn8 Y5 3.228773 1_555
Sn9 Y1 3.145615 1_554
Sn9 Y3 3.162604 1_455
Sn9 Y3 3.162604 1_555
Sn9 Y4 3.228773 1_554
Sn10 Sn2 3.010550 1_555
Sn10 Y2 3.145615 1_565
Sn10 Y0 3.162604 1_655
Sn10 Y0 3.162604 1_555
Sn10 Y7 3.228773 1_555
Sn11 Sn3 3.010550 1_555
Sn11 Y3 3.145615 1_556
Sn11 Y1 3.162604 1_655
Sn11 Y1 3.162604 1_555
Sn11 Y6 3.228773 1_556
Sn12 Y3 3.121434 1_455
Sn12 Y3 3.121434 1_555
Sn12 Y10 3.180967 1_455
Sn12 Y10 3.180967 1_555
Sn12 Y6 3.195334 1_455
Sn12 Y6 3.195334 1_555
Sn13 Y2 3.121434 1_465
Sn13 Y2 3.121434 1_565
Sn13 Y11 3.180967 1_455
Sn13 Y11 3.180967 1_555
Sn13 Y7 3.195334 1_555
Sn13 Y7 3.195334 1_455
Sn14 Y1 3.121434 1_555
Sn14 Y1 3.121434 1_655
Sn14 Y8 3.180967 1_655
Sn14 Y8 3.180967 1_555
Sn14 Y4 3.195334 1_555
Sn14 Y4 3.195334 1_655
Sn15 Y0 3.121434 1_645
Sn15 Y0 3.121434 1_545
Sn15 Y9 3.180967 1_555
Sn15 Y9 3.180967 1_655
Sn15 Y5 3.195334 1_655
Sn15 Y5 3.195334 1_555
Sn16 Y7 3.433108 1_555
Sn16 Y7 3.433108 1_455
Sn16 Y10 3.463135 1_555
Sn16 Y10 3.463135 1_455
Sn17 Y6 3.433108 1_456
Sn17 Y6 3.433108 1_556
Sn17 Y11 3.463135 1_555
Sn17 Y11 3.463135 1_455
Sn18 Y5 3.433108 1_655
Sn18 Y5 3.433108 1_555
Sn18 Y8 3.463135 1_655
Sn18 Y8 3.463135 1_555
Sn19 Y4 3.433108 1_654
Sn19 Y4 3.433108 1_554
Sn19 Y9 3.463135 1_555
Sn19 Y9 3.463135 1_655
Sn20 Y6 3.161666 1_555
Sn20 Y6 3.161666 1_455
Sn20 Y0 3.201546 1_555
Sn20 Y9 3.481448 1_565
Sn21 Y7 3.161666 1_555
Sn21 Y7 3.161666 1_455
Sn21 Y1 3.201546 1_555
Sn21 Y8 3.481448 1_555
Sn22 Y4 3.161666 1_655
Sn22 Y4 3.161666 1_555
Sn22 Y2 3.201546 1_555
Sn22 Y11 3.481448 1_545
Sn23 Y5 3.161666 1_655
Sn23 Y5 3.161666 1_555
Sn23 Y3 3.201546 1_555
Sn23 Y10 3.481448 1_555
