# generated using pymatgen
data_Se2Br3N
_symmetry_space_group_name_H-M   'P 1'
_cell_length_a   8.73741600
_cell_length_b   12.76651700
_cell_length_c   14.83716100
_cell_angle_alpha   90.00000000
_cell_angle_beta   90.00000000
_cell_angle_gamma   90.00000000
_symmetry_Int_Tables_number   1
_chemical_formula_structural   Se2Br3N
_chemical_formula_sum   'Se16 Br24 N8'
_cell_volume   1655.03144917
_cell_formula_units_Z   8
loop_
 _symmetry_equiv_pos_site_id
 _symmetry_equiv_pos_as_xyz
  1  'x, y, z'
loop_
 _atom_site_type_symbol
 _atom_site_label
 _atom_site_symmetry_multiplicity
 _atom_site_fract_x
 _atom_site_fract_y
 _atom_site_fract_z
 _atom_site_occupancy
  Se  Se0  1  0.15162600  0.58183400  0.13421900  1
  Se  Se1  1  0.98921000  0.36516800  0.60992600  1
  Se  Se2  1  0.98921000  0.86516800  0.89007400  1
  Se  Se3  1  0.01079000  0.36516800  0.10992600  1
  Se  Se4  1  0.01079000  0.86516800  0.39007400  1
  Se  Se5  1  0.51815100  0.53884800  0.87301100  1
  Se  Se6  1  0.51815100  0.03884800  0.62698900  1
  Se  Se7  1  0.48184900  0.53884800  0.37301100  1
  Se  Se8  1  0.34398600  0.14755400  0.96295500  1
  Se  Se9  1  0.65601400  0.64755400  0.03704500  1
  Se  Se10  1  0.65601400  0.14755400  0.46295500  1
  Se  Se11  1  0.34398600  0.64755400  0.53704500  1
  Se  Se12  1  0.84837400  0.08183400  0.86578100  1
  Se  Se13  1  0.84837400  0.58183400  0.63421900  1
  Se  Se14  1  0.15162600  0.08183400  0.36578100  1
  Se  Se15  1  0.48184900  0.03884800  0.12698900  1
  Br  Br0  1  0.74302800  0.33039100  0.08737300  1
  Br  Br1  1  0.25697200  0.83039100  0.91262700  1
  Br  Br2  1  0.25697200  0.33039100  0.58737300  1
  Br  Br3  1  0.74302800  0.83039100  0.41262700  1
  Br  Br4  1  0.32128000  0.40464500  0.13837100  1
  Br  Br5  1  0.67872000  0.90464500  0.86162900  1
  Br  Br6  1  0.67872000  0.40464500  0.63837100  1
  Br  Br7  1  0.32128000  0.90464500  0.36162900  1
  Br  Br8  1  0.99889500  0.74460100  0.13798200  1
  Br  Br9  1  0.00110500  0.24460100  0.86201800  1
  Br  Br10  1  0.00110500  0.74460100  0.63798200  1
  Br  Br11  1  0.99889500  0.24460100  0.36201800  1
  Br  Br12  1  0.17064000  0.58541100  0.39518500  1
  Br  Br13  1  0.82936000  0.08541100  0.60481500  1
  Br  Br14  1  0.82936000  0.58541100  0.89518500  1
  Br  Br15  1  0.17064000  0.08541100  0.10481500  1
  Br  Br16  1  0.49731300  0.71378100  0.66445200  1
  Br  Br17  1  0.50268700  0.21378100  0.33554800  1
  Br  Br18  1  0.50268700  0.71378100  0.16445200  1
  Br  Br19  1  0.49731300  0.21378100  0.83554800  1
  Br  Br20  1  0.74901600  0.50247000  0.35080500  1
  Br  Br21  1  0.25098400  0.00247000  0.64919500  1
  Br  Br22  1  0.25098400  0.50247000  0.85080500  1
  Br  Br23  1  0.74901600  0.00247000  0.14919500  1
  N  N0  1  0.98751000  0.00259900  0.38294800  1
  N  N1  1  0.01249000  0.50259900  0.61705200  1
  N  N2  1  0.01249000  0.00259900  0.88294800  1
  N  N3  1  0.98751000  0.50259900  0.11705200  1
  N  N4  1  0.49307100  0.09909700  0.52074600  1
  N  N5  1  0.49307100  0.59909700  0.97925400  1
  N  N6  1  0.50692900  0.09909700  0.02074600  1
  N  N7  1  0.50692900  0.59909700  0.47925400  1
loop_
_geom_bond_atom_site_label_1
_geom_bond_atom_site_label_2
_geom_bond_distance
_geom_bond_site_symmetry_2
Br0 Se3 2.404699 1_655
Br1 Se2 2.404699 1_455
Br2 Se1 2.404699 1_455
Br3 Se4 2.404699 1_655
Br4 Se0 2.705209 1_555
Br4 Se3 2.791387 1_555
Br5 Se12 2.705209 1_565
Br5 Se2 2.791387 1_555
Br6 Se13 2.705209 1_555
Br6 Se1 2.791387 1_555
Br7 Se14 2.705209 1_565
Br7 Se4 2.791387 1_555
Br8 Se0 2.470200 1_655
Br9 Se12 2.470200 1_455
Br10 Se13 2.470200 1_455
Br11 Se14 2.470200 1_655
Br12 Se11 2.711750 1_555
Br12 Se7 2.802758 1_555
Br13 Se10 2.711750 1_555
Br13 Se6 2.802758 1_555
Br14 Se9 2.711750 1_556
Br14 Se5 2.802758 1_555
Br15 Se8 2.711750 1_554
Br15 Se15 2.802758 1_555
Br16 Se11 2.466384 1_555
Br17 Se10 2.466384 1_555
Br18 Se9 2.466384 1_555
Br19 Se8 2.466384 1_555
Br20 Se7 2.402795 1_555
Br21 Se6 2.402795 1_555
Br22 Se5 2.402795 1_555
Br23 Se15 2.402795 1_555
N0 Se4 1.769428 1_645
N0 Se14 1.773227 1_655
N1 Se1 1.769428 1_455
N1 Se13 1.773227 1_455
N2 Se2 1.769428 1_445
N2 Se12 1.773227 1_455
N3 Se3 1.769428 1_655
N3 Se0 1.773227 1_655
N4 Se6 1.767627 1_555
N4 Se10 1.773373 1_555
N5 Se5 1.767627 1_555
N5 Se9 1.773373 1_556
N6 Se15 1.767627 1_555
N6 Se8 1.773373 1_554
N7 Se7 1.767627 1_555
N7 Se11 1.773373 1_555
