# generated using pymatgen
data_Pr2MgMn2(GeO5)2
_symmetry_space_group_name_H-M   'P 1'
_cell_length_a   5.78854882
_cell_length_b   6.10471301
_cell_length_c   7.42424788
_cell_angle_alpha   107.60651868
_cell_angle_beta   97.01351904
_cell_angle_gamma   107.69184332
_symmetry_Int_Tables_number   1
_chemical_formula_structural   Pr2MgMn2(GeO5)2
_chemical_formula_sum   'Pr2 Mg1 Mn2 Ge2 O10'
_cell_volume   231.52571069
_cell_formula_units_Z   1
loop_
 _symmetry_equiv_pos_site_id
 _symmetry_equiv_pos_as_xyz
  1  'x, y, z'
loop_
 _atom_site_type_symbol
 _atom_site_label
 _atom_site_symmetry_multiplicity
 _atom_site_fract_x
 _atom_site_fract_y
 _atom_site_fract_z
 _atom_site_occupancy
  Pr  Pr0  1  0.35371100  0.20558500  0.73452000  1
  Pr  Pr1  1  0.64628900  0.79441500  0.26548000  1
  Mg  Mg0  1  0.00000000  0.00000000  0.00000000  1
  Mn  Mn0  1  0.00000000  0.50000000  0.00000000  1
  Mn  Mn1  1  0.00000000  0.50000000  0.50000000  1
  Ge  Ge0  1  0.64301600  0.80227100  0.72569800  1
  Ge  Ge1  1  0.35698400  0.19772900  0.27430200  1
  O  O0  1  0.87484400  0.56385200  0.25281000  1
  O  O1  1  0.29762400  0.89448700  0.10432300  1
  O  O2  1  0.04055800  0.13428400  0.31333700  1
  O  O3  1  0.70237600  0.10551300  0.89567700  1
  O  O4  1  0.58327900  0.27178500  0.48304200  1
  O  O5  1  0.31245600  0.34282700  0.09592200  1
  O  O6  1  0.68754400  0.65717300  0.90407800  1
  O  O7  1  0.95944200  0.86571600  0.68666300  1
  O  O8  1  0.12515600  0.43614800  0.74719000  1
  O  O9  1  0.41672100  0.72821500  0.51695800  1
loop_
_geom_bond_atom_site_label_1
_geom_bond_atom_site_label_2
_geom_bond_distance
_geom_bond_site_symmetry_2
Mg0 O3 2.152506 1_454
Mg0 O1 2.152506 1_545
Mg0 O5 2.154443 1_555
Mg0 O6 2.154443 1_444
Mg0 O7 2.175950 1_444
Mg0 O2 2.175950 1_555
Mn0 O8 2.064159 1_554
Mn0 O0 2.064159 1_455
Mn0 O1 2.321982 1_555
Mn0 O3 2.321982 1_454
Mn0 O5 2.419227 1_555
Mn0 O6 2.419227 1_454
Mn1 O8 2.079537 1_555
Mn1 O0 2.079537 1_455
Mn1 O7 2.342308 1_455
Mn1 O2 2.342308 1_555
Mn1 O4 2.356419 1_455
Mn1 O9 2.356419 1_555
Ge0 O9 1.744256 1_555
Ge0 O3 1.797723 1_565
Ge0 O7 1.831743 1_555
Ge0 O6 1.835751 1_555
Ge1 O4 1.744256 1_555
Ge1 O1 1.797723 1_545
Ge1 O2 1.831743 1_555
Ge1 O5 1.835751 1_555
O0 Pr1 2.195996 1_555
O1 Pr1 2.545588 1_555
O2 Pr1 2.473392 1_445
O3 Pr0 2.545588 1_555
O4 Pr0 2.480113 1_555
O5 Pr0 2.622279 1_554
O5 Pr1 2.643391 1_555
O6 Pr1 2.622279 1_556
O6 Pr0 2.643391 1_555
O7 Pr0 2.473392 1_665
O8 Pr0 2.195996 1_555
O9 Pr1 2.480113 1_555
