# generated using pymatgen
data_MgTiVO4
_symmetry_space_group_name_H-M   'P 1'
_cell_length_a   2.94977097
_cell_length_b   5.39653559
_cell_length_c   5.39653559
_cell_angle_alpha   104.31203053
_cell_angle_beta   90.00000000
_cell_angle_gamma   90.00000000
_symmetry_Int_Tables_number   1
_chemical_formula_structural   MgTiVO4
_chemical_formula_sum   'Mg1 Ti1 V1 O4'
_cell_volume   83.23882902
_cell_formula_units_Z   1
loop_
 _symmetry_equiv_pos_site_id
 _symmetry_equiv_pos_as_xyz
  1  'x, y, z'
loop_
 _atom_site_type_symbol
 _atom_site_label
 _atom_site_symmetry_multiplicity
 _atom_site_fract_x
 _atom_site_fract_y
 _atom_site_fract_z
 _atom_site_occupancy
  Mg  Mg0  1  0.00000000  0.70155128  0.29844872  1
  Ti  Ti0  1  0.50000000  0.41301602  0.58698398  1
  V  V0  1  0.00000000  0.02442759  0.97557241  1
  O  O0  1  0.00000000  0.32413476  0.31698218  1
  O  O1  1  0.50000000  0.84536401  0.15463599  1
  O  O2  1  0.50000000  0.20293252  0.79706748  1
  O  O3  1  0.00000000  0.68301782  0.67586524  1
loop_
_geom_bond_atom_site_label_1
_geom_bond_atom_site_label_2
_geom_bond_distance
_geom_bond_site_symmetry_2
Mg0 O1 1.917735 1_555
Mg0 O1 1.917735 1_455
Mg0 O0 2.063743 1_555
Mg0 O3 2.063743 1_555
O0 Ti0 2.045210 1_555
O0 Ti0 2.045210 1_455
O0 V0 2.130067 1_554
O1 V0 2.122384 1_564
O1 V0 2.122384 1_664
O2 Ti0 1.790567 1_555
O2 V0 2.118962 1_555
O2 V0 2.118962 1_655
O3 Ti0 2.045210 1_555
O3 Ti0 2.045210 1_455
O3 V0 2.130067 1_565
