# generated using pymatgen
data_La3Br6N
_symmetry_space_group_name_H-M   'P 1'
_cell_length_a   11.27459757
_cell_length_b   11.95130831
_cell_length_c   17.27433091
_cell_angle_alpha   90.00000000
_cell_angle_beta   90.00000000
_cell_angle_gamma   90.00000000
_symmetry_Int_Tables_number   1
_chemical_formula_structural   La3Br6N
_chemical_formula_sum   'La24 Br48 N8'
_cell_volume   2327.65030308
_cell_formula_units_Z   8
loop_
 _symmetry_equiv_pos_site_id
 _symmetry_equiv_pos_as_xyz
  1  'x, y, z'
loop_
 _atom_site_type_symbol
 _atom_site_label
 _atom_site_symmetry_multiplicity
 _atom_site_fract_x
 _atom_site_fract_y
 _atom_site_fract_z
 _atom_site_occupancy
  La  La0  1  0.13681030  0.02011463  0.44155180  1
  La  La1  1  0.63681030  0.47988537  0.55844820  1
  La  La2  1  0.86318970  0.52011463  0.05844820  1
  La  La3  1  0.36318970  0.97988537  0.94155180  1
  La  La4  1  0.86318970  0.97988537  0.55844820  1
  La  La5  1  0.36318970  0.52011463  0.44155180  1
  La  La6  1  0.13681030  0.47988537  0.94155180  1
  La  La7  1  0.63681030  0.02011463  0.05844820  1
  La  La8  1  0.34804785  0.96154222  0.17301547  1
  La  La9  1  0.84804785  0.53845778  0.82698453  1
  La  La10  1  0.65195215  0.46154222  0.32698453  1
  La  La11  1  0.15195215  0.03845778  0.67301547  1
  La  La12  1  0.65195215  0.03845778  0.82698453  1
  La  La13  1  0.15195215  0.46154222  0.17301547  1
  La  La14  1  0.34804785  0.53845778  0.67301547  1
  La  La15  1  0.84804785  0.96154222  0.32698453  1
  La  La16  1  0.00993366  0.22055630  0.05025145  1
  La  La17  1  0.50993366  0.27944370  0.94974855  1
  La  La18  1  0.99006634  0.72055630  0.44974855  1
  La  La19  1  0.49006634  0.77944370  0.55025145  1
  La  La20  1  0.99006634  0.77944370  0.94974855  1
  La  La21  1  0.49006634  0.72055630  0.05025145  1
  La  La22  1  0.00993366  0.27944370  0.55025145  1
  La  La23  1  0.50993366  0.22055630  0.44974855  1
  Br  Br0  1  0.25662271  0.78430205  0.45377951  1
  Br  Br1  1  0.75662271  0.71569795  0.54622049  1
  Br  Br2  1  0.74337729  0.28430205  0.04622049  1
  Br  Br3  1  0.24337729  0.21569795  0.95377951  1
  Br  Br4  1  0.74337729  0.21569795  0.54622049  1
  Br  Br5  1  0.24337729  0.28430205  0.45377951  1
  Br  Br6  1  0.25662271  0.71569795  0.95377951  1
  Br  Br7  1  0.75662271  0.78430205  0.04622049  1
  Br  Br8  1  0.36868525  0.06424507  0.33833621  1
  Br  Br9  1  0.86868525  0.43575493  0.66166379  1
  Br  Br10  1  0.63131475  0.56424507  0.16166379  1
  Br  Br11  1  0.13131475  0.93575493  0.83833621  1
  Br  Br12  1  0.63131475  0.93575493  0.66166379  1
  Br  Br13  1  0.13131475  0.56424507  0.33833621  1
  Br  Br14  1  0.36868525  0.43575493  0.83833621  1
  Br  Br15  1  0.86868525  0.06424507  0.16166379  1
  Br  Br16  1  0.10527041  0.91606852  0.27454269  1
  Br  Br17  1  0.60527041  0.58393148  0.72545731  1
  Br  Br18  1  0.89472959  0.41606852  0.22545731  1
  Br  Br19  1  0.39472959  0.08393148  0.77454269  1
  Br  Br20  1  0.89472959  0.08393148  0.72545731  1
  Br  Br21  1  0.39472959  0.41606852  0.27454269  1
  Br  Br22  1  0.10527041  0.58393148  0.77454269  1
  Br  Br23  1  0.60527041  0.91606852  0.22545731  1
  Br  Br24  1  0.64209455  0.96921541  0.44509009  1
  Br  Br25  1  0.14209455  0.53078459  0.55490991  1
  Br  Br26  1  0.35790545  0.46921541  0.05490991  1
  Br  Br27  1  0.85790545  0.03078459  0.94509009  1
  Br  Br28  1  0.35790545  0.03078459  0.55490991  1
  Br  Br29  1  0.85790545  0.46921541  0.44509009  1
  Br  Br30  1  0.64209455  0.53078459  0.94509009  1
  Br  Br31  1  0.14209455  0.96921541  0.05490991  1
  Br  Br32  1  0.16418832  0.21441821  0.18986308  1
  Br  Br33  1  0.66418832  0.28558179  0.81013692  1
  Br  Br34  1  0.83581168  0.71441821  0.31013692  1
  Br  Br35  1  0.33581168  0.78558179  0.68986308  1
  Br  Br36  1  0.83581168  0.78558179  0.81013692  1
  Br  Br37  1  0.33581168  0.71441821  0.18986308  1
  Br  Br38  1  0.16418832  0.28558179  0.68986308  1
  Br  Br39  1  0.66418832  0.21441821  0.31013692  1
  Br  Br40  1  0.53440092  0.68563590  0.37627427  1
  Br  Br41  1  0.03440092  0.81436410  0.62372573  1
  Br  Br42  1  0.46559908  0.18563590  0.12372573  1
  Br  Br43  1  0.96559908  0.31436410  0.87627427  1
  Br  Br44  1  0.46559908  0.31436410  0.62372573  1
  Br  Br45  1  0.96559908  0.18563590  0.37627427  1
  Br  Br46  1  0.53440092  0.81436410  0.87627427  1
  Br  Br47  1  0.03440092  0.68563590  0.12372573  1
  N  N0  1  0.54766983  0.09152027  0.94015399  1
  N  N1  1  0.04766983  0.40847973  0.05984601  1
  N  N2  1  0.45233017  0.59152027  0.55984601  1
  N  N3  1  0.95233017  0.90847973  0.44015399  1
  N  N4  1  0.45233017  0.90847973  0.05984601  1
  N  N5  1  0.95233017  0.59152027  0.94015399  1
  N  N6  1  0.54766983  0.40847973  0.44015399  1
  N  N7  1  0.04766983  0.09152027  0.55984601  1
loop_
_geom_bond_atom_site_label_1
_geom_bond_atom_site_label_2
_geom_bond_distance
_geom_bond_site_symmetry_2
La0 N7 2.431882 1_555
La0 N3 2.471189 1_445
La1 N6 2.431882 1_555
La1 N2 2.471189 1_555
La2 N5 2.431882 1_554
La2 N1 2.471189 1_655
La3 N4 2.431882 1_556
La3 N0 2.471189 1_565
La4 N3 2.431882 1_555
La4 N7 2.471189 1_665
La5 N2 2.431882 1_555
La5 N6 2.471189 1_555
La6 N1 2.431882 1_556
La6 N5 2.471189 1_455
La7 N0 2.431882 1_554
La7 N4 2.471189 1_545
La8 N4 2.367757 1_555
La9 N5 2.367757 1_555
La10 N6 2.367757 1_555
La11 N7 2.367757 1_555
La12 N0 2.367757 1_555
La13 N1 2.367757 1_555
La14 N2 2.367757 1_555
La15 N3 2.367757 1_555
La16 N1 2.291875 1_555
La17 N0 2.291875 1_555
La18 N3 2.291875 1_555
La19 N2 2.291875 1_555
La20 N5 2.291875 1_555
La21 N4 2.291875 1_555
La22 N7 2.291875 1_555
La23 N6 2.291875 1_555
Br0 La18 3.101158 1_455
Br0 La19 3.115749 1_555
Br0 La0 3.132414 1_565
Br0 La5 3.384863 1_555
Br1 La19 3.101158 1_555
Br1 La18 3.115749 1_555
Br1 La1 3.132414 1_555
Br1 La4 3.384863 1_555
Br2 La16 3.101158 1_655
Br2 La17 3.115749 1_554
Br2 La2 3.132414 1_555
Br2 La7 3.384863 1_555
Br3 La17 3.101158 1_555
Br3 La16 3.115749 1_556
Br3 La3 3.132414 1_545
Br3 La6 3.384863 1_555
Br4 La22 3.101158 1_655
Br4 La23 3.115749 1_555
Br4 La4 3.132414 1_545
Br4 La1 3.384863 1_555
Br5 La23 3.101158 1_555
Br5 La22 3.115749 1_555
Br5 La5 3.132414 1_555
Br5 La0 3.384863 1_555
Br6 La20 3.101158 1_455
Br6 La21 3.115749 1_556
Br6 La6 3.132414 1_555
Br6 La3 3.384863 1_555
Br7 La21 3.101158 1_555
Br7 La20 3.115749 1_554
Br7 La7 3.132414 1_565
Br7 La2 3.384863 1_555
Br8 La8 3.117107 1_545
Br8 La23 3.119293 1_555
Br8 La0 3.208073 1_555
Br9 La9 3.117107 1_555
Br9 La22 3.119293 1_655
Br9 La1 3.208073 1_555
Br10 La10 3.117107 1_555
Br10 La21 3.119293 1_555
Br10 La2 3.208073 1_555
Br11 La11 3.117107 1_565
Br11 La20 3.119293 1_455
Br11 La3 3.208073 1_555
Br12 La12 3.117107 1_565
Br12 La19 3.119293 1_555
Br12 La4 3.208073 1_555
Br13 La13 3.117107 1_555
Br13 La18 3.119293 1_455
Br13 La5 3.208073 1_555
Br14 La14 3.117107 1_555
Br14 La17 3.119293 1_555
Br14 La6 3.208073 1_555
Br15 La15 3.117107 1_545
Br15 La16 3.119293 1_655
Br15 La7 3.208073 1_555
Br16 La15 3.086500 1_455
Br16 La0 3.161608 1_565
Br16 La8 3.295996 1_555
Br17 La14 3.086500 1_555
Br17 La1 3.161608 1_555
Br17 La9 3.295996 1_555
Br18 La13 3.086500 1_655
Br18 La2 3.161608 1_555
Br18 La10 3.295996 1_555
Br19 La12 3.086500 1_555
Br19 La3 3.161608 1_545
Br19 La11 3.295996 1_555
Br20 La11 3.086500 1_655
Br20 La4 3.161608 1_545
Br20 La12 3.295996 1_555
Br21 La10 3.086500 1_555
Br21 La5 3.161608 1_555
Br21 La13 3.295996 1_555
Br22 La9 3.086500 1_455
Br22 La6 3.161608 1_555
Br22 La14 3.295996 1_555
Br23 La8 3.086500 1_555
Br23 La7 3.161608 1_565
Br23 La15 3.295996 1_555
Br24 La15 3.092358 1_555
Br24 La4 3.172475 1_555
Br24 La23 3.354085 1_565
Br24 La19 3.373709 1_555
Br25 La14 3.092358 1_555
Br25 La5 3.172475 1_555
Br25 La22 3.354085 1_555
Br25 La18 3.373709 1_455
Br26 La13 3.092358 1_555
Br26 La6 3.172475 1_554
Br26 La21 3.354085 1_555
Br26 La17 3.373709 1_554
Br27 La12 3.092358 1_555
Br27 La7 3.172475 1_556
Br27 La20 3.354085 1_545
Br27 La16 3.373709 1_656
Br28 La11 3.092358 1_555
Br28 La0 3.172475 1_555
Br28 La19 3.354085 1_545
Br28 La23 3.373709 1_555
Br29 La10 3.092358 1_555
Br29 La1 3.172475 1_555
Br29 La18 3.354085 1_555
Br29 La22 3.373709 1_655
Br30 La9 3.092358 1_555
Br30 La2 3.172475 1_556
Br30 La17 3.354085 1_555
Br30 La21 3.373709 1_556
Br31 La8 3.092358 1_555
Br31 La3 3.172475 1_554
Br31 La16 3.354085 1_565
Br31 La20 3.373709 1_454
Br32 La13 2.970964 1_555
Br32 La16 2.974280 1_555
Br32 La8 3.676340 1_545
Br33 La12 2.970964 1_555
Br33 La17 2.974280 1_555
Br33 La9 3.676340 1_555
Br34 La15 2.970964 1_555
Br34 La18 2.974280 1_555
Br34 La10 3.676340 1_555
Br35 La14 2.970964 1_555
Br35 La19 2.974280 1_555
Br35 La11 3.676340 1_565
Br36 La9 2.970964 1_555
Br36 La20 2.974280 1_555
Br36 La12 3.676340 1_565
Br37 La8 2.970964 1_555
Br37 La21 2.974280 1_555
Br37 La13 3.676340 1_555
Br38 La11 2.970964 1_555
Br38 La22 2.974280 1_555
Br38 La14 3.676340 1_555
Br39 La10 2.970964 1_555
Br39 La23 2.974280 1_555
Br39 La15 3.676340 1_545
Br40 La5 2.985130 1_555
Br40 La10 3.107140 1_555
Br40 La19 3.246358 1_555
Br41 La4 2.985130 1_455
Br41 La11 3.107140 1_565
Br41 La18 3.246358 1_455
Br42 La7 2.985130 1_555
Br42 La8 3.107140 1_545
Br42 La17 3.246358 1_554
Br43 La6 2.985130 1_655
Br43 La9 3.107140 1_555
Br43 La16 3.246358 1_656
Br44 La1 2.985130 1_555
Br44 La14 3.107140 1_555
Br44 La23 3.246358 1_555
Br45 La0 2.985130 1_655
Br45 La15 3.107140 1_545
Br45 La22 3.246358 1_655
Br46 La3 2.985130 1_555
Br46 La12 3.107140 1_565
Br46 La21 3.246358 1_556
Br47 La2 2.985130 1_455
Br47 La13 3.107140 1_555
Br47 La20 3.246358 1_454
