# generated using pymatgen
data_GaCuCl4
_symmetry_space_group_name_H-M   'P 1'
_cell_length_a   5.41123001
_cell_length_b   5.41123001
_cell_length_c   10.15411543
_cell_angle_alpha   90.00000000
_cell_angle_beta   90.00000000
_cell_angle_gamma   90.00000000
_symmetry_Int_Tables_number   1
_chemical_formula_structural   GaCuCl4
_chemical_formula_sum   'Ga2 Cu2 Cl8'
_cell_volume   297.32681934
_cell_formula_units_Z   2
loop_
 _symmetry_equiv_pos_site_id
 _symmetry_equiv_pos_as_xyz
  1  'x, y, z'
loop_
 _atom_site_type_symbol
 _atom_site_label
 _atom_site_symmetry_multiplicity
 _atom_site_fract_x
 _atom_site_fract_y
 _atom_site_fract_z
 _atom_site_occupancy
  Ga  Ga0  1  -0.00000000  0.50000000  0.75000000  1
  Ga  Ga1  1  0.50000000  -0.00000000  0.25000000  1
  Cu  Cu0  1  -0.00000000  -0.00000000  0.50000000  1
  Cu  Cu1  1  -0.00000000  -0.00000000  -0.00000000  1
  Cl  Cl0  1  0.76253192  0.73364305  0.62623738  1
  Cl  Cl1  1  0.73364305  0.23746808  0.37376262  1
  Cl  Cl2  1  0.26635695  0.76253192  0.37376262  1
  Cl  Cl3  1  0.76253192  0.26635695  0.87376262  1
  Cl  Cl4  1  0.23746808  0.73364305  0.87376262  1
  Cl  Cl5  1  0.23746808  0.26635695  0.62623738  1
  Cl  Cl6  1  0.26635695  0.23746808  0.12623738  1
  Cl  Cl7  1  0.73364305  0.76253192  0.12623738  1
loop_
_geom_bond_atom_site_label_1
_geom_bond_atom_site_label_2
_geom_bond_distance
_geom_bond_site_symmetry_2
Cl0 Ga0 2.197487 1_655
Cl0 Cu0 2.317692 1_665
Cl1 Ga1 2.197487 1_555
Cl1 Cu0 2.317692 1_655
Cl2 Ga1 2.197487 1_565
Cl2 Cu0 2.317692 1_565
Cl3 Ga0 2.197487 1_655
Cl3 Cu1 2.317692 1_656
Cl4 Ga0 2.197487 1_555
Cl4 Cu1 2.317692 1_566
Cl5 Ga0 2.197487 1_555
Cl5 Cu0 2.317692 1_555
Cl6 Ga1 2.197487 1_555
Cl6 Cu1 2.317692 1_555
Cl7 Ga1 2.197487 1_565
Cl7 Cu1 2.317692 1_665
