# generated using pymatgen
data_Na3MgBiO4
_symmetry_space_group_name_H-M   'P 1'
_cell_length_a   6.71290046
_cell_length_b   3.34788059
_cell_length_c   6.71292664
_cell_angle_alpha   89.99996946
_cell_angle_beta   58.45586514
_cell_angle_gamma   89.99999648
_symmetry_Int_Tables_number   1
_chemical_formula_structural   Na3MgBiO4
_chemical_formula_sum   'Na3 Mg1 Bi1 O4'
_cell_volume   128.57385713
_cell_formula_units_Z   1
loop_
 _symmetry_equiv_pos_site_id
 _symmetry_equiv_pos_as_xyz
  1  'x, y, z'
loop_
 _atom_site_type_symbol
 _atom_site_label
 _atom_site_symmetry_multiplicity
 _atom_site_fract_x
 _atom_site_fract_y
 _atom_site_fract_z
 _atom_site_occupancy
  Na  Na0  1  0.53636770  0.00000000  0.54357669  1
  Na  Na1  1  0.93022614  0.50000000  0.43024930  1
  Na  Na2  1  0.04362339  1.00000000  0.03635445  1
  Mg  Mg0  1  0.11265373  1.00000000  0.61266231  1
  Bi  Bi0  1  0.55360312  0.50000000  0.05360156  1
  O  O0  1  0.76367503  0.00000000  0.74267803  1
  O  O1  1  0.20517153  0.50000000  0.70517474  1
  O  O2  1  0.24267255  0.00000000  0.26368561  1
  O  O3  1  0.73700680  0.50000000  0.23701732  1
loop_
_geom_bond_atom_site_label_1
_geom_bond_atom_site_label_2
_geom_bond_distance
_geom_bond_site_symmetry_2
Na0 O3 2.439473 1_555
Na0 O3 2.439475 1_545
Na0 O0 2.499720 1_555
Na0 O1 2.529497 1_545
Na0 O1 2.529498 1_555
Na1 O3 2.263930 1_555
Na1 O0 2.448945 1_555
Na1 O0 2.448946 1_565
Na1 O2 2.449014 1_665
Na1 O2 2.449015 1_655
Na2 O3 2.439700 1_455
Na2 O3 2.439701 1_465
Na2 O2 2.499564 1_565
Na2 O1 2.529441 1_564
Na2 O1 2.529442 1_554
Mg0 O1 1.994249 1_555
Mg0 O1 1.994250 1_565
Mg0 O2 2.027425 1_565
Mg0 O0 2.027432 1_465
Bi0 O3 2.148921 1_555
Bi0 O0 2.463225 1_564
Bi0 O0 2.463226 1_554
Bi0 O2 2.463258 1_555
Bi0 O2 2.463258 1_565
