# generated using pymatgen
data_MnCu2SnSe4
_symmetry_space_group_name_H-M   'P 1'
_cell_length_a   7.05358510
_cell_length_b   7.05358510
_cell_length_c   7.05358510
_cell_angle_alpha   131.49448312
_cell_angle_beta   131.49448312
_cell_angle_gamma   71.02861727
_symmetry_Int_Tables_number   1
_chemical_formula_structural   MnCu2SnSe4
_chemical_formula_sum   'Mn1 Cu2 Sn1 Se4'
_cell_volume   192.78821179
_cell_formula_units_Z   1
loop_
 _symmetry_equiv_pos_site_id
 _symmetry_equiv_pos_as_xyz
  1  'x, y, z'
loop_
 _atom_site_type_symbol
 _atom_site_label
 _atom_site_symmetry_multiplicity
 _atom_site_fract_x
 _atom_site_fract_y
 _atom_site_fract_z
 _atom_site_occupancy
  Mn  Mn0  1  0.00000000  0.00000000  0.00000000  1
  Cu  Cu0  1  0.25000000  0.75000000  0.50000000  1
  Cu  Cu1  1  0.75000000  0.25000000  0.50000000  1
  Sn  Sn0  1  0.50000000  0.50000000  0.00000000  1
  Se  Se0  1  0.37786800  0.89413100  0.00000000  1
  Se  Se1  1  0.62213200  0.62213200  0.51626300  1
  Se  Se2  1  0.10586900  0.10586900  0.48373700  1
  Se  Se3  1  0.89413100  0.37786800  0.00000000  1
loop_
_geom_bond_atom_site_label_1
_geom_bond_atom_site_label_2
_geom_bond_distance
_geom_bond_site_symmetry_2
Mn0 Se0 2.523389 1_545
Mn0 Se2 2.523389 1_555
Mn0 Se1 2.523389 1_444
Mn0 Se3 2.523389 1_455
Cu0 Se0 2.432152 1_556
Cu0 Se2 2.432152 1_565
Cu0 Se1 2.432152 1_555
Cu0 Se3 2.432152 1_455
Cu1 Se3 2.432152 1_556
Cu1 Se1 2.432152 1_555
Cu1 Se2 2.432152 1_655
Cu1 Se0 2.432152 1_545
Se0 Sn0 2.629368 1_555
Se1 Sn0 2.629368 1_555
Se2 Sn0 2.629368 1_556
Se3 Sn0 2.629368 1_555
