# generated using pymatgen
data_Er2Se3
_symmetry_space_group_name_H-M   'P 1'
_cell_length_a   6.99183355
_cell_length_b   6.99183312
_cell_length_c   12.77141255
_cell_angle_alpha   100.63508493
_cell_angle_beta   100.63508398
_cell_angle_gamma   109.01302861
_symmetry_Int_Tables_number   1
_chemical_formula_structural   Er2Se3
_chemical_formula_sum   'Er8 Se12'
_cell_volume   559.66533961
_cell_formula_units_Z   4
loop_
 _symmetry_equiv_pos_site_id
 _symmetry_equiv_pos_as_xyz
  1  'x, y, z'
loop_
 _atom_site_type_symbol
 _atom_site_label
 _atom_site_symmetry_multiplicity
 _atom_site_fract_x
 _atom_site_fract_y
 _atom_site_fract_z
 _atom_site_occupancy
  Er  Er0  1  0.12762126  0.37762126  0.75524052  1
  Er  Er1  1  0.62237874  0.87237874  0.74475948  1
  Er  Er2  1  0.87237874  0.62237874  0.24475948  1
  Er  Er3  1  0.37762126  0.12762126  0.25524052  1
  Er  Er4  1  0.79104049  0.04104049  0.08207998  1
  Er  Er5  1  0.95895951  0.20895951  0.41792002  1
  Er  Er6  1  0.20895951  0.95895951  0.91792002  1
  Er  Er7  1  0.04104049  0.79104049  0.58207998  1
  Se  Se0  1  0.53918268  0.28342760  0.08813326  1
  Se  Se1  1  0.19529433  0.95105141  0.41186674  1
  Se  Se2  1  0.71657240  0.46081732  0.41186674  1
  Se  Se3  1  0.04894859  0.80470567  0.08813326  1
  Se  Se4  1  0.46081732  0.71657240  0.91186674  1
  Se  Se5  1  0.80470567  0.04894859  0.58813326  1
  Se  Se6  1  0.28342760  0.53918268  0.58813326  1
  Se  Se7  1  0.95105141  0.19529433  0.91186674  1
  Se  Se8  1  0.88301503  0.63301503  0.75000000  1
  Se  Se9  1  0.36698497  0.11698497  0.75000000  1
  Se  Se10  1  0.11698497  0.36698497  0.25000000  1
  Se  Se11  1  0.63301503  0.88301503  0.25000000  1
loop_
_geom_bond_atom_site_label_1
_geom_bond_atom_site_label_2
_geom_bond_distance
_geom_bond_site_symmetry_2
Er0 Se6 2.822010 1_555
Er0 Se5 2.822027 1_455
Er0 Se4 2.824509 1_555
Er0 Se7 2.824515 1_455
Er0 Se8 2.847762 1_455
Er0 Se9 2.847762 1_555
Er1 Se4 2.822010 1_555
Er1 Se7 2.822027 1_565
Er1 Se6 2.824509 1_555
Er1 Se5 2.824515 1_565
Er1 Se9 2.847762 1_565
Er1 Se8 2.847762 1_555
Er2 Se2 2.822010 1_555
Er2 Se1 2.822027 1_655
Er2 Se0 2.824509 1_555
Er2 Se3 2.824515 1_655
Er2 Se10 2.847762 1_655
Er2 Se11 2.847762 1_555
Er3 Se0 2.822010 1_555
Er3 Se3 2.822027 1_545
Er3 Se2 2.824509 1_555
Er3 Se1 2.824515 1_545
Er3 Se11 2.847762 1_545
Er3 Se10 2.847762 1_555
Er4 Se3 2.815198 1_645
Er4 Se0 2.815209 1_555
Er4 Se10 2.827458 1_655
Er4 Se11 2.827463 1_545
Er4 Se7 2.849108 1_554
Er4 Se4 2.849108 1_544
Er5 Se1 2.815198 1_645
Er5 Se2 2.815209 1_555
Er5 Se11 2.827458 1_545
Er5 Se10 2.827463 1_655
Er5 Se5 2.849108 1_555
Er5 Se6 2.849108 1_655
Er6 Se7 2.815198 1_465
Er6 Se4 2.815209 1_555
Er6 Se8 2.827458 1_455
Er6 Se9 2.827463 1_565
Er6 Se3 2.849108 1_556
Er6 Se0 2.849108 1_566
Er7 Se5 2.815198 1_465
Er7 Se6 2.815209 1_555
Er7 Se9 2.827458 1_565
Er7 Se8 2.827463 1_455
Er7 Se1 2.849108 1_555
Er7 Se2 2.849108 1_455
