# generated using pymatgen
data_Tl4HgI6
_symmetry_space_group_name_H-M   'P 1'
_cell_length_a   9.61601100
_cell_length_b   9.61601100
_cell_length_c   9.51306200
_cell_angle_alpha   90.00000000
_cell_angle_beta   90.00000000
_cell_angle_gamma   90.00000000
_symmetry_Int_Tables_number   1
_chemical_formula_structural   Tl4HgI6
_chemical_formula_sum   'Tl8 Hg2 I12'
_cell_volume   879.65065442
_cell_formula_units_Z   2
loop_
 _symmetry_equiv_pos_site_id
 _symmetry_equiv_pos_as_xyz
  1  'x, y, z'
loop_
 _atom_site_type_symbol
 _atom_site_label
 _atom_site_symmetry_multiplicity
 _atom_site_fract_x
 _atom_site_fract_y
 _atom_site_fract_z
 _atom_site_occupancy
  Tl  Tl0  1  0.84958000  0.34958000  0.75000000  1
  Tl  Tl1  1  0.34958000  0.15042000  0.75000000  1
  Tl  Tl2  1  0.65042000  0.84958000  0.75000000  1
  Tl  Tl3  1  0.15042000  0.65042000  0.75000000  1
  Tl  Tl4  1  0.15042000  0.65042000  0.25000000  1
  Tl  Tl5  1  0.65042000  0.84958000  0.25000000  1
  Tl  Tl6  1  0.34958000  0.15042000  0.25000000  1
  Tl  Tl7  1  0.84958000  0.34958000  0.25000000  1
  Hg  Hg0  1  0.50000000  0.50000000  0.50000000  1
  Hg  Hg1  1  0.00000000  0.00000000  0.00000000  1
  I  I0  1  0.17559500  0.35947000  0.50000000  1
  I  I1  1  0.82440500  0.64053000  0.50000000  1
  I  I2  1  0.64053000  0.17559500  0.50000000  1
  I  I3  1  0.35947000  0.82440500  0.50000000  1
  I  I4  1  0.85947000  0.67559500  0.00000000  1
  I  I5  1  0.67559500  0.14053000  0.00000000  1
  I  I6  1  0.32440500  0.85947000  0.00000000  1
  I  I7  1  0.14053000  0.32440500  0.00000000  1
  I  I8  1  0.50000000  0.50000000  0.78862800  1
  I  I9  1  0.00000000  0.00000000  0.71137200  1
  I  I10  1  0.00000000  0.00000000  0.28862800  1
  I  I11  1  0.50000000  0.50000000  0.21137200  1
loop_
_geom_bond_atom_site_label_1
_geom_bond_atom_site_label_2
_geom_bond_distance
_geom_bond_site_symmetry_2
Hg0 I8 2.745736 1_555
Hg0 I11 2.745736 1_555
Hg0 I3 3.399600 1_555
Hg0 I1 3.399600 1_555
Hg0 I2 3.399600 1_555
Hg0 I0 3.399600 1_555
Hg1 I10 2.745736 1_555
Hg1 I9 2.745736 1_554
Hg1 I6 3.399600 1_545
Hg1 I4 3.399600 1_445
Hg1 I7 3.399600 1_555
Hg1 I5 3.399600 1_455
I0 Tl1 3.535000 1_555
I0 Tl6 3.535000 1_555
I1 Tl5 3.535000 1_555
I1 Tl2 3.535000 1_555
I2 Tl7 3.535000 1_555
I2 Tl0 3.535000 1_555
I3 Tl3 3.535000 1_555
I3 Tl4 3.535000 1_555
I4 Tl2 3.535000 1_554
I4 Tl5 3.535000 1_555
I5 Tl0 3.535000 1_554
I5 Tl7 3.535000 1_555
I6 Tl3 3.535000 1_554
I6 Tl4 3.535000 1_555
I7 Tl1 3.535000 1_554
I7 Tl6 3.535000 1_555
