# generated using pymatgen
data_TmAgSn
_symmetry_space_group_name_H-M   'P 1'
_cell_length_a   7.30444176
_cell_length_b   7.30445019
_cell_length_c   4.44399196
_cell_angle_alpha   90.00000000
_cell_angle_beta   90.00000000
_cell_angle_gamma   119.99996654
_symmetry_Int_Tables_number   1
_chemical_formula_structural   TmAgSn
_chemical_formula_sum   'Tm3 Ag3 Sn3'
_cell_volume   205.34238649
_cell_formula_units_Z   3
loop_
 _symmetry_equiv_pos_site_id
 _symmetry_equiv_pos_as_xyz
  1  'x, y, z'
loop_
 _atom_site_type_symbol
 _atom_site_label
 _atom_site_symmetry_multiplicity
 _atom_site_fract_x
 _atom_site_fract_y
 _atom_site_fract_z
 _atom_site_occupancy
  Tm  Tm0  1  0.00000000  0.43027294  0.00000000  1
  Tm  Tm1  1  0.56972706  0.56972706  -0.00000000  1
  Tm  Tm2  1  0.43027294  1.00000000  0.00000000  1
  Ag  Ag0  1  0.24626568  0.24626568  0.50000000  1
  Ag  Ag1  1  0.75373432  1.00000000  0.50000000  1
  Ag  Ag2  1  0.00000000  0.75373432  0.50000000  1
  Sn  Sn0  1  0.33333300  0.66666700  0.50000000  1
  Sn  Sn1  1  0.00000000  0.00000000  0.00000000  1
  Sn  Sn2  1  0.66666700  0.33333300  0.50000000  1
loop_
_geom_bond_atom_site_label_1
_geom_bond_atom_site_label_2
_geom_bond_distance
_geom_bond_site_symmetry_2
Ag0 Sn2 2.807366 1_555
Ag0 Sn0 2.807370 1_555
Ag0 Sn1 2.858859 1_556
Ag0 Sn1 2.858859 1_555
Ag0 Ag1 3.115672 1_445
Ag0 Ag2 3.115675 1_545
Ag0 Tm1 3.243401 1_556
Ag0 Tm1 3.243401 1_555
Ag0 Tm0 3.520988 1_555
Ag0 Tm0 3.520988 1_556
Ag0 Tm2 3.520988 1_546
Ag0 Tm2 3.520988 1_545
Ag1 Sn2 2.807361 1_565
Ag1 Sn0 2.807366 1_555
Ag1 Sn1 2.858858 1_665
Ag1 Sn1 2.858858 1_666
Ag1 Ag2 3.115672 1_655
Ag1 Tm2 3.243399 1_556
Ag1 Tm2 3.243399 1_555
Ag1 Tm0 3.520990 1_666
Ag1 Tm0 3.520990 1_665
Ag1 Tm1 3.520990 1_555
Ag1 Tm1 3.520990 1_556
Ag2 Sn0 2.807359 1_555
Ag2 Sn2 2.807367 1_455
Ag2 Sn1 2.858859 1_566
Ag2 Sn1 2.858859 1_565
Ag2 Tm0 3.243401 1_556
Ag2 Tm0 3.243401 1_555
Ag2 Tm1 3.520988 1_455
Ag2 Tm1 3.520988 1_456
Ag2 Tm2 3.520988 1_555
Ag2 Tm2 3.520988 1_556
Sn0 Tm2 3.105304 1_556
Sn0 Tm2 3.105304 1_555
Sn0 Tm0 3.105304 1_555
Sn0 Tm0 3.105304 1_556
Sn0 Tm1 3.105306 1_556
Sn0 Tm1 3.105306 1_555
Sn1 Tm2 3.142904 1_545
Sn1 Tm1 3.142907 1_445
Sn1 Tm0 3.142907 1_555
Sn2 Tm0 3.105302 1_655
Sn2 Tm0 3.105302 1_656
Sn2 Tm2 3.105305 1_546
Sn2 Tm2 3.105305 1_545
Sn2 Tm1 3.105307 1_556
Sn2 Tm1 3.105307 1_555
