# generated using pymatgen
data_CrO2
_symmetry_space_group_name_H-M   'P 1'
_cell_length_a   5.08956422
_cell_length_b   5.08956422
_cell_length_c   5.08956411
_cell_angle_alpha   34.04528779
_cell_angle_beta   34.04528779
_cell_angle_gamma   34.04528757
_symmetry_Int_Tables_number   1
_chemical_formula_structural   CrO2
_chemical_formula_sum   'Cr1 O2'
_cell_volume   36.83628527
_cell_formula_units_Z   1
loop_
 _symmetry_equiv_pos_site_id
 _symmetry_equiv_pos_as_xyz
  1  'x, y, z'
loop_
 _atom_site_type_symbol
 _atom_site_label
 _atom_site_symmetry_multiplicity
 _atom_site_fract_x
 _atom_site_fract_y
 _atom_site_fract_z
 _atom_site_occupancy
  Cr  Cr0  1  0.50000000  0.50000000  0.50000000  1
  O  O0  1  0.76908200  0.76908200  0.76908200  1
  O  O1  1  0.23091800  0.23091800  0.23091800  1
loop_
_geom_bond_atom_site_label_1
_geom_bond_atom_site_label_2
_geom_bond_distance
_geom_bond_site_symmetry_2
Cr0 O0 1.952551 1_554
Cr0 O1 1.952551 1_556
Cr0 O0 1.952551 1_545
Cr0 O0 1.952551 1_455
Cr0 O1 1.952551 1_655
Cr0 O1 1.952551 1_565
