# generated using pymatgen
data_Na7CaY3(PO4)6
_symmetry_space_group_name_H-M   'P 1'
_cell_length_a   9.38367770
_cell_length_b   9.37058578
_cell_length_c   23.43459497
_cell_angle_alpha   89.68604322
_cell_angle_beta   90.02452501
_cell_angle_gamma   120.05370152
_symmetry_Int_Tables_number   1
_chemical_formula_structural   Na7CaY3(PO4)6
_chemical_formula_sum   'Na21 Ca3 Y9 P18 O72'
_cell_volume   1783.54703427
_cell_formula_units_Z   3
loop_
 _symmetry_equiv_pos_site_id
 _symmetry_equiv_pos_as_xyz
  1  'x, y, z'
loop_
 _atom_site_type_symbol
 _atom_site_label
 _atom_site_symmetry_multiplicity
 _atom_site_fract_x
 _atom_site_fract_y
 _atom_site_fract_z
 _atom_site_occupancy
  Na  Na0  1  0.64015411  0.00964329  0.24451922  1
  Na  Na1  1  0.37001760  0.35859145  0.24507069  1
  Na  Na2  1  0.98912286  0.63101256  0.24316114  1
  Na  Na3  1  0.63688263  0.62838158  0.74554961  1
  Na  Na4  1  0.98968789  0.36197857  0.74738140  1
  Na  Na5  1  0.37397532  0.00954376  0.74640377  1
  Na  Na6  1  0.02716124  0.69448117  0.58471642  1
  Na  Na7  1  0.66534287  0.97219046  0.58413719  1
  Na  Na8  1  0.30839004  0.97401145  0.08441566  1
  Na  Na9  1  0.66628756  0.69286655  0.08473079  1
  Na  Na10  1  0.69606171  0.03095152  0.92049313  1
  Na  Na11  1  0.33410132  0.30205138  0.91942208  1
  Na  Na12  1  0.96846910  0.29360736  0.41207246  1
  Na  Na13  1  0.32396099  0.02980634  0.41311823  1
  Na  Na14  1  0.70788875  0.67705017  0.41236006  1
  Na  Na15  1  0.01255736  0.01243549  0.49939310  1
  Na  Na16  1  -0.00000719  0.99959521  0.00358452  1
  Na  Na17  1  0.67970699  0.34652908  0.83406419  1
  Na  Na18  1  0.66680636  0.33336322  0.32594055  1
  Na  Na19  1  0.31836713  0.65206094  0.16312882  1
  Na  Na20  1  0.33345357  0.65252436  0.66350398  1
  Ca  Ca0  1  0.99957623  0.99907497  0.34739111  1
  Ca  Ca1  1  0.66054041  0.33213621  0.67967588  1
  Ca  Ca2  1  0.67191872  0.33302264  0.17783166  1
  Y  Y0  1  0.99950228  0.99049590  0.85103068  1
  Y  Y1  1  0.00851693  0.00878187  0.64977627  1
  Y  Y2  1  0.00022903  0.00967960  0.15120518  1
  Y  Y3  1  0.68057861  0.34261471  0.98581217  1
  Y  Y4  1  0.66156603  0.33384079  0.48708108  1
  Y  Y5  1  0.31981836  0.65845639  0.01505250  1
  Y  Y6  1  0.33348059  0.65862481  0.51658859  1
  Y  Y7  1  0.33386035  0.66777172  0.31814109  1
  Y  Y8  1  0.32877841  0.66763612  0.81925737  1
  P  P0  1  0.30305401  0.99928262  0.25085661  1
  P  P1  1  0.69507824  0.69633529  0.25126077  1
  P  P2  1  0.00108619  0.30569800  0.25405279  1
  P  P3  1  0.29924862  0.30203307  0.75347281  1
  P  P4  1  0.00189030  0.70012182  0.74785434  1
  P  P5  1  0.70007763  0.99759467  0.75070002  1
  P  P6  1  0.96625167  0.33335425  0.58401053  1
  P  P7  1  0.35995029  0.02209744  0.58338598  1
  P  P8  1  0.67151693  0.64480480  0.58462658  1
  P  P9  1  0.97349999  0.64574519  0.08682702  1
  P  P10  1  0.66193884  0.02225710  0.08226340  1
  P  P11  1  0.36728682  0.33343379  0.08262476  1
  P  P12  1  0.62886283  0.66486954  0.91707141  1
  P  P13  1  0.02865074  0.35845950  0.91339161  1
  P  P14  1  0.33943239  0.97543584  0.91728942  1
  P  P15  1  0.63368226  0.97002523  0.41811580  1
  P  P16  1  0.33537761  0.36519068  0.41533676  1
  P  P17  1  0.03115685  0.66396059  0.41849319  1
  O  O0  1  0.22466355  0.01922110  0.30552718  1
  O  O1  1  0.79338932  0.77468389  0.30591922  1
  O  O2  1  0.97992475  0.21143463  0.31009958  1
  O  O3  1  0.21698417  0.20100023  0.80800823  1
  O  O4  1  0.98351826  0.79231849  0.79888423  1
  O  O5  1  0.80498567  0.01442197  0.80383484  1
  O  O6  1  0.78383008  0.97708036  0.69666543  1
  O  O7  1  0.18855482  0.21349531  0.70167314  1
  O  O8  1  0.02390666  0.80077555  0.69264594  1
  O  O9  1  0.78440490  0.80593766  0.19820570  1
  O  O10  1  0.02322574  0.21278669  0.20338185  1
  O  O11  1  0.19492066  0.98039295  0.19780618  1
  O  O12  1  0.88814106  0.35631270  0.63856592  1
  O  O13  1  0.46127084  0.10110095  0.63779265  1
  O  O14  1  0.65140136  0.54720494  0.63998130  1
  O  O15  1  0.90400389  0.55419466  0.14362631  1
  O  O16  1  0.63948812  0.10007851  0.13688756  1
  O  O17  1  0.46793908  0.35793237  0.13744718  1
  O  O18  1  0.45601568  0.31348980  0.02973511  1
  O  O19  1  0.85900007  0.55057502  0.03651965  1
  O  O20  1  0.68067179  0.12825318  0.02877074  1
  O  O21  1  0.44680056  0.12680116  0.52952773  1
  O  O22  1  0.68882989  0.55509321  0.53159133  1
  O  O23  1  0.85824777  0.31327325  0.53084565  1
  O  O24  1  0.54185799  0.68567251  0.96979940  1
  O  O25  1  0.14237116  0.45103198  0.96387428  1
  O  O26  1  0.32102263  0.87022467  0.97051036  1
  O  O27  1  0.54475431  0.86384072  0.47087571  1
  O  O28  1  0.31625612  0.45783333  0.46575513  1
  O  O29  1  0.13638949  0.68101334  0.47128242  1
  O  O30  1  0.11534206  0.64292393  0.36439361  1
  O  O31  1  0.52901593  0.88579435  0.36391719  1
  O  O32  1  0.35810013  0.46596441  0.35967730  1
  O  O33  1  0.10473099  0.45563710  0.85725195  1
  O  O34  1  0.35662886  0.88985559  0.86296938  1
  O  O35  1  0.52435813  0.64374031  0.86277605  1
  O  O36  1  0.01354954  0.81961637  0.41550580  1
  O  O37  1  0.80667040  0.98748003  0.41552940  1
  O  O38  1  0.18149586  0.19068044  0.41448779  1
  O  O39  1  0.01487978  0.18551373  0.91259462  1
  O  O40  1  0.19029101  0.00379386  0.91416531  1
  O  O41  1  0.79882941  0.82499806  0.91314927  1
  O  O42  1  0.97543628  0.17220038  0.58636396  1
  O  O43  1  0.18263197  0.99552970  0.58549896  1
  O  O44  1  0.83271844  0.81719381  0.58571552  1
  O  O45  1  0.98570036  0.81867460  0.08690175  1
  O  O46  1  0.81231217  0.99435773  0.08528557  1
  O  O47  1  0.19692754  0.17191014  0.08585185  1
  O  O48  1  0.68108825  0.15299822  0.74790105  1
  O  O49  1  0.47256893  0.31960698  0.74881776  1
  O  O50  1  0.84723201  0.52522172  0.74702875  1
  O  O51  1  0.67216034  0.52056062  0.24648106  1
  O  O52  1  0.84704256  0.32527402  0.24704770  1
  O  O53  1  0.47902477  0.15214473  0.24590043  1
  O  O54  1  0.64036799  0.50571708  0.92149626  1
  O  O55  1  0.85224709  0.33131919  0.91954130  1
  O  O56  1  0.50003338  0.14724327  0.92042872  1
  O  O57  1  0.64879025  0.14368419  0.42135688  1
  O  O58  1  0.49422586  0.35177939  0.42076794  1
  O  O59  1  0.85702327  0.50596999  0.42193152  1
  O  O60  1  0.35247311  0.49090567  0.07638157  1
  O  O61  1  0.15152206  0.67628813  0.07920279  1
  O  O62  1  0.50346143  0.84812919  0.07735603  1
  O  O63  1  0.34433956  0.84847454  0.57908158  1
  O  O64  1  0.52451270  0.67637601  0.57954566  1
  O  O65  1  0.13768835  0.49060432  0.57838391  1
  O  O66  1  0.31662929  0.83889130  0.25281700  1
  O  O67  1  0.52144913  0.68313240  0.25295640  1
  O  O68  1  0.15995594  0.48065879  0.25390714  1
  O  O69  1  0.31712379  0.47738132  0.75499920  1
  O  O70  1  0.16097166  0.68643531  0.75322455  1
  O  O71  1  0.52551568  0.83901995  0.75439216  1
loop_
_geom_bond_atom_site_label_1
_geom_bond_atom_site_label_2
_geom_bond_distance
_geom_bond_site_symmetry_2
Na0 O53 2.468403 1_555
Na0 O52 2.602060 1_555
Na0 O66 2.635540 1_545
Na0 O16 2.657454 1_555
Na0 O67 2.687184 1_545
Na1 O51 2.456302 1_555
Na1 O53 2.602049 1_555
Na1 O67 2.641852 1_555
Na1 O17 2.685748 1_555
Na1 O68 2.738245 1_555
Na1 O32 2.894946 1_555
Na2 O15 2.457209 1_555
Na2 O52 2.482970 1_555
Na2 O51 2.615250 1_555
Na2 O68 2.622238 1_655
Na2 O66 2.701557 1_655
Na3 O49 2.506825 1_555
Na3 O50 2.596626 1_555
Na3 O69 2.607465 1_555
Na3 O14 2.615785 1_555
Na3 O71 2.664891 1_555
Na4 O50 2.484939 1_555
Na4 O48 2.557427 1_555
Na4 O70 2.637342 1_655
Na4 O69 2.704714 1_655
Na4 O12 2.713351 1_555
Na4 O33 2.763782 1_655
Na5 O48 2.496700 1_555
Na5 O49 2.571042 1_555
Na5 O71 2.623523 1_545
Na5 O70 2.668543 1_545
Na5 O13 2.675695 1_555
Na5 O34 2.920672 1_545
Na6 O43 2.442351 1_555
Na6 O63 2.579636 1_555
Na6 O65 2.595261 1_555
Na6 O44 2.598794 1_455
Na6 O8 2.729186 1_555
Na6 O29 2.875500 1_555
Na7 O64 2.403276 1_555
Na7 O42 2.553606 1_565
Na7 O44 2.619514 1_555
Na7 O63 2.633404 1_555
Na7 O6 2.853093 1_555
Na7 O27 2.869227 1_555
Na8 O61 2.419751 1_555
Na8 O47 2.545085 1_565
Na8 O45 2.622124 1_455
Na8 O62 2.633366 1_555
Na8 O26 2.868689 1_554
Na8 O11 2.875111 1_555
Na9 O46 2.445847 1_555
Na9 O62 2.589342 1_555
Na9 O60 2.590927 1_555
Na9 O45 2.614827 1_555
Na9 O9 2.876587 1_555
Na9 O24 2.922765 1_554
Na9 O19 2.959356 1_555
Na9 O17 2.991522 1_555
Na10 O55 2.436823 1_555
Na10 O41 2.559684 1_545
Na10 O56 2.564931 1_555
Na10 O39 2.596086 1_655
Na10 O20 2.729167 1_556
Na11 O40 2.423503 1_555
Na11 O54 2.532033 1_555
Na11 O56 2.606016 1_555
Na11 O39 2.629836 1_555
Na11 O18 2.807290 1_556
Na11 O3 2.811356 1_555
Na12 O37 2.485100 1_545
Na12 O2 2.533454 1_555
Na12 O57 2.606851 1_555
Na12 O38 2.619113 1_655
Na12 O59 2.682655 1_555
Na13 O38 2.465728 1_555
Na13 O36 2.572826 1_545
Na13 O58 2.620116 1_555
Na13 O0 2.672718 1_555
Na13 O57 2.685275 1_555
Na13 O21 2.927785 1_555
Na14 O36 2.485916 1_655
Na14 O37 2.574498 1_555
Na14 O59 2.611820 1_555
Na14 O1 2.635190 1_555
Na14 O58 2.687304 1_555
Na14 O22 2.984278 1_555
Na15 O38 2.564372 1_555
Na15 O43 2.625031 1_545
Na15 O42 2.659503 1_455
Na15 O44 2.675291 1_445
Na15 O36 2.680509 1_545
Na15 O37 2.683083 1_445
Na16 O45 2.537838 1_455
Na16 O46 2.585556 1_455
Na16 O47 2.604103 1_565
Na16 O39 2.705030 1_564
Na16 O40 2.741044 1_564
Na16 O41 2.769962 1_454
Na17 O50 2.600753 1_555
Na17 O55 2.622860 1_555
Na17 O54 2.673053 1_555
Na17 O56 2.689615 1_555
Na17 O49 2.709907 1_555
Na17 O48 2.725766 1_555
Na18 O52 2.533166 1_555
Na18 O51 2.534363 1_555
Na18 O53 2.557699 1_555
Na18 O57 2.800612 1_555
Na18 O58 2.806765 1_555
Na18 O59 2.829682 1_555
Na19 O61 2.592177 1_555
Na19 O68 2.624658 1_555
Na19 O60 2.652131 1_555
Na19 O62 2.683062 1_555
Na19 O66 2.748052 1_555
Na19 O67 2.755933 1_555
Na20 O64 2.594655 1_555
Na20 O65 2.625646 1_555
Na20 O69 2.650323 1_555
Na20 O63 2.658670 1_555
Na20 O70 2.768885 1_555
Na20 O71 2.778765 1_555
Ca0 O1 2.248367 1_555
Ca0 O0 2.249367 1_665
Ca0 O2 2.259627 1_565
Ca0 O38 2.359840 1_665
Ca0 O36 2.363117 1_655
Ca0 O37 2.375254 1_555
Ca1 O12 2.248453 1_555
Ca1 O14 2.255368 1_555
Ca1 O13 2.261360 1_555
Ca1 O49 2.354432 1_555
Ca1 O50 2.384967 1_555
Ca1 O48 2.388668 1_555
Ca2 O17 2.248862 1_555
Ca2 O16 2.266128 1_555
Ca2 O15 2.267848 1_555
Ca2 O52 2.335104 1_555
Ca2 O53 2.365076 1_555
Ca2 O51 2.388176 1_555
O0 P0 1.535747 1_545
O1 P1 1.536769 1_555
O2 P2 1.535118 1_655
O3 P3 1.543082 1_555
O3 Y0 2.240563 1_445
O4 P4 1.538467 1_655
O4 Y0 2.170294 1_555
O5 P5 1.545989 1_545
O5 Y0 2.238445 1_545
O6 P5 1.553352 1_555
O6 Y1 2.260982 1_665
O7 P3 1.545186 1_555
O7 Y1 2.188792 1_555
O8 P4 1.548497 1_555
O8 Y1 2.256025 1_565
O9 P1 1.558168 1_555
O9 Y2 2.250720 1_665
O10 P2 1.550457 1_555
O10 Y2 2.185831 1_555
O11 P0 1.558185 1_555
O11 Y2 2.258934 1_565
O12 P6 1.542659 1_555
O13 P7 1.543350 1_555
O14 P8 1.539197 1_555
O15 P9 1.536505 1_555
O16 P10 1.542447 1_555
O17 P11 1.542834 1_555
O18 P11 1.556811 1_555
O18 Y3 2.235425 1_554
O19 P9 1.546058 1_555
O19 Y3 2.183670 1_554
O20 P10 1.549374 1_555
O20 Y3 2.242303 1_554
O21 P7 1.551204 1_555
O21 Y4 2.208885 1_555
O22 P8 1.557627 1_555
O22 Y4 2.223531 1_555
O23 P6 1.557328 1_555
O23 Y4 2.201757 1_555
O24 P12 1.547358 1_555
O24 Y5 2.235519 1_556
O25 P13 1.540711 1_555
O25 Y5 2.184276 1_556
O26 P14 1.540609 1_555
O26 Y5 2.232121 1_556
O27 P15 1.539752 1_555
O27 Y6 2.221842 1_555
O28 P16 1.532737 1_555
O28 Y6 2.169146 1_555
O29 P17 1.540813 1_555
O29 Y6 2.230745 1_555
O30 P17 1.558781 1_555
O30 Y7 2.225886 1_555
O31 P15 1.560216 1_555
O31 Y7 2.225572 1_555
O32 P16 1.556790 1_555
O32 Y7 2.232883 1_555
O33 P13 1.551205 1_555
O33 Y8 2.226692 1_555
O34 P14 1.559028 1_555
O34 Y8 2.220764 1_555
O35 P12 1.557898 1_555
O35 Y8 2.205877 1_555
O36 P17 1.549169 1_555
O37 P15 1.549018 1_555
O38 P16 1.547504 1_555
O39 P13 1.560120 1_555
O39 Y0 2.281749 1_445
O40 P14 1.551371 1_545
O40 Y0 2.277285 1_445
O41 P12 1.550888 1_555
O41 Y0 2.263324 1_555
O42 P6 1.555742 1_555
O42 Y1 2.258414 1_655
O43 P7 1.554996 1_565
O43 Y1 2.271829 1_565
O44 P8 1.565628 1_555
O44 Y1 2.293277 1_665
O45 P9 1.566263 1_555
O45 Y2 2.297362 1_665
O46 P10 1.560015 1_565
O46 Y2 2.294110 1_665
O47 P11 1.558031 1_555
O47 Y2 2.286882 1_555
O48 P5 1.554184 1_545
O49 P3 1.554294 1_555
O50 P4 1.552595 1_655
O51 P1 1.555307 1_555
O52 P2 1.554064 1_655
O53 P0 1.556005 1_545
O54 P12 1.551162 1_555
O54 Y3 2.302578 1_555
O55 P13 1.550372 1_655
O55 Y3 2.278766 1_555
O56 P14 1.561886 1_545
O56 Y3 2.343392 1_555
O57 P15 1.563394 1_545
O57 Y4 2.318986 1_555
O58 P16 1.562406 1_555
O58 Y4 2.273413 1_555
O59 P17 1.563345 1_655
O59 Y4 2.304088 1_555
O60 P11 1.556022 1_555
O60 Y5 2.254179 1_555
O61 P9 1.557314 1_455
O61 Y5 2.247449 1_555
O62 P10 1.567984 1_565
O62 Y5 2.284473 1_555
O63 P7 1.562584 1_565
O63 Y6 2.273069 1_555
O64 P8 1.553314 1_555
O64 Y6 2.262635 1_555
O65 P6 1.549302 1_455
O65 Y6 2.243090 1_555
O66 P0 1.571061 1_555
O66 Y7 2.274508 1_555
O67 P1 1.571477 1_555
O67 Y7 2.280105 1_555
O68 P2 1.569145 1_555
O68 Y7 2.272465 1_555
O69 P3 1.566470 1_555
O69 Y8 2.300424 1_555
O70 P4 1.565907 1_555
O70 Y8 2.275502 1_555
O71 P5 1.568246 1_555
O71 Y8 2.303039 1_555
