# generated using pymatgen
data_Na4Al3Si3ClO12
_symmetry_space_group_name_H-M   'P 1'
_cell_length_a   8.86659250
_cell_length_b   8.86659250
_cell_length_c   8.86659250
_cell_angle_alpha   90.00000000
_cell_angle_beta   90.00000000
_cell_angle_gamma   90.00000000
_symmetry_Int_Tables_number   1
_chemical_formula_structural   Na4Al3Si3ClO12
_chemical_formula_sum   'Na8 Al6 Si6 Cl2 O24'
_cell_volume   697.06013732
_cell_formula_units_Z   2
loop_
 _symmetry_equiv_pos_site_id
 _symmetry_equiv_pos_as_xyz
  1  'x, y, z'
loop_
 _atom_site_type_symbol
 _atom_site_label
 _atom_site_symmetry_multiplicity
 _atom_site_fract_x
 _atom_site_fract_y
 _atom_site_fract_z
 _atom_site_occupancy
  Na  Na0  1  0.32200688  0.32200688  0.67799312  1
  Na  Na1  1  0.67799312  0.32200688  0.32200688  1
  Na  Na2  1  0.67799312  0.67799312  0.67799312  1
  Na  Na3  1  0.17799312  0.17799312  0.17799312  1
  Na  Na4  1  0.17799312  0.82200688  0.82200688  1
  Na  Na5  1  0.82200688  0.82200688  0.17799312  1
  Na  Na6  1  0.32200688  0.67799312  0.32200688  1
  Na  Na7  1  0.82200688  0.17799312  0.82200688  1
  Al  Al0  1  0.50000000  0.75000000  0.00000000  1
  Al  Al1  1  0.25000000  0.00000000  0.50000000  1
  Al  Al2  1  -0.00000000  0.50000000  0.25000000  1
  Al  Al3  1  0.50000000  0.25000000  0.00000000  1
  Al  Al4  1  -0.00000000  0.50000000  0.75000000  1
  Al  Al5  1  0.75000000  0.00000000  0.50000000  1
  Si  Si0  1  0.50000000  0.00000000  0.25000000  1
  Si  Si1  1  -0.00000000  0.25000000  0.50000000  1
  Si  Si2  1  0.25000000  0.50000000  0.00000000  1
  Si  Si3  1  -0.00000000  0.75000000  0.50000000  1
  Si  Si4  1  0.50000000  0.00000000  0.75000000  1
  Si  Si5  1  0.75000000  0.50000000  0.00000000  1
  Cl  Cl0  1  0.50000000  0.50000000  0.50000000  1
  Cl  Cl1  1  -0.00000000  0.00000000  0.00000000  1
  O  O0  1  0.36116784  0.06400516  0.64895023  1
  O  O1  1  0.86116784  0.85104977  0.43599484  1
  O  O2  1  0.64895023  0.36116784  0.06400516  1
  O  O3  1  0.43599484  0.13883216  0.14895023  1
  O  O4  1  0.13883216  0.85104977  0.56400516  1
  O  O5  1  0.06400516  0.35104977  0.63883216  1
  O  O6  1  0.63883216  0.93599484  0.64895023  1
  O  O7  1  0.13883216  0.14895023  0.43599484  1
  O  O8  1  0.56400516  0.86116784  0.14895023  1
  O  O9  1  0.64895023  0.63883216  0.93599484  1
  O  O10  1  0.36116784  0.93599484  0.35104977  1
  O  O11  1  0.14895023  0.56400516  0.86116784  1
  O  O12  1  0.35104977  0.63883216  0.06400516  1
  O  O13  1  0.14895023  0.43599484  0.13883216  1
  O  O14  1  0.06400516  0.64895023  0.36116784  1
  O  O15  1  0.56400516  0.13883216  0.85104977  1
  O  O16  1  0.93599484  0.64895023  0.63883216  1
  O  O17  1  0.86116784  0.14895023  0.56400516  1
  O  O18  1  0.85104977  0.43599484  0.86116784  1
  O  O19  1  0.93599484  0.35104977  0.36116784  1
  O  O20  1  0.85104977  0.56400516  0.13883216  1
  O  O21  1  0.35104977  0.36116784  0.93599484  1
  O  O22  1  0.63883216  0.06400516  0.35104977  1
  O  O23  1  0.43599484  0.86116784  0.85104977  1
loop_
_geom_bond_atom_site_label_1
_geom_bond_atom_site_label_2
_geom_bond_distance
_geom_bond_site_symmetry_2
Na0 O0 2.328084 1_555
Na0 O21 2.328084 1_555
Na0 O5 2.328084 1_555
Na1 O22 2.328084 1_555
Na1 O2 2.328084 1_555
Na1 O19 2.328084 1_555
Na2 O9 2.328084 1_555
Na2 O16 2.328084 1_555
Na2 O6 2.328084 1_555
Na3 O3 2.328084 1_555
Na3 O7 2.328084 1_555
Na3 O13 2.328084 1_555
Na4 O11 2.328084 1_555
Na4 O4 2.328084 1_555
Na4 O23 2.328084 1_555
Na5 O20 2.328084 1_555
Na5 O1 2.328084 1_555
Na5 O8 2.328084 1_555
Na6 O12 2.328084 1_555
Na6 O14 2.328084 1_555
Na6 O10 2.328084 1_555
Na7 O15 2.328084 1_555
Na7 O18 2.328084 1_555
Na7 O17 2.328084 1_555
Al0 O23 1.742937 1_554
Al0 O9 1.742937 1_554
Al0 O8 1.742937 1_555
Al0 O12 1.742937 1_555
Al1 O4 1.742937 1_545
Al1 O0 1.742937 1_555
Al1 O7 1.742937 1_555
Al1 O10 1.742937 1_545
Al2 O20 1.742937 1_455
Al2 O14 1.742937 1_555
Al2 O13 1.742937 1_555
Al2 O19 1.742937 1_455
Al3 O15 1.742937 1_554
Al3 O2 1.742937 1_555
Al3 O3 1.742937 1_555
Al3 O21 1.742937 1_554
Al4 O18 1.742937 1_455
Al4 O16 1.742937 1_455
Al4 O11 1.742937 1_555
Al4 O5 1.742937 1_555
Al5 O1 1.742937 1_545
Al5 O6 1.742937 1_545
Al5 O22 1.742937 1_555
Al5 O17 1.742937 1_555
Cl0 Na1 2.733510 1_555
Cl0 Na2 2.733510 1_555
Cl0 Na0 2.733510 1_555
Cl0 Na6 2.733510 1_555
Cl1 Na3 2.733510 1_555
Cl1 Na5 2.733510 1_445
Cl1 Na7 2.733510 1_454
Cl1 Na4 2.733510 1_544
O0 Si4 1.624840 1_555
O1 Si3 1.624840 1_655
O2 Si5 1.624840 1_555
O3 Si0 1.624840 1_555
O4 Si3 1.624840 1_555
O5 Si1 1.624840 1_555
O6 Si4 1.624840 1_565
O7 Si1 1.624840 1_555
O8 Si0 1.624840 1_565
O9 Si5 1.624840 1_556
O10 Si0 1.624840 1_565
O11 Si2 1.624840 1_556
O12 Si2 1.624840 1_555
O13 Si2 1.624840 1_555
O14 Si3 1.624840 1_555
O15 Si4 1.624840 1_555
O16 Si3 1.624840 1_655
O17 Si1 1.624840 1_655
O18 Si5 1.624840 1_556
O19 Si1 1.624840 1_655
O20 Si5 1.624840 1_555
O21 Si2 1.624840 1_556
O22 Si0 1.624840 1_555
O23 Si4 1.624840 1_565
