# generated using pymatgen
data_Na4CaHf3(PO4)6
_symmetry_space_group_name_H-M   'P 1'
_cell_length_a   9.04134568
_cell_length_b   9.04093848
_cell_length_c   22.82307348
_cell_angle_alpha   90.07701755
_cell_angle_beta   89.94665291
_cell_angle_gamma   119.78196935
_symmetry_Int_Tables_number   1
_chemical_formula_structural   Na4CaHf3(PO4)6
_chemical_formula_sum   'Na12 Ca3 Hf9 P18 O72'
_cell_volume   1619.20152384
_cell_formula_units_Z   3
loop_
 _symmetry_equiv_pos_site_id
 _symmetry_equiv_pos_as_xyz
  1  'x, y, z'
loop_
 _atom_site_type_symbol
 _atom_site_label
 _atom_site_symmetry_multiplicity
 _atom_site_fract_x
 _atom_site_fract_y
 _atom_site_fract_z
 _atom_site_occupancy
  Na  Na0  1  0.65094807  0.01513194  0.24331910  1
  Na  Na1  1  0.36714657  0.35044798  0.24331898  1
  Na  Na2  1  0.98346899  0.63327905  0.24286279  1
  Na  Na3  1  0.98665061  0.36205392  0.74158567  1
  Na  Na4  1  0.37809008  0.00861321  0.74154838  1
  Na  Na5  1  0.70931307  0.67684966  0.41559619  1
  Na  Na6  1  0.01766669  0.01793703  0.49691004  1
  Na  Na7  1  0.00025478  0.00032960  0.00302401  1
  Na  Na8  1  0.66559275  0.35080854  0.83248015  1
  Na  Na9  1  0.66579552  0.31747943  0.33342738  1
  Na  Na10  1  0.33344801  0.66659976  0.15890017  1
  Na  Na11  1  0.35293554  0.66483816  0.65956600  1
  Ca  Ca0  1  0.00943401  0.01033064  0.35744114  1
  Ca  Ca1  1  0.66532019  0.34327663  0.68251761  1
  Ca  Ca2  1  0.66692256  0.33419427  0.17149325  1
  Hf  Hf0  1  0.99709723  0.99716016  0.85783711  1
  Hf  Hf1  1  0.99514639  0.99480640  0.64413849  1
  Hf  Hf2  1  0.00041185  0.00010784  0.14570922  1
  Hf  Hf3  1  0.66692224  0.33238219  0.98416570  1
  Hf  Hf4  1  0.66660433  0.32787036  0.48538314  1
  Hf  Hf5  1  0.33324568  0.66645439  0.01565214  1
  Hf  Hf6  1  0.32870095  0.66729551  0.51984119  1
  Hf  Hf7  1  0.32951641  0.66626471  0.31661496  1
  Hf  Hf8  1  0.33797675  0.66601800  0.81533416  1
  P  P0  1  0.29350416  0.99434543  0.24949062  1
  P  P1  1  0.70134524  0.70757107  0.25293010  1
  P  P2  1  0.00480569  0.29826680  0.24984084  1
  P  P3  1  0.27897614  0.28636697  0.75247816  1
  P  P4  1  0.00807547  0.71638472  0.75288985  1
  P  P5  1  0.70918194  0.99072105  0.75202056  1
  P  P6  1  0.96764376  0.33134909  0.58667715  1
  P  P7  1  0.36461964  0.03340027  0.58677968  1
  P  P8  1  0.66787617  0.63636066  0.58108384  1
  P  P9  1  0.97188299  0.63939098  0.08325545  1
  P  P10  1  0.66666348  0.02696317  0.08343125  1
  P  P11  1  0.35989733  0.33231223  0.08339579  1
  P  P12  1  0.62597051  0.66141566  0.91734201  1
  P  P13  1  0.03655188  0.37513329  0.91533615  1
  P  P14  1  0.33910361  0.96403497  0.91561056  1
  P  P15  1  0.61657183  0.96257699  0.41789359  1
  P  P16  1  0.34598852  0.38099701  0.41880840  1
  P  P17  1  0.03089382  0.65251732  0.41805079  1
  O  O0  1  0.21749117  0.02448258  0.30385541  1
  O  O1  1  0.79735289  0.77753589  0.31006779  1
  O  O2  1  0.97253371  0.19151759  0.30409103  1
  O  O3  1  0.18140134  0.18123334  0.80688092  1
  O  O4  1  0.99851099  0.81065174  0.80782367  1
  O  O5  1  0.81452655  0.00123203  0.80660871  1
  O  O6  1  0.79625339  0.97497009  0.69581762  1
  O  O7  1  0.16974660  0.19952069  0.69710188  1
  O  O8  1  0.02632857  0.82276233  0.69718302  1
  O  O9  1  0.80219278  0.82830377  0.20001045  1
  O  O10  1  0.02920322  0.20601100  0.19501425  1
  O  O11  1  0.17847272  0.97248656  0.19461313  1
  O  O12  1  0.90714499  0.36194148  0.64513859  1
  O  O13  1  0.45649146  0.09246764  0.64510317  1
  O  O14  1  0.63243795  0.53266416  0.63611285  1
  O  O15  1  0.91847919  0.55318660  0.14282448  1
  O  O16  1  0.63413502  0.08158004  0.14286584  1
  O  O17  1  0.44677329  0.36605744  0.14289264  1
  O  O18  1  0.47018275  0.31262665  0.03466821  1
  O  O19  1  0.84241543  0.52921043  0.03464779  1
  O  O20  1  0.68749213  0.15649692  0.03450686  1
  O  O21  1  0.47001697  0.15921247  0.53631567  1
  O  O22  1  0.69125724  0.54285147  0.52684883  1
  O  O23  1  0.84168571  0.31242514  0.53640919  1
  O  O24  1  0.53807486  0.68744484  0.97020373  1
  O  O25  1  0.15516148  0.46742065  0.96691665  1
  O  O26  1  0.31434849  0.84644249  0.96733262  1
  O  O27  1  0.50896790  0.85058840  0.46894098  1
  O  O28  1  0.34346529  0.48935349  0.47036517  1
  O  O29  1  0.14177073  0.66068788  0.47024006  1
  O  O30  1  0.11939638  0.64274630  0.35961447  1
  O  O31  1  0.51614834  0.87706652  0.35938003  1
  O  O32  1  0.36049528  0.48435948  0.36080581  1
  O  O33  1  0.12137394  0.48276476  0.85864665  1
  O  O34  1  0.36211040  0.87840577  0.85904904  1
  O  O35  1  0.51441963  0.63892142  0.86193542  1
  O  O36  1  0.00362285  0.80517071  0.41962666  1
  O  O37  1  0.78764200  0.96936934  0.41889135  1
  O  O38  1  0.19236512  0.20571118  0.42077902  1
  O  O39  1  0.01721788  0.19506130  0.91106626  1
  O  O40  1  0.17813215  0.98297299  0.91120238  1
  O  O41  1  0.80474628  0.82152995  0.91187495  1
  O  O42  1  0.97855300  0.16508444  0.58738325  1
  O  O43  1  0.18744939  0.02223386  0.58812344  1
  O  O44  1  0.83442314  0.81222905  0.58604552  1
  O  O45  1  0.98084966  0.81610977  0.08525304  1
  O  O46  1  0.83327545  0.01567719  0.08554688  1
  O  O47  1  0.18325845  0.16543507  0.08530781  1
  O  O48  1  0.69084809  0.15085357  0.75106096  1
  O  O49  1  0.45301598  0.29918957  0.75115325  1
  O  O50  1  0.85881543  0.53475966  0.75189880  1
  O  O51  1  0.66959944  0.52585073  0.24328575  1
  O  O52  1  0.85683128  0.33387939  0.24154104  1
  O  O53  1  0.47677263  0.14214656  0.24177733  1
  O  O54  1  0.64401922  0.50104863  0.92362654  1
  O  O55  1  0.85905880  0.35820417  0.92328824  1
  O  O56  1  0.49900070  0.14137117  0.92340270  1
  O  O57  1  0.63351300  0.14165291  0.42294017  1
  O  O58  1  0.51621495  0.37539791  0.42188759  1
  O  O59  1  0.85466313  0.48535611  0.42183284  1
  O  O60  1  0.33166881  0.48357294  0.06931642  1
  O  O61  1  0.15100112  0.66711169  0.06914776  1
  O  O62  1  0.51475010  0.84878406  0.06944466  1
  O  O63  1  0.33330563  0.85143717  0.57413006  1
  O  O64  1  0.51886431  0.67278446  0.57152481  1
  O  O65  1  0.14918569  0.48201052  0.57414604  1
  O  O66  1  0.29684822  0.82135417  0.25388945  1
  O  O67  1  0.52350350  0.70169030  0.25485653  1
  O  O68  1  0.17679828  0.47419665  0.25494742  1
  O  O69  1  0.29052283  0.46588472  0.75688120  1
  O  O70  1  0.17997418  0.70986114  0.75647459  1
  O  O71  1  0.52720205  0.82871687  0.75629794  1
loop_
_geom_bond_atom_site_label_1
_geom_bond_atom_site_label_2
_geom_bond_distance
_geom_bond_site_symmetry_2
Na0 O53 2.365689 1_555
Na0 O16 2.394856 1_555
Na0 O67 2.487006 1_545
Na0 O52 2.538222 1_555
Na0 O66 2.793769 1_545
Na0 O9 2.826222 1_545
Na0 O2 2.883790 1_555
Na0 O31 2.924312 1_545
Na1 O51 2.384284 1_555
Na1 O17 2.385063 1_555
Na1 O68 2.489002 1_555
Na1 O53 2.526715 1_555
Na1 O67 2.773239 1_555
Na1 O10 2.880152 1_555
Na1 O0 2.910486 1_555
Na1 O32 2.953411 1_555
Na2 O52 2.357955 1_555
Na2 O15 2.378634 1_555
Na2 O66 2.489331 1_655
Na2 O51 2.501697 1_555
Na2 O68 2.774776 1_655
Na3 O12 2.316097 1_555
Na3 O50 2.370783 1_555
Na3 O48 2.402594 1_555
Na3 O69 2.447490 1_655
Na3 O70 2.756221 1_655
Na3 O7 2.887887 1_655
Na3 O33 2.913817 1_655
Na4 O13 2.321665 1_555
Na4 O49 2.374729 1_555
Na4 O70 2.411453 1_545
Na4 O48 2.466783 1_555
Na4 O71 2.599371 1_545
Na4 O34 2.904674 1_545
Na4 O8 2.942152 1_545
Na5 O36 2.317009 1_655
Na5 O37 2.374946 1_555
Na5 O58 2.402144 1_555
Na5 O1 2.558428 1_555
Na5 O59 2.646846 1_555
Na5 O22 2.784332 1_555
Na6 O38 2.394784 1_555
Na6 O36 2.564408 1_545
Na6 O42 2.572397 1_455
Na6 O43 2.576469 1_555
Na6 O37 2.605060 1_445
Na6 O44 2.699121 1_445
Na7 O47 2.457104 1_555
Na7 O45 2.458520 1_445
Na7 O46 2.459247 1_455
Na7 O41 2.687864 1_444
Na7 O40 2.691912 1_544
Na7 O39 2.696103 1_554
Na8 O50 2.513205 1_555
Na8 O54 2.542696 1_555
Na8 O49 2.543677 1_555
Na8 O48 2.678339 1_555
Na8 O55 2.692523 1_555
Na8 O56 2.707724 1_555
Na9 O57 2.516449 1_555
Na9 O59 2.591165 1_555
Na9 O58 2.621998 1_555
Na9 O53 2.667473 1_555
Na9 O52 2.672622 1_555
Na9 O51 2.780036 1_555
Na10 O60 2.623589 1_555
Na10 O62 2.624690 1_555
Na10 O61 2.632686 1_555
Na10 O66 2.686539 1_555
Na10 O67 2.704287 1_555
Na10 O68 2.719218 1_555
Na11 O64 2.486181 1_555
Na11 O65 2.626718 1_555
Na11 O63 2.643227 1_555
Na11 O71 2.688939 1_555
Na11 O69 2.736223 1_555
Na11 O70 2.850702 1_555
Ca0 O0 2.192651 1_555
Ca0 O2 2.196882 1_455
Ca0 O38 2.245159 1_555
Ca0 O1 2.294372 1_445
Ca0 O36 2.316814 1_545
Ca0 O37 2.320293 1_445
Ca1 O14 2.157081 1_555
Ca1 O12 2.273125 1_555
Ca1 O13 2.276080 1_555
Ca1 O49 2.352295 1_555
Ca1 O50 2.356733 1_555
Ca1 O48 2.435960 1_555
Ca2 O17 2.245770 1_555
Ca2 O15 2.246860 1_555
Ca2 O16 2.248245 1_555
Ca2 O52 2.348200 1_555
Ca2 O53 2.362313 1_555
Ca2 O51 2.374567 1_555
Hf0 O3 2.036063 1_665
Hf0 O5 2.038920 1_565
Hf0 O4 2.040248 1_555
Hf0 O41 2.079637 1_555
Hf0 O39 2.093195 1_665
Hf0 O40 2.095634 1_655
Hf1 O44 2.051616 1_555
Hf1 O43 2.070581 1_665
Hf1 O42 2.074976 1_565
Hf1 O6 2.081662 1_555
Hf1 O8 2.099012 1_655
Hf1 O7 2.115135 1_665
Hf2 O11 2.074466 1_545
Hf2 O10 2.076768 1_555
Hf2 O9 2.096691 1_445
Hf2 O45 2.098667 1_445
Hf2 O46 2.098670 1_455
Hf2 O47 2.100983 1_555
Hf3 O20 2.045087 1_556
Hf3 O19 2.050538 1_556
Hf3 O18 2.050770 1_556
Hf3 O55 2.143883 1_555
Hf3 O54 2.144098 1_555
Hf3 O56 2.145556 1_555
Hf4 O23 2.026075 1_555
Hf4 O21 2.035708 1_555
Hf4 O22 2.070770 1_555
Hf4 O57 2.109251 1_555
Hf4 O59 2.148954 1_555
Hf4 O58 2.172397 1_555
Hf5 O26 2.043210 1_554
Hf5 O25 2.046326 1_554
Hf5 O24 2.046808 1_554
Hf5 O61 2.052246 1_555
Hf5 O60 2.053312 1_555
Hf5 O62 2.056365 1_555
Hf6 O29 2.011126 1_555
Hf6 O27 2.017587 1_555
Hf6 O28 2.022175 1_555
Hf6 O63 2.057730 1_555
Hf6 O64 2.066116 1_555
Hf6 O65 2.068207 1_555
Hf7 O30 2.052620 1_555
Hf7 O31 2.058050 1_555
Hf7 O32 2.064688 1_555
Hf7 O68 2.125552 1_555
Hf7 O66 2.126105 1_555
Hf7 O67 2.145711 1_555
Hf8 O35 2.031807 1_555
Hf8 O34 2.075856 1_555
Hf8 O33 2.082056 1_555
Hf8 O71 2.099339 1_555
Hf8 O69 2.112138 1_555
Hf8 O70 2.137761 1_555
O0 P0 1.506520 1_545
O1 P1 1.519411 1_555
O2 P2 1.507450 1_655
O3 P3 1.546461 1_555
O4 P4 1.541389 1_655
O5 P5 1.542846 1_545
O6 P5 1.547387 1_555
O7 P3 1.555152 1_555
O8 P4 1.553670 1_555
O9 P1 1.579361 1_555
O10 P2 1.577840 1_555
O11 P0 1.577024 1_555
O12 P6 1.517864 1_555
O13 P7 1.518725 1_555
O14 P8 1.504316 1_555
O15 P9 1.522078 1_555
O16 P10 1.520553 1_555
O17 P11 1.522091 1_555
O18 P11 1.560908 1_555
O19 P9 1.560230 1_555
O20 P10 1.561345 1_555
O21 P7 1.566243 1_555
O22 P8 1.570292 1_555
O23 P6 1.565497 1_555
O24 P12 1.525029 1_555
O25 P13 1.530652 1_555
O26 P14 1.529821 1_555
O27 P15 1.533466 1_555
O28 P16 1.537485 1_555
O29 P17 1.535449 1_555
O30 P17 1.579480 1_555
O31 P15 1.583571 1_555
O32 P16 1.588762 1_555
O33 P13 1.571379 1_555
O34 P14 1.570298 1_555
O35 P12 1.567029 1_555
O36 P17 1.518139 1_555
O37 P15 1.517330 1_555
O38 P16 1.502035 1_555
O39 P13 1.551579 1_555
O40 P14 1.550963 1_555
O41 P12 1.549014 1_555
O42 P6 1.554645 1_555
O43 P7 1.554461 1_555
O44 P8 1.558783 1_555
O45 P9 1.559630 1_555
O46 P10 1.560389 1_555
O47 P11 1.560502 1_555
O48 P5 1.537018 1_545
O49 P3 1.519583 1_555
O50 P4 1.522056 1_655
O51 P1 1.536465 1_555
O52 P2 1.535593 1_655
O53 P0 1.537119 1_545
O54 P12 1.544331 1_555
O55 P13 1.545058 1_655
O56 P14 1.545742 1_545
O57 P15 1.552777 1_545
O58 P16 1.566481 1_555
O59 P17 1.561477 1_655
O60 P11 1.544868 1_555
O61 P9 1.544413 1_455
O62 P10 1.544304 1_565
O63 P7 1.551161 1_565
O64 P8 1.553269 1_555
O65 P6 1.552569 1_455
O66 P0 1.582562 1_555
O67 P1 1.582764 1_555
O68 P2 1.582534 1_555
O69 P3 1.576837 1_555
O70 P4 1.586508 1_555
O71 P5 1.571001 1_555
