# generated using pymatgen
data_Dy3(CuSn)4
_symmetry_space_group_name_H-M   'P 1'
_cell_length_a   4.43901735
_cell_length_b   6.90512189
_cell_length_c   8.40153516
_cell_angle_alpha   114.33095262
_cell_angle_beta   105.30772065
_cell_angle_gamma   89.94123231
_symmetry_Int_Tables_number   1
_chemical_formula_structural   Dy3(CuSn)4
_chemical_formula_sum   'Dy3 Cu4 Sn4'
_cell_volume   224.61820679
_cell_formula_units_Z   1
loop_
 _symmetry_equiv_pos_site_id
 _symmetry_equiv_pos_as_xyz
  1  'x, y, z'
loop_
 _atom_site_type_symbol
 _atom_site_label
 _atom_site_symmetry_multiplicity
 _atom_site_fract_x
 _atom_site_fract_y
 _atom_site_fract_z
 _atom_site_occupancy
  Dy  Dy0  1  0.00000001  0.99998843  0.99999802  1
  Dy  Dy1  1  0.86831430  0.36887075  0.73638936  1
  Dy  Dy2  1  0.13168609  0.63114027  0.26361244  1
  Cu  Cu0  1  0.32568872  0.01598996  0.65698770  1
  Cu  Cu1  1  0.67430353  0.98401442  0.34301132  1
  Cu  Cu2  1  0.32942527  0.64294445  0.66148109  1
  Cu  Cu3  1  0.67058034  0.35706317  0.33851987  1
  Sn  Sn0  1  0.21782381  0.21787766  0.43251720  1
  Sn  Sn1  1  0.50093289  0.70332495  0.00160827  1
  Sn  Sn2  1  0.49907123  0.29665950  0.99839177  1
  Sn  Sn3  1  0.78217380  0.78212543  0.56748194  1
loop_
_geom_bond_atom_site_label_1
_geom_bond_atom_site_label_2
_geom_bond_distance
_geom_bond_site_symmetry_2
Dy0 Sn1 3.023037 1_556
Dy0 Sn2 3.023056 1_465
Dy0 Sn1 3.025285 1_456
Dy0 Sn2 3.025318 1_565
Dy0 Sn3 3.169513 1_455
Dy0 Sn0 3.169536 1_566
Dy1 Sn0 3.140563 1_555
Dy1 Sn0 3.147479 1_655
Dy1 Sn2 3.252843 1_655
Dy1 Sn2 3.254492 1_555
Dy1 Sn1 3.260178 1_556
Dy1 Sn1 3.263990 1_656
Dy2 Sn3 3.140544 1_555
Dy2 Sn3 3.147470 1_455
Dy2 Sn1 3.252760 1_455
Dy2 Sn1 3.254437 1_555
Dy2 Sn2 3.260275 1_554
Dy2 Sn2 3.264059 1_454
Cu0 Cu2 2.591679 1_545
Cu0 Sn2 2.613895 1_555
Cu0 Sn3 2.653986 1_445
Cu0 Sn3 2.660179 1_545
Cu0 Sn0 2.723507 1_555
Cu0 Dy1 3.141669 1_455
Cu0 Dy2 3.160880 1_545
Cu0 Dy1 3.163634 1_555
Cu1 Cu3 2.591695 1_565
Cu1 Sn1 2.613929 1_555
Cu1 Sn0 2.654001 1_665
Cu1 Sn0 2.660155 1_565
Cu1 Sn3 2.723514 1_555
Cu1 Dy2 3.141662 1_655
Cu1 Dy1 3.160913 1_565
Cu1 Dy2 3.163584 1_555
Cu2 Sn1 2.605660 1_556
Cu2 Sn3 2.655913 1_555
Cu2 Sn3 2.656366 1_455
Cu2 Sn0 2.721794 1_555
Cu2 Dy1 3.136391 1_455
Cu2 Dy1 3.142809 1_555
Cu2 Dy2 3.190175 1_555
Cu3 Sn2 2.605621 1_554
Cu3 Sn0 2.655948 1_555
Cu3 Sn0 2.656348 1_655
Cu3 Sn3 2.721766 1_555
Cu3 Dy2 3.136386 1_655
Cu3 Dy2 3.142839 1_555
Cu3 Dy1 3.190172 1_555
Sn1 Sn2 2.797049 1_554
