# generated using pymatgen
data_Li2W2O7
_symmetry_space_group_name_H-M   'P 1'
_cell_length_a   5.06537536
_cell_length_b   7.03846371
_cell_length_c   8.31510010
_cell_angle_alpha   69.72858977
_cell_angle_beta   77.54454547
_cell_angle_gamma   85.02415888
_symmetry_Int_Tables_number   1
_chemical_formula_structural   Li2W2O7
_chemical_formula_sum   'Li4 W4 O14'
_cell_volume   271.52348780
_cell_formula_units_Z   2
loop_
 _symmetry_equiv_pos_site_id
 _symmetry_equiv_pos_as_xyz
  1  'x, y, z'
loop_
 _atom_site_type_symbol
 _atom_site_label
 _atom_site_symmetry_multiplicity
 _atom_site_fract_x
 _atom_site_fract_y
 _atom_site_fract_z
 _atom_site_occupancy
  Li  Li0  1  0.85758238  0.99875216  0.73328604  1
  Li  Li1  1  0.14241762  0.00124784  0.26671396  1
  Li  Li2  1  0.69169787  0.25946551  0.09661120  1
  Li  Li3  1  0.30830213  0.74053449  0.90338880  1
  W  W0  1  0.30127035  0.24714400  0.82294587  1
  W  W1  1  0.69872965  0.75285600  0.17705413  1
  W  W2  1  0.18748681  0.45161695  0.33454277  1
  W  W3  1  0.81251319  0.54838305  0.66545723  1
  O  O0  1  0.05057522  0.60701666  0.12953078  1
  O  O1  1  0.94942478  0.39298334  0.87046922  1
  O  O2  1  0.35162375  0.75157946  0.30024307  1
  O  O3  1  0.64837625  0.24842054  0.69975693  1
  O  O4  1  0.82265268  0.97914439  0.17986223  1
  O  O5  1  0.17734732  0.02085561  0.82013777  1
  O  O6  1  0.82031620  0.58532185  0.42398908  1
  O  O7  1  0.17968380  0.41467815  0.57601092  1
  O  O8  1  0.07926772  0.21053541  0.36799093  1
  O  O9  1  0.92073228  0.78946459  0.63200907  1
  O  O10  1  0.35698008  0.18527998  0.03841899  1
  O  O11  1  0.64301992  0.81472002  0.96158101  1
  O  O12  1  0.54124691  0.43785992  0.23276989  1
  O  O13  1  0.45875309  0.56214008  0.76723011  1
loop_
_geom_bond_atom_site_label_1
_geom_bond_atom_site_label_2
_geom_bond_distance
_geom_bond_site_symmetry_2
Li0 O9 1.908682 1_555
Li0 O3 1.937438 1_565
Li0 O5 1.948183 1_665
Li0 O11 2.028046 1_555
Li1 O8 1.908682 1_555
Li1 O2 1.937438 1_545
Li1 O4 1.948183 1_445
Li1 O10 2.028046 1_555
Li2 O4 1.958744 1_545
Li2 O12 1.971312 1_555
Li2 O1 2.013138 1_554
Li2 O10 2.015920 1_555
Li3 O5 1.958744 1_565
Li3 O13 1.971312 1_555
Li3 O0 2.013138 1_556
Li3 O11 2.015920 1_555
O0 W2 1.915633 1_555
O0 W1 2.011490 1_455
O1 W3 1.915633 1_555
O1 W0 2.011490 1_655
O2 W1 1.833073 1_555
O2 W2 2.239429 1_555
O3 W0 1.833073 1_555
O3 W3 2.239429 1_555
O4 W1 1.771119 1_555
O5 W0 1.771119 1_555
O6 W3 1.925194 1_555
O6 W2 2.117205 1_655
O6 W1 2.174293 1_555
O7 W2 1.925194 1_555
O7 W3 2.117205 1_455
O7 W0 2.174293 1_555
O8 W2 1.739452 1_555
O9 W3 1.739452 1_555
O10 W0 1.770744 1_554
O11 W1 1.770744 1_556
O12 W2 1.819087 1_555
O12 W1 2.280810 1_555
O13 W3 1.819087 1_555
O13 W0 2.280810 1_555
