# generated using pymatgen
data_Cs3In2Cl9
_symmetry_space_group_name_H-M   'P 1'
_cell_length_a   9.63296304
_cell_length_b   9.63296304
_cell_length_c   9.63296332
_cell_angle_alpha   83.58008510
_cell_angle_beta   83.58008510
_cell_angle_gamma   83.58008604
_symmetry_Int_Tables_number   1
_chemical_formula_structural   Cs3In2Cl9
_chemical_formula_sum   'Cs6 In4 Cl18'
_cell_volume   878.23001548
_cell_formula_units_Z   2
loop_
 _symmetry_equiv_pos_site_id
 _symmetry_equiv_pos_as_xyz
  1  'x, y, z'
loop_
 _atom_site_type_symbol
 _atom_site_label
 _atom_site_symmetry_multiplicity
 _atom_site_fract_x
 _atom_site_fract_y
 _atom_site_fract_z
 _atom_site_occupancy
  Cs  Cs0  1  0.75000000  0.09055371  0.40944629  1
  Cs  Cs1  1  0.40944629  0.75000000  0.09055371  1
  Cs  Cs2  1  0.09055371  0.40944629  0.75000000  1
  Cs  Cs3  1  0.25000000  0.90944629  0.59055371  1
  Cs  Cs4  1  0.59055371  0.25000000  0.90944629  1
  Cs  Cs5  1  0.90944629  0.59055371  0.25000000  1
  In  In0  1  0.65254702  0.65254702  0.65254702  1
  In  In1  1  0.84745298  0.84745298  0.84745298  1
  In  In2  1  0.34745298  0.34745298  0.34745298  1
  In  In3  1  0.15254702  0.15254702  0.15254702  1
  Cl  Cl0  1  0.08796485  0.92399417  0.26145160  1
  Cl  Cl1  1  0.26145160  0.08796485  0.92399417  1
  Cl  Cl2  1  0.92399417  0.26145160  0.08796485  1
  Cl  Cl3  1  0.41203515  0.23854840  0.57600583  1
  Cl  Cl4  1  0.57600583  0.41203515  0.23854840  1
  Cl  Cl5  1  0.23854840  0.57600583  0.41203515  1
  Cl  Cl6  1  0.91203515  0.07600583  0.73854840  1
  Cl  Cl7  1  0.73854840  0.91203515  0.07600583  1
  Cl  Cl8  1  0.07600583  0.73854840  0.91203515  1
  Cl  Cl9  1  0.58796485  0.76145160  0.42399417  1
  Cl  Cl10  1  0.90245462  0.75000000  0.59754538  1
  Cl  Cl11  1  0.75000000  0.59754538  0.90245462  1
  Cl  Cl12  1  0.59754538  0.90245462  0.75000000  1
  Cl  Cl13  1  0.09754538  0.25000000  0.40245462  1
  Cl  Cl14  1  0.25000000  0.40245462  0.09754538  1
  Cl  Cl15  1  0.40245462  0.09754538  0.25000000  1
  Cl  Cl16  1  0.76145160  0.42399417  0.58796485  1
  Cl  Cl17  1  0.42399417  0.58796485  0.76145160  1
loop_
_geom_bond_atom_site_label_1
_geom_bond_atom_site_label_2
_geom_bond_distance
_geom_bond_site_symmetry_2
Cl0 In3 2.445127 1_565
Cl0 Cs1 3.664135 1_555
Cl0 Cs3 3.669421 1_555
Cl0 Cs0 3.675750 1_465
Cl0 Cs5 3.826666 1_455
Cl1 In3 2.445127 1_556
Cl1 Cs2 3.664135 1_555
Cl1 Cs4 3.669421 1_555
Cl1 Cs1 3.675750 1_546
Cl1 Cs3 3.826666 1_545
Cl2 In3 2.445127 1_655
Cl2 Cs0 3.664135 1_555
Cl2 Cs5 3.669421 1_555
Cl2 Cs2 3.675750 1_654
Cl2 Cs4 3.826666 1_554
Cl3 In2 2.445127 1_555
Cl3 Cs2 3.664135 1_555
Cl3 Cs3 3.669421 1_545
Cl3 Cs0 3.675750 1_555
Cl3 Cs4 3.826666 1_555
Cl4 In2 2.445127 1_555
Cl4 Cs0 3.664135 1_555
Cl4 Cs4 3.669421 1_554
Cl4 Cs1 3.675750 1_555
Cl4 Cs5 3.826666 1_555
Cl5 In2 2.445127 1_555
Cl5 Cs1 3.664135 1_555
Cl5 Cs5 3.669421 1_455
Cl5 Cs2 3.675750 1_555
Cl5 Cs3 3.826666 1_555
Cl6 In1 2.445127 1_545
Cl6 Cs4 3.664135 1_555
Cl6 Cs0 3.669421 1_555
Cl6 Cs3 3.675750 1_645
Cl6 Cs2 3.826666 1_655
Cl7 In1 2.445127 1_554
Cl7 Cs5 3.664135 1_555
Cl7 Cs1 3.669421 1_555
Cl7 Cs4 3.675750 1_564
Cl7 Cs0 3.826666 1_565
Cl8 In1 2.445127 1_455
Cl8 Cs3 3.664135 1_555
Cl8 Cs2 3.669421 1_555
Cl8 Cs5 3.675750 1_456
Cl8 Cs1 3.826666 1_556
Cl9 In0 2.445127 1_555
Cl9 Cs5 3.664135 1_555
Cl9 Cs0 3.669421 1_565
Cl9 Cs3 3.675750 1_555
Cl9 Cs1 3.826666 1_555
Cl10 In0 2.658242 1_555
Cl10 In1 2.658242 1_555
Cl10 Cs2 3.793451 1_655
Cl10 Cs0 3.793451 1_565
Cl10 Cs3 3.827323 1_655
Cl10 Cs5 3.827324 1_555
Cl11 In1 2.658242 1_555
Cl11 In0 2.658242 1_555
Cl11 Cs2 3.793451 1_655
Cl11 Cs1 3.793451 1_556
Cl11 Cs4 3.827323 1_555
Cl11 Cs5 3.827324 1_556
Cl12 In0 2.658242 1_555
Cl12 In1 2.658242 1_555
Cl12 Cs0 3.793451 1_565
Cl12 Cs1 3.793451 1_556
Cl12 Cs3 3.827323 1_555
Cl12 Cs4 3.827323 1_565
Cl13 In2 2.658242 1_555
Cl13 In3 2.658242 1_555
Cl13 Cs5 3.793451 1_455
Cl13 Cs3 3.793451 1_545
Cl13 Cs0 3.827323 1_455
Cl13 Cs2 3.827324 1_555
Cl14 In3 2.658242 1_555
Cl14 In2 2.658242 1_555
Cl14 Cs5 3.793451 1_455
Cl14 Cs4 3.793451 1_554
Cl14 Cs1 3.827323 1_555
Cl14 Cs2 3.827324 1_554
Cl15 In2 2.658242 1_555
Cl15 In3 2.658242 1_555
Cl15 Cs4 3.793451 1_554
Cl15 Cs3 3.793451 1_545
Cl15 Cs0 3.827323 1_555
Cl15 Cs1 3.827323 1_545
Cl16 In0 2.445127 1_555
Cl16 Cs4 3.664135 1_555
Cl16 Cs2 3.669421 1_655
Cl16 Cs5 3.675750 1_555
Cl16 Cs0 3.826666 1_555
Cl17 In0 2.445127 1_555
Cl17 Cs3 3.664135 1_555
Cl17 Cs1 3.669421 1_556
Cl17 Cs4 3.675750 1_555
Cl17 Cs2 3.826666 1_555
