# generated using pymatgen
data_NbSi2
_symmetry_space_group_name_H-M   'P 1'
_cell_length_a   4.80627486
_cell_length_b   4.80615456
_cell_length_c   6.58636151
_cell_angle_alpha   90.00000000
_cell_angle_beta   90.00000000
_cell_angle_gamma   120.00082292
_symmetry_Int_Tables_number   1
_chemical_formula_structural   NbSi2
_chemical_formula_sum   'Nb3 Si6'
_cell_volume   131.75858784
_cell_formula_units_Z   3
loop_
 _symmetry_equiv_pos_site_id
 _symmetry_equiv_pos_as_xyz
  1  'x, y, z'
loop_
 _atom_site_type_symbol
 _atom_site_label
 _atom_site_symmetry_multiplicity
 _atom_site_fract_x
 _atom_site_fract_y
 _atom_site_fract_z
 _atom_site_occupancy
  Nb  Nb0  1  0.00000000  0.50000000  0.16673284  1
  Nb  Nb1  1  0.50000000  0.50000000  0.83326720  1
  Nb  Nb2  1  0.50000000  0.00000000  0.49999996  1
  Si  Si0  1  0.84184306  0.68368602  0.50000000  1
  Si  Si1  1  0.15813842  0.84183762  0.83334243  1
  Si  Si2  1  0.68369926  0.84183771  0.16665757  1
  Si  Si3  1  0.15815694  0.31631398  0.50000000  1
  Si  Si4  1  0.84186158  0.15816238  0.83334243  1
  Si  Si5  1  0.31630074  0.15816229  0.16665757  1
loop_
_geom_bond_atom_site_label_1
_geom_bond_atom_site_label_2
_geom_bond_distance
_geom_bond_site_symmetry_2
Nb0 Si0 2.616561 1_455
Nb0 Si3 2.616561 1_555
Nb0 Si4 2.617214 1_454
Nb0 Si1 2.617214 1_554
Nb0 Si2 2.740069 1_455
Nb0 Si5 2.740069 1_555
Nb0 Si2 2.740103 1_445
Nb0 Si5 2.740103 1_565
Nb0 Si2 2.845776 1_555
Nb0 Si5 2.845776 1_455
Nb1 Si3 2.616562 1_555
Nb1 Si0 2.616562 1_555
Nb1 Si5 2.617214 1_556
Nb1 Si2 2.617214 1_556
Nb1 Si4 2.740069 1_455
Nb1 Si1 2.740069 1_655
Nb1 Si1 2.740104 1_545
Nb1 Si4 2.740104 1_565
Nb1 Si4 2.845776 1_555
Nb1 Si1 2.845776 1_555
Nb2 Si5 2.617022 1_555
Nb2 Si2 2.617022 1_545
Nb2 Si4 2.617022 1_555
Nb2 Si1 2.617022 1_545
Nb2 Si3 2.740149 1_655
Nb2 Si0 2.740149 1_445
Nb2 Si3 2.740150 1_555
Nb2 Si0 2.740150 1_545
Nb2 Si0 2.845650 1_555
Nb2 Si3 2.845650 1_545
Si0 Si1 2.559983 1_655
Si0 Si2 2.559983 1_555
Si0 Si3 2.633135 1_665
Si0 Si3 2.848361 1_655
Si0 Si3 2.848362 1_555
Si1 Si5 2.559875 1_566
Si1 Si4 2.633091 1_465
Si1 Si4 2.848256 1_455
Si1 Si4 2.848525 1_565
Si2 Si4 2.559875 1_564
Si2 Si5 2.633091 1_665
Si2 Si5 2.848256 1_555
Si2 Si5 2.848524 1_565
Si3 Si4 2.559983 1_455
Si3 Si5 2.559983 1_555
