# generated using pymatgen
data_MgFe8(OF)8
_symmetry_space_group_name_H-M   'P 1'
_cell_length_a   5.19049236
_cell_length_b   5.09508208
_cell_length_c   11.82666056
_cell_angle_alpha   89.74973561
_cell_angle_beta   88.24924890
_cell_angle_gamma   87.41983788
_symmetry_Int_Tables_number   1
_chemical_formula_structural   MgFe8(OF)8
_chemical_formula_sum   'Mg1 Fe8 O8 F8'
_cell_volume   312.30334689
_cell_formula_units_Z   1
loop_
 _symmetry_equiv_pos_site_id
 _symmetry_equiv_pos_as_xyz
  1  'x, y, z'
loop_
 _atom_site_type_symbol
 _atom_site_label
 _atom_site_symmetry_multiplicity
 _atom_site_fract_x
 _atom_site_fract_y
 _atom_site_fract_z
 _atom_site_occupancy
  Mg  Mg0  1  0.50191999  0.01388634  0.36693068  1
  Fe  Fe0  1  0.93183303  0.91938621  0.99534515  1
  Fe  Fe1  1  0.04654701  0.03597628  0.23633986  1
  Fe  Fe2  1  0.95912834  0.91685481  0.50831160  1
  Fe  Fe3  1  0.09711222  0.05869727  0.75066371  1
  Fe  Fe4  1  0.55446008  0.43205106  0.12021354  1
  Fe  Fe5  1  0.46632218  0.54679172  0.62318927  1
  Fe  Fe6  1  0.45436981  0.54883679  0.87548224  1
  Fe  Fe7  1  0.44836368  0.52730981  0.37172235  1
  O  O0  1  0.17073964  0.83157255  0.37674017  1
  O  O1  1  0.17739783  0.80262273  0.62831052  1
  O  O2  1  0.18170177  0.81891712  0.87348358  1
  O  O3  1  0.37176849  0.27806655  0.24931097  1
  O  O4  1  0.34049625  0.33005043  0.74865335  1
  O  O5  1  0.66791038  0.66845654  0.99603468  1
  O  O6  1  0.64641629  0.73109699  0.49399700  1
  O  O7  1  0.83696710  0.17957450  0.10990586  1
  F  F0  1  0.17130876  0.75871404  0.11098642  1
  F  F1  1  0.34150500  0.29929602  0.99564752  1
  F  F2  1  0.35099394  0.28302731  0.50710933  1
  F  F3  1  0.65852711  0.73423546  0.24745953  1
  F  F4  1  0.66442541  0.70087644  0.74496068  1
  F  F5  1  0.81079817  0.20634595  0.39119434  1
  F  F6  1  0.85069343  0.19902500  0.62485643  1
  F  F7  1  0.82607206  0.17833209  0.86565222  1
loop_
_geom_bond_atom_site_label_1
_geom_bond_atom_site_label_2
_geom_bond_distance
_geom_bond_site_symmetry_2
Mg0 O0 1.990448 1_545
Mg0 O3 2.040183 1_555
Mg0 O6 2.202157 1_545
Fe0 O5 1.915243 1_555
Fe0 O7 1.936935 1_566
Fe0 O2 1.963074 1_655
Fe1 O7 1.993173 1_455
Fe1 O0 2.060865 1_545
Fe1 O3 2.144637 1_555
Fe2 O1 1.915208 1_655
Fe2 O0 1.917033 1_655
Fe2 O6 1.927558 1_555
Fe3 O4 1.913914 1_555
Fe3 O2 1.941751 1_545
Fe3 O1 1.974979 1_545
Fe4 O7 1.907998 1_555
Fe4 O3 1.952916 1_555
Fe4 O5 1.987462 1_554
Fe5 O1 1.941868 1_555
Fe5 O4 1.959383 1_555
Fe5 O6 2.017268 1_555
Fe6 O2 1.929662 1_555
Fe6 O5 1.948756 1_555
Fe6 O4 1.992479 1_555
Fe7 O3 1.990808 1_555
Fe7 O0 2.068266 1_555
Fe7 O6 2.103834 1_555
F0 Fe0 2.021918 1_454
F0 Fe1 2.118989 1_565
F0 Fe4 2.539845 1_555
F1 Fe6 1.994946 1_555
F1 Fe4 2.006273 1_556
F2 Fe5 2.046424 1_555
F2 Fe7 2.087605 1_555
F2 Mg0 2.255299 1_555
F3 Fe7 2.110292 1_555
F3 Mg0 2.128492 1_565
F3 Fe4 2.252067 1_555
F3 Fe1 2.588041 1_665
F4 Fe5 1.980080 1_555
F4 Fe6 2.033320 1_555
F5 Mg0 1.945861 1_555
F5 Fe2 2.152188 1_545
F5 Fe1 2.320823 1_655
F5 Fe7 2.452045 1_555
F6 Fe2 2.044644 1_545
F6 Fe3 2.094175 1_655
F6 Fe5 2.608480 1_555
F7 Fe3 2.003314 1_655
F7 Fe0 2.088838 1_545
