# generated using pymatgen
data_Na3Ti2Zn2P3(SO8)3
_symmetry_space_group_name_H-M   'P 1'
_cell_length_a   8.73547374
_cell_length_b   8.72466435
_cell_length_c   22.32541699
_cell_angle_alpha   90.17775070
_cell_angle_beta   89.82354731
_cell_angle_gamma   119.97056443
_symmetry_Int_Tables_number   1
_chemical_formula_structural   Na3Ti2Zn2P3(SO8)3
_chemical_formula_sum   'Na9 Ti6 Zn6 P9 S9 O72'
_cell_volume   1473.97926740
_cell_formula_units_Z   3
loop_
 _symmetry_equiv_pos_site_id
 _symmetry_equiv_pos_as_xyz
  1  'x, y, z'
loop_
 _atom_site_type_symbol
 _atom_site_label
 _atom_site_symmetry_multiplicity
 _atom_site_fract_x
 _atom_site_fract_y
 _atom_site_fract_z
 _atom_site_occupancy
  Na  Na0  1  0.66484216  0.69402037  0.08143230  1
  Na  Na1  1  0.33229541  0.29643924  0.91716318  1
  Na  Na2  1  0.33122557  0.03553610  0.41694020  1
  Na  Na3  1  0.98795162  0.99974913  0.49913080  1
  Na  Na4  1  0.00190137  0.99683666  0.99835533  1
  Na  Na5  1  0.68249670  0.33600890  0.83326639  1
  Na  Na6  1  0.68092795  0.34490369  0.33275834  1
  Na  Na7  1  0.31709963  0.66107182  0.16379251  1
  Na  Na8  1  0.33419534  0.67060639  0.66242602  1
  Ti  Ti0  1  0.00789129  0.99981379  0.65200197  1
  Ti  Ti1  1  0.01408119  0.00570113  0.15229106  1
  Ti  Ti2  1  0.65843403  0.32352666  0.68656971  1
  Ti  Ti3  1  0.66911582  0.34186449  0.18640727  1
  Ti  Ti4  1  0.33213715  0.66208294  0.30877746  1
  Ti  Ti5  1  0.33296578  0.67129260  0.80831903  1
  Zn  Zn0  1  0.99485344  0.00065110  0.34387235  1
  Zn  Zn1  1  0.99311808  0.99396894  0.84335783  1
  Zn  Zn2  1  0.67244086  0.33849280  0.98696211  1
  Zn  Zn3  1  0.66642775  0.33404624  0.48593474  1
  Zn  Zn4  1  0.31689653  0.65949650  0.02165563  1
  Zn  Zn5  1  0.33478452  0.67310432  0.52129158  1
  P  P0  1  0.29847088  0.00344220  0.25312602  1
  P  P1  1  0.70900363  0.70898786  0.24995853  1
  P  P2  1  0.99561401  0.29060596  0.25102918  1
  P  P3  1  0.29411095  0.29298394  0.75239718  1
  P  P4  1  0.99494653  0.70304539  0.75060505  1
  P  P5  1  0.71064455  0.00159677  0.75018194  1
  P  P6  1  0.37081131  0.04059110  0.58199728  1
  P  P7  1  0.95939048  0.62885583  0.08456417  1
  P  P8  1  0.37147367  0.32701971  0.08206689  1
  S  S0  1  0.95684711  0.32803992  0.58459060  1
  S  S1  1  0.67164289  0.62803642  0.58477051  1
  S  S2  1  0.67239753  0.04454575  0.08446289  1
  S  S3  1  0.62584193  0.67174958  0.91674300  1
  S  S4  1  0.04049468  0.37579227  0.91512315  1
  S  S5  1  0.33368116  0.95581858  0.91625665  1
  S  S6  1  0.62619056  0.95483880  0.41611869  1
  S  S7  1  0.33275195  0.37903254  0.41683005  1
  S  S8  1  0.04059166  0.66334913  0.41628273  1
  O  O0  1  0.23019833  0.03960354  0.31090585  1
  O  O1  1  0.81951461  0.77951045  0.30560622  1
  O  O2  1  0.95898345  0.18491816  0.30769296  1
  O  O3  1  0.22874435  0.18984965  0.81028730  1
  O  O4  1  0.95650094  0.77256470  0.80710563  1
  O  O5  1  0.81733722  0.04353108  0.80689834  1
  O  O6  1  0.80054851  0.96886989  0.69562814  1
  O  O7  1  0.16849402  0.19693722  0.69858228  1
  O  O8  1  0.02947588  0.82834477  0.69588379  1
  O  O9  1  0.79250800  0.82433231  0.19334618  1
  O  O10  1  0.02859612  0.19853423  0.19638673  1
  O  O11  1  0.17062766  0.97212474  0.19913197  1
  O  O12  1  0.86379988  0.34887164  0.63751287  1
  O  O13  1  0.49579309  0.14979478  0.63549170  1
  O  O14  1  0.65475287  0.51616878  0.63753036  1
  O  O15  1  0.85811731  0.50881463  0.13928403  1
  O  O16  1  0.65246582  0.13449785  0.13760538  1
  O  O17  1  0.49857575  0.34839850  0.13468893  1
  O  O18  1  0.43765167  0.29295891  0.02250617  1
  O  O19  1  0.84401399  0.55916125  0.02835023  1
  O  O20  1  0.69969843  0.14482524  0.02892364  1
  O  O21  1  0.43936561  0.14245794  0.52301820  1
  O  O22  1  0.70289885  0.55675466  0.52914837  1
  O  O23  1  0.85515890  0.29984379  0.52915917  1
  O  O24  1  0.54509046  0.68630764  0.97339569  1
  O  O25  1  0.14856449  0.45495492  0.96941658  1
  O  O26  1  0.31679993  0.85528863  0.97068984  1
  O  O27  1  0.54381477  0.85526614  0.47120556  1
  O  O28  1  0.31548959  0.46300121  0.47138945  1
  O  O29  1  0.14869108  0.69083226  0.47031741  1
  O  O30  1  0.13548001  0.64843984  0.36152688  1
  O  O31  1  0.51034812  0.85993780  0.36239369  1
  O  O32  1  0.34508901  0.48621998  0.36194072  1
  O  O33  1  0.13591296  0.48628447  0.86084244  1
  O  O34  1  0.34475492  0.85959334  0.86122923  1
  O  O35  1  0.50841009  0.65371171  0.86410336  1
  O  O36  1  0.02557061  0.82536621  0.41074544  1
  O  O37  1  0.80242860  0.97564635  0.41032209  1
  O  O38  1  0.17655931  0.19852872  0.41227254  1
  O  O39  1  0.02604506  0.19894813  0.90955382  1
  O  O40  1  0.17701168  0.97939021  0.91182826  1
  O  O41  1  0.80204897  0.82781773  0.91099002  1
  O  O42  1  0.97366095  0.16650292  0.59298982  1
  O  O43  1  0.18607843  0.02439483  0.59489825  1
  O  O44  1  0.83090450  0.80815754  0.59310349  1
  O  O45  1  0.97459202  0.81410583  0.09569667  1
  O  O46  1  0.83102464  0.02120461  0.09142268  1
  O  O47  1  0.18578771  0.16383039  0.09462586  1
  O  O48  1  0.67920545  0.15953827  0.73765385  1
  O  O49  1  0.48074009  0.32064970  0.73870188  1
  O  O50  1  0.83913093  0.51697701  0.73703267  1
  O  O51  1  0.67712348  0.51829877  0.23929926  1
  O  O52  1  0.83859941  0.31966389  0.23821302  1
  O  O53  1  0.48230782  0.16061821  0.23870613  1
  O  O54  1  0.63260382  0.50384096  0.91606079  1
  O  O55  1  0.86698488  0.36360334  0.91819736  1
  O  O56  1  0.49635240  0.13269123  0.91599837  1
  O  O57  1  0.63345755  0.13010769  0.41718309  1
  O  O58  1  0.49569829  0.36436750  0.41659735  1
  O  O59  1  0.86671483  0.50160089  0.41901855  1
  O  O60  1  0.36352573  0.49936498  0.08197046  1
  O  O61  1  0.14110539  0.64713190  0.08238664  1
  O  O62  1  0.51528887  0.86444792  0.08207339  1
  O  O63  1  0.35446076  0.85827828  0.58267812  1
  O  O64  1  0.51102921  0.64235315  0.58269216  1
  O  O65  1  0.13379176  0.48611385  0.58247356  1
  O  O66  1  0.31213169  0.83183903  0.25740244  1
  O  O67  1  0.52035655  0.68809119  0.25760962  1
  O  O68  1  0.16666618  0.47811917  0.25648642  1
  O  O69  1  0.31241641  0.48006162  0.75726785  1
  O  O70  1  0.16674915  0.68825727  0.75648214  1
  O  O71  1  0.52192548  0.83300552  0.75709733  1
loop_
_geom_bond_atom_site_label_1
_geom_bond_atom_site_label_2
_geom_bond_distance
_geom_bond_site_symmetry_2
Na0 O60 2.312203 1_555
Na0 O45 2.385663 1_555
Na0 O62 2.420422 1_555
Na0 O46 2.482642 1_565
Na0 O24 2.619274 1_554
Na0 O19 2.656754 1_555
Na0 O9 2.740745 1_555
Na0 O17 2.872606 1_555
Na1 O54 2.326795 1_555
Na1 O39 2.374382 1_555
Na1 O40 2.399137 1_545
Na1 O56 2.478036 1_555
Na1 O18 2.533915 1_556
Na1 O3 2.556435 1_555
Na1 O25 2.836493 1_555
Na1 O35 2.950719 1_555
Na2 O57 2.339823 1_555
Na2 O36 2.370584 1_545
Na2 O38 2.404146 1_555
Na2 O58 2.485343 1_555
Na2 O0 2.535489 1_555
Na2 O21 2.547698 1_555
Na2 O29 2.868201 1_545
Na2 O31 2.941126 1_545
Na3 O37 2.505682 1_555
Na3 O38 2.574667 1_665
Na3 O42 2.585351 1_565
Na3 O44 2.605879 1_555
Na3 O36 2.606402 1_655
Na3 O43 2.694631 1_665
Na4 O40 2.511442 1_555
Na4 O41 2.541200 1_455
Na4 O39 2.594585 1_565
Na4 O46 2.624054 1_466
Na4 O45 2.638114 1_456
Na4 O47 2.643105 1_566
Na5 O55 2.424623 1_555
Na5 O56 2.514395 1_555
Na5 O54 2.523209 1_555
Na5 O50 2.612555 1_555
Na5 O48 2.619842 1_555
Na5 O49 2.714126 1_555
Na6 O59 2.449036 1_555
Na6 O58 2.530672 1_555
Na6 O57 2.545022 1_555
Na6 O52 2.585171 1_555
Na6 O51 2.591040 1_555
Na6 O53 2.686778 1_555
Na7 O61 2.347426 1_555
Na7 O60 2.458235 1_555
Na7 O62 2.530942 1_555
Na7 O68 2.542697 1_555
Na7 O66 2.575649 1_555
Na7 O67 2.682675 1_555
Na8 O63 2.368273 1_555
Na8 O64 2.444678 1_555
Na8 O65 2.455156 1_555
Na8 O70 2.603217 1_555
Na8 O71 2.616360 1_555
Na8 O69 2.643213 1_555
O0 P0 1.516557 1_555
O0 Zn0 2.043985 1_455
O1 P1 1.504380 1_555
O1 Zn0 1.960521 1_565
O2 P2 1.504302 1_555
O2 Zn0 1.961660 1_555
O3 P3 1.515055 1_555
O3 Zn1 2.046059 1_445
O4 P4 1.505974 1_555
O4 Zn1 1.965527 1_555
O5 P5 1.506491 1_555
O5 Zn1 1.969938 1_545
O6 P5 1.548442 1_565
O6 Ti0 1.950462 1_655
O7 P3 1.559789 1_555
O7 Ti0 1.895977 1_545
O8 P4 1.566881 1_455
O8 Ti0 1.877611 1_555
O9 P1 1.552752 1_555
O9 Ti1 2.007088 1_665
O10 P2 1.561882 1_455
O10 Ti1 1.895540 1_555
O11 P0 1.573626 1_565
O11 Ti1 1.860222 1_565
O12 S0 1.493324 1_555
O12 Ti2 2.014888 1_555
O13 P6 1.577258 1_555
O13 Ti2 1.861200 1_555
O14 S1 1.491296 1_555
O14 Ti2 2.022421 1_555
O15 P7 1.564451 1_555
O15 Ti3 1.884251 1_555
O16 S2 1.477604 1_555
O16 Ti3 2.051164 1_555
O17 P8 1.564445 1_555
O17 Ti3 1.910924 1_555
O18 P8 1.534636 1_555
O18 Zn2 2.042538 1_554
O19 P7 1.533400 1_555
O19 Zn2 1.980218 1_554
O20 S2 1.468407 1_555
O20 Zn2 2.050001 1_554
O21 P6 1.533929 1_555
O21 Zn3 2.024762 1_555
O22 S1 1.471777 1_555
O22 Zn3 2.044384 1_555
O23 S0 1.472284 1_555
O23 Zn3 2.059480 1_555
O24 S3 1.482044 1_555
O24 Zn4 2.170620 1_556
O25 S4 1.479153 1_555
O25 Zn4 2.020624 1_556
O26 S5 1.464286 1_555
O26 Zn4 2.055769 1_556
O27 S6 1.470243 1_555
O27 Zn5 2.051689 1_555
O28 S7 1.465203 1_555
O28 Zn5 2.075950 1_555
O29 S8 1.477656 1_555
O29 Zn5 2.055561 1_555
O30 S8 1.516200 1_555
O30 Ti4 2.033789 1_555
O31 S6 1.520659 1_555
O31 Ti4 2.037127 1_555
O32 S7 1.514411 1_555
O32 Ti4 1.990301 1_555
O33 S4 1.513554 1_555
O33 Ti5 2.041268 1_555
O34 S5 1.515724 1_555
O34 Ti5 1.981061 1_555
O35 S3 1.517617 1_555
O35 Ti5 2.042354 1_555
O36 S8 1.488995 1_555
O36 Zn0 2.250855 1_465
O37 S6 1.462709 1_555
O37 Zn0 2.166607 1_565
O38 S7 1.484969 1_555
O38 Zn0 2.256680 1_455
O39 S4 1.488717 1_555
O39 Zn1 2.222014 1_445
O40 S5 1.485681 1_555
O40 Zn1 2.270216 1_455
O41 S3 1.464816 1_555
O41 Zn1 2.178932 1_555
O42 S0 1.500549 1_555
O42 Ti0 2.094980 1_645
O43 P6 1.573724 1_555
O43 Ti0 1.936510 1_545
O44 S1 1.501712 1_555
O44 Ti0 2.081190 1_655
O45 P7 1.573190 1_555
O45 Ti1 1.980690 1_665
O46 S2 1.506382 1_555
O46 Ti1 2.156998 1_655
O47 P8 1.558557 1_555
O47 Ti1 1.934475 1_555
O48 P5 1.559959 1_555
O48 Ti2 1.910866 1_555
O49 P3 1.553651 1_555
O49 Ti2 1.927383 1_555
O50 P4 1.540025 1_555
O50 Ti2 1.986668 1_555
O51 P1 1.561129 1_555
O51 Ti3 1.910616 1_555
O52 P2 1.541981 1_555
O52 Ti3 1.966111 1_555
O53 P0 1.537002 1_555
O53 Ti3 1.987039 1_555
O54 S3 1.495359 1_555
O54 Zn2 2.286248 1_555
O55 S4 1.466867 1_655
O55 Zn2 2.215164 1_555
O56 S5 1.486522 1_545
O56 Zn2 2.310405 1_555
O57 S6 1.498576 1_545
O57 Zn3 2.253568 1_555
O58 S7 1.491447 1_555
O58 Zn3 2.258645 1_555
O59 S8 1.469920 1_655
O59 Zn3 2.207267 1_555
O60 P8 1.539522 1_555
O60 Zn4 2.124762 1_555
O61 P7 1.514664 1_455
O61 Zn4 2.007648 1_555
O62 S2 1.483482 1_565
O62 Zn4 2.218908 1_555
O63 P6 1.524417 1_565
O63 Zn5 2.056242 1_555
O64 S1 1.470306 1_555
O64 Zn5 2.179298 1_555
O65 S0 1.470904 1_455
O65 Zn5 2.178805 1_555
O66 P0 1.563447 1_565
O66 Ti4 1.951923 1_555
O67 P1 1.573641 1_555
O67 Ti4 1.917568 1_555
O68 P2 1.575288 1_455
O68 Ti4 1.925919 1_555
O69 P3 1.561947 1_555
O69 Ti5 1.950668 1_555
O70 P4 1.575110 1_455
O70 Ti5 1.922390 1_555
O71 P5 1.575516 1_565
O71 Ti5 1.922116 1_555
