# generated using pymatgen
data_Li3BO3
_symmetry_space_group_name_H-M   'P 1'
_cell_length_a   9.12437898
_cell_length_b   3.22482194
_cell_length_c   8.24692384
_cell_angle_alpha   79.13891543
_cell_angle_beta   90.00000000
_cell_angle_gamma   90.00000000
_symmetry_Int_Tables_number   1
_chemical_formula_structural   Li3BO3
_chemical_formula_sum   'Li12 B4 O12'
_cell_volume   238.31477365
_cell_formula_units_Z   4
loop_
 _symmetry_equiv_pos_site_id
 _symmetry_equiv_pos_as_xyz
  1  'x, y, z'
loop_
 _atom_site_type_symbol
 _atom_site_label
 _atom_site_symmetry_multiplicity
 _atom_site_fract_x
 _atom_site_fract_y
 _atom_site_fract_z
 _atom_site_occupancy
  Li  Li0  1  0.76802767  0.48975311  0.98338514  1
  Li  Li1  1  0.26802767  0.51024689  0.51661486  1
  Li  Li2  1  0.23197233  0.51024689  0.01661486  1
  Li  Li3  1  0.73197233  0.48975311  0.48338514  1
  Li  Li4  1  0.52374709  0.27713257  0.88887253  1
  Li  Li5  1  0.02374709  0.72286743  0.61112747  1
  Li  Li6  1  0.47625291  0.72286743  0.11112747  1
  Li  Li7  1  0.97625291  0.27713257  0.38887253  1
  Li  Li8  1  0.57171739  0.90721483  0.63294919  1
  Li  Li9  1  0.07171739  0.09278517  0.86705081  1
  Li  Li10  1  0.42828261  0.09278517  0.36705081  1
  Li  Li11  1  0.92828261  0.90721483  0.13294919  1
  B  B0  1  0.81367292  0.19679621  0.74609364  1
  B  B1  1  0.31367292  0.80320379  0.75390636  1
  B  B2  1  0.18632708  0.80320379  0.25390636  1
  B  B3  1  0.68632708  0.19679621  0.24609364  1
  O  O0  1  0.86216918  0.02501444  0.90229786  1
  O  O1  1  0.36216918  0.97498556  0.59770214  1
  O  O2  1  0.13783082  0.97498556  0.09770214  1
  O  O3  1  0.63783082  0.02501444  0.40229786  1
  O  O4  1  0.90682260  0.22618937  0.61182515  1
  O  O5  1  0.40682260  0.77381063  0.88817485  1
  O  O6  1  0.09317740  0.77381063  0.38817485  1
  O  O7  1  0.59317740  0.22618937  0.11182515  1
  O  O8  1  0.67311214  0.36488859  0.72150288  1
  O  O9  1  0.17311214  0.63511141  0.77849712  1
  O  O10  1  0.32688786  0.63511141  0.27849712  1
  O  O11  1  0.82688786  0.36488859  0.22150288  1
loop_
_geom_bond_atom_site_label_1
_geom_bond_atom_site_label_2
_geom_bond_distance
_geom_bond_site_symmetry_2
Li0 O0 1.931200 1_565
Li0 O0 1.951622 1_555
Li0 O11 2.002212 1_556
Li0 O7 2.012562 1_556
Li1 O1 1.931200 1_545
Li1 O1 1.951622 1_555
Li1 O10 2.002212 1_555
Li1 O6 2.012562 1_555
Li2 O2 1.931200 1_545
Li2 O2 1.951622 1_555
Li2 O9 2.002212 1_554
Li2 O5 2.012562 1_554
Li3 O3 1.931200 1_565
Li3 O3 1.951622 1_555
Li3 O8 2.002212 1_555
Li3 O4 2.012562 1_555
Li4 O7 1.922292 1_556
Li4 O8 1.922359 1_555
Li4 O5 1.923589 1_555
Li4 O5 1.943265 1_545
Li5 O6 1.922292 1_555
Li5 O9 1.922359 1_555
Li5 O4 1.923589 1_455
Li5 O4 1.943265 1_465
Li6 O5 1.922292 1_554
Li6 O10 1.922359 1_555
Li6 O7 1.923589 1_555
Li6 O7 1.943265 1_565
Li7 O4 1.922292 1_555
Li7 O11 1.922359 1_555
Li7 O6 1.923589 1_655
Li7 O6 1.943265 1_645
Li8 O1 1.940116 1_555
Li8 O3 1.963193 1_565
Li8 O8 1.991633 1_555
Li8 O8 1.993436 1_565
Li9 O0 1.940116 1_455
Li9 O2 1.963193 1_546
Li9 O9 1.991633 1_555
Li9 O9 1.993436 1_545
Li10 O3 1.940116 1_555
Li10 O1 1.963193 1_545
Li10 O10 1.991633 1_555
Li10 O10 1.993436 1_545
Li11 O2 1.940116 1_655
Li11 O0 1.963193 1_564
Li11 O11 1.991633 1_555
Li11 O11 1.993436 1_565
B0 O0 1.375943 1_555
B0 O4 1.384895 1_555
B0 O8 1.392271 1_555
B1 O1 1.375943 1_555
B1 O5 1.384895 1_555
B1 O9 1.392271 1_555
B2 O2 1.375943 1_555
B2 O6 1.384895 1_555
B2 O10 1.392271 1_555
B3 O3 1.375943 1_555
B3 O7 1.384895 1_555
B3 O11 1.392271 1_555
