# generated using pymatgen
data_As(S2F3)2
_symmetry_space_group_name_H-M   'P 1'
_cell_length_a   13.69459400
_cell_length_b   15.46688000
_cell_length_c   16.65527727
_cell_angle_alpha   72.07952183
_cell_angle_beta   90.00000000
_cell_angle_gamma   90.00000000
_symmetry_Int_Tables_number   1
_chemical_formula_structural   As(S2F3)2
_chemical_formula_sum   'As16 S64 F96'
_cell_volume   3356.64534992
_cell_formula_units_Z   16
loop_
 _symmetry_equiv_pos_site_id
 _symmetry_equiv_pos_as_xyz
  1  'x, y, z'
loop_
 _atom_site_type_symbol
 _atom_site_label
 _atom_site_symmetry_multiplicity
 _atom_site_fract_x
 _atom_site_fract_y
 _atom_site_fract_z
 _atom_site_occupancy
  As  As0  1  0.03397900  0.31133700  0.41312700  1
  As  As1  1  0.53397900  0.68866300  0.08687300  1
  As  As2  1  0.96602100  0.68866300  0.58687300  1
  As  As3  1  0.46602100  0.31133700  0.91312700  1
  As  As4  1  0.03735400  0.99560900  0.74686700  1
  As  As5  1  0.53735400  0.00439100  0.75313300  1
  As  As6  1  0.96264600  0.00439100  0.25313300  1
  As  As7  1  0.46264600  0.99560900  0.24686700  1
  As  As8  1  0.05545700  0.26405100  0.93263000  1
  As  As9  1  0.55545700  0.73594900  0.56737000  1
  As  As10  1  0.94454300  0.73594900  0.06737000  1
  As  As11  1  0.44454300  0.26405100  0.43263000  1
  As  As12  1  0.22862000  0.62722700  0.36470900  1
  As  As13  1  0.72862000  0.37277300  0.13529100  1
  As  As14  1  0.77138000  0.37277300  0.63529100  1
  As  As15  1  0.27138000  0.62722700  0.86470900  1
  S  S0  1  0.17744900  0.83198600  0.63694800  1
  S  S1  1  0.67744900  0.16801400  0.86305200  1
  S  S2  1  0.82255100  0.16801400  0.36305200  1
  S  S3  1  0.32255100  0.83198600  0.13694800  1
  S  S4  1  0.30235400  0.88335300  0.67393200  1
  S  S5  1  0.80235400  0.11664700  0.82606800  1
  S  S6  1  0.69764600  0.11664700  0.32606800  1
  S  S7  1  0.19764600  0.88335300  0.17393200  1
  S  S8  1  0.34416200  0.98320400  0.56714900  1
  S  S9  1  0.84416200  0.01679600  0.93285100  1
  S  S10  1  0.65583800  0.01679600  0.43285100  1
  S  S11  1  0.15583800  0.98320400  0.06714900  1
  S  S12  1  0.21888300  0.05496800  0.52328500  1
  S  S13  1  0.71888300  0.94503200  0.97671500  1
  S  S14  1  0.78111700  0.94503200  0.47671500  1
  S  S15  1  0.28111700  0.05496800  0.02328500  1
  S  S16  1  0.22658100  0.05623900  0.40008900  1
  S  S17  1  0.72658100  0.94376100  0.09991100  1
  S  S18  1  0.77341900  0.94376100  0.59991100  1
  S  S19  1  0.27341900  0.05623900  0.90008900  1
  S  S20  1  0.17491400  0.92591500  0.42138800  1
  S  S21  1  0.67491400  0.07408500  0.07861200  1
  S  S22  1  0.82508600  0.07408500  0.57861200  1
  S  S23  1  0.32508600  0.92591500  0.92138800  1
  S  S24  1  0.30103600  0.85570500  0.46625800  1
  S  S25  1  0.80103600  0.14429500  0.03374200  1
  S  S26  1  0.69896400  0.14429500  0.53374200  1
  S  S27  1  0.19896400  0.85570500  0.96625800  1
  S  S28  1  0.26019800  0.76093800  0.57636400  1
  S  S29  1  0.76019800  0.23906200  0.92363600  1
  S  S30  1  0.73980200  0.23906200  0.42363600  1
  S  S31  1  0.23980200  0.76093800  0.07636400  1
  S  S32  1  0.13610700  0.45654700  0.06787100  1
  S  S33  1  0.63610700  0.54345300  0.43212900  1
  S  S34  1  0.86389300  0.54345300  0.93212900  1
  S  S35  1  0.36389300  0.45654700  0.56787100  1
  S  S36  1  0.06794500  0.34674700  0.15273400  1
  S  S37  1  0.56794500  0.65325300  0.34726600  1
  S  S38  1  0.93205500  0.65325300  0.84726600  1
  S  S39  1  0.43205500  0.34674700  0.65273400  1
  S  S40  1  0.18491200  0.27334200  0.21358500  1
  S  S41  1  0.68491200  0.72665800  0.28641500  1
  S  S42  1  0.81508800  0.72665800  0.78641500  1
  S  S43  1  0.31508800  0.27334200  0.71358500  1
  S  S44  1  0.27675500  0.26693700  0.11795000  1
  S  S45  1  0.77675500  0.73306300  0.38205000  1
  S  S46  1  0.72324500  0.73306300  0.88205000  1
  S  S47  1  0.22324500  0.26693700  0.61795000  1
  S  S48  1  0.40543000  0.29506800  0.16792500  1
  S  S49  1  0.90543000  0.70493200  0.33207500  1
  S  S50  1  0.59457000  0.70493200  0.83207500  1
  S  S51  1  0.09457000  0.29506800  0.66792500  1
  S  S52  1  0.37967600  0.43352100  0.12762900  1
  S  S53  1  0.87967600  0.56647900  0.37237100  1
  S  S54  1  0.62032400  0.56647900  0.87237100  1
  S  S55  1  0.12032400  0.43352100  0.62762900  1
  S  S56  1  0.28549600  0.44013600  0.22080600  1
  S  S57  1  0.78549600  0.55986400  0.27919400  1
  S  S58  1  0.71450400  0.55986400  0.77919400  1
  S  S59  1  0.21450400  0.44013600  0.72080600  1
  S  S60  1  0.16978000  0.51690600  0.15835700  1
  S  S61  1  0.66978000  0.48309400  0.34164300  1
  S  S62  1  0.83022000  0.48309400  0.84164300  1
  S  S63  1  0.33022000  0.51690600  0.65835700  1
  F  F0  1  0.03766500  0.39041900  0.46992500  1
  F  F1  1  0.53766500  0.60958100  0.03007500  1
  F  F2  1  0.96233500  0.60958100  0.53007500  1
  F  F3  1  0.46233500  0.39041900  0.96992500  1
  F  F4  1  0.13422400  0.25040500  0.47295000  1
  F  F5  1  0.63422400  0.74959500  0.02705000  1
  F  F6  1  0.86577600  0.74959500  0.52705000  1
  F  F7  1  0.36577600  0.25040500  0.97295000  1
  F  F8  1  0.11588600  0.37885300  0.33697700  1
  F  F9  1  0.61588600  0.62114700  0.16302300  1
  F  F10  1  0.88411400  0.62114700  0.66302300  1
  F  F11  1  0.38411400  0.37885300  0.83697700  1
  F  F12  1  0.95274000  0.24010400  0.48789700  1
  F  F13  1  0.45274000  0.75989600  0.01210300  1
  F  F14  1  0.04726000  0.75989600  0.51210300  1
  F  F15  1  0.54726000  0.24010400  0.98789700  1
  F  F16  1  0.93266700  0.36904600  0.35372100  1
  F  F17  1  0.43266700  0.63095400  0.14627900  1
  F  F18  1  0.06733300  0.63095400  0.64627900  1
  F  F19  1  0.56733300  0.36904600  0.85372100  1
  F  F20  1  0.03158500  0.23174500  0.35462500  1
  F  F21  1  0.53158500  0.76825500  0.14537500  1
  F  F22  1  0.96841500  0.76825500  0.64537500  1
  F  F23  1  0.46841500  0.23174500  0.85462500  1
  F  F24  1  0.05252200  0.99014900  0.85421900  1
  F  F25  1  0.55252200  0.00985100  0.64578100  1
  F  F26  1  0.94747800  0.00985100  0.14578100  1
  F  F27  1  0.44747800  0.99014900  0.35421900  1
  F  F28  1  0.15780700  0.04044300  0.72381600  1
  F  F29  1  0.65780700  0.95955700  0.77618400  1
  F  F30  1  0.84219300  0.95955700  0.27618400  1
  F  F31  1  0.34219300  0.04044300  0.22381600  1
  F  F32  1  0.91693700  0.95162700  0.76887100  1
  F  F33  1  0.41693700  0.04837300  0.73112900  1
  F  F34  1  0.08306300  0.04837300  0.23112900  1
  F  F35  1  0.58306300  0.95162700  0.26887100  1
  F  F36  1  0.08511500  0.88393300  0.76993500  1
  F  F37  1  0.58511500  0.11606700  0.73006500  1
  F  F38  1  0.91488500  0.11606700  0.23006500  1
  F  F39  1  0.41488500  0.88393300  0.26993500  1
  F  F40  1  0.99066700  0.10777800  0.72387500  1
  F  F41  1  0.49066700  0.89222200  0.77612500  1
  F  F42  1  0.00933300  0.89222200  0.27612500  1
  F  F43  1  0.50933300  0.10777800  0.22387500  1
  F  F44  1  0.02213700  0.00088900  0.63938800  1
  F  F45  1  0.52213700  0.99911100  0.86061200  1
  F  F46  1  0.97786300  0.99911100  0.36061200  1
  F  F47  1  0.47786300  0.00088900  0.13938800  1
  F  F48  1  0.00175600  0.15934600  0.93224100  1
  F  F49  1  0.50175600  0.84065400  0.56775900  1
  F  F50  1  0.99824400  0.84065400  0.06775900  1
  F  F51  1  0.49824400  0.15934600  0.43224100  1
  F  F52  1  0.15993700  0.23954200  0.88018700  1
  F  F53  1  0.65993700  0.76045800  0.61981300  1
  F  F54  1  0.84006300  0.76045800  0.11981300  1
  F  F55  1  0.34006300  0.23954200  0.38018700  1
  F  F56  1  0.10946200  0.20737600  0.03222000  1
  F  F57  1  0.60946200  0.79262400  0.46778000  1
  F  F58  1  0.89053800  0.79262400  0.96778000  1
  F  F59  1  0.39053800  0.20737600  0.53222000  1
  F  F60  1  0.00072500  0.32065900  0.83398800  1
  F  F61  1  0.50072500  0.67934100  0.66601200  1
  F  F62  1  0.99927500  0.67934100  0.16601200  1
  F  F63  1  0.49927500  0.32065900  0.33398800  1
  F  F64  1  0.94955100  0.28767400  0.98514400  1
  F  F65  1  0.44955100  0.71232600  0.51485600  1
  F  F66  1  0.05044900  0.71232600  0.01485600  1
  F  F67  1  0.55044900  0.28767400  0.48514400  1
  F  F68  1  0.10767600  0.36768200  0.93554900  1
  F  F69  1  0.60767600  0.63231800  0.56445100  1
  F  F70  1  0.89232400  0.63231800  0.06445100  1
  F  F71  1  0.39232400  0.36768200  0.43554900  1
  F  F72  1  0.21134800  0.74707000  0.33903900  1
  F  F73  1  0.71134800  0.25293000  0.16096100  1
  F  F74  1  0.78865200  0.25293000  0.66096100  1
  F  F75  1  0.28865200  0.74707000  0.83903900  1
  F  F76  1  0.10055500  0.61195700  0.36935900  1
  F  F77  1  0.60055500  0.38804300  0.13064100  1
  F  F78  1  0.89944500  0.38804300  0.63064100  1
  F  F79  1  0.39944500  0.61195700  0.86935900  1
  F  F80  1  0.22629000  0.63719600  0.25465500  1
  F  F81  1  0.72629000  0.36280400  0.24534500  1
  F  F82  1  0.77371000  0.36280400  0.74534500  1
  F  F83  1  0.27371000  0.63719600  0.75465500  1
  F  F84  1  0.23193600  0.61755500  0.47428300  1
  F  F85  1  0.73193600  0.38244500  0.02571700  1
  F  F86  1  0.76806400  0.38244500  0.52571700  1
  F  F87  1  0.26806400  0.61755500  0.97428300  1
  F  F88  1  0.35678300  0.64485300  0.35881700  1
  F  F89  1  0.85678300  0.35514700  0.14118300  1
  F  F90  1  0.64321700  0.35514700  0.64118300  1
  F  F91  1  0.14321700  0.64485300  0.85881700  1
  F  F92  1  0.24681100  0.50914400  0.38928000  1
  F  F93  1  0.74681100  0.49085600  0.11072000  1
  F  F94  1  0.75318900  0.49085600  0.61072000  1
  F  F95  1  0.25318900  0.50914400  0.88928000  1
loop_
_geom_bond_atom_site_label_1
_geom_bond_atom_site_label_2
_geom_bond_distance
_geom_bond_site_symmetry_2
As0 F0 1.762272 1_555
As0 F8 1.772622 1_555
As0 F16 1.776832 1_455
As0 F12 1.777094 1_455
As0 F4 1.785408 1_555
As0 F20 1.789994 1_555
As1 F1 1.762272 1_555
As1 F9 1.772622 1_555
As1 F17 1.776832 1_555
As1 F13 1.777094 1_555
As1 F5 1.785408 1_555
As1 F21 1.789994 1_555
As2 F2 1.762272 1_555
As2 F10 1.772622 1_555
As2 F18 1.776832 1_655
As2 F14 1.777094 1_655
As2 F6 1.785408 1_555
As2 F22 1.789994 1_555
As3 F3 1.762272 1_555
As3 F11 1.772622 1_555
As3 F19 1.776832 1_555
As3 F15 1.777094 1_555
As3 F7 1.785408 1_555
As3 F23 1.789994 1_555
As4 F36 1.774970 1_555
As4 F24 1.776013 1_555
As4 F40 1.776646 1_465
As4 F32 1.778498 1_455
As4 F44 1.778922 1_565
As4 F28 1.784784 1_565
As5 F37 1.774970 1_555
As5 F25 1.776013 1_555
As5 F41 1.776646 1_545
As5 F33 1.778498 1_555
As5 F45 1.778922 1_545
As5 F29 1.784784 1_545
As6 F38 1.774970 1_555
As6 F26 1.776013 1_555
As6 F42 1.776646 1_645
As6 F34 1.778498 1_655
As6 F46 1.778922 1_545
As6 F30 1.784784 1_545
As7 F39 1.774970 1_555
As7 F27 1.776013 1_555
As7 F43 1.776646 1_565
As7 F35 1.778498 1_555
As7 F47 1.778922 1_565
As7 F31 1.784784 1_565
As8 F68 1.769416 1_555
As8 F60 1.772661 1_555
As8 F52 1.776964 1_555
As8 F48 1.780444 1_555
As8 F56 1.780978 1_556
As8 F64 1.788472 1_455
As9 F69 1.769416 1_555
As9 F61 1.772661 1_555
As9 F53 1.776964 1_555
As9 F49 1.780444 1_555
As9 F57 1.780978 1_555
As9 F65 1.788472 1_555
As10 F70 1.769416 1_555
As10 F62 1.772661 1_555
As10 F54 1.776964 1_555
As10 F50 1.780444 1_555
As10 F58 1.780978 1_554
As10 F66 1.788472 1_655
As11 F71 1.769416 1_555
As11 F63 1.772661 1_555
As11 F55 1.776964 1_555
As11 F51 1.780444 1_555
As11 F59 1.780978 1_555
As11 F67 1.788472 1_555
As12 F92 1.762165 1_555
As12 F76 1.768143 1_555
As12 F88 1.774262 1_555
As12 F72 1.785181 1_555
As12 F84 1.785218 1_555
As12 F80 1.791837 1_555
As13 F93 1.762165 1_555
As13 F77 1.768143 1_555
As13 F89 1.774262 1_555
As13 F73 1.785181 1_555
As13 F85 1.785218 1_555
As13 F81 1.791837 1_555
As14 F94 1.762165 1_555
As14 F78 1.768143 1_555
As14 F90 1.774262 1_555
As14 F74 1.785181 1_555
As14 F86 1.785218 1_555
As14 F82 1.791837 1_555
As15 F95 1.762165 1_555
As15 F79 1.768143 1_555
As15 F91 1.774262 1_555
As15 F75 1.785181 1_555
As15 F87 1.785218 1_555
As15 F83 1.791837 1_555
S0 S28 2.047503 1_555
S0 S4 2.058566 1_555
S1 S29 2.047503 1_555
S1 S5 2.058566 1_555
S2 S30 2.047503 1_555
S2 S6 2.058566 1_555
S3 S31 2.047503 1_555
S3 S7 2.058566 1_555
S4 S8 2.045898 1_555
S5 S9 2.045898 1_555
S10 S6 2.045898 1_555
S10 S14 2.051868 1_545
S11 S7 2.045898 1_555
S11 S15 2.051868 1_565
S12 S16 2.048614 1_555
S12 S8 2.051868 1_545
S13 S17 2.048614 1_556
S13 S9 2.051868 1_565
S14 S18 2.048614 1_555
S15 S19 2.048614 1_554
S16 S20 2.061434 1_545
S17 S21 2.061434 1_565
S18 S22 2.061434 1_565
S19 S23 2.061434 1_545
S20 S24 2.054629 1_555
S21 S25 2.054629 1_555
S22 S26 2.054629 1_555
S23 S27 2.054629 1_555
S24 S28 2.042066 1_555
S25 S29 2.042066 1_554
S26 S30 2.042066 1_555
S27 S31 2.042066 1_556
S32 S60 2.054575 1_555
S32 S36 2.067853 1_555
S33 S61 2.054575 1_555
S33 S37 2.067853 1_555
S34 S62 2.054575 1_555
S34 S38 2.067853 1_555
S35 S63 2.054575 1_555
S35 S39 2.067853 1_555
S36 S40 2.043007 1_555
S37 S41 2.043007 1_555
S38 S42 2.043007 1_555
S39 S43 2.043007 1_555
S40 S44 2.055714 1_555
S41 S45 2.055714 1_555
S42 S46 2.055714 1_555
S43 S47 2.055714 1_555
S44 S48 2.051867 1_555
S45 S49 2.051867 1_555
S46 S50 2.051867 1_555
S47 S51 2.051867 1_555
S48 S52 2.067879 1_555
S49 S53 2.067879 1_555
S50 S54 2.067879 1_555
S51 S55 2.067879 1_555
S52 S56 2.044508 1_555
S53 S57 2.044508 1_555
S54 S58 2.044508 1_555
S55 S59 2.044508 1_555
S56 S60 2.059836 1_555
S57 S61 2.059836 1_555
S58 S62 2.059836 1_555
S59 S63 2.059836 1_555
