# generated using pymatgen
data_K8MgCo2(Mo4O15)2
_symmetry_space_group_name_H-M   'P 1'
_cell_length_a   10.57100478
_cell_length_b   10.49411821
_cell_length_c   8.34755539
_cell_angle_alpha   89.16007859
_cell_angle_beta   88.99815158
_cell_angle_gamma   120.01305840
_symmetry_Int_Tables_number   1
_chemical_formula_structural   K8MgCo2(Mo4O15)2
_chemical_formula_sum   'K8 Mg1 Co2 Mo8 O30'
_cell_volume   801.43786912
_cell_formula_units_Z   1
loop_
 _symmetry_equiv_pos_site_id
 _symmetry_equiv_pos_as_xyz
  1  'x, y, z'
loop_
 _atom_site_type_symbol
 _atom_site_label
 _atom_site_symmetry_multiplicity
 _atom_site_fract_x
 _atom_site_fract_y
 _atom_site_fract_z
 _atom_site_occupancy
  K  K0  1  0.10467400  0.68885700  0.16274300  1
  K  K1  1  0.60755100  0.94057600  0.13556400  1
  K  K2  1  0.32232900  0.04196600  0.86370500  1
  K  K3  1  0.99445800  0.99696300  0.02575400  1
  K  K4  1  0.95735300  0.29021200  0.86279300  1
  K  K5  1  0.71354000  0.64947900  0.87602200  1
  K  K6  1  0.33669100  0.39863300  0.14669900  1
  K  K7  1  0.99576400  0.99048100  0.50302400  1
  Mg  Mg0  1  0.64702500  0.30936100  0.80785600  1
  Co  Co0  1  0.32566100  0.66177000  0.48237100  1
  Co  Co1  1  0.65245700  0.32391700  0.48097300  1
  Mo  Mo0  1  0.99007400  0.32332700  0.36259300  1
  Mo  Mo1  1  0.00571300  0.65652800  0.65727800  1
  Mo  Mo2  1  0.33899200  0.01258100  0.35243400  1
  Mo  Mo3  1  0.69004200  0.36007600  0.13897600  1
  Mo  Mo4  1  0.64766500  0.98572100  0.63620900  1
  Mo  Mo5  1  0.33927000  0.66547400  0.86252900  1
  Mo  Mo6  1  0.66296100  0.66509500  0.36296200  1
  Mo  Mo7  1  0.33161500  0.33872800  0.64103700  1
  O  O0  1  0.46776900  0.81258800  0.65688000  1
  O  O1  1  0.63826100  0.48088900  0.32767300  1
  O  O2  1  0.71821200  0.98945000  0.44329900  1
  O  O3  1  0.48554000  0.65177600  0.34815900  1
  O  O4  1  0.19099600  0.51368900  0.96526900  1
  O  O5  1  0.15218400  0.50669100  0.35633200  1
  O  O6  1  0.27505300  0.02247700  0.54627200  1
  O  O7  1  0.35445800  0.84807100  0.34650700  1
  O  O8  1  0.54864100  0.35583400  0.99392100  1
  O  O9  1  0.83784000  0.47912700  0.69998700  1
  O  O10  1  0.34551700  0.52072200  0.66927200  1
  O  O11  1  0.82458100  0.33694500  0.33419000  1
  O  O12  1  0.97601000  0.24336500  0.55436600  1
  O  O13  1  0.73208200  0.72242400  0.55619900  1
  O  O14  1  0.33861800  0.81831300  0.95149900  1
  O  O15  1  0.84260000  0.52917500  0.07463400  1
  O  O16  1  0.21066400  0.99644400  0.20454700  1
  O  O17  1  0.00397000  0.71752400  0.46116800  1
  O  O18  1  0.70304200  0.22385100  0.99955700  1
  O  O19  1  0.76464800  0.98627600  0.78756000  1
  O  O20  1  0.00763600  0.21548100  0.20863300  1
  O  O21  1  0.51814600  0.17457600  0.30035600  1
  O  O22  1  0.50720800  0.34290600  0.65396400  1
  O  O23  1  0.17475700  0.64556200  0.67345800  1
  O  O24  1  0.26363700  0.28150100  0.44915200  1
  O  O25  1  0.62370500  0.14722700  0.65450300  1
  O  O26  1  0.78216300  0.79368700  0.21129800  1
  O  O27  1  0.01297000  0.78999200  0.79259700  1
  O  O28  1  0.49127900  0.67081500  0.95378400  1
  O  O29  1  0.20647700  0.21412600  0.79156500  1
loop_
_geom_bond_atom_site_label_1
_geom_bond_atom_site_label_2
_geom_bond_distance
_geom_bond_site_symmetry_2
K0 O15 2.546997 1_455
K0 O5 2.723315 1_555
K0 O14 2.736273 1_554
K0 O17 2.771108 1_555
K0 O7 2.814266 1_555
K0 O16 2.867904 1_555
K0 O4 2.939964 1_554
K1 O2 2.788170 1_555
K1 O18 2.829137 1_564
K1 O7 2.896190 1_555
K1 O28 2.921914 1_554
K1 O14 2.941190 1_554
K1 O26 3.006910 1_555
K1 O3 3.138448 1_555
K1 O19 3.228075 1_554
K1 O21 3.345281 1_565
K2 O14 2.536459 1_545
K2 O6 2.696834 1_555
K2 O29 2.708107 1_555
K2 O8 3.172810 1_555
K3 O26 2.641625 1_555
K3 O20 2.720099 1_665
K3 O16 2.753655 1_655
K3 O29 2.940221 1_664
K3 O27 3.013246 1_654
K3 O19 3.125790 1_554
K4 O4 2.582626 1_655
K4 O18 2.647996 1_555
K4 O12 2.650577 1_555
K4 O19 2.884582 1_545
K4 O20 3.104217 1_656
K4 O9 3.140070 1_555
K4 O29 3.160546 1_655
K5 O28 2.543412 1_555
K5 O13 2.742917 1_555
K5 O27 2.811022 1_655
K5 O15 2.818633 1_556
K5 O8 2.824971 1_555
K5 O9 3.072639 1_555
K5 O26 3.121902 1_556
K6 O24 2.715297 1_555
K6 O8 2.787776 1_554
K6 O4 2.830523 1_554
K6 O3 2.898775 1_555
K6 O28 2.919911 1_554
K6 O20 3.046426 1_555
K6 O5 3.209939 1_555
K6 O1 3.262476 1_555
K7 O12 2.802590 1_565
K7 O13 2.820583 1_555
K7 O6 2.829957 1_665
K7 O17 2.934535 1_655
K7 O24 2.968402 1_665
K7 O2 2.979364 1_555
K7 O27 3.248353 1_655
K7 O26 3.311854 1_555
K7 O16 3.320799 1_655
K7 O20 3.339551 1_665
K7 O19 3.361318 1_555
K7 O29 3.375603 1_665
Mg0 O8 2.050611 1_555
Mg0 O18 2.058946 1_555
Mg0 O25 2.061484 1_555
Mg0 O9 2.085159 1_555
Mg0 O22 2.128924 1_555
Co0 O3 2.058421 1_555
Co0 O5 2.061661 1_555
Co0 O7 2.128084 1_555
Co0 O0 2.156217 1_555
Co0 O23 2.179362 1_555
Co0 O10 2.218930 1_555
Co1 O11 2.121069 1_555
Co1 O1 2.136786 1_555
Co1 O21 2.159465 1_555
Co1 O22 2.172447 1_555
Co1 O25 2.229536 1_555
Co1 O9 2.618238 1_555
Mo0 O12 1.765336 1_555
Mo0 O20 1.792072 1_655
Mo0 O5 1.826801 1_655
Mo0 O11 1.844113 1_555
Mo1 O17 1.752740 1_555
Mo1 O27 1.784772 1_555
Mo1 O9 1.842685 1_455
Mo1 O23 1.854302 1_555
Mo2 O6 1.767113 1_555
Mo2 O16 1.796601 1_545
Mo2 O7 1.814986 1_545
Mo2 O21 1.842375 1_555
Mo3 O15 1.765532 1_555
Mo3 O18 1.912249 1_554
Mo3 O8 1.923730 1_554
Mo3 O1 2.260703 1_555
Mo3 O11 2.269777 1_555
Mo3 O21 2.281438 1_555
Mo4 O2 1.754364 1_555
Mo4 O19 1.781330 1_555
Mo4 O25 1.842746 1_565
Mo4 O0 1.862810 1_555
Mo5 O28 1.766199 1_555
Mo5 O4 1.773350 1_555
Mo5 O14 1.780437 1_555
Mo5 O0 2.217737 1_555
Mo5 O10 2.254511 1_555
Mo5 O23 2.302413 1_555
Mo6 O13 1.768528 1_555
Mo6 O26 1.790165 1_555
Mo6 O3 1.816243 1_555
Mo6 O1 1.845589 1_555
Mo7 O24 1.754833 1_555
Mo7 O29 1.789377 1_555
Mo7 O22 1.839769 1_555
Mo7 O10 1.859668 1_555
