# generated using pymatgen
data_CoSn
_symmetry_space_group_name_H-M   'P 1'
_cell_length_a   5.24599465
_cell_length_b   5.24608521
_cell_length_c   4.18759030
_cell_angle_alpha   90.00022131
_cell_angle_beta   89.99975319
_cell_angle_gamma   119.99933352
_symmetry_Int_Tables_number   1
_chemical_formula_structural   CoSn
_chemical_formula_sum   'Co3 Sn3'
_cell_volume   99.80698048
_cell_formula_units_Z   3
loop_
 _symmetry_equiv_pos_site_id
 _symmetry_equiv_pos_as_xyz
  1  'x, y, z'
loop_
 _atom_site_type_symbol
 _atom_site_label
 _atom_site_symmetry_multiplicity
 _atom_site_fract_x
 _atom_site_fract_y
 _atom_site_fract_z
 _atom_site_occupancy
  Co  Co0  1  -0.00000000  0.50000000  0.00000000  1
  Co  Co1  1  0.50000000  0.50000000  0.00000000  1
  Co  Co2  1  0.50000000  0.00000000  0.00000000  1
  Sn  Sn0  1  0.66665730  0.33331860  0.50000000  1
  Sn  Sn1  1  0.33334270  0.66668140  0.50000000  1
  Sn  Sn2  1  -0.00000000  0.00000000  0.00000000  1
loop_
_geom_bond_atom_site_label_1
_geom_bond_atom_site_label_2
_geom_bond_distance
_geom_bond_site_symmetry_2
Co0 Sn1 2.584084 1_554
Co0 Sn0 2.584084 1_455
Co0 Sn1 2.584091 1_555
Co0 Sn0 2.584091 1_454
Co0 Co1 2.622997 1_555
Co0 Co1 2.622997 1_455
Co0 Sn2 2.623043 1_555
Co0 Sn2 2.623043 1_565
Co0 Co2 2.623046 1_565
Co0 Co2 2.623046 1_455
Co1 Sn1 2.584070 1_555
Co1 Sn0 2.584070 1_554
Co1 Sn1 2.584082 1_554
Co1 Sn0 2.584082 1_555
Co1 Co2 2.623043 1_565
Co1 Co2 2.623043 1_555
Co1 Sn2 2.623046 1_555
Co1 Sn2 2.623046 1_665
Co2 Sn0 2.584036 1_555
Co2 Sn1 2.584036 1_544
Co2 Sn0 2.584041 1_554
Co2 Sn1 2.584041 1_545
Co2 Sn2 2.622997 1_555
Co2 Sn2 2.622997 1_655
