# generated using pymatgen
data_Li3Ni2P5O16
_symmetry_space_group_name_H-M   'P 1'
_cell_length_a   6.86735300
_cell_length_b   5.00652600
_cell_length_c   18.14032896
_cell_angle_alpha   87.83918236
_cell_angle_beta   90.00000000
_cell_angle_gamma   90.00000000
_symmetry_Int_Tables_number   1
_chemical_formula_structural   Li3Ni2P5O16
_chemical_formula_sum   'Li6 Ni4 P10 O32'
_cell_volume   623.24970913
_cell_formula_units_Z   2
loop_
 _symmetry_equiv_pos_site_id
 _symmetry_equiv_pos_as_xyz
  1  'x, y, z'
loop_
 _atom_site_type_symbol
 _atom_site_label
 _atom_site_symmetry_multiplicity
 _atom_site_fract_x
 _atom_site_fract_y
 _atom_site_fract_z
 _atom_site_occupancy
  Li  Li0  1  0.32697500  0.73898200  0.03355400  1
  Li  Li1  1  0.98444100  0.50000000  0.25000000  1
  Li  Li2  1  0.32697500  0.26101800  0.46644600  1
  Li  Li3  1  0.67302500  0.73898200  0.53355400  1
  Li  Li4  1  0.01555900  0.50000000  0.75000000  1
  Li  Li5  1  0.67302500  0.26101800  0.96644600  1
  Ni  Ni0  1  0.82316900  0.73358900  0.09019400  1
  Ni  Ni1  1  0.82316900  0.26641100  0.40980600  1
  Ni  Ni2  1  0.17683100  0.73358900  0.59019400  1
  Ni  Ni3  1  0.17683100  0.26641100  0.90980600  1
  P  P0  1  0.87627200  0.77369000  0.91517700  1
  P  P1  1  0.46757900  0.73769000  0.87551500  1
  P  P2  1  0.24306700  0.00000000  0.75000000  1
  P  P3  1  0.46757900  0.26231000  0.62448500  1
  P  P4  1  0.12372800  0.22631000  0.08482300  1
  P  P5  1  0.53242100  0.26231000  0.12448500  1
  P  P6  1  0.75693300  0.00000000  0.25000000  1
  P  P7  1  0.53242100  0.73769000  0.37551500  1
  P  P8  1  0.12372800  0.77369000  0.41517700  1
  P  P9  1  0.87627200  0.22631000  0.58482300  1
  O  O0  1  0.79345900  0.62111800  0.98333900  1
  O  O1  1  0.37905800  0.91989100  0.93140700  1
  O  O2  1  0.92182400  0.06595700  0.92934500  1
  O  O3  1  0.44875800  0.44012400  0.89226300  1
  O  O4  1  0.20654100  0.37888200  0.01666100  1
  O  O5  1  0.62094200  0.08010900  0.06859300  1
  O  O6  1  0.07817600  0.93404300  0.07065500  1
  O  O7  1  0.55124200  0.55987600  0.10773700  1
  O  O8  1  0.97448100  0.38450600  0.12793500  1
  O  O9  1  0.31019300  0.19802100  0.14267500  1
  O  O10  1  0.87018800  0.82325100  0.20019900  1
  O  O11  1  0.61312400  0.19652800  0.20589600  1
  O  O12  1  0.61312400  0.80347200  0.29410400  1
  O  O13  1  0.87018800  0.17674900  0.29980100  1
  O  O14  1  0.31019300  0.80197900  0.35732500  1
  O  O15  1  0.97448100  0.61549400  0.37206500  1
  O  O16  1  0.55124200  0.44012400  0.39226300  1
  O  O17  1  0.07817600  0.06595700  0.42934500  1
  O  O18  1  0.62094200  0.91989100  0.43140700  1
  O  O19  1  0.20654100  0.62111800  0.48333900  1
  O  O20  1  0.79345900  0.37888200  0.51666100  1
  O  O21  1  0.37905800  0.08010900  0.56859300  1
  O  O22  1  0.92182400  0.93404300  0.57065500  1
  O  O23  1  0.44875800  0.55987600  0.60773700  1
  O  O24  1  0.02551900  0.38450600  0.62793500  1
  O  O25  1  0.68980700  0.19802100  0.64267500  1
  O  O26  1  0.12981200  0.82325100  0.70019900  1
  O  O27  1  0.38687600  0.19652800  0.70589600  1
  O  O28  1  0.38687600  0.80347200  0.79410400  1
  O  O29  1  0.12981200  0.17674900  0.79980100  1
  O  O30  1  0.68980700  0.80197900  0.85732500  1
  O  O31  1  0.02551900  0.61549400  0.87206500  1
loop_
_geom_bond_atom_site_label_1
_geom_bond_atom_site_label_2
_geom_bond_distance
_geom_bond_site_symmetry_2
Li0 O4 2.017392 1_555
Li0 O1 2.062825 1_554
Li0 O6 2.091772 1_555
Li0 O7 2.212683 1_555
Li1 O10 1.985099 1_555
Li1 O13 1.985099 1_555
Li1 O15 2.310561 1_555
Li1 O8 2.310561 1_555
Li2 O19 2.017392 1_555
Li2 O21 2.062825 1_555
Li2 O17 2.091772 1_555
Li2 O16 2.212683 1_555
Li3 O20 2.017392 1_555
Li3 O18 2.062825 1_555
Li3 O22 2.091772 1_555
Li3 O23 2.212683 1_555
Li4 O26 1.985099 1_555
Li4 O29 1.985099 1_555
Li4 O31 2.310561 1_555
Li4 O24 2.310561 1_555
Li5 O0 2.017392 1_555
Li5 O5 2.062825 1_556
Li5 O2 2.091772 1_555
Li5 O3 2.212683 1_555
Ni0 O6 2.042733 1_655
Ni0 O0 2.048985 1_554
Ni0 O7 2.079431 1_555
Ni0 O10 2.086971 1_555
Ni0 O8 2.124307 1_555
Ni0 O5 2.245149 1_565
Ni1 O17 2.042733 1_655
Ni1 O20 2.048985 1_555
Ni1 O16 2.079431 1_555
Ni1 O13 2.086971 1_555
Ni1 O15 2.124307 1_555
Ni1 O18 2.245149 1_545
Ni2 O22 2.042733 1_455
Ni2 O19 2.048985 1_555
Ni2 O23 2.079431 1_555
Ni2 O26 2.086971 1_555
Ni2 O24 2.124307 1_555
Ni2 O21 2.245149 1_565
Ni3 O2 2.042733 1_455
Ni3 O4 2.048985 1_556
Ni3 O3 2.079431 1_555
Ni3 O29 2.086971 1_555
Ni3 O31 2.124307 1_555
Ni3 O1 2.245149 1_545
O0 P0 1.537714 1_555
O1 P1 1.516371 1_555
O2 P0 1.527531 1_545
O3 P1 1.514694 1_555
O4 P4 1.537714 1_555
O5 P5 1.516371 1_555
O6 P4 1.527531 1_565
O7 P5 1.514694 1_555
O8 P4 1.528432 1_655
O9 P5 1.591699 1_555
O9 P4 1.658294 1_555
O10 P6 1.504788 1_565
O11 P6 1.588763 1_555
O11 P5 1.599983 1_555
O12 P6 1.588763 1_565
O12 P7 1.599983 1_555
O13 P6 1.504788 1_555
O14 P7 1.591699 1_555
O14 P8 1.658294 1_555
O15 P8 1.528432 1_655
O16 P7 1.514694 1_555
O17 P8 1.527531 1_545
O18 P7 1.516371 1_555
O19 P8 1.537714 1_555
O20 P9 1.537714 1_555
O21 P3 1.516371 1_555
O22 P9 1.527531 1_565
O23 P3 1.514694 1_555
O24 P9 1.528432 1_455
O25 P3 1.591699 1_555
O25 P9 1.658294 1_555
O26 P2 1.504788 1_565
O27 P2 1.588763 1_555
O27 P3 1.599983 1_555
O28 P2 1.588763 1_565
O28 P1 1.599983 1_555
O29 P2 1.504788 1_555
O30 P1 1.591699 1_555
O30 P0 1.658294 1_555
O31 P0 1.528432 1_455
