# generated using pymatgen
data_MgTe4MoW3S4
_symmetry_space_group_name_H-M   'P 1'
_cell_length_a   6.70120400
_cell_length_b   6.70124275
_cell_length_c   76.72484400
_cell_angle_alpha   89.99926865
_cell_angle_beta   89.99989642
_cell_angle_gamma   119.99768225
_symmetry_Int_Tables_number   1
_chemical_formula_structural   MgTe4MoW3S4
_chemical_formula_sum   'Mg8 Te32 Mo8 W24 S32'
_cell_volume   2983.90490267
_cell_formula_units_Z   8
loop_
 _symmetry_equiv_pos_site_id
 _symmetry_equiv_pos_as_xyz
  1  'x, y, z'
loop_
 _atom_site_type_symbol
 _atom_site_label
 _atom_site_symmetry_multiplicity
 _atom_site_fract_x
 _atom_site_fract_y
 _atom_site_fract_z
 _atom_site_occupancy
  Mg  Mg0_0  1  0.00580100  0.49642450  0.43751800  1
  Mg  Mg0_1  1  0.00580100  0.49642450  0.93751800  1
  Mg  Mg0_2  1  0.00580100  0.99642450  0.43751800  1
  Mg  Mg0_3  1  0.00580100  0.99642450  0.93751800  1
  Mg  Mg0_4  1  0.50580100  0.49642450  0.43751800  1
  Mg  Mg0_5  1  0.50580100  0.49642450  0.93751800  1
  Mg  Mg0_6  1  0.50580100  0.99642450  0.43751800  1
  Mg  Mg0_7  1  0.50580100  0.99642450  0.93751800  1
  Te  Te0_0  1  0.16667950  0.33336150  0.35360350  1
  Te  Te0_1  1  0.16667950  0.33336150  0.85360350  1
  Te  Te0_2  1  0.16667950  0.83336150  0.35360350  1
  Te  Te0_3  1  0.16667950  0.83336150  0.85360350  1
  Te  Te0_4  1  0.66667950  0.33336150  0.35360350  1
  Te  Te0_5  1  0.66667950  0.33336150  0.85360350  1
  Te  Te0_6  1  0.66667950  0.83336150  0.35360350  1
  Te  Te0_7  1  0.66667950  0.83336150  0.85360350  1
  Te  Te1_0  1  0.33332200  0.16664400  0.02228250  1
  Te  Te1_1  1  0.33332200  0.16664400  0.52228250  1
  Te  Te1_2  1  0.33332200  0.66664400  0.02228250  1
  Te  Te1_3  1  0.33332200  0.66664400  0.52228250  1
  Te  Te1_4  1  0.83332200  0.16664400  0.02228250  1
  Te  Te1_5  1  0.83332200  0.16664400  0.52228250  1
  Te  Te1_6  1  0.83332200  0.66664400  0.02228250  1
  Te  Te1_7  1  0.83332200  0.66664400  0.52228250  1
  Te  Te2_0  1  0.33332050  0.16663950  0.07161450  1
  Te  Te2_1  1  0.33332050  0.16663950  0.57161450  1
  Te  Te2_2  1  0.33332050  0.66663950  0.07161450  1
  Te  Te2_3  1  0.33332050  0.66663950  0.57161450  1
  Te  Te2_4  1  0.83332050  0.16663950  0.07161450  1
  Te  Te2_5  1  0.83332050  0.16663950  0.57161450  1
  Te  Te2_6  1  0.83332050  0.66663950  0.07161450  1
  Te  Te2_7  1  0.83332050  0.66663950  0.57161450  1
  Te  Te3_0  1  0.16667750  0.33335700  0.30394450  1
  Te  Te3_1  1  0.16667750  0.33335700  0.80394450  1
  Te  Te3_2  1  0.16667750  0.83335700  0.30394450  1
  Te  Te3_3  1  0.16667750  0.83335700  0.80394450  1
  Te  Te3_4  1  0.66667750  0.33335700  0.30394450  1
  Te  Te3_5  1  0.66667750  0.33335700  0.80394450  1
  Te  Te3_6  1  0.66667750  0.83335700  0.30394450  1
  Te  Te3_7  1  0.66667750  0.83335700  0.80394450  1
  Mo  Mo0_0  1  0.16665400  0.33330950  0.04693150  1
  Mo  Mo0_1  1  0.16665400  0.33330950  0.54693150  1
  Mo  Mo0_2  1  0.16665400  0.83330950  0.04693150  1
  Mo  Mo0_3  1  0.16665400  0.83330950  0.54693150  1
  Mo  Mo0_4  1  0.66665400  0.33330950  0.04693150  1
  Mo  Mo0_5  1  0.66665400  0.33330950  0.54693150  1
  Mo  Mo0_6  1  0.66665400  0.83330950  0.04693150  1
  Mo  Mo0_7  1  0.66665400  0.83330950  0.54693150  1
  W  W0_0  1  0.16664650  0.33331800  0.23481950  1
  W  W0_1  1  0.16664650  0.33331800  0.73481950  1
  W  W0_2  1  0.16664650  0.83331800  0.23481950  1
  W  W0_3  1  0.16664650  0.83331800  0.73481950  1
  W  W0_4  1  0.66664650  0.33331800  0.23481950  1
  W  W0_5  1  0.66664650  0.33331800  0.73481950  1
  W  W0_6  1  0.66664650  0.83331800  0.23481950  1
  W  W0_7  1  0.66664650  0.83331800  0.73481950  1
  W  W1_0  1  0.33334550  0.16669150  0.14092050  1
  W  W1_1  1  0.33334550  0.16669150  0.64092050  1
  W  W1_2  1  0.33334550  0.66669150  0.14092050  1
  W  W1_3  1  0.33334550  0.66669150  0.64092050  1
  W  W1_4  1  0.83334550  0.16669150  0.14092050  1
  W  W1_5  1  0.83334550  0.16669150  0.64092050  1
  W  W1_6  1  0.83334550  0.66669150  0.14092050  1
  W  W1_7  1  0.83334550  0.66669150  0.64092050  1
  W  W2_0  1  0.33334750  0.16669450  0.32879650  1
  W  W2_1  1  0.33334750  0.16669450  0.82879650  1
  W  W2_2  1  0.33334750  0.66669450  0.32879650  1
  W  W2_3  1  0.33334750  0.66669450  0.82879650  1
  W  W2_4  1  0.83334750  0.16669450  0.32879650  1
  W  W2_5  1  0.83334750  0.16669450  0.82879650  1
  W  W2_6  1  0.83334750  0.66669450  0.32879650  1
  W  W2_7  1  0.83334750  0.66669450  0.82879650  1
  S  S0_0  1  0.16667800  0.33335700  0.16072600  1
  S  S0_1  1  0.16667800  0.33335700  0.66072600  1
  S  S0_2  1  0.16667800  0.83335700  0.16072600  1
  S  S0_3  1  0.16667800  0.83335700  0.66072600  1
  S  S0_4  1  0.66667800  0.33335700  0.16072600  1
  S  S0_5  1  0.66667800  0.33335700  0.66072600  1
  S  S0_6  1  0.66667800  0.83335700  0.16072600  1
  S  S0_7  1  0.66667800  0.83335700  0.66072600  1
  S  S1_0  1  0.33332800  0.16664000  0.21501450  1
  S  S1_1  1  0.33332800  0.16664000  0.71501450  1
  S  S1_2  1  0.33332800  0.66664000  0.21501450  1
  S  S1_3  1  0.33332800  0.66664000  0.71501450  1
  S  S1_4  1  0.83332800  0.16664000  0.21501450  1
  S  S1_5  1  0.83332800  0.16664000  0.71501450  1
  S  S1_6  1  0.83332800  0.66664000  0.21501450  1
  S  S1_7  1  0.83332800  0.66664000  0.71501450  1
  S  S2_0  1  0.33332700  0.16663950  0.25461400  1
  S  S2_1  1  0.33332700  0.16663950  0.75461400  1
  S  S2_2  1  0.33332700  0.66663950  0.25461400  1
  S  S2_3  1  0.33332700  0.66663950  0.75461400  1
  S  S2_4  1  0.83332700  0.16663950  0.25461400  1
  S  S2_5  1  0.83332700  0.16663950  0.75461400  1
  S  S2_6  1  0.83332700  0.66663950  0.25461400  1
  S  S2_7  1  0.83332700  0.66663950  0.75461400  1
  S  S3_0  1  0.16667550  0.33335150  0.12108850  1
  S  S3_1  1  0.16667550  0.33335150  0.62108850  1
  S  S3_2  1  0.16667550  0.83335150  0.12108850  1
  S  S3_3  1  0.16667550  0.83335150  0.62108850  1
  S  S3_4  1  0.66667550  0.33335150  0.12108850  1
  S  S3_5  1  0.66667550  0.33335150  0.62108850  1
  S  S3_6  1  0.66667550  0.83335150  0.12108850  1
  S  S3_7  1  0.66667550  0.83335150  0.62108850  1
loop_
_geom_bond_atom_site_label_1
_geom_bond_atom_site_label_2
_geom_bond_distance
_geom_bond_site_symmetry_2
Mg0_0 Mg0_4 3.350602 1_455
Mg0_0 Mg0_4 3.350602 1_555
Mg0_0 Mg0_2 3.350621 1_555
Mg0_0 Mg0_2 3.350621 1_545
Mg0_0 Mg0_6 3.350729 1_445
Mg0_0 Mg0_6 3.350729 1_555
Mg0_1 Mg0_5 3.350602 1_455
Mg0_1 Mg0_5 3.350602 1_555
Mg0_1 Mg0_3 3.350621 1_555
Mg0_1 Mg0_3 3.350621 1_545
Mg0_1 Mg0_7 3.350729 1_445
Mg0_1 Mg0_7 3.350729 1_555
Mg0_2 Mg0_6 3.350602 1_555
Mg0_2 Mg0_6 3.350602 1_455
Mg0_2 Mg0_4 3.350729 1_565
Mg0_2 Mg0_4 3.350729 1_455
Mg0_3 Mg0_7 3.350602 1_455
Mg0_3 Mg0_7 3.350602 1_555
Mg0_3 Mg0_5 3.350729 1_455
Mg0_3 Mg0_5 3.350729 1_565
Mg0_4 Mg0_6 3.350621 1_545
Mg0_4 Mg0_6 3.350621 1_555
Mg0_5 Mg0_7 3.350621 1_545
Mg0_5 Mg0_7 3.350621 1_555
Te0_0 W2_0 2.713816 1_555
Te0_0 W2_2 2.713830 1_555
Te0_0 W2_4 2.713852 1_455
Te0_1 W2_1 2.713816 1_555
Te0_1 W2_3 2.713830 1_555
Te0_1 W2_5 2.713852 1_455
Te0_2 W2_2 2.713816 1_555
Te0_2 W2_0 2.713830 1_565
Te0_2 W2_6 2.713852 1_455
Te0_3 W2_3 2.713816 1_555
Te0_3 W2_1 2.713830 1_565
Te0_3 W2_7 2.713852 1_455
Te0_4 W2_4 2.713816 1_555
Te0_4 W2_6 2.713830 1_555
Te0_4 W2_0 2.713852 1_555
Te0_5 W2_5 2.713816 1_555
Te0_5 W2_7 2.713830 1_555
Te0_5 W2_1 2.713852 1_555
Te0_6 W2_6 2.713816 1_555
Te0_6 W2_4 2.713830 1_565
Te0_6 W2_2 2.713852 1_555
Te0_7 W2_7 2.713816 1_555
Te0_7 W2_5 2.713830 1_565
Te0_7 W2_3 2.713852 1_555
Te3_0 W2_0 2.716211 1_555
Te3_0 W2_4 2.716241 1_455
Te3_0 W2_2 2.716314 1_555
Te3_1 W2_1 2.716211 1_555
Te3_1 W2_5 2.716241 1_455
Te3_1 W2_3 2.716314 1_555
Te3_2 W2_2 2.716211 1_555
Te3_2 W2_6 2.716241 1_455
Te3_2 W2_0 2.716314 1_565
Te3_3 W2_3 2.716211 1_555
Te3_3 W2_7 2.716241 1_455
Te3_3 W2_1 2.716314 1_565
Te3_4 W2_4 2.716211 1_555
Te3_4 W2_0 2.716241 1_555
Te3_4 W2_6 2.716314 1_555
Te3_5 W2_5 2.716211 1_555
Te3_5 W2_1 2.716241 1_555
Te3_5 W2_7 2.716314 1_555
Te3_6 W2_6 2.716211 1_555
Te3_6 W2_2 2.716241 1_555
Te3_6 W2_4 2.716314 1_565
Te3_7 W2_7 2.716211 1_555
Te3_7 W2_3 2.716241 1_555
Te3_7 W2_5 2.716314 1_565
Mo0_0 Te1_0 2.705321 1_555
Mo0_0 Te1_2 2.705348 1_555
Mo0_0 Te1_4 2.705364 1_455
Mo0_0 Te2_0 2.707141 1_555
Mo0_0 Te2_4 2.707169 1_455
Mo0_0 Te2_2 2.707196 1_555
Mo0_1 Te1_1 2.705321 1_555
Mo0_1 Te1_3 2.705348 1_555
Mo0_1 Te1_5 2.705364 1_455
Mo0_1 Te2_1 2.707141 1_555
Mo0_1 Te2_5 2.707169 1_455
Mo0_1 Te2_3 2.707196 1_555
Mo0_2 Te1_2 2.705321 1_555
Mo0_2 Te1_0 2.705348 1_565
Mo0_2 Te1_6 2.705364 1_455
Mo0_2 Te2_2 2.707141 1_555
Mo0_2 Te2_6 2.707169 1_455
Mo0_2 Te2_0 2.707196 1_565
Mo0_3 Te1_3 2.705321 1_555
Mo0_3 Te1_1 2.705348 1_565
Mo0_3 Te1_7 2.705364 1_455
Mo0_3 Te2_3 2.707141 1_555
Mo0_3 Te2_7 2.707169 1_455
Mo0_3 Te2_1 2.707196 1_565
Mo0_4 Te1_4 2.705321 1_555
Mo0_4 Te1_6 2.705348 1_555
Mo0_4 Te1_0 2.705364 1_555
Mo0_4 Te2_4 2.707141 1_555
Mo0_4 Te2_0 2.707169 1_555
Mo0_4 Te2_6 2.707196 1_555
Mo0_5 Te1_5 2.705321 1_555
Mo0_5 Te1_7 2.705348 1_555
Mo0_5 Te1_1 2.705364 1_555
Mo0_5 Te2_5 2.707141 1_555
Mo0_5 Te2_1 2.707169 1_555
Mo0_5 Te2_7 2.707196 1_555
Mo0_6 Te1_6 2.705321 1_555
Mo0_6 Te1_4 2.705348 1_565
Mo0_6 Te1_2 2.705364 1_555
Mo0_6 Te2_6 2.707141 1_555
Mo0_6 Te2_2 2.707169 1_555
Mo0_6 Te2_4 2.707196 1_565
Mo0_7 Te1_7 2.705321 1_555
Mo0_7 Te1_5 2.705348 1_565
Mo0_7 Te1_3 2.705364 1_555
Mo0_7 Te2_7 2.707141 1_555
Mo0_7 Te2_3 2.707169 1_555
Mo0_7 Te2_5 2.707196 1_565
S0_0 W1_0 2.459928 1_555
S0_0 W1_2 2.459966 1_555
S0_0 W1_4 2.459979 1_455
S0_1 W1_1 2.459928 1_555
S0_1 W1_3 2.459966 1_555
S0_1 W1_5 2.459979 1_455
S0_2 W1_2 2.459928 1_555
S0_2 W1_0 2.459966 1_565
S0_2 W1_6 2.459979 1_455
S0_3 W1_3 2.459928 1_555
S0_3 W1_1 2.459966 1_565
S0_3 W1_7 2.459979 1_455
S0_4 W1_4 2.459928 1_555
S0_4 W1_6 2.459966 1_555
S0_4 W1_0 2.459979 1_555
S0_5 W1_5 2.459928 1_555
S0_5 W1_7 2.459966 1_555
S0_5 W1_1 2.459979 1_555
S0_6 W1_6 2.459928 1_555
S0_6 W1_4 2.459966 1_565
S0_6 W1_2 2.459979 1_555
S0_7 W1_7 2.459928 1_555
S0_7 W1_5 2.459966 1_565
S0_7 W1_3 2.459979 1_555
S1_0 W0_2 2.459886 1_545
S1_0 W0_4 2.459891 1_555
S1_0 W0_0 2.460025 1_555
S1_1 W0_3 2.459886 1_545
S1_1 W0_5 2.459891 1_555
S1_1 W0_1 2.460025 1_555
S1_2 W0_0 2.459886 1_555
S1_2 W0_6 2.459891 1_555
S1_2 W0_2 2.460025 1_555
S1_3 W0_1 2.459886 1_555
S1_3 W0_7 2.459891 1_555
S1_3 W0_3 2.460025 1_555
S1_4 W0_6 2.459886 1_545
S1_4 W0_0 2.459891 1_655
S1_4 W0_4 2.460025 1_555
S1_5 W0_7 2.459886 1_545
S1_5 W0_1 2.459891 1_655
S1_5 W0_5 2.460025 1_555
S1_6 W0_4 2.459886 1_555
S1_6 W0_2 2.459891 1_655
S1_6 W0_6 2.460025 1_555
S1_7 W0_5 2.459886 1_555
S1_7 W0_3 2.459891 1_655
S1_7 W0_7 2.460025 1_555
S2_0 W0_4 2.459375 1_555
S2_0 W0_2 2.459423 1_545
S2_0 W0_0 2.459510 1_555
S2_1 W0_5 2.459375 1_555
S2_1 W0_3 2.459423 1_545
S2_1 W0_1 2.459510 1_555
S2_2 W0_6 2.459375 1_555
S2_2 W0_0 2.459423 1_555
S2_2 W0_2 2.459510 1_555
S2_3 W0_7 2.459375 1_555
S2_3 W0_1 2.459423 1_555
S2_3 W0_3 2.459510 1_555
S2_4 W0_0 2.459375 1_655
S2_4 W0_6 2.459423 1_545
S2_4 W0_4 2.459510 1_555
S2_5 W0_1 2.459375 1_655
S2_5 W0_7 2.459423 1_545
S2_5 W0_5 2.459510 1_555
S2_6 W0_2 2.459375 1_655
S2_6 W0_4 2.459423 1_555
S2_6 W0_6 2.459510 1_555
S2_7 W0_3 2.459375 1_655
S2_7 W0_5 2.459423 1_555
S2_7 W0_7 2.459510 1_555
S3_0 W1_0 2.461156 1_555
S3_0 W1_4 2.461201 1_455
S3_0 W1_2 2.461286 1_555
S3_1 W1_1 2.461156 1_555
S3_1 W1_5 2.461201 1_455
S3_1 W1_3 2.461286 1_555
S3_2 W1_2 2.461156 1_555
S3_2 W1_6 2.461201 1_455
S3_2 W1_0 2.461286 1_565
S3_3 W1_3 2.461156 1_555
S3_3 W1_7 2.461201 1_455
S3_3 W1_1 2.461286 1_565
S3_4 W1_4 2.461156 1_555
S3_4 W1_0 2.461201 1_555
S3_4 W1_6 2.461286 1_555
S3_5 W1_5 2.461156 1_555
S3_5 W1_1 2.461201 1_555
S3_5 W1_7 2.461286 1_555
S3_6 W1_6 2.461156 1_555
S3_6 W1_2 2.461201 1_555
S3_6 W1_4 2.461286 1_565
S3_7 W1_7 2.461156 1_555
S3_7 W1_3 2.461201 1_555
S3_7 W1_5 2.461286 1_565
