# generated using pymatgen
data_MgZn2(AgO2)4
_symmetry_space_group_name_H-M   'P 1'
_cell_length_a   3.46389098
_cell_length_b   5.94226140
_cell_length_c   10.62519594
_cell_angle_alpha   90.00000000
_cell_angle_beta   90.00000000
_cell_angle_gamma   106.94553191
_symmetry_Int_Tables_number   1
_chemical_formula_structural   MgZn2(AgO2)4
_chemical_formula_sum   'Mg1 Zn2 Ag4 O8'
_cell_volume   209.20653201
_cell_formula_units_Z   1
loop_
 _symmetry_equiv_pos_site_id
 _symmetry_equiv_pos_as_xyz
  1  'x, y, z'
loop_
 _atom_site_type_symbol
 _atom_site_label
 _atom_site_symmetry_multiplicity
 _atom_site_fract_x
 _atom_site_fract_y
 _atom_site_fract_z
 _atom_site_occupancy
  Mg  Mg0  1  0.84667590  0.69335181  0.75000000  1
  Zn  Zn0  1  0.59932042  0.19864185  0.75000000  1
  Zn  Zn1  1  0.51336746  0.02673392  0.25000000  1
  Ag  Ag0  1  0.85914553  0.71829207  0.06169226  1
  Ag  Ag1  1  0.12339690  0.24679080  0.98085853  1
  Ag  Ag2  1  0.85914553  0.71829207  0.43830774  1
  Ag  Ag3  1  0.12339690  0.24679080  0.51914147  1
  O  O0  1  0.23753657  0.47507415  0.31079553  1
  O  O1  1  0.73463958  0.46927816  0.61092885  1
  O  O2  1  0.73463958  0.46927816  0.88907115  1
  O  O3  1  0.23753657  0.47507415  0.18920447  1
  O  O4  1  0.93057489  0.86114878  0.25000000  1
  O  O5  1  0.01443602  0.02887304  0.75000000  1
  O  O6  1  0.53059507  0.06119013  0.05897742  1
  O  O7  1  0.53059507  0.06119013  0.44102258  1
loop_
_geom_bond_atom_site_label_1
_geom_bond_atom_site_label_2
_geom_bond_distance
_geom_bond_site_symmetry_2
Mg0 O5 1.907191 1_665
Mg0 O2 1.950838 1_555
Mg0 O1 1.950838 1_555
Ag0 O4 2.159312 1_555
Ag0 O2 2.316802 1_554
Ag0 O3 2.597418 1_555
Ag0 O3 2.597418 1_655
Ag0 O6 2.607593 1_565
Ag0 O6 2.607595 1_665
Ag1 O6 2.191254 1_556
Ag1 O6 2.191262 1_456
Ag1 O2 2.355878 1_555
Ag1 O2 2.355883 1_455
Ag1 O3 2.566002 1_556
Ag1 O5 2.747942 1_555
Ag2 O4 2.159312 1_555
Ag2 O1 2.316802 1_555
Ag2 O0 2.597418 1_555
Ag2 O0 2.597418 1_655
Ag2 O7 2.607593 1_565
Ag2 O7 2.607595 1_665
Ag3 O7 2.191254 1_555
Ag3 O7 2.191262 1_455
Ag3 O1 2.355878 1_555
Ag3 O1 2.355883 1_455
Ag3 O0 2.566002 1_555
Ag3 O5 2.747942 1_555
O0 O3 1.291929 1_555
O1 Zn0 2.133084 1_555
O2 Zn0 2.133084 1_555
O4 Zn1 1.971179 1_665
O4 Zn1 1.971179 1_565
O5 Zn0 1.982645 1_555
O5 Zn0 1.982645 1_455
O6 Zn1 2.039080 1_555
O7 Zn1 2.039080 1_555
