# generated using pymatgen
data_Na3Ta2In2SiP5O24
_symmetry_space_group_name_H-M   'P 1'
_cell_length_a   8.92743254
_cell_length_b   8.91775742
_cell_length_c   22.71132218
_cell_angle_alpha   90.01343296
_cell_angle_beta   89.98218957
_cell_angle_gamma   120.02450733
_symmetry_Int_Tables_number   1
_chemical_formula_structural   Na3Ta2In2SiP5O24
_chemical_formula_sum   'Na9 Ta6 In6 Si3 P15 O72'
_cell_volume   1565.48155736
_cell_formula_units_Z   3
loop_
 _symmetry_equiv_pos_site_id
 _symmetry_equiv_pos_as_xyz
  1  'x, y, z'
loop_
 _atom_site_type_symbol
 _atom_site_label
 _atom_site_symmetry_multiplicity
 _atom_site_fract_x
 _atom_site_fract_y
 _atom_site_fract_z
 _atom_site_occupancy
  Na  Na0  1  0.35433578  0.99006667  0.75251196  1
  Na  Na1  1  0.67362127  0.97770264  0.58829343  1
  Na  Na2  1  0.68141330  0.69997854  0.08289797  1
  Na  Na3  1  0.02195669  0.00113643  0.50523166  1
  Na  Na4  1  0.01683015  0.00688992  0.00541704  1
  Na  Na5  1  0.67912302  0.34743233  0.83984273  1
  Na  Na6  1  0.66362784  0.33105988  0.33883331  1
  Na  Na7  1  0.32116142  0.66630898  0.17386701  1
  Na  Na8  1  0.32788217  0.64656824  0.67296780  1
  Ta  Ta0  1  0.00055811  0.99994227  0.35401310  1
  Ta  Ta1  1  0.99455877  0.99931590  0.85456677  1
  Ta  Ta2  1  0.66821060  0.33300048  0.68676261  1
  Ta  Ta3  1  0.67102889  0.33453435  0.18817677  1
  Ta  Ta4  1  0.32766938  0.66654043  0.02003239  1
  Ta  Ta5  1  0.33049911  0.66658510  0.51976296  1
  In  In0  1  0.00103995  0.99703201  0.64866639  1
  In  In1  1  0.00691101  0.00435559  0.14968530  1
  In  In2  1  0.66826550  0.33382733  0.98139957  1
  In  In3  1  0.66206069  0.33282216  0.47997225  1
  In  In4  1  0.33286825  0.66655882  0.31466955  1
  In  In5  1  0.33744524  0.66546985  0.81588930  1
  Si  Si0  1  0.70788819  0.00077504  0.74727855  1
  Si  Si1  1  0.36919574  0.03993792  0.58197212  1
  Si  Si2  1  0.95971117  0.62576416  0.08299599  1
  P  P0  1  0.29514140  0.00340718  0.25020964  1
  P  P1  1  0.70801940  0.70576967  0.24868259  1
  P  P2  1  0.99612970  0.28995899  0.24991749  1
  P  P3  1  0.29230085  0.29126167  0.74998465  1
  P  P4  1  0.99457552  0.70546020  0.75145230  1
  P  P5  1  0.95960653  0.33956705  0.58208153  1
  P  P6  1  0.66210777  0.62131983  0.58139269  1
  P  P7  1  0.66253405  0.04154521  0.08301373  1
  P  P8  1  0.37654696  0.33491015  0.08251386  1
  P  P9  1  0.62890916  0.66909840  0.91719894  1
  P  P10  1  0.04349822  0.37272915  0.91560884  1
  P  P11  1  0.33064081  0.96025433  0.91493341  1
  P  P12  1  0.62830818  0.95711410  0.41577592  1
  P  P13  1  0.32996215  0.37339324  0.41471165  1
  P  P14  1  0.04200132  0.66875740  0.41525109  1
  O  O0  1  0.19727731  0.02606125  0.30507716  1
  O  O1  1  0.83126935  0.80470094  0.30253964  1
  O  O2  1  0.97390424  0.17089572  0.30485970  1
  O  O3  1  0.20260117  0.16732915  0.80464578  1
  O  O4  1  0.97259165  0.80054448  0.80681719  1
  O  O5  1  0.83687799  0.02443641  0.80492294  1
  O  O6  1  0.78109734  0.97325770  0.68683418  1
  O  O7  1  0.19088490  0.21305492  0.69436811  1
  O  O8  1  0.03876941  0.82002316  0.69781574  1
  O  O9  1  0.78211390  0.80373356  0.19133537  1
  O  O10  1  0.02130887  0.21292508  0.19426350  1
  O  O11  1  0.19107239  0.97436459  0.19485138  1
  O  O12  1  0.86892905  0.36851571  0.63795392  1
  O  O13  1  0.49989816  0.13621892  0.64146628  1
  O  O14  1  0.63996948  0.50722534  0.63738018  1
  O  O15  1  0.86078154  0.49640470  0.14152798  1
  O  O16  1  0.63417712  0.13107634  0.13864742  1
  O  O17  1  0.49894247  0.36436145  0.13733847  1
  O  O18  1  0.44911441  0.30259686  0.02710585  1
  O  O19  1  0.83667141  0.54790293  0.02748813  1
  O  O20  1  0.69157519  0.14394948  0.02794349  1
  O  O21  1  0.45768495  0.14757911  0.52484586  1
  O  O22  1  0.69627394  0.54961084  0.52658088  1
  O  O23  1  0.84955225  0.30718216  0.52820233  1
  O  O24  1  0.54030824  0.69342691  0.97367183  1
  O  O25  1  0.16375480  0.46851810  0.97083590  1
  O  O26  1  0.31026204  0.83539291  0.96858546  1
  O  O27  1  0.53736372  0.84112868  0.47254386  1
  O  O28  1  0.30537850  0.46729539  0.47002687  1
  O  O29  1  0.16298904  0.69440207  0.47059471  1
  O  O30  1  0.11929509  0.64181363  0.36038995  1
  O  O31  1  0.52007805  0.87647128  0.36188352  1
  O  O32  1  0.35287259  0.47562639  0.35933598  1
  O  O33  1  0.12166311  0.47855025  0.86070517  1
  O  O34  1  0.35333993  0.88595925  0.85735939  1
  O  O35  1  0.52539166  0.64814484  0.86228503  1
  O  O36  1  0.03471152  0.84217505  0.40961112  1
  O  O37  1  0.80803030  0.96239367  0.40892657  1
  O  O38  1  0.15714570  0.19083754  0.40923587  1
  O  O39  1  0.03908470  0.19365342  0.91013532  1
  O  O40  1  0.15851989  0.96662202  0.91190452  1
  O  O41  1  0.81098984  0.84200994  0.91110682  1
  O  O42  1  0.98084093  0.18194125  0.58976118  1
  O  O43  1  0.17586794  0.00214694  0.58813398  1
  O  O44  1  0.80611488  0.80948386  0.58786229  1
  O  O45  1  0.98520684  0.81668561  0.08967828  1
  O  O46  1  0.81101250  0.00413788  0.09103187  1
  O  O47  1  0.19154271  0.19108550  0.09027239  1
  O  O48  1  0.69972517  0.18535586  0.74259926  1
  O  O49  1  0.47332332  0.29844764  0.74448970  1
  O  O50  1  0.82214205  0.53041372  0.74419148  1
  O  O51  1  0.69891647  0.52399172  0.24420949  1
  O  O52  1  0.82097034  0.29404677  0.24474884  1
  O  O53  1  0.47375904  0.17618491  0.24476516  1
  O  O54  1  0.65810922  0.51517804  0.92074818  1
  O  O55  1  0.86039472  0.33859179  0.92245890  1
  O  O56  1  0.48503449  0.14035108  0.92258516  1
  O  O57  1  0.66515776  0.14220574  0.42175187  1
  O  O58  1  0.48234441  0.34329891  0.42004173  1
  O  O59  1  0.85946322  0.51787371  0.42297843  1
  O  O60  1  0.37823742  0.51392034  0.07622585  1
  O  O61  1  0.14954809  0.63481697  0.07424667  1
  O  O62  1  0.49279570  0.85660775  0.07629502  1
  O  O63  1  0.36969451  0.85022674  0.57537880  1
  O  O64  1  0.48797319  0.62812447  0.57539378  1
  O  O65  1  0.14084871  0.50756454  0.57586740  1
  O  O66  1  0.32581121  0.85101745  0.25692845  1
  O  O67  1  0.52640207  0.67626851  0.25572174  1
  O  O68  1  0.14596806  0.47405772  0.25601479  1
  O  O69  1  0.32194119  0.47249414  0.75675130  1
  O  O70  1  0.14743057  0.67558202  0.75904041  1
  O  O71  1  0.50939577  0.84804068  0.75410936  1
loop_
_geom_bond_atom_site_label_1
_geom_bond_atom_site_label_2
_geom_bond_distance
_geom_bond_site_symmetry_2
Na0 O71 2.297031 1_555
Na0 O49 2.408553 1_565
Na0 O70 2.472852 1_555
Na0 O34 2.554409 1_555
Na0 O48 2.686464 1_565
Na0 O8 2.739584 1_555
Na0 O3 2.806561 1_565
Na0 O13 2.837679 1_565
Na1 O44 2.329223 1_555
Na1 O63 2.377783 1_555
Na1 O42 2.416957 1_565
Na1 O6 2.443404 1_555
Na1 O64 2.716706 1_555
Na1 O13 2.837953 1_565
Na1 O23 2.888739 1_565
Na1 O27 2.896834 1_555
Na2 O46 2.364170 1_565
Na2 O60 2.368028 1_555
Na2 O45 2.374407 1_555
Na2 O9 2.626283 1_555
Na2 O62 2.676360 1_555
Na2 O19 2.687610 1_555
Na2 O24 2.769877 1_554
Na2 O17 2.874279 1_555
Na3 O43 2.328577 1_555
Na3 O44 2.619042 1_445
Na3 O36 2.626515 1_545
Na3 O42 2.647718 1_455
Na3 O38 2.651145 1_555
Na3 O37 2.809375 1_445
Na4 O45 2.478092 1_445
Na4 O47 2.506273 1_555
Na4 O40 2.586896 1_544
Na4 O46 2.666494 1_455
Na4 O39 2.677025 1_554
Na4 O41 2.724629 1_444
Na5 O54 2.434869 1_555
Na5 O55 2.505055 1_555
Na5 O56 2.596417 1_555
Na5 O50 2.631927 1_555
Na5 O48 2.695324 1_555
Na5 O49 2.730387 1_555
Na6 O58 2.491499 1_555
Na6 O57 2.531303 1_555
Na6 O59 2.563185 1_555
Na6 O53 2.646320 1_555
Na6 O52 2.666395 1_555
Na6 O51 2.671452 1_555
Na7 O68 2.486474 1_555
Na7 O66 2.490732 1_555
Na7 O67 2.580752 1_555
Na7 O61 2.667644 1_555
Na7 O62 2.745137 1_555
Na7 O60 2.777560 1_555
Na8 O69 2.439736 1_555
Na8 O71 2.517274 1_555
Na8 O70 2.626487 1_555
Na8 O65 2.667871 1_555
Na8 O64 2.685812 1_555
Na8 O63 2.770034 1_555
In0 O6 2.057720 1_455
In0 O43 2.062890 1_565
In0 O8 2.093880 1_555
In0 O7 2.096115 1_565
In0 O44 2.195518 1_455
In0 O42 2.200033 1_465
In1 O10 2.064214 1_555
In1 O11 2.065915 1_545
In1 O45 2.090543 1_445
In1 O9 2.128292 1_445
In1 O47 2.136213 1_555
In1 O46 2.197973 1_455
In2 O19 2.031815 1_556
In2 O20 2.093209 1_556
In2 O18 2.106281 1_556
In2 O56 2.147740 1_555
In2 O55 2.159018 1_555
In2 O54 2.160784 1_555
In3 O21 2.019878 1_555
In3 O22 2.087977 1_555
In3 O23 2.106666 1_555
In3 O58 2.141697 1_555
In3 O59 2.143290 1_555
In3 O57 2.164408 1_555
In4 O32 2.065271 1_555
In4 O31 2.077623 1_555
In4 O30 2.083286 1_555
In4 O66 2.129398 1_555
In4 O67 2.152648 1_555
In4 O68 2.153929 1_555
In5 O35 2.051841 1_555
In5 O33 2.076437 1_555
In5 O71 2.115309 1_555
In5 O34 2.119768 1_555
In5 O69 2.131965 1_555
In5 O70 2.169606 1_555
O0 P0 1.591465 1_555
O0 Ta0 1.990788 1_545
O1 P1 1.585570 1_555
O1 Ta0 2.012214 1_655
O2 P2 1.585373 1_555
O2 Ta0 1.997746 1_645
O3 P3 1.586886 1_555
O3 Ta1 2.048049 1_445
O4 P4 1.582556 1_555
O4 Ta1 2.001986 1_555
O5 Si0 1.685877 1_555
O5 Ta1 1.902538 1_545
O6 Si0 1.591118 1_565
O7 P3 1.506652 1_555
O8 P4 1.510044 1_455
O9 P1 1.522753 1_555
O10 P2 1.507993 1_455
O11 P0 1.506891 1_565
O12 P5 1.593897 1_555
O12 Ta2 1.992736 1_555
O13 Si1 1.709466 1_555
O13 Ta2 1.938281 1_555
O14 P6 1.578084 1_555
O14 Ta2 2.031843 1_555
O15 Si2 1.690662 1_555
O15 Ta3 1.904812 1_555
O16 P7 1.581021 1_555
O16 Ta3 2.016805 1_555
O17 P8 1.589590 1_555
O17 Ta3 2.043095 1_555
O18 P8 1.507456 1_555
O19 Si2 1.585911 1_555
O20 P7 1.492941 1_555
O21 Si1 1.571579 1_555
O22 P6 1.498736 1_555
O23 P5 1.504229 1_555
O24 P9 1.577557 1_555
O24 Ta4 2.076802 1_556
O25 P10 1.593132 1_555
O25 Ta4 1.980469 1_556
O26 P11 1.598587 1_555
O26 Ta4 1.972784 1_556
O27 P12 1.597132 1_555
O27 Ta5 2.026396 1_555
O28 P13 1.584581 1_555
O28 Ta5 2.021160 1_555
O29 P14 1.597597 1_555
O29 Ta5 1.979201 1_555
O30 P14 1.500523 1_555
O31 P12 1.501267 1_555
O32 P13 1.506147 1_555
O33 P10 1.507760 1_555
O34 P11 1.524333 1_555
O35 P9 1.507376 1_555
O36 P14 1.585280 1_555
O36 Ta0 2.024156 1_555
O37 P12 1.589009 1_555
O37 Ta0 2.011127 1_655
O38 P13 1.591401 1_555
O38 Ta0 2.010907 1_545
O39 P10 1.582469 1_555
O39 Ta1 2.015962 1_445
O40 P11 1.567316 1_555
O40 Ta1 2.086094 1_455
O41 P9 1.590829 1_555
O41 Ta1 2.000342 1_555
O42 P5 1.519561 1_555
O43 Si1 1.590519 1_555
O44 P6 1.526834 1_555
O45 Si2 1.608024 1_555
O46 P7 1.531067 1_555
O47 P8 1.511267 1_555
O48 Si0 1.687070 1_555
O48 Ta2 1.947459 1_555
O49 P3 1.589840 1_555
O49 Ta2 2.074402 1_555
O50 P4 1.558505 1_555
O50 Ta2 2.065887 1_555
O51 P1 1.585190 1_555
O51 Ta3 2.028351 1_555
O52 P2 1.586664 1_555
O52 Ta3 2.014429 1_555
O53 P0 1.572663 1_555
O53 Ta3 2.063501 1_555
O54 P9 1.522070 1_555
O55 P10 1.513540 1_655
O56 P11 1.514638 1_545
O57 P12 1.519095 1_545
O58 P13 1.517497 1_555
O59 P14 1.517395 1_655
O60 P8 1.595310 1_555
O60 Ta4 2.073888 1_555
O61 Si2 1.667657 1_455
O61 Ta4 1.916627 1_555
O62 P7 1.593269 1_565
O62 Ta4 2.044135 1_555
O63 Si1 1.700601 1_565
O63 Ta5 1.955937 1_555
O64 P6 1.591693 1_555
O64 Ta5 2.043078 1_555
O65 P5 1.567327 1_455
O65 Ta5 2.024334 1_555
O66 P0 1.522352 1_565
O67 P1 1.515459 1_555
O68 P2 1.518598 1_455
O69 P3 1.509181 1_555
O70 P4 1.525407 1_455
O71 Si0 1.613654 1_565
