# generated using pymatgen
data_V3(P3O10)2
_symmetry_space_group_name_H-M   'P 1'
_cell_length_a   8.43861206
_cell_length_b   8.43861206
_cell_length_c   12.34589100
_cell_angle_alpha   90.00000000
_cell_angle_beta   90.00000000
_cell_angle_gamma   105.18066735
_symmetry_Int_Tables_number   1
_chemical_formula_structural   V3(P3O10)2
_chemical_formula_sum   'V6 P12 O40'
_cell_volume   848.47491345
_cell_formula_units_Z   2
loop_
 _symmetry_equiv_pos_site_id
 _symmetry_equiv_pos_as_xyz
  1  'x, y, z'
loop_
 _atom_site_type_symbol
 _atom_site_label
 _atom_site_symmetry_multiplicity
 _atom_site_fract_x
 _atom_site_fract_y
 _atom_site_fract_z
 _atom_site_occupancy
  V  V0  1  0.76179000  0.23821000  0.50000000  1
  V  V1  1  0.13962100  0.13962100  0.75000000  1
  V  V2  1  0.70543500  0.29456500  0.00000000  1
  V  V3  1  0.29456500  0.70543500  0.50000000  1
  V  V4  1  0.86037900  0.86037900  0.25000000  1
  V  V5  1  0.23821000  0.76179000  0.00000000  1
  P  P0  1  0.74330100  0.14973800  0.76456000  1
  P  P1  1  0.36958600  0.09249900  0.43112600  1
  P  P2  1  0.85026200  0.25669900  0.23544000  1
  P  P3  1  0.30116000  0.17942200  0.97352400  1
  P  P4  1  0.17942200  0.30116000  0.52647600  1
  P  P5  1  0.09249900  0.36958600  0.06887400  1
  P  P6  1  0.90750100  0.63041400  0.56887400  1
  P  P7  1  0.82057800  0.69884000  0.02647600  1
  P  P8  1  0.69884000  0.82057800  0.47352400  1
  P  P9  1  0.14973800  0.74330100  0.73544000  1
  P  P10  1  0.63041400  0.90750100  0.93112600  1
  P  P11  1  0.25669900  0.85026200  0.26456000  1
  O  O0  1  0.74003200  0.00469300  0.46143700  1
  O  O1  1  0.85212300  0.07437300  0.22363000  1
  O  O2  1  0.67275300  0.05524300  0.00564300  1
  O  O3  1  0.92562700  0.14787700  0.77637000  1
  O  O4  1  0.25996800  0.99530700  0.96143700  1
  O  O5  1  0.35952000  0.03293000  0.30717900  1
  O  O6  1  0.69191500  0.15926800  0.64813000  1
  O  O7  1  0.99530700  0.25996800  0.53856300  1
  O  O8  1  0.52914200  0.21807500  0.45162300  1
  O  O9  1  0.94475700  0.32724700  0.99435700  1
  O  O10  1  0.84073200  0.30808500  0.35187000  1
  O  O11  1  0.69760900  0.27414200  0.83901100  1
  O  O12  1  0.22061200  0.17780900  0.43594800  1
  O  O13  1  0.72585800  0.30239100  0.16098900  1
  O  O14  1  0.47157600  0.26377000  0.01349500  1
  O  O15  1  0.17780900  0.22061200  0.06405200  1
  O  O16  1  0.26043700  0.25575600  0.86566100  1
  O  O17  1  0.25575600  0.26043700  0.63433900  1
  O  O18  1  0.78192500  0.47085800  0.54837700  1
  O  O19  1  0.73623000  0.52842400  0.98650500  1
  O  O20  1  0.03293000  0.35952000  0.19282100  1
  O  O21  1  0.96707000  0.64048000  0.69282100  1
  O  O22  1  0.26377000  0.47157600  0.48650500  1
  O  O23  1  0.21807500  0.52914200  0.04837700  1
  O  O24  1  0.00469300  0.74003200  0.03856300  1
  O  O25  1  0.74424400  0.73956300  0.13433900  1
  O  O26  1  0.73956300  0.74424400  0.36566100  1
  O  O27  1  0.82219100  0.77938800  0.56405200  1
  O  O28  1  0.52842400  0.73623000  0.51349500  1
  O  O29  1  0.27414200  0.69760900  0.66098900  1
  O  O30  1  0.77938800  0.82219100  0.93594800  1
  O  O31  1  0.30239100  0.72585800  0.33901100  1
  O  O32  1  0.15926800  0.69191500  0.85187000  1
  O  O33  1  0.05524300  0.67275300  0.49435700  1
  O  O34  1  0.47085800  0.78192500  0.95162300  1
  O  O35  1  0.30808500  0.84073200  0.14813000  1
  O  O36  1  0.64048000  0.96707000  0.80717900  1
  O  O37  1  0.07437300  0.85212300  0.27637000  1
  O  O38  1  0.32724700  0.94475700  0.50564300  1
  O  O39  1  0.14787700  0.92562700  0.72363000  1
loop_
_geom_bond_atom_site_label_1
_geom_bond_atom_site_label_2
_geom_bond_distance
_geom_bond_site_symmetry_2
O0 P8 1.508031 1_545
O0 V0 1.988465 1_555
O1 P2 1.549640 1_555
O1 V4 1.854101 1_545
O2 P10 1.514952 1_544
O2 V2 1.966666 1_555
O3 P0 1.549640 1_555
O3 V1 1.854101 1_655
O4 P3 1.508031 1_565
O4 V5 1.988465 1_556
O5 P1 1.605977 1_555
O5 P11 1.644791 1_545
O6 P0 1.509627 1_555
O6 V0 1.982481 1_555
O7 P4 1.508031 1_655
O7 V0 1.988465 1_555
O8 P1 1.500866 1_555
O8 V0 2.016220 1_555
O9 P5 1.514952 1_656
O9 V2 1.966666 1_556
O10 P2 1.509627 1_555
O10 V0 1.982481 1_555
O11 P0 1.519078 1_555
O11 V2 1.994610 1_556
O12 P1 1.605042 1_555
O12 P4 1.625712 1_555
O13 P2 1.519078 1_555
O13 V2 1.994610 1_555
O14 P3 1.510671 1_554
O14 V2 1.929039 1_555
O15 P5 1.605042 1_555
O15 P3 1.625712 1_554
O16 P3 1.556370 1_555
O16 V1 1.874989 1_555
O17 P4 1.556370 1_555
O17 V1 1.874989 1_555
O18 P6 1.500866 1_555
O18 V0 2.016220 1_555
O19 P7 1.510671 1_556
O19 V2 1.929039 1_556
O20 P5 1.605977 1_555
O20 P2 1.644791 1_455
O21 P6 1.605977 1_555
O21 P9 1.644791 1_655
O22 P4 1.510671 1_555
O22 V3 1.929039 1_555
O23 P5 1.500866 1_555
O23 V5 2.016220 1_555
O24 P7 1.508031 1_455
O24 V5 1.988465 1_555
O25 P7 1.556370 1_555
O25 V4 1.874989 1_555
O26 P8 1.556370 1_555
O26 V4 1.874989 1_555
O27 P6 1.605042 1_555
O27 P8 1.625712 1_555
O28 P8 1.510671 1_555
O28 V3 1.929039 1_555
O29 P9 1.519078 1_555
O29 V3 1.994610 1_555
O30 P10 1.605042 1_555
O30 P7 1.625712 1_556
O31 P11 1.519078 1_555
O31 V3 1.994610 1_555
O32 P9 1.509627 1_555
O32 V5 1.982481 1_556
O33 P6 1.514952 1_455
O33 V3 1.966666 1_555
O34 P10 1.500866 1_555
O34 V5 2.016220 1_556
O35 P11 1.509627 1_555
O35 V5 1.982481 1_555
O36 P10 1.605977 1_555
O36 P0 1.644791 1_565
O37 P11 1.549640 1_555
O37 V4 1.854101 1_455
O38 P1 1.514952 1_565
O38 V3 1.966666 1_555
O39 P9 1.549640 1_555
O39 V1 1.854101 1_565
