# generated using pymatgen
data_Cd3P2
_symmetry_space_group_name_H-M   'P 1'
_cell_length_a   6.26616700
_cell_length_b   6.26616700
_cell_length_c   6.26616700
_cell_angle_alpha   90.00000000
_cell_angle_beta   90.00000000
_cell_angle_gamma   90.00000000
_symmetry_Int_Tables_number   1
_chemical_formula_structural   Cd3P2
_chemical_formula_sum   'Cd6 P4'
_cell_volume   246.04010026
_cell_formula_units_Z   2
loop_
 _symmetry_equiv_pos_site_id
 _symmetry_equiv_pos_as_xyz
  1  'x, y, z'
loop_
 _atom_site_type_symbol
 _atom_site_label
 _atom_site_symmetry_multiplicity
 _atom_site_fract_x
 _atom_site_fract_y
 _atom_site_fract_z
 _atom_site_occupancy
  Cd  Cd0  1  0.50000000  0.00000000  0.50000000  1
  Cd  Cd1  1  0.50000000  0.50000000  0.00000000  1
  Cd  Cd2  1  0.00000000  0.50000000  0.00000000  1
  Cd  Cd3  1  0.00000000  0.00000000  0.50000000  1
  Cd  Cd4  1  0.50000000  0.00000000  0.00000000  1
  Cd  Cd5  1  0.00000000  0.50000000  0.50000000  1
  P  P0  1  0.25000000  0.75000000  0.75000000  1
  P  P1  1  0.75000000  0.75000000  0.25000000  1
  P  P2  1  0.75000000  0.25000000  0.75000000  1
  P  P3  1  0.25000000  0.25000000  0.25000000  1
loop_
_geom_bond_atom_site_label_1
_geom_bond_atom_site_label_2
_geom_bond_distance
_geom_bond_site_symmetry_2
Cd0 P1 2.713330 1_545
Cd0 P0 2.713330 1_545
Cd0 P3 2.713330 1_555
Cd0 P2 2.713330 1_555
Cd1 P0 2.713330 1_554
Cd1 P3 2.713330 1_555
Cd1 P2 2.713330 1_554
Cd1 P1 2.713330 1_555
Cd2 P2 2.713330 1_454
Cd2 P0 2.713330 1_554
Cd2 P1 2.713330 1_455
Cd2 P3 2.713330 1_555
Cd3 P3 2.713330 1_555
Cd3 P2 2.713330 1_455
Cd3 P1 2.713330 1_445
Cd3 P0 2.713330 1_545
Cd4 P1 2.713330 1_545
Cd4 P2 2.713330 1_554
Cd4 P3 2.713330 1_555
Cd4 P0 2.713330 1_544
Cd5 P3 2.713330 1_555
Cd5 P1 2.713330 1_455
Cd5 P2 2.713330 1_455
Cd5 P0 2.713330 1_555
