# generated using pymatgen
data_Sr4MgFe4O11
_symmetry_space_group_name_H-M   'P 1'
_cell_length_a   5.57044323
_cell_length_b   6.96838375
_cell_length_c   7.11342211
_cell_angle_alpha   103.38888086
_cell_angle_beta   90.00638939
_cell_angle_gamma   89.98975335
_symmetry_Int_Tables_number   1
_chemical_formula_structural   Sr4MgFe4O11
_chemical_formula_sum   'Sr4 Mg1 Fe4 O11'
_cell_volume   268.61684713
_cell_formula_units_Z   1
loop_
 _symmetry_equiv_pos_site_id
 _symmetry_equiv_pos_as_xyz
  1  'x, y, z'
loop_
 _atom_site_type_symbol
 _atom_site_label
 _atom_site_symmetry_multiplicity
 _atom_site_fract_x
 _atom_site_fract_y
 _atom_site_fract_z
 _atom_site_occupancy
  Sr  Sr0  1  0.00013697  0.74441884  0.24838178  1
  Sr  Sr1  1  0.00001635  0.25070393  0.74264509  1
  Sr  Sr2  1  0.50011985  0.03336622  0.03157693  1
  Sr  Sr3  1  0.50006961  0.39134598  0.40256877  1
  Mg  Mg0  1  0.49992551  0.70217193  0.73723632  1
  Fe  Fe0  1  0.50003792  0.95110735  0.46668336  1
  Fe  Fe1  1  0.50003320  0.51257217  0.01288300  1
  Fe  Fe2  1  0.00003513  0.26284970  0.26523650  1
  Fe  Fe3  1  -0.00004643  0.73675530  0.74038597  1
  O  O0  1  0.25770540  0.89938002  0.66067056  1
  O  O1  1  0.24759824  0.08720138  0.34133161  1
  O  O2  1  0.75633019  0.70926791  0.93925743  1
  O  O3  1  0.75773073  0.33742152  0.08917683  1
  O  O4  1  0.75254983  0.08713250  0.34135842  1
  O  O5  1  0.74201032  0.89969577  0.66113187  1
  O  O6  1  0.24234761  0.33756813  0.08929563  1
  O  O7  1  0.24373513  0.70963901  0.93937076  1
  O  O8  1  -0.00018764  0.49163380  0.50558972  1
  O  O9  1  0.50012896  0.69823893  0.29217929  1
  O  O10  1  0.49971412  0.39826762  0.73377613  1
loop_
_geom_bond_atom_site_label_1
_geom_bond_atom_site_label_2
_geom_bond_distance
_geom_bond_site_symmetry_2
Mg0 O7 2.018056 1_555
Mg0 O2 2.018478 1_555
Mg0 O0 2.086016 1_555
Mg0 O5 2.086153 1_555
Mg0 O10 2.112159 1_555
Fe0 O9 1.906000 1_555
Fe0 O1 2.015624 1_565
Fe0 O4 2.015900 1_565
Fe0 O0 2.021697 1_555
Fe0 O5 2.021706 1_555
Fe1 O10 1.960586 1_554
Fe1 O3 2.037349 1_555
Fe1 O6 2.037362 1_555
Fe1 O9 2.104916 1_555
Fe1 O2 2.127108 1_554
Fe1 O7 2.128200 1_554
Fe2 O3 1.990246 1_455
Fe2 O6 1.990425 1_555
Fe2 O1 1.999736 1_555
Fe2 O4 2.000225 1_455
Fe2 O8 2.049999 1_555
Fe3 O0 1.991386 1_555
Fe3 O5 1.991805 1_455
Fe3 O2 2.001411 1_455
Fe3 O7 2.001667 1_555
Fe3 O8 2.094271 1_555
O0 Sr1 2.780612 1_565
O0 Sr2 2.918087 1_566
O0 Sr0 3.218506 1_555
O1 Sr3 2.496570 1_555
O1 Sr2 2.567518 1_555
O1 Sr0 2.704164 1_545
O1 Sr1 3.137442 1_555
O2 Sr0 2.547504 1_656
O2 Sr2 2.623152 1_566
O3 Sr2 2.513014 1_555
O3 Sr3 2.604525 1_555
O3 Sr1 2.752024 1_654
O3 Sr0 3.108531 1_655
O4 Sr3 2.496617 1_555
O4 Sr2 2.567225 1_555
O4 Sr0 2.703772 1_645
O4 Sr1 3.136975 1_655
O5 Sr1 2.780062 1_665
O5 Sr2 2.913887 1_566
O5 Sr0 3.223022 1_655
O6 Sr2 2.513942 1_555
O6 Sr3 2.603872 1_555
O6 Sr1 2.752712 1_554
O6 Sr0 3.106752 1_555
O7 Sr0 2.546691 1_556
O7 Sr2 2.621924 1_566
O8 Sr1 2.640705 1_555
O8 Sr0 2.818337 1_555
O8 Sr3 2.921980 1_455
O8 Sr3 2.924628 1_555
O9 Sr3 2.442889 1_555
O9 Sr0 2.829089 1_555
O9 Sr0 2.829359 1_655
O10 Sr3 2.345320 1_555
O10 Sr1 2.973303 1_555
O10 Sr1 2.976098 1_655
