# generated using pymatgen
data_MgV3(OF)4
_symmetry_space_group_name_H-M   'P 1'
_cell_length_a   4.89025730
_cell_length_b   9.80758737
_cell_length_c   3.06046200
_cell_angle_alpha   90.00000000
_cell_angle_beta   90.00000000
_cell_angle_gamma   89.55221423
_symmetry_Int_Tables_number   1
_chemical_formula_structural   MgV3(OF)4
_chemical_formula_sum   'Mg1 V3 O4 F4'
_cell_volume   146.78025023
_cell_formula_units_Z   1
loop_
 _symmetry_equiv_pos_site_id
 _symmetry_equiv_pos_as_xyz
  1  'x, y, z'
loop_
 _atom_site_type_symbol
 _atom_site_label
 _atom_site_symmetry_multiplicity
 _atom_site_fract_x
 _atom_site_fract_y
 _atom_site_fract_z
 _atom_site_occupancy
  Mg  Mg0  1  0.44615300  0.09424900  0.75000000  1
  V  V0  1  0.03462700  0.84010600  0.75000000  1
  V  V1  1  0.41070000  0.38631900  0.75000000  1
  V  V2  1  0.55037400  0.63631800  0.25000000  1
  O  O0  1  0.27841400  0.48638600  0.25000000  1
  O  O1  1  0.36551100  0.73744700  0.75000000  1
  O  O2  1  0.69023200  0.52921900  0.75000000  1
  O  O3  1  0.86159400  0.75798700  0.25000000  1
  F  F0  1  0.15605500  0.23321300  0.75000000  1
  F  F1  1  0.27343000  0.98187000  0.25000000  1
  F  F2  1  0.57495900  0.23775900  0.25000000  1
  F  F3  1  0.78985300  0.00110900  0.75000000  1
loop_
_geom_bond_atom_site_label_1
_geom_bond_atom_site_label_2
_geom_bond_distance
_geom_bond_site_symmetry_2
O0 V1 1.927007 1_554
O0 V1 1.927007 1_555
O0 V2 1.990385 1_555
O1 V0 1.899086 1_555
O1 V2 2.031893 1_556
O1 V2 2.031893 1_555
O2 V1 1.965402 1_555
O2 V2 1.975211 1_556
O2 V2 1.975211 1_555
O3 V0 1.927933 1_655
O3 V0 1.927933 1_654
O3 V2 1.941294 1_555
F0 V1 1.958253 1_555
F0 Mg0 1.959556 1_555
F1 Mg0 2.069874 1_565
F1 Mg0 2.069874 1_564
F1 V0 2.379889 1_555
F1 V0 2.379889 1_554
F2 Mg0 2.175604 1_554
F2 Mg0 2.175604 1_555
F2 V1 2.256424 1_554
F2 V1 2.256424 1_555
F3 Mg0 1.906691 1_555
F3 V0 1.974003 1_645
