# generated using pymatgen
data_Ca2Bi2O5
_symmetry_space_group_name_H-M   'P 1'
_cell_length_a   10.23607500
_cell_length_b   10.28365365
_cell_length_c   10.66295723
_cell_angle_alpha   107.27285899
_cell_angle_beta   116.96257831
_cell_angle_gamma   93.72757626
_symmetry_Int_Tables_number   1
_chemical_formula_structural   Ca2Bi2O5
_chemical_formula_sum   'Ca12 Bi12 O30'
_cell_volume   928.65329292
_cell_formula_units_Z   6
loop_
 _symmetry_equiv_pos_site_id
 _symmetry_equiv_pos_as_xyz
  1  'x, y, z'
loop_
 _atom_site_type_symbol
 _atom_site_label
 _atom_site_symmetry_multiplicity
 _atom_site_fract_x
 _atom_site_fract_y
 _atom_site_fract_z
 _atom_site_occupancy
  Ca  Ca0  1  0.42933500  0.83155500  0.83998600  1
  Ca  Ca1  1  0.57066500  0.16844500  0.16001400  1
  Ca  Ca2  1  0.34633300  0.59259600  0.02438400  1
  Ca  Ca3  1  0.65366700  0.40740400  0.97561600  1
  Ca  Ca4  1  0.52080100  0.94226900  0.33753400  1
  Ca  Ca5  1  0.47919900  0.05773100  0.66246600  1
  Ca  Ca6  1  0.89335800  0.15207000  0.48423400  1
  Ca  Ca7  1  0.10664200  0.84793000  0.51576600  1
  Ca  Ca8  1  0.79841600  0.78450500  0.18299600  1
  Ca  Ca9  1  0.20158400  0.21549500  0.81700400  1
  Ca  Ca10  1  0.89822000  0.33972700  0.85367600  1
  Ca  Ca11  1  0.10178000  0.66027300  0.14632400  1
  Bi  Bi0  1  0.75139800  0.66354400  0.82122000  1
  Bi  Bi1  1  0.24860200  0.33645600  0.17878000  1
  Bi  Bi2  1  0.69260900  0.57524400  0.33288700  1
  Bi  Bi3  1  0.30739100  0.42475600  0.66711300  1
  Bi  Bi4  1  0.57354300  0.31168800  0.53438100  1
  Bi  Bi5  1  0.42645700  0.68831200  0.46561900  1
  Bi  Bi6  1  0.84966000  0.92390800  0.64709700  1
  Bi  Bi7  1  0.15034000  0.07609200  0.35290300  1
  Bi  Bi8  1  0.97780600  0.42747700  0.30385000  1
  Bi  Bi9  1  0.02219400  0.57252300  0.69615000  1
  Bi  Bi10  1  0.79351600  0.05890200  0.01313100  1
  Bi  Bi11  1  0.20648400  0.94109800  0.98686900  1
  O  O0  1  0.52214600  0.55573600  0.70519900  1
  O  O1  1  0.47785400  0.44426400  0.29480100  1
  O  O2  1  0.92984200  0.63302800  0.34794000  1
  O  O3  1  0.07015800  0.36697200  0.65206000  1
  O  O4  1  0.63745200  0.26808700  0.73854100  1
  O  O5  1  0.36254800  0.73191300  0.26145900  1
  O  O6  1  0.80723500  0.46095900  0.68234000  1
  O  O7  1  0.19276500  0.53904100  0.31766000  1
  O  O8  1  0.89586600  0.32259800  0.06874000  1
  O  O9  1  0.10413400  0.67740200  0.93126000  1
  O  O10  1  0.57078600  0.08471200  0.92254900  1
  O  O11  1  0.42921400  0.91528800  0.07745100  1
  O  O12  1  0.83146100  0.58833800  0.99939500  1
  O  O13  1  0.16853900  0.41166200  0.00060500  1
  O  O14  1  0.71977100  0.38124800  0.21642100  1
  O  O15  1  0.28022900  0.61875200  0.78357900  1
  O  O16  1  0.94176600  0.13921200  0.72553500  1
  O  O17  1  0.05823400  0.86078800  0.27446500  1
  O  O18  1  0.60297700  0.62115400  0.13678300  1
  O  O19  1  0.39702300  0.37884600  0.86321700  1
  O  O20  1  0.82585200  0.90337400  0.43249500  1
  O  O21  1  0.17414800  0.09662600  0.56750500  1
  O  O22  1  0.65235900  0.16963400  0.40530400  1
  O  O23  1  0.34764100  0.83036600  0.59469600  1
  O  O24  1  0.38173000  0.08005800  0.42321700  1
  O  O25  1  0.61827000  0.91994200  0.57678300  1
  O  O26  1  0.30688600  0.16202200  0.03558300  1
  O  O27  1  0.69311400  0.83797800  0.96441700  1
  O  O28  1  0.16696200  0.89228100  0.76489600  1
  O  O29  1  0.83303800  0.10771900  0.23510400  1
loop_
_geom_bond_atom_site_label_1
_geom_bond_atom_site_label_2
_geom_bond_distance
_geom_bond_site_symmetry_2
Ca0 O15 2.330645 1_555
Ca0 O23 2.353014 1_555
Ca0 O27 2.394001 1_555
Ca0 O11 2.420970 1_556
Ca0 O10 2.577202 1_565
Ca0 O28 2.609389 1_555
Ca1 O14 2.330645 1_555
Ca1 O22 2.353014 1_555
Ca1 O26 2.394001 1_555
Ca1 O10 2.420970 1_554
Ca1 O11 2.577202 1_545
Ca1 O29 2.609389 1_555
Ca2 O18 2.293356 1_555
Ca2 O13 2.387369 1_555
Ca2 O5 2.430717 1_555
Ca2 O15 2.445718 1_554
Ca2 O9 2.540845 1_554
Ca2 O19 2.601524 1_554
Ca3 O19 2.293356 1_555
Ca3 O12 2.387369 1_555
Ca3 O4 2.430717 1_555
Ca3 O14 2.445718 1_556
Ca3 O8 2.540845 1_556
Ca3 O18 2.601524 1_556
Ca4 O5 2.296157 1_555
Ca4 O22 2.346770 1_565
Ca4 O24 2.354125 1_565
Ca4 O25 2.371878 1_555
Ca4 O11 2.407988 1_555
Ca4 O20 2.910534 1_555
Ca5 O4 2.296157 1_555
Ca5 O23 2.346770 1_545
Ca5 O25 2.354125 1_545
Ca5 O24 2.371878 1_555
Ca5 O10 2.407988 1_555
Ca5 O21 2.910534 1_555
Ca6 O22 2.256536 1_555
Ca6 O29 2.324342 1_555
Ca6 O3 2.357155 1_655
Ca6 O20 2.430905 1_545
Ca6 O16 2.436735 1_555
Ca6 O21 2.752077 1_655
Ca7 O23 2.256536 1_555
Ca7 O28 2.324342 1_555
Ca7 O2 2.357155 1_455
Ca7 O21 2.430905 1_565
Ca7 O17 2.436735 1_555
Ca7 O20 2.752077 1_455
Ca8 O18 2.290054 1_555
Ca8 O27 2.335898 1_554
Ca8 O17 2.358359 1_655
Ca8 O20 2.448973 1_555
Ca8 O12 2.522021 1_554
Ca8 O2 2.661493 1_555
Ca9 O19 2.290054 1_555
Ca9 O26 2.335898 1_556
Ca9 O16 2.358359 1_455
Ca9 O21 2.448973 1_555
Ca9 O13 2.522021 1_556
Ca9 O3 2.661493 1_555
Ca10 O16 2.305697 1_555
Ca10 O4 2.326024 1_555
Ca10 O8 2.362181 1_556
Ca10 O6 2.391654 1_555
Ca10 O13 2.402622 1_656
Ca10 O12 2.872033 1_555
Ca11 O17 2.305697 1_555
Ca11 O5 2.326024 1_555
Ca11 O9 2.362181 1_554
Ca11 O7 2.391654 1_555
Ca11 O12 2.402622 1_454
Ca11 O13 2.872033 1_555
Bi0 O12 2.102936 1_555
Bi0 O0 2.116835 1_555
Bi0 O27 2.289942 1_555
Bi0 O6 2.439286 1_555
Bi1 O13 2.102936 1_555
Bi1 O1 2.116835 1_555
Bi1 O26 2.289942 1_555
Bi1 O7 2.439286 1_555
Bi2 O18 2.083270 1_555
Bi2 O14 2.124497 1_555
Bi2 O1 2.300462 1_555
Bi2 O2 2.382848 1_555
Bi3 O19 2.083270 1_555
Bi3 O15 2.124497 1_555
Bi3 O0 2.300462 1_555
Bi3 O3 2.382848 1_555
Bi4 O22 2.155318 1_555
Bi4 O4 2.166675 1_555
Bi4 O6 2.286838 1_555
Bi4 O24 2.557087 1_555
Bi5 O23 2.155318 1_555
Bi5 O5 2.166675 1_555
Bi5 O7 2.286838 1_555
Bi5 O25 2.557087 1_555
Bi6 O16 2.098692 1_565
Bi6 O25 2.129002 1_555
Bi6 O20 2.130945 1_555
Bi7 O17 2.098692 1_545
Bi7 O24 2.129002 1_555
Bi7 O21 2.130945 1_555
Bi8 O8 2.126396 1_555
Bi8 O2 2.164344 1_555
Bi8 O14 2.326381 1_555
Bi8 O7 2.336032 1_655
Bi9 O9 2.126396 1_555
Bi9 O3 2.164344 1_555
Bi9 O15 2.326381 1_555
Bi9 O6 2.336032 1_455
Bi10 O29 2.101789 1_555
Bi10 O10 2.106005 1_554
Bi10 O27 2.235866 1_544
Bi10 O8 2.629680 1_555
Bi11 O28 2.101789 1_555
Bi11 O11 2.106005 1_556
Bi11 O26 2.235866 1_566
Bi11 O9 2.629680 1_555
