# generated using pymatgen
data_Na8CaSi4Ge3(PO12)2
_symmetry_space_group_name_H-M   'P 1'
_cell_length_a   8.94837020
_cell_length_b   9.00012747
_cell_length_c   21.82498877
_cell_angle_alpha   89.86674493
_cell_angle_beta   89.84434476
_cell_angle_gamma   120.10316209
_symmetry_Int_Tables_number   1
_chemical_formula_structural   Na8CaSi4Ge3(PO12)2
_chemical_formula_sum   'Na24 Ca3 Si12 Ge9 P6 O72'
_cell_volume   1520.61514939
_cell_formula_units_Z   3
loop_
 _symmetry_equiv_pos_site_id
 _symmetry_equiv_pos_as_xyz
  1  'x, y, z'
loop_
 _atom_site_type_symbol
 _atom_site_label
 _atom_site_symmetry_multiplicity
 _atom_site_fract_x
 _atom_site_fract_y
 _atom_site_fract_z
 _atom_site_occupancy
  Na  Na0  1  0.64274714  0.00982356  0.24200123  1
  Na  Na1  1  0.36755124  0.35653937  0.24296501  1
  Na  Na2  1  0.99036377  0.63182754  0.24297121  1
  Na  Na3  1  0.62590775  0.61372032  0.74773085  1
  Na  Na4  1  0.98584001  0.37329037  0.75237500  1
  Na  Na5  1  0.38701824  0.00672145  0.74604755  1
  Na  Na6  1  0.31033632  0.33718222  0.58675509  1
  Na  Na7  1  0.02697062  0.69260298  0.58350448  1
  Na  Na8  1  0.66355223  0.97640890  0.59101589  1
  Na  Na9  1  0.31400224  0.97225393  0.08226777  1
  Na  Na10  1  0.65763535  0.68632056  0.08215861  1
  Na  Na11  1  0.02722938  0.34170758  0.08216353  1
  Na  Na12  1  0.96308832  0.66653001  0.91656163  1
  Na  Na13  1  0.70368697  0.03842499  0.91628318  1
  Na  Na14  1  0.33429160  0.29840753  0.91772134  1
  Na  Na15  1  0.96436655  0.28592195  0.41585743  1
  Na  Na16  1  0.31983446  0.03800526  0.41818105  1
  Na  Na17  1  0.71343025  0.67554336  0.41444798  1
  Na  Na18  1  0.00438486  0.00100621  0.50075629  1
  Na  Na19  1  0.99993964  0.00060668  0.99876846  1
  Na  Na20  1  0.67018601  0.33210232  0.83252601  1
  Na  Na21  1  0.66688784  0.33353828  0.33024706  1
  Na  Na22  1  0.33316952  0.66663287  0.16010439  1
  Na  Na23  1  0.34033103  0.67274039  0.66806633  1
  Ca  Ca0  1  0.00242119  0.00003771  0.35585351  1
  Ca  Ca1  1  0.66505685  0.33328635  0.68473483  1
  Ca  Ca2  1  0.66646175  0.33301774  0.17371161  1
  Si  Si0  1  0.01330239  0.72102712  0.75547693  1
  Si  Si1  1  0.71431074  0.98809973  0.75406872  1
  Si  Si2  1  0.36866086  0.03310272  0.58276813  1
  Si  Si3  1  0.66319634  0.63675941  0.58337781  1
  Si  Si4  1  0.97117504  0.63384597  0.08124766  1
  Si  Si5  1  0.66203645  0.02847762  0.08106001  1
  Si  Si6  1  0.36618036  0.33817511  0.08152340  1
  Si  Si7  1  0.61917490  0.66295372  0.91472198  1
  Si  Si8  1  0.04498965  0.38078494  0.91450788  1
  Si  Si9  1  0.33752564  0.96102470  0.91550172  1
  Si  Si10  1  0.34741253  0.39167219  0.41981862  1
  Si  Si11  1  0.03972750  0.64886339  0.41946958  1
  Ge  Ge0  1  0.99642314  0.99710500  0.85697606  1
  Ge  Ge1  1  0.99836197  0.98315877  0.64937610  1
  Ge  Ge2  1  0.99901101  0.99861712  0.14238897  1
  Ge  Ge3  1  0.66730845  0.33396046  0.98120188  1
  Ge  Ge4  1  0.66448067  0.34684206  0.48265290  1
  Ge  Ge5  1  0.33246101  0.66681653  0.01387532  1
  Ge  Ge6  1  0.33367174  0.66993523  0.51904623  1
  Ge  Ge7  1  0.32809630  0.65861521  0.31572227  1
  Ge  Ge8  1  0.33767361  0.67770316  0.81550619  1
  P  P0  1  0.29395404  0.98722961  0.25163202  1
  P  P1  1  0.69529386  0.70809705  0.25158348  1
  P  P2  1  0.01122900  0.30326084  0.25124974  1
  P  P3  1  0.26982446  0.28142827  0.75238832  1
  P  P4  1  0.96689247  0.33457698  0.58090680  1
  P  P5  1  0.60565297  0.95641830  0.41762927  1
  O  O0  1  0.21956833  0.00774610  0.31124310  1
  O  O1  1  0.79062201  0.78338456  0.31072512  1
  O  O2  1  0.99185006  0.20898290  0.31085028  1
  O  O3  1  0.18549790  0.17408033  0.81133291  1
  O  O4  1  0.98939709  0.81763846  0.81482164  1
  O  O5  1  0.83306340  0.01878276  0.81486895  1
  O  O6  1  0.80618615  0.96354240  0.69053128  1
  O  O7  1  0.16313871  0.19317785  0.69240972  1
  O  O8  1  0.04230326  0.83172317  0.69058113  1
  O  O9  1  0.79169332  0.82555749  0.19307878  1
  O  O10  1  0.03228043  0.20795065  0.19314469  1
  O  O11  1  0.17640341  0.96501075  0.19350351  1
  O  O12  1  0.90464879  0.37726481  0.63948386  1
  O  O13  1  0.48179642  0.08575637  0.64356268  1
  O  O14  1  0.60568621  0.52205722  0.64401980  1
  O  O15  1  0.92210203  0.53146056  0.14469105  1
  O  O16  1  0.60759689  0.07812168  0.14406600  1
  O  O17  1  0.46958333  0.39175301  0.14456310  1
  O  O18  1  0.46442262  0.29206009  0.02570492  1
  O  O19  1  0.82751243  0.53602729  0.02540422  1
  O  O20  1  0.70950909  0.17341445  0.02537908  1
  O  O21  1  0.46890714  0.17452391  0.52473247  1
  O  O22  1  0.71078201  0.54390729  0.52558154  1
  O  O23  1  0.83930411  0.30049624  0.52562961  1
  O  O24  1  0.53160917  0.70302752  0.97287147  1
  O  O25  1  0.16989622  0.46785054  0.97313023  1
  O  O26  1  0.29488323  0.83055131  0.97291859  1
  O  O27  1  0.51938503  0.84736981  0.47513503  1
  O  O28  1  0.32787003  0.49115108  0.47822390  1
  O  O29  1  0.16286971  0.67785968  0.47757431  1
  O  O30  1  0.12805443  0.61995958  0.35571806  1
  O  O31  1  0.49671911  0.86930216  0.35788957  1
  O  O32  1  0.37943260  0.50771338  0.35561556  1
  O  O33  1  0.13158068  0.50880953  0.85416733  1
  O  O34  1  0.38369528  0.88017493  0.85508470  1
  O  O35  1  0.49090508  0.61974597  0.85452715  1
  O  O36  1  0.01001174  0.81066355  0.42151416  1
  O  O37  1  0.78671957  0.97932401  0.41749122  1
  O  O38  1  0.18123262  0.20197817  0.42262100  1
  O  O39  1  0.02302421  0.18546679  0.91158747  1
  O  O40  1  0.16601762  0.98704087  0.91176773  1
  O  O41  1  0.81640079  0.83641324  0.91290203  1
  O  O42  1  0.98123872  0.16909825  0.58444599  1
  O  O43  1  0.17895027  0.02744004  0.58885394  1
  O  O44  1  0.84576761  0.82633080  0.58827807  1
  O  O45  1  0.98173756  0.82479863  0.08827433  1
  O  O46  1  0.84318350  0.01787603  0.08841853  1
  O  O47  1  0.17500603  0.15601628  0.08876284  1
  O  O48  1  0.68910195  0.15282042  0.75397701  1
  O  O49  1  0.45009488  0.30174109  0.75168575  1
  O  O50  1  0.84396022  0.53339487  0.75512641  1
  O  O51  1  0.67027102  0.52758496  0.24660565  1
  O  O52  1  0.85526328  0.32910117  0.24663288  1
  O  O53  1  0.47537440  0.14397092  0.24656731  1
  O  O54  1  0.63954810  0.49029282  0.92234433  1
  O  O55  1  0.85113447  0.36161348  0.92217945  1
  O  O56  1  0.51220696  0.15310328  0.92333867  1
  O  O57  1  0.61764704  0.13529900  0.42020313  1
  O  O58  1  0.52656439  0.37693378  0.42236711  1
  O  O59  1  0.84858849  0.46605199  0.42363525  1
  O  O60  1  0.33839383  0.50245677  0.06865198  1
  O  O61  1  0.16388793  0.66045546  0.06861270  1
  O  O62  1  0.49711467  0.83620743  0.06830519  1
  O  O63  1  0.33158387  0.83506475  0.57183201  1
  O  O64  1  0.50048743  0.67249924  0.57245467  1
  O  O65  1  0.15386721  0.49358414  0.57330960  1
  O  O66  1  0.29975921  0.81296048  0.25312153  1
  O  O67  1  0.51541482  0.70472869  0.25244759  1
  O  O68  1  0.18749979  0.48338021  0.25164247  1
  O  O69  1  0.28051089  0.45991016  0.75295731  1
  O  O70  1  0.19416006  0.70881554  0.75670688  1
  O  O71  1  0.52280088  0.80489520  0.75615716  1
loop_
_geom_bond_atom_site_label_1
_geom_bond_atom_site_label_2
_geom_bond_distance
_geom_bond_site_symmetry_2
Na0 O16 2.288427 1_555
Na0 O53 2.350403 1_555
Na0 O67 2.397371 1_545
Na0 O52 2.530738 1_555
Na0 O66 2.675273 1_545
Na0 O9 2.807953 1_545
Na0 O31 2.830822 1_545
Na1 O17 2.289594 1_555
Na1 O51 2.352164 1_555
Na1 O68 2.404018 1_555
Na1 O53 2.539402 1_555
Na1 O67 2.731136 1_555
Na1 O32 2.789098 1_555
Na1 O10 2.823353 1_555
Na2 O15 2.291855 1_555
Na2 O52 2.363385 1_555
Na2 O66 2.418532 1_655
Na2 O51 2.528542 1_555
Na2 O68 2.701392 1_655
Na2 O30 2.780612 1_655
Na2 O11 2.810105 1_655
Na3 O71 2.332065 1_555
Na3 O14 2.387027 1_555
Na3 O50 2.402521 1_555
Na3 O49 2.435880 1_555
Na3 O35 2.635546 1_555
Na3 O69 2.680945 1_555
Na4 O69 2.344983 1_655
Na4 O50 2.350950 1_555
Na4 O48 2.388125 1_555
Na4 O33 2.560615 1_655
Na4 O12 2.575860 1_555
Na4 O70 2.637882 1_655
Na5 O48 2.346084 1_555
Na5 O70 2.361051 1_545
Na5 O13 2.367566 1_555
Na5 O49 2.425371 1_555
Na5 O34 2.629492 1_545
Na5 O71 2.652934 1_545
Na5 O8 2.935433 1_545
Na6 O43 2.422215 1_555
Na6 O65 2.450572 1_555
Na6 O42 2.548669 1_455
Na6 O14 2.632846 1_555
Na6 O64 2.634768 1_555
Na6 O7 2.643688 1_555
Na6 O28 2.705588 1_555
Na6 O21 2.841026 1_555
Na7 O63 2.372274 1_555
Na7 O44 2.458841 1_455
Na7 O65 2.566718 1_555
Na7 O43 2.614602 1_565
Na7 O8 2.625057 1_555
Na7 O29 2.643759 1_555
Na7 O12 2.757881 1_455
Na7 O22 2.761063 1_455
Na8 O64 2.404060 1_555
Na8 O42 2.482081 1_565
Na8 O6 2.553792 1_555
Na8 O13 2.555333 1_565
Na8 O44 2.587616 1_555
Na8 O63 2.614658 1_555
Na8 O27 2.817420 1_555
Na8 O23 2.895618 1_565
Na9 O61 2.448038 1_555
Na9 O62 2.507701 1_555
Na9 O47 2.523107 1_565
Na9 O45 2.580205 1_455
Na9 O16 2.672697 1_565
Na9 O26 2.673736 1_554
Na9 O11 2.704928 1_555
Na9 O18 2.776406 1_565
Na10 O62 2.432831 1_555
Na10 O60 2.500160 1_555
Na10 O45 2.521758 1_555
Na10 O46 2.590958 1_565
Na10 O24 2.677044 1_554
Na10 O17 2.685301 1_555
Na10 O9 2.718782 1_555
Na10 O19 2.781174 1_555
Na11 O60 2.426037 1_555
Na11 O61 2.507538 1_555
Na11 O46 2.531287 1_455
Na11 O47 2.603696 1_555
Na11 O25 2.664299 1_554
Na11 O15 2.698013 1_455
Na11 O10 2.712883 1_555
Na11 O20 2.760681 1_455
Na12 O55 2.406183 1_555
Na12 O41 2.465825 1_555
Na12 O54 2.510848 1_555
Na12 O40 2.524399 1_655
Na12 O4 2.549012 1_555
Na12 O19 2.652601 1_556
Na12 O26 2.852875 1_655
Na12 O33 2.878778 1_655
Na13 O56 2.407929 1_555
Na13 O39 2.476244 1_655
Na13 O41 2.483555 1_545
Na13 O55 2.524092 1_555
Na13 O5 2.542385 1_555
Na13 O20 2.664325 1_556
Na13 O34 2.819621 1_545
Na13 O24 2.884118 1_545
Na14 O54 2.392547 1_555
Na14 O40 2.430486 1_545
Na14 O39 2.443736 1_555
Na14 O56 2.519665 1_555
Na14 O3 2.636397 1_555
Na14 O18 2.644707 1_556
Na14 O35 2.852307 1_555
Na14 O25 2.863809 1_555
Na15 O59 2.327141 1_555
Na15 O37 2.396186 1_545
Na15 O38 2.414588 1_655
Na15 O2 2.442824 1_555
Na15 O23 2.672731 1_555
Na15 O57 2.692851 1_555
Na15 O30 2.908687 1_655
Na16 O57 2.351720 1_555
Na16 O38 2.358309 1_555
Na16 O0 2.468922 1_555
Na16 O36 2.487162 1_545
Na16 O58 2.660283 1_555
Na16 O21 2.661392 1_555
Na17 O36 2.304687 1_655
Na17 O58 2.353096 1_555
Na17 O1 2.419193 1_555
Na17 O37 2.472258 1_555
Na17 O22 2.691715 1_555
Na17 O59 2.710147 1_555
Na17 O32 2.892086 1_555
Na18 O38 2.404933 1_555
Na18 O43 2.416450 1_555
Na18 O44 2.422350 1_445
Na18 O42 2.448046 1_455
Na18 O36 2.455226 1_545
Na18 O37 2.602662 1_445
Na19 O41 2.447075 1_545
Na19 O40 2.448804 1_645
Na19 O46 2.454646 1_556
Na19 O39 2.463641 1_655
Na19 O45 2.464057 1_546
Na19 O47 2.469775 1_656
Na20 O50 2.387312 1_555
Na20 O48 2.420004 1_555
Na20 O55 2.471675 1_555
Na20 O56 2.491478 1_555
Na20 O54 2.519227 1_555
Na20 O49 2.558827 1_555
Na21 O52 2.494866 1_555
Na21 O58 2.500662 1_555
Na21 O53 2.506332 1_555
Na21 O59 2.510855 1_555
Na21 O51 2.513000 1_555
Na21 O57 2.534237 1_555
Na22 O61 2.493470 1_555
Na22 O62 2.493871 1_555
Na22 O68 2.494903 1_555
Na22 O60 2.500363 1_555
Na22 O67 2.509788 1_555
Na22 O66 2.519758 1_555
Na23 O71 2.420049 1_555
Na23 O70 2.444184 1_555
Na23 O69 2.517517 1_555
Na23 O64 2.528873 1_555
Na23 O63 2.579363 1_555
Na23 O65 2.645057 1_555
Ca0 O0 2.140706 1_555
Ca0 O1 2.162452 1_445
Ca0 O2 2.163427 1_455
Ca0 O36 2.251327 1_545
Ca0 O38 2.257153 1_555
Ca0 O37 2.278988 1_445
Ca1 O13 2.193709 1_555
Ca1 O14 2.204383 1_555
Ca1 O12 2.205449 1_555
Ca1 O50 2.302326 1_555
Ca1 O48 2.304136 1_555
Ca1 O49 2.313175 1_555
Ca2 O15 2.170821 1_555
Ca2 O17 2.174077 1_555
Ca2 O16 2.180724 1_555
Ca2 O53 2.324074 1_555
Ca2 O52 2.337203 1_555
Ca2 O51 2.356267 1_555
Ge0 O5 1.819898 1_565
Ge0 O4 1.834309 1_555
Ge0 O3 1.916272 1_665
Ge0 O41 1.954622 1_555
Ge0 O40 1.971940 1_655
Ge0 O39 1.989319 1_665
Ge1 O8 1.831599 1_655
Ge1 O6 1.865879 1_555
Ge1 O44 1.928783 1_555
Ge1 O7 1.961910 1_665
Ge1 O43 1.963385 1_665
Ge1 O42 2.253785 1_565
Ge2 O47 1.897671 1_665
Ge2 O46 1.900601 1_565
Ge2 O45 1.906072 1_555
Ge2 O9 2.042991 1_555
Ge2 O10 2.077053 1_665
Ge2 O11 2.084565 1_655
Ge3 O18 1.919262 1_556
Ge3 O19 1.921879 1_556
Ge3 O20 1.924292 1_556
Ge3 O56 1.980791 1_555
Ge3 O55 2.000868 1_555
Ge3 O54 2.008837 1_555
Ge4 O22 1.862224 1_555
Ge4 O21 1.890354 1_555
Ge4 O58 1.915730 1_555
Ge4 O59 1.932181 1_555
Ge4 O23 2.040046 1_555
Ge4 O57 2.207483 1_555
Ge5 O24 1.868200 1_554
Ge5 O25 1.874822 1_554
Ge5 O26 1.891101 1_554
Ge5 O61 1.899775 1_555
Ge5 O62 1.915975 1_555
Ge5 O60 1.921234 1_555
Ge6 O29 1.810223 1_555
Ge6 O28 1.818995 1_555
Ge6 O27 1.884797 1_555
Ge6 O64 1.887461 1_555
Ge6 O63 1.889978 1_555
Ge6 O65 1.982344 1_555
Ge7 O32 1.853683 1_555
Ge7 O30 1.858136 1_555
Ge7 O31 1.965934 1_555
Ge7 O68 2.013838 1_555
Ge7 O67 2.043496 1_555
Ge7 O66 2.051106 1_555
Ge8 O34 1.868927 1_555
Ge8 O33 1.896618 1_555
Ge8 O35 1.897161 1_555
Ge8 O70 1.934543 1_555
Ge8 O71 1.952349 1_555
Ge8 O69 2.231128 1_555
O0 P0 1.513108 1_545
O1 P1 1.510998 1_555
O2 P2 1.512653 1_655
O3 P3 1.554175 1_555
O4 Si0 1.633911 1_655
O5 Si1 1.637469 1_545
O6 Si1 1.680836 1_555
O7 P3 1.583291 1_555
O8 Si0 1.672738 1_555
O9 P1 1.601577 1_555
O10 P2 1.595416 1_555
O11 P0 1.597925 1_555
O12 P4 1.518329 1_555
O13 Si2 1.593411 1_555
O14 Si3 1.593505 1_555
O15 Si4 1.595015 1_555
O16 Si5 1.595435 1_555
O17 Si6 1.595008 1_555
O18 Si6 1.670847 1_555
O19 Si4 1.670729 1_555
O20 Si5 1.671169 1_555
O21 Si2 1.694130 1_555
O22 Si3 1.682188 1_555
O23 P4 1.584600 1_555
O24 Si7 1.623246 1_555
O25 Si8 1.622997 1_555
O26 Si9 1.623554 1_555
O27 P5 1.537320 1_555
O28 Si10 1.618080 1_555
O29 Si11 1.615912 1_555
O30 Si11 1.682338 1_555
O31 P5 1.584260 1_555
O32 Si10 1.681405 1_555
O33 Si8 1.659565 1_555
O34 Si9 1.655883 1_555
O35 Si7 1.660557 1_555
O36 Si11 1.606844 1_555
O37 P5 1.527295 1_555
O38 Si10 1.606900 1_555
O39 Si8 1.669389 1_555
O40 Si9 1.666699 1_555
O41 Si7 1.670036 1_555
O42 P4 1.559442 1_555
O43 Si2 1.677511 1_555
O44 Si3 1.672479 1_555
O45 Si4 1.680593 1_555
O46 Si5 1.678968 1_555
O47 Si6 1.680248 1_555
O48 Si1 1.607535 1_545
O49 P3 1.529660 1_555
O50 Si0 1.606622 1_655
O51 P1 1.528859 1_555
O52 P2 1.529148 1_655
O53 P0 1.529304 1_545
O54 Si7 1.660987 1_555
O55 Si8 1.662826 1_655
O56 Si9 1.659305 1_545
O57 P5 1.560043 1_545
O58 Si10 1.674645 1_555
O59 Si11 1.678190 1_655
O60 Si6 1.641370 1_555
O61 Si4 1.640126 1_455
O62 Si5 1.640926 1_565
O63 Si2 1.659244 1_565
O64 Si3 1.658765 1_555
O65 P4 1.571742 1_455
O66 P0 1.595392 1_555
O67 P1 1.594694 1_555
O68 P2 1.597239 1_555
O69 P3 1.560673 1_555
O70 Si0 1.676486 1_555
O71 Si1 1.679988 1_555
