# generated using pymatgen
data_NaFe(GeO3)2
_symmetry_space_group_name_H-M   'P 1'
_cell_length_a   6.81122367
_cell_length_b   6.81122367
_cell_length_c   5.59431657
_cell_angle_alpha   76.76729536
_cell_angle_beta   76.76729536
_cell_angle_gamma   83.08996591
_symmetry_Int_Tables_number   1
_chemical_formula_structural   NaFe(GeO3)2
_chemical_formula_sum   'Na2 Fe2 Ge4 O12'
_cell_volume   245.30420550
_cell_formula_units_Z   2
loop_
 _symmetry_equiv_pos_site_id
 _symmetry_equiv_pos_as_xyz
  1  'x, y, z'
loop_
 _atom_site_type_symbol
 _atom_site_label
 _atom_site_symmetry_multiplicity
 _atom_site_fract_x
 _atom_site_fract_y
 _atom_site_fract_z
 _atom_site_occupancy
  Na  Na0  1  0.29997800  0.70002200  0.75000000  1
  Na  Na1  1  0.70002200  0.29997800  0.25000000  1
  Fe  Fe0  1  0.90285000  0.09715000  0.75000000  1
  Fe  Fe1  1  0.09715000  0.90285000  0.25000000  1
  Ge  Ge0  1  0.80614000  0.62005300  0.72622300  1
  Ge  Ge1  1  0.37994700  0.19386000  0.77377700  1
  Ge  Ge2  1  0.19386000  0.37994700  0.27377700  1
  Ge  Ge3  1  0.62005300  0.80614000  0.22622300  1
  O  O0  1  0.91043500  0.37203300  0.79789300  1
  O  O1  1  0.62796700  0.08956500  0.70210700  1
  O  O2  1  0.08956500  0.62796700  0.20210700  1
  O  O3  1  0.37203300  0.91043500  0.29789300  1
  O  O4  1  0.97476200  0.81503800  0.62903300  1
  O  O5  1  0.18496200  0.02523800  0.87096700  1
  O  O6  1  0.02523800  0.18496200  0.37096700  1
  O  O7  1  0.81503800  0.97476200  0.12903300  1
  O  O8  1  0.64429100  0.63433900  0.51456400  1
  O  O9  1  0.36566100  0.35570900  0.98543600  1
  O  O10  1  0.35570900  0.36566100  0.48543600  1
  O  O11  1  0.63433900  0.64429100  0.01456400  1
loop_
_geom_bond_atom_site_label_1
_geom_bond_atom_site_label_2
_geom_bond_distance
_geom_bond_site_symmetry_2
Na0 O4 2.450396 1_455
Na0 O5 2.450396 1_565
Na0 O8 2.457240 1_555
Na0 O9 2.457240 1_555
Na0 O3 2.575523 1_555
Na0 O2 2.575523 1_556
Na0 O11 2.932432 1_556
Na0 O10 2.932432 1_555
Na1 O6 2.450396 1_655
Na1 O7 2.450396 1_545
Na1 O11 2.457240 1_555
Na1 O10 2.457240 1_555
Na1 O1 2.575523 1_555
Na1 O0 2.575523 1_554
Na1 O9 2.932432 1_554
Na1 O8 2.932432 1_555
Fe0 O0 1.959386 1_555
Fe0 O1 1.959386 1_555
Fe0 O7 2.068570 1_546
Fe0 O6 2.068570 1_655
Fe0 O4 2.146449 1_545
Fe0 O5 2.146449 1_655
Fe1 O2 1.959386 1_555
Fe1 O3 1.959386 1_555
Fe1 O4 2.068570 1_455
Fe1 O5 2.068570 1_564
Fe1 O7 2.146449 1_455
Fe1 O6 2.146449 1_565
Ge0 O0 1.746637 1_555
Ge0 O4 1.768925 1_555
Ge0 O8 1.773649 1_555
Ge0 O11 1.791602 1_556
Ge1 O1 1.746637 1_555
Ge1 O5 1.768925 1_555
Ge1 O9 1.773649 1_555
Ge1 O10 1.791602 1_555
Ge2 O2 1.746637 1_555
Ge2 O6 1.768925 1_555
Ge2 O10 1.773649 1_555
Ge2 O9 1.791602 1_554
Ge3 O3 1.746637 1_555
Ge3 O7 1.768925 1_555
Ge3 O11 1.773649 1_555
Ge3 O8 1.791602 1_555
