# generated using pymatgen
data_Pd(S3N)2
_symmetry_space_group_name_H-M   'P 1'
_cell_length_a   9.52538200
_cell_length_b   8.55129000
_cell_length_c   13.12484666
_cell_angle_alpha   83.50832519
_cell_angle_beta   90.00000000
_cell_angle_gamma   90.00000000
_symmetry_Int_Tables_number   1
_chemical_formula_structural   Pd(S3N)2
_chemical_formula_sum   'Pd4 S24 N8'
_cell_volume   1062.22065140
_cell_formula_units_Z   4
loop_
 _symmetry_equiv_pos_site_id
 _symmetry_equiv_pos_as_xyz
  1  'x, y, z'
loop_
 _atom_site_type_symbol
 _atom_site_label
 _atom_site_symmetry_multiplicity
 _atom_site_fract_x
 _atom_site_fract_y
 _atom_site_fract_z
 _atom_site_occupancy
  Pd  Pd0  1  0.43370400  0.67693400  0.75457800  1
  Pd  Pd1  1  0.93370400  0.82306600  0.24542200  1
  Pd  Pd2  1  0.56629600  0.32306600  0.24542200  1
  Pd  Pd3  1  0.06629600  0.17693400  0.75457800  1
  S  S0  1  0.66777500  0.66295300  0.80593100  1
  S  S1  1  0.22577300  0.29948100  0.32864600  1
  S  S2  1  0.27422700  0.79948100  0.32864600  1
  S  S3  1  0.77422700  0.70051900  0.67135400  1
  S  S4  1  0.99980800  0.22008700  0.58585200  1
  S  S5  1  0.49980800  0.27991300  0.41414800  1
  S  S6  1  0.00019200  0.77991300  0.41414800  1
  S  S7  1  0.72577300  0.20051900  0.67135400  1
  S  S8  1  0.13490400  0.13738000  0.92644900  1
  S  S9  1  0.63490400  0.36262000  0.07355100  1
  S  S10  1  0.86509600  0.86262000  0.07355100  1
  S  S11  1  0.36509600  0.63738000  0.92644900  1
  S  S12  1  0.34767000  0.14193200  0.91794900  1
  S  S13  1  0.84767000  0.35806800  0.08205100  1
  S  S14  1  0.65233000  0.85806800  0.08205100  1
  S  S15  1  0.15233000  0.64193200  0.91794900  1
  S  S16  1  0.29596500  0.18923000  0.70350900  1
  S  S17  1  0.79596500  0.31077000  0.29649100  1
  S  S18  1  0.70403500  0.81077000  0.29649100  1
  S  S19  1  0.20403500  0.68923000  0.70350900  1
  S  S20  1  0.33222500  0.33704700  0.19406900  1
  S  S21  1  0.83222500  0.16295300  0.80593100  1
  S  S22  1  0.50019200  0.72008700  0.58585200  1
  S  S23  1  0.16777500  0.83704700  0.19406900  1
  N  N0  1  0.10316400  0.66752800  0.80340200  1
  N  N1  1  0.60316400  0.83247200  0.19659800  1
  N  N2  1  0.89683600  0.33247200  0.19659800  1
  N  N3  1  0.39683600  0.16752800  0.80340200  1
  N  N4  1  0.33014100  0.27659700  0.42141700  1
  N  N5  1  0.83014100  0.22340300  0.57858300  1
  N  N6  1  0.66985900  0.72340300  0.57858300  1
  N  N7  1  0.16985900  0.77659700  0.42141700  1
loop_
_geom_bond_atom_site_label_1
_geom_bond_atom_site_label_2
_geom_bond_distance
_geom_bond_site_symmetry_2
Pd0 S19 2.286996 1_555
Pd0 S22 2.292709 1_555
Pd0 S0 2.328419 1_555
Pd0 S11 2.336131 1_555
Pd1 S18 2.286996 1_555
Pd1 S6 2.292709 1_655
Pd1 S23 2.328419 1_655
Pd1 S10 2.336131 1_555
Pd2 S17 2.286996 1_555
Pd2 S5 2.292709 1_555
Pd2 S20 2.328419 1_555
Pd2 S9 2.336131 1_555
Pd3 S16 2.286996 1_555
Pd3 S4 2.292709 1_455
Pd3 S21 2.328419 1_455
Pd3 S8 2.336131 1_555
S0 S3 2.030494 1_555
S1 S20 2.030494 1_555
S2 S23 2.030494 1_555
S10 S14 2.029877 1_555
S11 S15 2.029877 1_555
S12 S8 2.029877 1_555
S13 S9 2.029877 1_555
S21 S7 2.030494 1_555
N0 S15 1.566230 1_555
N0 S19 1.619123 1_555
N1 S14 1.566230 1_555
N1 S18 1.619123 1_555
N2 S13 1.566230 1_555
N2 S17 1.619123 1_555
N3 S12 1.566230 1_555
N3 S16 1.619123 1_555
N4 S1 1.566941 1_555
N4 S5 1.619016 1_555
N5 S7 1.566941 1_555
N5 S4 1.619016 1_555
N6 S3 1.566941 1_555
N6 S22 1.619016 1_555
N7 S2 1.566941 1_555
N7 S6 1.619016 1_555
