# generated using pymatgen
data_CoP2O7
_symmetry_space_group_name_H-M   'P 1'
_cell_length_a   6.84091390
_cell_length_b   7.95936806
_cell_length_c   9.30181145
_cell_angle_alpha   89.99169485
_cell_angle_beta   109.15430495
_cell_angle_gamma   89.92899256
_symmetry_Int_Tables_number   1
_chemical_formula_structural   CoP2O7
_chemical_formula_sum   'Co4 P8 O28'
_cell_volume   478.43771830
_cell_formula_units_Z   4
loop_
 _symmetry_equiv_pos_site_id
 _symmetry_equiv_pos_as_xyz
  1  'x, y, z'
loop_
 _atom_site_type_symbol
 _atom_site_label
 _atom_site_symmetry_multiplicity
 _atom_site_fract_x
 _atom_site_fract_y
 _atom_site_fract_z
 _atom_site_occupancy
  Co  Co0  1  0.71863700  0.77669700  0.00496500  1
  Co  Co1  1  0.71962900  0.72036300  0.50594800  1
  Co  Co2  1  0.27930500  0.28077600  0.49509100  1
  Co  Co3  1  0.28214900  0.22835700  0.99208900  1
  P  P0  1  0.53450500  0.08852300  0.79345500  1
  P  P1  1  0.47387100  0.90953700  0.21120600  1
  P  P2  1  0.53209800  0.41309900  0.29696500  1
  P  P3  1  0.93091900  0.95471800  0.79362800  1
  P  P4  1  0.06752400  0.46951800  0.69762300  1
  P  P5  1  0.07089500  0.03426300  0.20465600  1
  P  P6  1  0.46424200  0.59523700  0.70367200  1
  P  P7  1  0.92871300  0.53758000  0.29496900  1
  O  O0  1  0.52289300  0.58787800  0.36682600  1
  O  O1  1  0.89153100  0.60368400  0.13356600  1
  O  O2  1  0.85874200  0.94742000  0.15230800  1
  O  O3  1  0.91502700  0.67709200  0.40721600  1
  O  O4  1  0.11343400  0.40087200  0.85585500  1
  O  O5  1  0.14167300  0.03690500  0.84856100  1
  O  O6  1  0.07643600  0.33050100  0.58119600  1
  O  O7  1  0.22628600  0.61918000  0.69389500  1
  O  O8  1  0.10561300  0.10777000  0.36293100  1
  O  O9  1  0.14344400  0.45362400  0.34473100  1
  O  O10  1  0.08525600  0.17186200  0.09240600  1
  O  O11  1  0.49397900  0.22845600  0.89264000  1
  O  O12  1  0.38996100  0.09511600  0.62579700  1
  O  O13  1  0.51990000  0.91383700  0.86177300  1
  O  O14  1  0.23759400  0.88707600  0.20944300  1
  O  O15  1  0.47656100  0.41729100  0.64076600  1
  O  O16  1  0.59567800  0.59492400  0.87467000  1
  O  O17  1  0.89936400  0.88105000  0.63592300  1
  O  O18  1  0.49134200  0.27092600  0.39735900  1
  O  O19  1  0.38637800  0.41293600  0.13449900  1
  O  O20  1  0.76555600  0.39008000  0.29516300  1
  O  O21  1  0.76663400  0.10364300  0.78910200  1
  O  O22  1  0.48840800  0.08505400  0.15076900  1
  O  O23  1  0.60999700  0.90361100  0.38087500  1
  O  O24  1  0.51610200  0.76808800  0.11160300  1
  O  O25  1  0.91305400  0.81698200  0.90845700  1
  O  O26  1  0.85061900  0.54886400  0.64766600  1
  O  O27  1  0.51605100  0.73660800  0.60974000  1
loop_
_geom_bond_atom_site_label_1
_geom_bond_atom_site_label_2
_geom_bond_distance
_geom_bond_site_symmetry_2
Co0 O25 1.860648 1_554
Co0 O16 1.898469 1_554
Co0 O13 1.903022 1_554
Co0 O2 1.945573 1_555
Co0 O1 1.947619 1_555
Co0 O24 1.952021 1_555
Co1 O0 1.859823 1_555
Co1 O23 1.862132 1_555
Co1 O3 1.885036 1_555
Co1 O26 1.904018 1_555
Co1 O17 1.907377 1_555
Co1 O27 1.941710 1_555
Co2 O6 1.858037 1_555
Co2 O12 1.904642 1_555
Co2 O15 1.908359 1_555
Co2 O18 1.949790 1_555
Co2 O9 1.963648 1_555
Co2 O8 1.966029 1_555
Co3 O10 1.926995 1_556
Co3 O19 1.950601 1_556
Co3 O11 1.958400 1_555
Co3 O4 1.964475 1_555
Co3 O22 2.024681 1_556
Co3 O5 2.047016 1_555
O0 P2 1.545442 1_555
O1 P7 1.531140 1_555
O2 P5 1.536244 1_665
O3 P7 1.547962 1_555
O4 P4 1.503160 1_555
O5 P3 1.512168 1_445
O6 P4 1.563454 1_555
O7 P6 1.611371 1_555
O7 P4 1.621009 1_555
O8 P5 1.528840 1_555
O9 P7 1.539450 1_455
O10 P5 1.538366 1_555
O11 P0 1.528376 1_555
O12 P0 1.549359 1_555
O13 P0 1.545560 1_565
O14 P1 1.621154 1_555
O14 P5 1.624264 1_565
O15 P6 1.545253 1_555
O16 P6 1.549168 1_555
O17 P3 1.528099 1_555
O18 P2 1.549733 1_555
O19 P2 1.512927 1_555
O20 P2 1.612858 1_555
O20 P7 1.621308 1_555
O21 P0 1.606379 1_555
O21 P3 1.623428 1_545
O22 P1 1.521300 1_545
O23 P1 1.547784 1_555
O24 P1 1.544186 1_555
O25 P3 1.563113 1_555
O26 P4 1.536763 1_655
O27 P6 1.535929 1_555
