# generated using pymatgen
data_U2Ni2Sn
_symmetry_space_group_name_H-M   'P 1'
_cell_length_a   7.09357100
_cell_length_b   7.09357100
_cell_length_c   3.85928800
_cell_angle_alpha   90.00000000
_cell_angle_beta   90.00000000
_cell_angle_gamma   90.00000000
_symmetry_Int_Tables_number   1
_chemical_formula_structural   U2Ni2Sn
_chemical_formula_sum   'U4 Ni4 Sn2'
_cell_volume   194.19454624
_cell_formula_units_Z   2
loop_
 _symmetry_equiv_pos_site_id
 _symmetry_equiv_pos_as_xyz
  1  'x, y, z'
loop_
 _atom_site_type_symbol
 _atom_site_label
 _atom_site_symmetry_multiplicity
 _atom_site_fract_x
 _atom_site_fract_y
 _atom_site_fract_z
 _atom_site_occupancy
  U  U0  1  0.33782000  0.83782000  0.50000000  1
  U  U1  1  0.66218000  0.16218000  0.50000000  1
  U  U2  1  0.83782000  0.66218000  0.50000000  1
  U  U3  1  0.16218000  0.33782000  0.50000000  1
  Ni  Ni0  1  0.63214800  0.86785200  0.00000000  1
  Ni  Ni1  1  0.13214800  0.63214800  0.00000000  1
  Ni  Ni2  1  0.36785200  0.13214800  0.00000000  1
  Ni  Ni3  1  0.86785200  0.36785200  0.00000000  1
  Sn  Sn0  1  0.50000000  0.50000000  0.00000000  1
  Sn  Sn1  1  0.00000000  0.00000000  0.00000000  1
loop_
_geom_bond_atom_site_label_1
_geom_bond_atom_site_label_2
_geom_bond_distance
_geom_bond_site_symmetry_2
Ni0 Ni2 2.651371 1_565
Ni0 Sn1 2.772653 1_665
Ni0 Sn0 2.772653 1_555
Ni0 U2 2.824994 1_555
Ni0 U2 2.824994 1_554
Ni0 U1 2.850960 1_565
Ni0 U1 2.850960 1_564
Ni0 U0 2.850960 1_555
Ni0 U0 2.850960 1_554
Ni1 Ni3 2.651371 1_455
Ni1 Sn1 2.772653 1_565
Ni1 Sn0 2.772653 1_555
Ni1 U0 2.824994 1_555
Ni1 U0 2.824994 1_554
Ni1 U3 2.850960 1_555
Ni1 U2 2.850960 1_455
Ni1 U2 2.850960 1_454
Ni1 U3 2.850960 1_554
Ni2 Sn1 2.772653 1_555
Ni2 Sn0 2.772653 1_555
Ni2 U3 2.824994 1_555
Ni2 U3 2.824994 1_554
Ni2 U0 2.850960 1_545
Ni2 U1 2.850960 1_555
Ni2 U1 2.850960 1_554
Ni2 U0 2.850960 1_544
Ni3 Sn0 2.772653 1_555
Ni3 Sn1 2.772653 1_655
Ni3 U1 2.824994 1_554
Ni3 U1 2.824994 1_555
Ni3 U2 2.850960 1_555
Ni3 U2 2.850960 1_554
Ni3 U3 2.850960 1_655
Ni3 U3 2.850960 1_654
Sn0 U1 3.284741 1_555
Sn0 U1 3.284741 1_554
Sn0 U0 3.284741 1_555
Sn0 U0 3.284741 1_554
Sn0 U3 3.284741 1_554
Sn0 U2 3.284741 1_555
Sn0 U3 3.284741 1_555
Sn0 U2 3.284741 1_554
Sn1 U2 3.284741 1_445
Sn1 U1 3.284741 1_455
Sn1 U0 3.284741 1_544
Sn1 U3 3.284741 1_554
Sn1 U3 3.284741 1_555
Sn1 U2 3.284741 1_444
Sn1 U1 3.284741 1_454
Sn1 U0 3.284741 1_545
