# generated using pymatgen
data_Na21Nb8Zn4Si15(PO24)3
_symmetry_space_group_name_H-M   'P 1'
_cell_length_a   9.12783838
_cell_length_b   9.14809317
_cell_length_c   22.36111146
_cell_angle_alpha   89.89721945
_cell_angle_beta   89.89200167
_cell_angle_gamma   120.05352197
_symmetry_Int_Tables_number   1
_chemical_formula_structural   Na21Nb8Zn4Si15(PO24)3
_chemical_formula_sum   'Na21 Nb8 Zn4 Si15 P3 O72'
_cell_volume   1616.16284078
_cell_formula_units_Z   1
loop_
 _symmetry_equiv_pos_site_id
 _symmetry_equiv_pos_as_xyz
  1  'x, y, z'
loop_
 _atom_site_type_symbol
 _atom_site_label
 _atom_site_symmetry_multiplicity
 _atom_site_fract_x
 _atom_site_fract_y
 _atom_site_fract_z
 _atom_site_occupancy
  Na  Na0  1  0.64048336  0.02295744  0.24091981  1
  Na  Na1  1  0.38004763  0.35580150  0.24311510  1
  Na  Na2  1  0.98109965  0.62259083  0.24039813  1
  Na  Na3  1  0.63910581  0.61889252  0.74345330  1
  Na  Na4  1  0.97741490  0.35632825  0.74552062  1
  Na  Na5  1  0.38371362  0.02654273  0.74654704  1
  Na  Na6  1  0.31219149  0.33794719  0.58821081  1
  Na  Na7  1  0.66415645  0.97420179  0.58803465  1
  Na  Na8  1  0.31332115  0.97289182  0.08556387  1
  Na  Na9  1  0.96694238  0.68623799  0.91207928  1
  Na  Na10  1  0.72082314  0.03419140  0.90944953  1
  Na  Na11  1  0.31322508  0.27618294  0.90960951  1
  Na  Na12  1  0.96455458  0.27891270  0.41136154  1
  Na  Na13  1  0.31378215  0.03677325  0.40887701  1
  Na  Na14  1  0.71856775  0.68547007  0.41131179  1
  Na  Na15  1  0.00109043  0.99199727  0.49461924  1
  Na  Na16  1  0.99188056  0.00086727  0.99225209  1
  Na  Na17  1  0.66136282  0.32759263  0.82483182  1
  Na  Na18  1  0.66140435  0.32878588  0.32443990  1
  Na  Na19  1  0.33437575  0.65576306  0.16069706  1
  Na  Na20  1  0.32241670  0.66747777  0.66676892  1
  Nb  Nb0  1  0.99834443  0.99995242  0.64677822  1
  Nb  Nb1  1  0.00088583  0.99763379  0.14297276  1
  Nb  Nb2  1  0.66758958  0.33246334  0.98172744  1
  Nb  Nb3  1  0.66629446  0.33402986  0.48100389  1
  Nb  Nb4  1  0.33284383  0.66376337  0.02124202  1
  Nb  Nb5  1  0.33074137  0.66593056  0.52066898  1
  Nb  Nb6  1  0.33275061  0.66989600  0.31269916  1
  Nb  Nb7  1  0.33732290  0.66604745  0.81310322  1
  Zn  Zn0  1  0.00454112  0.00250619  0.35079754  1
  Zn  Zn1  1  0.00212152  0.00578140  0.85070916  1
  Zn  Zn2  1  0.66118985  0.32783963  0.68009761  1
  Zn  Zn3  1  0.66113991  0.32809638  0.17531334  1
  Si  Si0  1  0.29443337  0.00262428  0.25301467  1
  Si  Si1  1  0.29397281  0.29342367  0.75317257  1
  Si  Si2  1  0.70662444  0.00154212  0.75362058  1
  Si  Si3  1  0.95891191  0.33598936  0.58673962  1
  Si  Si4  1  0.37149394  0.03766780  0.58533983  1
  Si  Si5  1  0.66969844  0.62695080  0.58527518  1
  Si  Si6  1  0.95668689  0.62110277  0.08706233  1
  Si  Si7  1  0.66738597  0.03980070  0.08584337  1
  Si  Si8  1  0.37636376  0.33791246  0.08681716  1
  Si  Si9  1  0.62462715  0.66340687  0.91770187  1
  Si  Si10  1  0.03994214  0.37778295  0.91687192  1
  Si  Si11  1  0.33541246  0.95893599  0.91753831  1
  Si  Si12  1  0.62495145  0.96010222  0.41710026  1
  Si  Si13  1  0.33611397  0.37667308  0.41660616  1
  Si  Si14  1  0.03884968  0.66288440  0.41668423  1
  P  P0  1  0.71020307  0.71321779  0.25343115  1
  P  P1  1  0.00326352  0.28967527  0.25298956  1
  P  P2  1  0.00317517  0.71205621  0.75294227  1
  O  O0  1  0.21219236  0.02797132  0.31271610  1
  O  O1  1  0.80688164  0.78988412  0.31079598  1
  O  O2  1  0.97569057  0.19059118  0.31067574  1
  O  O3  1  0.21488028  0.18056849  0.81202837  1
  O  O4  1  0.97790117  0.78691201  0.81015798  1
  O  O5  1  0.81529396  0.02468012  0.81248832  1
  O  O6  1  0.80192983  0.96965239  0.69317052  1
  O  O7  1  0.16732113  0.19433917  0.69308928  1
  O  O8  1  0.02641470  0.83203803  0.69752078  1
  O  O9  1  0.80162455  0.83115323  0.19842306  1
  O  O10  1  0.02694790  0.19555947  0.19854706  1
  O  O11  1  0.16760415  0.97100616  0.19408955  1
  O  O12  1  0.88548119  0.36641305  0.64672791  1
  O  O13  1  0.48659895  0.10408112  0.64375198  1
  O  O14  1  0.61892733  0.50912649  0.64315516  1
  O  O15  1  0.88413952  0.51822483  0.14770234  1
  O  O16  1  0.61810425  0.10524671  0.14475491  1
  O  O17  1  0.47609555  0.36696797  0.14792843  1
  O  O18  1  0.46919589  0.30164813  0.02839597  1
  O  O19  1  0.83510563  0.52641302  0.02761370  1
  O  O20  1  0.69393733  0.16368653  0.02670357  1
  O  O21  1  0.46834128  0.16561163  0.52623962  1
  O  O22  1  0.69295762  0.52896373  0.52544684  1
  O  O23  1  0.83315165  0.30398648  0.52729151  1
  O  O24  1  0.51906007  0.68596075  0.97231643  1
  O  O25  1  0.16435442  0.48593251  0.97201950  1
  O  O26  1  0.31696488  0.84122351  0.97519445  1
  O  O27  1  0.52621648  0.83972663  0.47459593  1
  O  O28  1  0.32045841  0.47885983  0.47421418  1
  O  O29  1  0.16577476  0.68227560  0.47164411  1
  O  O30  1  0.13354697  0.63288294  0.35721951  1
  O  O31  1  0.49715836  0.86290586  0.35847369  1
  O  O32  1  0.36586698  0.50172777  0.35779573  1
  O  O33  1  0.13219854  0.50007656  0.85680690  1
  O  O34  1  0.36562315  0.86346980  0.85830023  1
  O  O35  1  0.49982956  0.63244425  0.85756624  1
  O  O36  1  0.01859041  0.82622195  0.41642948  1
  O  O37  1  0.80861077  0.97879424  0.41440919  1
  O  O38  1  0.16941332  0.19390604  0.41734942  1
  O  O39  1  0.02206825  0.19475774  0.91820305  1
  O  O40  1  0.16895154  0.97593889  0.91676650  1
  O  O41  1  0.80886261  0.82719715  0.91598211  1
  O  O42  1  0.97347632  0.16041859  0.58855643  1
  O  O43  1  0.18796983  0.03042016  0.58844136  1
  O  O44  1  0.83585235  0.81844778  0.58800242  1
  O  O45  1  0.97777584  0.81492195  0.09055341  1
  O  O46  1  0.83858424  0.02331487  0.09150928  1
  O  O47  1  0.18838533  0.15810865  0.09054242  1
  O  O48  1  0.68057539  0.16266550  0.74768605  1
  O  O49  1  0.48454614  0.32729312  0.74639118  1
  O  O50  1  0.85177428  0.53436168  0.74534034  1
  O  O51  1  0.68388548  0.53400953  0.24769928  1
  O  O52  1  0.85413525  0.32214384  0.24671760  1
  O  O53  1  0.48546583  0.16147868  0.24795209  1
  O  O54  1  0.62874945  0.48570287  0.92259775  1
  O  O55  1  0.85555684  0.37035960  0.92171814  1
  O  O56  1  0.51266216  0.14378033  0.92171736  1
  O  O57  1  0.63049378  0.14302782  0.42148080  1
  O  O58  1  0.51312809  0.36872119  0.42093052  1
  O  O59  1  0.85654689  0.48488285  0.42131625  1
  O  O60  1  0.34508609  0.49643853  0.07523170  1
  O  O61  1  0.15254721  0.66205749  0.07666299  1
  O  O62  1  0.49990307  0.85321187  0.07418618  1
  O  O63  1  0.35080435  0.85064091  0.57357891  1
  O  O64  1  0.50492447  0.65504220  0.57449734  1
  O  O65  1  0.15487111  0.49113050  0.57596801  1
  O  O66  1  0.30164599  0.81913891  0.25423870  1
  O  O67  1  0.52894069  0.70075867  0.25408564  1
  O  O68  1  0.17551474  0.46813697  0.25414937  1
  O  O69  1  0.29478582  0.47853873  0.75357330  1
  O  O70  1  0.17332966  0.70631760  0.75267037  1
  O  O71  1  0.51737904  0.82080683  0.75337913  1
loop_
_geom_bond_atom_site_label_1
_geom_bond_atom_site_label_2
_geom_bond_distance
_geom_bond_site_symmetry_2
Na0 O16 2.319982 1_555
Na0 O53 2.329921 1_555
Na0 O52 2.442760 1_555
Na0 O67 2.607871 1_545
Na0 O66 2.710980 1_545
Na0 O9 2.954826 1_545
Na0 O31 2.969791 1_545
Na1 O17 2.282973 1_555
Na1 O53 2.410558 1_555
Na1 O51 2.415146 1_555
Na1 O68 2.554072 1_555
Na1 O67 2.752085 1_555
Na2 O15 2.271325 1_555
Na2 O52 2.392685 1_555
Na2 O51 2.416434 1_555
Na2 O66 2.574028 1_655
Na2 O68 2.784268 1_655
Na2 O30 2.941499 1_655
Na2 O11 2.945534 1_655
Na3 O49 2.310879 1_555
Na3 O50 2.423176 1_555
Na3 O14 2.428308 1_555
Na3 O71 2.598445 1_555
Na3 O69 2.744441 1_555
Na3 O35 2.879140 1_555
Na4 O48 2.381939 1_555
Na4 O12 2.382579 1_555
Na4 O50 2.416319 1_555
Na4 O69 2.536365 1_655
Na4 O70 2.782565 1_655
Na4 O33 2.842891 1_655
Na5 O48 2.348288 1_555
Na5 O49 2.424942 1_555
Na5 O13 2.446937 1_555
Na5 O70 2.578967 1_545
Na5 O71 2.711803 1_545
Na5 O34 2.869794 1_545
Na6 O43 2.450536 1_555
Na6 O65 2.473144 1_555
Na6 O64 2.546954 1_555
Na6 O42 2.677134 1_455
Na6 O7 2.685462 1_555
Na6 O14 2.725648 1_555
Na6 O28 2.838195 1_555
Na6 O21 2.947604 1_555
Na7 O42 2.460994 1_565
Na7 O63 2.515868 1_555
Na7 O64 2.546200 1_555
Na7 O44 2.592878 1_555
Na7 O6 2.678326 1_555
Na7 O13 2.741742 1_565
Na7 O27 2.829295 1_555
Na7 O23 2.939769 1_565
Na8 O62 2.455794 1_555
Na8 O61 2.470301 1_555
Na8 O47 2.473743 1_565
Na8 O45 2.654513 1_455
Na8 O26 2.755609 1_554
Na8 O16 2.757391 1_565
Na8 O11 2.761024 1_555
Na8 O18 2.897739 1_565
Na9 O40 2.354076 1_655
Na9 O41 2.369828 1_555
Na9 O4 2.439613 1_555
Na9 O55 2.546498 1_555
Na9 O54 2.696964 1_555
Na9 O19 2.910779 1_556
Na10 O5 2.349650 1_555
Na10 O39 2.390478 1_655
Na10 O41 2.403433 1_545
Na10 O56 2.568563 1_555
Na10 O55 2.694678 1_555
Na10 O20 2.939049 1_556
Na11 O3 2.357944 1_555
Na11 O39 2.381075 1_555
Na11 O40 2.382998 1_545
Na11 O54 2.555159 1_555
Na11 O56 2.657735 1_555
Na12 O38 2.361423 1_655
Na12 O37 2.377652 1_545
Na12 O2 2.412486 1_555
Na12 O59 2.536365 1_555
Na12 O57 2.663491 1_555
Na12 O23 2.911589 1_555
Na13 O0 2.328809 1_555
Na13 O38 2.395013 1_555
Na13 O36 2.407795 1_545
Na13 O57 2.563398 1_555
Na13 O58 2.659956 1_555
Na13 O21 2.937059 1_555
Na14 O36 2.374984 1_655
Na14 O37 2.381719 1_555
Na14 O1 2.414197 1_555
Na14 O58 2.552020 1_555
Na14 O59 2.705155 1_555
Na14 O22 2.875339 1_555
Na15 O36 2.373480 1_555
Na15 O38 2.427712 1_565
Na15 O37 2.473545 1_455
Na15 O44 2.594924 1_455
Na15 O43 2.617321 1_565
Na15 O42 2.692259 1_465
Na16 O39 2.337088 1_655
Na16 O41 2.363393 1_545
Na16 O40 2.423588 1_645
Na16 O46 2.684032 1_556
Na16 O45 2.740083 1_546
Na16 O47 2.749362 1_656
Na17 O48 2.357160 1_555
Na17 O49 2.384890 1_555
Na17 O50 2.538048 1_555
Na17 O56 2.655791 1_555
Na17 O55 2.704004 1_555
Na17 O54 2.720322 1_555
Na18 O53 2.324805 1_555
Na18 O51 2.472382 1_555
Na18 O52 2.492980 1_555
Na18 O58 2.666036 1_555
Na18 O57 2.679592 1_555
Na18 O59 2.717091 1_555
Na19 O60 2.436847 1_555
Na19 O61 2.529035 1_555
Na19 O62 2.555505 1_555
Na19 O68 2.626476 1_555
Na19 O67 2.639924 1_555
Na19 O66 2.674751 1_555
Na20 O70 2.478852 1_555
Na20 O69 2.523533 1_555
Na20 O71 2.531352 1_555
Na20 O65 2.572207 1_555
Na20 O63 2.601475 1_555
Na20 O64 2.687576 1_555
Nb0 O6 1.965064 1_555
Nb0 O7 1.969521 1_665
Nb0 O8 2.025279 1_655
Nb0 O42 2.056550 1_565
Nb0 O44 2.057354 1_555
Nb0 O43 2.069355 1_665
Nb1 O45 1.966480 1_455
Nb1 O46 1.981990 1_465
Nb1 O47 1.982038 1_565
Nb1 O11 2.014574 1_555
Nb1 O9 2.091704 1_455
Nb1 O10 2.111181 1_565
Nb2 O20 1.954601 1_556
Nb2 O19 1.958051 1_556
Nb2 O18 1.982010 1_556
Nb2 O55 2.063599 1_555
Nb2 O54 2.081349 1_555
Nb2 O56 2.085773 1_555
Nb3 O22 1.949226 1_555
Nb3 O21 1.964922 1_555
Nb3 O23 1.972488 1_555
Nb3 O59 2.070224 1_555
Nb3 O58 2.076000 1_555
Nb3 O57 2.090334 1_555
Nb4 O25 1.931341 1_554
Nb4 O24 1.942619 1_554
Nb4 O26 1.986701 1_554
Nb4 O60 1.994553 1_555
Nb4 O62 2.024256 1_555
Nb4 O61 2.052060 1_555
Nb5 O29 1.929424 1_555
Nb5 O28 1.965304 1_555
Nb5 O27 1.979544 1_555
Nb5 O63 1.996650 1_555
Nb5 O65 2.019257 1_555
Nb5 O64 2.037636 1_555
Nb6 O31 1.943096 1_555
Nb6 O30 1.946079 1_555
Nb6 O32 1.984028 1_555
Nb6 O66 2.009167 1_555
Nb6 O67 2.118464 1_555
Nb6 O68 2.131450 1_555
Nb7 O35 1.935067 1_555
Nb7 O34 1.972351 1_555
Nb7 O33 1.976453 1_555
Nb7 O71 2.035543 1_555
Nb7 O69 2.051387 1_555
Nb7 O70 2.181915 1_555
O0 Si0 1.603487 1_555
O0 Zn0 1.980632 1_555
O1 P0 1.517775 1_555
O1 Zn0 2.082288 1_665
O2 P1 1.521497 1_655
O2 Zn0 2.069780 1_655
O3 Si1 1.601293 1_555
O3 Zn1 1.988654 1_555
O4 P2 1.522925 1_655
O4 Zn1 2.108071 1_665
O5 Si2 1.599094 1_555
O5 Zn1 1.992175 1_655
O6 Si2 1.708871 1_565
O7 Si1 1.709912 1_555
O8 P2 1.595771 1_555
O9 P0 1.569381 1_555
O10 P1 1.568208 1_555
O11 Si0 1.682781 1_565
O12 Si3 1.584576 1_555
O12 Zn2 2.035293 1_555
O13 Si4 1.596158 1_555
O13 Zn2 2.033157 1_555
O14 Si5 1.595019 1_555
O14 Zn2 2.053944 1_555
O15 Si6 1.590827 1_555
O15 Zn3 1.998747 1_555
O16 Si7 1.602031 1_555
O16 Zn3 1.995298 1_555
O17 Si8 1.590710 1_555
O17 Zn3 1.989738 1_555
O18 Si8 1.677379 1_555
O19 Si6 1.672097 1_555
O20 Si7 1.676388 1_555
O21 Si4 1.688663 1_555
O22 Si5 1.682923 1_555
O23 Si3 1.685548 1_555
O24 Si9 1.630377 1_555
O25 Si10 1.635069 1_555
O26 Si11 1.631781 1_555
O27 Si12 1.635336 1_555
O28 Si13 1.640467 1_555
O29 Si14 1.638402 1_555
O30 Si14 1.680825 1_555
O31 Si12 1.685515 1_555
O32 Si13 1.671521 1_555
O33 Si10 1.676733 1_555
O34 Si11 1.684455 1_555
O35 Si9 1.694116 1_555
O36 Si14 1.594892 1_555
O36 Zn0 2.229429 1_565
O37 Si12 1.598649 1_555
O37 Zn0 2.206702 1_665
O38 Si13 1.600834 1_555
O38 Zn0 2.218954 1_555
O39 Si10 1.599089 1_555
O39 Zn1 2.234891 1_555
O40 Si11 1.603111 1_555
O40 Zn1 2.235787 1_565
O41 Si9 1.596971 1_555
O41 Zn1 2.237485 1_665
O42 Si3 1.677098 1_555
O43 Si4 1.644301 1_555
O44 Si5 1.646921 1_555
O45 Si6 1.686902 1_555
O46 Si7 1.648474 1_555
O47 Si8 1.681873 1_555
O48 Si2 1.611580 1_555
O48 Zn2 2.204388 1_555
O49 Si1 1.613668 1_555
O49 Zn2 2.186360 1_555
O50 P2 1.527401 1_655
O50 Zn2 2.334859 1_555
O51 P0 1.538903 1_555
O51 Zn3 2.414937 1_555
O52 P1 1.538295 1_655
O52 Zn3 2.400430 1_555
O53 Si0 1.620420 1_555
O53 Zn3 2.250794 1_555
O54 Si9 1.648270 1_555
O55 Si10 1.653416 1_655
O56 Si11 1.657293 1_545
O57 Si12 1.651757 1_545
O58 Si13 1.656382 1_555
O59 Si14 1.648037 1_655
O60 Si8 1.632595 1_555
O61 Si6 1.648586 1_455
O62 Si7 1.645617 1_565
O63 Si4 1.646301 1_565
O64 Si5 1.665686 1_555
O65 Si3 1.651098 1_455
O66 Si0 1.712633 1_565
O67 P0 1.600533 1_555
O68 P1 1.602293 1_555
O69 Si1 1.689785 1_555
O70 P2 1.580088 1_555
O71 Si2 1.690270 1_565
