# generated using pymatgen
data_Na6Zn7Ge(SO4)12
_symmetry_space_group_name_H-M   'P 1'
_cell_length_a   17.42446577
_cell_length_b   8.70940711
_cell_length_c   22.44667056
_cell_angle_alpha   89.96762181
_cell_angle_beta   90.00676428
_cell_angle_gamma   119.97747726
_symmetry_Int_Tables_number   1
_chemical_formula_structural   Na6Zn7Ge(SO4)12
_chemical_formula_sum   'Na18 Zn21 Ge3 S36 O144'
_cell_volume   2950.72726976
_cell_formula_units_Z   3
loop_
 _symmetry_equiv_pos_site_id
 _symmetry_equiv_pos_as_xyz
  1  'x, y, z'
loop_
 _atom_site_type_symbol
 _atom_site_label
 _atom_site_symmetry_multiplicity
 _atom_site_fract_x
 _atom_site_fract_y
 _atom_site_fract_z
 _atom_site_occupancy
  Na  Na0  1  0.31931268  0.63808859  0.74963511  1
  Na  Na1  1  0.65104964  0.33357985  0.58417651  1
  Na  Na2  1  0.98617120  0.66719005  0.91745573  1
  Na  Na3  1  0.66572798  0.30218551  0.91570934  1
  Na  Na4  1  0.16676814  0.02962720  0.41724514  1
  Na  Na5  1  0.66657090  0.02940620  0.41711667  1
  Na  Na6  1  0.99546535  0.00175454  0.49857167  1
  Na  Na7  1  0.48767041  0.98486014  0.50085040  1
  Na  Na8  1  0.00233488  0.01374387  0.99977053  1
  Na  Na9  1  0.49266020  0.98759110  0.99811420  1
  Na  Na10  1  0.33657154  0.32610253  0.83588377  1
  Na  Na11  1  0.83170740  0.31982728  0.82994482  1
  Na  Na12  1  0.33905298  0.34372661  0.33272941  1
  Na  Na13  1  0.83954280  0.34404056  0.33245392  1
  Na  Na14  1  0.16732611  0.66679990  0.16629840  1
  Na  Na15  1  0.66617142  0.66626363  0.16640359  1
  Na  Na16  1  0.16472682  0.67040302  0.66426125  1
  Na  Na17  1  0.66420530  0.67439918  0.66892310  1
  Zn  Zn0  1  0.99646828  0.99938940  0.35052630  1
  Zn  Zn1  1  0.49558375  0.99867518  0.35052910  1
  Zn  Zn2  1  0.00123688  0.00807963  0.85054250  1
  Zn  Zn3  1  0.49645083  0.99512256  0.84879070  1
  Zn  Zn4  1  0.49676330  0.99323170  0.65136045  1
  Zn  Zn5  1  0.33706303  0.33158152  0.68065018  1
  Zn  Zn6  1  0.83148226  0.32968510  0.68410943  1
  Zn  Zn7  1  0.33339118  0.33318950  0.18228406  1
  Zn  Zn8  1  0.83329136  0.33319166  0.18292483  1
  Zn  Zn9  1  0.33365340  0.33699690  0.98455011  1
  Zn  Zn10  1  0.83318087  0.32109550  0.98752263  1
  Zn  Zn11  1  0.33626655  0.34141069  0.48518747  1
  Zn  Zn12  1  0.84081506  0.34017083  0.48525134  1
  Zn  Zn13  1  0.16990772  0.66812672  0.01647784  1
  Zn  Zn14  1  0.66429421  0.66781544  0.01669536  1
  Zn  Zn15  1  0.16821787  0.66243600  0.51682767  1
  Zn  Zn16  1  0.66524581  0.67101120  0.51472917  1
  Zn  Zn17  1  0.16699587  0.66396504  0.31621714  1
  Zn  Zn18  1  0.66665131  0.66405640  0.31537196  1
  Zn  Zn19  1  0.16717959  0.67281081  0.81884912  1
  Zn  Zn20  1  0.66453760  0.66494683  0.81602410  1
  Ge  Ge0  1  0.00064904  0.00273944  0.65062456  1
  Ge  Ge1  1  0.00051011  0.00153738  0.15077689  1
  Ge  Ge2  1  0.49874030  0.99906435  0.15035266  1
  S  S0  1  0.14530385  0.00011298  0.24972223  1
  S  S1  1  0.64505561  0.00036259  0.24963324  1
  S  S2  1  0.35483229  0.70914734  0.24890694  1
  S  S3  1  0.85541940  0.71046539  0.24879451  1
  S  S4  1  0.99995328  0.29028034  0.24891011  1
  S  S5  1  0.49999518  0.28980565  0.24876566  1
  S  S6  1  0.14492323  0.28945461  0.74888995  1
  S  S7  1  0.64873517  0.29718190  0.75006187  1
  S  S8  1  0.99971785  0.71012831  0.74946461  1
  S  S9  1  0.50148800  0.70502234  0.74979305  1
  S  S10  1  0.35137956  0.00232177  0.75030998  1
  S  S11  1  0.85599718  0.00053317  0.74885151  1
  S  S12  1  0.48132158  0.33335713  0.58281194  1
  S  S13  1  0.98136234  0.32827062  0.58658970  1
  S  S14  1  0.18113047  0.03479260  0.58547157  1
  S  S15  1  0.68644236  0.03686111  0.58261464  1
  S  S16  1  0.33277876  0.62975912  0.58462787  1
  S  S17  1  0.83718157  0.63516664  0.58567612  1
  S  S18  1  0.48142709  0.63497512  0.08599142  1
  S  S19  1  0.98208132  0.63575228  0.08492545  1
  S  S20  1  0.33576195  0.03785087  0.08567140  1
  S  S21  1  0.83581201  0.03540685  0.08624360  1
  S  S22  1  0.18272360  0.32794784  0.08591110  1
  S  S23  1  0.68209199  0.32836475  0.08512037  1
  S  S24  1  0.31473158  0.66519843  0.91593242  1
  S  S25  1  0.81406907  0.66952598  0.91741309  1
  S  S26  1  0.01978151  0.37132686  0.91713373  1
  S  S27  1  0.51809931  0.37244289  0.91718533  1
  S  S28  1  0.16805234  0.96460286  0.91730170  1
  S  S29  1  0.66710472  0.96068986  0.91665386  1
  S  S30  1  0.31424623  0.96101666  0.41693351  1
  S  S31  1  0.81456413  0.95999607  0.41651051  1
  S  S32  1  0.16674680  0.37222393  0.41635493  1
  S  S33  1  0.66731287  0.37257036  0.41732152  1
  S  S34  1  0.01921998  0.66336400  0.41664453  1
  S  S35  1  0.51814841  0.66407926  0.41524990  1
  O  O0  1  0.10586682  0.02510261  0.30409736  1
  O  O1  1  0.60588590  0.02537353  0.30416824  1
  O  O2  1  0.40873018  0.78950763  0.30183637  1
  O  O3  1  0.90899736  0.79027303  0.30177928  1
  O  O4  1  0.48727559  0.18323549  0.30190724  1
  O  O5  1  0.98681324  0.18311460  0.30184290  1
  O  O6  1  0.10506916  0.18262136  0.80169325  1
  O  O7  1  0.60778372  0.19183045  0.80475684  1
  O  O8  1  0.48495931  0.78419111  0.80310490  1
  O  O9  1  0.98733371  0.78858861  0.80415924  1
  O  O10  1  0.40402641  0.02702736  0.80442732  1
  O  O11  1  0.90939332  0.02604123  0.80194524  1
  O  O12  1  0.39080552  0.96862935  0.69680430  1
  O  O13  1  0.89875766  0.96998104  0.69284221  1
  O  O14  1  0.08773738  0.20577414  0.69317853  1
  O  O15  1  0.59663430  0.21568855  0.69501850  1
  O  O16  1  0.01487111  0.82916735  0.69444306  1
  O  O17  1  0.51351886  0.81011227  0.69541094  1
  O  O18  1  0.39725512  0.82570063  0.19287582  1
  O  O19  1  0.89795040  0.82685092  0.19279813  1
  O  O20  1  0.01514617  0.20504867  0.19281018  1
  O  O21  1  0.51525827  0.20409248  0.19278406  1
  O  O22  1  0.08595215  0.96987549  0.19457795  1
  O  O23  1  0.58594767  0.97084238  0.19459618  1
  O  O24  1  0.44278567  0.36020725  0.63713239  1
  O  O25  1  0.94037967  0.35372055  0.63958874  1
  O  O26  1  0.23548399  0.12024660  0.63795977  1
  O  O27  1  0.74061596  0.12188426  0.63560678  1
  O  O28  1  0.32044638  0.52680200  0.64031136  1
  O  O29  1  0.82174573  0.52431277  0.63823483  1
  O  O30  1  0.44117861  0.52869936  0.13974267  1
  O  O31  1  0.93927386  0.52533647  0.13738108  1
  O  O32  1  0.32291997  0.11754852  0.13961545  1
  O  O33  1  0.82280900  0.11789909  0.13940999  1
  O  O34  1  0.23556318  0.35341644  0.13970330  1
  O  O35  1  0.73717530  0.35271197  0.13754171  1
  O  O36  1  0.21900650  0.29266792  0.03200992  1
  O  O37  1  0.71769407  0.29547123  0.02949177  1
  O  O38  1  0.42795566  0.56291371  0.03204654  1
  O  O39  1  0.92982602  0.56539595  0.02941809  1
  O  O40  1  0.35262776  0.14522565  0.03186128  1
  O  O41  1  0.85390599  0.14240970  0.03186459  1
  O  O42  1  0.21537910  0.13718684  0.52964181  1
  O  O43  1  0.72590867  0.14784455  0.52760676  1
  O  O44  1  0.34453879  0.54423058  0.53137943  1
  O  O45  1  0.85391027  0.56295575  0.53118503  1
  O  O46  1  0.42776523  0.30670150  0.52903828  1
  O  O47  1  0.92818687  0.29148597  0.53188589  1
  O  O48  1  0.27211990  0.69106937  0.96873903  1
  O  O49  1  0.77387424  0.69314289  0.97154092  1
  O  O50  1  0.07216299  0.45332032  0.97118849  1
  O  O51  1  0.57511857  0.45132686  0.97043588  1
  O  O52  1  0.15026497  0.84916234  0.97005393  1
  O  O53  1  0.65523318  0.85792836  0.97111860  1
  O  O54  1  0.27351600  0.85542462  0.47107019  1
  O  O55  1  0.77404275  0.85425028  0.47089251  1
  O  O56  1  0.15320328  0.45063181  0.47018248  1
  O  O57  1  0.65543322  0.44944248  0.47315458  1
  O  O58  1  0.07510680  0.69578479  0.46995399  1
  O  O59  1  0.57388951  0.69836018  0.46903762  1
  O  O60  1  0.05900507  0.63912809  0.36185670  1
  O  O61  1  0.55955801  0.64056238  0.36124992  1
  O  O62  1  0.25848261  0.88268631  0.36299557  1
  O  O63  1  0.75832149  0.88101607  0.36299684  1
  O  O64  1  0.17972223  0.47676715  0.36179912  1
  O  O65  1  0.67934030  0.48033664  0.36410851  1
  O  O66  1  0.05860576  0.48241354  0.86295619  1
  O  O67  1  0.55853195  0.47791938  0.86285232  1
  O  O68  1  0.17958441  0.88502780  0.86229869  1
  O  O69  1  0.68125459  0.88246809  0.86255515  1
  O  O70  1  0.26344632  0.63900639  0.85965385  1
  O  O71  1  0.75935358  0.63792458  0.86360662  1
  O  O72  1  0.01196342  0.82859982  0.41154363  1
  O  O73  1  0.51151291  0.82976370  0.41032880  1
  O  O74  1  0.40335112  0.98136478  0.41141819  1
  O  O75  1  0.90352845  0.98024475  0.41130384  1
  O  O76  1  0.08741495  0.18875444  0.41163129  1
  O  O77  1  0.58781559  0.19039951  0.41243164  1
  O  O78  1  0.00884124  0.19295872  0.91151493  1
  O  O79  1  0.51148202  0.19366765  0.91181025  1
  O  O80  1  0.08482329  0.97748511  0.91204115  1
  O  O81  1  0.58827340  0.98530347  0.91163225  1
  O  O82  1  0.40397751  0.82635545  0.91152194  1
  O  O83  1  0.90519787  0.82429035  0.91188813  1
  O  O84  1  0.49343259  0.17489423  0.58762263  1
  O  O85  1  0.98927031  0.15822078  0.59305110  1
  O  O86  1  0.08859217  0.02033816  0.59265961  1
  O  O87  1  0.59772267  0.02450252  0.58761832  1
  O  O88  1  0.41343076  0.80805496  0.58832637  1
  O  O89  1  0.91998643  0.81928906  0.59274026  1
  O  O90  1  0.48965281  0.82086220  0.09274992  1
  O  O91  1  0.98944985  0.81968268  0.09216772  1
  O  O92  1  0.42088608  0.02225949  0.09221640  1
  O  O93  1  0.92065767  0.02098324  0.09279655  1
  O  O94  1  0.08978382  0.15762427  0.09264946  1
  O  O95  1  0.59045204  0.15889609  0.09213695  1
  O  O96  1  0.34023390  0.15853548  0.74424472  1
  O  O97  1  0.84872303  0.16081760  0.74182221  1
  O  O98  1  0.23419588  0.31138386  0.74167510  1
  O  O99  1  0.73830765  0.31330714  0.74588592  1
  O  O100  1  0.41845990  0.52598438  0.74497802  1
  O  O101  1  0.91994952  0.53598532  0.74167583  1
  O  O102  1  0.34673563  0.53378090  0.24144264  1
  O  O103  1  0.84724025  0.53476264  0.24122589  1
  O  O104  1  0.42017688  0.30550635  0.24153717  1
  O  O105  1  0.92000013  0.30615162  0.24155808  1
  O  O106  1  0.23259505  0.16040896  0.24191821  1
  O  O107  1  0.73255721  0.16098832  0.24193632  1
  O  O108  1  0.32306567  0.50369639  0.92194360  1
  O  O109  1  0.82344973  0.50575024  0.92254674  1
  O  O110  1  0.42921193  0.35249945  0.92373740  1
  O  O111  1  0.93006803  0.35864070  0.92233303  1
  O  O112  1  0.24671881  0.14171749  0.92355690  1
  O  O113  1  0.74699869  0.14528683  0.92166468  1
  O  O114  1  0.32098062  0.13992202  0.42242717  1
  O  O115  1  0.82139849  0.13890977  0.42182485  1
  O  O116  1  0.24595796  0.34750683  0.42127214  1
  O  O117  1  0.74685744  0.34888882  0.42157609  1
  O  O118  1  0.42918837  0.50640959  0.42110151  1
  O  O119  1  0.92966750  0.50555066  0.42244512  1
  O  O120  1  0.16935364  0.48153525  0.07968045  1
  O  O121  1  0.66991478  0.48303051  0.07954318  1
  O  O122  1  0.07173716  0.66027066  0.07925215  1
  O  O123  1  0.57153436  0.66079168  0.08008844  1
  O  O124  1  0.25884193  0.85712330  0.07981433  1
  O  O125  1  0.75871787  0.85627337  0.07991260  1
  O  O126  1  0.16815208  0.85495796  0.58013233  1
  O  O127  1  0.67667462  0.85910551  0.57739648  1
  O  O128  1  0.25226674  0.64790946  0.57956057  1
  O  O129  1  0.75755255  0.65428346  0.57942390  1
  O  O130  1  0.07085866  0.48248496  0.58006139  1
  O  O131  1  0.57297904  0.49227062  0.57782189  1
  O  O132  1  0.15218511  0.83829128  0.25168373  1
  O  O133  1  0.65229580  0.83896074  0.25153249  1
  O  O134  1  0.26704468  0.69616128  0.25173263  1
  O  O135  1  0.76746016  0.69689356  0.25149459  1
  O  O136  1  0.08081830  0.46592126  0.25136955  1
  O  O137  1  0.58110736  0.46524438  0.25110832  1
  O  O138  1  0.15387893  0.46806517  0.75163967  1
  O  O139  1  0.65821302  0.47630645  0.75441103  1
  O  O140  1  0.08062834  0.69613797  0.75151690  1
  O  O141  1  0.58061274  0.68542235  0.75514820  1
  O  O142  1  0.26201763  0.83468507  0.75524560  1
  O  O143  1  0.76814040  0.83936429  0.75137366  1
loop_
_geom_bond_atom_site_label_1
_geom_bond_atom_site_label_2
_geom_bond_distance
_geom_bond_site_symmetry_2
Na0 O100 2.373716 1_555
Na0 O142 2.377561 1_555
Na0 O98 2.472085 1_555
Na0 O138 2.497691 1_555
Na0 O28 2.642639 1_555
Na0 O70 2.656072 1_555
Na0 O12 2.767386 1_555
Na0 O8 2.778692 1_555
Na1 O87 2.369767 1_555
Na1 O131 2.379002 1_555
Na1 O84 2.380248 1_555
Na1 O129 2.465094 1_555
Na1 O57 2.674829 1_555
Na1 O15 2.677379 1_555
Na1 O43 2.835819 1_555
Na1 O29 2.853468 1_555
Na2 O111 2.358726 1_555
Na2 O80 2.372847 1_655
Na2 O83 2.409845 1_555
Na2 O109 2.458688 1_555
Na2 O39 2.682205 1_556
Na2 O52 2.748439 1_655
Na2 O9 2.749798 1_555
Na2 O66 2.776995 1_655
Na3 O79 2.363472 1_555
Na3 O81 2.392632 1_545
Na3 O113 2.413304 1_555
Na3 O109 2.418814 1_555
Na3 O7 2.679214 1_555
Na3 O37 2.720040 1_556
Na3 O51 2.782191 1_555
Na3 O71 2.794465 1_555
Na4 O114 2.361617 1_555
Na4 O72 2.374534 1_545
Na4 O116 2.399931 1_555
Na4 O76 2.400658 1_555
Na4 O42 2.677577 1_555
Na4 O0 2.745153 1_555
Na4 O62 2.778578 1_545
Na4 O58 2.785778 1_545
Na5 O115 2.372274 1_555
Na5 O73 2.377364 1_545
Na5 O77 2.404756 1_555
Na5 O117 2.412418 1_555
Na5 O43 2.687120 1_555
Na5 O1 2.740350 1_555
Na5 O59 2.760947 1_545
Na5 O63 2.787269 1_545
Na6 O75 2.477559 1_545
Na6 O76 2.533270 1_655
Na6 O85 2.552758 1_555
Na6 O72 2.570942 1_645
Na6 O89 2.575154 1_545
Na6 O86 2.618550 1_655
Na7 O88 2.430361 1_555
Na7 O74 2.478726 1_555
Na7 O84 2.525993 1_565
Na7 O73 2.586503 1_555
Na7 O87 2.632110 1_565
Na7 O77 2.657773 1_565
Na8 O78 2.488651 1_555
Na8 O94 2.516479 1_556
Na8 O93 2.545625 1_456
Na8 O80 2.549203 1_545
Na8 O83 2.586656 1_445
Na8 O91 2.612565 1_446
Na9 O82 2.443700 1_555
Na9 O79 2.547501 1_565
Na9 O92 2.548660 1_566
Na9 O90 2.558190 1_556
Na9 O81 2.564828 1_555
Na9 O95 2.654402 1_566
Na10 O110 2.485216 1_555
Na10 O112 2.527375 1_555
Na10 O96 2.541979 1_555
Na10 O108 2.558651 1_555
Na10 O100 2.597052 1_555
Na10 O98 2.727866 1_555
Na11 O99 2.473662 1_555
Na11 O97 2.516361 1_555
Na11 O113 2.546188 1_555
Na11 O111 2.602561 1_555
Na11 O101 2.633989 1_555
Na11 O109 2.683295 1_555
Na12 O118 2.487522 1_555
Na12 O116 2.576182 1_555
Na12 O102 2.594485 1_555
Na12 O114 2.596388 1_555
Na12 O104 2.602042 1_555
Na12 O106 2.681101 1_555
Na13 O119 2.513993 1_555
Na13 O117 2.584758 1_555
Na13 O105 2.588608 1_555
Na13 O103 2.596938 1_555
Na13 O115 2.597650 1_555
Na13 O107 2.679163 1_555
Na14 O134 2.513527 1_555
Na14 O136 2.518124 1_555
Na14 O132 2.524076 1_555
Na14 O124 2.532719 1_555
Na14 O120 2.538808 1_555
Na14 O122 2.549478 1_555
Na15 O137 2.506163 1_555
Na15 O133 2.517715 1_555
Na15 O135 2.522590 1_555
Na15 O123 2.529061 1_555
Na15 O125 2.537417 1_555
Na15 O121 2.541653 1_555
Na16 O126 2.460491 1_555
Na16 O130 2.500726 1_555
Na16 O128 2.505893 1_555
Na16 O140 2.522509 1_555
Na16 O138 2.579041 1_555
Na16 O142 2.582748 1_555
Na17 O141 2.453043 1_555
Na17 O143 2.484204 1_555
Na17 O139 2.546763 1_555
Na17 O127 2.550097 1_555
Na17 O131 2.589931 1_555
Na17 O129 2.645398 1_555
Ge0 O13 1.904046 1_445
Ge0 O14 1.913654 1_555
Ge0 O16 1.920087 1_545
Ge0 O85 1.951774 1_455
Ge0 O86 1.957057 1_555
Ge0 O89 1.993550 1_445
Ge1 O20 1.909708 1_555
Ge1 O22 1.915406 1_545
Ge1 O19 1.918261 1_445
Ge1 O94 1.963528 1_555
Ge1 O93 1.973135 1_455
Ge1 O91 1.993421 1_445
Ge2 O18 1.910088 1_555
Ge2 O21 1.914909 1_565
Ge2 O23 1.930886 1_555
Ge2 O92 1.963968 1_565
Ge2 O90 1.965283 1_555
Ge2 O95 1.993613 1_565
O0 S0 1.469437 1_555
O0 Zn0 2.084113 1_445
O1 S1 1.469977 1_555
O1 Zn1 2.093926 1_545
O2 S2 1.458499 1_555
O2 Zn1 2.012560 1_555
O3 S3 1.456504 1_555
O3 Zn0 2.016237 1_555
O4 S5 1.458336 1_555
O4 Zn1 2.006588 1_545
O5 S4 1.456214 1_555
O5 Zn0 2.012438 1_545
O6 S6 1.451231 1_555
O6 Zn2 2.009138 1_555
O7 S7 1.484255 1_555
O7 Zn3 2.086298 1_545
O8 S9 1.479819 1_555
O8 Zn3 2.025119 1_555
O9 S8 1.472809 1_555
O9 Zn2 2.082411 1_665
O10 S10 1.471810 1_555
O10 Zn3 2.027039 1_545
O11 S11 1.459045 1_555
O11 Zn2 2.006248 1_655
O12 S10 1.484098 1_565
O12 Zn4 2.024839 1_555
O13 S11 1.550896 1_565
O14 S6 1.537173 1_555
O15 S7 1.487043 1_555
O15 Zn4 2.091623 1_545
O16 S8 1.547582 1_455
O17 S9 1.476085 1_555
O17 Zn4 2.017420 1_555
O18 S2 1.551651 1_555
O19 S3 1.550696 1_555
O20 S4 1.550599 1_455
O21 S5 1.551320 1_555
O22 S0 1.548848 1_565
O23 S1 1.545477 1_565
O24 S12 1.466189 1_555
O24 Zn5 1.987736 1_555
O25 S13 1.460485 1_555
O25 Zn6 2.060632 1_555
O26 S14 1.461279 1_555
O26 Zn5 2.045691 1_555
O27 S15 1.468500 1_555
O27 Zn6 2.026299 1_555
O28 S16 1.489548 1_555
O28 Zn5 2.069958 1_555
O29 S17 1.461375 1_555
O29 Zn6 2.061028 1_555
O30 S18 1.467837 1_555
O30 Zn7 2.035048 1_555
O31 S19 1.466173 1_555
O31 Zn8 2.041104 1_555
O32 S20 1.467751 1_555
O32 Zn7 2.034071 1_555
O33 S21 1.468143 1_555
O33 Zn8 2.040367 1_555
O34 S22 1.466559 1_555
O34 Zn7 2.037095 1_555
O35 S23 1.465398 1_555
O35 Zn8 2.038491 1_555
O36 S22 1.467205 1_555
O36 Zn9 2.122242 1_554
O37 S23 1.484683 1_555
O37 Zn10 2.130272 1_554
O38 S18 1.464397 1_555
O38 Zn9 2.116403 1_554
O39 S19 1.483230 1_555
O39 Zn10 2.160704 1_554
O40 S20 1.464240 1_555
O40 Zn9 2.139266 1_554
O41 S21 1.470720 1_555
O41 Zn10 2.025531 1_554
O42 S14 1.479527 1_555
O42 Zn11 2.202440 1_555
O43 S15 1.505458 1_555
O43 Zn12 2.089403 1_555
O44 S16 1.476175 1_555
O44 Zn11 1.990918 1_555
O45 S17 1.469942 1_555
O45 Zn12 2.107077 1_555
O46 S12 1.471475 1_555
O46 Zn11 2.020644 1_555
O47 S13 1.473927 1_555
O47 Zn12 2.058517 1_555
O48 S24 1.474707 1_555
O48 Zn13 2.001179 1_556
O49 S25 1.467472 1_555
O49 Zn14 2.073883 1_556
O50 S26 1.471261 1_555
O50 Zn13 2.061992 1_556
O51 S27 1.485388 1_555
O51 Zn14 2.030215 1_556
O52 S28 1.482021 1_555
O52 Zn13 2.055823 1_556
O53 S29 1.467054 1_555
O53 Zn14 2.018023 1_556
O54 S30 1.474048 1_555
O54 Zn15 2.040376 1_555
O55 S31 1.478491 1_555
O55 Zn16 2.020953 1_555
O56 S32 1.464218 1_555
O56 Zn15 2.021739 1_555
O57 S33 1.483668 1_555
O57 Zn16 2.072743 1_555
O58 S34 1.478255 1_555
O58 Zn15 2.072141 1_555
O59 S35 1.483420 1_555
O59 Zn16 2.005199 1_555
O60 S34 1.477928 1_555
O60 Zn17 2.056812 1_555
O61 S35 1.476474 1_555
O61 Zn18 2.050156 1_555
O62 S30 1.487822 1_555
O62 Zn17 2.059067 1_555
O63 S31 1.484404 1_555
O63 Zn18 2.061655 1_555
O64 S32 1.474065 1_555
O64 Zn17 2.028186 1_555
O65 S33 1.467584 1_555
O65 Zn18 2.038983 1_555
O66 S26 1.489098 1_555
O66 Zn19 2.042705 1_555
O67 S27 1.476426 1_555
O67 Zn20 2.040048 1_555
O68 S28 1.478246 1_555
O68 Zn19 2.004205 1_555
O69 S29 1.472543 1_555
O69 Zn20 2.053174 1_555
O70 S24 1.497592 1_555
O70 Zn19 2.057211 1_555
O71 S25 1.476924 1_555
O71 Zn20 2.076899 1_555
O72 S34 1.510554 1_555
O72 Zn0 2.135493 1_455
O73 S35 1.508112 1_555
O73 Zn1 2.109201 1_555
O74 S30 1.477285 1_555
O74 Zn1 2.057109 1_555
O75 S31 1.474643 1_555
O75 Zn0 2.059602 1_555
O76 S32 1.506055 1_555
O76 Zn0 2.121995 1_445
O77 S33 1.500674 1_555
O77 Zn1 2.149909 1_545
O78 S26 1.473034 1_555
O78 Zn2 2.067037 1_555
O79 S27 1.507642 1_555
O79 Zn3 2.147064 1_545
O80 S28 1.514007 1_555
O80 Zn2 2.117732 1_565
O81 S29 1.496533 1_555
O81 Zn3 2.166332 1_555
O82 S24 1.488883 1_555
O82 Zn3 2.090685 1_555
O83 S25 1.488146 1_555
O83 Zn2 2.140084 1_665
O84 S12 1.500597 1_555
O84 Zn4 2.154699 1_545
O85 S13 1.561144 1_555
O86 S14 1.561730 1_555
O87 S15 1.499244 1_555
O87 Zn4 2.176554 1_545
O88 S16 1.487451 1_555
O88 Zn4 2.091240 1_555
O89 S17 1.538349 1_555
O90 S18 1.559806 1_555
O91 S19 1.550429 1_555
O92 S20 1.562444 1_555
O93 S21 1.551958 1_555
O94 S22 1.563682 1_555
O95 S23 1.548418 1_555
O96 S10 1.473472 1_555
O96 Zn5 2.095941 1_555
O97 S11 1.471833 1_555
O97 Zn6 2.090647 1_555
O98 S6 1.478347 1_555
O98 Zn5 2.192088 1_555
O99 S7 1.498477 1_555
O99 Zn6 2.085165 1_555
O100 S9 1.510609 1_555
O100 Zn5 2.136772 1_555
O101 S8 1.468462 1_555
O101 Zn6 2.123345 1_555
O102 S2 1.471628 1_555
O102 Zn7 2.113326 1_555
O103 S3 1.474190 1_555
O103 Zn8 2.104709 1_555
O104 S5 1.472854 1_555
O104 Zn7 2.115979 1_555
O105 S4 1.476328 1_555
O105 Zn8 2.103584 1_555
O106 S0 1.473421 1_555
O106 Zn7 2.120869 1_555
O107 S1 1.476427 1_555
O107 Zn8 2.110079 1_555
O108 S24 1.490531 1_555
O108 Zn9 2.093347 1_555
O109 S25 1.519007 1_555
O109 Zn10 2.238786 1_555
O110 S27 1.477097 1_555
O110 Zn9 2.104674 1_555
O111 S26 1.515546 1_655
O111 Zn10 2.132268 1_555
O112 S28 1.471498 1_545
O112 Zn9 2.118775 1_555
O113 S29 1.516236 1_545
O113 Zn10 2.118766 1_555
O114 S30 1.508090 1_545
O114 Zn11 2.161170 1_555
O115 S31 1.507073 1_545
O115 Zn12 2.150356 1_555
O116 S32 1.503451 1_555
O116 Zn11 2.149457 1_555
O117 S33 1.502777 1_555
O117 Zn12 2.202839 1_555
O118 S35 1.475946 1_555
O118 Zn11 2.104522 1_555
O119 S34 1.482413 1_655
O119 Zn12 2.056418 1_555
O120 S22 1.474567 1_555
O120 Zn13 2.153008 1_555
O121 S23 1.469917 1_555
O121 Zn14 2.178234 1_555
O122 S19 1.472736 1_455
O122 Zn13 2.190826 1_555
O123 S18 1.476640 1_555
O123 Zn14 2.131338 1_555
O124 S20 1.477567 1_565
O124 Zn13 2.141293 1_555
O125 S21 1.471265 1_565
O125 Zn14 2.172105 1_555
O126 S14 1.471361 1_565
O126 Zn15 2.198930 1_555
O127 S15 1.475239 1_565
O127 Zn16 2.092506 1_555
O128 S16 1.492499 1_555
O128 Zn15 2.080416 1_555
O129 S17 1.484364 1_555
O129 Zn16 2.224942 1_555
O130 S13 1.471057 1_455
O130 Zn15 2.165634 1_555
O131 S12 1.506564 1_555
O131 Zn16 2.123859 1_555
O132 S0 1.473581 1_565
O132 Zn17 2.204331 1_555
O133 S1 1.473403 1_565
O133 Zn18 2.194247 1_555
O134 S2 1.477761 1_555
O134 Zn17 2.173590 1_555
O135 S3 1.478382 1_555
O135 Zn18 2.172837 1_555
O136 S4 1.474650 1_455
O136 Zn17 2.182373 1_555
O137 S5 1.475460 1_555
O137 Zn18 2.173457 1_555
O138 S6 1.485110 1_555
O138 Zn19 2.258204 1_555
O139 S7 1.487724 1_555
O139 Zn20 2.108489 1_555
O140 S8 1.475199 1_455
O140 Zn19 2.214781 1_555
O141 S9 1.476330 1_555
O141 Zn20 2.073000 1_555
O142 S10 1.515411 1_565
O142 Zn19 2.103995 1_555
O143 S11 1.472961 1_565
O143 Zn20 2.220380 1_555
