# generated using pymatgen
data_VCoSi
_symmetry_space_group_name_H-M   'P 1'
_cell_length_a   3.51623755
_cell_length_b   5.93204789
_cell_length_c   6.76939574
_cell_angle_alpha   90.00000000
_cell_angle_beta   90.00000000
_cell_angle_gamma   90.00000000
_symmetry_Int_Tables_number   1
_chemical_formula_structural   VCoSi
_chemical_formula_sum   'V4 Co4 Si4'
_cell_volume   141.19937023
_cell_formula_units_Z   4
loop_
 _symmetry_equiv_pos_site_id
 _symmetry_equiv_pos_as_xyz
  1  'x, y, z'
loop_
 _atom_site_type_symbol
 _atom_site_label
 _atom_site_symmetry_multiplicity
 _atom_site_fract_x
 _atom_site_fract_y
 _atom_site_fract_z
 _atom_site_occupancy
  V  V0  1  0.75000000  0.47579095  0.32261970  1
  V  V1  1  0.25000000  0.02420905  0.82261970  1
  V  V2  1  0.75000000  0.97579095  0.17738030  1
  V  V3  1  0.25000000  0.52420905  0.67738030  1
  Co  Co0  1  0.25000000  0.64199984  0.06182710  1
  Co  Co1  1  0.25000000  0.14199984  0.43817290  1
  Co  Co2  1  0.75000000  0.85800016  0.56182710  1
  Co  Co3  1  0.75000000  0.35800016  0.93817290  1
  Si  Si0  1  0.25000000  0.76824681  0.37621336  1
  Si  Si1  1  0.25000000  0.26824681  0.12378664  1
  Si  Si2  1  0.75000000  0.23175319  0.62378664  1
  Si  Si3  1  0.75000000  0.73175319  0.87621336  1
loop_
_geom_bond_atom_site_label_1
_geom_bond_atom_site_label_2
_geom_bond_distance
_geom_bond_site_symmetry_2
Co0 Si3 2.225585 1_554
Co0 Si3 2.225585 1_454
Co0 Si0 2.256128 1_555
Co0 Si1 2.256445 1_555
Co0 Co3 2.574854 1_554
Co0 Co3 2.574854 1_454
Co0 V0 2.679508 1_455
Co0 V0 2.679508 1_555
Co0 V3 2.694643 1_554
Co0 V2 2.761071 1_455
Co0 V2 2.761071 1_555
Co0 V1 2.786157 1_564
Co1 Si2 2.225585 1_455
Co1 Si2 2.225585 1_555
Co1 Si1 2.256128 1_555
Co1 Si0 2.256445 1_545
Co1 Co2 2.574854 1_445
Co1 Co2 2.574854 1_545
Co1 V2 2.679508 1_445
Co1 V2 2.679508 1_545
Co1 V1 2.694643 1_555
Co1 V0 2.761071 1_455
Co1 V0 2.761071 1_555
Co1 V3 2.786157 1_555
Co2 Si0 2.225585 1_655
Co2 Si0 2.225585 1_555
Co2 Si3 2.256128 1_555
Co2 Si2 2.256445 1_565
Co2 V1 2.679508 1_565
Co2 V1 2.679508 1_665
Co2 V2 2.694643 1_555
Co2 V3 2.761071 1_655
Co2 V3 2.761071 1_555
Co2 V0 2.786157 1_555
Co3 Si1 2.225585 1_556
Co3 Si1 2.225585 1_656
Co3 Si2 2.256128 1_555
Co3 Si3 2.256445 1_555
Co3 V3 2.679508 1_655
Co3 V3 2.679508 1_555
Co3 V0 2.694643 1_556
Co3 V1 2.761071 1_555
Co3 V1 2.761071 1_655
Co3 V2 2.786157 1_546
Si0 V0 2.496467 1_455
Si0 V0 2.496467 1_555
Si0 V3 2.500409 1_555
Si0 V2 2.533457 1_555
Si0 V2 2.533457 1_455
Si1 V2 2.496467 1_445
Si1 V2 2.496467 1_545
Si1 V1 2.500409 1_554
Si1 V0 2.533457 1_555
Si1 V0 2.533457 1_455
Si2 V3 2.496467 1_555
Si2 V3 2.496467 1_655
Si2 V0 2.500409 1_555
Si2 V1 2.533457 1_655
Si2 V1 2.533457 1_555
Si3 V1 2.496467 1_565
Si3 V1 2.496467 1_665
Si3 V2 2.500409 1_556
Si3 V3 2.533457 1_555
Si3 V3 2.533457 1_655
