# generated using pymatgen
data_Na5TiGa3(PO4)6
_symmetry_space_group_name_H-M   'P 1'
_cell_length_a   8.71803712
_cell_length_b   8.71673765
_cell_length_c   21.95587008
_cell_angle_alpha   89.95284141
_cell_angle_beta   89.96298404
_cell_angle_gamma   120.00282142
_symmetry_Int_Tables_number   1
_chemical_formula_structural   Na5TiGa3(PO4)6
_chemical_formula_sum   'Na15 Ti3 Ga9 P18 O72'
_cell_volume   1444.91118827
_cell_formula_units_Z   3
loop_
 _symmetry_equiv_pos_site_id
 _symmetry_equiv_pos_as_xyz
  1  'x, y, z'
loop_
 _atom_site_type_symbol
 _atom_site_label
 _atom_site_symmetry_multiplicity
 _atom_site_fract_x
 _atom_site_fract_y
 _atom_site_fract_z
 _atom_site_occupancy
  Na  Na0  1  0.63331328  0.99964675  0.25294023  1
  Na  Na1  1  0.36592588  0.36665489  0.25354430  1
  Na  Na2  1  0.00061428  0.63455506  0.25308416  1
  Na  Na3  1  0.63826373  0.63307480  0.74854830  1
  Na  Na4  1  0.99951054  0.36298950  0.74878568  1
  Na  Na5  1  0.03224216  0.70067822  0.58138115  1
  Na  Na6  1  0.66411660  0.96583227  0.58109717  1
  Na  Na7  1  0.66433025  0.69929193  0.08142237  1
  Na  Na8  1  0.03285807  0.33152273  0.08165880  1
  Na  Na9  1  0.01054855  0.01185911  0.49571648  1
  Na  Na10  1  0.00984256  0.99866562  0.99478418  1
  Na  Na11  1  0.65578115  0.32179744  0.83321121  1
  Na  Na12  1  0.66666094  0.33349319  0.33842509  1
  Na  Na13  1  0.33208559  0.67714677  0.16517337  1
  Na  Na14  1  0.33316127  0.66536095  0.66346600  1
  Ti  Ti0  1  0.66598910  0.33405830  0.97648148  1
  Ti  Ti1  1  0.66363041  0.33174863  0.47726658  1
  Ti  Ti2  1  0.33408633  0.67434910  0.81601493  1
  Ga  Ga0  1  0.00048398  -0.00037527  0.35531352  1
  Ga  Ga1  1  0.00163971  0.00148253  0.85276025  1
  Ga  Ga2  1  0.00884059  0.00816697  0.64842547  1
  Ga  Ga3  1  0.00669012  0.99876886  0.14906484  1
  Ga  Ga4  1  0.65868997  0.32663852  0.68258078  1
  Ga  Ga5  1  0.66573387  0.33145571  0.18163729  1
  Ga  Ga6  1  0.33270120  0.67301840  0.01551199  1
  Ga  Ga7  1  0.33221806  0.65879651  0.51520314  1
  Ga  Ga8  1  0.33313740  0.66633732  0.32189091  1
  P  P0  1  0.29006301  0.99999571  0.25051970  1
  P  P1  1  0.71019902  0.70995832  0.24941097  1
  P  P2  1  -0.00034053  0.28997496  0.24947200  1
  P  P3  1  0.29118509  0.28644362  0.75112844  1
  P  P4  1  0.00080043  0.71251260  0.74947522  1
  P  P5  1  0.71098663  0.00268805  0.74959160  1
  P  P6  1  0.95922307  0.33415251  0.58404283  1
  P  P7  1  0.37529718  0.04426230  0.58289965  1
  P  P8  1  0.66258123  0.62189436  0.58427254  1
  P  P9  1  0.96004715  0.62613870  0.08343436  1
  P  P10  1  0.66261876  0.04065211  0.08369331  1
  P  P11  1  0.37449432  0.32992392  0.08330008  1
  P  P12  1  0.62737481  0.67192046  0.91758396  1
  P  P13  1  0.04427573  0.37296320  0.91797054  1
  P  P14  1  0.32831245  0.95664476  0.91813608  1
  P  P15  1  0.62765647  0.95714073  0.41700780  1
  P  P16  1  0.32965938  0.37270806  0.41609967  1
  P  P17  1  0.04235478  0.66957954  0.41728153  1
  O  O0  1  0.20877856  0.04124186  0.30556185  1
  O  O1  1  0.83422488  0.79436979  0.30380632  1
  O  O2  1  0.96040597  0.16571349  0.30382554  1
  O  O3  1  0.20830786  0.17368537  0.80760852  1
  O  O4  1  0.96169062  0.79562759  0.80436748  1
  O  O5  1  0.83214389  0.03972361  0.80482409  1
  O  O6  1  0.78317459  0.95895786  0.69087556  1
  O  O7  1  0.17085441  0.21313849  0.69426047  1
  O  O8  1  0.03408075  0.81928613  0.68979991  1
  O  O9  1  0.78485472  0.82353562  0.19003320  1
  O  O10  1  0.03829252  0.21548657  0.19004801  1
  O  O11  1  0.17184102  0.95739211  0.19303955  1
  O  O12  1  0.88334181  0.37175678  0.64326642  1
  O  O13  1  0.49390272  0.12050362  0.63972996  1
  O  O14  1  0.63477872  0.51661382  0.64420265  1
  O  O15  1  0.88373385  0.51205224  0.14255408  1
  O  O16  1  0.63379598  0.11719831  0.14352030  1
  O  O17  1  0.48854539  0.36944897  0.14207599  1
  O  O18  1  0.47131110  0.30637631  0.02821150  1
  O  O19  1  0.83368938  0.53173839  0.02890886  1
  O  O20  1  0.69541825  0.16732967  0.02933706  1
  O  O21  1  0.46847555  0.16296231  0.52703188  1
  O  O22  1  0.69532997  0.52855933  0.52989322  1
  O  O23  1  0.83339733  0.30151523  0.52945245  1
  O  O24  1  0.54458840  0.69682567  0.97625433  1
  O  O25  1  0.15308256  0.45541534  0.97639937  1
  O  O26  1  0.29887938  0.84403290  0.97464501  1
  O  O27  1  0.54252588  0.84608893  0.47482597  1
  O  O28  1  0.30029536  0.45937044  0.47166728  1
  O  O29  1  0.15468644  0.69726857  0.47481862  1
  O  O30  1  0.11762438  0.63316006  0.35790852  1
  O  O31  1  0.51592119  0.88158601  0.35781042  1
  O  O32  1  0.36738688  0.48231844  0.35602917  1
  O  O33  1  0.13289921  0.49272638  0.86054799  1
  O  O34  1  0.35959663  0.86487341  0.86142173  1
  O  O35  1  0.50827162  0.64159041  0.86028998  1
  O  O36  1  0.02267787  0.83460920  0.41167299  1
  O  O37  1  0.81234036  0.97694286  0.41145925  1
  O  O38  1  0.16530357  0.18762798  0.41101270  1
  O  O39  1  0.02248452  0.18868397  0.91106881  1
  O  O40  1  0.16583574  0.97684215  0.91016434  1
  O  O41  1  0.81154526  0.83467252  0.91056316  1
  O  O42  1  0.96847623  0.16107545  0.58870775  1
  O  O43  1  0.18774449  0.02192063  0.58760650  1
  O  O44  1  0.83415479  0.80926769  0.58753306  1
  O  O45  1  0.96862176  0.80772992  0.08795797  1
  O  O46  1  0.83414288  0.02524501  0.08714225  1
  O  O47  1  0.18660428  0.16516589  0.08747434  1
  O  O48  1  0.69396917  0.17077553  0.74369327  1
  O  O49  1  0.48167202  0.31635306  0.74465266  1
  O  O50  1  0.83519762  0.52147738  0.74510888  1
  O  O51  1  0.68920636  0.52083928  0.24379290  1
  O  O52  1  0.83173605  0.31134820  0.24418206  1
  O  O53  1  0.47862022  0.16821896  0.24404133  1
  O  O54  1  0.63964927  0.49861393  0.92293405  1
  O  O55  1  0.85886190  0.36072605  0.92357124  1
  O  O56  1  0.50179060  0.14052882  0.92284671  1
  O  O57  1  0.64354963  0.14395792  0.42381062  1
  O  O58  1  0.50090663  0.35795574  0.42393231  1
  O  O59  1  0.85593150  0.49872864  0.42455365  1
  O  O60  1  0.35543571  0.49869572  0.07754335  1
  O  O61  1  0.14289702  0.63876202  0.07697839  1
  O  O62  1  0.50076928  0.85122028  0.07751637  1
  O  O63  1  0.35453591  0.85587370  0.57700659  1
  O  O64  1  0.50081377  0.64944994  0.57779872  1
  O  O65  1  0.14272160  0.50397449  0.57721993  1
  O  O66  1  0.31203179  0.83293925  0.25641545  1
  O  O67  1  0.52188695  0.68924317  0.25546925  1
  O  O68  1  0.16706260  0.47853374  0.25554659  1
  O  O69  1  0.31215555  0.47773098  0.75760344  1
  O  O70  1  0.16567490  0.68590010  0.75741694  1
  O  O71  1  0.52494791  0.83096309  0.75777097  1
loop_
_geom_bond_atom_site_label_1
_geom_bond_atom_site_label_2
_geom_bond_distance
_geom_bond_site_symmetry_2
Na0 O67 2.374588 1_555
Na0 O52 2.389525 1_565
Na0 O66 2.427294 1_555
Na0 O53 2.449037 1_565
Na0 O31 2.519483 1_555
Na0 O16 2.610202 1_565
Na0 O2 2.711798 1_565
Na0 O9 2.835324 1_555
Na1 O68 2.376876 1_555
Na1 O53 2.387587 1_555
Na1 O67 2.435987 1_555
Na1 O51 2.450699 1_555
Na1 O32 2.463884 1_555
Na1 O17 2.665244 1_555
Na1 O0 2.708040 1_555
Na1 O10 2.842980 1_555
Na2 O66 2.381565 1_555
Na2 O51 2.388391 1_455
Na2 O68 2.435540 1_555
Na2 O52 2.448693 1_455
Na2 O30 2.520534 1_555
Na2 O15 2.643315 1_455
Na2 O1 2.703044 1_455
Na2 O11 2.770496 1_555
Na3 O50 2.360054 1_555
Na3 O71 2.386811 1_555
Na3 O49 2.392529 1_555
Na3 O69 2.470760 1_555
Na3 O14 2.500645 1_555
Na3 O35 2.718412 1_555
Na3 O4 2.733466 1_555
Na3 O6 2.769777 1_555
Na4 O48 2.335047 1_555
Na4 O69 2.396173 1_655
Na4 O50 2.438479 1_555
Na4 O70 2.445509 1_655
Na4 O12 2.545405 1_555
Na4 O7 2.705987 1_655
Na4 O33 2.710273 1_655
Na4 O5 2.731860 1_555
Na5 O65 2.351101 1_555
Na5 O44 2.351842 1_455
Na5 O43 2.429399 1_565
Na5 O63 2.435601 1_555
Na5 O29 2.577415 1_555
Na5 O8 2.592898 1_555
Na5 O22 2.784973 1_455
Na5 O12 2.832104 1_455
Na6 O42 2.334482 1_565
Na6 O63 2.371574 1_555
Na6 O64 2.389887 1_555
Na6 O44 2.470460 1_555
Na6 O27 2.560857 1_555
Na6 O6 2.637344 1_555
Na6 O13 2.770964 1_565
Na6 O23 2.774758 1_565
Na7 O45 2.333346 1_555
Na7 O60 2.368133 1_555
Na7 O62 2.383899 1_555
Na7 O46 2.464616 1_565
Na7 O24 2.530358 1_554
Na7 O9 2.613984 1_555
Na7 O19 2.792787 1_555
Na7 O17 2.823652 1_555
Na8 O46 2.348825 1_455
Na8 O61 2.352281 1_555
Na8 O47 2.420614 1_555
Na8 O60 2.437502 1_555
Na8 O25 2.542950 1_554
Na8 O10 2.594754 1_555
Na8 O20 2.796186 1_455
Na8 O15 2.828657 1_455
Na9 O38 2.356080 1_555
Na9 O36 2.443585 1_545
Na9 O37 2.445392 1_445
Na9 O43 2.516611 1_555
Na9 O42 2.544676 1_455
Na9 O44 2.611804 1_445
Na10 O40 2.365059 1_555
Na10 O39 2.438478 1_565
Na10 O41 2.447125 1_455
Na10 O47 2.528815 1_566
Na10 O45 2.545464 1_456
Na10 O46 2.619850 1_466
Na11 O49 2.453320 1_555
Na11 O56 2.458066 1_555
Na11 O48 2.479614 1_555
Na11 O50 2.546704 1_555
Na11 O54 2.548993 1_555
Na11 O55 2.567198 1_555
Na12 O57 2.438480 1_555
Na12 O58 2.442035 1_555
Na12 O59 2.450492 1_555
Na12 O52 2.581575 1_555
Na12 O51 2.587533 1_555
Na12 O53 2.589333 1_555
Na13 O62 2.434947 1_555
Na13 O61 2.456673 1_555
Na13 O66 2.475764 1_555
Na13 O60 2.546351 1_555
Na13 O68 2.550276 1_555
Na13 O67 2.551398 1_555
Na14 O64 2.427530 1_555
Na14 O65 2.448234 1_555
Na14 O63 2.465941 1_555
Na14 O69 2.583568 1_555
Na14 O70 2.584046 1_555
Na14 O71 2.600407 1_555
Ga0 O38 1.973936 1_555
Ga0 O36 1.978219 1_545
Ga0 O37 1.980346 1_445
Ga0 O0 1.990062 1_555
Ga0 O1 1.998204 1_445
Ga0 O2 1.999930 1_455
Ga1 O3 1.942342 1_555
Ga1 O4 1.961797 1_445
Ga1 O5 1.973924 1_455
Ga1 O40 1.998273 1_545
Ga1 O39 2.010442 1_555
Ga1 O41 2.013874 1_445
Ga2 O7 1.918583 1_555
Ga2 O8 1.986067 1_545
Ga2 O43 2.010017 1_555
Ga2 O6 2.018962 1_445
Ga2 O42 2.021453 1_455
Ga2 O44 2.116237 1_445
Ga3 O11 1.912024 1_555
Ga3 O9 1.980819 1_455
Ga3 O10 1.984134 1_565
Ga3 O47 2.027666 1_565
Ga3 O45 2.033406 1_455
Ga3 O46 2.124579 1_465
Ga4 O13 1.897516 1_555
Ga4 O14 1.959299 1_555
Ga4 O12 1.990603 1_555
Ga4 O49 2.026253 1_555
Ga4 O48 2.038685 1_555
Ga4 O50 2.128375 1_555
Ga5 O16 1.936170 1_555
Ga5 O17 1.939908 1_555
Ga5 O15 1.957060 1_555
Ga5 O53 2.058034 1_555
Ga5 O52 2.065609 1_555
Ga5 O51 2.072588 1_555
Ga6 O26 1.884651 1_554
Ga6 O24 1.952580 1_554
Ga6 O25 1.954819 1_554
Ga6 O62 2.035416 1_555
Ga6 O61 2.037363 1_555
Ga6 O60 2.121625 1_555
Ga7 O28 1.879422 1_555
Ga7 O29 1.953068 1_555
Ga7 O27 1.953156 1_555
Ga7 O65 2.041793 1_555
Ga7 O64 2.044019 1_555
Ga7 O63 2.121356 1_555
Ga8 O30 1.921815 1_555
Ga8 O31 1.922387 1_555
Ga8 O32 1.923854 1_555
Ga8 O66 2.115079 1_555
Ga8 O68 2.129375 1_555
Ga8 O67 2.131251 1_555
O0 P0 1.531768 1_545
O1 P1 1.531119 1_555
O2 P2 1.530075 1_655
O3 P3 1.520688 1_555
O4 P4 1.530235 1_655
O5 P5 1.533544 1_555
O6 P5 1.563003 1_565
O7 P3 1.549319 1_555
O8 P4 1.547430 1_555
O9 P1 1.567077 1_555
O10 P2 1.567421 1_555
O11 P0 1.553241 1_555
O12 P6 1.565988 1_555
O13 P7 1.543869 1_555
O14 P8 1.551596 1_555
O15 P9 1.565738 1_555
O16 P10 1.549986 1_555
O17 P11 1.559634 1_555
O18 P11 1.545911 1_555
O18 Ti0 1.953517 1_554
O19 P9 1.555820 1_555
O19 Ti0 1.979305 1_554
O20 P10 1.551441 1_555
O20 Ti0 1.973637 1_554
O21 P7 1.546318 1_555
O21 Ti1 1.935126 1_555
O22 P8 1.549963 1_555
O22 Ti1 1.970813 1_555
O23 P6 1.552738 1_555
O23 Ti1 1.991118 1_555
O24 P12 1.543807 1_555
O25 P13 1.543810 1_555
O26 P14 1.521323 1_555
O27 P15 1.541956 1_555
O28 P16 1.522886 1_555
O29 P17 1.542365 1_555
O30 P17 1.561612 1_555
O31 P15 1.559931 1_555
O32 P16 1.563214 1_555
O33 P13 1.570419 1_555
O33 Ti2 1.938293 1_555
O34 P14 1.576150 1_555
O34 Ti2 1.853398 1_555
O35 P12 1.567853 1_555
O35 Ti2 1.941037 1_555
O36 P17 1.536378 1_555
O37 P15 1.535828 1_555
O38 P16 1.535240 1_555
O39 P13 1.527922 1_555
O40 P14 1.522402 1_555
O41 P12 1.528284 1_555
O42 P6 1.553881 1_555
O43 P7 1.550298 1_555
O44 P8 1.570731 1_555
O45 P9 1.550130 1_555
O46 P10 1.568702 1_555
O47 P11 1.549519 1_555
O48 P5 1.550039 1_555
O49 P3 1.553273 1_555
O50 P4 1.569262 1_655
O51 P1 1.570001 1_555
O52 P2 1.569821 1_655
O53 P0 1.568870 1_545
O54 P12 1.571228 1_555
O54 Ti0 1.954330 1_555
O55 P13 1.570566 1_655
O55 Ti0 1.958836 1_555
O56 P14 1.563110 1_545
O56 Ti0 1.967760 1_555
O57 P15 1.571015 1_545
O57 Ti1 1.950514 1_555
O58 P16 1.570755 1_555
O58 Ti1 1.939523 1_555
O59 P17 1.569544 1_655
O59 Ti1 1.955244 1_555
O60 P11 1.565890 1_555
O61 P9 1.548416 1_455
O62 P10 1.551262 1_565
O63 P7 1.565004 1_565
O64 P8 1.551066 1_555
O65 P6 1.550461 1_455
O66 P0 1.566065 1_555
O67 P1 1.564841 1_555
O68 P2 1.565523 1_555
O69 P3 1.590416 1_555
O69 Ti2 2.072407 1_555
O70 P4 1.576072 1_555
O70 Ti2 1.992770 1_555
O71 P5 1.573097 1_565
O71 Ti2 1.997578 1_555
