# generated using pymatgen
data_LiGaBr3
_symmetry_space_group_name_H-M   'P 1'
_cell_length_a   6.59037572
_cell_length_b   7.98662599
_cell_length_c   10.43678705
_cell_angle_alpha   90.00000000
_cell_angle_beta   90.00000000
_cell_angle_gamma   93.48762418
_symmetry_Int_Tables_number   1
_chemical_formula_structural   LiGaBr3
_chemical_formula_sum   'Li4 Ga4 Br12'
_cell_volume   548.32149083
_cell_formula_units_Z   4
loop_
 _symmetry_equiv_pos_site_id
 _symmetry_equiv_pos_as_xyz
  1  'x, y, z'
loop_
 _atom_site_type_symbol
 _atom_site_label
 _atom_site_symmetry_multiplicity
 _atom_site_fract_x
 _atom_site_fract_y
 _atom_site_fract_z
 _atom_site_occupancy
  Li  Li0  1  0.00000000  0.50000000  0.50000000  1
  Li  Li1  1  0.50000000  0.00000000  0.50000000  1
  Li  Li2  1  0.00000000  0.50000000  -0.00000000  1
  Li  Li3  1  0.50000000  0.00000000  -0.00000000  1
  Ga  Ga0  1  0.97260720  0.96077664  0.25000000  1
  Ga  Ga1  1  0.13456369  0.75711952  0.75000000  1
  Ga  Ga2  1  0.02739280  0.03922336  0.75000000  1
  Ga  Ga3  1  0.86543631  0.24288048  0.25000000  1
  Br  Br0  1  0.33664174  0.68506788  0.56903840  1
  Br  Br1  1  0.66335826  0.31493212  0.43096160  1
  Br  Br2  1  0.33664174  0.68506788  0.93096160  1
  Br  Br3  1  0.66711829  0.06796484  0.75000000  1
  Br  Br4  1  0.82726689  0.80958143  0.06860697  1
  Br  Br5  1  0.17273311  0.19041857  0.56860697  1
  Br  Br6  1  0.17273311  0.19041857  0.93139303  1
  Br  Br7  1  0.82726689  0.80958143  0.43139303  1
  Br  Br8  1  0.66335826  0.31493212  0.06903840  1
  Br  Br9  1  0.86746370  0.53924998  0.75000000  1
  Br  Br10  1  0.13253630  0.46075002  0.25000000  1
  Br  Br11  1  0.33288171  0.93203516  0.25000000  1
loop_
_geom_bond_atom_site_label_1
_geom_bond_atom_site_label_2
_geom_bond_distance
_geom_bond_site_symmetry_2
Br0 Ga1 2.401046 1_555
Br0 Li0 2.688319 1_555
Br0 Li1 2.770420 1_565
Br1 Ga3 2.401046 1_555
Br1 Li0 2.688319 1_655
Br1 Li1 2.770420 1_555
Br2 Ga1 2.401046 1_555
Br2 Li2 2.688319 1_556
Br2 Li3 2.770420 1_566
Br3 Ga2 2.399274 1_655
Br3 Li3 2.871034 1_556
Br3 Li1 2.871034 1_555
Br4 Ga0 2.412251 1_555
Br4 Li3 2.806503 1_565
Br4 Li2 2.874781 1_655
Br5 Ga2 2.412251 1_555
Br5 Li1 2.806503 1_555
Br5 Li0 2.874781 1_555
Br6 Ga2 2.412251 1_555
Br6 Li3 2.806503 1_556
Br6 Li2 2.874781 1_556
Br7 Ga0 2.412251 1_555
Br7 Li1 2.806503 1_565
Br7 Li0 2.874781 1_655
Br8 Ga3 2.401046 1_555
Br8 Li2 2.688319 1_655
Br8 Li3 2.770420 1_555
Br9 Ga1 2.398688 1_655
Br9 Li2 2.775325 1_656
Br9 Li0 2.775325 1_655
Br10 Ga3 2.398688 1_455
Br10 Li2 2.775325 1_555
Br10 Li0 2.775325 1_555
Br11 Ga0 2.399274 1_455
Br11 Li1 2.871034 1_565
Br11 Li3 2.871034 1_565
