# generated using pymatgen
data_La4MgNiO8
_symmetry_space_group_name_H-M   'P 1'
_cell_length_a   5.53633500
_cell_length_b   6.85069384
_cell_length_c   6.85069274
_cell_angle_alpha   47.70501253
_cell_angle_beta   90.00000000
_cell_angle_gamma   90.00000000
_symmetry_Int_Tables_number   1
_chemical_formula_structural   La4MgNiO8
_chemical_formula_sum   'La4 Mg1 Ni1 O8'
_cell_volume   192.19458198
_cell_formula_units_Z   1
loop_
 _symmetry_equiv_pos_site_id
 _symmetry_equiv_pos_as_xyz
  1  'x, y, z'
loop_
 _atom_site_type_symbol
 _atom_site_label
 _atom_site_symmetry_multiplicity
 _atom_site_fract_x
 _atom_site_fract_y
 _atom_site_fract_z
 _atom_site_occupancy
  La  La0  1  0.00000000  0.13671500  0.13671500  1
  La  La1  1  0.00000000  0.86328500  0.86328500  1
  La  La2  1  0.50000000  0.36328500  0.36328500  1
  La  La3  1  0.50000000  0.63671500  0.63671500  1
  Mg  Mg0  1  0.00000000  0.50000000  0.50000000  1
  Ni  Ni0  1  0.50000000  0.00000000  0.00000000  1
  O  O0  1  0.00000000  0.32125800  0.32125800  1
  O  O1  1  0.00000000  0.67874200  0.67874200  1
  O  O2  1  0.24902000  0.25140900  0.74859100  1
  O  O3  1  0.24902000  0.74859100  0.25140900  1
  O  O4  1  0.50000000  0.82111300  0.82111300  1
  O  O5  1  0.50000000  0.17888700  0.17888700  1
  O  O6  1  0.75098000  0.74859100  0.25140900  1
  O  O7  1  0.75098000  0.25140900  0.74859100  1
loop_
_geom_bond_atom_site_label_1
_geom_bond_atom_site_label_2
_geom_bond_distance
_geom_bond_site_symmetry_2
La0 O0 2.312535 1_555
La0 O2 2.603090 1_554
La0 O7 2.603090 1_454
La0 O6 2.603090 1_445
La0 O3 2.603090 1_545
La0 O5 2.818160 1_455
La0 O5 2.818160 1_555
La0 O1 2.819922 1_545
La0 O1 2.819923 1_554
La1 O1 2.312535 1_555
La1 O6 2.603090 1_456
La1 O3 2.603090 1_556
La1 O2 2.603090 1_565
La1 O7 2.603090 1_465
La1 O4 2.818160 1_555
La1 O4 2.818160 1_455
La1 O0 2.819922 1_565
La1 O0 2.819923 1_556
La2 O5 2.310718 1_555
La2 O2 2.600550 1_555
La2 O7 2.600550 1_555
La2 O6 2.600550 1_555
La2 O3 2.600550 1_555
La2 O0 2.817820 1_655
La2 O0 2.817820 1_555
La2 O4 2.820262 1_554
La2 O4 2.820263 1_545
La3 O4 2.310718 1_555
La3 O6 2.600550 1_555
La3 O3 2.600550 1_555
La3 O2 2.600550 1_555
La3 O7 2.600550 1_555
La3 O1 2.817820 1_555
La3 O1 2.817820 1_655
La3 O5 2.820262 1_556
La3 O5 2.820263 1_565
Mg0 O2 1.948790 1_555
Mg0 O6 1.948790 1_455
Mg0 O3 1.948790 1_555
Mg0 O7 1.948790 1_455
Mg0 O1 2.239842 1_555
Mg0 O0 2.239842 1_555
Ni0 O7 1.967505 1_554
Ni0 O6 1.967505 1_545
Ni0 O2 1.967505 1_554
Ni0 O3 1.967505 1_545
Ni0 O5 2.241659 1_555
Ni0 O4 2.241659 1_544
