# generated using pymatgen
data_MgAg2(GeO3)2
_symmetry_space_group_name_H-M   'P 1'
_cell_length_a   5.88537300
_cell_length_b   8.53157100
_cell_length_c   2.89229900
_cell_angle_alpha   90.00000000
_cell_angle_beta   90.00000000
_cell_angle_gamma   90.00000000
_symmetry_Int_Tables_number   1
_chemical_formula_structural   MgAg2(GeO3)2
_chemical_formula_sum   'Mg1 Ag2 Ge2 O6'
_cell_volume   145.22660648
_cell_formula_units_Z   1
loop_
 _symmetry_equiv_pos_site_id
 _symmetry_equiv_pos_as_xyz
  1  'x, y, z'
loop_
 _atom_site_type_symbol
 _atom_site_label
 _atom_site_symmetry_multiplicity
 _atom_site_fract_x
 _atom_site_fract_y
 _atom_site_fract_z
 _atom_site_occupancy
  Mg  Mg0  1  0.46007600  0.50000000  0.50000000  1
  Ag  Ag0  1  0.00068300  0.00000000  0.50000000  1
  Ag  Ag1  1  0.96847200  0.50000000  0.50000000  1
  Ge  Ge0  1  0.48785700  0.19054900  0.00000000  1
  Ge  Ge1  1  0.48785700  0.80945100  0.00000000  1
  O  O0  1  0.30797900  0.29049500  0.50000000  1
  O  O1  1  0.30797900  0.70950500  0.50000000  1
  O  O2  1  0.33983800  0.00000000  0.00000000  1
  O  O3  1  0.66095400  0.50000000  0.00000000  1
  O  O4  1  0.68915200  0.17141400  0.50000000  1
  O  O5  1  0.68915200  0.82858600  0.50000000  1
loop_
_geom_bond_atom_site_label_1
_geom_bond_atom_site_label_2
_geom_bond_distance
_geom_bond_site_symmetry_2
Mg0 O3 1.867898 1_555
Mg0 O3 1.867898 1_556
Mg0 O1 1.999028 1_555
Mg0 O0 1.999028 1_555
Ag0 O4 2.345280 1_455
Ag0 O5 2.345280 1_445
Ag0 O2 2.464869 1_555
Ag0 O2 2.464869 1_556
Ag1 O3 2.316665 1_555
Ag1 O3 2.316665 1_556
Ag1 O1 2.680919 1_655
Ag1 O0 2.680919 1_655
Ge0 O2 1.844381 1_555
Ge0 O4 1.876567 1_555
Ge0 O4 1.876567 1_554
Ge0 O0 1.984736 1_555
Ge0 O0 1.984736 1_554
Ge1 O2 1.844381 1_565
Ge1 O5 1.876567 1_555
Ge1 O5 1.876567 1_554
Ge1 O1 1.984736 1_555
Ge1 O1 1.984736 1_554
