# generated using pymatgen
data_Na2Ca4Ti4SiS11O48
_symmetry_space_group_name_H-M   'P 1'
_cell_length_a   17.83467961
_cell_length_b   8.90136826
_cell_length_c   23.21803028
_cell_angle_alpha   89.94970075
_cell_angle_beta   90.05289122
_cell_angle_gamma   119.98413851
_symmetry_Int_Tables_number   1
_chemical_formula_structural   Na2Ca4Ti4SiS11O48
_chemical_formula_sum   'Na6 Ca12 Ti12 Si3 S33 O144'
_cell_volume   3192.62008582
_cell_formula_units_Z   3
loop_
 _symmetry_equiv_pos_site_id
 _symmetry_equiv_pos_as_xyz
  1  'x, y, z'
loop_
 _atom_site_type_symbol
 _atom_site_label
 _atom_site_symmetry_multiplicity
 _atom_site_fract_x
 _atom_site_fract_y
 _atom_site_fract_z
 _atom_site_occupancy
  Na  Na0  1  0.99764837  0.98691523  0.49648405  1
  Na  Na1  1  0.49747337  0.99192760  0.00120351  1
  Na  Na2  1  0.33661272  0.33223096  0.83819695  1
  Na  Na3  1  0.83633477  0.33704821  0.83202815  1
  Na  Na4  1  0.33825662  0.33299773  0.32950482  1
  Na  Na5  1  0.83994606  0.34003119  0.33865321  1
  Ca  Ca0  1  0.00399598  0.99652977  0.35837636  1
  Ca  Ca1  1  0.00192019  0.00283219  0.86337472  1
  Ca  Ca2  1  0.33325616  0.33675867  0.68370604  1
  Ca  Ca3  1  0.83524806  0.33151618  0.68278791  1
  Ca  Ca4  1  0.33939590  0.33756204  0.18348674  1
  Ca  Ca5  1  0.83111156  0.32759699  0.18147113  1
  Ca  Ca6  1  0.33929236  0.33566822  0.98417618  1
  Ca  Ca7  1  0.83116657  0.33075900  0.98548103  1
  Ca  Ca8  1  0.33593795  0.33562010  0.48191191  1
  Ca  Ca9  1  0.83435956  0.33633892  0.48021445  1
  Ca  Ca10  1  0.66254992  0.66009254  0.51950951  1
  Ca  Ca11  1  0.16470201  0.66295260  0.80371295  1
  Ti  Ti0  1  0.49616527  0.00634677  0.35474110  1
  Ti  Ti1  1  0.49968888  0.00826552  0.85648146  1
  Ti  Ti2  1  0.99759375  0.99415470  0.65159711  1
  Ti  Ti3  1  0.49825187  0.99740343  0.64428089  1
  Ti  Ti4  1  0.99957638  0.00232173  0.14904608  1
  Ti  Ti5  1  0.49911240  0.01017135  0.15614245  1
  Ti  Ti6  1  0.16455804  0.66859169  0.01881836  1
  Ti  Ti7  1  0.65836155  0.64481396  0.01705347  1
  Ti  Ti8  1  0.16094886  0.66497965  0.51959852  1
  Ti  Ti9  1  0.15762103  0.66432552  0.31247864  1
  Ti  Ti10  1  0.66560094  0.66334679  0.30888803  1
  Ti  Ti11  1  0.66173561  0.65760185  0.81103154  1
  Si  Si0  1  0.50157090  0.29282974  0.25534102  1
  Si  Si1  1  0.52319231  0.37794477  0.91203735  1
  Si  Si2  1  0.02201747  0.66507847  0.41762043  1
  S  S0  1  0.14328994  0.98999305  0.24922265  1
  S  S1  1  0.63787000  0.99142995  0.25404376  1
  S  S2  1  0.35664423  0.72378452  0.25381656  1
  S  S3  1  0.85212648  0.71501795  0.24998442  1
  S  S4  1  0.00558830  0.29672623  0.25058113  1
  S  S5  1  0.14175697  0.27958675  0.74830628  1
  S  S6  1  0.63916431  0.28592190  0.75360223  1
  S  S7  1  0.99793566  0.71387419  0.74944094  1
  S  S8  1  0.50517688  0.72630407  0.75461951  1
  S  S9  1  0.36613490  0.00532068  0.75088642  1
  S  S10  1  0.85157073  0.98873989  0.75214024  1
  S  S11  1  0.48267675  0.32154636  0.58671393  1
  S  S12  1  0.98999614  0.32925967  0.58315705  1
  S  S13  1  0.17724068  0.02353286  0.58332157  1
  S  S14  1  0.67698183  0.03191819  0.58642196  1
  S  S15  1  0.33273166  0.64296446  0.58334425  1
  S  S16  1  0.84015683  0.64895227  0.58654855  1
  S  S17  1  0.49249259  0.65389002  0.08253843  1
  S  S18  1  0.98948096  0.64891350  0.08368141  1
  S  S19  1  0.33463626  0.01636590  0.08339826  1
  S  S20  1  0.83253775  0.01626887  0.08350379  1
  S  S21  1  0.17650926  0.33341790  0.08393979  1
  S  S22  1  0.67394980  0.32787917  0.08302473  1
  S  S23  1  0.31451562  0.67660934  0.91575757  1
  S  S24  1  0.80027060  0.66205625  0.91557030  1
  S  S25  1  0.02399363  0.38692436  0.91921786  1
  S  S26  1  0.16785982  0.94959102  0.91900385  1
  S  S27  1  0.66271508  0.94260235  0.91252070  1
  S  S28  1  0.30855599  0.94340187  0.41218385  1
  S  S29  1  0.80622242  0.95094777  0.41239306  1
  S  S30  1  0.17008970  0.39892606  0.41624409  1
  S  S31  1  0.66181246  0.36992643  0.40958952  1
  S  S32  1  0.52274367  0.67445449  0.40810847  1
  O  O0  1  0.10758859  0.01781838  0.30149334  1
  O  O1  1  0.59284887  0.01024783  0.30429085  1
  O  O2  1  0.41260246  0.81015373  0.30455890  1
  O  O3  1  0.90392884  0.78693178  0.30143866  1
  O  O4  1  0.49270196  0.16026767  0.30790350  1
  O  O5  1  0.99210192  0.19453135  0.30210877  1
  O  O6  1  0.10237096  0.18592763  0.80163876  1
  O  O7  1  0.59279756  0.17511063  0.80519877  1
  O  O8  1  0.49627379  0.81817063  0.80568085  1
  O  O9  1  0.99083927  0.79559283  0.80209469  1
  O  O10  1  0.41712943  0.01366793  0.80497652  1
  O  O11  1  0.90462155  0.01694695  0.80333803  1
  O  O12  1  0.41386730  0.99584671  0.69975921  1
  O  O13  1  0.89620562  0.97338759  0.69864775  1
  O  O14  1  0.08657127  0.17230548  0.69694879  1
  O  O15  1  0.58906756  0.20775027  0.70071296  1
  O  O16  1  0.99678062  0.81842260  0.69696080  1
  O  O17  1  0.51590143  0.82683632  0.70120712  1
  O  O18  1  0.40239094  0.83047464  0.20024966  1
  O  O19  1  0.89852223  0.82750596  0.19796137  1
  O  O20  1  0.01450568  0.20362726  0.19844207  1
  O  O21  1  0.51291198  0.18984341  0.19702524  1
  O  O22  1  0.08579392  0.96816874  0.19808629  1
  O  O23  1  0.58538803  0.96932936  0.19989859  1
  O  O24  1  0.44168023  0.34857112  0.63680393  1
  O  O25  1  0.95654029  0.37117156  0.63396866  1
  O  O26  1  0.23141043  0.09459762  0.63432753  1
  O  O27  1  0.73071433  0.11360960  0.63670826  1
  O  O28  1  0.31253472  0.53230023  0.63394061  1
  O  O29  1  0.82914906  0.54332467  0.63727449  1
  O  O30  1  0.45889502  0.54146540  0.13302506  1
  O  O31  1  0.95504510  0.53373354  0.13328726  1
  O  O32  1  0.31444970  0.08835570  0.13329301  1
  O  O33  1  0.81037395  0.08540182  0.13381183  1
  O  O34  1  0.23353177  0.38072293  0.13404062  1
  O  O35  1  0.72836029  0.36388223  0.13366959  1
  O  O36  1  0.20925985  0.28461749  0.03407320  1
  O  O37  1  0.70916857  0.29015813  0.03165003  1
  O  O38  1  0.43615508  0.58337616  0.03205842  1
  O  O39  1  0.93292743  0.58132301  0.03332267  1
  O  O40  1  0.35883497  0.12868310  0.03245686  1
  O  O41  1  0.85774444  0.13445192  0.03413716  1
  O  O42  1  0.21295919  0.13517067  0.53238127  1
  O  O43  1  0.70961334  0.13990439  0.53472783  1
  O  O44  1  0.35647498  0.57600979  0.53340379  1
  O  O45  1  0.86148487  0.58270837  0.53459771  1
  O  O46  1  0.42927714  0.28140426  0.53455665  1
  O  O47  1  0.93409351  0.28844225  0.53248205  1
  O  O48  1  0.27291322  0.69816396  0.96851578  1
  O  O49  1  0.75408495  0.67220346  0.96858406  1
  O  O50  1  0.07926470  0.49403039  0.97098423  1
  O  O51  1  0.58118971  0.47375846  0.97131384  1
  O  O52  1  0.16869067  0.84310232  0.97153079  1
  O  O53  1  0.65246194  0.84088196  0.96571662  1
  O  O54  1  0.27095679  0.84647303  0.46594720  1
  O  O55  1  0.76718109  0.85900980  0.46588042  1
  O  O56  1  0.17158940  0.49534556  0.46929196  1
  O  O57  1  0.64561918  0.43108805  0.46342991  1
  O  O58  1  0.08414154  0.66358948  0.47275639  1
  O  O59  1  0.56733729  0.70158381  0.46252385  1
  O  O60  1  0.07960099  0.66193849  0.35787412  1
  O  O61  1  0.57337052  0.65638926  0.35911975  1
  O  O62  1  0.25511334  0.85288332  0.36044706  1
  O  O63  1  0.75406453  0.84456721  0.36049777  1
  O  O64  1  0.17419761  0.49716433  0.36209163  1
  O  O65  1  0.67099489  0.48677222  0.36034713  1
  O  O66  1  0.06336112  0.48067246  0.86613042  1
  O  O67  1  0.57994781  0.50308097  0.85722323  1
  O  O68  1  0.17653481  0.87075153  0.86631807  1
  O  O69  1  0.67246635  0.85697582  0.86028041  1
  O  O70  1  0.26623683  0.65856619  0.86327096  1
  O  O71  1  0.75104393  0.65682530  0.86228792  1
  O  O72  1  0.02516174  0.84552049  0.42436530  1
  O  O73  1  0.51273825  0.82878908  0.39655206  1
  O  O74  1  0.39594463  0.95659717  0.40469679  1
  O  O75  1  0.89409805  0.97702631  0.40942867  1
  O  O76  1  0.08935408  0.23271138  0.41736347  1
  O  O77  1  0.58386813  0.19093115  0.40009927  1
  O  O78  1  0.02186765  0.22162554  0.92338157  1
  O  O79  1  0.52097071  0.18821238  0.90472339  1
  O  O80  1  0.08571435  0.94723066  0.92316130  1
  O  O81  1  0.58166721  0.95522264  0.90726014  1
  O  O82  1  0.40406253  0.84335642  0.91128701  1
  O  O83  1  0.88452765  0.81843053  0.91553959  1
  O  O84  1  0.49062749  0.16026987  0.59883918  1
  O  O85  1  0.00254294  0.17672652  0.59487296  1
  O  O86  1  0.08758564  0.99361682  0.59397353  1
  O  O87  1  0.58808134  0.01621640  0.60047239  1
  O  O88  1  0.41136512  0.81876650  0.59856670  1
  O  O89  1  0.91987315  0.83078225  0.59662255  1
  O  O90  1  0.50669812  0.83115849  0.09407831  1
  O  O91  1  0.00256029  0.82559877  0.09839500  1
  O  O92  1  0.41070745  0.98804423  0.09611472  1
  O  O93  1  0.91065183  0.99662433  0.09946401  1
  O  O94  1  0.08766061  0.18166645  0.09988972  1
  O  O95  1  0.58486164  0.17500862  0.09304691  1
  O  O96  1  0.36156271  0.16421701  0.75061918  1
  O  O97  1  0.83668483  0.13603332  0.74532548  1
  O  O98  1  0.22829075  0.29852070  0.74351481  1
  O  O99  1  0.72511943  0.30441908  0.75304990  1
  O  O100  1  0.42872278  0.55293614  0.75228338  1
  O  O101  1  0.92201107  0.53863239  0.74587175  1
  O  O102  1  0.34836773  0.55290693  0.24827399  1
  O  O103  1  0.83582640  0.53811128  0.24032902  1
  O  O104  1  0.41836934  0.31151044  0.25274523  1
  O  O105  1  0.93333015  0.32883713  0.24153324  1
  O  O106  1  0.23027306  0.13755784  0.23987913  1
  O  O107  1  0.72369972  0.14483437  0.24906791  1
  O  O108  1  0.32900659  0.52938188  0.92228572  1
  O  O109  1  0.80392968  0.50103865  0.91705723  1
  O  O110  1  0.42999905  0.35630963  0.91281707  1
  O  O111  1  0.93720822  0.36745236  0.92469233  1
  O  O112  1  0.24283573  0.12403064  0.92513369  1
  O  O113  1  0.73881561  0.11679856  0.91582034  1
  O  O114  1  0.31971899  0.11821792  0.41417382  1
  O  O115  1  0.80661448  0.11673714  0.40922168  1
  O  O116  1  0.24771561  0.38105963  0.41610685  1
  O  O117  1  0.73898855  0.35212876  0.40978926  1
  O  O118  1  0.43631694  0.51653231  0.40801046  1
  O  O119  1  0.93246022  0.48810328  0.41302237  1
  O  O120  1  0.16171349  0.48115093  0.06865089  1
  O  O121  1  0.66391396  0.48438481  0.07198678  1
  O  O122  1  0.07849955  0.67662786  0.06980477  1
  O  O123  1  0.58033075  0.67408983  0.06807699  1
  O  O124  1  0.25921676  0.84070171  0.07008110  1
  O  O125  1  0.75999281  0.84179740  0.06851182  1
  O  O126  1  0.16774622  0.84822325  0.57050352  1
  O  O127  1  0.65857799  0.85498835  0.57940461  1
  O  O128  1  0.26109413  0.67612181  0.57031620  1
  O  O129  1  0.76768778  0.67821642  0.57917958  1
  O  O130  1  0.07977574  0.48026178  0.57041113  1
  O  O131  1  0.57009371  0.46321868  0.58006545  1
  O  O132  1  0.14851120  0.82628485  0.25450527  1
  O  O133  1  0.64469139  0.83195678  0.25966008  1
  O  O134  1  0.27320648  0.71732405  0.25894420  1
  O  O135  1  0.76683300  0.71048645  0.25539093  1
  O  O136  1  0.08907698  0.46889930  0.25576844  1
  O  O137  1  0.59176621  0.47933315  0.26501448  1
  O  O138  1  0.14409889  0.44482200  0.74388750  1
  O  O139  1  0.64667567  0.46100603  0.76078639  1
  O  O140  1  0.07906387  0.71321890  0.74446770  1
  O  O141  1  0.58563209  0.71350888  0.76205881  1
  O  O142  1  0.28268042  0.84745313  0.75191318  1
  O  O143  1  0.76601010  0.82414384  0.75787715  1
loop_
_geom_bond_atom_site_label_1
_geom_bond_atom_site_label_2
_geom_bond_distance
_geom_bond_site_symmetry_2
Na0 O72 2.291545 1_655
Na0 O76 2.694147 1_665
Na0 O89 2.708266 1_555
Na0 O75 2.708279 1_555
Na0 O86 2.756406 1_655
Na0 O85 2.817758 1_665
Na1 O82 2.584391 1_554
Na1 O90 2.637081 1_555
Na1 O95 2.663340 1_565
Na1 O92 2.684129 1_555
Na1 O79 2.740311 1_564
Na1 O81 2.759832 1_554
Na2 O110 2.336679 1_555
Na2 O108 2.674760 1_555
Na2 O112 2.684722 1_555
Na2 O96 2.691005 1_555
Na2 O100 2.703814 1_555
Na2 O98 2.840563 1_555
Na3 O99 2.607589 1_555
Na3 O101 2.610547 1_555
Na3 O109 2.685654 1_555
Na3 O113 2.691631 1_555
Na3 O97 2.696591 1_555
Na3 O111 2.728717 1_555
Na4 O104 2.352173 1_555
Na4 O118 2.488681 1_555
Na4 O114 2.644201 1_555
Na4 O102 2.657572 1_555
Na4 O116 2.744365 1_555
Na4 O106 2.777746 1_555
Na5 O119 2.294816 1_555
Na5 O115 2.409080 1_555
Na5 O117 2.486176 1_555
Na5 O107 2.835742 1_555
Na5 O105 2.835783 1_555
Na5 O103 2.906532 1_555
Ca0 O72 2.190720 1_555
Ca0 O0 2.201755 1_565
Ca0 O75 2.222736 1_455
Ca0 O3 2.255092 1_455
Ca0 O5 2.286313 1_465
Ca0 O76 2.327083 1_565
Ca1 O6 2.236646 1_555
Ca1 O9 2.259666 1_445
Ca1 O83 2.260721 1_445
Ca1 O80 2.267038 1_545
Ca1 O78 2.274203 1_555
Ca1 O11 2.276667 1_455
Ca2 O24 2.176376 1_555
Ca2 O98 2.217148 1_555
Ca2 O28 2.267139 1_555
Ca2 O26 2.312390 1_555
Ca2 O96 2.407637 1_555
Ca2 O100 2.421276 1_555
Ca3 O27 2.183617 1_555
Ca3 O29 2.210082 1_555
Ca3 O101 2.255608 1_555
Ca3 O97 2.275268 1_555
Ca3 O25 2.308564 1_555
Ca3 O99 2.471618 1_555
Ca4 O104 2.223732 1_555
Ca4 O106 2.282300 1_555
Ca4 O30 2.311630 1_555
Ca4 O32 2.343924 1_555
Ca4 O102 2.379230 1_555
Ca4 O34 2.398040 1_555
Ca5 O33 2.283745 1_555
Ca5 O103 2.287516 1_555
Ca5 O105 2.289868 1_555
Ca5 O35 2.298154 1_555
Ca5 O31 2.334762 1_555
Ca5 O107 2.380264 1_555
Ca6 O110 2.259017 1_555
Ca6 O112 2.269028 1_555
Ca6 O38 2.296853 1_556
Ca6 O108 2.320160 1_555
Ca6 O40 2.325986 1_556
Ca6 O36 2.424358 1_556
Ca7 O111 2.249917 1_555
Ca7 O37 2.287235 1_556
Ca7 O41 2.318997 1_556
Ca7 O39 2.335996 1_556
Ca7 O109 2.405724 1_555
Ca7 O113 2.412696 1_555
Ca8 O46 2.301361 1_555
Ca8 O44 2.315711 1_555
Ca8 O42 2.335975 1_555
Ca8 O116 2.367316 1_555
Ca8 O114 2.397313 1_555
Ca8 O118 2.421074 1_555
Ca9 O119 2.226831 1_555
Ca9 O47 2.360387 1_555
Ca9 O45 2.362426 1_555
Ca9 O43 2.392102 1_555
Ca9 O117 2.412453 1_555
Ca9 O115 2.412511 1_555
Ca10 O55 2.205823 1_555
Ca10 O131 2.208737 1_555
Ca10 O127 2.252961 1_555
Ca10 O129 2.270387 1_555
Ca10 O57 2.308795 1_555
Ca10 O59 2.322139 1_555
Ca11 O66 2.251454 1_555
Ca11 O140 2.259025 1_555
Ca11 O142 2.262337 1_555
Ca11 O138 2.263877 1_555
Ca11 O68 2.278762 1_555
Ca11 O70 2.293210 1_555
O0 S0 1.448871 1_545
O1 S1 1.473199 1_545
O1 Ti0 2.071321 1_555
O2 S2 1.485796 1_555
O2 Ti0 2.006835 1_565
O3 S3 1.448700 1_555
O4 Si0 1.648643 1_555
O4 Ti0 1.773544 1_555
O5 S4 1.447960 1_655
O6 S5 1.461590 1_555
O7 S6 1.508762 1_555
O7 Ti1 1.978992 1_555
O8 S8 1.493738 1_555
O8 Ti1 2.039236 1_565
O9 S7 1.460668 1_555
O10 S9 1.529826 1_555
O10 Ti1 1.915150 1_555
O11 S10 1.460229 1_545
O12 S9 1.488204 1_565
O12 Ti3 1.976621 1_555
O13 S10 1.518475 1_555
O13 Ti2 2.041183 1_555
O14 S5 1.537168 1_555
O14 Ti2 1.904278 1_445
O15 S6 1.472574 1_555
O15 Ti3 2.194325 1_545
O16 S7 1.538933 1_555
O16 Ti2 1.879073 1_555
O17 S8 1.484156 1_555
O17 Ti3 2.150485 1_555
O18 S2 1.529621 1_555
O18 Ti5 1.955864 1_565
O19 S3 1.522440 1_555
O19 Ti4 2.038868 1_565
O20 S4 1.520320 1_555
O20 Ti4 2.030584 1_455
O21 Si0 1.703689 1_555
O21 Ti5 1.768684 1_555
O22 S0 1.515891 1_555
O22 Ti4 2.053454 1_465
O23 S1 1.519678 1_555
O23 Ti5 2.021749 1_565
O24 S11 1.457008 1_555
O25 S12 1.453125 1_555
O26 S13 1.457509 1_555
O27 S14 1.453684 1_555
O28 S15 1.457472 1_555
O29 S16 1.457282 1_555
O30 S17 1.460974 1_555
O31 S18 1.457648 1_555
O32 S19 1.454284 1_555
O33 S20 1.464423 1_555
O34 S21 1.461280 1_555
O35 S22 1.454223 1_555
O36 S21 1.458118 1_555
O37 S22 1.463890 1_555
O38 S17 1.464913 1_555
O39 S18 1.462498 1_555
O40 S19 1.467080 1_555
O41 S20 1.465839 1_555
O42 S13 1.469271 1_555
O43 S14 1.464014 1_555
O44 S15 1.460607 1_555
O45 S16 1.474307 1_555
O46 S11 1.469580 1_555
O47 S12 1.465220 1_555
O48 S23 1.494051 1_555
O48 Ti6 2.159398 1_556
O49 S24 1.509349 1_555
O49 Ti7 1.956386 1_556
O50 S25 1.544576 1_555
O50 Ti6 1.897165 1_556
O51 Si1 1.676047 1_555
O51 Ti7 1.801667 1_556
O52 S26 1.548566 1_555
O52 Ti6 1.872589 1_556
O53 S27 1.487186 1_555
O53 Ti7 2.158109 1_556
O54 S28 1.474331 1_555
O54 Ti8 2.200871 1_555
O55 S29 1.458444 1_555
O56 S30 1.494386 1_555
O56 Ti8 1.992542 1_555
O57 S31 1.449651 1_555
O58 Si2 1.696634 1_555
O58 Ti8 1.743492 1_555
O59 S32 1.446989 1_555
O60 Si2 1.735271 1_555
O60 Ti9 1.737998 1_555
O61 S32 1.510689 1_555
O61 Ti10 1.992821 1_555
O62 S28 1.494189 1_555
O62 Ti9 2.040464 1_555
O63 S29 1.527511 1_555
O63 Ti10 1.995815 1_555
O64 S30 1.511648 1_555
O64 Ti9 2.016035 1_555
O65 S31 1.497922 1_555
O65 Ti10 2.013650 1_555
O66 S25 1.456971 1_555
O67 Si1 1.660711 1_555
O67 Ti11 1.778962 1_555
O68 S26 1.457113 1_555
O69 S27 1.488910 1_555
O69 Ti11 2.038964 1_555
O70 S23 1.453422 1_555
O71 S24 1.503540 1_555
O71 Ti11 1.990170 1_555
O72 Si2 1.586784 1_555
O73 S32 1.495133 1_555
O73 Ti0 1.997865 1_565
O74 S28 1.513466 1_555
O74 Ti0 1.986956 1_565
O75 S29 1.466759 1_555
O76 S30 1.460701 1_555
O77 S31 1.518493 1_555
O77 Ti0 1.920031 1_555
O78 S25 1.455937 1_555
O79 Si1 1.678190 1_555
O79 Ti1 1.832763 1_555
O80 S26 1.457939 1_555
O81 S27 1.509587 1_555
O81 Ti1 2.106267 1_565
O82 S23 1.547615 1_555
O82 Ti1 2.044758 1_565
O83 S24 1.450842 1_555
O84 S11 1.537186 1_555
O84 Ti3 1.851344 1_545
O85 S12 1.506811 1_455
O85 Ti2 2.058275 1_445
O86 S13 1.504594 1_565
O86 Ti2 2.092277 1_455
O87 S14 1.555372 1_555
O87 Ti3 1.834078 1_545
O88 S15 1.531996 1_555
O88 Ti3 1.895611 1_555
O89 S16 1.547804 1_555
O89 Ti2 1.910641 1_555
O90 S17 1.492274 1_555
O90 Ti5 2.203130 1_565
O91 S18 1.509548 1_455
O91 Ti4 1.986821 1_465
O92 S19 1.527210 1_565
O92 Ti5 2.037939 1_565
O93 S20 1.533349 1_565
O93 Ti4 1.938911 1_565
O94 S21 1.527575 1_555
O94 Ti4 1.952550 1_455
O95 S22 1.506450 1_555
O95 Ti5 2.096497 1_555
O96 S9 1.456868 1_555
O97 S10 1.470377 1_545
O98 S5 1.470669 1_555
O99 S6 1.457757 1_555
O100 S8 1.463034 1_555
O101 S7 1.470540 1_555
O102 S2 1.458705 1_555
O103 S3 1.468817 1_555
O104 Si0 1.574676 1_555
O105 S4 1.467702 1_655
O106 S0 1.463694 1_545
O107 S1 1.460120 1_545
O108 S23 1.464703 1_555
O109 S24 1.467355 1_555
O110 Si1 1.574807 1_555
O111 S25 1.474460 1_655
O112 S26 1.464260 1_545
O113 S27 1.465872 1_545
O114 S28 1.467542 1_545
O115 S29 1.474046 1_545
O116 S30 1.470386 1_555
O117 S31 1.462041 1_555
O118 S32 1.478588 1_555
O119 Si2 1.590348 1_655
O120 S21 1.506911 1_555
O120 Ti6 2.009276 1_555
O121 S22 1.512283 1_555
O121 Ti7 1.952888 1_555
O122 S18 1.514770 1_455
O122 Ti6 1.968614 1_555
O123 S17 1.522668 1_555
O123 Ti7 1.942708 1_555
O124 S19 1.499235 1_565
O124 Ti6 2.007015 1_555
O125 S20 1.482828 1_565
O125 Ti7 2.147170 1_555
O126 S13 1.512944 1_565
O126 Ti8 1.969173 1_555
O127 S14 1.448556 1_565
O128 S15 1.478847 1_555
O128 Ti8 2.098992 1_555
O129 S16 1.450384 1_555
O130 S12 1.518904 1_455
O130 Ti8 1.952367 1_555
O131 S11 1.442134 1_555
O132 S0 1.510802 1_555
O132 Ti9 2.036387 1_555
O133 S1 1.489674 1_555
O133 Ti10 2.062442 1_555
O134 S2 1.465149 1_555
O134 Ti9 2.246926 1_555
O135 S3 1.506782 1_555
O135 Ti10 2.055360 1_555
O136 S4 1.516406 1_555
O136 Ti9 2.032167 1_555
O137 Si0 1.650718 1_555
O137 Ti10 1.816371 1_555
O138 S5 1.453933 1_555
O139 S6 1.505454 1_555
O139 Ti11 2.007160 1_555
O140 S7 1.454517 1_455
O141 S8 1.504852 1_555
O141 Ti11 2.013464 1_555
O142 S9 1.449146 1_565
O143 S10 1.502749 1_555
O143 Ti11 2.103494 1_555
