# generated using pymatgen
data_Tm(CuTe)3
_symmetry_space_group_name_H-M   'P 1'
_cell_length_a   6.91047278
_cell_length_b   7.54794324
_cell_length_c   12.70240021
_cell_angle_alpha   90.00000000
_cell_angle_beta   90.00000000
_cell_angle_gamma   90.00000000
_symmetry_Int_Tables_number   1
_chemical_formula_structural   Tm(CuTe)3
_chemical_formula_sum   'Tm4 Cu12 Te12'
_cell_volume   662.55536968
_cell_formula_units_Z   4
loop_
 _symmetry_equiv_pos_site_id
 _symmetry_equiv_pos_as_xyz
  1  'x, y, z'
loop_
 _atom_site_type_symbol
 _atom_site_label
 _atom_site_symmetry_multiplicity
 _atom_site_fract_x
 _atom_site_fract_y
 _atom_site_fract_z
 _atom_site_occupancy
  Tm  Tm0  1  0.24350346  0.74952335  0.83773099  1
  Tm  Tm1  1  0.74350346  0.25047665  0.66226901  1
  Tm  Tm2  1  0.74350346  0.25047665  0.33773099  1
  Tm  Tm3  1  0.24350346  0.74952335  0.16226901  1
  Cu  Cu0  1  0.36329636  0.11828495  0.82641686  1
  Cu  Cu1  1  0.62067989  0.62108708  -0.00000000  1
  Cu  Cu2  1  0.12163414  0.38059656  0.17372548  1
  Cu  Cu3  1  0.12067989  0.37891292  0.50000000  1
  Cu  Cu4  1  0.86927552  0.87853137  -0.00000000  1
  Cu  Cu5  1  0.36927552  0.12146863  0.50000000  1
  Cu  Cu6  1  0.62163414  0.61940344  0.67372548  1
  Cu  Cu7  1  0.86329636  0.88171505  0.67358314  1
  Cu  Cu8  1  0.12163414  0.38059656  0.82627452  1
  Cu  Cu9  1  0.36329636  0.11828495  0.17358314  1
  Cu  Cu10  1  0.86329636  0.88171505  0.32641686  1
  Cu  Cu11  1  0.62163414  0.61940344  0.32627452  1
  Te  Te0  1  0.97886847  0.06557972  0.83656226  1
  Te  Te1  1  0.00743139  0.56667433  0.66322683  1
  Te  Te2  1  0.97886847  0.06557972  0.16343774  1
  Te  Te3  1  0.99020496  0.05364545  0.50000000  1
  Te  Te4  1  0.50743139  0.43332567  0.83677317  1
  Te  Te5  1  0.49717198  0.44793168  0.50000000  1
  Te  Te6  1  0.99717198  0.55206832  -0.00000000  1
  Te  Te7  1  0.47886847  0.93442028  0.66343774  1
  Te  Te8  1  0.49020496  0.94635455  -0.00000000  1
  Te  Te9  1  0.00743139  0.56667433  0.33677317  1
  Te  Te10  1  0.50743139  0.43332567  0.16322683  1
  Te  Te11  1  0.47886847  0.93442028  0.33656226  1
loop_
_geom_bond_atom_site_label_1
_geom_bond_atom_site_label_2
_geom_bond_distance
_geom_bond_site_symmetry_2
Cu0 Te4 2.581445 1_555
Cu0 Cu8 2.590166 1_555
Cu0 Te7 2.617189 1_545
Cu0 Te0 2.689289 1_455
Cu0 Te8 2.704605 1_546
Cu0 Tm0 2.907442 1_545
Cu0 Tm1 3.499481 1_555
Cu1 Cu4 2.593676 1_555
Cu1 Te8 2.615431 1_555
Cu1 Te10 2.630557 1_555
Cu1 Te4 2.630557 1_554
Cu1 Te6 2.653381 1_555
Cu1 Tm3 3.461508 1_555
Cu1 Tm0 3.461508 1_554
Cu2 Te2 2.577598 1_455
Cu2 Cu9 2.590166 1_555
Cu2 Te9 2.623910 1_555
Cu2 Te10 2.698882 1_555
Cu2 Te6 2.698986 1_455
Cu2 Tm3 2.912842 1_555
Cu2 Tm2 3.483199 1_455
Cu3 Cu5 2.593676 1_555
Cu3 Te3 2.615431 1_455
Cu3 Te9 2.630557 1_555
Cu3 Te1 2.630557 1_555
Cu3 Te5 2.653381 1_555
Cu3 Tm2 3.461508 1_455
Cu3 Tm1 3.461508 1_455
Cu4 Te6 2.617834 1_555
Cu4 Te2 2.622369 1_565
Cu4 Te0 2.622369 1_564
Cu4 Te8 2.669109 1_555
Cu4 Tm0 3.447408 1_654
Cu4 Tm3 3.447408 1_655
Cu5 Te5 2.617834 1_555
Cu5 Te7 2.622369 1_545
Cu5 Te11 2.622369 1_545
Cu5 Te3 2.669109 1_455
Cu5 Tm2 3.447408 1_555
Cu5 Tm1 3.447408 1_555
Cu6 Te7 2.577598 1_555
Cu6 Cu7 2.590166 1_555
Cu6 Te4 2.623910 1_555
Cu6 Te1 2.698882 1_655
Cu6 Te5 2.698986 1_555
Cu6 Tm1 2.912842 1_555
Cu6 Tm0 3.483199 1_555
Cu7 Te1 2.581445 1_655
Cu7 Te0 2.617189 1_565
Cu7 Te7 2.689289 1_555
Cu7 Te3 2.704605 1_565
Cu7 Tm1 2.907442 1_565
Cu7 Tm0 3.499481 1_655
Cu8 Te0 2.577598 1_455
Cu8 Te1 2.623910 1_555
Cu8 Te4 2.698882 1_555
Cu8 Te6 2.698986 1_456
Cu8 Tm0 2.912842 1_555
Cu8 Tm1 3.483199 1_455
Cu9 Te10 2.581445 1_555
Cu9 Te11 2.617189 1_545
Cu9 Te2 2.689289 1_455
Cu9 Te8 2.704605 1_545
Cu9 Tm3 2.907442 1_545
Cu9 Tm2 3.499481 1_555
Cu10 Te9 2.581445 1_655
Cu10 Cu11 2.590166 1_555
Cu10 Te2 2.617189 1_565
Cu10 Te11 2.689289 1_555
Cu10 Te3 2.704605 1_565
Cu10 Tm2 2.907442 1_565
Cu10 Tm3 3.499481 1_655
Cu11 Te11 2.577598 1_555
Cu11 Te10 2.623910 1_555
Cu11 Te9 2.698882 1_655
Cu11 Te5 2.698986 1_555
Cu11 Tm2 2.912842 1_555
Cu11 Tm3 3.483199 1_555
Te0 Tm0 3.005916 1_645
Te0 Tm1 3.081342 1_555
Te1 Tm1 3.003781 1_455
Te1 Tm0 3.078888 1_555
Te2 Tm3 3.005916 1_645
Te2 Tm2 3.081342 1_555
Te3 Tm2 3.059773 1_555
Te3 Tm1 3.059773 1_555
Te4 Tm0 3.003781 1_555
Te4 Tm1 3.078888 1_555
Te5 Tm1 3.060639 1_555
Te5 Tm2 3.060639 1_555
Te6 Tm0 3.060639 1_654
Te6 Tm3 3.060639 1_655
Te7 Tm1 3.005916 1_565
Te7 Tm0 3.081342 1_555
Te8 Tm3 3.059773 1_555
Te8 Tm0 3.059773 1_554
Te9 Tm2 3.003781 1_455
Te9 Tm3 3.078888 1_555
Te10 Tm3 3.003781 1_555
Te10 Tm2 3.078888 1_555
Te11 Tm2 3.005916 1_565
Te11 Tm3 3.081342 1_555
