# generated using pymatgen
data_MgZn2(BiO3)4
_symmetry_space_group_name_H-M   'P 1'
_cell_length_a   6.14365209
_cell_length_b   6.16959482
_cell_length_c   7.80097303
_cell_angle_alpha   92.03056066
_cell_angle_beta   89.68849447
_cell_angle_gamma   81.11418891
_symmetry_Int_Tables_number   1
_chemical_formula_structural   MgZn2(BiO3)4
_chemical_formula_sum   'Mg1 Zn2 Bi4 O12'
_cell_volume   291.93681126
_cell_formula_units_Z   1
loop_
 _symmetry_equiv_pos_site_id
 _symmetry_equiv_pos_as_xyz
  1  'x, y, z'
loop_
 _atom_site_type_symbol
 _atom_site_label
 _atom_site_symmetry_multiplicity
 _atom_site_fract_x
 _atom_site_fract_y
 _atom_site_fract_z
 _atom_site_occupancy
  Mg  Mg0  1  0.82847932  0.12353581  0.93217068  1
  Zn  Zn0  1  0.44295439  0.52014014  0.23401289  1
  Zn  Zn1  1  0.06246515  0.87615768  0.62118404  1
  Bi  Bi0  1  0.40596295  0.94135110  0.99768511  1
  Bi  Bi1  1  0.97827347  0.53766256  0.02271323  1
  Bi  Bi2  1  0.91967064  0.41532338  0.50714332  1
  Bi  Bi3  1  0.53748571  0.00635268  0.50733278  1
  O  O0  1  0.61028765  0.32751343  0.40679894  1
  O  O1  1  0.18093533  0.15294938  0.54436890  1
  O  O2  1  0.78597427  0.85188672  0.03293225  1
  O  O3  1  0.29429220  0.63466056  0.01039142  1
  O  O4  1  0.39069118  0.83269196  0.69977604  1
  O  O5  1  0.83911816  0.77106496  0.44882068  1
  O  O6  1  0.11998179  0.20263837  0.95134063  1
  O  O7  1  0.69253324  0.39316113  0.05942503  1
  O  O8  1  0.11668124  0.45459021  0.27688284  1
  O  O9  1  0.78116920  0.12412437  0.68152083  1
  O  O10  1  0.41419613  0.85209847  0.28758931  1
  O  O11  1  0.97221499  0.59525011  0.74030408  1
loop_
_geom_bond_atom_site_label_1
_geom_bond_atom_site_label_2
_geom_bond_distance
_geom_bond_site_symmetry_2
Mg0 O2 1.929050 1_546
Mg0 O6 1.932763 1_655
Mg0 O7 1.973562 1_556
Mg0 O9 1.978408 1_555
Bi0 O3 2.115268 1_556
Bi0 O6 2.233725 1_565
Bi0 O2 2.334636 1_556
Bi0 O10 2.345465 1_556
Bi0 O4 2.402186 1_555
Bi1 O2 2.107340 1_555
Bi1 O7 2.110610 1_555
Bi1 O3 2.120805 1_655
Bi1 O6 2.167381 1_654
Bi1 O8 2.207448 1_655
Bi1 O11 2.243522 1_554
Bi2 O1 2.125265 1_655
Bi2 O11 2.149141 1_555
Bi2 O0 2.196203 1_555
Bi2 O8 2.201815 1_655
Bi2 O5 2.237552 1_555
Bi2 O9 2.536743 1_555
Bi3 O10 2.130531 1_545
Bi3 O4 2.147738 1_545
Bi3 O5 2.205097 1_545
Bi3 O9 2.214481 1_555
Bi3 O1 2.249982 1_555
Bi3 O0 2.263025 1_555
O0 Zn0 2.009280 1_555
O1 Zn1 2.063201 1_545
O3 Zn0 2.069262 1_555
O4 Zn1 2.090965 1_555
O5 Zn1 2.084304 1_655
O7 Zn0 2.085743 1_555
O8 Zn0 2.132178 1_555
O9 Zn1 2.161474 1_645
O10 Zn0 2.056003 1_555
O11 Zn1 2.140074 1_655
