# generated using pymatgen
data_Na3Zr3AlSi3(SO8)3
_symmetry_space_group_name_H-M   'P 1'
_cell_length_a   8.91945404
_cell_length_b   8.97062963
_cell_length_c   23.08754274
_cell_angle_alpha   89.95924587
_cell_angle_beta   90.01264289
_cell_angle_gamma   120.02566126
_symmetry_Int_Tables_number   1
_chemical_formula_structural   Na3Zr3AlSi3(SO8)3
_chemical_formula_sum   'Na9 Zr9 Al3 Si9 S9 O72'
_cell_volume   1599.39991958
_cell_formula_units_Z   3
loop_
 _symmetry_equiv_pos_site_id
 _symmetry_equiv_pos_as_xyz
  1  'x, y, z'
loop_
 _atom_site_type_symbol
 _atom_site_label
 _atom_site_symmetry_multiplicity
 _atom_site_fract_x
 _atom_site_fract_y
 _atom_site_fract_z
 _atom_site_occupancy
  Na  Na0  1  0.35456951  0.35815964  0.24170308  1
  Na  Na1  1  0.64403664  0.62895691  0.75266258  1
  Na  Na2  1  0.97389894  0.29764630  0.41669884  1
  Na  Na3  1  0.99277307  0.00472440  0.49423890  1
  Na  Na4  1  0.99648882  0.98082185  0.00319615  1
  Na  Na5  1  0.66284236  0.33899597  0.82945102  1
  Na  Na6  1  0.66405171  0.31755166  0.32628406  1
  Na  Na7  1  0.29991857  0.65339814  0.16444511  1
  Na  Na8  1  0.29033949  0.64470612  0.66599956  1
  Zr  Zr0  1  0.00718859  0.99138672  0.84900657  1
  Zr  Zr1  1  0.01296724  0.01702905  0.64592374  1
  Zr  Zr2  1  0.00877839  0.00937346  0.14561214  1
  Zr  Zr3  1  0.66549763  0.35571758  0.98086673  1
  Zr  Zr4  1  0.66210541  0.31917071  0.47806148  1
  Zr  Zr5  1  0.34322708  0.65536876  0.02799438  1
  Zr  Zr6  1  0.32881785  0.64828472  0.51841127  1
  Zr  Zr7  1  0.33620982  0.66498498  0.31372752  1
  Zr  Zr8  1  0.32634009  0.65204886  0.81095711  1
  Al  Al0  1  0.98682551  0.02767834  0.35165683  1
  Al  Al1  1  0.68507621  0.34787476  0.68865485  1
  Al  Al2  1  0.69798462  0.34438505  0.17897737  1
  Si  Si0  1  0.97920335  0.29035624  0.25054320  1
  Si  Si1  1  0.31278531  0.29122370  0.74718385  1
  Si  Si2  1  0.99655755  0.70041580  0.74481217  1
  Si  Si3  1  0.94901112  0.33775264  0.58700809  1
  Si  Si4  1  0.95827585  0.62618953  0.08623013  1
  Si  Si5  1  0.39560893  0.33480615  0.09314397  1
  Si  Si6  1  0.63340270  0.67673677  0.91456998  1
  Si  Si7  1  0.63137570  0.95092673  0.41576436  1
  Si  Si8  1  0.32654484  0.35929703  0.41191141  1
  S  S0  1  0.28465169  0.00209626  0.25366032  1
  S  S1  1  0.71943890  0.71171569  0.25317444  1
  S  S2  1  0.70841661  0.01038287  0.74879867  1
  S  S3  1  0.38301002  0.04441035  0.58654262  1
  S  S4  1  0.66618113  0.61802329  0.58648111  1
  S  S5  1  0.66573659  0.05303066  0.08511531  1
  S  S6  1  0.03935317  0.36971715  0.91778611  1
  S  S7  1  0.33741948  0.95529399  0.91746857  1
  S  S8  1  0.04255504  0.67833409  0.41574200  1
  O  O0  1  0.18890763  0.01806996  0.30348314  1
  O  O1  1  0.82315419  0.80309268  0.30467607  1
  O  O2  1  0.96065094  0.18319480  0.31052772  1
  O  O3  1  0.21656060  0.17649532  0.80494447  1
  O  O4  1  0.95513598  0.78795409  0.80212650  1
  O  O5  1  0.81604598  0.03613360  0.80128729  1
  O  O6  1  0.78739201  0.97525535  0.69800721  1
  O  O7  1  0.18121826  0.20947609  0.69247314  1
  O  O8  1  0.01528838  0.82243743  0.69034992  1
  O  O9  1  0.79813329  0.80900538  0.19964343  1
  O  O10  1  0.02399099  0.19597671  0.19781502  1
  O  O11  1  0.18562656  0.97626190  0.19890536  1
  O  O12  1  0.83850370  0.34602341  0.64082320  1
  O  O13  1  0.48195341  0.13398282  0.63781854  1
  O  O14  1  0.64726729  0.51982732  0.64006922  1
  O  O15  1  0.87327721  0.50547773  0.14175794  1
  O  O16  1  0.64761298  0.13872793  0.13665641  1
  O  O17  1  0.50553201  0.34368802  0.15059501  1
  O  O18  1  0.47359319  0.30965033  0.03224013  1
  O  O19  1  0.84831681  0.53702242  0.02657548  1
  O  O20  1  0.68789108  0.14839852  0.03107140  1
  O  O21  1  0.46110859  0.14482659  0.53219989  1
  O  O22  1  0.67950540  0.53124040  0.53414019  1
  O  O23  1  0.85214675  0.32373194  0.52493898  1
  O  O24  1  0.52545809  0.68450001  0.97062732  1
  O  O25  1  0.14184656  0.45825701  0.96967373  1
  O  O26  1  0.31547286  0.85380777  0.96986189  1
  O  O27  1  0.53066499  0.83608176  0.47330957  1
  O  O28  1  0.28110369  0.44932335  0.46780070  1
  O  O29  1  0.14831616  0.70210097  0.46857080  1
  O  O30  1  0.12145518  0.63922930  0.36518421  1
  O  O31  1  0.50583796  0.86597897  0.35995993  1
  O  O32  1  0.35311197  0.47959858  0.35503680  1
  O  O33  1  0.12006301  0.47638167  0.86469765  1
  O  O34  1  0.34516123  0.86656015  0.86436671  1
  O  O35  1  0.52457264  0.65979440  0.85532663  1
  O  O36  1  0.02351656  0.82780323  0.40644795  1
  O  O37  1  0.82252922  0.97242639  0.40759596  1
  O  O38  1  0.15390635  0.17242642  0.40318718  1
  O  O39  1  0.03141340  0.20262044  0.91163586  1
  O  O40  1  0.18332838  0.98037770  0.91299132  1
  O  O41  1  0.82531889  0.84982572  0.91211503  1
  O  O42  1  0.96711884  0.16327577  0.58929507  1
  O  O43  1  0.20513086  0.02373689  0.58731267  1
  O  O44  1  0.81993649  0.79296416  0.58867046  1
  O  O45  1  0.96702201  0.81184259  0.09127999  1
  O  O46  1  0.81749164  0.02742226  0.09083204  1
  O  O47  1  0.19687196  0.17145179  0.09333779  1
  O  O48  1  0.68641678  0.16017330  0.74147432  1
  O  O49  1  0.50172761  0.31426972  0.73502684  1
  O  O50  1  0.82488181  0.51140791  0.74072069  1
  O  O51  1  0.69164631  0.53482105  0.25046792  1
  O  O52  1  0.80472564  0.30210108  0.23846355  1
  O  O53  1  0.45501471  0.16058333  0.24995712  1
  O  O54  1  0.64742277  0.50021409  0.91671280  1
  O  O55  1  0.86263320  0.34392992  0.92118512  1
  O  O56  1  0.49687891  0.12662388  0.91984848  1
  O  O57  1  0.66975171  0.15238860  0.42122782  1
  O  O58  1  0.50084700  0.35055118  0.42251876  1
  O  O59  1  0.86984846  0.51790210  0.42246519  1
  O  O60  1  0.37823395  0.51042209  0.08714873  1
  O  O61  1  0.15378039  0.65331719  0.07761394  1
  O  O62  1  0.50636628  0.87961156  0.08227756  1
  O  O63  1  0.36698807  0.87264952  0.58128246  1
  O  O64  1  0.50663096  0.63439362  0.58186108  1
  O  O65  1  0.14403237  0.51183540  0.58209920  1
  O  O66  1  0.30748267  0.84916752  0.25729158  1
  O  O67  1  0.53913910  0.69157771  0.25521398  1
  O  O68  1  0.15944321  0.48299261  0.25492325  1
  O  O69  1  0.34362603  0.48963102  0.75436874  1
  O  O70  1  0.17000235  0.68630920  0.75412709  1
  O  O71  1  0.53558500  0.85178248  0.75568223  1
loop_
_geom_bond_atom_site_label_1
_geom_bond_atom_site_label_2
_geom_bond_distance
_geom_bond_site_symmetry_2
Na0 O53 2.359854 1_555
Na0 O68 2.515442 1_555
Na0 O17 2.535952 1_555
Na0 O51 2.612192 1_555
Na0 O67 2.612804 1_555
Na0 O10 2.746840 1_555
Na0 O32 2.837561 1_555
Na1 O69 2.322025 1_555
Na1 O50 2.343656 1_555
Na1 O49 2.482211 1_555
Na1 O71 2.621343 1_555
Na1 O4 2.660510 1_555
Na1 O35 2.669664 1_555
Na1 O14 2.783613 1_555
Na1 O6 2.982880 1_555
Na2 O57 2.351711 1_555
Na2 O38 2.396377 1_655
Na2 O37 2.537161 1_545
Na2 O59 2.572650 1_555
Na2 O2 2.637925 1_555
Na2 O28 2.649741 1_655
Na2 O23 2.781262 1_555
Na2 O30 2.914727 1_655
Na3 O37 2.439347 1_545
Na3 O38 2.565325 1_655
Na3 O36 2.672575 1_645
Na3 O42 2.687380 1_555
Na3 O44 2.793422 1_545
Na3 O43 2.812423 1_655
Na4 O45 2.469758 1_555
Na4 O41 2.518011 1_554
Na4 O40 2.668840 1_654
Na4 O47 2.719305 1_665
Na4 O46 2.736429 1_565
Na4 O39 2.810417 1_664
Na5 O54 2.524416 1_555
Na5 O50 2.537188 1_555
Na5 O49 2.558736 1_555
Na5 O48 2.661868 1_555
Na5 O56 2.711074 1_555
Na5 O55 2.753665 1_555
Na6 O52 2.424899 1_555
Na6 O53 2.437026 1_555
Na6 O51 2.537425 1_555
Na6 O57 2.659592 1_555
Na6 O58 2.752599 1_555
Na6 O59 2.869294 1_555
Na7 O61 2.390782 1_555
Na7 O60 2.493619 1_555
Na7 O68 2.519929 1_555
Na7 O62 2.713662 1_555
Na7 O66 2.751440 1_555
Na7 O67 2.886072 1_555
Na8 O65 2.306809 1_555
Na8 O70 2.415382 1_555
Na8 O69 2.642134 1_555
Na8 O63 2.658953 1_555
Na8 O64 2.772075 1_555
Na8 O71 2.908563 1_555
Al0 O2 1.796220 1_555
Al0 O37 1.825965 1_545
Al0 O38 1.840433 1_655
Al0 O1 2.103711 1_545
Al0 O0 2.156343 1_655
Al0 O36 2.346489 1_645
Al1 O12 1.765217 1_555
Al1 O50 1.822947 1_555
Al1 O49 1.848909 1_555
Al1 O14 2.066237 1_555
Al1 O48 2.083185 1_555
Al1 O13 2.205636 1_555
Al2 O15 1.734629 1_555
Al2 O52 1.815658 1_555
Al2 O17 1.834344 1_555
Al2 O16 1.932089 1_555
Al2 O51 2.397203 1_555
O0 S0 1.481930 1_555
O1 S1 1.477683 1_555
O2 Si0 1.645732 1_555
O3 Si1 1.639743 1_555
O3 Zr0 2.043223 1_545
O4 Si2 1.672178 1_555
O4 Zr0 1.967743 1_655
O5 S2 1.490451 1_555
O5 Zr0 2.228225 1_645
O6 S2 1.481096 1_565
O6 Zr1 2.209169 1_665
O7 Si1 1.627830 1_555
O7 Zr1 1.948493 1_555
O8 Si2 1.619338 1_455
O8 Zr1 2.033036 1_565
O9 S1 1.472277 1_555
O9 Zr2 2.221500 1_665
O10 Si0 1.642720 1_455
O10 Zr2 2.012112 1_555
O11 S0 1.492315 1_565
O11 Zr2 2.134904 1_565
O12 Si3 1.610778 1_555
O13 S3 1.455051 1_555
O14 S4 1.478154 1_555
O15 Si4 1.602419 1_555
O16 S5 1.469311 1_555
O17 Si5 1.627385 1_555
O18 Si5 1.633982 1_555
O18 Zr3 1.949289 1_554
O19 Si4 1.647571 1_555
O19 Zr3 1.940469 1_554
O20 S5 1.468744 1_555
O20 Zr3 2.282716 1_554
O21 S3 1.497198 1_555
O21 Zr4 2.101086 1_555
O22 S4 1.474606 1_555
O22 Zr4 2.242196 1_555
O23 Si3 1.645233 1_555
O23 Zr4 1.994017 1_555
O24 Si6 1.635436 1_555
O24 Zr5 2.009924 1_556
O25 S6 1.475090 1_555
O25 Zr5 2.233770 1_556
O26 S7 1.466471 1_555
O26 Zr5 2.338572 1_556
O27 Si7 1.644941 1_555
O27 Zr6 2.031415 1_555
O28 Si8 1.676535 1_555
O28 Zr6 1.993632 1_555
O29 S8 1.490487 1_555
O29 Zr6 2.219329 1_555
O30 S8 1.492919 1_555
O30 Zr7 2.166003 1_555
O31 Si7 1.625194 1_555
O31 Zr7 1.987801 1_555
O32 Si8 1.639267 1_555
O32 Zr7 1.986604 1_555
O33 S6 1.498485 1_555
O33 Zr8 2.122377 1_555
O34 S7 1.482522 1_555
O34 Zr8 2.220729 1_555
O35 Si6 1.639592 1_555
O35 Zr8 2.014153 1_555
O36 S8 1.449190 1_555
O37 Si7 1.628109 1_555
O38 Si8 1.624455 1_555
O39 S6 1.471777 1_555
O39 Zr0 2.306974 1_545
O40 S7 1.503238 1_555
O40 Zr0 2.194158 1_555
O41 Si6 1.638381 1_555
O41 Zr0 2.074564 1_655
O42 Si3 1.652722 1_555
O42 Zr1 2.032723 1_655
O43 S3 1.502499 1_555
O43 Zr1 2.161065 1_555
O44 S4 1.480655 1_555
O44 Zr1 2.300245 1_665
O45 Si4 1.632044 1_555
O45 Zr2 2.048074 1_665
O46 S5 1.487756 1_555
O46 Zr2 2.193632 1_655
O47 Si5 1.640116 1_555
O47 Zr2 1.985551 1_555
O48 S2 1.461577 1_555
O49 Si1 1.616501 1_555
O50 Si2 1.621829 1_555
O51 S1 1.479840 1_555
O52 Si0 1.635432 1_555
O53 S0 1.474947 1_555
O54 Si6 1.650358 1_555
O54 Zr3 2.026404 1_555
O55 S6 1.476258 1_655
O55 Zr3 2.277918 1_555
O56 S7 1.483417 1_545
O56 Zr3 2.319483 1_555
O57 Si7 1.667456 1_545
O57 Zr4 2.017368 1_555
O58 Si8 1.614012 1_555
O58 Zr4 2.048499 1_555
O59 S8 1.499798 1_655
O59 Zr4 2.225105 1_555
O60 Si5 1.664041 1_555
O60 Zr5 2.014197 1_555
O61 Si4 1.647728 1_455
O61 Zr5 2.034138 1_555
O62 S5 1.494014 1_565
O62 Zr5 2.192707 1_555
O63 S3 1.479574 1_565
O63 Zr6 2.364739 1_555
O64 S4 1.505728 1_555
O64 Zr6 2.207566 1_555
O65 Si3 1.660914 1_455
O65 Zr6 2.087188 1_555
O66 S0 1.486583 1_565
O66 Zr7 2.216692 1_555
O67 S1 1.526552 1_555
O67 Zr7 2.174074 1_555
O68 Si0 1.673579 1_455
O68 Zr7 2.102517 1_555
O69 Si1 1.667762 1_555
O69 Zr8 2.020176 1_555
O70 Si2 1.628285 1_455
O70 Zr8 2.046453 1_555
O71 S2 1.493557 1_565
O71 Zr8 2.230105 1_555
