# generated using pymatgen
data_Na10Zr4Zn4Si5S7O48
_symmetry_space_group_name_H-M   'P 1'
_cell_length_a   18.15938280
_cell_length_b   9.14674151
_cell_length_c   22.97498744
_cell_angle_alpha   89.90378612
_cell_angle_beta   88.37406783
_cell_angle_gamma   120.22558459
_symmetry_Int_Tables_number   1
_chemical_formula_structural   Na10Zr4Zn4Si5S7O48
_chemical_formula_sum   'Na30 Zr12 Zn12 Si15 S21 O144'
_cell_volume   3295.43399295
_cell_formula_units_Z   3
loop_
 _symmetry_equiv_pos_site_id
 _symmetry_equiv_pos_as_xyz
  1  'x, y, z'
loop_
 _atom_site_type_symbol
 _atom_site_label
 _atom_site_symmetry_multiplicity
 _atom_site_fract_x
 _atom_site_fract_y
 _atom_site_fract_z
 _atom_site_occupancy
  Na  Na0  1  0.32390668  0.02728563  0.25018025  1
  Na  Na1  1  0.67662421  0.34779700  0.25168773  1
  Na  Na2  1  0.99706275  0.63219341  0.24237085  1
  Na  Na3  1  0.49777051  0.62371252  0.24147716  1
  Na  Na4  1  0.32196236  0.61873968  0.75247700  1
  Na  Na5  1  0.82194615  0.61833872  0.75155515  1
  Na  Na6  1  0.99634685  0.37027953  0.74081385  1
  Na  Na7  1  0.49680780  0.37034171  0.74146763  1
  Na  Na8  1  0.17715896  0.00867131  0.75054373  1
  Na  Na9  1  0.67795936  0.00937169  0.74990351  1
  Na  Na10  1  0.33335038  0.96869872  0.57555935  1
  Na  Na11  1  0.83302052  0.96853683  0.57412411  1
  Na  Na12  1  0.33378539  0.69840141  0.07552914  1
  Na  Na13  1  0.83101933  0.69703642  0.07477651  1
  Na  Na14  1  0.48257421  0.68402727  0.91181257  1
  Na  Na15  1  0.98286161  0.68438319  0.91105115  1
  Na  Na16  1  0.48521526  0.28423139  0.41006318  1
  Na  Na17  1  0.16395595  0.02908936  0.40935331  1
  Na  Na18  1  0.98994605  0.00417093  0.49370705  1
  Na  Na19  1  0.50006718  0.99857649  0.49318818  1
  Na  Na20  1  0.99752870  0.00156502  0.99179032  1
  Na  Na21  1  0.49682910  0.99782004  0.99415776  1
  Na  Na22  1  0.32720490  0.34069456  0.82883960  1
  Na  Na23  1  0.82728011  0.34058945  0.82796117  1
  Na  Na24  1  0.32891517  0.32674744  0.32372743  1
  Na  Na25  1  0.82346007  0.29960642  0.33090963  1
  Na  Na26  1  0.15662406  0.66272720  0.15728899  1
  Na  Na27  1  0.65450194  0.66975434  0.16043306  1
  Na  Na28  1  0.15113482  0.64041952  0.65857336  1
  Na  Na29  1  0.65291109  0.64277867  0.65763040  1
  Zr  Zr0  1  0.00851348  0.01478851  0.64813734  1
  Zr  Zr1  1  0.50967240  0.01645622  0.64835495  1
  Zr  Zr2  1  0.00651326  0.99202089  0.14670603  1
  Zr  Zr3  1  0.50862984  0.00148451  0.14909590  1
  Zr  Zr4  1  0.33501832  0.34835985  0.98165632  1
  Zr  Zr5  1  0.83518745  0.34790047  0.98092710  1
  Zr  Zr6  1  0.33861788  0.33034370  0.48201318  1
  Zr  Zr7  1  0.83773745  0.31835489  0.47968443  1
  Zr  Zr8  1  0.16961169  0.67798134  0.31635002  1
  Zr  Zr9  1  0.67130233  0.68864706  0.31371261  1
  Zr  Zr10  1  0.16744477  0.65476236  0.81563058  1
  Zr  Zr11  1  0.66745100  0.65490470  0.81571793  1
  Zn  Zn0  1  0.99579039  0.00750993  0.35001381  1
  Zn  Zn1  1  0.50251789  0.01678742  0.34607908  1
  Zn  Zn2  1  0.99934929  0.98469983  0.84723966  1
  Zn  Zn3  1  0.49913083  0.98466362  0.84768666  1
  Zn  Zn4  1  0.34428922  0.36236350  0.68377823  1
  Zn  Zn5  1  0.84446163  0.36358654  0.68258897  1
  Zn  Zn6  1  0.34140062  0.32797685  0.18478608  1
  Zn  Zn7  1  0.83497238  0.31819416  0.18063459  1
  Zn  Zn8  1  0.16567726  0.67340895  0.01610819  1
  Zn  Zn9  1  0.66428797  0.67144896  0.01606306  1
  Zn  Zn10  1  0.16263408  0.65152554  0.51591456  1
  Zn  Zn11  1  0.66716739  0.65870697  0.51520574  1
  Si  Si0  1  0.14710766  0.00827302  0.25492375  1
  Si  Si1  1  0.65140635  0.01226538  0.25182264  1
  Si  Si2  1  0.50043902  0.29618942  0.25238989  1
  Si  Si3  1  0.14767684  0.28808146  0.75238998  1
  Si  Si4  1  0.64787653  0.28842256  0.75274468  1
  Si  Si5  1  -0.00000839  0.70498153  0.75226007  1
  Si  Si6  1  0.50005353  0.70525483  0.75231563  1
  Si  Si7  1  0.48567727  0.34146356  0.58509797  1
  Si  Si8  1  0.98453566  0.34068677  0.58577547  1
  Si  Si9  1  0.48477196  0.62848804  0.08504572  1
  Si  Si10  1  0.98331768  0.61986222  0.08602542  1
  Si  Si11  1  0.31580641  0.67874162  0.92036302  1
  Si  Si12  1  0.81559281  0.67937271  0.92063097  1
  Si  Si13  1  0.31555990  0.95299426  0.42157228  1
  Si  Si14  1  0.81687249  0.95292196  0.42024736  1
  S  S0  1  0.35311821  0.70502821  0.25116565  1
  S  S1  1  0.85486327  0.70761474  0.25070056  1
  S  S2  1  0.99973749  0.29191329  0.25079531  1
  S  S3  1  0.35368479  0.00082936  0.75085835  1
  S  S4  1  0.85361298  0.00088985  0.75118305  1
  S  S5  1  0.18797880  0.03983605  0.58473376  1
  S  S6  1  0.68818963  0.03969176  0.58522579  1
  S  S7  1  0.33260672  0.62782629  0.58488549  1
  S  S8  1  0.83270998  0.62714877  0.58431135  1
  S  S9  1  0.33246712  0.03795975  0.08467624  1
  S  S10  1  0.83336795  0.03992935  0.08459797  1
  S  S11  1  0.18795851  0.33628561  0.08595490  1
  S  S12  1  0.68722123  0.33638492  0.08509448  1
  S  S13  1  0.01987677  0.36710220  0.91914572  1
  S  S14  1  0.51951949  0.36629727  0.91889117  1
  S  S15  1  0.16781667  0.96041773  0.91772568  1
  S  S16  1  0.66796304  0.96079983  0.91765331  1
  S  S17  1  0.16640238  0.37317154  0.41809380  1
  S  S18  1  0.66834662  0.37561268  0.41737106  1
  S  S19  1  0.01979636  0.66845379  0.41798696  1
  S  S20  1  0.52108157  0.67383679  0.41819874  1
  O  O0  1  0.09921891  0.01825483  0.31364524  1
  O  O1  1  0.60407909  0.03648741  0.30777646  1
  O  O2  1  0.40455304  0.78545097  0.30157694  1
  O  O3  1  0.90774709  0.79080647  0.30036075  1
  O  O4  1  0.47829540  0.18034879  0.31070421  1
  O  O5  1  0.98763336  0.19051318  0.30315051  1
  O  O6  1  0.10083873  0.16990299  0.80841418  1
  O  O7  1  0.60041040  0.16942746  0.80838473  1
  O  O8  1  0.47930826  0.77680911  0.81073646  1
  O  O9  1  0.97953545  0.77675658  0.81079772  1
  O  O10  1  0.40616290  0.02703300  0.80104820  1
  O  O11  1  0.90612985  0.02691911  0.80138775  1
  O  O12  1  0.39124648  0.96818423  0.69661682  1
  O  O13  1  0.89119608  0.96815493  0.69697306  1
  O  O14  1  0.08519697  0.20986132  0.69512190  1
  O  O15  1  0.58540295  0.21123851  0.69528039  1
  O  O16  1  0.01595668  0.83305142  0.69572406  1
  O  O17  1  0.51537847  0.83272189  0.69566302  1
  O  O18  1  0.39026682  0.81431018  0.19670457  1
  O  O19  1  0.89277260  0.81362555  0.19590196  1
  O  O20  1  0.01153553  0.21110132  0.19760510  1
  O  O21  1  0.51501487  0.19707788  0.19607004  1
  O  O22  1  0.08286392  0.96580366  0.19834436  1
  O  O23  1  0.58799019  0.96643924  0.19453395  1
  O  O24  1  0.43677963  0.35079654  0.64365875  1
  O  O25  1  0.93870972  0.35184677  0.64570675  1
  O  O26  1  0.23690494  0.12136800  0.63600935  1
  O  O27  1  0.73577352  0.11850033  0.63767577  1
  O  O28  1  0.31978686  0.52815056  0.63829028  1
  O  O29  1  0.82010093  0.52868910  0.63852112  1
  O  O30  1  0.43651948  0.52180191  0.14380290  1
  O  O31  1  0.93542569  0.51632349  0.14557423  1
  O  O32  1  0.32017648  0.11253336  0.13811878  1
  O  O33  1  0.82046556  0.11643566  0.13661271  1
  O  O34  1  0.23873159  0.35377245  0.13615567  1
  O  O35  1  0.73629984  0.35517711  0.13703128  1
  O  O36  1  0.22612198  0.30456662  0.03143609  1
  O  O37  1  0.72991586  0.30944405  0.03217530  1
  O  O38  1  0.42077425  0.53424339  0.02749091  1
  O  O39  1  0.91995785  0.53394628  0.02865801  1
  O  O40  1  0.34269416  0.14494441  0.03225247  1
  O  O41  1  0.84507309  0.14557080  0.03135206  1
  O  O42  1  0.22911594  0.14824168  0.53037709  1
  O  O43  1  0.73005033  0.15039477  0.53223248  1
  O  O44  1  0.34314469  0.54087196  0.53264416  1
  O  O45  1  0.84376002  0.54218085  0.53253314  1
  O  O46  1  0.42165644  0.30791349  0.52750937  1
  O  O47  1  0.91890069  0.30580753  0.53032151  1
  O  O48  1  0.26700528  0.68672425  0.97888301  1
  O  O49  1  0.76681293  0.68704360  0.97920928  1
  O  O50  1  0.07021507  0.45309168  0.96869697  1
  O  O51  1  0.57032710  0.45276994  0.96839642  1
  O  O52  1  0.15302377  0.85001327  0.96797725  1
  O  O53  1  0.65363907  0.85081111  0.96782387  1
  O  O54  1  0.26395160  0.84484791  0.47899459  1
  O  O55  1  0.77122113  0.85066002  0.48045152  1
  O  O56  1  0.15436074  0.45149553  0.46970833  1
  O  O57  1  0.65287410  0.45580759  0.46775612  1
  O  O58  1  0.07292436  0.68871777  0.46734145  1
  O  O59  1  0.57047399  0.68791773  0.46857401  1
  O  O60  1  0.05839031  0.63770242  0.36287987  1
  O  O61  1  0.55795366  0.63597360  0.36363191  1
  O  O62  1  0.25372410  0.86792179  0.36272810  1
  O  O63  1  0.75492423  0.86318446  0.36355792  1
  O  O64  1  0.17798368  0.47862026  0.36449335  1
  O  O65  1  0.67962375  0.47611643  0.36226742  1
  O  O66  1  0.05729801  0.47876415  0.86401307  1
  O  O67  1  0.55735129  0.47887699  0.86384231  1
  O  O68  1  0.17946765  0.88247954  0.86252066  1
  O  O69  1  0.68010401  0.88365668  0.86240779  1
  O  O70  1  0.25789247  0.64756787  0.86099539  1
  O  O71  1  0.75788195  0.64741806  0.86125459  1
  O  O72  1  0.01357207  0.82055529  0.41104960  1
  O  O73  1  0.50839932  0.81632720  0.41015266  1
  O  O74  1  0.41229216  0.99028985  0.41458106  1
  O  O75  1  0.91199665  0.98114151  0.41069223  1
  O  O76  1  0.09376635  0.19950844  0.41316571  1
  O  O77  1  0.59218285  0.20480536  0.41354408  1
  O  O78  1  0.00858194  0.20074267  0.91065024  1
  O  O79  1  0.50867919  0.20071216  0.91035758  1
  O  O80  1  0.09218743  0.97948249  0.91349397  1
  O  O81  1  0.59253960  0.98004224  0.91333466  1
  O  O82  1  0.41332652  0.83699343  0.91452335  1
  O  O83  1  0.91335077  0.83706029  0.91485686  1
  O  O84  1  0.48262889  0.15342333  0.58762095  1
  O  O85  1  0.98324623  0.15419600  0.58792573  1
  O  O86  1  0.10137053  0.02331717  0.58648936  1
  O  O87  1  0.60123321  0.02288590  0.58700989  1
  O  O88  1  0.41151235  0.80051623  0.58748353  1
  O  O89  1  0.91145181  0.80153827  0.58793624  1
  O  O90  1  0.48297436  0.81202417  0.08757794  1
  O  O91  1  0.98318499  0.80734438  0.08987131  1
  O  O92  1  0.41116995  0.02176652  0.08730936  1
  O  O93  1  0.91295323  0.02531489  0.08901452  1
  O  O94  1  0.09991217  0.18115771  0.09016048  1
  O  O95  1  0.60115878  0.17945820  0.08703098  1
  O  O96  1  0.33974614  0.14449766  0.74389633  1
  O  O97  1  0.83961933  0.14437692  0.74430359  1
  O  O98  1  0.24168317  0.30844553  0.74178533  1
  O  O99  1  0.74180909  0.30880270  0.74200455  1
  O  O100  1  0.41844534  0.51344295  0.74775037  1
  O  O101  1  0.91829749  0.51356181  0.74771765  1
  O  O102  1  0.34161235  0.53689624  0.24384727  1
  O  O103  1  0.84508261  0.53875600  0.24456334  1
  O  O104  1  0.41899275  0.32500721  0.24754428  1
  O  O105  1  0.92666801  0.32064309  0.24644254  1
  O  O106  1  0.24333843  0.16218638  0.24364521  1
  O  O107  1  0.74329639  0.18553308  0.24140016  1
  O  O108  1  0.32528510  0.50085724  0.92301410  1
  O  O109  1  0.82559801  0.50182224  0.92341528  1
  O  O110  1  0.43294398  0.35667842  0.92355620  1
  O  O111  1  0.93323521  0.35737117  0.92379386  1
  O  O112  1  0.24701223  0.13029206  0.92265269  1
  O  O113  1  0.74729588  0.13123121  0.92282959  1
  O  O114  1  0.31905951  0.14510846  0.42374873  1
  O  O115  1  0.82247799  0.14466509  0.42255148  1
  O  O116  1  0.24586774  0.35818310  0.42185343  1
  O  O117  1  0.74709243  0.36325891  0.42297569  1
  O  O118  1  0.43368469  0.50988716  0.42338131  1
  O  O119  1  0.93299585  0.51447247  0.42286810  1
  O  O120  1  0.18023378  0.48698234  0.07876913  1
  O  O121  1  0.68034366  0.48762255  0.07797439  1
  O  O122  1  0.07789566  0.64880643  0.07586511  1
  O  O123  1  0.57836592  0.65063728  0.07507154  1
  O  O124  1  0.25870438  0.86419847  0.08018573  1
  O  O125  1  0.76057068  0.86610282  0.08025730  1
  O  O126  1  0.18081645  0.87370841  0.57807713  1
  O  O127  1  0.68042273  0.87318921  0.57858732  1
  O  O128  1  0.25903295  0.65408740  0.57987803  1
  O  O129  1  0.75895945  0.65357221  0.58045310  1
  O  O130  1  0.07807747  0.50623762  0.57605161  1
  O  O131  1  0.57866971  0.50689248  0.57476683  1
  O  O132  1  0.15239973  0.82525478  0.25774028  1
  O  O133  1  0.65445289  0.83262331  0.25546246  1
  O  O134  1  0.26640962  0.69297485  0.25726803  1
  O  O135  1  0.76694776  0.68420130  0.25592984  1
  O  O136  1  0.07884916  0.46723584  0.25518326  1
  O  O137  1  0.59002090  0.48289753  0.25712374  1
  O  O138  1  0.15819850  0.48167735  0.75628937  1
  O  O139  1  0.65811640  0.48177861  0.75649627  1
  O  O140  1  0.08955146  0.69592507  0.75714315  1
  O  O141  1  0.58953601  0.69607566  0.75708844  1
  O  O142  1  0.26677723  0.84251117  0.75685879  1
  O  O143  1  0.76677293  0.84245097  0.75714561  1
loop_
_geom_bond_atom_site_label_1
_geom_bond_atom_site_label_2
_geom_bond_distance
_geom_bond_site_symmetry_2
Na0 O106 2.348416 1_555
Na0 O104 2.379128 1_555
Na0 O134 2.690976 1_545
Na0 O32 2.701395 1_555
Na0 O132 2.705289 1_545
Na0 O4 2.833686 1_555
Na0 O62 2.892277 1_545
Na1 O107 2.349181 1_555
Na1 O137 2.441698 1_555
Na1 O103 2.650797 1_555
Na1 O135 2.663927 1_555
Na1 O1 2.760207 1_555
Na1 O65 2.790794 1_555
Na1 O35 2.807460 1_555
Na1 O21 2.879465 1_555
Na2 O103 2.442745 1_555
Na2 O105 2.467425 1_555
Na2 O132 2.498704 1_655
Na2 O31 2.505319 1_555
Na2 O136 2.616958 1_655
Na2 O22 2.806333 1_655
Na2 O3 2.960311 1_555
Na2 O60 3.004565 1_655
Na3 O104 2.362832 1_555
Na3 O30 2.499339 1_555
Na3 O102 2.529599 1_555
Na3 O133 2.535768 1_555
Na3 O137 2.607581 1_555
Na3 O23 2.896896 1_555
Na4 O100 2.386977 1_555
Na4 O98 2.469366 1_555
Na4 O138 2.579607 1_555
Na4 O142 2.695140 1_555
Na4 O28 2.747869 1_555
Na4 O70 2.790296 1_555
Na4 O8 2.847884 1_555
Na5 O101 2.380633 1_555
Na5 O99 2.460452 1_555
Na5 O139 2.581272 1_555
Na5 O143 2.698849 1_555
Na5 O29 2.720686 1_555
Na5 O71 2.814907 1_555
Na5 O9 2.862592 1_555
Na6 O101 2.368471 1_555
Na6 O25 2.419062 1_555
Na6 O97 2.538055 1_555
Na6 O140 2.615631 1_655
Na6 O138 2.616955 1_655
Na6 O14 2.854976 1_655
Na7 O100 2.371352 1_555
Na7 O24 2.492808 1_555
Na7 O96 2.542395 1_555
Na7 O139 2.606001 1_555
Na7 O141 2.613017 1_555
Na7 O15 2.845657 1_555
Na8 O98 2.383658 1_555
Na8 O140 2.477892 1_545
Na8 O96 2.562162 1_555
Na8 O142 2.735374 1_545
Na8 O6 2.797009 1_555
Na8 O26 2.804811 1_555
Na8 O68 2.827990 1_545
Na8 O16 2.866636 1_545
Na9 O99 2.380674 1_555
Na9 O141 2.483562 1_545
Na9 O97 2.547092 1_555
Na9 O143 2.730093 1_545
Na9 O27 2.743999 1_555
Na9 O7 2.811869 1_555
Na9 O69 2.836490 1_545
Na9 O17 2.879731 1_545
Na10 O84 2.390157 1_565
Na10 O126 2.449165 1_555
Na10 O128 2.488681 1_555
Na10 O54 2.554080 1_555
Na10 O88 2.583618 1_555
Na11 O85 2.411032 1_565
Na11 O55 2.445441 1_555
Na11 O127 2.449571 1_555
Na11 O129 2.493204 1_555
Na11 O89 2.583961 1_555
Na11 O47 2.831675 1_565
Na12 O90 2.388543 1_555
Na12 O120 2.465584 1_555
Na12 O124 2.498828 1_555
Na12 O48 2.536844 1_554
Na12 O92 2.576002 1_565
Na12 O38 2.874482 1_555
Na12 O18 3.000636 1_555
Na12 O34 3.037570 1_555
Na13 O121 2.423309 1_555
Na13 O91 2.454040 1_555
Na13 O125 2.455028 1_555
Na13 O49 2.495466 1_554
Na13 O93 2.621017 1_565
Na13 O39 2.879290 1_555
Na14 O82 2.304348 1_555
Na14 O81 2.424971 1_555
Na14 O8 2.483609 1_555
Na14 O108 2.484017 1_555
Na14 O110 2.667721 1_555
Na14 O38 2.910390 1_556
Na14 O67 3.011160 1_555
Na14 O53 3.015855 1_555
Na15 O83 2.306535 1_555
Na15 O80 2.416988 1_655
Na15 O9 2.464865 1_555
Na15 O109 2.485126 1_555
Na15 O111 2.666962 1_555
Na16 O74 2.323713 1_545
Na16 O77 2.395155 1_555
Na16 O4 2.456225 1_555
Na16 O114 2.627031 1_555
Na16 O118 2.675798 1_555
Na16 O46 2.955837 1_555
Na16 O61 2.977177 1_555
Na16 O57 2.985751 1_555
Na17 O72 2.418005 1_545
Na17 O76 2.461005 1_555
Na17 O114 2.492670 1_555
Na17 O0 2.501415 1_555
Na17 O116 2.622045 1_555
Na17 O62 2.881602 1_545
Na17 O58 2.979888 1_545
Na17 O42 3.036067 1_555
Na18 O75 2.353733 1_545
Na18 O76 2.563261 1_655
Na18 O85 2.597456 1_555
Na18 O72 2.702052 1_645
Na18 O89 2.702842 1_545
Na18 O86 2.925423 1_655
Na19 O74 2.418718 1_555
Na19 O77 2.518421 1_565
Na19 O73 2.586398 1_555
Na19 O84 2.690044 1_565
Na19 O88 2.723485 1_555
Na19 O87 2.808183 1_565
Na20 O83 2.360396 1_545
Na20 O80 2.531159 1_645
Na20 O78 2.536483 1_655
Na20 O93 2.745610 1_556
Na20 O91 2.790873 1_546
Na20 O94 2.904989 1_656
Na21 O82 2.394032 1_555
Na21 O81 2.568611 1_555
Na21 O79 2.599911 1_565
Na21 O90 2.661710 1_556
Na21 O92 2.683946 1_566
Na21 O95 2.823968 1_566
Na22 O100 2.427316 1_555
Na22 O98 2.493230 1_555
Na22 O108 2.624222 1_555
Na22 O112 2.730608 1_555
Na22 O96 2.734770 1_555
Na22 O110 2.898170 1_555
Na23 O101 2.412113 1_555
Na23 O99 2.472877 1_555
Na23 O109 2.652876 1_555
Na23 O97 2.712455 1_555
Na23 O113 2.744690 1_555
Na23 O111 2.918485 1_555
Na24 O104 2.367140 1_555
Na24 O106 2.425346 1_555
Na24 O102 2.575650 1_555
Na24 O116 2.772246 1_555
Na24 O114 2.781639 1_555
Na24 O118 2.952817 1_555
Na25 O107 2.466731 1_555
Na25 O115 2.530653 1_555
Na25 O105 2.597101 1_555
Na25 O117 2.717881 1_555
Na25 O103 2.819755 1_555
Na25 O119 2.932454 1_555
Na26 O122 2.351382 1_555
Na26 O124 2.516664 1_555
Na26 O120 2.584952 1_555
Na26 O136 2.741203 1_555
Na26 O132 2.767381 1_555
Na26 O134 3.005678 1_555
Na27 O123 2.387459 1_555
Na27 O125 2.575517 1_555
Na27 O133 2.645413 1_555
Na27 O137 2.655533 1_555
Na27 O121 2.707729 1_555
Na28 O130 2.317795 1_555
Na28 O128 2.583655 1_555
Na28 O126 2.652594 1_555
Na28 O140 2.658712 1_555
Na28 O138 2.712513 1_555
Na29 O131 2.335241 1_555
Na29 O129 2.544920 1_555
Na29 O127 2.620052 1_555
Na29 O141 2.683825 1_555
Na29 O139 2.734613 1_555
O0 Si0 1.611988 1_555
O0 Zn0 1.990045 1_455
O1 Si1 1.603211 1_555
O1 Zn1 1.944493 1_555
O2 S0 1.458574 1_555
O2 Zn1 2.237870 1_565
O3 S1 1.460267 1_555
O3 Zn0 2.169533 1_565
O4 Si2 1.617112 1_555
O4 Zn1 1.941893 1_555
O5 S2 1.459933 1_555
O5 Zn0 2.058084 1_555
O6 Si3 1.598809 1_555
O6 Zn2 1.954554 1_445
O7 Si4 1.596868 1_555
O7 Zn3 1.955822 1_545
O8 Si6 1.610689 1_555
O8 Zn3 1.948980 1_555
O9 Si5 1.611801 1_655
O9 Zn2 1.944607 1_555
O10 S3 1.458968 1_555
O10 Zn3 2.215508 1_545
O11 S4 1.459923 1_555
O11 Zn2 2.209631 1_545
O12 S3 1.505157 1_565
O12 Zr1 2.226272 1_565
O13 S4 1.505124 1_565
O13 Zr0 2.219756 1_665
O14 Si3 1.673599 1_555
O14 Zr0 1.969322 1_555
O15 Si4 1.676378 1_555
O15 Zr1 1.962527 1_555
O16 Si5 1.665849 1_555
O16 Zr0 2.050690 1_565
O17 Si6 1.666916 1_555
O17 Zr1 2.047435 1_565
O18 S0 1.512889 1_555
O18 Zr3 2.214222 1_565
O19 S1 1.507932 1_555
O19 Zr2 2.162012 1_655
O20 S2 1.494416 1_455
O20 Zr2 2.285006 1_545
O21 Si2 1.671012 1_555
O21 Zr3 2.045383 1_555
O22 Si0 1.683202 1_565
O22 Zr2 1.953072 1_555
O23 Si1 1.684088 1_565
O23 Zr3 1.954171 1_565
O24 Si7 1.617047 1_555
O24 Zn4 1.942457 1_555
O25 Si8 1.618583 1_555
O25 Zn5 1.939534 1_555
O26 S5 1.458970 1_555
O26 Zn4 2.380744 1_555
O27 S6 1.467405 1_555
O27 Zn5 2.377891 1_555
O28 S7 1.468746 1_555
O28 Zn4 2.071249 1_555
O29 S8 1.478888 1_555
O29 Zn5 2.047976 1_555
O30 Si9 1.615535 1_555
O30 Zn6 1.957595 1_555
O31 Si10 1.619852 1_555
O31 Zn7 1.960616 1_555
O32 S9 1.470787 1_555
O32 Zn6 2.108856 1_555
O33 S10 1.457636 1_555
O33 Zn7 2.007456 1_555
O34 S11 1.455477 1_555
O34 Zn6 2.310892 1_555
O35 S12 1.467818 1_555
O35 Zn7 2.244917 1_555
O36 S11 1.512541 1_555
O36 Zr4 2.109871 1_554
O37 S12 1.509936 1_555
O37 Zr5 2.087678 1_554
O38 Si9 1.710158 1_555
O38 Zr4 1.964207 1_554
O39 Si10 1.690487 1_555
O39 Zr5 1.983109 1_554
O40 S9 1.497702 1_555
O40 Zr4 2.257331 1_554
O41 S10 1.499959 1_555
O41 Zr5 2.266804 1_554
O42 S5 1.515909 1_555
O42 Zr6 2.120578 1_555
O43 S6 1.501294 1_555
O43 Zr7 2.115870 1_555
O44 S7 1.501064 1_555
O44 Zr6 2.218466 1_555
O45 S8 1.485262 1_555
O45 Zr7 2.338385 1_555
O46 Si7 1.710499 1_555
O46 Zr6 1.951601 1_555
O47 Si8 1.688282 1_555
O47 Zr7 1.950925 1_555
O48 Si11 1.611276 1_555
O48 Zn8 1.953663 1_556
O49 Si12 1.611242 1_555
O49 Zn9 1.961198 1_556
O50 S13 1.445150 1_555
O50 Zn8 2.202264 1_556
O51 S14 1.448563 1_555
O51 Zn9 2.188324 1_556
O52 S15 1.459535 1_555
O52 Zn8 2.065696 1_556
O53 S16 1.457408 1_555
O53 Zn9 2.069464 1_556
O54 Si13 1.609154 1_555
O54 Zn10 1.965259 1_555
O55 Si14 1.620261 1_555
O55 Zn11 1.964718 1_555
O56 S17 1.453666 1_555
O56 Zn10 2.058126 1_555
O57 S18 1.465921 1_555
O57 Zn11 2.058621 1_555
O58 S19 1.460705 1_555
O58 Zn10 2.162139 1_555
O59 S20 1.450411 1_555
O59 Zn11 2.209185 1_555
O60 S19 1.524001 1_555
O60 Zr8 2.117725 1_555
O61 S20 1.525535 1_555
O61 Zr9 2.156385 1_555
O62 Si13 1.704146 1_555
O62 Zr8 1.978279 1_555
O63 Si14 1.671123 1_555
O63 Zr9 1.957064 1_555
O64 S17 1.506027 1_555
O64 Zr8 2.203090 1_555
O65 S18 1.510505 1_555
O65 Zr9 2.311776 1_555
O66 S13 1.535387 1_555
O66 Zr10 2.110414 1_555
O67 S14 1.538176 1_555
O67 Zr11 2.107072 1_555
O68 S15 1.517003 1_555
O68 Zr10 2.260448 1_555
O69 S16 1.516997 1_555
O69 Zr11 2.262485 1_555
O70 Si11 1.681828 1_555
O70 Zr10 1.998521 1_555
O71 Si12 1.678915 1_555
O71 Zr11 2.001607 1_555
O72 S19 1.460242 1_555
O72 Zn0 2.359760 1_465
O73 S20 1.445570 1_555
O73 Zn1 2.395289 1_565
O74 Si13 1.615022 1_555
O74 Zn1 2.161658 1_565
O75 Si14 1.621141 1_555
O75 Zn0 1.956025 1_565
O76 S17 1.474932 1_555
O76 Zn0 2.316027 1_455
O77 S18 1.480993 1_555
O77 Zn1 2.311752 1_555
O78 S13 1.443821 1_555
O78 Zn2 2.396963 1_445
O79 S14 1.440175 1_555
O79 Zn3 2.384773 1_545
O80 S15 1.474679 1_555
O80 Zn2 2.321193 1_455
O81 S16 1.472109 1_555
O81 Zn3 2.317552 1_555
O82 Si11 1.629223 1_555
O82 Zn3 2.085315 1_555
O83 Si12 1.630161 1_555
O83 Zn2 2.099487 1_555
O84 Si7 1.693604 1_555
O84 Zr1 2.100042 1_555
O85 Si8 1.694734 1_555
O85 Zr0 2.090291 1_655
O86 S5 1.501711 1_555
O86 Zr0 2.141772 1_555
O87 S6 1.506886 1_555
O87 Zr1 2.126662 1_555
O88 S7 1.509348 1_555
O88 Zr1 2.374968 1_565
O89 S8 1.518790 1_555
O89 Zr0 2.347409 1_665
O90 Si9 1.696488 1_555
O90 Zr3 2.109624 1_565
O91 Si10 1.718483 1_555
O91 Zr2 2.014003 1_655
O92 S9 1.512018 1_555
O92 Zr3 2.377815 1_555
O93 S10 1.523025 1_555
O93 Zr2 2.320242 1_645
O94 S11 1.511851 1_555
O94 Zr2 2.114354 1_545
O95 S12 1.497344 1_555
O95 Zr3 2.146842 1_555
O96 S3 1.467304 1_555
O96 Zn4 2.388394 1_555
O97 S4 1.466090 1_555
O97 Zn5 2.417490 1_555
O98 Si3 1.632281 1_555
O98 Zn4 2.103044 1_555
O99 Si4 1.631277 1_555
O99 Zn5 2.121852 1_555
O100 Si6 1.636156 1_555
O100 Zn4 2.031941 1_555
O101 Si5 1.634476 1_655
O101 Zn5 2.046336 1_555
O102 S0 1.454748 1_555
O102 Zn6 2.344044 1_555
O103 S1 1.470678 1_555
O103 Zn7 2.431728 1_555
O104 Si2 1.634352 1_555
O104 Zn6 2.053964 1_555
O105 S2 1.482638 1_555
O105 Zn7 2.272567 1_555
O106 Si0 1.612136 1_555
O106 Zn6 2.106421 1_555
O107 Si1 1.633084 1_555
O107 Zn7 2.005373 1_555
O108 Si11 1.721308 1_555
O108 Zr4 2.011842 1_555
O109 Si12 1.723917 1_555
O109 Zr5 2.003004 1_555
O110 S14 1.530376 1_555
O110 Zr4 2.163003 1_555
O111 S13 1.531084 1_655
O111 Zr5 2.147639 1_555
O112 S15 1.501792 1_545
O112 Zr4 2.300615 1_555
O113 S16 1.506310 1_545
O113 Zr5 2.280746 1_555
O114 Si13 1.726963 1_545
O114 Zr6 2.053642 1_555
O115 Si14 1.705855 1_545
O115 Zr7 1.976904 1_555
O116 S17 1.521460 1_555
O116 Zr6 2.318358 1_555
O117 S18 1.499087 1_555
O117 Zr7 2.318683 1_555
O118 S20 1.540869 1_555
O118 Zr6 2.120858 1_555
O119 S19 1.495018 1_655
O119 Zr7 2.157300 1_555
O120 S11 1.463591 1_555
O120 Zn8 2.348890 1_555
O121 S12 1.459557 1_555
O121 Zn9 2.333343 1_555
O122 Si10 1.610454 1_455
O122 Zn8 1.997541 1_555
O123 Si9 1.616568 1_555
O123 Zn9 1.971998 1_555
O124 S9 1.481850 1_565
O124 Zn8 2.290881 1_555
O125 S10 1.475567 1_565
O125 Zn9 2.328775 1_555
O126 S5 1.467036 1_565
O126 Zn10 2.374804 1_555
O127 S6 1.465703 1_565
O127 Zn11 2.362454 1_555
O128 S7 1.479093 1_555
O128 Zn10 2.308541 1_555
O129 S8 1.480694 1_555
O129 Zn11 2.290912 1_555
O130 Si8 1.617382 1_455
O130 Zn10 1.962577 1_555
O131 Si7 1.612764 1_555
O131 Zn11 2.001371 1_555
O132 Si0 1.725609 1_565
O132 Zr8 2.041375 1_555
O133 Si1 1.673704 1_565
O133 Zr9 2.010454 1_555
O134 S0 1.524382 1_555
O134 Zr8 2.138330 1_555
O135 S1 1.501294 1_555
O135 Zr9 2.172831 1_555
O136 S2 1.528048 1_455
O136 Zr8 2.312786 1_555
O137 Si2 1.669806 1_555
O137 Zr9 2.175104 1_555
O138 Si3 1.685535 1_555
O138 Zr10 2.036165 1_555
O139 Si4 1.685286 1_555
O139 Zr11 2.034129 1_555
O140 Si5 1.676434 1_555
O140 Zr10 2.142560 1_555
O141 Si6 1.675400 1_555
O141 Zr11 2.145008 1_555
O142 S3 1.514170 1_565
O142 Zr10 2.182044 1_555
O143 S4 1.513912 1_565
O143 Zr11 2.178560 1_555
