# generated using pymatgen
data_LaMgGa
_symmetry_space_group_name_H-M   'P 1'
_cell_length_a   7.56390803
_cell_length_b   7.56390955
_cell_length_c   4.63392501
_cell_angle_alpha   90.00000000
_cell_angle_beta   90.00000000
_cell_angle_gamma   119.99999795
_symmetry_Int_Tables_number   1
_chemical_formula_structural   LaMgGa
_chemical_formula_sum   'La3 Mg3 Ga3'
_cell_volume   229.60017162
_cell_formula_units_Z   3
loop_
 _symmetry_equiv_pos_site_id
 _symmetry_equiv_pos_as_xyz
  1  'x, y, z'
loop_
 _atom_site_type_symbol
 _atom_site_label
 _atom_site_symmetry_multiplicity
 _atom_site_fract_x
 _atom_site_fract_y
 _atom_site_fract_z
 _atom_site_occupancy
  La  La0  1  1.00000000  0.57771948  0.00000000  1
  La  La1  1  0.42228052  0.42228052  -0.00000000  1
  La  La2  1  0.57771948  0.00000000  0.00000000  1
  Mg  Mg0  1  1.00000000  0.24240612  0.50000000  1
  Mg  Mg1  1  0.75759388  0.75759388  0.50000000  1
  Mg  Mg2  1  0.24240612  0.00000000  0.50000000  1
  Ga  Ga0  1  0.33333300  0.66666700  0.50000000  1
  Ga  Ga1  1  0.66666700  0.33333300  0.50000000  1
  Ga  Ga2  1  0.00000000  0.00000000  0.00000000  1
loop_
_geom_bond_atom_site_label_1
_geom_bond_atom_site_label_2
_geom_bond_distance
_geom_bond_site_symmetry_2
La0 Mg0 3.435263 1_554
La0 Mg0 3.435263 1_555
La0 Mg1 3.616062 1_555
La0 Mg1 3.616062 1_554
La0 Mg2 3.616063 1_664
La0 Mg2 3.616063 1_665
La0 La1 3.916622 1_555
La0 La1 3.916622 1_655
La0 La2 3.916622 1_665
La0 La2 3.916622 1_555
La1 Mg1 3.435263 1_554
La1 Mg1 3.435263 1_555
La1 Mg0 3.616062 1_455
La1 Mg0 3.616062 1_454
La1 Mg2 3.616063 1_554
La1 Mg2 3.616063 1_555
La1 La2 3.916622 1_555
La1 La2 3.916623 1_565
La2 Mg2 3.435263 1_554
La2 Mg2 3.435263 1_555
La2 Mg0 3.616062 1_554
La2 Mg0 3.616062 1_555
La2 Mg1 3.616063 1_545
La2 Mg1 3.616063 1_544
Mg0 Mg2 3.175781 1_655
Mg0 Mg1 3.175781 1_545
Mg1 Mg2 3.175780 1_665
Ga0 Mg2 2.926436 1_565
Ga0 Mg0 2.926442 1_455
Ga0 Mg1 2.926443 1_555
Ga0 La0 3.237531 1_455
Ga0 La0 3.237531 1_456
Ga0 La2 3.237533 1_565
Ga0 La2 3.237533 1_566
Ga0 La1 3.237537 1_556
Ga0 La1 3.237537 1_555
Ga1 Mg0 2.926436 1_555
Ga1 Mg2 2.926441 1_555
Ga1 Mg1 2.926444 1_555
Ga1 La2 3.237532 1_556
Ga1 La2 3.237532 1_555
Ga1 La0 3.237533 1_556
Ga1 La0 3.237533 1_555
Ga1 La1 3.237537 1_556
Ga1 La1 3.237537 1_555
Ga2 Mg2 2.954687 1_555
Ga2 Mg2 2.954687 1_554
Ga2 Mg1 2.954687 1_444
Ga2 Mg1 2.954687 1_445
Ga2 Mg0 2.954687 1_455
Ga2 Mg0 2.954687 1_454
Ga2 La2 3.194091 1_455
Ga2 La1 3.194091 1_555
Ga2 La0 3.194092 1_445
