# generated using pymatgen
data_Na4CaY(PO4)3
_symmetry_space_group_name_H-M   'P 1'
_cell_length_a   9.49145284
_cell_length_b   9.49145249
_cell_length_c   22.68326270
_cell_angle_alpha   90.00000000
_cell_angle_beta   90.00000000
_cell_angle_gamma   120.00000123
_symmetry_Int_Tables_number   1
_chemical_formula_structural   Na4CaY(PO4)3
_chemical_formula_sum   'Na24 Ca6 Y6 P18 O72'
_cell_volume   1769.70762057
_cell_formula_units_Z   6
loop_
 _symmetry_equiv_pos_site_id
 _symmetry_equiv_pos_as_xyz
  1  'x, y, z'
loop_
 _atom_site_type_symbol
 _atom_site_label
 _atom_site_symmetry_multiplicity
 _atom_site_fract_x
 _atom_site_fract_y
 _atom_site_fract_z
 _atom_site_occupancy
  Na  Na0  1  0.63983331  0.01093420  0.24591474  1
  Na  Na1  1  0.37110089  0.36016669  0.24591474  1
  Na  Na2  1  0.98906580  0.62889911  0.24591474  1
  Na  Na3  1  0.63983331  0.62889911  0.74591474  1
  Na  Na4  1  0.98906580  0.36016669  0.74591474  1
  Na  Na5  1  0.37110089  0.01093420  0.74591474  1
  Na  Na6  1  0.30650031  0.34426720  0.57924774  1
  Na  Na7  1  0.03776789  0.69349969  0.57924774  1
  Na  Na8  1  0.65573280  0.96223211  0.57924774  1
  Na  Na9  1  0.30650031  0.96223211  0.07924774  1
  Na  Na10  1  0.65573280  0.69349969  0.07924774  1
  Na  Na11  1  0.03776789  0.34426720  0.07924774  1
  Na  Na12  1  0.97316631  0.67760120  0.91258174  1
  Na  Na13  1  0.70443389  0.02683369  0.91258174  1
  Na  Na14  1  0.32239880  0.29556611  0.91258174  1
  Na  Na15  1  0.97316631  0.29556611  0.41258174  1
  Na  Na16  1  0.32239880  0.02683369  0.41258174  1
  Na  Na17  1  0.70443389  0.67760120  0.41258174  1
  Na  Na18  1  -0.00000000  -0.00000000  0.49576789  1
  Na  Na19  1  -0.00000000  -0.00000000  0.99576789  1
  Na  Na20  1  0.66666700  0.33333300  0.82910089  1
  Na  Na21  1  0.66666700  0.33333300  0.32910089  1
  Na  Na22  1  0.33333300  0.66666700  0.16243489  1
  Na  Na23  1  0.33333300  0.66666700  0.66243489  1
  Ca  Ca0  1  -0.00000000  -0.00000000  0.34638169  1
  Ca  Ca1  1  -0.00000000  -0.00000000  0.84638169  1
  Ca  Ca2  1  0.66666700  0.33333300  0.67971469  1
  Ca  Ca3  1  0.66666700  0.33333300  0.17971469  1
  Ca  Ca4  1  0.33333300  0.66666700  0.01304869  1
  Ca  Ca5  1  0.33333300  0.66666700  0.51304869  1
  Y  Y0  1  -0.00000000  -0.00000000  0.65258985  1
  Y  Y1  1  -0.00000000  -0.00000000  0.15258985  1
  Y  Y2  1  0.66666700  0.33333300  0.98592285  1
  Y  Y3  1  0.66666700  0.33333300  0.48592285  1
  Y  Y4  1  0.33333300  0.66666700  0.31925685  1
  Y  Y5  1  0.33333300  0.66666700  0.81925685  1
  P  P0  1  0.30838617  0.99693801  0.25159801  1
  P  P1  1  0.68855184  0.69161383  0.25159801  1
  P  P2  1  0.00306199  0.31144816  0.25159801  1
  P  P3  1  0.30838617  0.31144816  0.75159801  1
  P  P4  1  0.00306199  0.69161383  0.75159801  1
  P  P5  1  0.68855184  0.99693801  0.75159801  1
  P  P6  1  0.97505317  0.33027101  0.58493101  1
  P  P7  1  0.35521884  0.02494683  0.58493101  1
  P  P8  1  0.66972899  0.64478116  0.58493101  1
  P  P9  1  0.97505317  0.64478116  0.08493101  1
  P  P10  1  0.66972899  0.02494683  0.08493101  1
  P  P11  1  0.35521884  0.33027101  0.08493101  1
  P  P12  1  0.64171917  0.66360501  0.91826501  1
  P  P13  1  0.02188484  0.35828083  0.91826501  1
  P  P14  1  0.33639499  0.97811516  0.91826501  1
  P  P15  1  0.64171917  0.97811516  0.41826501  1
  P  P16  1  0.33639499  0.35828083  0.41826501  1
  P  P17  1  0.02188484  0.66360501  0.41826501  1
  O  O0  1  0.22594904  0.01024267  0.30779386  1
  O  O1  1  0.78429362  0.77405096  0.30779386  1
  O  O2  1  0.98975733  0.21570638  0.30779386  1
  O  O3  1  0.22594904  0.21570638  0.80779386  1
  O  O4  1  0.98975733  0.77405096  0.80779386  1
  O  O5  1  0.78429362  0.01024267  0.80779386  1
  O  O6  1  0.78092945  0.98420411  0.69655182  1
  O  O7  1  0.20327465  0.21907055  0.69655182  1
  O  O8  1  0.01579589  0.79672535  0.69655182  1
  O  O9  1  0.78092945  0.79672535  0.19655182  1
  O  O10  1  0.01579589  0.21907055  0.19655182  1
  O  O11  1  0.20327465  0.98420411  0.19655182  1
  O  O12  1  0.89261604  0.34357567  0.64112686  1
  O  O13  1  0.45096062  0.10738396  0.64112686  1
  O  O14  1  0.65642433  0.54903938  0.64112686  1
  O  O15  1  0.89261604  0.54903938  0.14112686  1
  O  O16  1  0.65642433  0.10738396  0.14112686  1
  O  O17  1  0.45096062  0.34357567  0.14112686  1
  O  O18  1  0.44759645  0.31753711  0.02988482  1
  O  O19  1  0.86994165  0.55240355  0.02988482  1
  O  O20  1  0.68246289  0.13005835  0.02988482  1
  O  O21  1  0.44759645  0.13005835  0.52988482  1
  O  O22  1  0.68246289  0.55240355  0.52988482  1
  O  O23  1  0.86994165  0.31753711  0.52988482  1
  O  O24  1  0.55928204  0.67690967  0.97446086  1
  O  O25  1  0.11762662  0.44071796  0.97446086  1
  O  O26  1  0.32309033  0.88237338  0.97446086  1
  O  O27  1  0.55928204  0.88237338  0.47446086  1
  O  O28  1  0.32309033  0.44071796  0.47446086  1
  O  O29  1  0.11762662  0.67690967  0.47446086  1
  O  O30  1  0.11426245  0.65087111  0.36321882  1
  O  O31  1  0.53660765  0.88573755  0.36321882  1
  O  O32  1  0.34912889  0.46339235  0.36321882  1
  O  O33  1  0.11426245  0.46339235  0.86321882  1
  O  O34  1  0.34912889  0.88573755  0.86321882  1
  O  O35  1  0.53660765  0.65087111  0.86321882  1
  O  O36  1  -0.00128887  0.81408986  0.41537547  1
  O  O37  1  0.81537873  0.00128887  0.41537547  1
  O  O38  1  0.18591014  0.18462127  0.41537547  1
  O  O39  1  -0.00128887  0.18462127  0.91537547  1
  O  O40  1  0.18591014  0.00128887  0.91537547  1
  O  O41  1  0.81537873  0.81408986  0.91537547  1
  O  O42  1  0.98834846  0.17187614  0.58451961  1
  O  O43  1  0.18352767  0.01165154  0.58451961  1
  O  O44  1  0.82812386  0.81647233  0.58451961  1
  O  O45  1  0.98834846  0.81647233  0.08451961  1
  O  O46  1  0.82812386  0.01165154  0.08451961  1
  O  O47  1  0.18352767  0.17187614  0.08451961  1
  O  O48  1  0.66537813  0.14742286  0.74870847  1
  O  O49  1  0.48204573  0.33462187  0.74870847  1
  O  O50  1  0.85257714  0.51795427  0.74870847  1
  O  O51  1  0.66537813  0.51795427  0.24870847  1
  O  O52  1  0.85257714  0.33462187  0.24870847  1
  O  O53  1  0.48204573  0.14742286  0.24870847  1
  O  O54  1  0.65501546  0.50520914  0.91785261  1
  O  O55  1  0.85019467  0.34498454  0.91785261  1
  O  O56  1  0.49479086  0.14980533  0.91785261  1
  O  O57  1  0.65501546  0.14980533  0.41785261  1
  O  O58  1  0.49479086  0.34498454  0.41785261  1
  O  O59  1  0.85019467  0.50520914  0.41785261  1
  O  O60  1  0.33204413  0.48075686  0.08204247  1
  O  O61  1  0.14871173  0.66795587  0.08204247  1
  O  O62  1  0.51924314  0.85128827  0.08204247  1
  O  O63  1  0.33204413  0.85128827  0.58204247  1
  O  O64  1  0.51924314  0.66795587  0.58204247  1
  O  O65  1  0.14871173  0.48075686  0.58204247  1
  O  O66  1  0.32168146  0.83854314  0.25118661  1
  O  O67  1  0.51686067  0.67831854  0.25118661  1
  O  O68  1  0.16145686  0.48313933  0.25118661  1
  O  O69  1  0.32168146  0.48313933  0.75118661  1
  O  O70  1  0.16145686  0.67831854  0.75118661  1
  O  O71  1  0.51686067  0.83854314  0.75118661  1
loop_
_geom_bond_atom_site_label_1
_geom_bond_atom_site_label_2
_geom_bond_distance
_geom_bond_site_symmetry_2
Na0 O53 2.421844 1_555
Na0 O16 2.523586 1_555
Na0 O66 2.620938 1_545
Na0 O52 2.704909 1_555
Na0 O67 2.767398 1_545
Na0 O31 2.878854 1_545
Na1 O51 2.421852 1_555
Na1 O17 2.523589 1_555
Na1 O67 2.620939 1_555
Na1 O53 2.704916 1_555
Na1 O68 2.767407 1_555
Na1 O32 2.878857 1_555
Na2 O52 2.421852 1_555
Na2 O15 2.523587 1_555
Na2 O68 2.620930 1_655
Na2 O51 2.704907 1_555
Na2 O66 2.767400 1_655
Na2 O30 2.878853 1_655
Na3 O49 2.421851 1_555
Na3 O14 2.523589 1_555
Na3 O69 2.620939 1_555
Na3 O50 2.704916 1_555
Na3 O71 2.767407 1_555
Na3 O35 2.878857 1_555
Na4 O50 2.421844 1_555
Na4 O12 2.523586 1_555
Na4 O70 2.620938 1_655
Na4 O48 2.704909 1_555
Na4 O69 2.767398 1_655
Na4 O33 2.878854 1_655
Na5 O48 2.421852 1_555
Na5 O13 2.523587 1_555
Na5 O71 2.620930 1_545
Na5 O49 2.704907 1_555
Na5 O70 2.767400 1_545
Na5 O34 2.878853 1_545
Na6 O65 2.421861 1_555
Na6 O28 2.523569 1_555
Na6 O42 2.620938 1_455
Na6 O64 2.704915 1_555
Na6 O43 2.767398 1_555
Na6 O7 2.878854 1_555
Na7 O63 2.421845 1_555
Na7 O29 2.523563 1_555
Na7 O43 2.620939 1_565
Na7 O65 2.704900 1_555
Na7 O44 2.767407 1_455
Na7 O8 2.878857 1_555
Na8 O64 2.421844 1_555
Na8 O27 2.523567 1_555
Na8 O44 2.620930 1_555
Na8 O63 2.704918 1_555
Na8 O42 2.767400 1_565
Na8 O6 2.878853 1_555
Na9 O61 2.421844 1_555
Na9 O26 2.523563 1_554
Na9 O45 2.620939 1_455
Na9 O62 2.704900 1_555
Na9 O47 2.767407 1_565
Na9 O11 2.878857 1_555
Na10 O62 2.421861 1_555
Na10 O24 2.523569 1_554
Na10 O46 2.620938 1_565
Na10 O60 2.704915 1_555
Na10 O45 2.767398 1_555
Na10 O9 2.878854 1_555
Na11 O60 2.421844 1_555
Na11 O25 2.523567 1_554
Na11 O47 2.620930 1_555
Na11 O61 2.704918 1_555
Na11 O46 2.767400 1_455
Na11 O10 2.878853 1_555
Na12 O41 2.421844 1_555
Na12 O4 2.523586 1_555
Na12 O54 2.620930 1_555
Na12 O40 2.704909 1_665
Na12 O55 2.767407 1_555
Na12 O19 2.878834 1_556
Na13 O39 2.421852 1_655
Na13 O5 2.523589 1_555
Na13 O55 2.620929 1_555
Na13 O41 2.704916 1_545
Na13 O56 2.767390 1_555
Na13 O20 2.878830 1_556
Na14 O40 2.421852 1_555
Na14 O3 2.523587 1_555
Na14 O56 2.620946 1_555
Na14 O39 2.704907 1_555
Na14 O54 2.767405 1_555
Na14 O18 2.878837 1_556
Na15 O37 2.421851 1_555
Na15 O2 2.523589 1_555
Na15 O57 2.620929 1_555
Na15 O38 2.704916 1_655
Na15 O59 2.767390 1_555
Na15 O23 2.878830 1_555
Na16 O38 2.421844 1_555
Na16 O0 2.523586 1_555
Na16 O58 2.620930 1_555
Na16 O36 2.704909 1_545
Na16 O57 2.767408 1_555
Na16 O21 2.878834 1_555
Na17 O36 2.421852 1_655
Na17 O1 2.523587 1_555
Na17 O59 2.620946 1_555
Na17 O37 2.704907 1_565
Na17 O58 2.767405 1_555
Na17 O22 2.878837 1_555
Na18 O36 2.533299 1_545
Na18 O38 2.533299 1_555
Na18 O37 2.533299 1_455
Na18 O44 2.628088 1_445
Na18 O43 2.628088 1_555
Na18 O42 2.628088 1_455
Na19 O41 2.533299 1_445
Na19 O39 2.533299 1_555
Na19 O40 2.533299 1_555
Na19 O45 2.628088 1_446
Na19 O47 2.628088 1_556
Na19 O46 2.628088 1_456
Na20 O48 2.533299 1_555
Na20 O50 2.533299 1_555
Na20 O49 2.533299 1_555
Na20 O56 2.628088 1_555
Na20 O55 2.628088 1_555
Na20 O54 2.628088 1_555
Na21 O53 2.533299 1_555
Na21 O51 2.533299 1_555
Na21 O52 2.533299 1_555
Na21 O57 2.628088 1_555
Na21 O59 2.628088 1_555
Na21 O58 2.628088 1_555
Na22 O60 2.533299 1_555
Na22 O62 2.533299 1_555
Na22 O61 2.533299 1_555
Na22 O68 2.628088 1_555
Na22 O67 2.628088 1_555
Na22 O66 2.628088 1_555
Na23 O65 2.533299 1_555
Na23 O63 2.533299 1_555
Na23 O64 2.533299 1_555
Na23 O69 2.628088 1_555
Na23 O71 2.628088 1_555
Na23 O70 2.628088 1_555
Ca0 O1 2.272960 1_445
Ca0 O0 2.272960 1_555
Ca0 O2 2.272960 1_455
Ca0 O36 2.354031 1_545
Ca0 O38 2.354031 1_555
Ca0 O37 2.354031 1_455
Ca1 O4 2.272960 1_445
Ca1 O3 2.272960 1_555
Ca1 O5 2.272961 1_455
Ca1 O41 2.354031 1_445
Ca1 O39 2.354031 1_555
Ca1 O40 2.354031 1_555
Ca2 O13 2.272960 1_555
Ca2 O12 2.272960 1_555
Ca2 O14 2.272960 1_555
Ca2 O48 2.354031 1_555
Ca2 O50 2.354031 1_555
Ca2 O49 2.354031 1_555
Ca3 O16 2.272960 1_555
Ca3 O15 2.272960 1_555
Ca3 O17 2.272961 1_555
Ca3 O53 2.354031 1_555
Ca3 O51 2.354031 1_555
Ca3 O52 2.354031 1_555
Ca4 O25 2.272960 1_554
Ca4 O24 2.272960 1_554
Ca4 O26 2.272960 1_554
Ca4 O60 2.354031 1_555
Ca4 O62 2.354031 1_555
Ca4 O61 2.354031 1_555
Ca5 O28 2.272960 1_555
Ca5 O27 2.272960 1_555
Ca5 O29 2.272961 1_555
Ca5 O65 2.354031 1_555
Ca5 O63 2.354031 1_555
Ca5 O64 2.354031 1_555
O0 P0 1.533575 1_545
O1 P1 1.533575 1_555
O2 P2 1.533575 1_655
O3 P3 1.533575 1_555
O4 P4 1.533575 1_655
O5 P5 1.533575 1_545
O6 P5 1.564744 1_555
O6 Y0 2.242460 1_665
O7 P3 1.564744 1_555
O7 Y0 2.242460 1_555
O8 P4 1.564744 1_555
O8 Y0 2.242460 1_565
O9 P1 1.564744 1_555
O9 Y1 2.242460 1_665
O10 P2 1.564744 1_555
O10 Y1 2.242460 1_555
O11 P0 1.564744 1_555
O11 Y1 2.242460 1_565
O12 P6 1.533575 1_555
O13 P7 1.533575 1_555
O14 P8 1.533575 1_555
O15 P9 1.533575 1_555
O16 P10 1.533575 1_555
O17 P11 1.533575 1_555
O18 P11 1.564744 1_555
O18 Y2 2.242460 1_554
O19 P9 1.564744 1_555
O19 Y2 2.242460 1_554
O20 P10 1.564744 1_555
O20 Y2 2.242460 1_554
O21 P7 1.564744 1_555
O21 Y3 2.242460 1_555
O22 P8 1.564744 1_555
O22 Y3 2.242460 1_555
O23 P6 1.564744 1_555
O23 Y3 2.242460 1_555
O24 P12 1.533575 1_555
O25 P13 1.533575 1_555
O26 P14 1.533575 1_555
O27 P15 1.533575 1_555
O28 P16 1.533575 1_555
O29 P17 1.533575 1_555
O30 P17 1.564744 1_555
O30 Y4 2.242460 1_555
O31 P15 1.564744 1_555
O31 Y4 2.242460 1_555
O32 P16 1.564744 1_555
O32 Y4 2.242460 1_555
O33 P13 1.564744 1_555
O33 Y5 2.242460 1_555
O34 P14 1.564744 1_555
O34 Y5 2.242460 1_555
O35 P12 1.564744 1_555
O35 Y5 2.242460 1_555
O36 P17 1.551430 1_555
O37 P15 1.551439 1_545
O38 P16 1.551436 1_555
O39 P13 1.551439 1_555
O40 P14 1.551430 1_545
O41 P12 1.551436 1_555
O42 P6 1.570328 1_555
O42 Y0 2.288682 1_655
O43 P7 1.570338 1_555
O43 Y0 2.288682 1_555
O44 P8 1.570334 1_555
O44 Y0 2.288682 1_665
O45 P9 1.570338 1_555
O45 Y1 2.288682 1_665
O46 P10 1.570328 1_555
O46 Y1 2.288682 1_655
O47 P11 1.570334 1_555
O47 Y1 2.288682 1_555
O48 P5 1.551430 1_545
O49 P3 1.551439 1_555
O50 P4 1.551436 1_655
O51 P1 1.551439 1_555
O52 P2 1.551430 1_655
O53 P0 1.551436 1_545
O54 P12 1.570343 1_555
O54 Y2 2.288682 1_555
O55 P13 1.570325 1_655
O55 Y2 2.288682 1_555
O56 P14 1.570333 1_545
O56 Y2 2.288682 1_555
O57 P15 1.570324 1_545
O57 Y3 2.288682 1_555
O58 P16 1.570343 1_555
O58 Y3 2.288682 1_555
O59 P17 1.570333 1_655
O59 Y3 2.288682 1_555
O60 P11 1.551444 1_555
O61 P9 1.551425 1_455
O62 P10 1.551433 1_565
O63 P7 1.551425 1_565
O64 P8 1.551444 1_555
O65 P6 1.551433 1_455
O66 P0 1.570328 1_555
O66 Y4 2.288682 1_555
O67 P1 1.570338 1_555
O67 Y4 2.288682 1_555
O68 P2 1.570334 1_555
O68 Y4 2.288682 1_555
O69 P3 1.570338 1_555
O69 Y5 2.288682 1_555
O70 P4 1.570328 1_555
O70 Y5 2.288682 1_555
O71 P5 1.570334 1_555
O71 Y5 2.288682 1_555
