# generated using pymatgen
data_MgTi4Zn2O10
_symmetry_space_group_name_H-M   'P 1'
_cell_length_a   3.63674615
_cell_length_b   4.91889837
_cell_length_c   12.45854100
_cell_angle_alpha   90.00000000
_cell_angle_beta   90.00000000
_cell_angle_gamma   90.00000000
_symmetry_Int_Tables_number   1
_chemical_formula_structural   MgTi4Zn2O10
_chemical_formula_sum   'Mg1 Ti4 Zn2 O10'
_cell_volume   222.86815774
_cell_formula_units_Z   1
loop_
 _symmetry_equiv_pos_site_id
 _symmetry_equiv_pos_as_xyz
  1  'x, y, z'
loop_
 _atom_site_type_symbol
 _atom_site_label
 _atom_site_symmetry_multiplicity
 _atom_site_fract_x
 _atom_site_fract_y
 _atom_site_fract_z
 _atom_site_occupancy
  Mg  Mg0  1  0.75000000  0.08588490  0.75000000  1
  Ti  Ti0  1  0.24999900  0.42856310  0.11000129  1
  Ti  Ti1  1  0.75000000  0.62176615  0.92645310  1
  Ti  Ti2  1  0.75000000  0.62176615  0.57354690  1
  Ti  Ti3  1  0.24999900  0.42856310  0.38999771  1
  Zn  Zn0  1  0.75000000  0.89531187  0.25000000  1
  Zn  Zn1  1  0.24999900  0.70620319  0.75000000  1
  O  O0  1  0.75000000  0.48187880  0.75000000  1
  O  O1  1  0.24999900  0.60457222  0.25000000  1
  O  O2  1  0.75000000  0.55795322  0.08578412  1
  O  O3  1  0.24999900  0.48701095  0.94600748  1
  O  O4  1  0.75000000  0.55795322  0.41421488  1
  O  O5  1  0.24999900  0.48701095  0.55399252  1
  O  O6  1  0.24999900  0.08661302  0.35588514  1
  O  O7  1  0.75000000  0.96588907  0.58968211  1
  O  O8  1  0.75000000  0.96588907  0.91031689  1
  O  O9  1  0.24999900  0.08661302  0.14411586  1
loop_
_geom_bond_atom_site_label_1
_geom_bond_atom_site_label_2
_geom_bond_distance
_geom_bond_site_symmetry_2
Mg0 O0 1.947854 1_555
Mg0 O8 2.082704 1_545
Mg0 O7 2.082716 1_545
O0 Zn1 2.126975 1_655
O0 Zn1 2.126981 1_555
O0 Ti2 2.303520 1_555
O0 Ti1 2.303520 1_555
O1 Ti3 1.947223 1_555
O1 Ti0 1.947234 1_555
O1 Zn0 2.313376 1_455
O1 Zn0 2.313381 1_555
O2 Ti0 1.950019 1_655
O2 Ti0 1.950026 1_555
O2 Ti1 2.009696 1_554
O3 Ti1 1.950688 1_455
O3 Ti1 1.950695 1_555
O3 Ti0 2.063252 1_556
O4 Ti3 1.950019 1_655
O4 Ti3 1.950026 1_555
O4 Ti2 2.009708 1_555
O5 Ti2 1.950688 1_455
O5 Ti2 1.950695 1_555
O5 Ti3 2.063265 1_555
O6 Ti3 1.734878 1_555
O6 Zn0 2.435601 1_445
O6 Zn0 2.435606 1_545
O7 Ti2 1.704600 1_555
O8 Ti1 1.704602 1_555
O9 Ti0 1.734884 1_555
O9 Zn0 2.435594 1_445
O9 Zn0 2.435600 1_545
