# generated using pymatgen
data_MgH2(SeO4)2
_symmetry_space_group_name_H-M   'P 1'
_cell_length_a   8.69061900
_cell_length_b   5.21220300
_cell_length_c   8.57274949
_cell_angle_alpha   61.52966721
_cell_angle_beta   90.00000000
_cell_angle_gamma   90.00000000
_symmetry_Int_Tables_number   1
_chemical_formula_structural   MgH2(SeO4)2
_chemical_formula_sum   'Mg2 H4 Se4 O16'
_cell_volume   341.36004872
_cell_formula_units_Z   2
loop_
 _symmetry_equiv_pos_site_id
 _symmetry_equiv_pos_as_xyz
  1  'x, y, z'
loop_
 _atom_site_type_symbol
 _atom_site_label
 _atom_site_symmetry_multiplicity
 _atom_site_fract_x
 _atom_site_fract_y
 _atom_site_fract_z
 _atom_site_occupancy
  Mg  Mg0  1  0.00000000  0.00000000  0.00000000  1
  Mg  Mg1  1  0.50000000  0.00000000  0.50000000  1
  H  H0  1  0.98681800  0.44177600  0.34739200  1
  H  H1  1  0.48681800  0.55822400  0.15260800  1
  H  H2  1  0.01318200  0.55822400  0.65260800  1
  H  H3  1  0.51318200  0.44177600  0.84739200  1
  Se  Se0  1  0.81824300  0.66439000  0.78497100  1
  Se  Se1  1  0.31824300  0.33561000  0.71502900  1
  Se  Se2  1  0.68175700  0.66439000  0.28497100  1
  Se  Se3  1  0.18175700  0.33561000  0.21502900  1
  O  O0  1  0.08140400  0.31292900  0.39809300  1
  O  O1  1  0.58140400  0.68707100  0.10190700  1
  O  O2  1  0.35110900  0.65808300  0.54185400  1
  O  O3  1  0.85110900  0.34191700  0.95814600  1
  O  O4  1  0.64889100  0.34191700  0.45814600  1
  O  O5  1  0.14889100  0.65808300  0.04185400  1
  O  O6  1  0.36823900  0.05827100  0.68489900  1
  O  O7  1  0.86823900  0.94172900  0.81510100  1
  O  O8  1  0.63176100  0.94172900  0.31510100  1
  O  O9  1  0.13176100  0.05827100  0.18489900  1
  O  O10  1  0.13519800  0.30522200  0.77970800  1
  O  O11  1  0.63519800  0.69477800  0.72029200  1
  O  O12  1  0.86480200  0.69477800  0.22029200  1
  O  O13  1  0.36480200  0.30522200  0.27970800  1
  O  O14  1  0.41859600  0.31292900  0.89809300  1
  O  O15  1  0.91859600  0.68707100  0.60190700  1
loop_
_geom_bond_atom_site_label_1
_geom_bond_atom_site_label_2
_geom_bond_distance
_geom_bond_site_symmetry_2
Mg0 O3 2.090320 1_454
Mg0 O5 2.090320 1_545
Mg0 O9 2.091645 1_555
Mg0 O7 2.091645 1_444
Mg0 O10 2.147899 1_554
Mg0 O12 2.147899 1_445
Mg1 O4 2.090320 1_555
Mg1 O2 2.090320 1_545
Mg1 O6 2.091645 1_555
Mg1 O8 2.091645 1_545
Mg1 O11 2.147899 1_545
Mg1 O13 2.147899 1_555
H0 O0 1.018497 1_655
H0 O12 1.637290 1_555
H1 O1 1.018497 1_555
H1 O13 1.637290 1_555
H2 O15 1.018497 1_455
H2 O10 1.637290 1_555
H3 O14 1.018497 1_555
H3 O11 1.637290 1_555
O0 Se3 1.749457 1_555
O1 Se2 1.749457 1_555
O2 Se1 1.652763 1_555
O3 Se0 1.652763 1_555
O4 Se2 1.652763 1_555
O5 Se3 1.652763 1_555
O6 Se1 1.643501 1_555
O7 Se0 1.643501 1_555
O8 Se2 1.643501 1_555
O9 Se3 1.643501 1_555
O10 Se1 1.667142 1_555
O11 Se0 1.667142 1_555
O12 Se2 1.667142 1_555
O13 Se3 1.667142 1_555
O14 Se1 1.749457 1_555
O15 Se0 1.749457 1_555
