# generated using pymatgen
data_Rb5Au3O2
_symmetry_space_group_name_H-M   'P 1'
_cell_length_a   5.68718062
_cell_length_b   7.37208349
_cell_length_c   14.32534903
_cell_angle_alpha   90.00000000
_cell_angle_beta   90.00000000
_cell_angle_gamma   90.00000000
_symmetry_Int_Tables_number   1
_chemical_formula_structural   Rb5Au3O2
_chemical_formula_sum   'Rb10 Au6 O4'
_cell_volume   600.60988887
_cell_formula_units_Z   2
loop_
 _symmetry_equiv_pos_site_id
 _symmetry_equiv_pos_as_xyz
  1  'x, y, z'
loop_
 _atom_site_type_symbol
 _atom_site_label
 _atom_site_symmetry_multiplicity
 _atom_site_fract_x
 _atom_site_fract_y
 _atom_site_fract_z
 _atom_site_occupancy
  Rb  Rb0  1  0.50000000  0.17140546  0.89702078  1
  Rb  Rb1  1  0.50000000  0.82859454  0.10297922  1
  Rb  Rb2  1  0.00000000  0.00000000  0.50000000  1
  Rb  Rb3  1  0.00000000  0.50000000  0.00000000  1
  Rb  Rb4  1  0.00000000  0.11485526  0.23534296  1
  Rb  Rb5  1  0.00000000  0.88514474  0.76465704  1
  Rb  Rb6  1  0.00000000  0.61485526  0.26465704  1
  Rb  Rb7  1  0.00000000  0.38514474  0.73534296  1
  Rb  Rb8  1  0.50000000  0.32859454  0.39702078  1
  Rb  Rb9  1  0.50000000  0.67140546  0.60297922  1
  Au  Au0  1  0.50000000  0.14703487  0.64440917  1
  Au  Au1  1  0.50000000  0.85296513  0.35559083  1
  Au  Au2  1  0.50000000  0.64703487  0.85559083  1
  Au  Au3  1  0.50000000  0.35296513  0.14440917  1
  Au  Au4  1  0.00000000  0.50000000  0.50000000  1
  Au  Au5  1  0.00000000  0.00000000  -0.00000000  1
  O  O0  1  0.00000000  0.17448644  0.89125862  1
  O  O1  1  0.00000000  0.82551356  0.10874138  1
  O  O2  1  0.00000000  0.67448644  0.60874138  1
  O  O3  1  0.00000000  0.32551356  0.39125862  1
loop_
_geom_bond_atom_site_label_1
_geom_bond_atom_site_label_2
_geom_bond_distance
_geom_bond_site_symmetry_2
Au0 Rb9 3.556254 1_545
Au0 Rb7 3.586674 1_555
Au0 Rb7 3.586674 1_655
Au0 Rb0 3.623207 1_555
Au0 Rb2 3.679746 1_655
Au0 Rb2 3.679746 1_555
Au0 Rb8 3.788260 1_555
Au0 Rb5 3.844586 1_545
Au0 Rb5 3.844586 1_645
Au0 Rb9 3.910998 1_555
Au1 Rb8 3.556254 1_565
Au1 Rb6 3.586674 1_655
Au1 Rb6 3.586674 1_555
Au1 Rb1 3.623207 1_555
Au1 Rb2 3.679746 1_565
Au1 Rb2 3.679746 1_665
Au1 Rb9 3.788260 1_555
Au1 Rb4 3.844586 1_665
Au1 Rb4 3.844586 1_565
Au1 Rb8 3.910998 1_555
Au2 Rb0 3.556254 1_555
Au2 Rb5 3.586674 1_555
Au2 Rb5 3.586674 1_655
Au2 Rb9 3.623207 1_555
Au2 Rb3 3.679746 1_556
Au2 Rb3 3.679746 1_656
Au2 Rb1 3.788260 1_556
Au2 Rb7 3.844586 1_655
Au2 Rb7 3.844586 1_555
Au2 Rb0 3.910998 1_565
Au3 Rb1 3.556254 1_555
Au3 Rb4 3.586674 1_655
Au3 Rb4 3.586674 1_555
Au3 Rb8 3.623207 1_555
Au3 Rb3 3.679746 1_555
Au3 Rb3 3.679746 1_655
Au3 Rb0 3.788260 1_554
Au3 Rb6 3.844586 1_655
Au3 Rb6 3.844586 1_555
Au3 Rb1 3.910998 1_545
Au4 O2 2.020211 1_555
Au4 O3 2.020211 1_555
Au5 O1 2.020211 1_545
Au5 O0 2.020211 1_554
O0 Rb7 2.720388 1_555
O0 Rb5 2.799838 1_545
O0 Rb0 2.844879 1_455
O0 Rb0 2.844879 1_555
O0 Rb3 2.860985 1_556
O1 Rb6 2.720388 1_555
O1 Rb4 2.799838 1_565
O1 Rb1 2.844879 1_455
O1 Rb1 2.844879 1_555
O1 Rb3 2.860985 1_555
O2 Rb5 2.720388 1_555
O2 Rb7 2.799838 1_555
O2 Rb9 2.844879 1_455
O2 Rb9 2.844879 1_555
O2 Rb2 2.860985 1_565
O3 Rb4 2.720388 1_555
O3 Rb6 2.799838 1_555
O3 Rb8 2.844879 1_455
O3 Rb8 2.844879 1_555
O3 Rb2 2.860985 1_555
