# generated using pymatgen
data_MgMn3HO6
_symmetry_space_group_name_H-M   'P 1'
_cell_length_a   3.00975532
_cell_length_b   5.20196557
_cell_length_c   7.42103346
_cell_angle_alpha   92.90304337
_cell_angle_beta   101.50906820
_cell_angle_gamma   89.93480921
_symmetry_Int_Tables_number   1
_chemical_formula_structural   MgMn3HO6
_chemical_formula_sum   'Mg1 Mn3 H1 O6'
_cell_volume   113.70140625
_cell_formula_units_Z   1
loop_
 _symmetry_equiv_pos_site_id
 _symmetry_equiv_pos_as_xyz
  1  'x, y, z'
loop_
 _atom_site_type_symbol
 _atom_site_label
 _atom_site_symmetry_multiplicity
 _atom_site_fract_x
 _atom_site_fract_y
 _atom_site_fract_z
 _atom_site_occupancy
  Mg  Mg0  1  0.83194049  0.96892342  0.63176951  1
  Mn  Mn0  1  0.01604056  0.97776228  0.01580229  1
  Mn  Mn1  1  0.37240827  0.47164049  0.72140977  1
  Mn  Mn2  1  0.65379656  0.49235775  0.29433045  1
  H  H0  1  0.20290300  0.92597007  0.36431093  1
  O  O0  1  0.57612008  0.81495455  0.13584792  1
  O  O1  1  0.43479237  0.11517775  0.85116287  1
  O  O2  1  0.10460470  0.28003481  0.19511253  1
  O  O3  1  0.91853069  0.68271801  0.81561621  1
  O  O4  1  0.25215444  0.81189894  0.46878303  1
  O  O5  1  0.79405984  0.33453893  0.56265049  1
loop_
_geom_bond_atom_site_label_1
_geom_bond_atom_site_label_2
_geom_bond_distance
_geom_bond_site_symmetry_2
Mg0 O5 1.992080 1_565
Mg0 O3 2.051565 1_555
Mg0 O4 2.058198 1_555
Mg0 O4 2.058582 1_655
Mg0 O1 2.284872 1_665
Mg0 O1 2.303794 1_565
Mn0 O0 1.952869 1_455
Mn0 O0 1.956123 1_555
Mn0 O2 1.990397 1_565
Mn0 O3 2.060299 1_454
Mn0 O1 2.072898 1_464
Mn0 O1 2.072974 1_564
Mn1 O3 1.964803 1_455
Mn1 O3 1.965688 1_555
Mn1 O5 2.004173 1_555
Mn1 O5 2.006501 1_455
Mn1 O1 2.123396 1_555
Mn1 O4 2.615823 1_555
Mn2 O2 1.978861 1_655
Mn2 O2 1.982513 1_555
Mn2 O0 2.084065 1_555
Mn2 O5 2.155571 1_555
Mn2 O4 2.510447 1_555
Mn2 O4 2.557504 1_655
H0 O4 0.987778 1_555
