# generated using pymatgen
data_Na12Nb10Zn2Si15(SO24)3
_symmetry_space_group_name_H-M   'P 1'
_cell_length_a   9.01350611
_cell_length_b   9.00991902
_cell_length_c   22.73313652
_cell_angle_alpha   90.00598912
_cell_angle_beta   90.11282918
_cell_angle_gamma   120.02906881
_symmetry_Int_Tables_number   1
_chemical_formula_structural   Na12Nb10Zn2Si15(SO24)3
_chemical_formula_sum   'Na12 Nb10 Zn2 Si15 S3 O72'
_cell_volume   1598.36574704
_cell_formula_units_Z   1
loop_
 _symmetry_equiv_pos_site_id
 _symmetry_equiv_pos_as_xyz
  1  'x, y, z'
loop_
 _atom_site_type_symbol
 _atom_site_label
 _atom_site_symmetry_multiplicity
 _atom_site_fract_x
 _atom_site_fract_y
 _atom_site_fract_z
 _atom_site_occupancy
  Na  Na0  1  0.37505941  0.36566390  0.24334203  1
  Na  Na1  1  0.98753615  0.61907662  0.24144073  1
  Na  Na2  1  0.63368541  0.62423427  0.74349284  1
  Na  Na3  1  0.38017529  0.01222647  0.74135295  1
  Na  Na4  1  0.02485222  0.68491585  0.58462978  1
  Na  Na5  1  0.65912382  0.97553387  0.58432070  1
  Na  Na6  1  0.00854680  0.00875352  0.49720920  1
  Na  Na7  1  0.00176627  0.99890345  0.99949355  1
  Na  Na8  1  0.68625318  0.33347718  0.82962431  1
  Na  Na9  1  0.66593707  0.31507623  0.33083377  1
  Na  Na10  1  0.33363944  0.66903055  0.16290120  1
  Na  Na11  1  0.32290579  0.65092520  0.66474723  1
  Nb  Nb0  1  0.00993893  0.01495671  0.35779086  1
  Nb  Nb1  1  0.98604061  0.98861058  0.85846698  1
  Nb  Nb2  1  0.99248085  0.99030824  0.64295509  1
  Nb  Nb3  1  0.02075599  0.00951844  0.14260334  1
  Nb  Nb4  1  0.66536166  0.34548962  0.97717235  1
  Nb  Nb5  1  0.66590670  0.33000151  0.47845547  1
  Nb  Nb6  1  0.32072162  0.65678569  0.01992859  1
  Nb  Nb7  1  0.33438979  0.66566189  0.51893027  1
  Nb  Nb8  1  0.32562917  0.66726825  0.31506289  1
  Nb  Nb9  1  0.33048224  0.67465891  0.81560519  1
  Zn  Zn0  1  0.68495782  0.33576279  0.68202728  1
  Zn  Zn1  1  0.66852668  0.32627994  0.18282212  1
  Si  Si0  1  0.29615745  0.00245497  0.25099576  1
  Si  Si1  1  0.99338925  0.28773151  0.24954434  1
  Si  Si2  1  0.99757761  0.70486670  0.75055838  1
  Si  Si3  1  0.70960721  0.00443413  0.75081911  1
  Si  Si4  1  0.95913499  0.33598289  0.58409644  1
  Si  Si5  1  0.37924493  0.04831245  0.58588553  1
  Si  Si6  1  0.65542604  0.60970139  0.58641777  1
  Si  Si7  1  0.95368123  0.62087551  0.08720554  1
  Si  Si8  1  0.38816366  0.34301260  0.08646247  1
  Si  Si9  1  0.61420228  0.66508896  0.91711918  1
  Si  Si10  1  0.04028325  0.37413715  0.91602391  1
  Si  Si11  1  0.33554766  0.96080412  0.91855877  1
  Si  Si12  1  0.62420729  0.95726696  0.41645381  1
  Si  Si13  1  0.34113199  0.38248725  0.41563611  1
  Si  Si14  1  0.03871484  0.66624282  0.41759163  1
  S  S0  1  0.71193980  0.71875797  0.25084806  1
  S  S1  1  0.28228482  0.28790096  0.75120287  1
  S  S2  1  0.66586400  0.04087860  0.08331599  1
  O  O0  1  0.18381390  0.01598688  0.30598267  1
  O  O1  1  0.81702170  0.80324585  0.30379947  1
  O  O2  1  0.98054987  0.16932264  0.30704315  1
  O  O3  1  0.19754409  0.18365710  0.80391527  1
  O  O4  1  0.98889714  0.81996434  0.80587031  1
  O  O5  1  0.83194947  0.01813196  0.80685266  1
  O  O6  1  0.80489148  0.97310975  0.69266279  1
  O  O7  1  0.17788762  0.20616398  0.69704446  1
  O  O8  1  0.03372743  0.83231740  0.69189359  1
  O  O9  1  0.79176217  0.82097730  0.19699107  1
  O  O10  1  0.02520666  0.18766972  0.19347801  1
  O  O11  1  0.16536653  0.96591146  0.19257007  1
  O  O12  1  0.89563197  0.39282810  0.64058847  1
  O  O13  1  0.49118248  0.11205859  0.64506107  1
  O  O14  1  0.62695342  0.51357693  0.64764096  1
  O  O15  1  0.88666423  0.51733014  0.14732196  1
  O  O16  1  0.63686292  0.11118371  0.13710745  1
  O  O17  1  0.48533659  0.36677222  0.14722390  1
  O  O18  1  0.47625794  0.30812413  0.02808901  1
  O  O19  1  0.83261274  0.52145590  0.02876540  1
  O  O20  1  0.69371106  0.14798129  0.03015827  1
  O  O21  1  0.47300447  0.16802621  0.52785178  1
  O  O22  1  0.70109969  0.52775318  0.52932601  1
  O  O23  1  0.83137916  0.29416528  0.52661204  1
  O  O24  1  0.52372844  0.69396060  0.97341552  1
  O  O25  1  0.16267001  0.46726503  0.97344748  1
  O  O26  1  0.30399111  0.83263425  0.97308165  1
  O  O27  1  0.53559980  0.84226021  0.47525813  1
  O  O28  1  0.30994410  0.47629431  0.47172356  1
  O  O29  1  0.16114016  0.69729647  0.47471105  1
  O  O30  1  0.13350270  0.63793587  0.35872628  1
  O  O31  1  0.49777929  0.85620433  0.35965765  1
  O  O32  1  0.36048857  0.49440903  0.35607542  1
  O  O33  1  0.13890631  0.50151460  0.85929285  1
  O  O34  1  0.36390847  0.86928561  0.85827557  1
  O  O35  1  0.50342164  0.63875012  0.85660816  1
  O  O36  1  0.02104976  0.83556279  0.40770688  1
  O  O37  1  0.81121916  0.97247888  0.40809146  1
  O  O38  1  0.16697957  0.19184522  0.41105332  1
  O  O39  1  0.02824838  0.18902069  0.90794280  1
  O  O40  1  0.16728802  0.98055841  0.90795430  1
  O  O41  1  0.80851406  0.83301116  0.91116286  1
  O  O42  1  0.97218816  0.15936314  0.59123957  1
  O  O43  1  0.18258338  0.02014084  0.59018956  1
  O  O44  1  0.83560457  0.80939983  0.59017292  1
  O  O45  1  0.96765591  0.81367311  0.09031218  1
  O  O46  1  0.82248190  0.02131242  0.08862610  1
  O  O47  1  0.18847091  0.16642978  0.08903871  1
  O  O48  1  0.67432634  0.16111599  0.75005043  1
  O  O49  1  0.45259183  0.30568642  0.74786804  1
  O  O50  1  0.82176411  0.52672134  0.75051658  1
  O  O51  1  0.69283512  0.54642331  0.24863786  1
  O  O52  1  0.83586749  0.32192160  0.24851050  1
  O  O53  1  0.47546317  0.17645945  0.24795557  1
  O  O54  1  0.63895505  0.49684229  0.92304788  1
  O  O55  1  0.85301601  0.35520973  0.92496129  1
  O  O56  1  0.50843452  0.14602507  0.92554977  1
  O  O57  1  0.64025390  0.14455207  0.42229361  1
  O  O58  1  0.50753838  0.36081038  0.42319903  1
  O  O59  1  0.85376144  0.49357486  0.42375161  1
  O  O60  1  0.35583736  0.50542636  0.07496446  1
  O  O61  1  0.15039927  0.65556732  0.07457647  1
  O  O62  1  0.51360168  0.86542244  0.07562168  1
  O  O63  1  0.34806974  0.85178732  0.57455023  1
  O  O64  1  0.50473088  0.65916052  0.57551017  1
  O  O65  1  0.15105092  0.50174223  0.57241686  1
  O  O66  1  0.29875950  0.82024232  0.25545101  1
  O  O67  1  0.53583838  0.69789849  0.25493854  1
  O  O68  1  0.17930941  0.47508189  0.25510243  1
  O  O69  1  0.30145953  0.46328926  0.75462832  1
  O  O70  1  0.17917152  0.70010603  0.75550390  1
  O  O71  1  0.52298815  0.81792190  0.75550156  1
loop_
_geom_bond_atom_site_label_1
_geom_bond_atom_site_label_2
_geom_bond_distance
_geom_bond_site_symmetry_2
Na0 O53 2.297789 1_555
Na0 O17 2.400259 1_555
Na0 O68 2.428829 1_555
Na0 O51 2.490111 1_555
Na0 O67 2.605118 1_555
Na0 O32 2.843212 1_555
Na0 O10 2.953768 1_555
Na1 O52 2.323897 1_555
Na1 O15 2.324371 1_555
Na1 O51 2.402612 1_555
Na1 O66 2.482590 1_655
Na1 O68 2.647652 1_655
Na1 O11 2.926304 1_655
Na1 O30 2.937887 1_655
Na2 O50 2.271775 1_555
Na2 O14 2.384176 1_555
Na2 O71 2.420579 1_555
Na2 O49 2.494683 1_555
Na2 O69 2.605939 1_555
Na2 O35 2.858959 1_555
Na2 O6 2.958042 1_555
Na3 O48 2.303534 1_555
Na3 O13 2.389612 1_555
Na3 O49 2.389805 1_555
Na3 O70 2.489442 1_545
Na3 O71 2.660695 1_545
Na3 O34 2.925484 1_545
Na3 O8 2.926189 1_545
Na4 O65 2.444344 1_555
Na4 O44 2.469663 1_455
Na4 O63 2.533602 1_555
Na4 O12 2.615204 1_455
Na4 O43 2.619375 1_565
Na4 O8 2.758334 1_555
Na4 O29 2.764141 1_555
Na4 O22 2.819699 1_455
Na5 O63 2.453955 1_555
Na5 O42 2.459876 1_565
Na5 O64 2.475995 1_555
Na5 O44 2.677871 1_555
Na5 O27 2.734777 1_555
Na5 O13 2.753668 1_565
Na5 O6 2.794439 1_555
Na5 O23 2.814430 1_565
Na6 O38 2.500113 1_555
Na6 O36 2.600727 1_545
Na6 O43 2.600955 1_555
Na6 O37 2.603558 1_445
Na6 O42 2.639205 1_455
Na6 O44 2.708099 1_445
Na7 O45 2.575265 1_456
Na7 O41 2.584601 1_455
Na7 O47 2.587987 1_566
Na7 O40 2.615837 1_555
Na7 O39 2.629858 1_565
Na7 O46 2.664070 1_466
Na8 O48 2.350988 1_555
Na8 O50 2.374506 1_555
Na8 O55 2.586006 1_555
Na8 O49 2.722014 1_555
Na8 O56 2.735313 1_555
Na8 O54 2.736750 1_555
Na9 O52 2.401866 1_555
Na9 O53 2.428537 1_555
Na9 O57 2.526592 1_555
Na9 O59 2.678538 1_555
Na9 O58 2.686562 1_555
Na9 O51 2.718811 1_555
Na10 O60 2.550559 1_555
Na10 O61 2.561374 1_555
Na10 O66 2.610037 1_555
Na10 O62 2.615274 1_555
Na10 O68 2.638421 1_555
Na10 O67 2.697658 1_555
Na11 O65 2.552343 1_555
Na11 O64 2.588093 1_555
Na11 O70 2.591611 1_555
Na11 O69 2.597234 1_555
Na11 O71 2.653605 1_555
Na11 O63 2.668858 1_555
Nb0 O2 1.924413 1_455
Nb0 O38 1.935114 1_555
Nb0 O0 1.958599 1_555
Nb0 O37 1.996083 1_445
Nb0 O36 2.017954 1_545
Nb0 O1 2.199999 1_445
Nb1 O41 1.929656 1_555
Nb1 O5 1.933897 1_565
Nb1 O4 1.943727 1_555
Nb1 O39 1.995141 1_665
Nb1 O40 2.012757 1_655
Nb1 O3 2.217467 1_665
Nb2 O44 1.944757 1_555
Nb2 O6 1.976157 1_555
Nb2 O8 1.982580 1_655
Nb2 O43 1.998587 1_665
Nb2 O42 2.003508 1_565
Nb2 O7 2.196718 1_665
Nb3 O47 1.906640 1_555
Nb3 O11 1.910614 1_545
Nb3 O10 1.962298 1_555
Nb3 O45 1.976829 1_445
Nb3 O46 2.211865 1_455
Nb3 O9 2.275040 1_445
Nb4 O54 1.937589 1_555
Nb4 O19 1.939673 1_556
Nb4 O18 1.947287 1_556
Nb4 O56 2.014067 1_555
Nb4 O55 2.033970 1_555
Nb4 O20 2.266561 1_556
Nb5 O21 1.970351 1_555
Nb5 O23 2.000726 1_555
Nb5 O22 2.011215 1_555
Nb5 O58 2.020444 1_555
Nb5 O57 2.021652 1_555
Nb5 O59 2.024009 1_555
Nb6 O25 1.902829 1_554
Nb6 O61 1.972553 1_555
Nb6 O26 1.976370 1_554
Nb6 O60 1.989000 1_555
Nb6 O24 1.993166 1_554
Nb6 O62 2.208836 1_555
Nb7 O28 1.932278 1_555
Nb7 O27 1.981348 1_555
Nb7 O65 1.988986 1_555
Nb7 O29 1.992401 1_555
Nb7 O64 2.024218 1_555
Nb7 O63 2.053821 1_555
Nb8 O30 1.898096 1_555
Nb8 O31 1.919108 1_555
Nb8 O32 1.970424 1_555
Nb8 O66 2.031746 1_555
Nb8 O68 2.074243 1_555
Nb8 O67 2.240812 1_555
Nb9 O34 1.891149 1_555
Nb9 O33 1.926829 1_555
Nb9 O35 1.975467 1_555
Nb9 O70 2.021157 1_555
Nb9 O71 2.076490 1_555
Nb9 O69 2.261900 1_555
O0 Si0 1.652672 1_555
O1 S0 1.482995 1_555
O2 Si1 1.654530 1_555
O3 S1 1.478966 1_555
O4 Si2 1.656486 1_555
O5 Si3 1.646841 1_555
O6 Si3 1.676947 1_565
O7 S1 1.498429 1_555
O8 Si2 1.682536 1_455
O9 S0 1.485047 1_555
O10 Si1 1.667191 1_455
O11 Si0 1.693381 1_565
O12 Si4 1.592292 1_555
O12 Zn0 1.946178 1_555
O13 Si5 1.603757 1_555
O13 Zn0 2.071153 1_555
O14 Si6 1.591300 1_555
O14 Zn0 2.070774 1_555
O15 Si7 1.594497 1_555
O15 Zn1 2.024671 1_555
O16 S2 1.460057 1_555
O16 Zn1 2.088571 1_555
O17 Si8 1.590115 1_555
O17 Zn1 2.027843 1_555
O18 Si8 1.656548 1_555
O19 Si7 1.665499 1_555
O20 S2 1.487799 1_555
O21 Si5 1.646352 1_555
O22 Si6 1.644764 1_555
O23 Si4 1.653913 1_555
O24 Si9 1.608389 1_555
O25 Si10 1.640957 1_555
O26 Si11 1.619784 1_555
O27 Si12 1.635488 1_555
O28 Si13 1.630369 1_555
O29 Si14 1.633197 1_555
O30 Si14 1.675794 1_555
O31 Si12 1.658376 1_555
O32 Si13 1.644921 1_555
O33 Si10 1.659617 1_555
O34 Si11 1.683880 1_555
O35 Si9 1.644082 1_555
O36 Si14 1.626723 1_555
O37 Si12 1.632886 1_555
O38 Si13 1.651047 1_555
O39 Si10 1.626692 1_555
O40 Si11 1.630533 1_555
O41 Si9 1.650364 1_555
O42 Si4 1.661299 1_555
O43 Si5 1.663282 1_555
O44 Si6 1.719572 1_555
O45 Si7 1.679071 1_555
O46 S2 1.512249 1_555
O47 Si8 1.705488 1_555
O48 Si3 1.594868 1_555
O48 Zn0 2.174101 1_555
O49 S1 1.463592 1_555
O49 Zn0 2.478863 1_555
O50 Si2 1.594281 1_555
O50 Zn0 2.184799 1_555
O51 S0 1.474943 1_555
O51 Zn1 2.404975 1_555
O52 Si1 1.596551 1_555
O52 Zn1 2.134706 1_555
O53 Si0 1.593467 1_555
O53 Zn1 2.168478 1_555
O54 Si9 1.644473 1_555
O55 Si10 1.622572 1_655
O56 Si11 1.623180 1_545
O57 Si12 1.625283 1_545
O58 Si13 1.615429 1_555
O59 Si14 1.619942 1_655
O60 Si8 1.649576 1_555
O61 Si7 1.664749 1_455
O62 S2 1.496900 1_565
O63 Si5 1.668017 1_565
O64 Si6 1.646067 1_555
O65 Si4 1.646042 1_455
O66 Si0 1.656690 1_565
O67 S0 1.505147 1_555
O68 Si1 1.685677 1_455
O69 S1 1.503211 1_555
O70 Si2 1.662267 1_455
O71 Si3 1.684126 1_565
