# generated using pymatgen
data_Re2Ni(H2O3)4
_symmetry_space_group_name_H-M   'P 1'
_cell_length_a   6.88103200
_cell_length_b   6.93151589
_cell_length_c   7.26477791
_cell_angle_alpha   63.80171277
_cell_angle_beta   69.14115318
_cell_angle_gamma   70.03102263
_symmetry_Int_Tables_number   1
_chemical_formula_structural   Re2Ni(H2O3)4
_chemical_formula_sum   'Re2 Ni1 H8 O12'
_cell_volume   283.42215494
_cell_formula_units_Z   1
loop_
 _symmetry_equiv_pos_site_id
 _symmetry_equiv_pos_as_xyz
  1  'x, y, z'
loop_
 _atom_site_type_symbol
 _atom_site_label
 _atom_site_symmetry_multiplicity
 _atom_site_fract_x
 _atom_site_fract_y
 _atom_site_fract_z
 _atom_site_occupancy
  Re  Re0  1  0.91325200  0.68118100  0.70724900  1
  Re  Re1  1  0.08674800  0.31881900  0.29275100  1
  Ni  Ni0  1  0.50000000  0.00000000  0.00000000  1
  H  H0  1  0.37881900  0.69489400  0.36678100  1
  H  H1  1  0.62118100  0.30510600  0.63321900  1
  H  H2  1  0.61217400  0.57833100  0.27087900  1
  H  H3  1  0.70864300  0.97693100  0.26428200  1
  H  H4  1  0.29135700  0.02306900  0.73571800  1
  H  H5  1  0.72341200  0.20153700  0.06310200  1
  H  H6  1  0.27658800  0.79846300  0.93689800  1
  H  H7  1  0.38782600  0.42166900  0.72912100  1
  O  O0  1  0.85917900  0.42891000  0.89602100  1
  O  O1  1  0.20126500  0.11507000  0.17872300  1
  O  O2  1  0.79873500  0.88493000  0.82127700  1
  O  O3  1  0.36301700  0.91020300  0.84688700  1
  O  O4  1  0.63698300  0.08979700  0.15311300  1
  O  O5  1  0.81099500  0.75473700  0.49152900  1
  O  O6  1  0.18900500  0.24526300  0.50847100  1
  O  O7  1  0.19173200  0.65860800  0.61908100  1
  O  O8  1  0.80826800  0.34139200  0.38091900  1
  O  O9  1  0.51291800  0.30357800  0.76654400  1
  O  O10  1  0.48708200  0.69642200  0.23345600  1
  O  O11  1  0.14082100  0.57109000  0.10397900  1
loop_
_geom_bond_atom_site_label_1
_geom_bond_atom_site_label_2
_geom_bond_distance
_geom_bond_site_symmetry_2
Ni0 O9 2.044872 1_554
Ni0 O10 2.044872 1_545
Ni0 O4 2.066846 1_555
Ni0 O3 2.066846 1_544
Ni0 O1 2.107454 1_555
Ni0 O2 2.107454 1_544
H0 O10 0.987780 1_555
H1 O9 0.987780 1_555
H2 O10 0.986795 1_555
H3 O4 0.984717 1_565
H4 O3 0.984717 1_545
H5 O4 0.985731 1_555
H6 O3 0.985731 1_555
H7 O9 0.986795 1_555
O0 Re0 1.743694 1_555
O1 Re1 1.763446 1_555
O2 Re0 1.763446 1_555
O5 Re0 1.745214 1_555
O6 Re1 1.745214 1_555
O7 Re0 1.765312 1_455
O8 Re1 1.765312 1_655
O11 Re1 1.743694 1_555
