# generated using pymatgen
data_Ta7Cu3O19
_symmetry_space_group_name_H-M   'P 1'
_cell_length_a   6.28571623
_cell_length_b   6.28571623
_cell_length_c   20.43969900
_cell_angle_alpha   90.00000000
_cell_angle_beta   90.00000000
_cell_angle_gamma   120.00000240
_symmetry_Int_Tables_number   1
_chemical_formula_structural   Ta7Cu3O19
_chemical_formula_sum   'Ta14 Cu6 O38'
_cell_volume   699.38233467
_cell_formula_units_Z   2
loop_
 _symmetry_equiv_pos_site_id
 _symmetry_equiv_pos_as_xyz
  1  'x, y, z'
loop_
 _atom_site_type_symbol
 _atom_site_label
 _atom_site_symmetry_multiplicity
 _atom_site_fract_x
 _atom_site_fract_y
 _atom_site_fract_z
 _atom_site_occupancy
  Ta  Ta0  1  0.69352600  0.02865800  0.34334100  1
  Ta  Ta1  1  0.66486700  0.69352600  0.84334100  1
  Ta  Ta2  1  0.02865800  0.33513300  0.84334100  1
  Ta  Ta3  1  0.97134200  0.66486700  0.34334100  1
  Ta  Ta4  1  0.33513300  0.30647400  0.34334100  1
  Ta  Ta5  1  0.30647400  0.97134200  0.84334100  1
  Ta  Ta6  1  0.30647400  0.97134200  0.65665900  1
  Ta  Ta7  1  0.33513300  0.30647400  0.15665900  1
  Ta  Ta8  1  0.97134200  0.66486700  0.15665900  1
  Ta  Ta9  1  0.02865800  0.33513300  0.65665900  1
  Ta  Ta10  1  0.66486700  0.69352600  0.65665900  1
  Ta  Ta11  1  0.69352600  0.02865800  0.15665900  1
  Ta  Ta12  1  0.00000000  0.00000000  0.50000000  1
  Ta  Ta13  1  0.00000000  0.00000000  0.00000000  1
  Cu  Cu0  1  0.50000000  0.00000000  0.50000000  1
  Cu  Cu1  1  0.50000000  0.50000000  0.00000000  1
  Cu  Cu2  1  0.00000000  0.50000000  0.00000000  1
  Cu  Cu3  1  0.00000000  0.50000000  0.50000000  1
  Cu  Cu4  1  0.50000000  0.50000000  0.50000000  1
  Cu  Cu5  1  0.50000000  0.00000000  0.00000000  1
  O  O0  1  0.29078500  0.93030900  0.75000000  1
  O  O1  1  0.36047600  0.29078500  0.25000000  1
  O  O2  1  0.93030900  0.63952400  0.25000000  1
  O  O3  1  0.06969100  0.36047600  0.75000000  1
  O  O4  1  0.63952400  0.70921500  0.75000000  1
  O  O5  1  0.70921500  0.06969100  0.25000000  1
  O  O6  1  0.00000000  0.00000000  0.33742900  1
  O  O7  1  0.00000000  0.00000000  0.83742900  1
  O  O8  1  0.00000000  0.00000000  0.66257100  1
  O  O9  1  0.00000000  0.00000000  0.16257100  1
  O  O10  1  0.33413300  0.91403400  0.34578400  1
  O  O11  1  0.42010000  0.33413300  0.84578400  1
  O  O12  1  0.91403400  0.57990000  0.84578400  1
  O  O13  1  0.08596600  0.42010000  0.34578400  1
  O  O14  1  0.57990000  0.66586700  0.34578400  1
  O  O15  1  0.66586700  0.08596600  0.84578400  1
  O  O16  1  0.66586700  0.08596600  0.65421600  1
  O  O17  1  0.57990000  0.66586700  0.15421600  1
  O  O18  1  0.08596600  0.42010000  0.15421600  1
  O  O19  1  0.91403400  0.57990000  0.65421600  1
  O  O20  1  0.75122400  0.02801000  0.05649300  1
  O  O21  1  0.72321400  0.75122400  0.55649300  1
  O  O22  1  0.02801000  0.27678600  0.55649300  1
  O  O23  1  0.97199000  0.72321400  0.05649300  1
  O  O24  1  0.27678600  0.24877600  0.05649300  1
  O  O25  1  0.24877600  0.97199000  0.55649300  1
  O  O26  1  0.24877600  0.97199000  0.94350700  1
  O  O27  1  0.27678600  0.24877600  0.44350700  1
  O  O28  1  0.97199000  0.72321400  0.44350700  1
  O  O29  1  0.02801000  0.27678600  0.94350700  1
  O  O30  1  0.72321400  0.75122400  0.94350700  1
  O  O31  1  0.75122400  0.02801000  0.44350700  1
  O  O32  1  0.66666700  0.33333300  0.13864000  1
  O  O33  1  0.33333300  0.66666700  0.63864000  1
  O  O34  1  0.33333300  0.66666700  0.86136000  1
  O  O35  1  0.66666700  0.33333300  0.36136000  1
  O  O36  1  0.33413300  0.91403400  0.15421600  1
  O  O37  1  0.42010000  0.33413300  0.65421600  1
loop_
_geom_bond_atom_site_label_1
_geom_bond_atom_site_label_2
_geom_bond_distance
_geom_bond_site_symmetry_2
Cu0 O25 1.892071 1_545
Cu0 O31 1.892071 1_555
Cu1 O24 1.892071 1_555
Cu1 O30 1.892071 1_554
Cu2 O23 1.892071 1_455
Cu2 O29 1.892071 1_554
Cu3 O28 1.892071 1_455
Cu3 O22 1.892071 1_555
Cu4 O21 1.892071 1_555
Cu4 O27 1.892071 1_555
Cu5 O20 1.892071 1_555
Cu5 O26 1.892071 1_544
O0 Ta5 1.921133 1_555
O0 Ta6 1.921133 1_555
O1 Ta7 1.921132 1_555
O1 Ta4 1.921132 1_555
O2 Ta8 1.921133 1_555
O2 Ta3 1.921133 1_555
O3 Ta2 1.921133 1_555
O3 Ta9 1.921133 1_555
O4 Ta10 1.921132 1_555
O4 Ta1 1.921132 1_555
O5 Ta0 1.921133 1_555
O5 Ta11 1.921133 1_555
O6 Ta0 2.026109 1_455
O6 Ta4 2.026112 1_555
O6 Ta3 2.026115 1_445
O7 Ta5 2.026109 1_545
O7 Ta1 2.026112 1_445
O7 Ta2 2.026115 1_555
O8 Ta6 2.026109 1_545
O8 Ta10 2.026112 1_445
O8 Ta9 2.026115 1_555
O9 Ta11 2.026109 1_455
O9 Ta7 2.026112 1_555
O9 Ta8 2.026115 1_445
O10 Ta0 1.999313 1_565
O10 Ta3 2.020924 1_455
O10 Ta4 2.464136 1_565
O11 Ta1 1.999310 1_555
O11 Ta5 2.020922 1_545
O11 Ta2 2.464148 1_555
O12 Ta2 1.999301 1_655
O12 Ta1 2.020934 1_555
O12 Ta5 2.464142 1_655
O13 Ta3 1.999301 1_455
O13 Ta4 2.020934 1_555
O13 Ta0 2.464142 1_455
O14 Ta4 1.999310 1_555
O14 Ta0 2.020922 1_565
O14 Ta3 2.464148 1_555
O15 Ta5 1.999313 1_545
O15 Ta2 2.020924 1_655
O15 Ta1 2.464136 1_545
O16 Ta6 1.999313 1_545
O16 Ta9 2.020924 1_655
O16 Ta10 2.464136 1_545
O17 Ta7 1.999310 1_555
O17 Ta11 2.020922 1_565
O17 Ta8 2.464148 1_555
O18 Ta8 1.999301 1_455
O18 Ta7 2.020934 1_555
O18 Ta11 2.464142 1_455
O19 Ta9 1.999301 1_655
O19 Ta10 2.020934 1_555
O19 Ta6 2.464142 1_655
O20 Ta13 2.021117 1_655
O20 Ta11 2.079596 1_555
O21 Ta12 2.021117 1_665
O21 Ta10 2.079597 1_555
O22 Ta12 2.021117 1_555
O22 Ta9 2.079597 1_555
O23 Ta13 2.021117 1_665
O23 Ta8 2.079597 1_555
O24 Ta13 2.021117 1_555
O24 Ta7 2.079597 1_555
O25 Ta12 2.021117 1_565
O25 Ta6 2.079596 1_555
O26 Ta13 2.021117 1_566
O26 Ta5 2.079596 1_555
O27 Ta12 2.021117 1_555
O27 Ta4 2.079597 1_555
O28 Ta12 2.021117 1_665
O28 Ta3 2.079597 1_555
O29 Ta13 2.021117 1_556
O29 Ta2 2.079597 1_555
O30 Ta13 2.021117 1_666
O30 Ta1 2.079597 1_555
O31 Ta12 2.021117 1_655
O31 Ta0 2.079596 1_555
O32 Ta8 2.038402 1_555
O32 Ta7 2.038402 1_555
O32 Ta11 2.038402 1_555
O33 Ta9 2.038402 1_555
O33 Ta10 2.038402 1_555
O33 Ta6 2.038402 1_555
O34 Ta2 2.038402 1_555
O34 Ta1 2.038402 1_555
O34 Ta5 2.038402 1_555
O35 Ta3 2.038402 1_555
O35 Ta4 2.038402 1_555
O35 Ta0 2.038402 1_555
O36 Ta11 1.999313 1_565
O36 Ta8 2.020924 1_455
O36 Ta7 2.464136 1_565
O37 Ta10 1.999310 1_555
O37 Ta6 2.020922 1_545
O37 Ta9 2.464148 1_555
