# generated using pymatgen
data_Na8NbGa3Si4(PO12)2
_symmetry_space_group_name_H-M   'P 1'
_cell_length_a   8.96725655
_cell_length_b   8.97580145
_cell_length_c   21.95064602
_cell_angle_alpha   89.69135845
_cell_angle_beta   89.90206634
_cell_angle_gamma   119.92709990
_symmetry_Int_Tables_number   1
_chemical_formula_structural   Na8NbGa3Si4(PO12)2
_chemical_formula_sum   'Na24 Nb3 Ga9 Si12 P6 O72'
_cell_volume   1531.14894591
_cell_formula_units_Z   3
loop_
 _symmetry_equiv_pos_site_id
 _symmetry_equiv_pos_as_xyz
  1  'x, y, z'
loop_
 _atom_site_type_symbol
 _atom_site_label
 _atom_site_symmetry_multiplicity
 _atom_site_fract_x
 _atom_site_fract_y
 _atom_site_fract_z
 _atom_site_occupancy
  Na  Na0  1  0.62936918  0.99736271  0.25349972  1
  Na  Na1  1  0.36980779  0.37195209  0.25208569  1
  Na  Na2  1  0.00287327  0.62961970  0.25193381  1
  Na  Na3  1  0.63781175  0.63148787  0.74150493  1
  Na  Na4  1  0.99224477  0.35970203  0.74377557  1
  Na  Na5  1  0.37108544  0.01027674  0.74693425  1
  Na  Na6  1  0.29599272  0.33724298  0.58404101  1
  Na  Na7  1  0.03889372  0.70287496  0.58242771  1
  Na  Na8  1  0.66651416  0.95879414  0.58164678  1
  Na  Na9  1  0.29343099  0.95910376  0.08206688  1
  Na  Na10  1  0.66265528  0.70272188  0.08432179  1
  Na  Na11  1  0.04172299  0.33948525  0.08462389  1
  Na  Na12  1  0.97231687  0.67760718  0.91353549  1
  Na  Na13  1  0.70748106  0.03083823  0.91229399  1
  Na  Na14  1  0.32073666  0.28985990  0.91213161  1
  Na  Na15  1  0.97352892  0.29695163  0.41499505  1
  Na  Na16  1  0.32641425  0.02799886  0.41533261  1
  Na  Na17  1  0.70051353  0.67528136  0.41513931  1
  Na  Na18  1  0.99820861  0.00008784  0.49977341  1
  Na  Na19  1  0.00199073  0.00016956  0.99898147  1
  Na  Na20  1  0.66398246  0.32901613  0.82705331  1
  Na  Na21  1  0.66552244  0.33183528  0.33086771  1
  Na  Na22  1  0.33071529  0.66384377  0.16659694  1
  Na  Na23  1  0.33457361  0.66433299  0.65954962  1
  Nb  Nb0  1  0.66406019  0.33647860  0.98033638  1
  Nb  Nb1  1  0.67226320  0.33786541  0.47935371  1
  Nb  Nb2  1  0.33563133  0.66529205  0.81232059  1
  Ga  Ga0  1  0.99965306  0.99992060  0.35399742  1
  Ga  Ga1  1  0.00205361  0.00679380  0.85149160  1
  Ga  Ga2  1  0.99182434  0.00351077  0.64722757  1
  Ga  Ga3  1  0.00501701  0.99926380  0.14782305  1
  Ga  Ga4  1  0.66392635  0.33166468  0.68368218  1
  Ga  Ga5  1  0.66873025  0.33827818  0.18220360  1
  Ga  Ga6  1  0.32678173  0.65956472  0.01834127  1
  Ga  Ga7  1  0.33231910  0.65851158  0.51555573  1
  Ga  Ga8  1  0.33554481  0.66818816  0.32147771  1
  Si  Si0  1  0.28894451  0.28359381  0.74845211  1
  Si  Si1  1  0.71398762  0.00511322  0.74913905  1
  Si  Si2  1  0.96316502  0.33586027  0.58665226  1
  Si  Si3  1  0.66726496  0.62947248  0.58669096  1
  Si  Si4  1  0.96333325  0.62924984  0.08710784  1
  Si  Si5  1  0.37030615  0.33481423  0.08766897  1
  Si  Si6  1  0.62647846  0.67331429  0.91967118  1
  Si  Si7  1  0.04303727  0.37198372  0.91896620  1
  Si  Si8  1  0.32867313  0.95376461  0.91924869  1
  Si  Si9  1  0.62189047  0.95210690  0.41581068  1
  Si  Si10  1  0.32880703  0.37463248  0.41493699  1
  Si  Si11  1  0.05095995  0.67220312  0.41554038  1
  P  P0  1  0.29272091  -0.00019805  0.24934121  1
  P  P1  1  0.71078459  0.71109243  0.24940999  1
  P  P2  1  0.99821325  0.28839273  0.24870861  1
  P  P3  1  0.99886548  0.71451537  0.75006460  1
  P  P4  1  0.37389434  0.03992366  0.58563917  1
  P  P5  1  0.66635675  0.04207601  0.08675037  1
  O  O0  1  0.20899535  0.03109264  0.30605675  1
  O  O1  1  0.82333270  0.79444724  0.30645266  1
  O  O2  1  0.96951984  0.17581073  0.30628592  1
  O  O3  1  0.20896748  0.17120954  0.81071325  1
  O  O4  1  0.97337724  0.79460069  0.80846662  1
  O  O5  1  0.82663288  0.03415375  0.81057289  1
  O  O6  1  0.78618734  0.95323536  0.68979887  1
  O  O7  1  0.16611871  0.20401956  0.68929249  1
  O  O8  1  0.03553979  0.82723347  0.69277438  1
  O  O9  1  0.79531347  0.82376583  0.19138246  1
  O  O10  1  0.02530105  0.20341795  0.19102862  1
  O  O11  1  0.18097783  0.97083780  0.19142874  1
  O  O12  1  0.87160340  0.36783960  0.64519875  1
  O  O13  1  0.48617156  0.12276327  0.64239980  1
  O  O14  1  0.63051494  0.50411758  0.64527588  1
  O  O15  1  0.87609091  0.50202362  0.14534618  1
  O  O16  1  0.63640421  0.12708303  0.14292636  1
  O  O17  1  0.49535446  0.36787260  0.14557947  1
  O  O18  1  0.46579937  0.30127623  0.02722924  1
  O  O19  1  0.83471315  0.52959738  0.02707708  1
  O  O20  1  0.69350906  0.15870638  0.02885017  1
  O  O21  1  0.46500910  0.15689906  0.52814215  1
  O  O22  1  0.69146804  0.52837878  0.52642503  1
  O  O23  1  0.83612109  0.30619205  0.52651338  1
  O  O24  1  0.54017680  0.70597892  0.97872105  1
  O  O25  1  0.16080841  0.45628231  0.97818220  1
  O  O26  1  0.29927432  0.83646930  0.97892778  1
  O  O27  1  0.53882540  0.83365384  0.47608515  1
  O  O28  1  0.29075840  0.45301714  0.47547835  1
  O  O29  1  0.16710984  0.70685956  0.47592213  1
  O  O30  1  0.12300902  0.62292825  0.35477971  1
  O  O31  1  0.50210922  0.87884029  0.35492012  1
  O  O32  1  0.37753963  0.49812640  0.35441925  1
  O  O33  1  0.13051761  0.49881180  0.85879113  1
  O  O34  1  0.36476388  0.86497857  0.85901561  1
  O  O35  1  0.49955098  0.63297597  0.85953785  1
  O  O36  1  0.01960147  0.83569858  0.40895750  1
  O  O37  1  0.81581246  0.97984231  0.40933952  1
  O  O38  1  0.16305304  0.18166864  0.40842517  1
  O  O39  1  0.01887062  0.18168950  0.91265381  1
  O  O40  1  0.16197754  0.97754848  0.91219790  1
  O  O41  1  0.81836647  0.83444264  0.91078199  1
  O  O42  1  0.97513577  0.15991761  0.58627395  1
  O  O43  1  0.19591027  0.02748535  0.58785125  1
  O  O44  1  0.84762065  0.81367496  0.58743795  1
  O  O45  1  0.96987011  0.81494879  0.08890303  1
  O  O46  1  0.83272396  0.03015505  0.08900336  1
  O  O47  1  0.18132525  0.16003618  0.08932493  1
  O  O48  1  0.68697713  0.17218465  0.74439677  1
  O  O49  1  0.48486750  0.31400676  0.74504028  1
  O  O50  1  0.84131325  0.53128724  0.74711317  1
  O  O51  1  0.69318683  0.52793380  0.24631224  1
  O  O52  1  0.83126429  0.30438127  0.24551070  1
  O  O53  1  0.47663813  0.16404552  0.24481226  1
  O  O54  1  0.63706945  0.49361994  0.92230207  1
  O  O55  1  0.85197985  0.35757806  0.92280579  1
  O  O56  1  0.50666536  0.14434585  0.92247786  1
  O  O57  1  0.64211207  0.14638305  0.42254644  1
  O  O58  1  0.50213934  0.35345774  0.42232437  1
  O  O59  1  0.85477236  0.49740571  0.42198054  1
  O  O60  1  0.35864416  0.50897926  0.08014945  1
  O  O61  1  0.15261313  0.64878205  0.08001515  1
  O  O62  1  0.50582672  0.86428876  0.08126053  1
  O  O63  1  0.35797582  0.86223271  0.57994454  1
  O  O64  1  0.49644198  0.64794867  0.57914925  1
  O  O65  1  0.15011155  0.50972187  0.57919163  1
  O  O66  1  0.31014900  0.83564612  0.25314037  1
  O  O67  1  0.52839320  0.69250747  0.25260065  1
  O  O68  1  0.16121900  0.47017334  0.25177196  1
  O  O69  1  0.30705640  0.47939280  0.75483156  1
  O  O70  1  0.16460056  0.69450649  0.75505102  1
  O  O71  1  0.51637424  0.83089599  0.75540095  1
loop_
_geom_bond_atom_site_label_1
_geom_bond_atom_site_label_2
_geom_bond_distance
_geom_bond_site_symmetry_2
Na0 O67 2.415814 1_555
Na0 O52 2.432725 1_565
Na0 O31 2.478837 1_555
Na0 O66 2.481006 1_555
Na0 O53 2.488535 1_565
Na0 O16 2.673295 1_565
Na0 O2 2.892949 1_565
Na0 O9 2.971684 1_555
Na1 O68 2.433377 1_555
Na1 O53 2.492407 1_555
Na1 O67 2.493735 1_555
Na1 O32 2.506551 1_555
Na1 O51 2.516159 1_555
Na1 O17 2.601447 1_555
Na1 O0 2.897652 1_555
Na2 O66 2.435019 1_555
Na2 O51 2.456328 1_455
Na2 O68 2.468222 1_555
Na2 O30 2.516353 1_555
Na2 O52 2.536309 1_455
Na2 O15 2.610938 1_455
Na2 O1 2.932942 1_455
Na2 O11 2.960249 1_555
Na3 O14 2.392680 1_555
Na3 O50 2.406514 1_555
Na3 O49 2.470851 1_555
Na3 O71 2.536130 1_555
Na3 O69 2.588211 1_555
Na3 O6 2.743028 1_555
Na3 O35 2.873326 1_555
Na4 O48 2.393511 1_555
Na4 O12 2.437818 1_555
Na4 O69 2.482218 1_655
Na4 O50 2.507960 1_555
Na4 O70 2.618360 1_655
Na4 O33 2.823170 1_655
Na4 O7 2.828342 1_655
Na4 O5 2.917229 1_555
Na5 O49 2.387093 1_555
Na5 O48 2.455645 1_555
Na5 O70 2.500081 1_545
Na5 O13 2.505374 1_555
Na5 O71 2.532781 1_545
Na5 O34 2.765525 1_545
Na5 O8 2.875225 1_545
Na5 O3 2.875779 1_555
Na6 O64 2.452416 1_555
Na6 O43 2.459701 1_555
Na6 O65 2.477652 1_555
Na6 O42 2.498666 1_455
Na6 O7 2.587542 1_555
Na6 O28 2.604463 1_555
Na6 O14 2.932741 1_555
Na6 O21 2.980930 1_555
Na7 O44 2.376052 1_455
Na7 O65 2.394107 1_555
Na7 O63 2.480093 1_555
Na7 O43 2.529205 1_565
Na7 O29 2.595707 1_555
Na7 O8 2.678839 1_555
Na7 O12 2.939260 1_455
Na7 O22 2.972436 1_455
Na8 O64 2.422740 1_555
Na8 O42 2.438478 1_565
Na8 O63 2.452645 1_555
Na8 O44 2.541643 1_555
Na8 O27 2.587607 1_555
Na8 O6 2.617421 1_555
Na9 O61 2.418056 1_555
Na9 O62 2.443253 1_555
Na9 O47 2.469878 1_565
Na9 O45 2.523020 1_455
Na9 O26 2.534548 1_554
Na9 O11 2.625087 1_555
Na9 O18 2.913393 1_565
Na9 O16 2.987586 1_565
Na10 O60 2.395126 1_555
Na10 O45 2.418109 1_555
Na10 O62 2.473768 1_555
Na10 O46 2.550588 1_565
Na10 O24 2.572987 1_554
Na10 O9 2.620253 1_555
Na10 O17 2.922762 1_555
Na10 O19 2.963242 1_555
Na11 O61 2.438928 1_555
Na11 O46 2.456620 1_455
Na11 O60 2.466586 1_555
Na11 O47 2.486501 1_555
Na11 O25 2.558611 1_554
Na11 O10 2.599462 1_555
Na11 O15 2.878771 1_455
Na11 O20 2.976719 1_455
Na12 O40 2.360446 1_655
Na12 O41 2.414461 1_555
Na12 O55 2.521365 1_555
Na12 O4 2.527024 1_555
Na12 O54 2.615860 1_555
Na12 O19 2.795938 1_556
Na12 O33 2.884197 1_655
Na12 O26 2.924845 1_655
Na13 O41 2.418012 1_545
Na13 O39 2.420353 1_655
Na13 O5 2.467285 1_555
Na13 O56 2.482422 1_555
Na13 O55 2.559261 1_555
Na13 O20 2.837748 1_556
Na13 O24 2.908778 1_545
Na13 O34 2.914569 1_545
Na14 O39 2.376459 1_555
Na14 O40 2.429583 1_545
Na14 O3 2.462277 1_555
Na14 O54 2.504258 1_555
Na14 O56 2.590021 1_555
Na14 O18 2.822530 1_556
Na14 O35 2.901155 1_555
Na14 O25 2.922992 1_555
Na15 O38 2.394856 1_655
Na15 O37 2.470806 1_545
Na15 O59 2.511783 1_555
Na15 O57 2.583497 1_555
Na15 O2 2.620488 1_555
Na15 O23 2.758837 1_555
Na15 O28 2.806063 1_655
Na15 O30 2.853713 1_655
Na16 O36 2.415341 1_545
Na16 O38 2.466987 1_555
Na16 O57 2.484000 1_555
Na16 O58 2.540258 1_555
Na16 O0 2.626815 1_555
Na16 O21 2.760727 1_555
Na16 O29 2.821669 1_545
Na16 O31 2.854787 1_545
Na17 O37 2.394541 1_555
Na17 O36 2.482864 1_655
Na17 O58 2.529897 1_555
Na17 O59 2.585892 1_555
Na17 O1 2.614749 1_555
Na17 O22 2.751426 1_555
Na17 O27 2.825422 1_555
Na17 O32 2.851975 1_555
Na18 O44 2.455193 1_545
Na18 O42 2.455662 1_555
Na18 O37 2.523323 1_545
Na18 O38 2.532355 1_655
Na18 O36 2.549648 1_645
Na18 O43 2.554051 1_655
Na19 O39 2.447038 1_555
Na19 O40 2.452296 1_545
Na19 O45 2.495559 1_446
Na19 O41 2.504045 1_445
Na19 O47 2.513342 1_556
Na19 O46 2.585374 1_456
Na20 O48 2.373159 1_555
Na20 O49 2.373896 1_555
Na20 O50 2.445287 1_555
Na20 O56 2.596997 1_555
Na20 O55 2.629084 1_555
Na20 O54 2.645706 1_555
Na21 O51 2.476307 1_555
Na21 O52 2.478121 1_555
Na21 O53 2.490296 1_555
Na21 O57 2.545287 1_555
Na21 O58 2.547985 1_555
Na21 O59 2.572091 1_555
Na22 O60 2.443332 1_555
Na22 O61 2.445133 1_555
Na22 O68 2.479219 1_555
Na22 O67 2.516734 1_555
Na22 O66 2.516923 1_555
Na22 O62 2.519176 1_555
Na23 O64 2.334570 1_555
Na23 O65 2.349308 1_555
Na23 O63 2.417855 1_555
Na23 O69 2.596717 1_555
Na23 O71 2.633129 1_555
Na23 O70 2.682935 1_555
Nb0 O18 1.936454 1_556
Nb0 O19 1.943419 1_556
Nb0 O54 1.998280 1_555
Nb0 O55 2.035184 1_555
Nb0 O20 2.037881 1_556
Nb0 O56 2.044543 1_555
Nb1 O23 1.931392 1_555
Nb1 O22 1.935767 1_555
Nb1 O59 1.987514 1_555
Nb1 O58 2.032641 1_555
Nb1 O57 2.035321 1_555
Nb1 O21 2.049794 1_555
Nb2 O35 1.935560 1_555
Nb2 O34 1.971004 1_555
Nb2 O33 1.972623 1_555
Nb2 O71 1.991643 1_555
Nb2 O69 2.009847 1_555
Nb2 O70 2.098941 1_555
Ga0 O38 1.969140 1_665
Ga0 O36 1.976068 1_655
Ga0 O37 1.979965 1_555
Ga0 O2 2.017704 1_565
Ga0 O1 2.026641 1_555
Ga0 O0 2.043442 1_665
Ga1 O3 1.915651 1_555
Ga1 O5 1.931172 1_455
Ga1 O39 2.019092 1_555
Ga1 O4 2.029065 1_445
Ga1 O41 2.056354 1_445
Ga1 O40 2.068705 1_545
Ga2 O6 1.906955 1_545
Ga2 O7 1.936635 1_655
Ga2 O42 1.993366 1_555
Ga2 O44 2.032078 1_545
Ga2 O8 2.063943 1_645
Ga2 O43 2.165671 1_655
Ga3 O11 1.968563 1_555
Ga3 O47 1.981786 1_565
Ga3 O9 1.988400 1_455
Ga3 O10 1.994275 1_565
Ga3 O45 2.003293 1_455
Ga3 O46 2.135724 1_465
Ga4 O14 1.909460 1_555
Ga4 O12 1.917149 1_555
Ga4 O13 1.979592 1_555
Ga4 O48 2.035579 1_555
Ga4 O49 2.038056 1_555
Ga4 O50 2.206794 1_555
Ga5 O15 1.878145 1_555
Ga5 O17 1.883615 1_555
Ga5 O16 1.972560 1_555
Ga5 O51 2.140234 1_555
Ga5 O53 2.140656 1_555
Ga5 O52 2.143068 1_555
Ga6 O25 1.906201 1_554
Ga6 O26 1.925453 1_554
Ga6 O24 1.945926 1_554
Ga6 O60 2.028828 1_555
Ga6 O61 2.030244 1_555
Ga6 O62 2.225541 1_555
Ga7 O28 1.909873 1_555
Ga7 O27 1.930357 1_555
Ga7 O29 1.944681 1_555
Ga7 O65 2.049201 1_555
Ga7 O64 2.066010 1_555
Ga7 O63 2.236824 1_555
Ga8 O31 1.882986 1_555
Ga8 O30 1.884465 1_555
Ga8 O32 1.886077 1_555
Ga8 O66 2.208991 1_555
Ga8 O67 2.221460 1_555
Ga8 O68 2.282322 1_555
O0 P0 1.550297 1_555
O1 P1 1.551497 1_555
O2 P2 1.552539 1_555
O3 Si0 1.630839 1_555
O4 P3 1.544423 1_555
O5 Si1 1.628648 1_555
O6 Si1 1.623917 1_565
O7 Si0 1.624663 1_555
O8 P3 1.538213 1_455
O9 P1 1.561312 1_555
O10 P2 1.561407 1_455
O11 P0 1.560649 1_565
O12 Si2 1.625920 1_555
O13 P4 1.544733 1_555
O14 Si3 1.625211 1_555
O15 Si4 1.624736 1_555
O16 P5 1.545427 1_555
O17 Si5 1.624275 1_555
O18 Si5 1.685712 1_555
O19 Si4 1.689738 1_555
O20 P5 1.581381 1_555
O21 P4 1.577681 1_555
O22 Si3 1.681942 1_555
O23 Si2 1.678578 1_555
O24 Si6 1.609974 1_555
O25 Si7 1.611010 1_555
O26 Si8 1.612772 1_555
O27 Si9 1.620806 1_555
O28 Si10 1.620338 1_555
O29 Si11 1.619938 1_555
O30 Si11 1.637198 1_555
O31 Si9 1.637749 1_555
O32 Si10 1.638025 1_555
O33 Si7 1.656874 1_555
O34 Si8 1.659867 1_555
O35 Si6 1.663722 1_555
O36 Si11 1.631908 1_555
O37 Si9 1.634905 1_555
O38 Si10 1.632245 1_555
O39 Si7 1.617682 1_555
O40 Si8 1.619506 1_555
O41 Si6 1.613469 1_555
O42 Si2 1.635492 1_555
O43 P4 1.544025 1_555
O44 Si3 1.637629 1_555
O45 Si4 1.639033 1_555
O46 P5 1.548872 1_555
O47 Si5 1.637286 1_555
O48 Si1 1.636803 1_555
O49 Si0 1.639386 1_555
O50 P3 1.545332 1_555
O51 P1 1.573096 1_555
O52 P2 1.575238 1_555
O53 P0 1.573233 1_555
O54 Si6 1.663028 1_555
O55 Si7 1.654519 1_655
O56 Si8 1.660173 1_545
O57 Si9 1.668199 1_545
O58 Si10 1.665415 1_555
O59 Si11 1.679060 1_655
O60 Si5 1.625545 1_555
O61 Si4 1.624119 1_455
O62 P5 1.530955 1_565
O63 P4 1.534539 1_565
O64 Si3 1.629541 1_555
O65 Si2 1.630464 1_455
O66 P0 1.559121 1_565
O67 P1 1.560451 1_555
O68 P2 1.557286 1_455
O69 Si0 1.688950 1_555
O70 P3 1.587344 1_455
O71 Si1 1.684123 1_565
