# generated using pymatgen
data_Na4MgMn2O6
_symmetry_space_group_name_H-M   'P 1'
_cell_length_a   7.18722001
_cell_length_b   5.57365421
_cell_length_c   12.53461896
_cell_angle_alpha   85.60633260
_cell_angle_beta   158.65980400
_cell_angle_gamma   104.01210132
_symmetry_Int_Tables_number   1
_chemical_formula_structural   Na4MgMn2O6
_chemical_formula_sum   'Na4 Mg1 Mn2 O6'
_cell_volume   160.74824806
_cell_formula_units_Z   1
loop_
 _symmetry_equiv_pos_site_id
 _symmetry_equiv_pos_as_xyz
  1  'x, y, z'
loop_
 _atom_site_type_symbol
 _atom_site_label
 _atom_site_symmetry_multiplicity
 _atom_site_fract_x
 _atom_site_fract_y
 _atom_site_fract_z
 _atom_site_occupancy
  Na  Na0  1  0.58282434  0.49931751  0.00761319  1
  Na  Na1  1  0.93904253  0.07322318  0.18791819  1
  Na  Na2  1  0.79127552  0.92550803  0.61404505  1
  Na  Na3  1  0.16089553  0.49933731  0.13266166  1
  Mg  Mg0  1  0.89313107  0.49943177  0.79887219  1
  Mn  Mn0  1  0.38214821  0.85296711  0.67010131  1
  Mn  Mn1  1  0.67506195  0.14585674  0.31656597  1
  O  O0  1  0.29177018  0.10808010  0.71990610  1
  O  O1  1  0.68195768  0.82586231  0.22815657  1
  O  O2  1  0.26031195  0.49941300  0.55120218  1
  O  O3  1  0.07445329  0.89073036  0.11122256  1
  O  O4  1  0.02908488  0.17298538  0.90172494  1
  O  O5  1  0.69625485  0.49939019  0.54896709  1
loop_
_geom_bond_atom_site_label_1
_geom_bond_atom_site_label_2
_geom_bond_distance
_geom_bond_site_symmetry_2
Na0 O5 2.326441 1_454
Na0 O0 2.660643 1_554
Na0 O3 2.661563 1_655
Na1 O5 2.290588 1_655
Na1 O3 2.297408 1_645
Na1 O0 2.348948 1_554
Na1 O1 2.442382 1_545
Na2 O5 2.290457 1_555
Na2 O0 2.297457 1_665
Na2 O3 2.349050 1_555
Na2 O4 2.442525 1_665
Na3 O5 2.152027 1_555
Na3 O0 2.338900 1_454
Na3 O3 2.339354 1_555
Mg0 O5 1.886126 1_555
Mg0 O2 2.005110 1_555
Mg0 O1 2.020336 1_656
Mg0 O4 2.020461 1_655
Mn0 O3 1.947965 1_656
Mn0 O1 1.965432 1_455
Mn0 O2 2.013551 1_555
Mn0 O0 2.042596 1_565
Mn0 O4 2.204474 1_665
Mn1 O0 1.947965 1_655
Mn1 O4 1.965508 1_554
Mn1 O2 2.013595 1_655
Mn1 O3 2.042376 1_545
Mn1 O1 2.204422 1_545
