# generated using pymatgen
data_SrInPt
_symmetry_space_group_name_H-M   'P 1'
_cell_length_a   4.56608860
_cell_length_b   7.61531526
_cell_length_c   8.48717560
_cell_angle_alpha   90.00008780
_cell_angle_beta   90.00000000
_cell_angle_gamma   90.00000000
_symmetry_Int_Tables_number   1
_chemical_formula_structural   SrInPt
_chemical_formula_sum   'Sr4 In4 Pt4'
_cell_volume   295.11780299
_cell_formula_units_Z   4
loop_
 _symmetry_equiv_pos_site_id
 _symmetry_equiv_pos_as_xyz
  1  'x, y, z'
loop_
 _atom_site_type_symbol
 _atom_site_label
 _atom_site_symmetry_multiplicity
 _atom_site_fract_x
 _atom_site_fract_y
 _atom_site_fract_z
 _atom_site_occupancy
  Sr  Sr0  1  0.75000000  0.97014327  0.67843005  1
  Sr  Sr1  1  0.25000000  0.02985673  0.32156995  1
  Sr  Sr2  1  0.75000000  0.47012999  0.82153404  1
  Sr  Sr3  1  0.25000000  0.52987001  0.17846596  1
  In  In0  1  0.75000000  0.35361082  0.43430755  1
  In  In1  1  0.25000000  0.14638742  0.93430347  1
  In  In2  1  0.25000000  0.64638918  0.56569245  1
  In  In3  1  0.75000000  0.85361258  0.06569653  1
  Pt  Pt0  1  0.25000000  0.77865832  0.87887694  1
  Pt  Pt1  1  0.25000000  0.27865649  0.62111484  1
  Pt  Pt2  1  0.75000000  0.72134351  0.37888516  1
  Pt  Pt3  1  0.75000000  0.22134168  0.12112306  1
loop_
_geom_bond_atom_site_label_1
_geom_bond_atom_site_label_2
_geom_bond_distance
_geom_bond_site_symmetry_2
In0 Pt1 2.837571 1_555
In0 Pt1 2.837571 1_655
In0 Pt2 2.839631 1_555
In0 Pt3 2.842504 1_555
In0 Sr2 3.404139 1_555
In0 Sr3 3.424740 1_655
In0 Sr3 3.424740 1_555
In0 Sr1 3.493771 1_555
In0 Sr1 3.493771 1_655
In0 Sr0 3.580580 1_545
In1 Pt3 2.837629 1_556
In1 Pt3 2.837629 1_456
In1 Pt0 2.839608 1_545
In1 Pt1 2.842539 1_555
In1 Sr1 3.404492 1_556
In1 Sr0 3.424864 1_545
In1 Sr0 3.424864 1_445
In1 Sr2 3.493785 1_555
In1 Sr2 3.493785 1_455
In1 Sr3 3.580865 1_556
In2 Pt2 2.837571 1_455
In2 Pt2 2.837571 1_555
In2 Pt1 2.839631 1_555
In2 Pt0 2.842504 1_555
In2 Sr3 3.404139 1_555
In2 Sr2 3.424740 1_555
In2 Sr2 3.424740 1_455
In2 Sr0 3.493771 1_455
In2 Sr0 3.493771 1_555
In2 Sr1 3.580580 1_565
In3 Pt0 2.837629 1_654
In3 Pt0 2.837629 1_554
In3 Pt3 2.839608 1_565
In3 Pt2 2.842539 1_555
In3 Sr0 3.404492 1_554
In3 Sr1 3.424864 1_665
In3 Sr1 3.424864 1_565
In3 Sr3 3.493785 1_555
In3 Sr3 3.493785 1_655
In3 Sr2 3.580865 1_554
Pt0 Sr3 3.170910 1_556
Pt0 Sr0 3.198887 1_455
Pt0 Sr0 3.198887 1_555
Pt0 Sr2 3.312021 1_455
Pt0 Sr2 3.312021 1_555
Pt1 Sr1 3.170658 1_555
Pt1 Sr2 3.198720 1_455
Pt1 Sr2 3.198720 1_555
Pt1 Sr0 3.311906 1_445
Pt1 Sr0 3.311906 1_545
Pt2 Sr0 3.170658 1_555
Pt2 Sr3 3.198720 1_655
Pt2 Sr3 3.198720 1_555
Pt2 Sr1 3.311906 1_665
Pt2 Sr1 3.311906 1_565
Pt3 Sr2 3.170910 1_554
Pt3 Sr1 3.198887 1_555
Pt3 Sr1 3.198887 1_655
Pt3 Sr3 3.312021 1_555
Pt3 Sr3 3.312021 1_655
