# generated using pymatgen
data_Mn3GaC
_symmetry_space_group_name_H-M   'P 1'
_cell_length_a   3.97641365
_cell_length_b   3.97674201
_cell_length_c   3.97706180
_cell_angle_alpha   90.00000000
_cell_angle_beta   90.00000000
_cell_angle_gamma   90.00000000
_symmetry_Int_Tables_number   1
_chemical_formula_structural   Mn3GaC
_chemical_formula_sum   'Mn3 Ga1 C1'
_cell_volume   62.88995916
_cell_formula_units_Z   1
loop_
 _symmetry_equiv_pos_site_id
 _symmetry_equiv_pos_as_xyz
  1  'x, y, z'
loop_
 _atom_site_type_symbol
 _atom_site_label
 _atom_site_symmetry_multiplicity
 _atom_site_fract_x
 _atom_site_fract_y
 _atom_site_fract_z
 _atom_site_occupancy
  Mn  Mn0  1  -0.00000000  0.50000000  0.50000000  1
  Mn  Mn1  1  0.50000000  0.50000000  0.00000000  1
  Mn  Mn2  1  0.50000000  0.00000000  0.50000000  1
  Ga  Ga0  1  -0.00000000  0.00000000  -0.00000000  1
  C  C0  1  0.50000000  0.50000000  0.50000000  1
loop_
_geom_bond_atom_site_label_1
_geom_bond_atom_site_label_2
_geom_bond_distance
_geom_bond_site_symmetry_2
Ga0 Mn1 2.811865 1_455
Ga0 Mn1 2.811865 1_545
Ga0 Mn1 2.811865 1_555
Ga0 Mn1 2.811865 1_445
Ga0 Mn2 2.811978 1_555
Ga0 Mn2 2.811978 1_454
Ga0 Mn2 2.811978 1_554
Ga0 Mn2 2.811978 1_455
Ga0 Mn0 2.812094 1_555
Ga0 Mn0 2.812094 1_544
Ga0 Mn0 2.812094 1_554
Ga0 Mn0 2.812094 1_545
C0 Mn0 1.988207 1_555
C0 Mn0 1.988207 1_655
C0 Mn2 1.988371 1_555
C0 Mn2 1.988371 1_565
C0 Mn1 1.988531 1_555
C0 Mn1 1.988531 1_556
