# generated using pymatgen
data_ZrCoSb
_symmetry_space_group_name_H-M   'P 1'
_cell_length_a   4.47173763
_cell_length_b   4.47173763
_cell_length_c   4.47173763
_cell_angle_alpha   60.00000000
_cell_angle_beta   60.00000000
_cell_angle_gamma   60.00000000
_symmetry_Int_Tables_number   1
_chemical_formula_structural   ZrCoSb
_chemical_formula_sum   'Zr1 Co1 Sb1'
_cell_volume   63.22865510
_cell_formula_units_Z   1
loop_
 _symmetry_equiv_pos_site_id
 _symmetry_equiv_pos_as_xyz
  1  'x, y, z'
loop_
 _atom_site_type_symbol
 _atom_site_label
 _atom_site_symmetry_multiplicity
 _atom_site_fract_x
 _atom_site_fract_y
 _atom_site_fract_z
 _atom_site_occupancy
  Zr  Zr0  1  0.50000000  0.50000000  0.50000000  1
  Co  Co0  1  0.00000000  0.00000000  0.00000000  1
  Sb  Sb0  1  0.75000000  0.75000000  0.75000000  1
loop_
_geom_bond_atom_site_label_1
_geom_bond_atom_site_label_2
_geom_bond_distance
_geom_bond_site_symmetry_2
Co0 Sb0 2.738369 1_445
Co0 Sb0 2.738369 1_454
Co0 Sb0 2.738369 1_544
Co0 Sb0 2.738369 1_444
Co0 Zr0 3.161996 1_455
Co0 Zr0 3.161996 1_554
Co0 Zr0 3.161996 1_454
Co0 Zr0 3.161996 1_544
Co0 Zr0 3.161996 1_445
Co0 Zr0 3.161996 1_545
Sb0 Zr0 2.738369 1_655
Sb0 Zr0 2.738369 1_565
Sb0 Zr0 2.738369 1_555
Sb0 Zr0 2.738369 1_556
