# generated using pymatgen
data_MgTe2Mo2W2(Se2S)2
_symmetry_space_group_name_H-M   'P 1'
_cell_length_a   6.66471800
_cell_length_b   6.66501804
_cell_length_c   76.19192400
_cell_angle_alpha   90.00104937
_cell_angle_beta   89.99996023
_cell_angle_gamma   120.00082423
_symmetry_Int_Tables_number   1
_chemical_formula_structural   MgTe2Mo2W2(Se2S)2
_chemical_formula_sum   'Mg8 Te16 Mo16 W16 Se32 S16'
_cell_volume   2931.02196034
_cell_formula_units_Z   8
loop_
 _symmetry_equiv_pos_site_id
 _symmetry_equiv_pos_as_xyz
  1  'x, y, z'
loop_
 _atom_site_type_symbol
 _atom_site_label
 _atom_site_symmetry_multiplicity
 _atom_site_fract_x
 _atom_site_fract_y
 _atom_site_fract_z
 _atom_site_occupancy
  Mg  Mg0_0  1  0.32373400  0.10978750  0.44101200  1
  Mg  Mg0_1  1  0.32373400  0.10978750  0.94101200  1
  Mg  Mg0_2  1  0.32373400  0.60978750  0.44101200  1
  Mg  Mg0_3  1  0.32373400  0.60978750  0.94101200  1
  Mg  Mg0_4  1  0.82373400  0.10978750  0.44101200  1
  Mg  Mg0_5  1  0.82373400  0.10978750  0.94101200  1
  Mg  Mg0_6  1  0.82373400  0.60978750  0.44101200  1
  Mg  Mg0_7  1  0.82373400  0.60978750  0.94101200  1
  Te  Te0_0  1  0.16668550  0.33336950  0.35370250  1
  Te  Te0_1  1  0.16668550  0.33336950  0.85370250  1
  Te  Te0_2  1  0.16668550  0.83336950  0.35370250  1
  Te  Te0_3  1  0.16668550  0.83336950  0.85370250  1
  Te  Te0_4  1  0.66668550  0.33336950  0.35370250  1
  Te  Te0_5  1  0.66668550  0.33336950  0.85370250  1
  Te  Te0_6  1  0.66668550  0.83336950  0.35370250  1
  Te  Te0_7  1  0.66668550  0.83336950  0.85370250  1
  Te  Te1_0  1  0.16667650  0.33335100  0.30386450  1
  Te  Te1_1  1  0.16667650  0.33335100  0.80386450  1
  Te  Te1_2  1  0.16667650  0.83335100  0.30386450  1
  Te  Te1_3  1  0.16667650  0.83335100  0.80386450  1
  Te  Te1_4  1  0.66667650  0.33335100  0.30386450  1
  Te  Te1_5  1  0.66667650  0.33335100  0.80386450  1
  Te  Te1_6  1  0.66667650  0.83335100  0.30386450  1
  Te  Te1_7  1  0.66667650  0.83335100  0.80386450  1
  Mo  Mo0_0  1  0.16669100  0.33333000  0.04693000  1
  Mo  Mo0_1  1  0.16669100  0.33333000  0.54693000  1
  Mo  Mo0_2  1  0.16669100  0.83333000  0.04693000  1
  Mo  Mo0_3  1  0.16669100  0.83333000  0.54693000  1
  Mo  Mo0_4  1  0.66669100  0.33333000  0.04693000  1
  Mo  Mo0_5  1  0.66669100  0.33333000  0.54693000  1
  Mo  Mo0_6  1  0.66669100  0.83333000  0.04693000  1
  Mo  Mo0_7  1  0.66669100  0.83333000  0.54693000  1
  Mo  Mo1_0  1  0.33334500  0.16669100  0.32879800  1
  Mo  Mo1_1  1  0.33334500  0.16669100  0.82879800  1
  Mo  Mo1_2  1  0.33334500  0.66669100  0.32879800  1
  Mo  Mo1_3  1  0.33334500  0.66669100  0.82879800  1
  Mo  Mo1_4  1  0.83334500  0.16669100  0.32879800  1
  Mo  Mo1_5  1  0.83334500  0.16669100  0.82879800  1
  Mo  Mo1_6  1  0.83334500  0.66669100  0.32879800  1
  Mo  Mo1_7  1  0.83334500  0.66669100  0.82879800  1
  W  W0_0  1  0.16665600  0.33331050  0.23480950  1
  W  W0_1  1  0.16665600  0.33331050  0.73480950  1
  W  W0_2  1  0.16665600  0.83331050  0.23480950  1
  W  W0_3  1  0.16665600  0.83331050  0.73480950  1
  W  W0_4  1  0.66665600  0.33331050  0.23480950  1
  W  W0_5  1  0.66665600  0.33331050  0.73480950  1
  W  W0_6  1  0.66665600  0.83331050  0.23480950  1
  W  W0_7  1  0.66665600  0.83331050  0.73480950  1
  W  W1_0  1  0.33334100  0.16668150  0.14090800  1
  W  W1_1  1  0.33334100  0.16668150  0.64090800  1
  W  W1_2  1  0.33334100  0.66668150  0.14090800  1
  W  W1_3  1  0.33334100  0.66668150  0.64090800  1
  W  W1_4  1  0.83334100  0.16668150  0.14090800  1
  W  W1_5  1  0.83334100  0.16668150  0.64090800  1
  W  W1_6  1  0.83334100  0.66668150  0.14090800  1
  W  W1_7  1  0.83334100  0.66668150  0.64090800  1
  Se  Se0_0  1  0.16668250  0.33336350  0.16293700  1
  Se  Se0_1  1  0.16668250  0.33336350  0.66293700  1
  Se  Se0_2  1  0.16668250  0.83336350  0.16293700  1
  Se  Se0_3  1  0.16668250  0.83336350  0.66293700  1
  Se  Se0_4  1  0.66668250  0.33336350  0.16293700  1
  Se  Se0_5  1  0.66668250  0.33336350  0.66293700  1
  Se  Se0_6  1  0.66668250  0.83336350  0.16293700  1
  Se  Se0_7  1  0.66668250  0.83336350  0.66293700  1
  Se  Se1_0  1  0.33330350  0.16663300  0.02503600  1
  Se  Se1_1  1  0.33330350  0.16663300  0.52503600  1
  Se  Se1_2  1  0.33330350  0.66663300  0.02503600  1
  Se  Se1_3  1  0.33330350  0.66663300  0.52503600  1
  Se  Se1_4  1  0.83330350  0.16663300  0.02503600  1
  Se  Se1_5  1  0.83330350  0.16663300  0.52503600  1
  Se  Se1_6  1  0.83330350  0.66663300  0.02503600  1
  Se  Se1_7  1  0.83330350  0.66663300  0.52503600  1
  Se  Se2_0  1  0.33330650  0.16663900  0.06884550  1
  Se  Se2_1  1  0.33330650  0.16663900  0.56884550  1
  Se  Se2_2  1  0.33330650  0.66663900  0.06884550  1
  Se  Se2_3  1  0.33330650  0.66663900  0.56884550  1
  Se  Se2_4  1  0.83330650  0.16663900  0.06884550  1
  Se  Se2_5  1  0.83330650  0.16663900  0.56884550  1
  Se  Se2_6  1  0.83330650  0.66663900  0.06884550  1
  Se  Se2_7  1  0.83330650  0.66663900  0.56884550  1
  Se  Se3_0  1  0.16668150  0.33336050  0.11889150  1
  Se  Se3_1  1  0.16668150  0.33336050  0.61889150  1
  Se  Se3_2  1  0.16668150  0.83336050  0.11889150  1
  Se  Se3_3  1  0.16668150  0.83336050  0.61889150  1
  Se  Se3_4  1  0.66668150  0.33336050  0.11889150  1
  Se  Se3_5  1  0.66668150  0.33336050  0.61889150  1
  Se  Se3_6  1  0.66668150  0.83336050  0.11889150  1
  Se  Se3_7  1  0.66668150  0.83336050  0.61889150  1
  S  S0_0  1  0.33332350  0.16664300  0.21480350  1
  S  S0_1  1  0.33332350  0.16664300  0.71480350  1
  S  S0_2  1  0.33332350  0.66664300  0.21480350  1
  S  S0_3  1  0.33332350  0.66664300  0.71480350  1
  S  S0_4  1  0.83332350  0.16664300  0.21480350  1
  S  S0_5  1  0.83332350  0.16664300  0.71480350  1
  S  S0_6  1  0.83332350  0.66664300  0.21480350  1
  S  S0_7  1  0.83332350  0.66664300  0.71480350  1
  S  S1_0  1  0.33332600  0.16664700  0.25483600  1
  S  S1_1  1  0.33332600  0.16664700  0.75483600  1
  S  S1_2  1  0.33332600  0.66664700  0.25483600  1
  S  S1_3  1  0.33332600  0.66664700  0.75483600  1
  S  S1_4  1  0.83332600  0.16664700  0.25483600  1
  S  S1_5  1  0.83332600  0.16664700  0.75483600  1
  S  S1_6  1  0.83332600  0.66664700  0.25483600  1
  S  S1_7  1  0.83332600  0.66664700  0.75483600  1
loop_
_geom_bond_atom_site_label_1
_geom_bond_atom_site_label_2
_geom_bond_distance
_geom_bond_site_symmetry_2
Mg0_0 Mg0_4 3.332359 1_455
Mg0_0 Mg0_4 3.332359 1_555
Mg0_0 Mg0_6 3.332392 1_555
Mg0_0 Mg0_6 3.332392 1_445
Mg0_0 Mg0_2 3.332509 1_545
Mg0_0 Mg0_2 3.332509 1_555
Mg0_1 Mg0_5 3.332359 1_555
Mg0_1 Mg0_5 3.332359 1_455
Mg0_1 Mg0_7 3.332392 1_555
Mg0_1 Mg0_7 3.332392 1_445
Mg0_1 Mg0_3 3.332509 1_555
Mg0_1 Mg0_3 3.332509 1_545
Mg0_2 Mg0_6 3.332359 1_555
Mg0_2 Mg0_6 3.332359 1_455
Mg0_2 Mg0_4 3.332392 1_565
Mg0_2 Mg0_4 3.332392 1_455
Mg0_3 Mg0_7 3.332359 1_555
Mg0_3 Mg0_7 3.332359 1_455
Mg0_3 Mg0_5 3.332392 1_565
Mg0_3 Mg0_5 3.332392 1_455
Mg0_4 Mg0_6 3.332509 1_545
Mg0_4 Mg0_6 3.332509 1_555
Mg0_5 Mg0_7 3.332509 1_555
Mg0_5 Mg0_7 3.332509 1_545
Mo0_0 Se1_0 2.546340 1_555
Mo0_0 Se1_2 2.546366 1_555
Mo0_0 Se1_4 2.546631 1_455
Mo0_0 Se2_2 2.547414 1_555
Mo0_0 Se2_0 2.547428 1_555
Mo0_0 Se2_4 2.547716 1_455
Mo0_1 Se1_1 2.546340 1_555
Mo0_1 Se1_3 2.546366 1_555
Mo0_1 Se1_5 2.546631 1_455
Mo0_1 Se2_3 2.547414 1_555
Mo0_1 Se2_1 2.547428 1_555
Mo0_1 Se2_5 2.547716 1_455
Mo0_2 Se1_2 2.546340 1_555
Mo0_2 Se1_0 2.546366 1_565
Mo0_2 Se1_6 2.546631 1_455
Mo0_2 Se2_0 2.547414 1_565
Mo0_2 Se2_2 2.547428 1_555
Mo0_2 Se2_6 2.547716 1_455
Mo0_3 Se1_3 2.546340 1_555
Mo0_3 Se1_1 2.546366 1_565
Mo0_3 Se1_7 2.546631 1_455
Mo0_3 Se2_1 2.547414 1_565
Mo0_3 Se2_3 2.547428 1_555
Mo0_3 Se2_7 2.547716 1_455
Mo0_4 Se1_4 2.546340 1_555
Mo0_4 Se1_6 2.546366 1_555
Mo0_4 Se1_0 2.546631 1_555
Mo0_4 Se2_6 2.547414 1_555
Mo0_4 Se2_4 2.547428 1_555
Mo0_4 Se2_0 2.547716 1_555
Mo0_5 Se1_5 2.546340 1_555
Mo0_5 Se1_7 2.546366 1_555
Mo0_5 Se1_1 2.546631 1_555
Mo0_5 Se2_7 2.547414 1_555
Mo0_5 Se2_5 2.547428 1_555
Mo0_5 Se2_1 2.547716 1_555
Mo0_6 Se1_6 2.546340 1_555
Mo0_6 Se1_4 2.546366 1_565
Mo0_6 Se1_2 2.546631 1_555
Mo0_6 Se2_4 2.547414 1_565
Mo0_6 Se2_6 2.547428 1_555
Mo0_6 Se2_2 2.547716 1_555
Mo0_7 Se1_7 2.546340 1_555
Mo0_7 Se1_5 2.546366 1_565
Mo0_7 Se1_3 2.546631 1_555
Mo0_7 Se2_5 2.547414 1_565
Mo0_7 Se2_7 2.547428 1_555
Mo0_7 Se2_3 2.547716 1_555
Mo1_0 Te0_4 2.702250 1_555
Mo1_0 Te0_2 2.702275 1_545
Mo1_0 Te0_0 2.702286 1_555
Mo1_0 Te1_4 2.703791 1_555
Mo1_0 Te1_0 2.703828 1_555
Mo1_0 Te1_2 2.703847 1_545
Mo1_1 Te0_5 2.702250 1_555
Mo1_1 Te0_3 2.702275 1_545
Mo1_1 Te0_1 2.702286 1_555
Mo1_1 Te1_5 2.703791 1_555
Mo1_1 Te1_1 2.703828 1_555
Mo1_1 Te1_3 2.703847 1_545
Mo1_2 Te0_6 2.702250 1_555
Mo1_2 Te0_0 2.702275 1_555
Mo1_2 Te0_2 2.702286 1_555
Mo1_2 Te1_6 2.703791 1_555
Mo1_2 Te1_2 2.703828 1_555
Mo1_2 Te1_0 2.703847 1_555
Mo1_3 Te0_7 2.702250 1_555
Mo1_3 Te0_1 2.702275 1_555
Mo1_3 Te0_3 2.702286 1_555
Mo1_3 Te1_7 2.703791 1_555
Mo1_3 Te1_3 2.703828 1_555
Mo1_3 Te1_1 2.703847 1_555
Mo1_4 Te0_0 2.702250 1_655
Mo1_4 Te0_6 2.702275 1_545
Mo1_4 Te0_4 2.702286 1_555
Mo1_4 Te1_0 2.703791 1_655
Mo1_4 Te1_4 2.703828 1_555
Mo1_4 Te1_6 2.703847 1_545
Mo1_5 Te0_1 2.702250 1_655
Mo1_5 Te0_7 2.702275 1_545
Mo1_5 Te0_5 2.702286 1_555
Mo1_5 Te1_1 2.703791 1_655
Mo1_5 Te1_5 2.703828 1_555
Mo1_5 Te1_7 2.703847 1_545
Mo1_6 Te0_2 2.702250 1_655
Mo1_6 Te0_4 2.702275 1_555
Mo1_6 Te0_6 2.702286 1_555
Mo1_6 Te1_2 2.703791 1_655
Mo1_6 Te1_6 2.703828 1_555
Mo1_6 Te1_4 2.703847 1_555
Mo1_7 Te0_3 2.702250 1_655
Mo1_7 Te0_5 2.702275 1_555
Mo1_7 Te0_7 2.702286 1_555
Mo1_7 Te1_3 2.703791 1_655
Mo1_7 Te1_7 2.703828 1_555
Mo1_7 Te1_5 2.703847 1_555
Se0_0 W1_4 2.553180 1_455
Se0_0 W1_2 2.553182 1_555
Se0_0 W1_0 2.553225 1_555
Se0_1 W1_5 2.553180 1_455
Se0_1 W1_3 2.553182 1_555
Se0_1 W1_1 2.553225 1_555
Se0_2 W1_6 2.553180 1_455
Se0_2 W1_0 2.553182 1_565
Se0_2 W1_2 2.553225 1_555
Se0_3 W1_7 2.553180 1_455
Se0_3 W1_1 2.553182 1_565
Se0_3 W1_3 2.553225 1_555
Se0_4 W1_0 2.553180 1_555
Se0_4 W1_6 2.553182 1_555
Se0_4 W1_4 2.553225 1_555
Se0_5 W1_1 2.553180 1_555
Se0_5 W1_7 2.553182 1_555
Se0_5 W1_5 2.553225 1_555
Se0_6 W1_2 2.553180 1_555
Se0_6 W1_4 2.553182 1_565
Se0_6 W1_6 2.553225 1_555
Se0_7 W1_3 2.553180 1_555
Se0_7 W1_5 2.553182 1_565
Se0_7 W1_7 2.553225 1_555
Se3_0 W1_2 2.552516 1_555
Se3_0 W1_4 2.552575 1_455
Se3_0 W1_0 2.552618 1_555
Se3_1 W1_3 2.552516 1_555
Se3_1 W1_5 2.552575 1_455
Se3_1 W1_1 2.552618 1_555
Se3_2 W1_0 2.552516 1_565
Se3_2 W1_6 2.552575 1_455
Se3_2 W1_2 2.552618 1_555
Se3_3 W1_1 2.552516 1_565
Se3_3 W1_7 2.552575 1_455
Se3_3 W1_3 2.552618 1_555
Se3_4 W1_6 2.552516 1_555
Se3_4 W1_0 2.552575 1_555
Se3_4 W1_4 2.552618 1_555
Se3_5 W1_7 2.552516 1_555
Se3_5 W1_1 2.552575 1_555
Se3_5 W1_5 2.552618 1_555
Se3_6 W1_4 2.552516 1_565
Se3_6 W1_2 2.552575 1_555
Se3_6 W1_6 2.552618 1_555
Se3_7 W1_5 2.552516 1_565
Se3_7 W1_3 2.552575 1_555
Se3_7 W1_7 2.552618 1_555
S0_0 W0_4 2.454563 1_555
S0_0 W0_0 2.454625 1_555
S0_0 W0_2 2.454667 1_545
S0_1 W0_5 2.454563 1_555
S0_1 W0_1 2.454625 1_555
S0_1 W0_3 2.454667 1_545
S0_2 W0_6 2.454563 1_555
S0_2 W0_2 2.454625 1_555
S0_2 W0_0 2.454667 1_555
S0_3 W0_7 2.454563 1_555
S0_3 W0_3 2.454625 1_555
S0_3 W0_1 2.454667 1_555
S0_4 W0_0 2.454563 1_655
S0_4 W0_4 2.454625 1_555
S0_4 W0_6 2.454667 1_545
S0_5 W0_1 2.454563 1_655
S0_5 W0_5 2.454625 1_555
S0_5 W0_7 2.454667 1_545
S0_6 W0_2 2.454563 1_655
S0_6 W0_6 2.454625 1_555
S0_6 W0_4 2.454667 1_555
S0_7 W0_3 2.454563 1_655
S0_7 W0_7 2.454625 1_555
S0_7 W0_5 2.454667 1_555
S1_0 W0_4 2.455545 1_555
S1_0 W0_2 2.455606 1_545
S1_0 W0_0 2.455615 1_555
S1_1 W0_5 2.455545 1_555
S1_1 W0_3 2.455606 1_545
S1_1 W0_1 2.455615 1_555
S1_2 W0_6 2.455545 1_555
S1_2 W0_0 2.455606 1_555
S1_2 W0_2 2.455615 1_555
S1_3 W0_7 2.455545 1_555
S1_3 W0_1 2.455606 1_555
S1_3 W0_3 2.455615 1_555
S1_4 W0_0 2.455545 1_655
S1_4 W0_6 2.455606 1_545
S1_4 W0_4 2.455615 1_555
S1_5 W0_1 2.455545 1_655
S1_5 W0_7 2.455606 1_545
S1_5 W0_5 2.455615 1_555
S1_6 W0_2 2.455545 1_655
S1_6 W0_4 2.455606 1_555
S1_6 W0_6 2.455615 1_555
S1_7 W0_3 2.455545 1_655
S1_7 W0_5 2.455606 1_555
S1_7 W0_7 2.455615 1_555
