# generated using pymatgen
data_PrIn
_symmetry_space_group_name_H-M   'P 1'
_cell_length_a   3.89873027
_cell_length_b   3.89873027
_cell_length_c   3.89873027
_cell_angle_alpha   90.00000000
_cell_angle_beta   90.00000000
_cell_angle_gamma   90.00000000
_symmetry_Int_Tables_number   1
_chemical_formula_structural   PrIn
_chemical_formula_sum   'Pr1 In1'
_cell_volume   59.26108108
_cell_formula_units_Z   1
loop_
 _symmetry_equiv_pos_site_id
 _symmetry_equiv_pos_as_xyz
  1  'x, y, z'
loop_
 _atom_site_type_symbol
 _atom_site_label
 _atom_site_symmetry_multiplicity
 _atom_site_fract_x
 _atom_site_fract_y
 _atom_site_fract_z
 _atom_site_occupancy
  Pr  Pr0  1  0.50000000  0.50000000  0.50000000  1
  In  In0  1  -0.00000000  0.00000000  -0.00000000  1
loop_
_geom_bond_atom_site_label_1
_geom_bond_atom_site_label_2
_geom_bond_distance
_geom_bond_site_symmetry_2
In0 Pr0 3.376399 1_554
In0 Pr0 3.376399 1_454
In0 Pr0 3.376399 1_555
In0 Pr0 3.376399 1_445
In0 Pr0 3.376399 1_444
In0 Pr0 3.376399 1_545
In0 Pr0 3.376399 1_544
In0 Pr0 3.376399 1_455
