# generated using pymatgen
data_MgTe2Mo2W2(Se2S)2
_symmetry_space_group_name_H-M   'P 1'
_cell_length_a   6.67304600
_cell_length_b   6.67300149
_cell_length_c   76.71491000
_cell_angle_alpha   89.99962539
_cell_angle_beta   89.99992831
_cell_angle_gamma   120.00009974
_symmetry_Int_Tables_number   1
_chemical_formula_structural   MgTe2Mo2W2(Se2S)2
_chemical_formula_sum   'Mg8 Te16 Mo16 W16 Se32 S16'
_cell_volume   2958.38924791
_cell_formula_units_Z   8
loop_
 _symmetry_equiv_pos_site_id
 _symmetry_equiv_pos_as_xyz
  1  'x, y, z'
loop_
 _atom_site_type_symbol
 _atom_site_label
 _atom_site_symmetry_multiplicity
 _atom_site_fract_x
 _atom_site_fract_y
 _atom_site_fract_z
 _atom_site_occupancy
  Mg  Mg0_0  1  0.32194700  0.16343500  0.43342750  1
  Mg  Mg0_1  1  0.32194700  0.16343500  0.93342750  1
  Mg  Mg0_2  1  0.32194700  0.66343500  0.43342750  1
  Mg  Mg0_3  1  0.32194700  0.66343500  0.93342750  1
  Mg  Mg0_4  1  0.82194700  0.16343500  0.43342750  1
  Mg  Mg0_5  1  0.82194700  0.16343500  0.93342750  1
  Mg  Mg0_6  1  0.82194700  0.66343500  0.43342750  1
  Mg  Mg0_7  1  0.82194700  0.66343500  0.93342750  1
  Te  Te0_0  1  0.33332200  0.16664350  0.02211550  1
  Te  Te0_1  1  0.33332200  0.16664350  0.52211550  1
  Te  Te0_2  1  0.33332200  0.66664350  0.02211550  1
  Te  Te0_3  1  0.33332200  0.66664350  0.52211550  1
  Te  Te0_4  1  0.83332200  0.16664350  0.02211550  1
  Te  Te0_5  1  0.83332200  0.16664350  0.52211550  1
  Te  Te0_6  1  0.83332200  0.66664350  0.02211550  1
  Te  Te0_7  1  0.83332200  0.66664350  0.52211550  1
  Te  Te1_0  1  0.33331850  0.16663650  0.07160750  1
  Te  Te1_1  1  0.33331850  0.16663650  0.57160750  1
  Te  Te1_2  1  0.33331850  0.66663650  0.07160750  1
  Te  Te1_3  1  0.33331850  0.66663650  0.57160750  1
  Te  Te1_4  1  0.83331850  0.16663650  0.07160750  1
  Te  Te1_5  1  0.83331850  0.16663650  0.57160750  1
  Te  Te1_6  1  0.83331850  0.66663650  0.07160750  1
  Te  Te1_7  1  0.83331850  0.66663650  0.57160750  1
  Mo  Mo0_0  1  0.16665400  0.33330850  0.04684400  1
  Mo  Mo0_1  1  0.16665400  0.33330850  0.54684400  1
  Mo  Mo0_2  1  0.16665400  0.83330850  0.04684400  1
  Mo  Mo0_3  1  0.16665400  0.83330850  0.54684400  1
  Mo  Mo0_4  1  0.66665400  0.33330850  0.04684400  1
  Mo  Mo0_5  1  0.66665400  0.33330850  0.54684400  1
  Mo  Mo0_6  1  0.66665400  0.83330850  0.04684400  1
  Mo  Mo0_7  1  0.66665400  0.83330850  0.54684400  1
  Mo  Mo1_0  1  0.16664350  0.33329250  0.23483750  1
  Mo  Mo1_1  1  0.16664350  0.33329250  0.73483750  1
  Mo  Mo1_2  1  0.16664350  0.83329250  0.23483750  1
  Mo  Mo1_3  1  0.16664350  0.83329250  0.73483750  1
  Mo  Mo1_4  1  0.66664350  0.33329250  0.23483750  1
  Mo  Mo1_5  1  0.66664350  0.33329250  0.73483750  1
  Mo  Mo1_6  1  0.66664350  0.83329250  0.23483750  1
  Mo  Mo1_7  1  0.66664350  0.83329250  0.73483750  1
  W  W0_0  1  0.33335100  0.16670000  0.14099350  1
  W  W0_1  1  0.33335100  0.16670000  0.64099350  1
  W  W0_2  1  0.33335100  0.66670000  0.14099350  1
  W  W0_3  1  0.33335100  0.66670000  0.64099350  1
  W  W0_4  1  0.83335100  0.16670000  0.14099350  1
  W  W0_5  1  0.83335100  0.16670000  0.64099350  1
  W  W0_6  1  0.83335100  0.66670000  0.14099350  1
  W  W0_7  1  0.83335100  0.66670000  0.64099350  1
  W  W1_0  1  0.33334450  0.16668950  0.32879200  1
  W  W1_1  1  0.33334450  0.16668950  0.82879200  1
  W  W1_2  1  0.33334450  0.66668950  0.32879200  1
  W  W1_3  1  0.33334450  0.66668950  0.82879200  1
  W  W1_4  1  0.83334450  0.16668950  0.32879200  1
  W  W1_5  1  0.83334450  0.16668950  0.82879200  1
  W  W1_6  1  0.83334450  0.66668950  0.32879200  1
  W  W1_7  1  0.83334450  0.66668950  0.82879200  1
  Se  Se0_0  1  0.16668950  0.33337800  0.16282550  1
  Se  Se0_1  1  0.16668950  0.33337800  0.66282550  1
  Se  Se0_2  1  0.16668950  0.83337800  0.16282550  1
  Se  Se0_3  1  0.16668950  0.83337800  0.66282550  1
  Se  Se0_4  1  0.66668950  0.33337800  0.16282550  1
  Se  Se0_5  1  0.66668950  0.33337800  0.66282550  1
  Se  Se0_6  1  0.66668950  0.83337800  0.16282550  1
  Se  Se0_7  1  0.66668950  0.83337800  0.66282550  1
  Se  Se1_0  1  0.16667550  0.33335300  0.35064000  1
  Se  Se1_1  1  0.16667550  0.33335300  0.85064000  1
  Se  Se1_2  1  0.16667550  0.83335300  0.35064000  1
  Se  Se1_3  1  0.16667550  0.83335300  0.85064000  1
  Se  Se1_4  1  0.66667550  0.33335300  0.35064000  1
  Se  Se1_5  1  0.66667550  0.33335300  0.85064000  1
  Se  Se1_6  1  0.66667550  0.83335300  0.35064000  1
  Se  Se1_7  1  0.66667550  0.83335300  0.85064000  1
  Se  Se2_0  1  0.16667950  0.33335750  0.11910250  1
  Se  Se2_1  1  0.16667950  0.33335750  0.61910250  1
  Se  Se2_2  1  0.16667950  0.83335750  0.11910250  1
  Se  Se2_3  1  0.16667950  0.83335750  0.61910250  1
  Se  Se2_4  1  0.66667950  0.33335750  0.11910250  1
  Se  Se2_5  1  0.66667950  0.33335750  0.61910250  1
  Se  Se2_6  1  0.66667950  0.83335750  0.11910250  1
  Se  Se2_7  1  0.66667950  0.83335750  0.61910250  1
  Se  Se3_0  1  0.16667500  0.33335150  0.30690500  1
  Se  Se3_1  1  0.16667500  0.33335150  0.80690500  1
  Se  Se3_2  1  0.16667500  0.83335150  0.30690500  1
  Se  Se3_3  1  0.16667500  0.83335150  0.80690500  1
  Se  Se3_4  1  0.66667500  0.33335150  0.30690500  1
  Se  Se3_5  1  0.66667500  0.33335150  0.80690500  1
  Se  Se3_6  1  0.66667500  0.83335150  0.30690500  1
  Se  Se3_7  1  0.66667500  0.83335150  0.80690500  1
  S  S0_0  1  0.33330600  0.16661900  0.21503650  1
  S  S0_1  1  0.33330600  0.16661900  0.71503650  1
  S  S0_2  1  0.33330600  0.66661900  0.21503650  1
  S  S0_3  1  0.33330600  0.66661900  0.71503650  1
  S  S0_4  1  0.83330600  0.16661900  0.21503650  1
  S  S0_5  1  0.83330600  0.16661900  0.71503650  1
  S  S0_6  1  0.83330600  0.66661900  0.21503650  1
  S  S0_7  1  0.83330600  0.66661900  0.71503650  1
  S  S1_0  1  0.33330650  0.16662150  0.25460650  1
  S  S1_1  1  0.33330650  0.16662150  0.75460650  1
  S  S1_2  1  0.33330650  0.66662150  0.25460650  1
  S  S1_3  1  0.33330650  0.66662150  0.75460650  1
  S  S1_4  1  0.83330650  0.16662150  0.25460650  1
  S  S1_5  1  0.83330650  0.16662150  0.75460650  1
  S  S1_6  1  0.83330650  0.66662150  0.25460650  1
  S  S1_7  1  0.83330650  0.66662150  0.75460650  1
loop_
_geom_bond_atom_site_label_1
_geom_bond_atom_site_label_2
_geom_bond_distance
_geom_bond_site_symmetry_2
Mg0_0 Mg0_2 3.336501 1_555
Mg0_0 Mg0_2 3.336501 1_545
Mg0_0 Mg0_6 3.336507 1_445
Mg0_0 Mg0_6 3.336507 1_555
Mg0_0 Mg0_4 3.336523 1_455
Mg0_0 Mg0_4 3.336523 1_555
Mg0_1 Mg0_3 3.336501 1_545
Mg0_1 Mg0_3 3.336501 1_555
Mg0_1 Mg0_7 3.336507 1_555
Mg0_1 Mg0_7 3.336507 1_445
Mg0_1 Mg0_5 3.336523 1_455
Mg0_1 Mg0_5 3.336523 1_555
Mg0_2 Mg0_4 3.336507 1_455
Mg0_2 Mg0_4 3.336507 1_565
Mg0_2 Mg0_6 3.336523 1_455
Mg0_2 Mg0_6 3.336523 1_555
Mg0_3 Mg0_5 3.336507 1_455
Mg0_3 Mg0_5 3.336507 1_565
Mg0_3 Mg0_7 3.336523 1_455
Mg0_3 Mg0_7 3.336523 1_555
Mg0_4 Mg0_6 3.336501 1_555
Mg0_4 Mg0_6 3.336501 1_545
Mg0_5 Mg0_7 3.336501 1_555
Mg0_5 Mg0_7 3.336501 1_545
Mo0_0 Te0_2 2.703607 1_555
Mo0_0 Te0_0 2.703621 1_555
Mo0_0 Te0_4 2.703623 1_455
Mo0_0 Te1_2 2.705486 1_555
Mo0_0 Te1_4 2.705507 1_455
Mo0_0 Te1_0 2.705512 1_555
Mo0_1 Te0_3 2.703607 1_555
Mo0_1 Te0_1 2.703621 1_555
Mo0_1 Te0_5 2.703623 1_455
Mo0_1 Te1_3 2.705486 1_555
Mo0_1 Te1_5 2.705507 1_455
Mo0_1 Te1_1 2.705512 1_555
Mo0_2 Te0_0 2.703607 1_565
Mo0_2 Te0_2 2.703621 1_555
Mo0_2 Te0_6 2.703623 1_455
Mo0_2 Te1_0 2.705486 1_565
Mo0_2 Te1_6 2.705507 1_455
Mo0_2 Te1_2 2.705512 1_555
Mo0_3 Te0_1 2.703607 1_565
Mo0_3 Te0_3 2.703621 1_555
Mo0_3 Te0_7 2.703623 1_455
Mo0_3 Te1_1 2.705486 1_565
Mo0_3 Te1_7 2.705507 1_455
Mo0_3 Te1_3 2.705512 1_555
Mo0_4 Te0_6 2.703607 1_555
Mo0_4 Te0_4 2.703621 1_555
Mo0_4 Te0_0 2.703623 1_555
Mo0_4 Te1_6 2.705486 1_555
Mo0_4 Te1_0 2.705507 1_555
Mo0_4 Te1_4 2.705512 1_555
Mo0_5 Te0_7 2.703607 1_555
Mo0_5 Te0_5 2.703621 1_555
Mo0_5 Te0_1 2.703623 1_555
Mo0_5 Te1_7 2.705486 1_555
Mo0_5 Te1_1 2.705507 1_555
Mo0_5 Te1_5 2.705512 1_555
Mo0_6 Te0_4 2.703607 1_565
Mo0_6 Te0_6 2.703621 1_555
Mo0_6 Te0_2 2.703623 1_555
Mo0_6 Te1_4 2.705486 1_565
Mo0_6 Te1_2 2.705507 1_555
Mo0_6 Te1_6 2.705512 1_555
Mo0_7 Te0_5 2.703607 1_565
Mo0_7 Te0_7 2.703621 1_555
Mo0_7 Te0_3 2.703623 1_555
Mo0_7 Te1_5 2.705486 1_565
Mo0_7 Te1_3 2.705507 1_555
Mo0_7 Te1_7 2.705512 1_555
Mo1_0 S1_2 2.451672 1_555
Mo1_0 S1_0 2.451689 1_555
Mo1_0 S1_4 2.451702 1_455
Mo1_0 S0_2 2.453160 1_555
Mo1_0 S0_0 2.453224 1_555
Mo1_0 S0_4 2.453236 1_455
Mo1_1 S1_3 2.451672 1_555
Mo1_1 S1_1 2.451689 1_555
Mo1_1 S1_5 2.451702 1_455
Mo1_1 S0_3 2.453160 1_555
Mo1_1 S0_1 2.453224 1_555
Mo1_1 S0_5 2.453236 1_455
Mo1_2 S1_0 2.451672 1_565
Mo1_2 S1_2 2.451689 1_555
Mo1_2 S1_6 2.451702 1_455
Mo1_2 S0_0 2.453160 1_565
Mo1_2 S0_2 2.453224 1_555
Mo1_2 S0_6 2.453236 1_455
Mo1_3 S1_1 2.451672 1_565
Mo1_3 S1_3 2.451689 1_555
Mo1_3 S1_7 2.451702 1_455
Mo1_3 S0_1 2.453160 1_565
Mo1_3 S0_3 2.453224 1_555
Mo1_3 S0_7 2.453236 1_455
Mo1_4 S1_6 2.451672 1_555
Mo1_4 S1_4 2.451689 1_555
Mo1_4 S1_0 2.451702 1_555
Mo1_4 S0_6 2.453160 1_555
Mo1_4 S0_4 2.453224 1_555
Mo1_4 S0_0 2.453236 1_555
Mo1_5 S1_7 2.451672 1_555
Mo1_5 S1_5 2.451689 1_555
Mo1_5 S1_1 2.451702 1_555
Mo1_5 S0_7 2.453160 1_555
Mo1_5 S0_5 2.453224 1_555
Mo1_5 S0_1 2.453236 1_555
Mo1_6 S1_4 2.451672 1_565
Mo1_6 S1_6 2.451689 1_555
Mo1_6 S1_2 2.451702 1_555
Mo1_6 S0_4 2.453160 1_565
Mo1_6 S0_6 2.453224 1_555
Mo1_6 S0_2 2.453236 1_555
Mo1_7 S1_5 2.451672 1_565
Mo1_7 S1_7 2.451689 1_555
Mo1_7 S1_3 2.451702 1_555
Mo1_7 S0_5 2.453160 1_565
Mo1_7 S0_7 2.453224 1_555
Mo1_7 S0_3 2.453236 1_555
Se0_0 W0_2 2.552552 1_555
Se0_0 W0_0 2.552650 1_555
Se0_0 W0_4 2.552651 1_455
Se0_1 W0_3 2.552552 1_555
Se0_1 W0_1 2.552650 1_555
Se0_1 W0_5 2.552651 1_455
Se0_2 W0_0 2.552552 1_565
Se0_2 W0_2 2.552650 1_555
Se0_2 W0_6 2.552651 1_455
Se0_3 W0_1 2.552552 1_565
Se0_3 W0_3 2.552650 1_555
Se0_3 W0_7 2.552651 1_455
Se0_4 W0_6 2.552552 1_555
Se0_4 W0_4 2.552650 1_555
Se0_4 W0_0 2.552651 1_555
Se0_5 W0_7 2.552552 1_555
Se0_5 W0_5 2.552650 1_555
Se0_5 W0_1 2.552651 1_555
Se0_6 W0_4 2.552552 1_565
Se0_6 W0_6 2.552650 1_555
Se0_6 W0_2 2.552651 1_555
Se0_7 W0_5 2.552552 1_565
Se0_7 W0_7 2.552650 1_555
Se0_7 W0_3 2.552651 1_555
Se1_0 W1_2 2.553421 1_555
Se1_0 W1_4 2.553423 1_455
Se1_0 W1_0 2.553425 1_555
Se1_1 W1_3 2.553421 1_555
Se1_1 W1_5 2.553423 1_455
Se1_1 W1_1 2.553425 1_555
Se1_2 W1_0 2.553421 1_565
Se1_2 W1_6 2.553423 1_455
Se1_2 W1_2 2.553425 1_555
Se1_3 W1_1 2.553421 1_565
Se1_3 W1_7 2.553423 1_455
Se1_3 W1_3 2.553425 1_555
Se1_4 W1_6 2.553421 1_555
Se1_4 W1_0 2.553423 1_555
Se1_4 W1_4 2.553425 1_555
Se1_5 W1_7 2.553421 1_555
Se1_5 W1_1 2.553423 1_555
Se1_5 W1_5 2.553425 1_555
Se1_6 W1_4 2.553421 1_565
Se1_6 W1_2 2.553423 1_555
Se1_6 W1_6 2.553425 1_555
Se1_7 W1_5 2.553421 1_565
Se1_7 W1_3 2.553423 1_555
Se1_7 W1_7 2.553425 1_555
Se2_0 W0_4 2.555566 1_455
Se2_0 W0_0 2.555568 1_555
Se2_0 W0_2 2.555634 1_555
Se2_1 W0_5 2.555566 1_455
Se2_1 W0_1 2.555568 1_555
Se2_1 W0_3 2.555634 1_555
Se2_2 W0_6 2.555566 1_455
Se2_2 W0_2 2.555568 1_555
Se2_2 W0_0 2.555634 1_565
Se2_3 W0_7 2.555566 1_455
Se2_3 W0_3 2.555568 1_555
Se2_3 W0_1 2.555634 1_565
Se2_4 W0_0 2.555566 1_555
Se2_4 W0_4 2.555568 1_555
Se2_4 W0_6 2.555634 1_555
Se2_5 W0_1 2.555566 1_555
Se2_5 W0_5 2.555568 1_555
Se2_5 W0_7 2.555634 1_555
Se2_6 W0_2 2.555566 1_555
Se2_6 W0_6 2.555568 1_555
Se2_6 W0_4 2.555634 1_565
Se2_7 W0_3 2.555566 1_555
Se2_7 W0_7 2.555568 1_555
Se2_7 W0_5 2.555634 1_565
Se3_0 W1_4 2.555373 1_455
Se3_0 W1_0 2.555377 1_555
Se3_0 W1_2 2.555413 1_555
Se3_1 W1_5 2.555373 1_455
Se3_1 W1_1 2.555377 1_555
Se3_1 W1_3 2.555413 1_555
Se3_2 W1_6 2.555373 1_455
Se3_2 W1_2 2.555377 1_555
Se3_2 W1_0 2.555413 1_565
Se3_3 W1_7 2.555373 1_455
Se3_3 W1_3 2.555377 1_555
Se3_3 W1_1 2.555413 1_565
Se3_4 W1_0 2.555373 1_555
Se3_4 W1_4 2.555377 1_555
Se3_4 W1_6 2.555413 1_555
Se3_5 W1_1 2.555373 1_555
Se3_5 W1_5 2.555377 1_555
Se3_5 W1_7 2.555413 1_555
Se3_6 W1_2 2.555373 1_555
Se3_6 W1_6 2.555377 1_555
Se3_6 W1_4 2.555413 1_565
Se3_7 W1_3 2.555373 1_555
Se3_7 W1_7 2.555377 1_555
Se3_7 W1_5 2.555413 1_565
