# generated using pymatgen
data_Rb2UF7
_symmetry_space_group_name_H-M   'P 1'
_cell_length_a   13.30601434
_cell_length_b   6.24441087
_cell_length_c   9.00720555
_cell_angle_alpha   90.63374887
_cell_angle_beta   90.00000000
_cell_angle_gamma   90.00000000
_symmetry_Int_Tables_number   1
_chemical_formula_structural   Rb2UF7
_chemical_formula_sum   'Rb8 U4 F28'
_cell_volume   748.34689995
_cell_formula_units_Z   4
loop_
 _symmetry_equiv_pos_site_id
 _symmetry_equiv_pos_as_xyz
  1  'x, y, z'
loop_
 _atom_site_type_symbol
 _atom_site_label
 _atom_site_symmetry_multiplicity
 _atom_site_fract_x
 _atom_site_fract_y
 _atom_site_fract_z
 _atom_site_occupancy
  Rb  Rb0  1  0.22628370  0.27558289  0.56029637  1
  Rb  Rb1  1  0.77371630  0.72441711  0.43970363  1
  Rb  Rb2  1  0.72628370  0.72441711  0.93970363  1
  Rb  Rb3  1  0.27371630  0.27558289  0.06029637  1
  Rb  Rb4  1  0.06177561  0.72151256  0.83088117  1
  Rb  Rb5  1  0.93822439  0.27848744  0.16911883  1
  Rb  Rb6  1  0.56177561  0.27848744  0.66911883  1
  Rb  Rb7  1  0.43822439  0.72151256  0.33088117  1
  U  U0  1  0.37443030  0.78792509  0.79580902  1
  U  U1  1  0.62556970  0.21207491  0.20419098  1
  U  U2  1  0.87443030  0.21207491  0.70419098  1
  U  U3  1  0.12556970  0.78792509  0.29580902  1
  F  F0  1  0.73908803  0.03011486  0.70036164  1
  F  F1  1  0.26091197  0.96988514  0.29963836  1
  F  F2  1  0.23908803  0.96988514  0.79963836  1
  F  F3  1  0.76091197  0.03011486  0.20036164  1
  F  F4  1  0.13613769  0.71379375  0.52274122  1
  F  F5  1  0.86386231  0.28620625  0.47725878  1
  F  F6  1  0.63613769  0.28620625  0.97725878  1
  F  F7  1  0.36386231  0.71379375  0.02274122  1
  F  F8  1  0.25729809  0.53961813  0.80885019  1
  F  F9  1  0.74270191  0.46038187  0.19114981  1
  F  F10  1  0.75729809  0.46038187  0.69114981  1
  F  F11  1  0.24270191  0.53961813  0.30885019  1
  F  F12  1  0.39339956  0.54635043  0.61492667  1
  F  F13  1  0.60660044  0.45364957  0.38507333  1
  F  F14  1  0.89339956  0.45364957  0.88507333  1
  F  F15  1  0.10660044  0.54635043  0.11492667  1
  F  F16  1  0.93007026  0.91960492  0.62015221  1
  F  F17  1  0.06992974  0.08039508  0.37984779  1
  F  F18  1  0.43007026  0.08039508  0.87984779  1
  F  F19  1  0.56992974  0.91960492  0.12015221  1
  F  F20  1  0.02451974  0.31457788  0.68397380  1
  F  F21  1  0.97548026  0.68542212  0.31602620  1
  F  F22  1  0.52451974  0.68542212  0.81602620  1
  F  F23  1  0.47548026  0.31457788  0.18397380  1
  F  F24  1  0.39361446  0.96739761  0.59705380  1
  F  F25  1  0.60638554  0.03260239  0.40294620  1
  F  F26  1  0.89361446  0.03260239  0.90294620  1
  F  F27  1  0.10638554  0.96739761  0.09705380  1
loop_
_geom_bond_atom_site_label_1
_geom_bond_atom_site_label_2
_geom_bond_distance
_geom_bond_site_symmetry_2
F0 U2 2.129429 1_555
F0 Rb6 2.839130 1_555
F0 Rb2 2.900251 1_545
F0 Rb1 3.044542 1_545
F1 U3 2.129429 1_555
F1 Rb7 2.839130 1_555
F1 Rb3 2.900251 1_565
F1 Rb0 3.044542 1_565
F2 U0 2.129429 1_555
F2 Rb4 2.839130 1_555
F2 Rb0 2.900251 1_565
F2 Rb3 3.044542 1_566
F3 U1 2.129429 1_555
F3 Rb5 2.839130 1_555
F3 Rb1 2.900251 1_545
F3 Rb2 3.044542 1_544
F4 U3 2.105475 1_555
F4 Rb4 2.946471 1_555
F4 Rb0 3.010212 1_555
F5 U2 2.105475 1_555
F5 Rb5 2.946471 1_555
F5 Rb1 3.010212 1_555
F6 U1 2.105475 1_556
F6 Rb6 2.946471 1_555
F6 Rb2 3.010212 1_555
F7 U0 2.105475 1_554
F7 Rb7 2.946471 1_555
F7 Rb3 3.010212 1_555
F8 U0 2.202519 1_555
F8 Rb0 2.796269 1_555
F8 Rb3 2.824559 1_556
F8 Rb4 2.844809 1_555
F9 U1 2.202519 1_555
F9 Rb1 2.796269 1_555
F9 Rb2 2.824559 1_554
F9 Rb5 2.844809 1_555
F10 U2 2.202519 1_555
F10 Rb2 2.796269 1_555
F10 Rb1 2.824559 1_555
F10 Rb6 2.844809 1_555
F11 U3 2.202519 1_555
F11 Rb3 2.796269 1_555
F11 Rb0 2.824559 1_555
F11 Rb7 2.844809 1_555
F12 U0 2.222459 1_555
F12 Rb0 2.833209 1_555
F12 Rb6 2.841395 1_555
F12 Rb7 2.856520 1_555
F13 U1 2.222459 1_555
F13 Rb1 2.833209 1_555
F13 Rb7 2.841395 1_555
F13 Rb6 2.856520 1_555
F14 U2 2.222459 1_555
F14 Rb2 2.833209 1_555
F14 Rb4 2.841395 1_655
F14 Rb5 2.856520 1_556
F15 U3 2.222459 1_555
F15 Rb3 2.833209 1_555
F15 Rb5 2.841395 1_455
F15 Rb4 2.856520 1_554
F16 U2 2.103781 1_565
F16 Rb4 2.873308 1_655
F16 Rb1 2.900296 1_555
F17 U3 2.103781 1_545
F17 Rb5 2.873308 1_455
F17 Rb0 2.900296 1_555
F18 U0 2.103781 1_545
F18 Rb6 2.873308 1_555
F18 Rb3 2.900296 1_556
F19 U1 2.103781 1_565
F19 Rb7 2.873308 1_555
F19 Rb2 2.900296 1_554
F20 U2 2.105661 1_455
F20 Rb4 2.894704 1_555
F20 Rb0 2.915774 1_555
F21 U3 2.105661 1_655
F21 Rb5 2.894704 1_555
F21 Rb1 2.915774 1_555
F22 U0 2.105661 1_555
F22 Rb6 2.894704 1_555
F22 Rb2 2.915774 1_555
F23 U1 2.105661 1_555
F23 Rb7 2.894704 1_555
F23 Rb3 2.915774 1_555
F24 U0 2.137857 1_555
F24 Rb7 2.894175 1_555
F24 Rb0 2.963864 1_565
F24 Rb6 3.028809 1_565
F25 U1 2.137857 1_555
F25 Rb6 2.894175 1_555
F25 Rb1 2.963864 1_545
F25 Rb7 3.028809 1_545
F26 U2 2.137857 1_555
F26 Rb5 2.894175 1_556
F26 Rb2 2.963864 1_545
F26 Rb4 3.028809 1_645
F27 U3 2.137857 1_555
F27 Rb4 2.894175 1_554
F27 Rb3 2.963864 1_565
F27 Rb5 3.028809 1_465
