# generated using pymatgen
data_Na6Sc5Nb3Si6(SO8)6
_symmetry_space_group_name_H-M   'P 1'
_cell_length_a   17.94049867
_cell_length_b   8.96021230
_cell_length_c   22.96063758
_cell_angle_alpha   90.16464706
_cell_angle_beta   90.05754678
_cell_angle_gamma   119.94837189
_symmetry_Int_Tables_number   1
_chemical_formula_structural   Na6Sc5Nb3Si6(SO8)6
_chemical_formula_sum   'Na18 Sc15 Nb9 Si18 S18 O144'
_cell_volume   3198.08184355
_cell_formula_units_Z   3
loop_
 _symmetry_equiv_pos_site_id
 _symmetry_equiv_pos_as_xyz
  1  'x, y, z'
loop_
 _atom_site_type_symbol
 _atom_site_label
 _atom_site_symmetry_multiplicity
 _atom_site_fract_x
 _atom_site_fract_y
 _atom_site_fract_z
 _atom_site_occupancy
  Na  Na0  1  0.48393752  0.68145689  0.91181279  1
  Na  Na1  1  0.16372448  0.31395418  0.91307280  1
  Na  Na2  1  0.48652578  0.29728522  0.41567232  1
  Na  Na3  1  0.97868052  0.29190121  0.41090409  1
  Na  Na4  1  0.16461109  0.02572268  0.41299016  1
  Na  Na5  1  0.66532029  0.03038015  0.41863673  1
  Na  Na6  1  0.98575328  0.97383254  0.49382804  1
  Na  Na7  1  0.49475466  0.98751018  0.49531304  1
  Na  Na8  1  0.99377322  0.99752404  0.99777697  1
  Na  Na9  1  0.50006466  0.99873492  0.99083864  1
  Na  Na10  1  0.33347467  0.32699845  0.82284302  1
  Na  Na11  1  0.83212392  0.33865445  0.83072125  1
  Na  Na12  1  0.33625968  0.33362121  0.33031228  1
  Na  Na13  1  0.83819700  0.33940344  0.33280432  1
  Na  Na14  1  0.15649298  0.66069468  0.16283930  1
  Na  Na15  1  0.66688550  0.65262327  0.16580686  1
  Na  Na16  1  0.16847333  0.66912262  0.67016076  1
  Na  Na17  1  0.66357849  0.65995032  0.66301703  1
  Sc  Sc0  1  0.99667254  0.99536253  0.35122643  1
  Sc  Sc1  1  0.49501262  0.00114905  0.35509784  1
  Sc  Sc2  1  0.00177537  -0.00000577  0.85124941  1
  Sc  Sc3  1  0.49974904  0.99831479  0.85135401  1
  Sc  Sc4  1  0.33470014  0.33337747  0.69112961  1
  Sc  Sc5  1  0.83277150  0.34179534  0.68883515  1
  Sc  Sc6  1  0.33465576  0.32754879  0.19044014  1
  Sc  Sc7  1  0.84048910  0.34534510  0.18354100  1
  Sc  Sc8  1  0.33213801  0.33706068  0.97890094  1
  Sc  Sc9  1  0.33846132  0.33888096  0.47800312  1
  Sc  Sc10  1  0.83351170  0.33738239  0.47505656  1
  Sc  Sc11  1  0.16219835  0.65695773  0.01691922  1
  Sc  Sc12  1  0.66745359  0.66864806  0.02076857  1
  Sc  Sc13  1  0.16954179  0.67598068  0.51766931  1
  Sc  Sc14  1  0.66733187  0.66890379  0.51450269  1
  Nb  Nb0  1  0.00491434  0.99861254  0.65020877  1
  Nb  Nb1  1  0.50021940  0.00340323  0.65463443  1
  Nb  Nb2  1  0.00440349  0.99903705  0.14915963  1
  Nb  Nb3  1  0.50667033  0.01994383  0.14646918  1
  Nb  Nb4  1  0.83376150  0.33861861  0.97905162  1
  Nb  Nb5  1  0.15980092  0.67368831  0.31015156  1
  Nb  Nb6  1  0.66369346  0.65685925  0.31800477  1
  Nb  Nb7  1  0.16484425  0.65054155  0.80919772  1
  Nb  Nb8  1  0.66459854  0.67347598  0.80958314  1
  Si  Si0  1  0.14774444  0.00796303  0.25333810  1
  Si  Si1  1  0.99733620  0.28986197  0.25256984  1
  Si  Si2  1  0.50333864  0.30219556  0.25286473  1
  Si  Si3  1  0.14696680  0.28847402  0.75273022  1
  Si  Si4  1  0.64737693  0.29067182  0.75383655  1
  Si  Si5  1  0.99924895  0.70349408  0.75394071  1
  Si  Si6  1  0.49830033  0.70933301  0.75261989  1
  Si  Si7  1  0.35327508  0.99919111  0.75397409  1
  Si  Si8  1  0.98202396  0.62922089  0.08371012  1
  Si  Si9  1  0.69237249  0.34176034  0.08460640  1
  Si  Si10  1  0.31270185  0.67370359  0.91930469  1
  Si  Si11  1  0.01908694  0.37239770  0.91653030  1
  Si  Si12  1  0.66778350  0.96057067  0.91947451  1
  Si  Si13  1  0.31057433  0.95388908  0.41785321  1
  Si  Si14  1  0.81405220  0.95495857  0.41758922  1
  Si  Si15  1  0.66714012  0.37394457  0.41880246  1
  Si  Si16  1  0.02063647  0.67025396  0.41891032  1
  Si  Si17  1  0.51959879  0.66767931  0.41819574  1
  S  S0  1  0.64515101  -0.00096422  0.24987429  1
  S  S1  1  0.35537715  0.71258128  0.24846925  1
  S  S2  1  0.85326144  0.71007102  0.24910967  1
  S  S3  1  0.85536428  -0.00088105  0.74951978  1
  S  S4  1  0.48031080  0.33048205  0.58369696  1
  S  S5  1  0.97970515  0.32892813  0.58379933  1
  S  S6  1  0.18593046  0.04118659  0.58358364  1
  S  S7  1  0.68552322  0.04032885  0.58397361  1
  S  S8  1  0.33454606  0.62743659  0.58399207  1
  S  S9  1  0.83390022  0.62936047  0.58437636  1
  S  S10  1  0.47825887  0.62644685  0.08423881  1
  S  S11  1  0.33452573  0.04187987  0.08435743  1
  S  S12  1  0.83465714  0.04521026  0.08327849  1
  S  S13  1  0.18769410  0.33201855  0.08453781  1
  S  S14  1  0.81067880  0.66636492  0.91667942  1
  S  S15  1  0.52348839  0.37983380  0.91712801  1
  S  S16  1  0.16699659  0.95593378  0.91701196  1
  S  S17  1  0.16828164  0.38130686  0.41677706  1
  O  O0  1  0.10505517  0.02536877  0.31168323  1
  O  O1  1  0.60425337  0.01771390  0.30220465  1
  O  O2  1  0.40696702  0.78779466  0.30095603  1
  O  O3  1  0.90456637  0.78908163  0.30148231  1
  O  O4  1  0.48968911  0.18785649  0.30910919  1
  O  O5  1  0.98846346  0.18359924  0.31094628  1
  O  O6  1  0.10320957  0.18084958  0.81043714  1
  O  O7  1  0.60364500  0.17727084  0.80920278  1
  O  O8  1  0.48732940  0.78511317  0.81228169  1
  O  O9  1  0.98146734  0.79466288  0.80743504  1
  O  O10  1  0.41299275  0.03143376  0.80883619  1
  O  O11  1  0.90557133  0.02443251  0.80195944  1
  O  O12  1  0.40272140  0.96841023  0.69442910  1
  O  O13  1  0.89597305  0.96973889  0.69660270  1
  O  O14  1  0.08108015  0.18725793  0.69451447  1
  O  O15  1  0.58291493  0.20120557  0.69427715  1
  O  O16  1  0.01048555  0.83234728  0.69416476  1
  O  O17  1  0.51682419  0.83849446  0.69520594  1
  O  O18  1  0.39861394  0.82240351  0.19612725  1
  O  O19  1  0.89733110  0.81747333  0.19601520  1
  O  O20  1  0.00903000  0.18376666  0.19475417  1
  O  O21  1  0.51388109  0.19300851  0.19428410  1
  O  O22  1  0.08292332  0.97200687  0.19485391  1
  O  O23  1  0.58748401  0.97515574  0.19680268  1
  O  O24  1  0.43492643  0.34669072  0.63377720  1
  O  O25  1  0.93656932  0.34976476  0.63478116  1
  O  O26  1  0.23772936  0.12942273  0.63413916  1
  O  O27  1  0.73941907  0.13082036  0.63484961  1
  O  O28  1  0.32541770  0.52433749  0.63548797  1
  O  O29  1  0.82578829  0.52669668  0.63636542  1
  O  O30  1  0.43472565  0.51763033  0.13434320  1
  O  O31  1  0.93722453  0.51501733  0.14017678  1
  O  O32  1  0.32596874  0.12839717  0.13625493  1
  O  O33  1  0.82136226  0.12122635  0.13564497  1
  O  O34  1  0.24080389  0.34780543  0.13497925  1
  O  O35  1  0.74456129  0.35488034  0.14193055  1
  O  O36  1  0.22452065  0.30384195  0.03006262  1
  O  O37  1  0.73587205  0.30583525  0.02610361  1
  O  O38  1  0.42790152  0.55013345  0.02954587  1
  O  O39  1  0.91725049  0.52699442  0.02644257  1
  O  O40  1  0.35031680  0.14842729  0.03175769  1
  O  O41  1  0.84784663  0.15239873  0.03034721  1
  O  O42  1  0.22100814  0.13843535  0.52909652  1
  O  O43  1  0.72397488  0.13895920  0.52970341  1
  O  O44  1  0.34482103  0.54472737  0.53057551  1
  O  O45  1  0.84838045  0.55405175  0.53158543  1
  O  O46  1  0.43036007  0.30826308  0.52870243  1
  O  O47  1  0.93012925  0.30442233  0.52960522  1
  O  O48  1  0.26587567  0.69056840  0.97620518  1
  O  O49  1  0.76942995  0.68401866  0.96921927  1
  O  O50  1  0.08120408  0.45745553  0.97219736  1
  O  O51  1  0.57496940  0.46255599  0.96945586  1
  O  O52  1  0.15575643  0.85588069  0.96973973  1
  O  O53  1  0.65386440  0.83181576  0.97275412  1
  O  O54  1  0.26750139  0.83941016  0.47494619  1
  O  O55  1  0.76899749  0.83748551  0.47350286  1
  O  O56  1  0.15468277  0.45921886  0.46922410  1
  O  O57  1  0.64514189  0.45824848  0.47286535  1
  O  O58  1  0.08321435  0.69702892  0.47318133  1
  O  O59  1  0.58026735  0.70396120  0.47395453  1
  O  O60  1  0.06857978  0.63915436  0.35881598  1
  O  O61  1  0.56778482  0.63065894  0.36000362  1
  O  O62  1  0.24763791  0.85277855  0.36000400  1
  O  O63  1  0.75034650  0.85941736  0.35849016  1
  O  O64  1  0.18065556  0.48474845  0.36385125  1
  O  O65  1  0.68037724  0.49798266  0.35956139  1
  O  O66  1  0.06678827  0.49575519  0.85861630  1
  O  O67  1  0.56552906  0.49116751  0.86410895  1
  O  O68  1  0.17966219  0.87919738  0.86411354  1
  O  O69  1  0.68007200  0.85613161  0.86050656  1
  O  O70  1  0.24714999  0.63525330  0.86167465  1
  O  O71  1  0.75802161  0.64182581  0.86348420  1
  O  O72  1  0.01598501  0.84371486  0.41194966  1
  O  O73  1  0.51437253  0.83787790  0.40633873  1
  O  O74  1  0.40762391  0.99074062  0.41157592  1
  O  O75  1  0.91151715  0.99101157  0.41164571  1
  O  O76  1  0.09035104  0.20706315  0.41215665  1
  O  O77  1  0.58415914  0.18470808  0.40865504  1
  O  O78  1  0.00869039  0.18170590  0.90963555  1
  O  O79  1  0.51211260  0.20923871  0.91176987  1
  O  O80  1  0.09104670  0.98211727  0.91292527  1
  O  O81  1  0.58351546  0.97759614  0.91348977  1
  O  O82  1  0.40932847  0.83163139  0.91410588  1
  O  O83  1  0.89685822  0.81761321  0.91207120  1
  O  O84  1  0.48762087  0.16985576  0.58820451  1
  O  O85  1  0.98655720  0.16699376  0.59084692  1
  O  O86  1  0.09570589  0.02236111  0.58984941  1
  O  O87  1  0.59775358  0.02440778  0.58951599  1
  O  O88  1  0.41388412  0.80377815  0.58831570  1
  O  O89  1  0.91283571  0.80801944  0.59117217  1
  O  O90  1  0.48574551  0.80044503  0.09122763  1
  O  O91  1  0.98498615  0.82073355  0.09085887  1
  O  O92  1  0.41465385  0.02324599  0.09191692  1
  O  O93  1  0.91341341  0.02793165  0.08817387  1
  O  O94  1  0.09926474  0.17186014  0.09000133  1
  O  O95  1  0.59236349  0.15661942  0.09294478  1
  O  O96  1  0.34013418  0.15939877  0.73972500  1
  O  O97  1  0.84228563  0.14541024  0.74068635  1
  O  O98  1  0.23967516  0.31395315  0.74127280  1
  O  O99  1  0.74087228  0.31448060  0.74065815  1
  O  O100  1  0.42166581  0.51927370  0.74068239  1
  O  O101  1  0.91971875  0.51450611  0.74077217  1
  O  O102  1  0.34441904  0.53933140  0.24035408  1
  O  O103  1  0.84158770  0.53697317  0.24360424  1
  O  O104  1  0.42188317  0.32754074  0.24127646  1
  O  O105  1  0.91559277  0.31611265  0.24454890  1
  O  O106  1  0.24074308  0.17171293  0.24193896  1
  O  O107  1  0.72975852  0.15071660  0.24220941  1
  O  O108  1  0.31851587  0.48994347  0.92421638  1
  O  O109  1  0.81771494  0.50546175  0.92046056  1
  O  O110  1  0.43838138  0.37426620  0.92156714  1
  O  O111  1  0.92472650  0.36013845  0.92530570  1
  O  O112  1  0.24468698  0.13449958  0.92328834  1
  O  O113  1  0.75657074  0.14809725  0.92550120  1
  O  O114  1  0.31270164  0.14054956  0.42244732  1
  O  O115  1  0.81781481  0.14175752  0.42168156  1
  O  O116  1  0.24402205  0.35670230  0.42287127  1
  O  O117  1  0.75160507  0.35427338  0.42193580  1
  O  O118  1  0.42762922  0.48759380  0.42157376  1
  O  O119  1  0.93066706  0.49078239  0.42189206  1
  O  O120  1  0.17695936  0.48344112  0.08111002  1
  O  O121  1  0.67278811  0.49717215  0.07585833  1
  O  O122  1  0.07849035  0.66375329  0.07640185  1
  O  O123  1  0.56538724  0.64888543  0.07970475  1
  O  O124  1  0.25979179  0.86958363  0.07980924  1
  O  O125  1  0.75903522  0.87056357  0.07630300  1
  O  O126  1  0.17292638  0.86472968  0.58086808  1
  O  O127  1  0.67504033  0.86557082  0.58175381  1
  O  O128  1  0.25717584  0.64712281  0.57965321  1
  O  O129  1  0.75740406  0.64978124  0.58122423  1
  O  O130  1  0.06815875  0.47878498  0.57988280  1
  O  O131  1  0.56713158  0.48338763  0.58098543  1
  O  O132  1  0.15408346  0.82823199  0.25526534  1
  O  O133  1  0.65049024  0.83827563  0.25110169  1
  O  O134  1  0.26909048  0.69757506  0.25326316  1
  O  O135  1  0.76845784  0.70263410  0.25182054  1
  O  O136  1  0.09021369  0.47841699  0.25718041  1
  O  O137  1  0.59322654  0.48981605  0.25379630  1
  O  O138  1  0.14915138  0.47436616  0.75377028  1
  O  O139  1  0.65715662  0.48597174  0.76124540  1
  O  O140  1  0.08964515  0.70289808  0.75774427  1
  O  O141  1  0.59018331  0.69716843  0.75733457  1
  O  O142  1  0.25952065  0.82107855  0.75901325  1
  O  O143  1  0.76875586  0.83606078  0.75403426  1
loop_
_geom_bond_atom_site_label_1
_geom_bond_atom_site_label_2
_geom_bond_distance
_geom_bond_site_symmetry_2
Na0 O82 2.324452 1_555
Na0 O81 2.345251 1_555
Na0 O8 2.458653 1_555
Na0 O110 2.460116 1_555
Na0 O108 2.598671 1_555
Na0 O38 2.923239 1_556
Na0 O67 2.955324 1_555
Na0 O53 2.991088 1_555
Na1 O78 2.419671 1_555
Na1 O108 2.426517 1_555
Na1 O80 2.582620 1_545
Na1 O6 2.615427 1_555
Na1 O112 2.661522 1_555
Na1 O50 2.753645 1_555
Na1 O70 2.764395 1_555
Na1 O36 2.916764 1_556
Na2 O74 2.381855 1_545
Na2 O118 2.416709 1_555
Na2 O77 2.423895 1_555
Na2 O4 2.644481 1_555
Na2 O114 2.711271 1_555
Na2 O57 2.790369 1_555
Na2 O46 2.804113 1_555
Na2 O61 2.891297 1_555
Na3 O75 2.340425 1_545
Na3 O119 2.347697 1_555
Na3 O76 2.472440 1_655
Na3 O115 2.515349 1_555
Na3 O5 2.529430 1_555
Na3 O47 2.880966 1_555
Na4 O72 2.329797 1_545
Na4 O114 2.330817 1_555
Na4 O0 2.558088 1_555
Na4 O76 2.564546 1_555
Na4 O116 2.579386 1_555
Na4 O42 2.847708 1_555
Na4 O62 2.897857 1_545
Na4 O58 2.906856 1_545
Na5 O73 2.391749 1_545
Na5 O115 2.399748 1_555
Na5 O77 2.469072 1_555
Na5 O117 2.517441 1_555
Na5 O43 2.741413 1_555
Na5 O59 2.839938 1_545
Na5 O1 2.868486 1_555
Na5 O63 2.984260 1_545
Na6 O75 2.357837 1_555
Na6 O72 2.410099 1_655
Na6 O89 2.645505 1_555
Na6 O76 2.742125 1_665
Na6 O85 2.812629 1_565
Na6 O86 2.840836 1_665
Na7 O74 2.486042 1_555
Na7 O73 2.559641 1_555
Na7 O77 2.617383 1_565
Na7 O88 2.648923 1_555
Na7 O84 2.724739 1_565
Na7 O87 2.753207 1_565
Na8 O78 2.543649 1_665
Na8 O83 2.582759 1_555
Na8 O93 2.618332 1_566
Na8 O91 2.621578 1_556
Na8 O80 2.665717 1_655
Na8 O94 2.743550 1_666
Na9 O82 2.354006 1_555
Na9 O81 2.391228 1_555
Na9 O79 2.552188 1_565
Na9 O95 2.806037 1_566
Na9 O90 2.846883 1_556
Na9 O92 2.850027 1_566
Na10 O96 2.464699 1_555
Na10 O98 2.479778 1_555
Na10 O100 2.516602 1_555
Na10 O108 2.827424 1_555
Na10 O110 2.837231 1_555
Na10 O112 2.849277 1_555
Na11 O99 2.576786 1_555
Na11 O101 2.602052 1_555
Na11 O109 2.629718 1_555
Na11 O111 2.680392 1_555
Na11 O113 2.684217 1_555
Na11 O97 2.756860 1_555
Na12 O104 2.575098 1_555
Na12 O106 2.579217 1_555
Na12 O118 2.588378 1_555
Na12 O114 2.634287 1_555
Na12 O102 2.727309 1_555
Na12 O116 2.764754 1_555
Na13 O105 2.523960 1_555
Na13 O119 2.550805 1_555
Na13 O115 2.609606 1_555
Na13 O117 2.613586 1_555
Na13 O103 2.691800 1_555
Na13 O107 2.767253 1_555
Na14 O122 2.435361 1_555
Na14 O120 2.597164 1_555
Na14 O132 2.608757 1_555
Na14 O136 2.619163 1_555
Na14 O124 2.671420 1_555
Na14 O134 2.796698 1_555
Na15 O137 2.460388 1_555
Na15 O121 2.519495 1_555
Na15 O135 2.567910 1_555
Na15 O123 2.675214 1_555
Na15 O133 2.675834 1_555
Na15 O125 2.752517 1_555
Na16 O138 2.503471 1_555
Na16 O142 2.537872 1_555
Na16 O140 2.562255 1_555
Na16 O126 2.676348 1_555
Na16 O128 2.684650 1_555
Na16 O130 2.711427 1_555
Na17 O131 2.507501 1_555
Na17 O129 2.554832 1_555
Na17 O127 2.561331 1_555
Na17 O141 2.640988 1_555
Na17 O139 2.715063 1_555
Na17 O143 2.723619 1_555
Nb0 O16 1.845297 1_555
Nb0 O14 1.854832 1_565
Nb0 O86 2.068640 1_565
Nb0 O13 2.126613 1_455
Nb0 O89 2.155980 1_455
Nb0 O85 2.179331 1_465
Nb1 O12 1.857423 1_545
Nb1 O15 1.879750 1_555
Nb1 O17 1.893865 1_545
Nb1 O84 2.225068 1_555
Nb1 O87 2.238489 1_555
Nb1 O88 2.265082 1_545
Nb2 O22 1.866265 1_555
Nb2 O20 1.922312 1_565
Nb2 O91 1.974032 1_455
Nb2 O19 2.094769 1_455
Nb2 O94 2.127146 1_565
Nb2 O93 2.260976 1_465
Nb3 O21 1.848332 1_555
Nb3 O95 1.872500 1_555
Nb3 O23 2.044242 1_545
Nb3 O92 2.083221 1_555
Nb3 O18 2.186580 1_545
Nb3 O90 2.205761 1_545
Nb4 O39 1.933502 1_556
Nb4 O37 1.956575 1_556
Nb4 O111 1.978522 1_555
Nb4 O113 1.991969 1_555
Nb4 O109 2.137295 1_555
Nb4 O41 2.160282 1_556
Nb5 O60 1.876862 1_555
Nb5 O132 1.915146 1_555
Nb5 O62 1.956920 1_555
Nb5 O136 1.975597 1_555
Nb5 O64 2.273709 1_555
Nb5 O134 2.276859 1_555
Nb6 O65 1.859901 1_555
Nb6 O61 1.883344 1_555
Nb6 O63 1.935261 1_555
Nb6 O137 2.026392 1_555
Nb6 O135 2.291234 1_555
Nb6 O133 2.335858 1_555
Nb7 O138 1.932558 1_555
Nb7 O70 1.962207 1_555
Nb7 O66 1.970475 1_555
Nb7 O142 1.992572 1_555
Nb7 O140 2.016876 1_555
Nb7 O68 2.301917 1_555
Nb8 O141 1.883566 1_555
Nb8 O69 1.912450 1_555
Nb8 O139 1.958906 1_555
Nb8 O67 2.124186 1_555
Nb8 O143 2.130325 1_555
Nb8 O71 2.212165 1_555
O0 Si0 1.589224 1_555
O0 Sc0 2.039720 1_445
O1 S0 1.460573 1_555
O1 Sc1 2.247950 1_555
O2 S1 1.460640 1_555
O2 Sc1 2.159277 1_565
O3 S2 1.461747 1_555
O3 Sc0 2.094268 1_555
O4 Si2 1.592187 1_555
O4 Sc1 2.022945 1_555
O5 Si1 1.607764 1_555
O5 Sc0 1.994621 1_545
O6 Si3 1.598559 1_555
O6 Sc2 1.970669 1_555
O7 Si4 1.574020 1_555
O7 Sc3 2.002631 1_545
O8 Si6 1.582711 1_555
O8 Sc3 2.017080 1_555
O9 Si5 1.591516 1_555
O9 Sc2 1.961902 1_665
O10 Si7 1.582471 1_545
O10 Sc3 1.980761 1_545
O11 S3 1.450785 1_555
O11 Sc2 2.163909 1_655
O12 Si7 1.725329 1_555
O13 S3 1.505906 1_565
O14 Si3 1.710534 1_555
O15 Si4 1.707360 1_555
O16 Si5 1.742024 1_455
O17 Si6 1.677281 1_555
O18 S1 1.503631 1_555
O19 S2 1.512077 1_555
O20 Si1 1.703634 1_455
O21 Si2 1.726203 1_555
O22 Si0 1.696964 1_565
O23 S0 1.541414 1_565
O24 S4 1.457821 1_555
O24 Sc4 2.184723 1_555
O25 S5 1.465883 1_555
O25 Sc5 2.210335 1_555
O26 S6 1.447440 1_555
O26 Sc4 2.210405 1_555
O27 S7 1.471883 1_555
O27 Sc5 2.176290 1_555
O28 S8 1.460768 1_555
O28 Sc4 2.210025 1_555
O29 S9 1.471494 1_555
O29 Sc5 2.104836 1_555
O30 S10 1.460159 1_555
O30 Sc6 2.178812 1_555
O31 Si8 1.600810 1_555
O31 Sc7 1.921563 1_555
O32 S11 1.469120 1_555
O32 Sc6 2.113185 1_555
O33 S12 1.457593 1_555
O33 Sc7 2.158321 1_555
O34 S13 1.459963 1_555
O34 Sc6 2.188995 1_555
O35 Si9 1.584166 1_555
O35 Sc7 2.006461 1_555
O36 S13 1.493686 1_555
O36 Sc8 2.151501 1_554
O37 Si9 1.663561 1_555
O38 S10 1.495576 1_555
O38 Sc8 2.158038 1_554
O39 Si8 1.686895 1_555
O40 S11 1.479039 1_555
O40 Sc8 2.235482 1_554
O41 S12 1.495272 1_555
O42 S6 1.476755 1_555
O42 Sc9 2.297953 1_555
O43 S7 1.486259 1_555
O43 Sc10 2.264173 1_555
O44 S8 1.489656 1_555
O44 Sc9 2.156113 1_555
O45 S9 1.470711 1_555
O45 Sc10 2.234414 1_555
O46 S4 1.501762 1_555
O46 Sc9 2.144340 1_555
O47 S5 1.479477 1_555
O47 Sc10 2.273620 1_555
O48 Si10 1.601020 1_555
O48 Sc11 1.967255 1_556
O49 S14 1.464755 1_555
O49 Sc12 2.126193 1_556
O50 Si11 1.612442 1_555
O50 Sc11 1.937602 1_556
O51 S15 1.468032 1_555
O51 Sc12 2.115542 1_556
O52 S16 1.461610 1_555
O52 Sc11 2.140157 1_556
O53 Si12 1.615842 1_555
O53 Sc12 1.943428 1_556
O54 Si13 1.608136 1_555
O54 Sc13 1.907205 1_555
O55 Si14 1.603070 1_555
O55 Sc14 1.937897 1_555
O56 S17 1.470655 1_555
O56 Sc13 2.133226 1_555
O57 Si15 1.600149 1_555
O57 Sc14 1.968195 1_555
O58 Si16 1.611605 1_555
O58 Sc13 1.940924 1_555
O59 Si17 1.603413 1_555
O59 Sc14 1.973293 1_555
O60 Si16 1.720701 1_555
O61 Si17 1.711339 1_555
O62 Si13 1.681863 1_555
O63 Si14 1.701101 1_555
O64 S17 1.478737 1_555
O65 Si15 1.699298 1_555
O66 Si11 1.669909 1_555
O67 S15 1.517748 1_555
O68 S16 1.466747 1_555
O69 Si12 1.719529 1_555
O70 Si10 1.685937 1_555
O71 S14 1.490420 1_555
O72 Si16 1.605954 1_555
O72 Sc0 2.095294 1_455
O73 Si17 1.598024 1_555
O73 Sc1 2.039962 1_565
O74 Si13 1.608744 1_555
O74 Sc1 2.001773 1_565
O75 Si14 1.617785 1_555
O75 Sc0 2.050631 1_555
O76 S17 1.490922 1_555
O76 Sc0 2.275287 1_445
O77 Si15 1.619361 1_555
O77 Sc1 2.033037 1_555
O78 Si11 1.630794 1_555
O78 Sc2 2.061299 1_555
O79 S15 1.442464 1_555
O79 Sc3 2.260766 1_545
O80 S16 1.496500 1_555
O80 Sc2 2.202037 1_565
O81 Si12 1.599281 1_555
O81 Sc3 2.145712 1_555
O82 Si10 1.604351 1_555
O82 Sc3 2.129822 1_555
O83 S14 1.465387 1_555
O83 Sc2 2.260736 1_665
O84 S4 1.512820 1_555
O85 S5 1.525122 1_555
O86 S6 1.548306 1_555
O87 S7 1.514013 1_555
O88 S8 1.511864 1_555
O89 S9 1.525485 1_555
O90 S10 1.504627 1_555
O91 Si8 1.697561 1_555
O92 S11 1.537474 1_555
O93 S12 1.500385 1_555
O94 S13 1.523258 1_555
O95 Si9 1.743143 1_555
O96 Si7 1.601157 1_545
O96 Sc4 1.961151 1_555
O97 S3 1.457019 1_555
O97 Sc5 2.203271 1_555
O98 Si3 1.584228 1_555
O98 Sc4 1.992737 1_555
O99 Si4 1.610807 1_555
O99 Sc5 1.948521 1_555
O100 Si6 1.588820 1_555
O100 Sc4 1.973327 1_555
O101 Si5 1.605790 1_555
O101 Sc5 1.955914 1_555
O102 S1 1.475375 1_555
O102 Sc6 2.144833 1_555
O103 S2 1.462847 1_555
O103 Sc7 2.191577 1_555
O104 Si2 1.608986 1_555
O104 Sc6 1.951359 1_555
O105 Si1 1.607491 1_555
O105 Sc7 2.048648 1_555
O106 Si0 1.601215 1_555
O106 Sc6 1.962438 1_555
O107 S0 1.457495 1_555
O107 Sc7 2.315629 1_555
O108 Si10 1.705045 1_555
O108 Sc8 1.963742 1_555
O109 S14 1.511440 1_555
O110 S15 1.506146 1_555
O110 Sc8 2.202338 1_555
O111 Si11 1.653370 1_655
O112 S16 1.514959 1_545
O112 Sc8 2.127368 1_555
O113 Si12 1.644895 1_545
O114 Si13 1.656848 1_545
O114 Sc9 2.040730 1_555
O115 Si14 1.643511 1_545
O115 Sc10 2.036609 1_555
O116 S17 1.487775 1_555
O116 Sc9 2.183002 1_555
O117 Si15 1.612153 1_555
O117 Sc10 1.972136 1_555
O118 Si17 1.635508 1_555
O118 Sc9 1.974629 1_555
O119 Si16 1.614083 1_655
O119 Sc10 2.009806 1_555
O120 S13 1.464788 1_555
O120 Sc11 2.254574 1_555
O121 Si9 1.610243 1_555
O121 Sc12 2.031643 1_555
O122 Si8 1.607883 1_455
O122 Sc11 2.054079 1_555
O123 S10 1.476919 1_555
O123 Sc12 2.213178 1_555
O124 S11 1.457410 1_565
O124 Sc11 2.330014 1_555
O125 S12 1.481040 1_565
O125 Sc12 2.147847 1_555
O126 S6 1.479621 1_565
O126 Sc13 2.202903 1_555
O127 S7 1.481690 1_565
O127 Sc14 2.291145 1_555
O128 S8 1.487291 1_555
O128 Sc13 2.228823 1_555
O129 S9 1.474021 1_555
O129 Sc14 2.293585 1_555
O130 S5 1.484188 1_455
O130 Sc13 2.298199 1_555
O131 S4 1.475497 1_555
O131 Sc14 2.315471 1_555
O132 Si0 1.670817 1_565
O133 S0 1.490920 1_565
O134 S1 1.489693 1_555
O135 S2 1.490644 1_555
O136 Si1 1.682233 1_455
O137 Si2 1.649283 1_555
O138 Si3 1.646521 1_555
O139 Si4 1.677394 1_555
O140 Si5 1.626685 1_455
O141 Si6 1.708804 1_555
O142 Si7 1.646447 1_555
O143 S3 1.514676 1_565
