# generated using pymatgen
data_LiNi(PO3)4
_symmetry_space_group_name_H-M   'P 1'
_cell_length_a   7.36240348
_cell_length_b   7.36240348
_cell_length_c   9.89229975
_cell_angle_alpha   67.19404222
_cell_angle_beta   67.19404222
_cell_angle_gamma   69.93128621
_symmetry_Int_Tables_number   1
_chemical_formula_structural   LiNi(PO3)4
_chemical_formula_sum   'Li2 Ni2 P8 O24'
_cell_volume   443.75404661
_cell_formula_units_Z   2
loop_
 _symmetry_equiv_pos_site_id
 _symmetry_equiv_pos_as_xyz
  1  'x, y, z'
loop_
 _atom_site_type_symbol
 _atom_site_label
 _atom_site_symmetry_multiplicity
 _atom_site_fract_x
 _atom_site_fract_y
 _atom_site_fract_z
 _atom_site_occupancy
  Li  Li0  1  0.05587700  0.94412300  0.75000000  1
  Li  Li1  1  0.94412300  0.05587700  0.25000000  1
  Ni  Ni0  1  0.00000000  0.50000000  0.00000000  1
  Ni  Ni1  1  0.50000000  0.00000000  0.50000000  1
  P  P0  1  0.68960700  0.69694700  0.80331800  1
  P  P1  1  0.73924900  0.27414300  0.52456400  1
  P  P2  1  0.69694700  0.68960700  0.30331800  1
  P  P3  1  0.72585700  0.26075100  0.97543600  1
  P  P4  1  0.31039300  0.30305300  0.19668200  1
  P  P5  1  0.27414300  0.73924900  0.02456400  1
  P  P6  1  0.26075100  0.72585700  0.47543600  1
  P  P7  1  0.30305300  0.31039300  0.69668200  1
  O  O0  1  0.90584400  0.15276000  0.59567800  1
  O  O1  1  0.53419700  0.31764100  0.65933600  1
  O  O2  1  0.12201200  0.29819300  0.17280000  1
  O  O3  1  0.31764100  0.53419700  0.15933600  1
  O  O4  1  0.19231900  0.33975300  0.85085000  1
  O  O5  1  0.09415600  0.84724000  0.40432200  1
  O  O6  1  0.33975300  0.19231900  0.35085000  1
  O  O7  1  0.66024700  0.80768100  0.64915000  1
  O  O8  1  0.46580300  0.68235900  0.34066400  1
  O  O9  1  0.22388500  0.50074100  0.56498300  1
  O  O10  1  0.87798800  0.70180700  0.82720000  1
  O  O11  1  0.80768100  0.66024700  0.14915000  1
  O  O12  1  0.19285100  0.70045600  0.92157300  1
  O  O13  1  0.50074100  0.22388500  0.06498300  1
  O  O14  1  0.15276000  0.90584400  0.09567800  1
  O  O15  1  0.29954400  0.80714900  0.57842700  1
  O  O16  1  0.80714900  0.29954400  0.07842700  1
  O  O17  1  0.29819300  0.12201200  0.67280000  1
  O  O18  1  0.70180700  0.87798800  0.32720000  1
  O  O19  1  0.70045600  0.19285100  0.42157300  1
  O  O20  1  0.68235900  0.46580300  0.84066400  1
  O  O21  1  0.77611500  0.49925900  0.43501700  1
  O  O22  1  0.84724000  0.09415600  0.90432200  1
  O  O23  1  0.49925900  0.77611500  0.93501700  1
loop_
_geom_bond_atom_site_label_1
_geom_bond_atom_site_label_2
_geom_bond_distance
_geom_bond_site_symmetry_2
Li0 O22 2.057930 1_465
Li0 O0 2.057930 1_465
Li0 O12 2.200192 1_555
Li0 O15 2.200192 1_555
Li0 O17 2.291995 1_565
Li0 O10 2.291995 1_455
Li1 O5 2.057930 1_645
Li1 O14 2.057930 1_645
Li1 O19 2.200192 1_555
Li1 O16 2.200192 1_555
Li1 O2 2.291995 1_655
Li1 O18 2.291995 1_545
Ni0 O4 2.038911 1_554
Ni0 O11 2.038911 1_455
Ni0 O10 2.059617 1_454
Ni0 O2 2.059617 1_555
Ni0 O12 2.119552 1_554
Ni0 O16 2.119552 1_455
Ni1 O7 2.038911 1_545
Ni1 O6 2.038911 1_555
Ni1 O17 2.059617 1_555
Ni1 O18 2.059617 1_545
Ni1 O19 2.119552 1_555
Ni1 O15 2.119552 1_545
O0 P1 1.492381 1_555
O1 P7 1.610909 1_555
O1 P1 1.611832 1_555
O2 P4 1.508413 1_555
O3 P4 1.610909 1_555
O3 P5 1.611832 1_555
O4 P7 1.485931 1_555
O5 P6 1.492381 1_555
O6 P4 1.485931 1_555
O7 P0 1.485931 1_555
O8 P2 1.610909 1_555
O8 P6 1.611832 1_555
O9 P6 1.609194 1_555
O9 P7 1.616697 1_555
O10 P0 1.508413 1_555
O11 P2 1.485931 1_555
O12 P5 1.514387 1_556
O13 P3 1.609194 1_554
O13 P4 1.616697 1_555
O14 P5 1.492381 1_555
O15 P6 1.514387 1_555
O16 P3 1.514387 1_554
O17 P7 1.508413 1_555
O18 P2 1.508413 1_555
O19 P1 1.514387 1_555
O20 P0 1.610909 1_555
O20 P3 1.611832 1_555
O21 P1 1.609194 1_555
O21 P2 1.616697 1_555
O22 P3 1.492381 1_555
O23 P5 1.609194 1_556
O23 P0 1.616697 1_555
