# generated using pymatgen
data_FeCu2SnSe4
_symmetry_space_group_name_H-M   'P 1'
_cell_length_a   5.76786600
_cell_length_b   5.76786600
_cell_length_c   6.98012938
_cell_angle_alpha   114.40370128
_cell_angle_beta   114.40370128
_cell_angle_gamma   90.00000000
_symmetry_Int_Tables_number   1
_chemical_formula_structural   FeCu2SnSe4
_chemical_formula_sum   'Fe1 Cu2 Sn1 Se4'
_cell_volume   188.45258651
_cell_formula_units_Z   1
loop_
 _symmetry_equiv_pos_site_id
 _symmetry_equiv_pos_as_xyz
  1  'x, y, z'
loop_
 _atom_site_type_symbol
 _atom_site_label
 _atom_site_symmetry_multiplicity
 _atom_site_fract_x
 _atom_site_fract_y
 _atom_site_fract_z
 _atom_site_occupancy
  Fe  Fe0  1  0.00000000  0.00000000  0.00000000  1
  Cu  Cu0  1  0.75000000  0.25000000  0.50000000  1
  Cu  Cu1  1  0.25000000  0.75000000  0.50000000  1
  Sn  Sn0  1  0.50000000  0.50000000  0.00000000  1
  Se  Se0  1  0.36400800  0.36400800  0.26759000  1
  Se  Se1  1  0.63599200  0.09641800  0.73241000  1
  Se  Se2  1  0.09641800  0.63599200  0.73241000  1
  Se  Se3  1  0.90358200  0.90358200  0.26759000  1
loop_
_geom_bond_atom_site_label_1
_geom_bond_atom_site_label_2
_geom_bond_distance
_geom_bond_site_symmetry_2
Fe0 Se2 2.413287 1_544
Fe0 Se3 2.413287 1_445
Fe0 Se1 2.413287 1_454
Fe0 Se0 2.413287 1_555
Cu0 Se2 2.432654 1_655
Cu0 Se0 2.432654 1_555
Cu0 Se3 2.432654 1_545
Cu0 Se1 2.432654 1_555
Cu1 Se1 2.432654 1_565
Cu1 Se0 2.432654 1_555
Cu1 Se3 2.432654 1_455
Cu1 Se2 2.432654 1_555
Se0 Sn0 2.672174 1_555
Se1 Sn0 2.672174 1_556
Se2 Sn0 2.672174 1_556
Se3 Sn0 2.672174 1_555
