# generated using pymatgen
data_Tb2MgNb2O8
_symmetry_space_group_name_H-M   'P 1'
_cell_length_a   6.93019680
_cell_length_b   5.66529179
_cell_length_c   6.32208022
_cell_angle_alpha   108.23538526
_cell_angle_beta   105.67861226
_cell_angle_gamma   117.26938181
_symmetry_Int_Tables_number   1
_chemical_formula_structural   Tb2MgNb2O8
_chemical_formula_sum   'Tb2 Mg1 Nb2 O8'
_cell_volume   182.67596499
_cell_formula_units_Z   1
loop_
 _symmetry_equiv_pos_site_id
 _symmetry_equiv_pos_as_xyz
  1  'x, y, z'
loop_
 _atom_site_type_symbol
 _atom_site_label
 _atom_site_symmetry_multiplicity
 _atom_site_fract_x
 _atom_site_fract_y
 _atom_site_fract_z
 _atom_site_occupancy
  Tb  Tb0  1  0.90478357  0.98173401  0.97807074  1
  Tb  Tb1  1  0.84219057  0.29540736  0.53704192  1
  Mg  Mg0  1  0.33672731  0.83898046  0.04496252  1
  Nb  Nb0  1  0.44712898  0.37132616  0.95896111  1
  Nb  Nb1  1  0.31149188  0.87394329  0.52934583  1
  O  O0  1  0.59313585  0.31313624  0.21355165  1
  O  O1  1  0.63976109  0.84537227  0.13599120  1
  O  O2  1  0.08996850  0.41026301  0.36209471  1
  O  O3  1  0.62845524  0.41940208  0.75189421  1
  O  O4  1  0.14558788  0.37127604  0.87871114  1
  O  O5  1  0.16810472  0.89733842  0.24243024  1
  O  O6  1  0.61646964  0.90828247  0.62702913  1
  O  O7  1  0.14077776  0.85374618  0.76074861  1
loop_
_geom_bond_atom_site_label_1
_geom_bond_atom_site_label_2
_geom_bond_distance
_geom_bond_site_symmetry_2
Mg0 O5 1.979303 1_555
Mg0 O7 1.989729 1_554
Mg0 O1 2.001727 1_555
Mg0 O4 2.041688 1_554
Mg0 O0 2.078440 1_565
Nb0 O0 1.865652 1_556
Nb0 O4 2.012646 1_555
Nb0 O3 2.040992 1_555
Nb0 O1 2.067195 1_556
Nb0 O7 2.287711 1_545
Nb1 O5 1.895309 1_555
Nb1 O6 1.931039 1_555
Nb1 O2 2.016000 1_555
Nb1 O7 2.114040 1_555
Nb1 O3 2.396321 1_565
O0 Tb1 2.356117 1_555
O1 Tb0 2.267264 1_554
O1 Tb1 2.377254 1_565
O2 Tb1 2.246851 1_455
O2 Tb0 2.281978 1_444
O3 Tb0 2.437143 1_555
O3 Tb1 2.444639 1_555
O4 Tb1 2.325428 1_455
O4 Tb0 2.471677 1_445
O5 Tb0 2.450145 1_454
O6 Tb0 2.313925 1_555
O6 Tb1 2.387209 1_565
O7 Tb1 2.430681 1_455
O7 Tb0 2.601140 1_455
