# generated using pymatgen
data_MgFe4O5F3
_symmetry_space_group_name_H-M   'P 1'
_cell_length_a   5.31003279
_cell_length_b   5.31003273
_cell_length_c   6.19715522
_cell_angle_alpha   88.09678031
_cell_angle_beta   91.90323843
_cell_angle_gamma   106.92720695
_symmetry_Int_Tables_number   1
_chemical_formula_structural   MgFe4O5F3
_chemical_formula_sum   'Mg1 Fe4 O5 F3'
_cell_volume   167.02445887
_cell_formula_units_Z   1
loop_
 _symmetry_equiv_pos_site_id
 _symmetry_equiv_pos_as_xyz
  1  'x, y, z'
loop_
 _atom_site_type_symbol
 _atom_site_label
 _atom_site_symmetry_multiplicity
 _atom_site_fract_x
 _atom_site_fract_y
 _atom_site_fract_z
 _atom_site_occupancy
  Mg  Mg0  1  0.69552404  0.30447596  0.47924912  1
  Fe  Fe0  1  0.02298774  0.97701226  0.01850636  1
  Fe  Fe1  1  0.04583360  0.95416640  0.49967407  1
  Fe  Fe2  1  0.41411243  0.58588757  0.22976124  1
  Fe  Fe3  1  0.44684397  0.55315603  0.76376155  1
  O  O0  1  0.17936541  0.82063459  0.25882964  1
  O  O1  1  0.27607415  0.31140723  0.98923771  1
  O  O2  1  0.32213316  0.28895784  0.51796601  1
  O  O3  1  0.68859277  0.72392485  0.98923771  1
  O  O4  1  0.71104216  0.67786784  0.51796601  1
  F  F0  1  0.20262019  0.79737981  0.75997250  1
  F  F1  1  0.85159757  0.14840243  0.26691323  1
  F  F2  1  0.85160282  0.14839718  0.70892385  1
loop_
_geom_bond_atom_site_label_1
_geom_bond_atom_site_label_2
_geom_bond_distance
_geom_bond_site_symmetry_2
Mg0 O2 1.982593 1_555
Mg0 O4 1.982599 1_555
Fe0 O1 1.896607 1_564
Fe0 O3 1.896609 1_454
Fe0 O0 1.958145 1_555
Fe1 O0 1.914835 1_555
Fe1 O4 1.951750 1_455
Fe1 O2 1.951752 1_565
Fe2 O0 2.018582 1_555
Fe2 O3 2.081581 1_554
Fe2 O1 2.081581 1_554
Fe2 O4 2.310192 1_555
Fe2 O2 2.310192 1_555
Fe3 O3 1.926083 1_555
Fe3 O1 1.926085 1_555
Fe3 O2 2.064185 1_555
Fe3 O4 2.064186 1_555
F0 Fe1 2.052701 1_555
F0 Fe3 2.083123 1_555
F0 Fe0 2.262625 1_556
F1 Mg0 1.910507 1_555
F1 Fe1 2.151758 1_645
F1 Fe0 2.166736 1_645
F2 Mg0 1.908639 1_555
F2 Fe1 2.146187 1_645
F2 Fe0 2.363791 1_646
