# generated using pymatgen
data_LiCr(PO3)4
_symmetry_space_group_name_H-M   'P 1'
_cell_length_a   8.37141800
_cell_length_b   9.25480400
_cell_length_c   12.73173700
_cell_angle_alpha   90.00000000
_cell_angle_beta   90.00000000
_cell_angle_gamma   90.00000000
_symmetry_Int_Tables_number   1
_chemical_formula_structural   LiCr(PO3)4
_chemical_formula_sum   'Li4 Cr4 P16 O48'
_cell_volume   986.40192696
_cell_formula_units_Z   4
loop_
 _symmetry_equiv_pos_site_id
 _symmetry_equiv_pos_as_xyz
  1  'x, y, z'
loop_
 _atom_site_type_symbol
 _atom_site_label
 _atom_site_symmetry_multiplicity
 _atom_site_fract_x
 _atom_site_fract_y
 _atom_site_fract_z
 _atom_site_occupancy
  Li  Li0  1  0.00304300  0.75000000  0.00000000  1
  Li  Li1  1  0.50304300  0.75000000  0.50000000  1
  Li  Li2  1  0.49695700  0.25000000  0.50000000  1
  Li  Li3  1  0.99695700  0.25000000  0.00000000  1
  Cr  Cr0  1  0.86859900  0.75000000  0.50000000  1
  Cr  Cr1  1  0.13140100  0.25000000  0.50000000  1
  Cr  Cr2  1  0.63140100  0.25000000  0.00000000  1
  Cr  Cr3  1  0.36859900  0.75000000  0.00000000  1
  P  P0  1  0.46439300  0.48892800  0.85032500  1
  P  P1  1  0.53560700  0.98892800  0.85032500  1
  P  P2  1  0.96439300  0.48892800  0.64967500  1
  P  P3  1  0.18079500  0.99452500  0.86144300  1
  P  P4  1  0.18079500  0.50547500  0.13855700  1
  P  P5  1  0.81920500  0.00547500  0.13855700  1
  P  P6  1  0.46439300  0.01107200  0.14967500  1
  P  P7  1  0.53560700  0.51107200  0.14967500  1
  P  P8  1  0.03560700  0.51107200  0.35032500  1
  P  P9  1  0.96439300  0.01107200  0.35032500  1
  P  P10  1  0.31920500  0.00547500  0.36144300  1
  P  P11  1  0.68079500  0.50547500  0.36144300  1
  P  P12  1  0.31920500  0.49452500  0.63855700  1
  P  P13  1  0.68079500  0.99452500  0.63855700  1
  P  P14  1  0.03560700  0.98892800  0.64967500  1
  P  P15  1  0.81920500  0.49452500  0.86144300  1
  O  O0  1  0.86644300  0.87922100  0.37586600  1
  O  O1  1  0.46626300  0.36912100  0.93073600  1
  O  O2  1  0.53373700  0.86912100  0.93073600  1
  O  O3  1  0.80726100  0.36618700  0.93597600  1
  O  O4  1  0.19273900  0.63381300  0.06402400  1
  O  O5  1  0.80726100  0.13381300  0.06402400  1
  O  O6  1  0.46626300  0.13087900  0.06926400  1
  O  O7  1  0.53373700  0.63087900  0.06926400  1
  O  O8  1  0.09425800  0.37494000  0.10377900  1
  O  O9  1  0.90574200  0.87494000  0.10377900  1
  O  O10  1  0.36644300  0.87922100  0.12413400  1
  O  O11  1  0.63355700  0.37922100  0.12413400  1
  O  O12  1  0.35724400  0.46357700  0.17962800  1
  O  O13  1  0.64275600  0.96357700  0.17962800  1
  O  O14  1  0.10269500  0.57660000  0.24314000  1
  O  O15  1  0.89730500  0.07660000  0.24314000  1
  O  O16  1  0.39730500  0.07660000  0.25686000  1
  O  O17  1  0.60269500  0.57660000  0.25686000  1
  O  O18  1  0.14275600  0.96357700  0.32037200  1
  O  O19  1  0.85724400  0.46357700  0.32037200  1
  O  O20  1  0.13355700  0.37922100  0.37586600  1
  O  O21  1  0.19273900  0.86618700  0.93597600  1
  O  O22  1  0.40574200  0.87494000  0.39622100  1
  O  O23  1  0.59425800  0.37494000  0.39622100  1
  O  O24  1  0.03373700  0.63087900  0.43073600  1
  O  O25  1  0.96626300  0.13087900  0.43073600  1
  O  O26  1  0.30726100  0.13381300  0.43597600  1
  O  O27  1  0.69273900  0.63381300  0.43597600  1
  O  O28  1  0.30726100  0.36618700  0.56402400  1
  O  O29  1  0.69273900  0.86618700  0.56402400  1
  O  O30  1  0.03373700  0.86912100  0.56926400  1
  O  O31  1  0.96626300  0.36912100  0.56926400  1
  O  O32  1  0.40574200  0.62506000  0.60377900  1
  O  O33  1  0.59425800  0.12506000  0.60377900  1
  O  O34  1  0.13355700  0.12077900  0.62413400  1
  O  O35  1  0.86644300  0.62077900  0.62413400  1
  O  O36  1  0.14275600  0.53642300  0.67962800  1
  O  O37  1  0.85724400  0.03642300  0.67962800  1
  O  O38  1  0.39730500  0.42340000  0.74314000  1
  O  O39  1  0.60269500  0.92340000  0.74314000  1
  O  O40  1  0.10269500  0.92340000  0.75686000  1
  O  O41  1  0.89730500  0.42340000  0.75686000  1
  O  O42  1  0.35724400  0.03642300  0.82037200  1
  O  O43  1  0.64275600  0.53642300  0.82037200  1
  O  O44  1  0.36644300  0.62077900  0.87586600  1
  O  O45  1  0.90574200  0.62506000  0.89622100  1
  O  O46  1  0.09425800  0.12506000  0.89622100  1
  O  O47  1  0.63355700  0.12077900  0.87586600  1
loop_
_geom_bond_atom_site_label_1
_geom_bond_atom_site_label_2
_geom_bond_distance
_geom_bond_site_symmetry_2
Li0 O9 1.935537 1_455
Li0 O45 1.935537 1_454
Li0 O4 2.083870 1_555
Li0 O21 2.083870 1_554
Li1 O32 1.935537 1_555
Li1 O22 1.935537 1_555
Li1 O29 2.083870 1_555
Li1 O27 2.083870 1_555
Li2 O33 1.935537 1_555
Li2 O23 1.935537 1_555
Li2 O28 2.083870 1_555
Li2 O26 2.083870 1_555
Li3 O8 1.935537 1_655
Li3 O46 1.935537 1_654
Li3 O5 2.083870 1_555
Li3 O3 2.083870 1_554
Cr0 O30 1.975899 1_655
Cr0 O24 1.975899 1_655
Cr0 O0 1.982002 1_555
Cr0 O35 1.982002 1_555
Cr0 O29 1.997012 1_555
Cr0 O27 1.997012 1_555
Cr1 O31 1.975899 1_455
Cr1 O25 1.975899 1_455
Cr1 O34 1.982002 1_555
Cr1 O20 1.982002 1_555
Cr1 O28 1.997012 1_555
Cr1 O26 1.997012 1_555
Cr2 O6 1.975899 1_555
Cr2 O1 1.975899 1_554
Cr2 O11 1.982002 1_555
Cr2 O47 1.982002 1_554
Cr2 O5 1.997012 1_555
Cr2 O3 1.997012 1_554
Cr3 O7 1.975899 1_555
Cr3 O2 1.975899 1_554
Cr3 O10 1.982002 1_555
Cr3 O44 1.982002 1_554
Cr3 O4 1.997012 1_555
Cr3 O21 1.997012 1_554
O0 P9 1.505700 1_565
O1 P0 1.509228 1_555
O2 P1 1.509228 1_555
O3 P15 1.523551 1_555
O4 P4 1.523551 1_555
O5 P5 1.523551 1_555
O6 P6 1.509228 1_555
O7 P7 1.509228 1_555
O8 P4 1.476589 1_555
O9 P5 1.476589 1_565
O10 P6 1.505700 1_565
O11 P7 1.505700 1_555
O12 P7 1.602542 1_555
O12 P4 1.614216 1_555
O13 P6 1.602542 1_565
O13 P5 1.614216 1_565
O14 P8 1.595454 1_555
O14 P4 1.622871 1_555
O15 P9 1.595454 1_555
O15 P5 1.622871 1_555
O16 P6 1.595454 1_555
O16 P10 1.622871 1_555
O17 P7 1.595454 1_555
O17 P11 1.622871 1_555
O18 P9 1.602542 1_465
O18 P10 1.614216 1_565
O19 P8 1.602542 1_655
O19 P11 1.614216 1_555
O20 P8 1.505700 1_555
O21 P3 1.523551 1_555
O22 P10 1.476589 1_565
O23 P11 1.476589 1_555
O24 P8 1.509228 1_555
O25 P9 1.509228 1_555
O26 P10 1.523551 1_555
O27 P11 1.523551 1_555
O28 P12 1.523551 1_555
O29 P13 1.523551 1_555
O30 P14 1.509228 1_555
O31 P2 1.509228 1_555
O32 P12 1.476589 1_555
O33 P13 1.476589 1_545
O34 P14 1.505700 1_545
O35 P2 1.505700 1_555
O36 P2 1.602542 1_455
O36 P12 1.614216 1_555
O37 P14 1.602542 1_645
O37 P13 1.614216 1_545
O38 P0 1.595454 1_555
O38 P12 1.622871 1_555
O39 P1 1.595454 1_555
O39 P13 1.622871 1_555
O40 P14 1.595454 1_555
O40 P3 1.622871 1_555
O41 P2 1.595454 1_555
O41 P15 1.622871 1_555
O42 P1 1.602542 1_545
O42 P3 1.614216 1_545
O43 P0 1.602542 1_555
O43 P15 1.614216 1_555
O44 P0 1.505700 1_555
O45 P15 1.476589 1_555
O46 P3 1.476589 1_545
O47 P1 1.505700 1_545
