# generated using pymatgen
data_Yb2MgTi2O6
_symmetry_space_group_name_H-M   'P 1'
_cell_length_a   6.12409580
_cell_length_b   6.12409519
_cell_length_c   6.12409453
_cell_angle_alpha   52.18652267
_cell_angle_beta   52.18651644
_cell_angle_gamma   52.18652160
_symmetry_Int_Tables_number   1
_chemical_formula_structural   Yb2MgTi2O6
_chemical_formula_sum   'Yb2 Mg1 Ti2 O6'
_cell_volume   132.59073146
_cell_formula_units_Z   1
loop_
 _symmetry_equiv_pos_site_id
 _symmetry_equiv_pos_as_xyz
  1  'x, y, z'
loop_
 _atom_site_type_symbol
 _atom_site_label
 _atom_site_symmetry_multiplicity
 _atom_site_fract_x
 _atom_site_fract_y
 _atom_site_fract_z
 _atom_site_occupancy
  Yb  Yb0  1  0.32640621  0.32640621  0.32640621  1
  Yb  Yb1  1  0.67359379  0.67359379  0.67359379  1
  Mg  Mg0  1  0.50000000  0.50000000  0.50000000  1
  Ti  Ti0  1  0.14948019  0.14948019  0.14948019  1
  Ti  Ti1  1  0.85051981  0.85051981  0.85051981  1
  O  O0  1  0.09841990  0.71630552  0.45457916  1
  O  O1  1  0.45457916  0.09841990  0.71630552  1
  O  O2  1  0.71630552  0.45457916  0.09841990  1
  O  O3  1  0.28369448  0.54542084  0.90158010  1
  O  O4  1  0.54542084  0.90158010  0.28369448  1
  O  O5  1  0.90158010  0.28369448  0.54542084  1
loop_
_geom_bond_atom_site_label_1
_geom_bond_atom_site_label_2
_geom_bond_distance
_geom_bond_site_symmetry_2
Mg0 O3 2.067052 1_555
Mg0 O2 2.067052 1_555
Mg0 O4 2.067053 1_555
Mg0 O1 2.067053 1_555
Mg0 O5 2.067053 1_555
Mg0 O0 2.067053 1_555
O0 Yb1 2.182101 1_455
O0 Ti0 2.202099 1_565
O0 Yb0 2.265722 1_555
O0 Ti1 2.293434 1_455
O1 Yb1 2.182100 1_545
O1 Ti0 2.202099 1_556
O1 Yb0 2.265722 1_555
O1 Ti1 2.293435 1_545
O2 Yb1 2.182100 1_554
O2 Ti0 2.202100 1_655
O2 Yb0 2.265722 1_555
O2 Ti1 2.293435 1_554
O3 Yb0 2.182100 1_556
O3 Ti1 2.202100 1_455
O3 Yb1 2.265722 1_555
O3 Ti0 2.293435 1_556
O4 Yb0 2.182100 1_565
O4 Ti1 2.202099 1_554
O4 Yb1 2.265722 1_555
O4 Ti0 2.293435 1_565
O5 Yb0 2.182101 1_655
O5 Ti1 2.202099 1_545
O5 Yb1 2.265722 1_555
O5 Ti0 2.293434 1_655
