# generated using pymatgen
data_YMgSb(PbO3)2
_symmetry_space_group_name_H-M   'P 1'
_cell_length_a   6.45448700
_cell_length_b   6.40450276
_cell_length_c   5.94992992
_cell_angle_alpha   58.41164944
_cell_angle_beta   57.15280974
_cell_angle_gamma   59.74148494
_symmetry_Int_Tables_number   1
_chemical_formula_structural   YMgSb(PbO3)2
_chemical_formula_sum   'Y1 Mg1 Sb1 Pb2 O6'
_cell_volume   167.51057848
_cell_formula_units_Z   1
loop_
 _symmetry_equiv_pos_site_id
 _symmetry_equiv_pos_as_xyz
  1  'x, y, z'
loop_
 _atom_site_type_symbol
 _atom_site_label
 _atom_site_symmetry_multiplicity
 _atom_site_fract_x
 _atom_site_fract_y
 _atom_site_fract_z
 _atom_site_occupancy
  Y  Y0  1  0.00000000  0.00000000  0.00000000  1
  Mg  Mg0  1  0.50000000  0.00000000  0.00000000  1
  Sb  Sb0  1  0.50000000  0.50000000  0.50000000  1
  Pb  Pb0  1  0.17531900  0.35786200  0.29149900  1
  Pb  Pb1  1  0.82468100  0.64213800  0.70850100  1
  O  O0  1  0.27259900  0.76465500  0.26301300  1
  O  O1  1  0.69973300  0.76465500  0.26301300  1
  O  O2  1  0.72740100  0.23534500  0.73698700  1
  O  O3  1  0.30026700  0.23534500  0.73698700  1
  O  O4  1  0.73803200  0.32075700  0.20318100  1
  O  O5  1  0.26196800  0.67924300  0.79681900  1
loop_
_geom_bond_atom_site_label_1
_geom_bond_atom_site_label_2
_geom_bond_distance
_geom_bond_site_symmetry_2
Mg0 O0 2.035170 1_545
Mg0 O2 2.035170 1_554
Mg0 O1 2.035170 1_545
Mg0 O3 2.035170 1_554
Mg0 Pb0 2.834391 1_555
Mg0 Pb1 2.834391 1_544
O0 Sb0 2.061449 1_555
O0 Y0 2.379019 1_565
O0 Pb1 2.791803 1_455
O1 Sb0 2.061449 1_555
O1 Y0 2.379019 1_665
O1 Pb1 2.791808 1_555
O2 Sb0 2.061449 1_555
O2 Y0 2.379019 1_656
O2 Pb0 2.791803 1_655
O3 Sb0 2.061449 1_555
O3 Y0 2.379019 1_556
O3 Pb0 2.791808 1_555
O4 Sb0 2.049450 1_555
O4 Y0 2.329001 1_655
O4 Pb1 2.498025 1_554
O5 Sb0 2.049450 1_555
O5 Y0 2.329001 1_566
O5 Pb0 2.498025 1_556
