# generated using pymatgen
data_Na5Sc3TiSi3(SO8)3
_symmetry_space_group_name_H-M   'P 1'
_cell_length_a   9.03012206
_cell_length_b   9.03120516
_cell_length_c   22.67809629
_cell_angle_alpha   90.86357960
_cell_angle_beta   89.97880260
_cell_angle_gamma   120.03164409
_symmetry_Int_Tables_number   1
_chemical_formula_structural   Na5Sc3TiSi3(SO8)3
_chemical_formula_sum   'Na15 Sc9 Ti3 Si9 S9 O72'
_cell_volume   1600.93515860
_cell_formula_units_Z   3
loop_
 _symmetry_equiv_pos_site_id
 _symmetry_equiv_pos_as_xyz
  1  'x, y, z'
loop_
 _atom_site_type_symbol
 _atom_site_label
 _atom_site_symmetry_multiplicity
 _atom_site_fract_x
 _atom_site_fract_y
 _atom_site_fract_z
 _atom_site_occupancy
  Na  Na0  1  0.64620074  0.00752544  0.25555571  1
  Na  Na1  1  0.00156582  0.62319903  0.24778376  1
  Na  Na2  1  0.63248553  0.63744074  0.74475548  1
  Na  Na3  1  0.36731697  0.01134152  0.75672890  1
  Na  Na4  1  0.66663986  0.95237094  0.58452481  1
  Na  Na5  1  0.97800199  0.68222171  0.92071644  1
  Na  Na6  1  0.69539232  0.02049673  0.91362321  1
  Na  Na7  1  0.96341971  0.30324404  0.41130662  1
  Na  Na8  1  0.70431565  0.68521887  0.42337901  1
  Na  Na9  1  0.00561495  0.97833283  0.50220083  1
  Na  Na10  1  0.01043966  0.98921917  0.99883540  1
  Na  Na11  1  0.65007831  0.31720515  0.83176577  1
  Na  Na12  1  0.65944151  0.31598832  0.33420817  1
  Na  Na13  1  0.30761499  0.63678978  0.15983394  1
  Na  Na14  1  0.32476969  0.63547955  0.66721035  1
  Sc  Sc0  1  0.99316903  0.00313559  0.35314117  1
  Sc  Sc1  1  0.01086728  0.01313544  0.85167938  1
  Sc  Sc2  1  0.99384108  0.00025057  0.65059792  1
  Sc  Sc3  1  0.00382431  0.00505120  0.14236206  1
  Sc  Sc4  1  0.65755287  0.33679163  0.68689133  1
  Sc  Sc5  1  0.68274392  0.33987064  0.18186174  1
  Sc  Sc6  1  0.33040973  0.67791609  0.01846637  1
  Sc  Sc7  1  0.33997998  0.67573638  0.51760113  1
  Sc  Sc8  1  0.31986398  0.66236877  0.31859584  1
  Ti  Ti0  1  0.65856782  0.34874145  0.97850151  1
  Ti  Ti1  1  0.68123830  0.34758198  0.48080828  1
  Ti  Ti2  1  0.36394101  0.67757248  0.81486557  1
  Si  Si0  1  0.00466982  0.29672578  0.24982676  1
  Si  Si1  1  0.28839688  0.29820046  0.75025996  1
  Si  Si2  1  0.70740218  0.00523666  0.75159458  1
  Si  Si3  1  0.66721929  0.62955420  0.58407371  1
  Si  Si4  1  0.96177372  0.62823533  0.08285348  1
  Si  Si5  1  0.62715012  0.66843275  0.91907421  1
  Si  Si6  1  0.33704637  0.96254575  0.91682660  1
  Si  Si7  1  0.62499055  0.96702852  0.41693774  1
  Si  Si8  1  0.03923883  0.67120866  0.41813935  1
  S  S0  1  0.29206552  0.00161368  0.24951085  1
  S  S1  1  0.70424916  0.70520968  0.24927409  1
  S  S2  1  0.00497884  0.70625302  0.75080573  1
  S  S3  1  0.95718896  0.33592933  0.58200656  1
  S  S4  1  0.37677651  0.04648099  0.58159034  1
  S  S5  1  0.66713979  0.04181721  0.08206273  1
  S  S6  1  0.37956083  0.33460781  0.08239378  1
  S  S7  1  0.04239390  0.37972930  0.91738325  1
  S  S8  1  0.33879814  0.37332793  0.41763643  1
  O  O0  1  0.21063088  0.02016138  0.30336559  1
  O  O1  1  0.80930173  0.78048243  0.30430183  1
  O  O2  1  0.97405967  0.18516129  0.31009555  1
  O  O3  1  0.20941576  0.16872360  0.80491952  1
  O  O4  1  0.97284264  0.78114553  0.80473991  1
  O  O5  1  0.81427585  0.02217019  0.81081627  1
  O  O6  1  0.78210940  0.95790464  0.69239210  1
  O  O7  1  0.17428642  0.20541927  0.69124521  1
  O  O8  1  0.03123102  0.81621373  0.69922955  1
  O  O9  1  0.79299539  0.81310805  0.19867979  1
  O  O10  1  0.01592642  0.18816286  0.19406084  1
  O  O11  1  0.18440040  0.97299540  0.19696820  1
  O  O12  1  0.87044839  0.35224597  0.63424088  1
  O  O13  1  0.47737874  0.12181517  0.63695562  1
  O  O14  1  0.65360238  0.52234858  0.64242711  1
  O  O15  1  0.87177772  0.52141775  0.14324833  1
  O  O16  1  0.64727665  0.12217273  0.13769794  1
  O  O17  1  0.48045097  0.34949193  0.13581188  1
  O  O18  1  0.46649287  0.31409641  0.02848564  1
  O  O19  1  0.82934265  0.51311125  0.02565453  1
  O  O20  1  0.68141660  0.14412993  0.03022089  1
  O  O21  1  0.47027226  0.15117335  0.53042793  1
  O  O22  1  0.67788793  0.51458608  0.52602379  1
  O  O23  1  0.85168774  0.31491247  0.52706290  1
  O  O24  1  0.53052834  0.69523267  0.97321422  1
  O  O25  1  0.14229902  0.45629225  0.97114991  1
  O  O26  1  0.29612960  0.83517180  0.97149558  1
  O  O27  1  0.54337265  0.84067150  0.47283983  1
  O  O28  1  0.30846430  0.45182496  0.47012398  1
  O  O29  1  0.15563875  0.68468817  0.47351237  1
  O  O30  1  0.10642925  0.61934342  0.35812613  1
  O  O31  1  0.51615365  0.88061375  0.35609751  1
  O  O32  1  0.36927818  0.48221946  0.36527617  1
  O  O33  1  0.12305008  0.48550453  0.86505839  1
  O  O34  1  0.36974638  0.86714752  0.85796410  1
  O  O35  1  0.51316919  0.64075146  0.85728477  1
  O  O36  1  0.00223678  0.82819667  0.41126396  1
  O  O37  1  0.82146224  0.99658454  0.41217536  1
  O  O38  1  0.18641361  0.20207246  0.40998450  1
  O  O39  1  0.01355226  0.20295693  0.91221696  1
  O  O40  1  0.16795383  0.97988187  0.90958678  1
  O  O41  1  0.81873479  0.83099299  0.91236497  1
  O  O42  1  0.96403924  0.17432232  0.58333838  1
  O  O43  1  0.20593979  0.02807949  0.58507228  1
  O  O44  1  0.83864019  0.82056399  0.58192320  1
  O  O45  1  0.97347343  0.81487111  0.08473023  1
  O  O46  1  0.82433009  0.02858911  0.08605379  1
  O  O47  1  0.20947221  0.17668666  0.08396098  1
  O  O48  1  0.66829676  0.16149637  0.74419847  1
  O  O49  1  0.48722514  0.33336192  0.74535722  1
  O  O50  1  0.85101873  0.53477469  0.74324805  1
  O  O51  1  0.68352334  0.53154501  0.24373414  1
  O  O52  1  0.82642347  0.31205033  0.24648082  1
  O  O53  1  0.46612064  0.15319204  0.24435188  1
  O  O54  1  0.64549919  0.49275567  0.92458868  1
  O  O55  1  0.86614135  0.36213045  0.92188056  1
  O  O56  1  0.51975691  0.14695483  0.92689390  1
  O  O57  1  0.65060921  0.16040463  0.42829653  1
  O  O58  1  0.49458088  0.35792268  0.42383432  1
  O  O59  1  0.84239034  0.49498125  0.42742839  1
  O  O60  1  0.36383381  0.48755458  0.07809202  1
  O  O61  1  0.14547682  0.63801855  0.07857580  1
  O  O62  1  0.51444832  0.86882925  0.07976009  1
  O  O63  1  0.36382562  0.87477928  0.57717688  1
  O  O64  1  0.49745755  0.65164936  0.57908412  1
  O  O65  1  0.12858027  0.48630285  0.57700558  1
  O  O66  1  0.31208127  0.84596486  0.25356863  1
  O  O67  1  0.53601577  0.69463245  0.25511545  1
  O  O68  1  0.16921428  0.49291146  0.25261904  1
  O  O69  1  0.31020523  0.49071771  0.75998439  1
  O  O70  1  0.16001122  0.69213008  0.75683285  1
  O  O71  1  0.51160814  0.82626794  0.75795620  1
loop_
_geom_bond_atom_site_label_1
_geom_bond_atom_site_label_2
_geom_bond_distance
_geom_bond_site_symmetry_2
Na0 O52 2.406525 1_555
Na0 O67 2.481952 1_545
Na0 O53 2.567345 1_555
Na0 O31 2.573156 1_545
Na0 O66 2.612611 1_545
Na0 O2 2.838562 1_555
Na0 O16 2.879113 1_555
Na0 O9 2.960390 1_545
Na1 O68 2.339963 1_555
Na1 O52 2.438769 1_455
Na1 O66 2.504561 1_555
Na1 O51 2.561277 1_455
Na1 O15 2.587781 1_455
Na1 O30 2.682732 1_555
Na2 O49 2.378619 1_555
Na2 O71 2.456998 1_555
Na2 O69 2.549044 1_555
Na2 O50 2.566235 1_555
Na2 O14 2.574366 1_555
Na2 O35 2.775272 1_555
Na2 O6 2.792889 1_555
Na2 O4 2.989697 1_555
Na3 O48 2.372435 1_555
Na3 O70 2.532511 1_545
Na3 O49 2.562644 1_555
Na3 O71 2.583320 1_545
Na3 O34 2.661931 1_545
Na3 O3 2.688553 1_555
Na3 O13 2.906589 1_555
Na3 O8 2.932025 1_545
Na4 O64 2.358415 1_555
Na4 O44 2.383550 1_555
Na4 O42 2.417469 1_565
Na4 O63 2.464722 1_555
Na4 O6 2.649488 1_555
Na4 O27 2.733654 1_555
Na5 O40 2.374265 1_655
Na5 O41 2.419004 1_555
Na5 O55 2.541112 1_555
Na5 O54 2.610096 1_555
Na5 O26 2.733001 1_655
Na5 O4 2.798301 1_555
Na5 O19 2.802332 1_556
Na5 O33 2.953888 1_655
Na6 O56 2.390119 1_555
Na6 O41 2.465146 1_545
Na6 O39 2.496670 1_655
Na6 O5 2.563475 1_555
Na6 O55 2.674494 1_555
Na6 O34 2.834105 1_545
Na6 O20 2.882064 1_556
Na6 O24 2.900431 1_545
Na7 O37 2.400378 1_545
Na7 O57 2.481609 1_555
Na7 O59 2.490293 1_555
Na7 O2 2.538386 1_555
Na7 O38 2.594486 1_655
Na7 O30 2.772065 1_655
Na7 O23 2.831349 1_555
Na8 O36 2.348053 1_655
Na8 O37 2.476853 1_555
Na8 O59 2.581442 1_555
Na8 O58 2.592609 1_555
Na8 O27 2.708320 1_555
Na8 O22 2.754977 1_555
Na8 O1 2.860609 1_555
Na8 O32 2.937477 1_555
Na9 O44 2.344682 1_455
Na9 O36 2.442695 1_555
Na9 O43 2.483901 1_565
Na9 O42 2.688153 1_465
Na9 O37 2.692148 1_455
Na9 O38 2.818635 1_565
Na10 O45 2.439469 1_456
Na10 O40 2.497913 1_555
Na10 O41 2.515184 1_455
Na10 O47 2.584896 1_566
Na10 O46 2.727187 1_466
Na10 O39 2.765045 1_565
Na11 O48 2.468878 1_555
Na11 O49 2.499881 1_555
Na11 O56 2.586504 1_555
Na11 O54 2.628970 1_555
Na11 O55 2.708013 1_555
Na11 O50 2.780376 1_555
Na12 O52 2.506456 1_555
Na12 O57 2.551790 1_555
Na12 O53 2.589378 1_555
Na12 O58 2.651386 1_555
Na12 O59 2.652940 1_555
Na12 O51 2.782660 1_555
Na13 O61 2.357648 1_555
Na13 O60 2.473756 1_555
Na13 O68 2.476478 1_555
Na13 O62 2.715136 1_555
Na13 O66 2.809234 1_555
Na13 O67 2.843701 1_555
Na14 O69 2.462454 1_555
Na14 O64 2.495140 1_555
Na14 O65 2.582438 1_555
Na14 O71 2.652622 1_555
Na14 O70 2.708234 1_555
Na14 O63 2.886774 1_555
O0 S0 1.475438 1_555
O0 Sc0 2.203490 1_455
O1 S1 1.499720 1_555
O1 Sc0 2.149250 1_565
O2 Si0 1.649890 1_655
O2 Sc0 2.004399 1_555
O3 Si1 1.618892 1_555
O3 Sc1 1.958387 1_555
O4 S2 1.486266 1_655
O4 Sc1 2.203101 1_665
O5 Si2 1.614172 1_555
O5 Sc1 2.040932 1_655
O6 Si2 1.646538 1_565
O6 Sc2 1.994465 1_565
O7 Si1 1.630348 1_555
O7 Sc2 1.966121 1_455
O8 S2 1.486487 1_555
O8 Sc2 2.170267 1_465
O9 S1 1.469567 1_555
O9 Sc3 2.241025 1_665
O10 Si0 1.622740 1_555
O10 Sc3 1.970298 1_555
O11 S0 1.473742 1_565
O11 Sc3 2.181997 1_565
O12 S3 1.465620 1_555
O12 Sc4 2.208119 1_555
O13 S4 1.490329 1_555
O13 Sc4 2.114762 1_555
O14 Si3 1.619598 1_555
O14 Sc4 1.984235 1_555
O15 Si4 1.649624 1_555
O15 Sc5 1.899902 1_555
O16 S5 1.501078 1_555
O16 Sc5 2.069233 1_555
O17 S6 1.479509 1_555
O17 Sc5 2.144325 1_555
O18 S6 1.511013 1_555
O18 Ti0 1.963976 1_554
O19 Si4 1.705778 1_555
O19 Ti0 1.840436 1_554
O20 S5 1.471739 1_555
O20 Ti0 2.297846 1_554
O21 S4 1.478616 1_555
O21 Ti1 2.172099 1_555
O22 Si3 1.696835 1_555
O22 Ti1 1.823790 1_555
O23 S3 1.519524 1_555
O23 Ti1 2.005378 1_555
O24 Si5 1.590268 1_555
O24 Sc6 2.015884 1_556
O25 S7 1.459367 1_555
O25 Sc6 2.139262 1_556
O26 Si6 1.616814 1_555
O26 Sc6 1.932196 1_556
O27 Si7 1.629015 1_555
O27 Sc7 1.981997 1_555
O28 S8 1.470766 1_555
O28 Sc7 2.165192 1_555
O29 Si8 1.601515 1_555
O29 Sc7 1.978783 1_555
O30 Si8 1.644524 1_555
O30 Sc8 1.982143 1_555
O31 Si7 1.636908 1_555
O31 Sc8 2.050269 1_555
O32 S8 1.488923 1_555
O32 Sc8 2.178473 1_555
O33 S7 1.479262 1_555
O33 Ti2 2.305902 1_555
O34 Si6 1.682587 1_555
O34 Ti2 1.936248 1_555
O35 Si5 1.678802 1_555
O35 Ti2 1.819623 1_555
O36 Si8 1.620794 1_555
O36 Sc0 2.105371 1_465
O37 Si7 1.660504 1_555
O37 Sc0 2.027072 1_565
O38 S8 1.475644 1_555
O38 Sc0 2.174504 1_455
O39 S7 1.486090 1_555
O39 Sc1 2.170654 1_555
O40 Si6 1.619638 1_555
O40 Sc1 2.065579 1_565
O41 Si5 1.623499 1_555
O41 Sc1 2.195415 1_665
O42 S3 1.492178 1_555
O42 Sc2 2.316572 1_555
O43 S4 1.468806 1_555
O43 Sc2 2.338155 1_455
O44 Si3 1.644372 1_555
O44 Sc2 2.161497 1_565
O45 Si4 1.635124 1_555
O45 Sc3 2.048102 1_665
O46 S5 1.485750 1_555
O46 Sc3 2.158146 1_655
O47 S6 1.484334 1_555
O47 Sc3 2.187272 1_555
O48 Si2 1.627989 1_555
O48 Sc4 2.102513 1_555
O49 Si1 1.663444 1_555
O49 Sc4 2.019082 1_555
O50 S2 1.482443 1_655
O50 Sc4 2.165323 1_555
O51 S1 1.486928 1_555
O51 Sc5 2.209074 1_555
O52 Si0 1.684953 1_655
O52 Sc5 2.057376 1_555
O53 S0 1.486291 1_555
O53 Sc5 2.333682 1_555
O54 Si5 1.682097 1_555
O54 Ti0 1.844470 1_555
O55 S7 1.521828 1_655
O55 Ti0 2.225507 1_555
O56 Si6 1.669238 1_545
O56 Ti0 1.977957 1_555
O57 Si7 1.658896 1_545
O57 Ti1 1.955455 1_555
O58 S8 1.488174 1_555
O58 Ti1 2.163792 1_555
O59 Si8 1.707390 1_655
O59 Ti1 1.861028 1_555
O60 S6 1.462219 1_555
O60 Sc6 2.337718 1_555
O61 Si4 1.619404 1_455
O61 Sc6 2.046379 1_555
O62 S5 1.478527 1_565
O62 Sc6 2.174435 1_555
O63 S4 1.497361 1_565
O63 Sc7 2.154683 1_555
O64 Si3 1.646091 1_555
O64 Sc7 2.081801 1_555
O65 S3 1.467366 1_455
O65 Sc7 2.276947 1_555
O66 S0 1.508425 1_565
O66 Sc8 2.262600 1_555
O67 S1 1.479703 1_555
O67 Sc8 2.325618 1_555
O68 Si0 1.646988 1_555
O68 Sc8 2.068825 1_555
O69 Si1 1.660154 1_555
O69 Ti2 1.936420 1_555
O70 S2 1.474531 1_555
O70 Ti2 2.321603 1_555
O71 Si2 1.704594 1_565
O71 Ti2 1.872345 1_555
