# generated using pymatgen
data_Na6CaTa5Si6(PO12)3
_symmetry_space_group_name_H-M   'P 1'
_cell_length_a   9.00570448
_cell_length_b   9.00570417
_cell_length_c   22.84868775
_cell_angle_alpha   89.92471454
_cell_angle_beta   90.07528545
_cell_angle_gamma   120.05676677
_symmetry_Int_Tables_number   1
_chemical_formula_structural   Na6CaTa5Si6(PO12)3
_chemical_formula_sum   'Na12 Ca2 Ta10 Si12 P6 O72'
_cell_volume   1603.90283042
_cell_formula_units_Z   2
loop_
 _symmetry_equiv_pos_site_id
 _symmetry_equiv_pos_as_xyz
  1  'x, y, z'
loop_
 _atom_site_type_symbol
 _atom_site_label
 _atom_site_symmetry_multiplicity
 _atom_site_fract_x
 _atom_site_fract_y
 _atom_site_fract_z
 _atom_site_occupancy
  Na  Na0  1  0.37611838  0.36838201  0.24322533  1
  Na  Na1  1  0.98611668  0.61806597  0.24455313  1
  Na  Na2  1  0.63161799  0.62388162  0.74322533  1
  Na  Na3  1  0.38193403  0.01388332  0.74455313  1
  Na  Na4  1  0.65869379  0.97423083  0.58518414  1
  Na  Na5  1  0.02576917  0.34130621  0.08518414  1
  Na  Na6  1  0.00893868  0.99878070  0.49910185  1
  Na  Na7  1  0.00121930  0.99106132  0.99910185  1
  Na  Na8  1  0.67697765  0.32828513  0.83233097  1
  Na  Na9  1  0.67171487  0.32302235  0.33233097  1
  Na  Na10  1  0.34653445  0.67931152  0.16345902  1
  Na  Na11  1  0.32068848  0.65346555  0.66345902  1
  Ca  Ca0  1  0.67238684  0.33318881  0.68354513  1
  Ca  Ca1  1  0.66681119  0.32761316  0.18354513  1
  Ta  Ta0  1  0.99705340  0.00305314  0.35852068  1
  Ta  Ta1  1  0.99694686  0.00294660  0.85852068  1
  Ta  Ta2  1  0.99920099  0.99773767  0.64393635  1
  Ta  Ta3  1  0.00226233  0.00079901  0.14393635  1
  Ta  Ta4  1  0.66379263  0.33774148  0.97858269  1
  Ta  Ta5  1  0.66225852  0.33620737  0.47858269  1
  Ta  Ta6  1  0.33342380  0.66731972  0.01715577  1
  Ta  Ta7  1  0.33268028  0.66657620  0.51715577  1
  Ta  Ta8  1  0.33334380  0.66656869  0.31532531  1
  Ta  Ta9  1  0.33343131  0.66665620  0.81532531  1
  Si  Si0  1  0.00131935  0.28899446  0.25192062  1
  Si  Si1  1  0.71100554  0.99868065  0.75192062  1
  Si  Si2  1  0.37122486  0.03772823  0.58362595  1
  Si  Si3  1  0.66245241  0.62412411  0.58459694  1
  Si  Si4  1  0.96227177  0.62877514  0.08362595  1
  Si  Si5  1  0.37587589  0.33754759  0.08459694  1
  Si  Si6  1  0.62166604  0.66463451  0.91635636  1
  Si  Si7  1  0.04111213  0.37880073  0.91686623  1
  Si  Si8  1  0.33594043  0.95824462  0.91607281  1
  Si  Si9  1  0.62119927  0.95888787  0.41686623  1
  Si  Si10  1  0.33536549  0.37833396  0.41635636  1
  Si  Si11  1  0.04175538  0.66405957  0.41607281  1
  P  P0  1  0.27844672  0.99306372  0.25267785  1
  P  P1  1  0.71298121  0.72311664  0.25202349  1
  P  P2  1  0.27688336  0.28701879  0.75202349  1
  P  P3  1  0.00693628  0.72155328  0.75267785  1
  P  P4  1  0.96376182  0.33697288  0.58199268  1
  P  P5  1  0.66302712  0.03623818  0.08199268  1
  O  O0  1  0.18107611  0.00651505  0.30565290  1
  O  O1  1  0.82690174  0.81440336  0.30551129  1
  O  O2  1  0.99292881  0.16762352  0.30663701  1
  O  O3  1  0.18559664  0.17309826  0.80551129  1
  O  O4  1  0.99348495  0.81892389  0.80565290  1
  O  O5  1  0.83237648  0.00707119  0.80663701  1
  O  O6  1  0.80417996  0.97014062  0.69278684  1
  O  O7  1  0.16856956  0.19663044  0.69622800  1
  O  O8  1  0.03350713  0.83500132  0.69635395  1
  O  O9  1  0.80336956  0.83143044  0.19622800  1
  O  O10  1  0.02985938  0.19582004  0.19278684  1
  O  O11  1  0.16499868  0.96649287  0.19635395  1
  O  O12  1  0.90335964  0.37314712  0.63791022  1
  O  O13  1  0.47793166  0.08738431  0.64323872  1
  O  O14  1  0.62556294  0.53358483  0.64646287  1
  O  O15  1  0.91261569  0.52206834  0.14323872  1
  O  O16  1  0.62685288  0.09664036  0.13791022  1
  O  O17  1  0.46641517  0.37443706  0.14646287  1
  O  O18  1  0.47321240  0.30487568  0.02857973  1
  O  O19  1  0.83314033  0.52434560  0.02793910  1
  O  O20  1  0.70152923  0.15984735  0.02897307  1
  O  O21  1  0.47565440  0.16685967  0.52793910  1
  O  O22  1  0.69512432  0.52678760  0.52857973  1
  O  O23  1  0.84015265  0.29847077  0.52897307  1
  O  O24  1  0.52857569  0.69464660  0.97150245  1
  O  O25  1  0.16172830  0.46728080  0.97373594  1
  O  O26  1  0.30547213  0.83276324  0.97107483  1
  O  O27  1  0.53271920  0.83827170  0.47373594  1
  O  O28  1  0.30535340  0.47142431  0.47150245  1
  O  O29  1  0.16723676  0.69452787  0.47107483  1
  O  O30  1  0.13652645  0.63798979  0.35747501  1
  O  O31  1  0.49866257  0.86025331  0.35977237  1
  O  O32  1  0.36243474  0.49762750  0.35767182  1
  O  O33  1  0.13974669  0.50133743  0.85977237  1
  O  O34  1  0.36201021  0.86347355  0.85747501  1
  O  O35  1  0.50237250  0.63756526  0.85767182  1
  O  O36  1  0.02256156  0.83325499  0.40674085  1
  O  O37  1  0.80943210  0.97419243  0.40820700  1
  O  O38  1  0.16743480  0.18720531  0.40826684  1
  O  O39  1  0.02580757  0.19056790  0.90820700  1
  O  O40  1  0.16674501  0.97743844  0.90674085  1
  O  O41  1  0.81279469  0.83256520  0.90826684  1
  O  O42  1  0.97507876  0.16640768  0.58914269  1
  O  O43  1  0.18149518  0.02352814  0.59068426  1
  O  O44  1  0.83659846  0.82381922  0.58973213  1
  O  O45  1  0.97647186  0.81850482  0.09068426  1
  O  O46  1  0.83359232  0.02492124  0.08914269  1
  O  O47  1  0.17618078  0.16340154  0.08973213  1
  O  O48  1  0.67659951  0.15496178  0.75524652  1
  O  O49  1  0.45643749  0.30897630  0.75066442  1
  O  O50  1  0.84454180  0.54760346  0.75081516  1
  O  O51  1  0.69102370  0.54356251  0.25066442  1
  O  O52  1  0.84503822  0.32340049  0.25524652  1
  O  O53  1  0.45239654  0.15545820  0.25081516  1
  O  O54  1  0.64009390  0.49418097  0.92435596  1
  O  O55  1  0.85187677  0.35598849  0.92556127  1
  O  O56  1  0.50659316  0.14519488  0.92548861  1
  O  O57  1  0.64401151  0.14812323  0.42556127  1
  O  O58  1  0.50581903  0.35990610  0.42435597  1
  O  O59  1  0.85480512  0.49340684  0.42548861  1
  O  O60  1  0.33761658  0.49522186  0.07062867  1
  O  O61  1  0.15393469  0.65561958  0.06915694  1
  O  O62  1  0.51203169  0.85315810  0.06976656  1
  O  O63  1  0.34438042  0.84606531  0.56915694  1
  O  O64  1  0.50477814  0.66238342  0.57062867  1
  O  O65  1  0.14684190  0.48796831  0.56976656  1
  O  O66  1  0.28962900  0.82540309  0.25665263  1
  O  O67  1  0.53156420  0.70577714  0.25697571  1
  O  O68  1  0.18579144  0.47926315  0.25668734  1
  O  O69  1  0.29422286  0.46843580  0.75697571  1
  O  O70  1  0.17459691  0.71037100  0.75665263  1
  O  O71  1  0.52073685  0.81420856  0.75668734  1
loop_
_geom_bond_atom_site_label_1
_geom_bond_atom_site_label_2
_geom_bond_distance
_geom_bond_site_symmetry_2
Na0 O53 2.344605 1_555
Na0 O17 2.347827 1_555
Na0 O68 2.397149 1_555
Na0 O51 2.465376 1_555
Na0 O67 2.651656 1_555
Na0 O32 2.891446 1_555
Na0 O10 2.933939 1_555
Na1 O52 2.310340 1_555
Na1 O51 2.397224 1_555
Na1 O66 2.433302 1_655
Na1 O15 2.443833 1_555
Na1 O68 2.668784 1_655
Na1 O30 2.876206 1_655
Na1 O11 2.930186 1_655
Na2 O50 2.344605 1_555
Na2 O14 2.347827 1_555
Na2 O71 2.397149 1_555
Na2 O49 2.465376 1_555
Na2 O69 2.651656 1_555
Na2 O35 2.891446 1_555
Na2 O6 2.933939 1_555
Na3 O48 2.310340 1_555
Na3 O49 2.397224 1_555
Na3 O70 2.433302 1_545
Na3 O13 2.443833 1_555
Na3 O71 2.668784 1_545
Na3 O34 2.876206 1_545
Na3 O8 2.930187 1_545
Na4 O64 2.453743 1_555
Na4 O42 2.486338 1_565
Na4 O63 2.490849 1_555
Na4 O44 2.566258 1_555
Na4 O13 2.668127 1_565
Na4 O6 2.793252 1_555
Na4 O27 2.807092 1_555
Na4 O23 2.839401 1_565
Na5 O60 2.453743 1_555
Na5 O46 2.486338 1_455
Na5 O61 2.490849 1_555
Na5 O47 2.566258 1_555
Na5 O15 2.668127 1_455
Na5 O10 2.793252 1_555
Na5 O25 2.807092 1_554
Na5 O20 2.839401 1_455
Na6 O43 2.547357 1_565
Na6 O44 2.594197 1_455
Na6 O38 2.607039 1_565
Na6 O36 2.623507 1_555
Na6 O42 2.659952 1_465
Na6 O37 2.680156 1_455
Na7 O45 2.547357 1_456
Na7 O47 2.594197 1_566
Na7 O41 2.607039 1_455
Na7 O40 2.623507 1_555
Na7 O46 2.659952 1_466
Na7 O39 2.680156 1_565
Na8 O48 2.353806 1_555
Na8 O50 2.580575 1_555
Na8 O55 2.584531 1_555
Na8 O56 2.658723 1_555
Na8 O49 2.664943 1_555
Na8 O54 2.696429 1_555
Na9 O52 2.353806 1_555
Na9 O53 2.580575 1_555
Na9 O57 2.584531 1_555
Na9 O59 2.658723 1_555
Na9 O51 2.664943 1_555
Na9 O58 2.696430 1_555
Na10 O62 2.630105 1_555
Na10 O67 2.644469 1_555
Na10 O60 2.670060 1_555
Na10 O66 2.685768 1_555
Na10 O68 2.695242 1_555
Na10 O61 2.705054 1_555
Na11 O65 2.630105 1_555
Na11 O69 2.644469 1_555
Na11 O64 2.670060 1_555
Na11 O70 2.685768 1_555
Na11 O71 2.695242 1_555
Na11 O63 2.705054 1_555
Ca0 O12 2.190508 1_555
Ca0 O14 2.215859 1_555
Ca0 O13 2.221037 1_555
Ca0 O48 2.305548 1_555
Ca0 O50 2.344657 1_555
Ca0 O49 2.400784 1_555
Ca1 O16 2.190508 1_555
Ca1 O17 2.215859 1_555
Ca1 O15 2.221037 1_555
Ca1 O52 2.305548 1_555
Ca1 O53 2.344657 1_555
Ca1 O51 2.400784 1_555
O0 P0 1.535672 1_545
O0 Ta0 2.039616 1_455
O1 P1 1.541577 1_555
O1 Ta0 2.023396 1_565
O2 Si0 1.636259 1_655
O2 Ta0 1.911460 1_555
O3 P2 1.541577 1_555
O3 Ta1 2.023396 1_455
O4 P3 1.535672 1_655
O4 Ta1 2.039616 1_565
O5 Si1 1.636259 1_545
O5 Ta1 1.911460 1_555
O6 Si1 1.677985 1_555
O6 Ta2 1.989818 1_555
O7 P2 1.563147 1_555
O7 Ta2 2.055826 1_445
O8 P3 1.584212 1_555
O8 Ta2 2.031182 1_455
O9 P1 1.563147 1_555
O9 Ta3 2.055826 1_665
O10 Si0 1.677985 1_555
O10 Ta3 1.989818 1_555
O11 P0 1.584212 1_555
O11 Ta3 2.031182 1_565
O12 P4 1.488231 1_555
O13 Si2 1.595736 1_555
O14 Si3 1.581201 1_555
O15 Si4 1.595736 1_555
O16 P5 1.488231 1_555
O17 Si5 1.581201 1_555
O18 Si5 1.659960 1_555
O18 Ta4 1.957990 1_554
O19 Si4 1.661168 1_555
O19 Ta4 1.963393 1_554
O20 P5 1.561373 1_555
O20 Ta4 2.132422 1_554
O21 Si2 1.661168 1_555
O21 Ta5 1.963393 1_555
O22 Si3 1.659960 1_555
O22 Ta5 1.957989 1_555
O23 P4 1.561373 1_555
O23 Ta5 2.132422 1_555
O24 Si6 1.610639 1_555
O24 Ta6 1.951483 1_556
O25 Si7 1.623348 1_555
O25 Ta6 1.957246 1_556
O26 Si8 1.618092 1_555
O26 Ta6 1.939775 1_556
O27 Si9 1.623348 1_555
O27 Ta7 1.957246 1_555
O28 Si10 1.610639 1_555
O28 Ta7 1.951483 1_555
O29 Si11 1.618092 1_555
O29 Ta7 1.939775 1_555
O30 Si11 1.667545 1_555
O30 Ta8 1.918927 1_555
O31 Si9 1.651037 1_555
O31 Ta8 1.920866 1_555
O32 Si10 1.657179 1_555
O32 Ta8 1.927256 1_555
O33 Si7 1.651037 1_555
O33 Ta9 1.920866 1_555
O34 Si8 1.667545 1_555
O34 Ta9 1.918927 1_555
O35 Si6 1.657179 1_555
O35 Ta9 1.927256 1_555
O36 Si11 1.630938 1_555
O36 Ta0 1.987902 1_465
O37 Si9 1.642713 1_555
O37 Ta0 1.943114 1_565
O38 Si10 1.636016 1_555
O38 Ta0 1.961634 1_455
O39 Si7 1.642713 1_555
O39 Ta1 1.943114 1_455
O40 Si8 1.630938 1_555
O40 Ta1 1.987902 1_465
O41 Si6 1.636016 1_555
O41 Ta1 1.961634 1_565
O42 P4 1.597708 1_555
O42 Ta2 2.060771 1_545
O43 Si2 1.656392 1_555
O43 Ta2 1.962675 1_445
O44 Si3 1.697756 1_555
O44 Ta2 1.958112 1_555
O45 Si4 1.656392 1_555
O45 Ta3 1.962675 1_665
O46 P5 1.597708 1_555
O46 Ta3 2.060771 1_655
O47 Si5 1.697756 1_555
O47 Ta3 1.958112 1_555
O48 Si1 1.587388 1_545
O49 P2 1.527942 1_555
O50 P3 1.516493 1_655
O51 P1 1.527942 1_555
O52 Si0 1.587388 1_655
O53 P0 1.516493 1_545
O54 Si6 1.634537 1_555
O54 Ta4 1.965060 1_555
O55 Si7 1.623588 1_655
O55 Ta4 2.022319 1_555
O56 Si8 1.628170 1_545
O56 Ta4 2.006154 1_555
O57 Si9 1.623587 1_545
O57 Ta5 2.022319 1_555
O58 Si10 1.634537 1_555
O58 Ta5 1.965060 1_555
O59 Si11 1.628170 1_655
O59 Ta5 2.006154 1_555
O60 Si5 1.650908 1_555
O60 Ta6 1.987406 1_555
O61 Si4 1.652366 1_455
O61 Ta6 1.967171 1_555
O62 P5 1.549166 1_565
O62 Ta6 2.033917 1_555
O63 Si2 1.652366 1_565
O63 Ta7 1.967171 1_555
O64 Si3 1.650908 1_555
O64 Ta7 1.987406 1_555
O65 P4 1.549166 1_455
O65 Ta7 2.033917 1_555
O66 P0 1.565287 1_555
O66 Ta8 2.134464 1_555
O67 P1 1.565672 1_555
O67 Ta8 2.112434 1_555
O68 Si0 1.690078 1_555
O68 Ta8 2.040126 1_555
O69 P2 1.565672 1_555
O69 Ta9 2.112434 1_555
O70 P3 1.565287 1_555
O70 Ta9 2.134464 1_555
O71 Si1 1.690078 1_555
O71 Ta9 2.040126 1_555
