# generated using pymatgen
data_CeFeSi
_symmetry_space_group_name_H-M   'P 1'
_cell_length_a   4.03397338
_cell_length_b   4.03397338
_cell_length_c   6.73828618
_cell_angle_alpha   90.00000000
_cell_angle_beta   90.00000000
_cell_angle_gamma   90.00000000
_symmetry_Int_Tables_number   1
_chemical_formula_structural   CeFeSi
_chemical_formula_sum   'Ce2 Fe2 Si2'
_cell_volume   109.65173500
_cell_formula_units_Z   2
loop_
 _symmetry_equiv_pos_site_id
 _symmetry_equiv_pos_as_xyz
  1  'x, y, z'
loop_
 _atom_site_type_symbol
 _atom_site_label
 _atom_site_symmetry_multiplicity
 _atom_site_fract_x
 _atom_site_fract_y
 _atom_site_fract_z
 _atom_site_occupancy
  Ce  Ce0  1  0.75000000  0.75000000  0.31011843  1
  Ce  Ce1  1  0.25000000  0.25000000  0.69008895  1
  Fe  Fe0  1  0.75000000  0.25000000  -0.00007670  1
  Fe  Fe1  1  0.25000000  0.75000000  -0.00007670  1
  Si  Si0  1  0.75000000  0.75000000  0.83044454  1
  Si  Si1  1  0.25000000  0.25000000  0.16950249  1
loop_
_geom_bond_atom_site_label_1
_geom_bond_atom_site_label_2
_geom_bond_distance
_geom_bond_site_symmetry_2
Ce0 Fe0 2.904669 1_555
Ce0 Fe0 2.904669 1_565
Ce0 Fe1 2.904669 1_555
Ce0 Fe1 2.904669 1_655
Ce0 Si1 3.005702 1_555
Ce0 Si1 3.005702 1_655
Ce0 Si1 3.005702 1_565
Ce0 Si1 3.005702 1_665
Ce0 Si0 3.506106 1_555
Ce1 Fe0 2.902920 1_456
Ce1 Fe1 2.902920 1_546
Ce1 Fe0 2.902920 1_556
Ce1 Fe1 2.902920 1_556
Ce1 Si0 3.005150 1_545
Ce1 Si0 3.005150 1_555
Ce1 Si0 3.005150 1_445
Ce1 Si0 3.005150 1_455
Ce1 Si1 3.507861 1_555
Fe0 Si0 2.317842 1_554
Fe0 Si0 2.317842 1_544
Fe0 Si1 2.318175 1_555
Fe0 Si1 2.318175 1_655
Fe1 Si0 2.317842 1_554
Fe1 Si0 2.317842 1_454
Fe1 Si1 2.318175 1_555
Fe1 Si1 2.318175 1_565
