# generated using pymatgen
data_Na10Ca4Zr4Si5S7O48
_symmetry_space_group_name_H-M   'P 1'
_cell_length_a   18.60127608
_cell_length_b   9.32220202
_cell_length_c   23.29610854
_cell_angle_alpha   89.86989827
_cell_angle_beta   90.55424601
_cell_angle_gamma   120.04924981
_symmetry_Int_Tables_number   1
_chemical_formula_structural   Na10Ca4Zr4Si5S7O48
_chemical_formula_sum   'Na30 Ca12 Zr12 Si15 S21 O144'
_cell_volume   3496.53016918
_cell_formula_units_Z   3
loop_
 _symmetry_equiv_pos_site_id
 _symmetry_equiv_pos_as_xyz
  1  'x, y, z'
loop_
 _atom_site_type_symbol
 _atom_site_label
 _atom_site_symmetry_multiplicity
 _atom_site_fract_x
 _atom_site_fract_y
 _atom_site_fract_z
 _atom_site_occupancy
  Na  Na0  1  0.33095776  0.03207111  0.25177922  1
  Na  Na1  1  0.67314548  0.33743911  0.25469603  1
  Na  Na2  1  0.99740045  0.63577686  0.23898123  1
  Na  Na3  1  0.49821938  0.62587864  0.23741709  1
  Na  Na4  1  0.32620145  0.62193207  0.75471750  1
  Na  Na5  1  0.82621874  0.62182586  0.75315753  1
  Na  Na6  1  0.99689861  0.36886084  0.73775216  1
  Na  Na7  1  0.49718936  0.36929950  0.73783010  1
  Na  Na8  1  0.17283515  0.01107983  0.75367020  1
  Na  Na9  1  0.67401115  0.01177415  0.75271818  1
  Na  Na10  1  0.33414524  0.96978930  0.57136499  1
  Na  Na11  1  0.83431825  0.97085203  0.57049996  1
  Na  Na12  1  0.33502864  0.69908519  0.07127472  1
  Na  Na13  1  0.83250714  0.69592554  0.07043078  1
  Na  Na14  1  0.48358354  0.68151665  0.90794721  1
  Na  Na15  1  0.98376139  0.68186526  0.90684583  1
  Na  Na16  1  0.48717745  0.28948637  0.40528164  1
  Na  Na17  1  0.16466793  0.02728162  0.40537219  1
  Na  Na18  1  0.98364944  0.00608822  0.49519490  1
  Na  Na19  1  0.49636708  0.99793924  0.49517544  1
  Na  Na20  1  0.99274404  0.99634981  0.99275795  1
  Na  Na21  1  0.49164379  0.98962406  0.99620026  1
  Na  Na22  1  0.32587236  0.34486513  0.82886087  1
  Na  Na23  1  0.82643557  0.34520067  0.82762709  1
  Na  Na24  1  0.32786022  0.32341671  0.32185267  1
  Na  Na25  1  0.81701590  0.28091332  0.33265596  1
  Na  Na26  1  0.15063669  0.66138666  0.15788555  1
  Na  Na27  1  0.64799771  0.67122193  0.16139067  1
  Na  Na28  1  0.14366048  0.62775897  0.66014161  1
  Na  Na29  1  0.64660425  0.63117870  0.65841865  1
  Ca  Ca0  1  0.99571295  0.00376196  0.35172546  1
  Ca  Ca1  1  0.50004462  0.99941320  0.35180681  1
  Ca  Ca2  1  0.99909887  0.00016041  0.85133695  1
  Ca  Ca3  1  0.49912933  0.00007631  0.85186143  1
  Ca  Ca4  1  0.33774558  0.34297580  0.68081295  1
  Ca  Ca5  1  0.83778765  0.34315098  0.68007603  1
  Ca  Ca6  1  0.33407734  0.33105903  0.18294467  1
  Ca  Ca7  1  0.83450702  0.32260079  0.18238818  1
  Ca  Ca8  1  0.16558747  0.66920901  0.01794461  1
  Ca  Ca9  1  0.66437515  0.66851951  0.01868040  1
  Ca  Ca10  1  0.16215237  0.65284114  0.51819912  1
  Ca  Ca11  1  0.66627240  0.66238823  0.51746361  1
  Zr  Zr0  1  0.00923966  0.01109450  0.64883475  1
  Zr  Zr1  1  0.51050959  0.01282775  0.64902765  1
  Zr  Zr2  1  0.00693267  0.99515207  0.14789477  1
  Zr  Zr3  1  0.50932261  0.00722634  0.14965459  1
  Zr  Zr4  1  0.33466010  0.34917693  0.98280164  1
  Zr  Zr5  1  0.83493749  0.34828845  0.98224519  1
  Zr  Zr6  1  0.33917697  0.33056430  0.48303994  1
  Zr  Zr7  1  0.83821658  0.32149595  0.48119957  1
  Zr  Zr8  1  0.17054546  0.67823895  0.31749250  1
  Zr  Zr9  1  0.67211454  0.68686248  0.31384869  1
  Zr  Zr10  1  0.16834642  0.65650890  0.81596574  1
  Zr  Zr11  1  0.66842934  0.65693954  0.81607002  1
  Si  Si0  1  0.14870655  0.99510935  0.25669389  1
  Si  Si1  1  0.65041664  0.00384820  0.25300892  1
  Si  Si2  1  0.50330826  0.30192246  0.25384351  1
  Si  Si3  1  0.14910239  0.29825300  0.75238506  1
  Si  Si4  1  0.64947737  0.29879339  0.75266891  1
  Si  Si5  1  0.00273990  0.70535441  0.75392739  1
  Si  Si6  1  0.50295644  0.70591752  0.75395971  1
  Si  Si7  1  0.48543296  0.32459958  0.58773349  1
  Si  Si8  1  0.98394335  0.32395943  0.58865925  1
  Si  Si9  1  0.48370407  0.64343721  0.08803855  1
  Si  Si10  1  0.98345925  0.63469148  0.08862873  1
  Si  Si11  1  0.31708369  0.66781526  0.92245162  1
  Si  Si12  1  0.81706148  0.66863083  0.92264334  1
  Si  Si13  1  0.31655786  0.96796355  0.42376589  1
  Si  Si14  1  0.81666282  0.96525281  0.42302783  1
  S  S0  1  0.34905808  0.70829953  0.24949313  1
  S  S1  1  0.85143795  0.70850308  0.24800160  1
  S  S2  1  0.00528104  0.30149450  0.24961616  1
  S  S3  1  0.34939569  0.99109903  0.74855277  1
  S  S4  1  0.84934102  0.99140225  0.74883715  1
  S  S5  1  0.18445634  0.04125148  0.58278708  1
  S  S6  1  0.68472387  0.04136775  0.58386243  1
  S  S7  1  0.33719927  0.63642993  0.58369210  1
  S  S8  1  0.83720010  0.63688453  0.58398123  1
  S  S9  1  0.33681669  0.03906109  0.08404550  1
  S  S10  1  0.83826431  0.03935093  0.08274133  1
  S  S11  1  0.18358714  0.32593923  0.08371456  1
  S  S12  1  0.68498160  0.32735710  0.08392146  1
  S  S13  1  0.01580226  0.37400557  0.91711054  1
  S  S14  1  0.51568918  0.37389551  0.91685296  1
  S  S15  1  0.17164126  0.96749820  0.91576385  1
  S  S16  1  0.67208207  0.96797458  0.91580329  1
  S  S17  1  0.17124294  0.37360682  0.41650777  1
  S  S18  1  0.67206992  0.37593314  0.41569392  1
  S  S19  1  0.01696862  0.65871575  0.41558893  1
  S  S20  1  0.51671537  0.65824400  0.41651010  1
  O  O0  1  0.10740562  0.00606884  0.31478431  1
  O  O1  1  0.60447010  0.02251107  0.30683216  1
  O  O2  1  0.39977716  0.78415539  0.30050296  1
  O  O3  1  0.90358836  0.78726777  0.29803133  1
  O  O4  1  0.48361995  0.19323634  0.31132976  1
  O  O5  1  0.99501675  0.20636473  0.30126791  1
  O  O6  1  0.10580295  0.18521990  0.80626818  1
  O  O7  1  0.60540889  0.18475937  0.80613452  1
  O  O8  1  0.48378955  0.77474365  0.81145176  1
  O  O9  1  0.98441074  0.77501030  0.81158640  1
  O  O10  1  0.40142635  0.02309048  0.79918441  1
  O  O11  1  0.90121290  0.02336954  0.79960953  1
  O  O12  1  0.38882130  0.96598792  0.69637293  1
  O  O13  1  0.88899012  0.96616145  0.69685281  1
  O  O14  1  0.08733482  0.20841790  0.69411522  1
  O  O15  1  0.58773574  0.20986398  0.69408579  1
  O  O16  1  0.01531415  0.83565199  0.69890689  1
  O  O17  1  0.51523952  0.83599472  0.69881983  1
  O  O18  1  0.38756717  0.81419133  0.19725307  1
  O  O19  1  0.89078115  0.81190190  0.19504502  1
  O  O20  1  0.01131973  0.21339641  0.19754760  1
  O  O21  1  0.51412244  0.19359793  0.19909153  1
  O  O22  1  0.08303520  0.96925118  0.20024321  1
  O  O23  1  0.58820174  0.96905211  0.19420007  1
  O  O24  1  0.44155533  0.33072472  0.64574561  1
  O  O25  1  0.94285170  0.33080361  0.64794882  1
  O  O26  1  0.23119575  0.11850995  0.63558694  1
  O  O27  1  0.72892902  0.11448647  0.63796313  1
  O  O28  1  0.32692277  0.54720244  0.63758831  1
  O  O29  1  0.82776217  0.54888603  0.63827663  1
  O  O30  1  0.43958952  0.54880421  0.14591407  1
  O  O31  1  0.94100554  0.54513125  0.14747669  1
  O  O32  1  0.32741778  0.10936297  0.13772009  1
  O  O33  1  0.82721612  0.11192739  0.13471819  1
  O  O34  1  0.23157465  0.34401577  0.13539002  1
  O  O35  1  0.73122088  0.34465988  0.13709394  1
  O  O36  1  0.22467146  0.30147839  0.03195591  1
  O  O37  1  0.72957043  0.30630213  0.03351724  1
  O  O38  1  0.41739632  0.53133830  0.03105191  1
  O  O39  1  0.91762018  0.53029314  0.03199381  1
  O  O40  1  0.34038238  0.14254711  0.03357811  1
  O  O41  1  0.84445893  0.14121417  0.03116042  1
  O  O42  1  0.22806969  0.14965133  0.53146312  1
  O  O43  1  0.72952044  0.15144960  0.53401452  1
  O  O44  1  0.34157726  0.53848037  0.53375628  1
  O  O45  1  0.84192740  0.54196686  0.53415527  1
  O  O46  1  0.41927853  0.30602965  0.53079176  1
  O  O47  1  0.91682723  0.30418946  0.53345239  1
  O  O48  1  0.27384345  0.67176764  0.98071348  1
  O  O49  1  0.77380673  0.67267063  0.98082381  1
  O  O50  1  0.06542185  0.45559414  0.96796976  1
  O  O51  1  0.56568032  0.45594480  0.96769304  1
  O  O52  1  0.15987701  0.86106997  0.96510031  1
  O  O53  1  0.66058562  0.86148164  0.96508447  1
  O  O54  1  0.27016658  0.87200651  0.48029907  1
  O  O55  1  0.77660455  0.87937153  0.48277218  1
  O  O56  1  0.16078198  0.44850691  0.46793190  1
  O  O57  1  0.66020979  0.45904319  0.46472966  1
  O  O58  1  0.06829040  0.67962778  0.46576026  1
  O  O59  1  0.56568923  0.67581047  0.46770686  1
  O  O60  1  0.05753871  0.63373876  0.36265102  1
  O  O61  1  0.55630067  0.63247370  0.36384168  1
  O  O62  1  0.25367339  0.86601578  0.36486537  1
  O  O63  1  0.75300583  0.85791979  0.36701336  1
  O  O64  1  0.17723455  0.47611186  0.36445854  1
  O  O65  1  0.67997237  0.47163398  0.36135907  1
  O  O66  1  0.05701577  0.48031689  0.86424051  1
  O  O67  1  0.55703985  0.48083266  0.86402824  1
  O  O68  1  0.17959701  0.88599074  0.86173767  1
  O  O69  1  0.68078025  0.88787424  0.86174345  1
  O  O70  1  0.25747020  0.65016790  0.86377703  1
  O  O71  1  0.75754385  0.65073952  0.86404002  1
  O  O72  1  0.00991883  0.80791554  0.40897293  1
  O  O73  1  0.50094749  0.79518908  0.41080996  1
  O  O74  1  0.41109237  0.00914173  0.41918681  1
  O  O75  1  0.90913914  0.99738279  0.41545899  1
  O  O76  1  0.10167183  0.20203853  0.41106154  1
  O  O77  1  0.59804266  0.20857289  0.41230452  1
  O  O78  1  0.00170848  0.20714191  0.91104825  1
  O  O79  1  0.50185846  0.20761234  0.91064744  1
  O  O80  1  0.09798806  0.98717700  0.91184200  1
  O  O81  1  0.59850787  0.98740944  0.91178675  1
  O  O82  1  0.41202227  0.81777845  0.91890121  1
  O  O83  1  0.91219761  0.81828577  0.91900890  1
  O  O84  1  0.48050844  0.13763588  0.58633733  1
  O  O85  1  0.98027907  0.13826705  0.58690820  1
  O  O86  1  0.10008403  0.02496825  0.58461602  1
  O  O87  1  0.59982227  0.02499323  0.58494941  1
  O  O88  1  0.41598897  0.80147828  0.58496097  1
  O  O89  1  0.91574538  0.80408000  0.58597586  1
  O  O90  1  0.48015161  0.82251390  0.08686812  1
  O  O91  1  0.98183663  0.81833418  0.08934171  1
  O  O92  1  0.41540997  0.02999685  0.08531954  1
  O  O93  1  0.91749955  0.03068853  0.08684810  1
  O  O94  1  0.09828480  0.17347431  0.08748441  1
  O  O95  1  0.60055979  0.17537988  0.08526324  1
  O  O96  1  0.33135914  0.12778900  0.74160732  1
  O  O97  1  0.83128555  0.12798074  0.74191515  1
  O  O98  1  0.24218059  0.32778369  0.74512459  1
  O  O99  1  0.74241547  0.32791606  0.74532549  1
  O  O100  1  0.42638619  0.51690798  0.74615084  1
  O  O101  1  0.92590151  0.51661081  0.74648360  1
  O  O102  1  0.33529330  0.54008271  0.24281042  1
  O  O103  1  0.83988633  0.54012116  0.24201716  1
  O  O104  1  0.42662203  0.33777142  0.24615763  1
  O  O105  1  0.93513861  0.33392348  0.24484121  1
  O  O106  1  0.24328111  0.13869254  0.24771560  1
  O  O107  1  0.73990745  0.16959095  0.24653284  1
  O  O108  1  0.32283203  0.48814857  0.92205159  1
  O  O109  1  0.82347000  0.48939301  0.92258564  1
  O  O110  1  0.43292645  0.36971635  0.92036388  1
  O  O111  1  0.93308979  0.37004429  0.92044684  1
  O  O112  1  0.24925190  0.13247910  0.92166751  1
  O  O113  1  0.74961112  0.13362696  0.92214361  1
  O  O114  1  0.31612918  0.15295747  0.42323030  1
  O  O115  1  0.81997219  0.15370280  0.42274332  1
  O  O116  1  0.25033177  0.36522666  0.41999996  1
  O  O117  1  0.74934195  0.36479974  0.42225531  1
  O  O118  1  0.43305726  0.49574972  0.42078176  1
  O  O119  1  0.93246697  0.50777523  0.42027191  1
  O  O120  1  0.17534868  0.47403347  0.07724307  1
  O  O121  1  0.67806427  0.47674878  0.07715872  1
  O  O122  1  0.07521898  0.66602756  0.08059852  1
  O  O123  1  0.57500616  0.66959969  0.08036584  1
  O  O124  1  0.26636060  0.86663763  0.07929465  1
  O  O125  1  0.76869911  0.86678558  0.07788824  1
  O  O126  1  0.17738741  0.87784757  0.57673264  1
  O  O127  1  0.67662462  0.87694974  0.57781350  1
  O  O128  1  0.26712181  0.66735703  0.57765008  1
  O  O129  1  0.76669078  0.66788826  0.57922780  1
  O  O130  1  0.07485326  0.48076206  0.58101893  1
  O  O131  1  0.57603459  0.48135812  0.57981354  1
  O  O132  1  0.14777544  0.80898342  0.25746289  1
  O  O133  1  0.65276687  0.82487426  0.25602909  1
  O  O134  1  0.26563561  0.70113526  0.25576200  1
  O  O135  1  0.76665828  0.68999662  0.25339515  1
  O  O136  1  0.08387472  0.46971957  0.25330100  1
  O  O137  1  0.59334070  0.48259126  0.25794832  1
  O  O138  1  0.15396449  0.48452413  0.75672780  1
  O  O139  1  0.65424082  0.48490534  0.75694753  1
  O  O140  1  0.09287879  0.70360491  0.75837421  1
  O  O141  1  0.59308416  0.70450223  0.75851441  1
  O  O142  1  0.26683604  0.83198410  0.75477257  1
  O  O143  1  0.76687189  0.83212634  0.75493531  1
loop_
_geom_bond_atom_site_label_1
_geom_bond_atom_site_label_2
_geom_bond_distance
_geom_bond_site_symmetry_2
Na0 O106 2.297116 1_555
Na0 O104 2.495829 1_555
Na0 O134 2.692450 1_545
Na0 O32 2.760307 1_555
Na0 O4 2.811810 1_555
Na1 O107 2.445132 1_555
Na1 O137 2.460630 1_555
Na1 O103 2.724573 1_555
Na1 O65 2.757611 1_555
Na1 O1 2.825595 1_555
Na1 O135 2.846680 1_555
Na1 O21 2.861358 1_555
Na1 O35 2.942944 1_555
Na2 O31 2.331479 1_555
Na2 O105 2.452692 1_555
Na2 O132 2.464408 1_655
Na2 O103 2.602302 1_555
Na2 O136 2.752461 1_655
Na2 O22 2.841069 1_655
Na3 O30 2.329559 1_555
Na3 O104 2.334339 1_555
Na3 O133 2.555843 1_555
Na3 O102 2.723893 1_555
Na3 O137 2.737043 1_555
Na3 O23 2.950419 1_555
Na4 O98 2.390768 1_555
Na4 O100 2.511291 1_555
Na4 O142 2.686884 1_555
Na4 O138 2.792869 1_555
Na4 O28 2.819530 1_555
Na4 O8 2.849648 1_555
Na4 O70 2.926036 1_555
Na5 O99 2.385292 1_555
Na5 O101 2.500408 1_555
Na5 O143 2.689325 1_555
Na5 O29 2.766755 1_555
Na5 O139 2.790396 1_555
Na5 O9 2.876418 1_555
Na5 O71 2.964608 1_555
Na6 O25 2.262478 1_555
Na6 O101 2.347493 1_555
Na6 O138 2.591562 1_655
Na6 O140 2.750775 1_655
Na6 O97 2.760232 1_555
Na6 O14 2.942820 1_655
Na7 O24 2.321647 1_555
Na7 O100 2.342380 1_555
Na7 O139 2.591928 1_555
Na7 O141 2.754362 1_555
Na7 O96 2.764213 1_555
Na7 O15 2.937941 1_555
Na8 O140 2.484404 1_545
Na8 O98 2.570673 1_555
Na8 O96 2.599899 1_555
Na8 O6 2.785181 1_555
Na8 O68 2.800200 1_545
Na8 O16 2.832968 1_545
Na8 O26 2.950467 1_555
Na8 O142 2.961093 1_545
Na9 O141 2.484582 1_545
Na9 O99 2.565287 1_555
Na9 O97 2.575760 1_555
Na9 O7 2.806801 1_555
Na9 O69 2.815489 1_545
Na9 O17 2.841645 1_545
Na9 O27 2.858105 1_555
Na9 O143 2.947195 1_545
Na10 O54 2.370951 1_555
Na10 O84 2.387464 1_565
Na10 O128 2.450694 1_555
Na10 O126 2.599296 1_555
Na10 O88 2.694536 1_555
Na10 O46 2.875865 1_565
Na11 O55 2.259454 1_555
Na11 O85 2.385867 1_565
Na11 O129 2.458582 1_555
Na11 O127 2.614766 1_555
Na11 O89 2.680741 1_555
Na11 O47 2.827317 1_565
Na12 O48 2.340263 1_554
Na12 O90 2.369657 1_555
Na12 O124 2.471875 1_555
Na12 O120 2.647471 1_555
Na12 O92 2.689730 1_565
Na12 O38 2.846892 1_555
Na13 O49 2.306030 1_554
Na13 O125 2.423734 1_555
Na13 O91 2.452783 1_555
Na13 O121 2.565378 1_555
Na13 O93 2.727139 1_565
Na13 O39 2.859089 1_555
Na14 O82 2.269809 1_555
Na14 O8 2.407621 1_555
Na14 O81 2.569424 1_555
Na14 O110 2.584327 1_555
Na14 O108 2.629967 1_555
Na15 O83 2.274645 1_555
Na15 O9 2.379100 1_555
Na15 O80 2.563037 1_655
Na15 O111 2.587715 1_555
Na15 O109 2.627603 1_555
Na16 O74 2.288832 1_555
Na16 O4 2.355117 1_555
Na16 O77 2.529681 1_555
Na16 O118 2.605744 1_555
Na16 O114 2.808169 1_555
Na16 O61 2.949794 1_555
Na17 O0 2.318334 1_555
Na17 O76 2.441428 1_555
Na17 O114 2.481353 1_555
Na17 O72 2.565834 1_545
Na17 O116 2.747195 1_555
Na17 O62 2.901888 1_545
Na18 O75 2.283904 1_545
Na18 O85 2.485771 1_555
Na18 O89 2.695499 1_545
Na18 O76 2.837026 1_655
Na18 O86 2.931552 1_655
Na18 O72 2.937041 1_645
Na19 O74 2.402390 1_565
Na19 O84 2.588927 1_565
Na19 O88 2.695443 1_555
Na19 O77 2.737501 1_565
Na19 O87 2.753048 1_565
Na19 O73 2.761121 1_555
Na20 O83 2.329031 1_555
Na20 O78 2.678356 1_665
Na20 O93 2.716119 1_566
Na20 O91 2.740874 1_556
Na20 O80 2.762770 1_655
Na20 O94 2.852479 1_666
Na21 O82 2.363892 1_555
Na21 O90 2.567927 1_556
Na21 O92 2.656658 1_566
Na21 O79 2.782110 1_565
Na21 O95 2.798136 1_566
Na21 O81 2.817067 1_555
Na22 O98 2.438983 1_555
Na22 O108 2.567430 1_555
Na22 O100 2.614032 1_555
Na22 O112 2.799974 1_555
Na22 O110 2.832174 1_555
Na22 O96 2.909770 1_555
Na23 O99 2.415751 1_555
Na23 O101 2.577399 1_555
Na23 O109 2.606470 1_555
Na23 O113 2.828229 1_555
Na23 O111 2.850325 1_555
Na23 O97 2.881053 1_555
Na24 O106 2.381422 1_555
Na24 O104 2.513525 1_555
Na24 O102 2.682862 1_555
Na24 O114 2.792135 1_555
Na24 O116 2.844338 1_555
Na24 O118 2.915938 1_555
Na25 O107 2.371219 1_555
Na25 O115 2.421899 1_555
Na25 O117 2.756297 1_555
Na25 O105 2.872637 1_555
Na25 O119 2.938872 1_555
Na26 O122 2.285437 1_555
Na26 O132 2.714321 1_555
Na26 O136 2.736560 1_555
Na26 O124 2.753594 1_555
Na26 O120 2.761650 1_555
Na26 O134 3.004640 1_555
Na27 O123 2.310099 1_555
Na27 O133 2.608373 1_555
Na27 O137 2.724246 1_555
Na27 O125 2.849173 1_555
Na27 O121 2.915958 1_555
Na27 O135 3.003291 1_555
Na28 O130 2.263374 1_555
Na28 O138 2.667744 1_555
Na28 O140 2.710570 1_555
Na28 O126 2.853554 1_555
Na28 O128 2.887310 1_555
Na29 O131 2.270699 1_555
Na29 O139 2.705846 1_555
Na29 O141 2.762149 1_555
Na29 O127 2.794032 1_555
Na29 O129 2.796700 1_555
Ca0 O75 2.179743 1_545
Ca0 O5 2.227825 1_555
Ca0 O0 2.246633 1_655
Ca0 O3 2.254048 1_545
Ca0 O76 2.349967 1_655
Ca0 O72 2.376335 1_645
Ca1 O1 2.129950 1_565
Ca1 O4 2.187874 1_565
Ca1 O2 2.270100 1_555
Ca1 O74 2.326181 1_565
Ca1 O77 2.348238 1_565
Ca1 O73 2.352417 1_555
Ca2 O6 2.149634 1_655
Ca2 O9 2.183384 1_545
Ca2 O11 2.272703 1_555
Ca2 O83 2.294633 1_545
Ca2 O80 2.357349 1_645
Ca2 O78 2.361671 1_655
Ca3 O7 2.151950 1_555
Ca3 O8 2.187154 1_545
Ca3 O10 2.280584 1_555
Ca3 O82 2.287301 1_545
Ca3 O79 2.352324 1_555
Ca3 O81 2.355413 1_545
Ca4 O24 2.158926 1_555
Ca4 O100 2.224799 1_555
Ca4 O28 2.247297 1_555
Ca4 O98 2.285409 1_555
Ca4 O26 2.287576 1_555
Ca4 O96 2.407432 1_555
Ca5 O25 2.155638 1_555
Ca5 O101 2.236633 1_555
Ca5 O29 2.237755 1_555
Ca5 O27 2.292365 1_555
Ca5 O99 2.297138 1_555
Ca5 O97 2.420898 1_555
Ca6 O30 2.179799 1_555
Ca6 O104 2.231456 1_555
Ca6 O34 2.250888 1_555
Ca6 O32 2.268816 1_555
Ca6 O106 2.312774 1_555
Ca6 O102 2.389563 1_555
Ca7 O31 2.190237 1_555
Ca7 O33 2.202036 1_555
Ca7 O107 2.211675 1_555
Ca7 O35 2.280872 1_555
Ca7 O105 2.319906 1_555
Ca7 O103 2.420417 1_555
Ca8 O48 2.189390 1_554
Ca8 O52 2.214389 1_554
Ca8 O122 2.225823 1_555
Ca8 O50 2.246150 1_554
Ca8 O124 2.334261 1_555
Ca8 O120 2.359309 1_555
Ca9 O49 2.208729 1_554
Ca9 O123 2.211720 1_555
Ca9 O53 2.216934 1_554
Ca9 O51 2.243496 1_554
Ca9 O125 2.334987 1_555
Ca9 O121 2.356869 1_555
Ca10 O130 2.185974 1_555
Ca10 O54 2.214888 1_555
Ca10 O56 2.227402 1_555
Ca10 O58 2.235407 1_555
Ca10 O128 2.330858 1_555
Ca10 O126 2.397845 1_555
Ca11 O55 2.196329 1_555
Ca11 O57 2.215652 1_555
Ca11 O131 2.230334 1_555
Ca11 O59 2.247587 1_555
Ca11 O129 2.326902 1_555
Ca11 O127 2.374073 1_555
O0 Si0 1.591026 1_545
O1 Si1 1.582262 1_555
O2 S0 1.454732 1_555
O3 S1 1.451627 1_555
O4 Si2 1.608065 1_555
O5 S2 1.449422 1_655
O6 Si3 1.580609 1_555
O7 Si4 1.579377 1_555
O8 Si6 1.604633 1_555
O9 Si5 1.605212 1_655
O10 S3 1.451675 1_545
O11 S4 1.452712 1_545
O12 S3 1.503578 1_555
O12 Zr1 2.363713 1_565
O13 S4 1.502757 1_555
O13 Zr0 2.353295 1_665
O14 Si3 1.695727 1_555
O14 Zr0 1.977300 1_555
O15 Si4 1.700035 1_555
O15 Zr1 1.968837 1_555
O16 Si5 1.699184 1_555
O16 Zr0 2.054803 1_565
O17 Si6 1.701119 1_555
O17 Zr1 2.050687 1_565
O18 S0 1.507275 1_555
O18 Zr3 2.356920 1_565
O19 S1 1.514022 1_555
O19 Zr2 2.265801 1_655
O20 S2 1.502666 1_555
O20 Zr2 2.307922 1_545
O21 Si2 1.703343 1_555
O21 Zr3 2.050522 1_555
O22 Si0 1.719080 1_555
O22 Zr2 1.963931 1_555
O23 Si1 1.707879 1_565
O23 Zr3 1.961673 1_565
O24 Si7 1.601315 1_555
O25 Si8 1.601792 1_555
O26 S5 1.464174 1_555
O27 S6 1.466877 1_555
O28 S7 1.464769 1_555
O29 S8 1.469364 1_555
O30 Si9 1.600149 1_555
O31 Si10 1.598614 1_555
O32 S9 1.465025 1_555
O33 S10 1.453942 1_555
O34 S11 1.450481 1_555
O35 S12 1.463409 1_555
O36 S11 1.511133 1_555
O36 Zr4 2.196982 1_554
O37 S12 1.512669 1_555
O37 Zr5 2.167077 1_554
O38 Si9 1.749158 1_555
O38 Zr4 1.968135 1_554
O39 Si10 1.722984 1_555
O39 Zr5 1.987061 1_554
O40 S9 1.499870 1_555
O40 Zr4 2.305112 1_554
O41 S10 1.498946 1_555
O41 Zr5 2.320520 1_554
O42 S5 1.516951 1_555
O42 Zr6 2.221253 1_555
O43 S6 1.500966 1_555
O43 Zr7 2.223542 1_555
O44 S7 1.508248 1_555
O44 Zr6 2.253306 1_555
O45 S8 1.490833 1_555
O45 Zr7 2.370364 1_555
O46 Si7 1.749290 1_555
O46 Zr6 1.953960 1_555
O47 Si8 1.728071 1_555
O47 Zr7 1.961365 1_555
O48 Si11 1.594213 1_555
O49 Si12 1.592958 1_555
O50 S13 1.453987 1_555
O51 S14 1.457047 1_555
O52 S15 1.461332 1_555
O53 S16 1.461603 1_555
O54 Si13 1.588366 1_555
O55 Si14 1.597150 1_555
O56 S17 1.450839 1_555
O57 S18 1.460807 1_555
O58 S19 1.452072 1_555
O59 S20 1.452466 1_555
O60 S19 1.529674 1_555
O60 Zr8 2.205677 1_555
O61 S20 1.517015 1_555
O61 Zr9 2.281747 1_555
O62 Si13 1.736612 1_555
O62 Zr8 1.984473 1_555
O63 Si14 1.701633 1_555
O63 Zr9 1.977575 1_555
O64 S17 1.512117 1_555
O64 Zr8 2.232906 1_555
O65 S18 1.512246 1_555
O65 Zr9 2.356381 1_555
O66 S13 1.529291 1_555
O66 Zr10 2.209371 1_555
O67 S14 1.531221 1_555
O67 Zr11 2.205980 1_555
O68 S15 1.517851 1_555
O68 Zr10 2.305426 1_555
O69 S16 1.516250 1_555
O69 Zr11 2.308654 1_555
O70 Si11 1.707068 1_555
O70 Zr10 2.013593 1_555
O71 Si12 1.704176 1_555
O71 Zr11 2.014890 1_555
O72 S19 1.468595 1_555
O73 S20 1.451522 1_555
O74 Si13 1.605722 1_545
O75 Si14 1.602949 1_555
O76 S17 1.474366 1_555
O77 S18 1.477631 1_555
O78 S13 1.449221 1_555
O79 S14 1.445988 1_555
O80 S15 1.472491 1_555
O81 S16 1.469810 1_555
O82 Si11 1.615457 1_555
O83 Si12 1.617097 1_555
O84 Si7 1.699265 1_555
O84 Zr1 2.103520 1_555
O85 Si8 1.698525 1_555
O85 Zr0 2.096117 1_655
O86 S5 1.500218 1_555
O86 Zr0 2.222506 1_555
O87 S6 1.509102 1_555
O87 Zr1 2.204489 1_555
O88 S7 1.502396 1_555
O88 Zr1 2.386221 1_565
O89 S8 1.511467 1_555
O89 Zr0 2.344250 1_665
O90 Si9 1.703586 1_555
O90 Zr3 2.111692 1_565
O91 Si10 1.727386 1_555
O91 Zr2 2.005704 1_655
O92 S9 1.506035 1_555
O92 Zr3 2.379547 1_555
O93 S10 1.518032 1_555
O93 Zr2 2.324594 1_645
O94 S11 1.512973 1_555
O94 Zr2 2.199580 1_545
O95 S12 1.498940 1_555
O95 Zr3 2.227545 1_555
O96 S3 1.479400 1_545
O97 S4 1.478561 1_545
O98 Si3 1.621777 1_555
O99 Si4 1.620827 1_555
O100 Si6 1.627708 1_555
O101 Si5 1.626901 1_655
O102 S0 1.465305 1_555
O103 S1 1.480595 1_555
O104 Si2 1.628110 1_555
O105 S2 1.482622 1_655
O106 Si0 1.605551 1_545
O107 Si1 1.615254 1_555
O108 Si11 1.730959 1_555
O108 Zr4 2.000200 1_555
O109 Si12 1.733661 1_555
O109 Zr5 1.993590 1_555
O110 S14 1.523351 1_555
O110 Zr4 2.278860 1_555
O111 S13 1.523143 1_655
O111 Zr5 2.264031 1_555
O112 S15 1.497314 1_545
O112 Zr4 2.321264 1_555
O113 S16 1.500953 1_545
O113 Zr5 2.296270 1_555
O114 Si13 1.728574 1_545
O114 Zr6 2.038262 1_555
O115 Si14 1.726766 1_545
O115 Zr7 1.971169 1_555
O116 S17 1.513198 1_555
O116 Zr6 2.340525 1_555
O117 S18 1.498404 1_555
O117 Zr7 2.324542 1_555
O118 S20 1.538725 1_555
O118 Zr6 2.206840 1_555
O119 S19 1.500033 1_655
O119 Zr7 2.256497 1_555
O120 S11 1.470598 1_555
O121 S12 1.469337 1_555
O122 Si10 1.593814 1_455
O123 Si9 1.602069 1_555
O124 S9 1.483837 1_565
O125 S10 1.479308 1_565
O126 S5 1.468877 1_565
O127 S6 1.470085 1_565
O128 S7 1.474710 1_555
O129 S8 1.480769 1_555
O130 Si8 1.599090 1_455
O131 Si7 1.596285 1_555
O132 Si0 1.726550 1_555
O132 Zr8 2.029388 1_555
O133 Si1 1.692034 1_565
O133 Zr9 2.011366 1_555
O134 S0 1.527845 1_555
O134 Zr8 2.216302 1_555
O135 S1 1.504585 1_555
O135 Zr9 2.252403 1_555
O136 S2 1.518584 1_555
O136 Zr8 2.332814 1_555
O137 Si2 1.680263 1_555
O137 Zr9 2.156168 1_555
O138 Si3 1.696183 1_555
O138 Zr10 2.029743 1_555
O139 Si4 1.695457 1_555
O139 Zr11 2.029225 1_555
O140 Si5 1.687108 1_555
O140 Zr10 2.131095 1_555
O141 Si6 1.685455 1_555
O141 Zr11 2.131181 1_555
O142 S3 1.517105 1_555
O142 Zr10 2.258998 1_555
O143 S4 1.516643 1_555
O143 Zr11 2.256882 1_555
