# generated using pymatgen
data_MgCu5(PO5)2
_symmetry_space_group_name_H-M   'P 1'
_cell_length_a   6.05440586
_cell_length_b   5.45431922
_cell_length_c   7.97063490
_cell_angle_alpha   80.79191334
_cell_angle_beta   83.20756719
_cell_angle_gamma   64.09498091
_symmetry_Int_Tables_number   1
_chemical_formula_structural   MgCu5(PO5)2
_chemical_formula_sum   'Mg1 Cu5 P2 O10'
_cell_volume   233.36600888
_cell_formula_units_Z   1
loop_
 _symmetry_equiv_pos_site_id
 _symmetry_equiv_pos_as_xyz
  1  'x, y, z'
loop_
 _atom_site_type_symbol
 _atom_site_label
 _atom_site_symmetry_multiplicity
 _atom_site_fract_x
 _atom_site_fract_y
 _atom_site_fract_z
 _atom_site_occupancy
  Mg  Mg0  1  0.49859171  0.99938356  0.50075433  1
  Cu  Cu0  1  0.74501831  0.60499364  0.94281233  1
  Cu  Cu1  1  0.25498470  0.39525759  0.05741699  1
  Cu  Cu2  1  0.10212097  0.73848983  0.65310094  1
  Cu  Cu3  1  0.89740235  0.26093023  0.34701466  1
  Cu  Cu4  1  0.99984579  0.00008852  0.00010910  1
  P  P0  1  0.43006719  0.81771548  0.26751011  1
  P  P1  1  0.57048515  0.18248694  0.73208974  1
  O  O0  1  0.03661824  0.69682215  0.90041598  1
  O  O1  1  0.96336163  0.30322390  0.09979616  1
  O  O2  1  0.46827420  0.08895817  0.22281700  1
  O  O3  1  0.53200133  0.91134446  0.77702075  1
  O  O4  1  0.40252392  0.68942566  0.12105570  1
  O  O5  1  0.59790837  0.31091137  0.87852712  1
  O  O6  1  0.65129632  0.63653268  0.38317574  1
  O  O7  1  0.79621816  0.09129388  0.59401140  1
  O  O8  1  0.20432070  0.90860299  0.40578667  1
  O  O9  1  0.34896196  0.36353896  0.61658530  1
loop_
_geom_bond_atom_site_label_1
_geom_bond_atom_site_label_2
_geom_bond_distance
_geom_bond_site_symmetry_2
Mg0 O9 2.105938 1_565
Mg0 O6 2.107083 1_555
Mg0 O3 2.191454 1_555
Mg0 O2 2.202622 1_565
Mg0 O8 2.280820 1_555
Mg0 O7 2.297009 1_565
Cu0 O1 1.962981 1_556
Cu0 O3 2.003774 1_555
Cu0 O0 2.014760 1_655
Cu0 O4 2.282207 1_556
Cu0 O5 2.290848 1_555
Cu1 O0 1.962620 1_554
Cu1 O2 2.002362 1_555
Cu1 O1 2.015569 1_455
Cu1 O5 2.287015 1_554
Cu1 O4 2.291186 1_555
Cu2 O0 1.960927 1_555
Cu2 O9 1.979317 1_555
Cu2 O7 2.038911 1_465
Cu2 O8 2.181137 1_555
Cu3 O1 1.960712 1_555
Cu3 O6 1.980008 1_555
Cu3 O8 2.040342 1_645
Cu3 O7 2.175832 1_555
Cu4 O1 1.863780 1_555
Cu4 O0 1.863895 1_644
Cu4 O5 2.482423 1_554
Cu4 O4 2.483518 1_645
O2 P0 1.574810 1_545
O3 P1 1.575283 1_565
O4 P0 1.513118 1_555
O5 P1 1.513174 1_555
O6 P0 1.569884 1_555
O7 P1 1.597470 1_555
O8 P0 1.598450 1_555
O9 P1 1.570168 1_555
