# generated using pymatgen
data_CsReBr4
_symmetry_space_group_name_H-M   'P 1'
_cell_length_a   10.37276456
_cell_length_b   12.69702635
_cell_length_c   13.21969811
_cell_angle_alpha   90.00000000
_cell_angle_beta   90.00000000
_cell_angle_gamma   90.00000000
_symmetry_Int_Tables_number   1
_chemical_formula_structural   CsReBr4
_chemical_formula_sum   'Cs8 Re8 Br32'
_cell_volume   1741.07740262
_cell_formula_units_Z   8
loop_
 _symmetry_equiv_pos_site_id
 _symmetry_equiv_pos_as_xyz
  1  'x, y, z'
loop_
 _atom_site_type_symbol
 _atom_site_label
 _atom_site_symmetry_multiplicity
 _atom_site_fract_x
 _atom_site_fract_y
 _atom_site_fract_z
 _atom_site_occupancy
  Cs  Cs0  1  0.33289980  0.69613592  0.36494416  1
  Cs  Cs1  1  0.83289980  0.80386408  0.63505584  1
  Cs  Cs2  1  0.66710020  0.19613592  0.13505584  1
  Cs  Cs3  1  0.16710020  0.30386408  0.86494416  1
  Cs  Cs4  1  0.66710020  0.30386408  0.63505584  1
  Cs  Cs5  1  0.16710020  0.19613592  0.36494416  1
  Cs  Cs6  1  0.33289980  0.80386408  0.86494416  1
  Cs  Cs7  1  0.83289980  0.69613592  0.13505584  1
  Re  Re0  1  0.55870066  0.01396049  0.43134517  1
  Re  Re1  1  0.05870066  0.48603951  0.56865483  1
  Re  Re2  1  0.44129934  0.51396049  0.06865483  1
  Re  Re3  1  0.94129934  0.98603951  0.93134517  1
  Re  Re4  1  0.44129934  0.98603951  0.56865483  1
  Re  Re5  1  0.94129934  0.51396049  0.43134517  1
  Re  Re6  1  0.55870066  0.48603951  0.93134517  1
  Re  Re7  1  0.05870066  0.01396049  0.06865483  1
  Br  Br0  1  0.52895775  0.20550620  0.39372433  1
  Br  Br1  1  0.02895775  0.29449380  0.60627567  1
  Br  Br2  1  0.47104225  0.70550620  0.10627567  1
  Br  Br3  1  0.97104225  0.79449380  0.89372433  1
  Br  Br4  1  0.47104225  0.79449380  0.60627567  1
  Br  Br5  1  0.97104225  0.70550620  0.39372433  1
  Br  Br6  1  0.52895775  0.29449380  0.89372433  1
  Br  Br7  1  0.02895775  0.20550620  0.10627567  1
  Br  Br8  1  0.41192084  0.98427774  0.28443458  1
  Br  Br9  1  0.91192084  0.51572226  0.71556542  1
  Br  Br10  1  0.58807916  0.48427774  0.21556542  1
  Br  Br11  1  0.08807916  0.01572226  0.78443458  1
  Br  Br12  1  0.58807916  0.01572226  0.71556542  1
  Br  Br13  1  0.08807916  0.48427774  0.28443458  1
  Br  Br14  1  0.41192084  0.51572226  0.78443458  1
  Br  Br15  1  0.91192084  0.98427774  0.21556542  1
  Br  Br16  1  0.27674368  0.06119437  0.00415848  1
  Br  Br17  1  0.77674368  0.43880563  0.99584152  1
  Br  Br18  1  0.72325632  0.56119437  0.49584152  1
  Br  Br19  1  0.22325632  0.93880563  0.50415848  1
  Br  Br20  1  0.72325632  0.93880563  0.99584152  1
  Br  Br21  1  0.22325632  0.56119437  0.00415848  1
  Br  Br22  1  0.27674368  0.43880563  0.50415848  1
  Br  Br23  1  0.77674368  0.06119437  0.49584152  1
  Br  Br24  1  0.15177920  0.83948699  0.11189753  1
  Br  Br25  1  0.65177920  0.66051301  0.88810247  1
  Br  Br26  1  0.84822080  0.33948699  0.38810247  1
  Br  Br27  1  0.34822080  0.16051301  0.61189753  1
  Br  Br28  1  0.84822080  0.16051301  0.88810247  1
  Br  Br29  1  0.34822080  0.33948699  0.11189753  1
  Br  Br30  1  0.15177920  0.66051301  0.61189753  1
  Br  Br31  1  0.65177920  0.83948699  0.38810247  1
loop_
_geom_bond_atom_site_label_1
_geom_bond_atom_site_label_2
_geom_bond_distance
_geom_bond_site_symmetry_2
Re0 Re4 2.214403 1_545
Re1 Re5 2.214403 1_455
Re2 Re6 2.214403 1_554
Re3 Re7 2.214403 1_666
Br0 Re0 2.501489 1_555
Br0 Cs2 3.709518 1_555
Br0 Cs4 3.713636 1_555
Br0 Cs5 3.774572 1_555
Br1 Re1 2.501489 1_555
Br1 Cs3 3.709518 1_555
Br1 Cs5 3.713636 1_555
Br1 Cs4 3.774572 1_455
Br2 Re2 2.501489 1_555
Br2 Cs0 3.709518 1_555
Br2 Cs6 3.713636 1_554
Br2 Cs7 3.774572 1_555
Br3 Re3 2.501489 1_555
Br3 Cs1 3.709518 1_555
Br3 Cs7 3.713636 1_556
Br3 Cs6 3.774572 1_655
Br4 Re4 2.501489 1_555
Br4 Cs6 3.709518 1_555
Br4 Cs0 3.713636 1_555
Br4 Cs1 3.774572 1_555
Br5 Re5 2.501489 1_555
Br5 Cs7 3.709518 1_555
Br5 Cs1 3.713636 1_555
Br5 Cs0 3.774572 1_655
Br6 Re6 2.501489 1_555
Br6 Cs4 3.709518 1_555
Br6 Cs2 3.713636 1_556
Br6 Cs3 3.774572 1_555
Br7 Re7 2.501489 1_555
Br7 Cs5 3.709518 1_555
Br7 Cs3 3.713636 1_554
Br7 Cs2 3.774572 1_455
Br8 Re0 2.496375 1_565
Br8 Cs5 3.849362 1_565
Br8 Cs0 3.897379 1_555
Br8 Cs2 4.259307 1_565
Br9 Re1 2.496375 1_655
Br9 Cs4 3.849362 1_555
Br9 Cs1 3.897379 1_555
Br9 Cs3 4.259307 1_655
Br10 Re2 2.496375 1_555
Br10 Cs7 3.849362 1_555
Br10 Cs2 3.897379 1_555
Br10 Cs0 4.259307 1_555
Br11 Re3 2.496375 1_445
Br11 Cs6 3.849362 1_545
Br11 Cs3 3.897379 1_555
Br11 Cs1 4.259307 1_445
Br12 Re4 2.496375 1_545
Br12 Cs1 3.849362 1_545
Br12 Cs4 3.897379 1_555
Br12 Cs6 4.259307 1_545
Br13 Re5 2.496375 1_455
Br13 Cs0 3.849362 1_555
Br13 Cs5 3.897379 1_555
Br13 Cs7 4.259307 1_455
Br14 Re6 2.496375 1_555
Br14 Cs3 3.849362 1_555
Br14 Cs6 3.897379 1_555
Br14 Cs4 4.259307 1_555
Br15 Re7 2.496375 1_665
Br15 Cs2 3.849362 1_565
Br15 Cs7 3.897379 1_555
Br15 Cs5 4.259307 1_665
Br16 Re7 2.490375 1_555
Br16 Cs3 3.764854 1_554
Br16 Cs6 3.794958 1_544
Br17 Re6 2.490375 1_555
Br17 Cs2 3.764854 1_556
Br17 Cs7 3.794958 1_556
Br18 Re5 2.490375 1_555
Br18 Cs1 3.764854 1_555
Br18 Cs4 3.794958 1_555
Br19 Re4 2.490375 1_555
Br19 Cs0 3.764854 1_555
Br19 Cs5 3.794958 1_565
Br20 Re3 2.490375 1_555
Br20 Cs7 3.764854 1_556
Br20 Cs2 3.794958 1_566
Br21 Re2 2.490375 1_555
Br21 Cs6 3.764854 1_554
Br21 Cs3 3.794958 1_554
Br22 Re1 2.490375 1_555
Br22 Cs5 3.764854 1_555
Br22 Cs0 3.794958 1_555
Br23 Re0 2.490375 1_555
Br23 Cs4 3.764854 1_555
Br23 Cs1 3.794958 1_545
Br24 Re7 2.483239 1_565
Br24 Cs7 3.787773 1_455
Br24 Cs6 3.793693 1_554
Br24 Cs0 4.246509 1_555
Br25 Re6 2.483239 1_555
Br25 Cs6 3.787773 1_555
Br25 Cs7 3.793693 1_556
Br25 Cs1 4.246509 1_555
Br26 Re5 2.483239 1_555
Br26 Cs5 3.787773 1_655
Br26 Cs4 3.793693 1_555
Br26 Cs2 4.246509 1_555
Br27 Re4 2.483239 1_545
Br27 Cs4 3.787773 1_555
Br27 Cs5 3.793693 1_555
Br27 Cs3 4.246509 1_555
Br28 Re3 2.483239 1_545
Br28 Cs3 3.787773 1_655
Br28 Cs2 3.793693 1_556
Br28 Cs4 4.246509 1_555
Br29 Re2 2.483239 1_555
Br29 Cs2 3.787773 1_555
Br29 Cs3 3.793693 1_554
Br29 Cs5 4.246509 1_555
Br30 Re1 2.483239 1_555
Br30 Cs1 3.787773 1_455
Br30 Cs0 3.793693 1_555
Br30 Cs6 4.246509 1_555
Br31 Re0 2.483239 1_565
Br31 Cs0 3.787773 1_555
Br31 Cs1 3.793693 1_555
Br31 Cs7 4.246509 1_555
