# generated using pymatgen
data_FeNi
_symmetry_space_group_name_H-M   'P 1'
_cell_length_a   3.55275832
_cell_length_b   3.55275832
_cell_length_c   3.53075869
_cell_angle_alpha   90.00000000
_cell_angle_beta   90.00000000
_cell_angle_gamma   90.00000000
_symmetry_Int_Tables_number   1
_chemical_formula_structural   FeNi
_chemical_formula_sum   'Fe2 Ni2'
_cell_volume   44.56555989
_cell_formula_units_Z   2
loop_
 _symmetry_equiv_pos_site_id
 _symmetry_equiv_pos_as_xyz
  1  'x, y, z'
loop_
 _atom_site_type_symbol
 _atom_site_label
 _atom_site_symmetry_multiplicity
 _atom_site_fract_x
 _atom_site_fract_y
 _atom_site_fract_z
 _atom_site_occupancy
  Fe  Fe0  1  0.00000000  -0.00000000  -0.00000000  1
  Fe  Fe1  1  0.50000000  0.50000000  0.00000000  1
  Ni  Ni0  1  0.00000000  0.50000000  0.50000000  1
  Ni  Ni1  1  0.50000000  -0.00000000  0.50000000  1
loop_
_geom_bond_atom_site_label_1
_geom_bond_atom_site_label_2
_geom_bond_distance
_geom_bond_site_symmetry_2
Fe0 Ni1 2.504414 1_455
Fe0 Ni1 2.504414 1_454
Fe0 Ni1 2.504414 1_555
Fe0 Ni0 2.504414 1_545
Fe0 Ni0 2.504414 1_554
Fe0 Ni1 2.504414 1_554
Fe0 Ni0 2.504414 1_544
Fe0 Ni0 2.504414 1_555
Fe0 Fe1 2.512179 1_545
Fe0 Fe1 2.512179 1_555
Fe0 Fe1 2.512179 1_445
Fe0 Fe1 2.512179 1_455
Fe1 Ni1 2.504414 1_555
Fe1 Ni1 2.504414 1_565
Fe1 Ni0 2.504414 1_655
Fe1 Ni0 2.504414 1_654
Fe1 Ni0 2.504414 1_554
Fe1 Ni1 2.504414 1_564
Fe1 Ni1 2.504414 1_554
Fe1 Ni0 2.504414 1_555
Ni0 Ni1 2.512179 1_565
Ni0 Ni1 2.512179 1_465
Ni0 Ni1 2.512179 1_555
Ni0 Ni1 2.512179 1_455
