# generated using pymatgen
data_SrMgCoO3
_symmetry_space_group_name_H-M   'P 1'
_cell_length_a   4.21244146
_cell_length_b   3.40179686
_cell_length_c   5.66832847
_cell_angle_alpha   75.72000615
_cell_angle_beta   108.81335328
_cell_angle_gamma   89.18972990
_symmetry_Int_Tables_number   1
_chemical_formula_structural   SrMgCoO3
_chemical_formula_sum   'Sr1 Mg1 Co1 O3'
_cell_volume   74.12155363
_cell_formula_units_Z   1
loop_
 _symmetry_equiv_pos_site_id
 _symmetry_equiv_pos_as_xyz
  1  'x, y, z'
loop_
 _atom_site_type_symbol
 _atom_site_label
 _atom_site_symmetry_multiplicity
 _atom_site_fract_x
 _atom_site_fract_y
 _atom_site_fract_z
 _atom_site_occupancy
  Sr  Sr0  1  0.36036330  0.62584568  0.54306791  1
  Mg  Mg0  1  0.68253848  0.31776851  0.15929495  1
  Co  Co0  1  0.04965610  0.93357934  0.91576082  1
  O  O0  1  -0.12210701  0.14896712  0.53930093  1
  O  O1  1  0.18232805  0.33122268  0.14623003  1
  O  O2  1  0.58055408  -0.09071632  -0.05365464  1
loop_
_geom_bond_atom_site_label_1
_geom_bond_atom_site_label_2
_geom_bond_distance
_geom_bond_site_symmetry_2
Mg0 O0 1.969731 1_655
Mg0 O2 2.020494 1_555
Mg0 O2 2.033090 1_565
Mg0 O1 2.083851 1_555
Mg0 O1 2.131109 1_655
Co0 O0 1.957490 1_565
Co0 O2 2.039662 1_466
Co0 O1 2.066643 1_566
Co0 O1 2.096163 1_556
Co0 O2 2.185386 1_566
O0 Sr0 2.616303 1_555
O0 Sr0 2.673724 1_545
O0 Sr0 2.707747 1_455
O0 Sr0 2.835656 1_445
O1 Sr0 2.583053 1_555
O1 Sr0 2.752896 1_545
O2 Sr0 2.600093 1_544
O2 Sr0 2.801300 1_554
