# generated using pymatgen
data_Sr2MgNiIrO6
_symmetry_space_group_name_H-M   'P 1'
_cell_length_a   6.79434144
_cell_length_b   5.96273829
_cell_length_c   5.25372928
_cell_angle_alpha   106.12548737
_cell_angle_beta   120.46923617
_cell_angle_gamma   109.00445685
_symmetry_Int_Tables_number   1
_chemical_formula_structural   Sr2MgNiIrO6
_chemical_formula_sum   'Sr2 Mg1 Ni1 Ir1 O6'
_cell_volume   145.60233767
_cell_formula_units_Z   1
loop_
 _symmetry_equiv_pos_site_id
 _symmetry_equiv_pos_as_xyz
  1  'x, y, z'
loop_
 _atom_site_type_symbol
 _atom_site_label
 _atom_site_symmetry_multiplicity
 _atom_site_fract_x
 _atom_site_fract_y
 _atom_site_fract_z
 _atom_site_occupancy
  Sr  Sr0  1  0.79430742  0.19210171  0.49155510  1
  Sr  Sr1  1  0.20569258  0.80789829  0.50844490  1
  Mg  Mg0  1  0.50000000  0.50000000  0.50000000  1
  Ni  Ni0  1  -0.00000000  -0.00000000  -0.00000000  1
  Ir  Ir0  1  0.50000000  0.50000000  -0.00000000  1
  O  O0  1  0.17506920  0.31099295  0.47463263  1
  O  O1  1  0.82493080  0.68900705  0.52536737  1
  O  O2  1  0.34801067  0.17338978  0.05650617  1
  O  O3  1  0.65198933  0.82661022  0.94349383  1
  O  O4  1  0.66963565  0.35604030  0.84674431  1
  O  O5  1  0.33036435  0.64395970  0.15325569  1
loop_
_geom_bond_atom_site_label_1
_geom_bond_atom_site_label_2
_geom_bond_distance
_geom_bond_site_symmetry_2
Mg0 O3 2.004358 1_555
Mg0 O2 2.004358 1_555
Mg0 O1 2.039492 1_555
Mg0 O0 2.039492 1_555
Mg0 O5 2.183455 1_555
Mg0 O4 2.183455 1_555
Ni0 O1 2.014536 1_444
Ni0 O0 2.014536 1_555
Ni0 O3 2.067222 1_444
Ni0 O2 2.067222 1_555
Ni0 Sr1 3.058908 1_545
Ni0 Sr0 3.058908 1_454
Ir0 O5 1.978659 1_555
Ir0 O4 1.978659 1_554
Ir0 O1 2.057732 1_555
Ir0 O0 2.057732 1_554
Ir0 O2 2.066279 1_555
Ir0 O3 2.066279 1_554
O0 Sr0 2.505392 1_455
O0 Sr1 2.849976 1_555
O0 Sr1 3.120707 1_545
O1 Sr1 2.505392 1_655
O1 Sr0 2.849976 1_555
O1 Sr0 3.120707 1_565
O2 Sr1 2.508672 1_544
O2 Sr0 2.653407 1_555
O3 Sr0 2.508672 1_566
O3 Sr1 2.653407 1_555
O4 Sr0 2.506856 1_555
O4 Sr1 2.856434 1_545
O4 Sr1 2.859219 1_656
O5 Sr1 2.506856 1_555
O5 Sr0 2.856434 1_565
O5 Sr0 2.859219 1_454
