# generated using pymatgen
data_PbWO4
_symmetry_space_group_name_H-M   'P 1'
_cell_length_a   7.28151691
_cell_length_b   7.28151691
_cell_length_c   7.28151691
_cell_angle_alpha   135.04302243
_cell_angle_beta   135.04302243
_cell_angle_gamma   65.46335970
_symmetry_Int_Tables_number   1
_chemical_formula_structural   PbWO4
_chemical_formula_sum   'Pb2 W2 O8'
_cell_volume   189.89897756
_cell_formula_units_Z   2
loop_
 _symmetry_equiv_pos_site_id
 _symmetry_equiv_pos_as_xyz
  1  'x, y, z'
loop_
 _atom_site_type_symbol
 _atom_site_label
 _atom_site_symmetry_multiplicity
 _atom_site_fract_x
 _atom_site_fract_y
 _atom_site_fract_z
 _atom_site_occupancy
  Pb  Pb0  1  0.50000000  0.50000000  0.00000000  1
  Pb  Pb1  1  0.25000000  0.75000000  0.50000000  1
  W  W0  1  0.00000000  0.00000000  0.00000000  1
  W  W1  1  0.75000000  0.25000000  0.50000000  1
  O  O0  1  0.68262100  0.05786100  0.90496000  1
  O  O1  1  0.52766100  0.93262100  0.12476000  1
  O  O2  1  0.80786100  0.40290200  0.87524000  1
  O  O3  1  0.15290200  0.77766100  0.09504000  1
  O  O4  1  0.59709800  0.47233900  0.40496000  1
  O  O5  1  0.94213900  0.84709800  0.62476000  1
  O  O6  1  0.22233900  0.31737900  0.37524000  1
  O  O7  1  0.06737900  0.19213900  0.59504000  1
loop_
_geom_bond_atom_site_label_1
_geom_bond_atom_site_label_2
_geom_bond_distance
_geom_bond_site_symmetry_2
O0 W0 1.826930 1_656
O0 Pb1 2.647092 1_545
O0 Pb0 2.684312 1_556
O1 W1 1.826930 1_565
O1 Pb0 2.647092 1_555
O1 Pb1 2.684312 1_554
O2 W1 1.826927 1_555
O2 Pb0 2.647094 1_556
O2 Pb1 2.684311 1_656
O3 W0 1.826930 1_565
O3 Pb1 2.647096 1_555
O3 Pb0 2.684306 1_555
O4 W1 1.826930 1_555
O4 Pb0 2.647096 1_555
O4 Pb1 2.684306 1_555
O5 W0 1.826927 1_666
O5 Pb1 2.647094 1_655
O5 Pb0 2.684311 1_555
O6 W0 1.826930 1_555
O6 Pb1 2.647092 1_555
O6 Pb0 2.684312 1_556
O7 W1 1.826930 1_455
O7 Pb0 2.647092 1_556
O7 Pb1 2.684312 1_545
