# generated using pymatgen
data_Mg(VS2)2
_symmetry_space_group_name_H-M   'P 1'
_cell_length_a   3.56406077
_cell_length_b   11.98150376
_cell_length_c   3.56406009
_cell_angle_alpha   90.00000000
_cell_angle_beta   119.99999357
_cell_angle_gamma   90.00000000
_symmetry_Int_Tables_number   1
_chemical_formula_structural   Mg(VS2)2
_chemical_formula_sum   'Mg1 V2 S4'
_cell_volume   131.80506714
_cell_formula_units_Z   1
loop_
 _symmetry_equiv_pos_site_id
 _symmetry_equiv_pos_as_xyz
  1  'x, y, z'
loop_
 _atom_site_type_symbol
 _atom_site_label
 _atom_site_symmetry_multiplicity
 _atom_site_fract_x
 _atom_site_fract_y
 _atom_site_fract_z
 _atom_site_occupancy
  Mg  Mg0  1  0.00000000  0.25001302  -0.00000000  1
  V  V0  1  -0.00000000  0.98619719  -0.00000000  1
  V  V1  1  0.00000000  0.51379817  0.00000000  1
  S  S0  1  0.33333300  0.38027996  0.66666700  1
  S  S1  1  0.33333300  0.89394375  0.66666700  1
  S  S2  1  0.66666700  0.11966405  0.33333300  1
  S  S3  1  0.66666700  0.60610387  0.33333300  1
loop_
_geom_bond_atom_site_label_1
_geom_bond_atom_site_label_2
_geom_bond_distance
_geom_bond_site_symmetry_2
Mg0 S0 2.582682 1_554
Mg0 S0 2.582684 1_555
Mg0 S0 2.582684 1_454
Mg0 S2 2.583276 1_455
Mg0 S2 2.583278 1_454
Mg0 S2 2.583278 1_555
S0 V1 2.606408 1_556
S0 V1 2.606411 1_555
S0 V1 2.606411 1_656
S1 V0 2.335794 1_556
S1 V0 2.335796 1_555
S1 V0 2.335797 1_656
S2 V0 2.606031 1_645
S2 V0 2.606033 1_646
S2 V0 2.606033 1_545
S3 V1 2.336090 1_655
S3 V1 2.336093 1_656
S3 V1 2.336093 1_555
