# generated using pymatgen
data_V2NiP2(H4O7)2
_symmetry_space_group_name_H-M   'P 1'
_cell_length_a   6.33392626
_cell_length_b   6.33393521
_cell_length_c   8.06339565
_cell_angle_alpha   113.12558224
_cell_angle_beta   113.12543661
_cell_angle_gamma   89.99981915
_symmetry_Int_Tables_number   1
_chemical_formula_structural   V2NiP2(H4O7)2
_chemical_formula_sum   'V2 Ni1 P2 H8 O14'
_cell_volume   269.00543446
_cell_formula_units_Z   1
loop_
 _symmetry_equiv_pos_site_id
 _symmetry_equiv_pos_as_xyz
  1  'x, y, z'
loop_
 _atom_site_type_symbol
 _atom_site_label
 _atom_site_symmetry_multiplicity
 _atom_site_fract_x
 _atom_site_fract_y
 _atom_site_fract_z
 _atom_site_occupancy
  V  V0  1  0.27737000  0.27737000  0.55474100  1
  V  V1  1  0.72263400  0.72263300  0.44526600  1
  Ni  Ni0  1  0.00000400  0.00000300  0.00000700  1
  P  P0  1  0.25000700  0.75000500  0.50001400  1
  P  P1  1  0.75000600  0.25000800  0.50001300  1
  H  H0  1  0.40626300  0.24147800  0.11960800  1
  H  H1  1  0.87813200  0.40626100  0.11960800  1
  H  H2  1  0.24147600  0.71334700  0.11960800  1
  H  H3  1  0.71334700  0.87813100  0.11960800  1
  H  H4  1  0.59374000  0.75852400  0.88039600  1
  H  H5  1  0.28665400  0.12187000  0.88039500  1
  H  H6  1  0.12187100  0.59374100  0.88039500  1
  H  H7  1  0.75852400  0.28665500  0.88039500  1
  O  O0  1  0.01447500  0.34598700  0.63708800  1
  O  O1  1  0.37739300  0.70890100  0.36291300  1
  O  O2  1  0.29109800  0.01447500  0.63708700  1
  O  O3  1  0.70890200  0.98551300  0.36291200  1
  O  O4  1  0.98551400  0.65401300  0.36291100  1
  O  O5  1  0.34599000  0.62262000  0.63708900  1
  O  O6  1  0.84507600  0.84507400  0.69014900  1
  O  O7  1  0.25723600  0.20038400  0.00000300  1
  O  O8  1  0.79962000  0.25723900  0.00000300  1
  O  O9  1  0.20038300  0.74276300  0.00000100  1
  O  O10  1  0.74276700  0.79961700  0.00000200  1
  O  O11  1  0.62261900  0.29110000  0.63708700  1
  O  O12  1  0.65401000  0.37739200  0.36291100  1
  O  O13  1  0.15489500  0.15489600  0.30979100  1
loop_
_geom_bond_atom_site_label_1
_geom_bond_atom_site_label_2
_geom_bond_distance
_geom_bond_site_symmetry_2
Ni0 O7 2.065318 1_555
Ni0 O10 2.065322 1_445
Ni0 O9 2.065323 1_545
Ni0 O8 2.065328 1_455
Ni0 O13 2.077177 1_555
Ni0 O6 2.077673 1_444
H0 O7 0.988236 1_555
H1 O8 0.988222 1_555
H2 O9 0.988217 1_555
H3 O10 0.988226 1_555
H4 O10 0.988241 1_556
H5 O7 0.988232 1_556
H6 O9 0.988225 1_556
H7 O8 0.988222 1_556
O0 P1 1.554078 1_455
O0 V0 2.011052 1_555
O1 P0 1.554182 1_555
O1 V1 2.011056 1_555
O2 P0 1.554079 1_545
O2 V0 2.011051 1_555
O3 P1 1.554246 1_565
O3 V1 2.010999 1_555
O4 P0 1.554239 1_655
O4 V1 2.011000 1_555
O5 P0 1.554013 1_555
O5 V0 2.011121 1_555
O6 V1 1.642000 1_555
O11 P1 1.554011 1_555
O11 V0 2.011112 1_555
O12 P1 1.554183 1_555
O12 V1 2.011058 1_555
O13 V0 1.642449 1_555
