# generated using pymatgen
data_MgNiHO2
_symmetry_space_group_name_H-M   'P 1'
_cell_length_a   3.35587260
_cell_length_b   3.06107926
_cell_length_c   5.65857481
_cell_angle_alpha   90.00001379
_cell_angle_beta   100.84354580
_cell_angle_gamma   62.86565620
_symmetry_Int_Tables_number   1
_chemical_formula_structural   MgNiHO2
_chemical_formula_sum   'Mg1 Ni1 H1 O2'
_cell_volume   50.56155184
_cell_formula_units_Z   1
loop_
 _symmetry_equiv_pos_site_id
 _symmetry_equiv_pos_as_xyz
  1  'x, y, z'
loop_
 _atom_site_type_symbol
 _atom_site_label
 _atom_site_symmetry_multiplicity
 _atom_site_fract_x
 _atom_site_fract_y
 _atom_site_fract_z
 _atom_site_occupancy
  Mg  Mg0  1  0.49008339  0.25495830  0.63713734  1
  Ni  Ni0  1  0.12855456  0.93572322  0.02750315  1
  H  H0  1  0.88528056  0.55735922  0.28551811  1
  O  O0  1  0.21378183  0.39310909  0.28302289  1
  O  O1  1  0.90729966  0.54635017  0.74745751  1
loop_
_geom_bond_atom_site_label_1
_geom_bond_atom_site_label_2
_geom_bond_distance
_geom_bond_site_symmetry_2
Mg0 O1 1.969363 1_455
Mg0 O1 1.988961 1_545
Mg0 O1 1.988962 1_555
Mg0 O0 1.999249 1_555
Ni0 O0 2.083818 1_565
Ni0 O0 2.083821 1_555
Ni0 O1 2.201731 1_464
Ni0 O1 2.201733 1_454
H0 O0 0.984158 1_655
