# generated using pymatgen
data_Nb3Al(PO4)6
_symmetry_space_group_name_H-M   'P 1'
_cell_length_a   8.69903168
_cell_length_b   8.69903140
_cell_length_c   22.41662176
_cell_angle_alpha   90.00000000
_cell_angle_beta   90.00000000
_cell_angle_gamma   120.00000106
_symmetry_Int_Tables_number   1
_chemical_formula_structural   Nb3Al(PO4)6
_chemical_formula_sum   'Nb9 Al3 P18 O72'
_cell_volume   1469.07037835
_cell_formula_units_Z   3
loop_
 _symmetry_equiv_pos_site_id
 _symmetry_equiv_pos_as_xyz
  1  'x, y, z'
loop_
 _atom_site_type_symbol
 _atom_site_label
 _atom_site_symmetry_multiplicity
 _atom_site_fract_x
 _atom_site_fract_y
 _atom_site_fract_z
 _atom_site_occupancy
  Nb  Nb0  1  0.00000000  0.00000000  0.85449626  1
  Nb  Nb1  1  0.00000000  0.00000000  0.63961824  1
  Nb  Nb2  1  0.00000000  0.00000000  0.14712371  1
  Nb  Nb3  1  0.66666700  0.33333300  0.97761235  1
  Nb  Nb4  1  0.66666700  0.33333300  0.47289708  1
  Nb  Nb5  1  0.33333300  0.66666700  0.02847788  1
  Nb  Nb6  1  0.33333300  0.66666700  0.52206436  1
  Nb  Nb7  1  0.33333300  0.66666700  0.30606215  1
  Nb  Nb8  1  0.33333300  0.66666700  0.80548031  1
  Al  Al0  1  0.00000000  0.00000000  0.35359822  1
  Al  Al1  1  0.66666700  0.33333300  0.68837017  1
  Al  Al2  1  0.66666700  0.33333300  0.19311107  1
  P  P0  1  0.29218101  0.01477418  0.25269154  1
  P  P1  1  0.72259317  0.70781899  0.25269154  1
  P  P2  1  0.98522582  0.27740683  0.25269154  1
  P  P3  1  0.29676809  0.28295937  0.74741807  1
  P  P4  1  0.98619128  0.70323191  0.74741807  1
  P  P5  1  0.71704063  0.01380872  0.74741807  1
  P  P6  1  0.94457228  0.33804753  0.58579913  1
  P  P7  1  0.39347625  0.05542772  0.58579913  1
  P  P8  1  0.66195247  0.60652375  0.58579913  1
  P  P9  1  0.94287256  0.61249873  0.08743814  1
  P  P10  1  0.66962716  0.05712744  0.08743814  1
  P  P11  1  0.38750127  0.33037284  0.08743814  1
  P  P12  1  0.61612702  0.66713177  0.91661338  1
  P  P13  1  0.05100375  0.38387298  0.91661338  1
  P  P14  1  0.33286823  0.94899625  0.91661338  1
  P  P15  1  0.62947387  0.94922930  0.41406221  1
  P  P16  1  0.31975443  0.37052613  0.41406221  1
  P  P17  1  0.05077070  0.68024557  0.41406221  1
  O  O0  1  0.19857235  0.03563039  0.30597107  1
  O  O1  1  0.83705805  0.80142765  0.30597107  1
  O  O2  1  0.96436961  0.16294195  0.30597107  1
  O  O3  1  0.20295720  0.16909711  0.80429765  1
  O  O4  1  0.96613991  0.79704280  0.80429765  1
  O  O5  1  0.83090289  0.03386009  0.80429765  1
  O  O6  1  0.80035495  0.96974955  0.69446366  1
  O  O7  1  0.16939460  0.19964505  0.69446366  1
  O  O8  1  0.03025045  0.83060540  0.69446366  1
  O  O9  1  0.80182006  0.83042604  0.19538802  1
  O  O10  1  0.02860597  0.19817994  0.19538802  1
  O  O11  1  0.16957396  0.97139403  0.19538802  1
  O  O12  1  0.86165557  0.36478728  0.64077945  1
  O  O13  1  0.50313271  0.13834443  0.64077945  1
  O  O14  1  0.63521272  0.49686729  0.64077945  1
  O  O15  1  0.85996145  0.49499854  0.14022819  1
  O  O16  1  0.63503809  0.14003855  0.14022819  1
  O  O17  1  0.50500146  0.36496191  0.14022819  1
  O  O18  1  0.46960344  0.30535375  0.02845021  1
  O  O19  1  0.83575131  0.53039656  0.02845021  1
  O  O20  1  0.69464625  0.16424869  0.02845021  1
  O  O21  1  0.46872876  0.16621502  0.52871357  1
  O  O22  1  0.69748726  0.53127124  0.52871357  1
  O  O23  1  0.83378498  0.30251274  0.52871357  1
  O  O24  1  0.53274825  0.69771000  0.97223821  1
  O  O25  1  0.16496075  0.46725175  0.97223821  1
  O  O26  1  0.30229000  0.83503925  0.97223821  1
  O  O27  1  0.53606453  0.83524430  0.47122021  1
  O  O28  1  0.29917877  0.46393547  0.47122021  1
  O  O29  1  0.16475570  0.70082123  0.47122021  1
  O  O30  1  0.13410617  0.63620614  0.36104725  1
  O  O31  1  0.50209897  0.86589383  0.36104725  1
  O  O32  1  0.36379386  0.49790103  0.36104725  1
  O  O33  1  0.13492901  0.49820057  0.86093822  1
  O  O34  1  0.36327056  0.86507099  0.86093822  1
  O  O35  1  0.50179943  0.63672944  0.86093822  1
  O  O36  1  0.02738044  0.83774642  0.40477441  1
  O  O37  1  0.81036599  0.97261956  0.40477441  1
  O  O38  1  0.16225358  0.18963401  0.40477441  1
  O  O39  1  0.02860423  0.19790361  0.90682910  1
  O  O40  1  0.16929939  0.97139577  0.90682910  1
  O  O41  1  0.80209639  0.83070061  0.90682910  1
  O  O42  1  0.96992735  0.17244190  0.59389679  1
  O  O43  1  0.20251455  0.03007265  0.59389679  1
  O  O44  1  0.82755810  0.79748545  0.59389679  1
  O  O45  1  0.97126359  0.80070449  0.09214768  1
  O  O46  1  0.82944089  0.02873641  0.09214768  1
  O  O47  1  0.19929551  0.17055911  0.09214768  1
  O  O48  1  0.69361968  0.17109354  0.73876551  1
  O  O49  1  0.47747486  0.30638032  0.73876551  1
  O  O50  1  0.82890646  0.52252514  0.73876551  1
  O  O51  1  0.69650213  0.52637736  0.23877338  1
  O  O52  1  0.82987622  0.30349787  0.23877338  1
  O  O53  1  0.47362264  0.17012378  0.23877338  1
  O  O54  1  0.63900421  0.50409039  0.92540973  1
  O  O55  1  0.86508718  0.36099579  0.92540973  1
  O  O56  1  0.49590961  0.13491282  0.92540973  1
  O  O57  1  0.64212064  0.13318749  0.42652053  1
  O  O58  1  0.49106785  0.35787936  0.42652053  1
  O  O59  1  0.86681251  0.50893215  0.42652053  1
  O  O60  1  0.36524823  0.49669298  0.07466885  1
  O  O61  1  0.13144375  0.63475177  0.07466885  1
  O  O62  1  0.50330702  0.86855625  0.07466885  1
  O  O63  1  0.36402084  0.86629757  0.57488157  1
  O  O64  1  0.50227573  0.63597916  0.57488157  1
  O  O65  1  0.13370243  0.49772427  0.57488157  1
  O  O66  1  0.30711248  0.84211742  0.25986878  1
  O  O67  1  0.53500394  0.69288752  0.25986878  1
  O  O68  1  0.15788258  0.46499606  0.25986878  1
  O  O69  1  0.30888979  0.46691837  0.75940158  1
  O  O70  1  0.15802758  0.69111021  0.75940158  1
  O  O71  1  0.53308163  0.84197242  0.75940158  1
loop_
_geom_bond_atom_site_label_1
_geom_bond_atom_site_label_2
_geom_bond_distance
_geom_bond_site_symmetry_2
Nb0 O4 1.987482 1_445
Nb0 O3 1.987482 1_555
Nb0 O5 1.987482 1_455
Nb0 O39 1.993380 1_555
Nb0 O41 1.993380 1_445
Nb0 O40 1.993380 1_545
Nb1 O44 1.939473 1_445
Nb1 O42 1.939473 1_455
Nb1 O43 1.939473 1_555
Nb1 O7 2.034691 1_555
Nb1 O8 2.034691 1_545
Nb1 O6 2.034691 1_445
Nb2 O11 1.943081 1_545
Nb2 O9 1.943081 1_445
Nb2 O10 1.943081 1_555
Nb2 O45 2.038013 1_445
Nb2 O47 2.038013 1_555
Nb2 O46 2.038013 1_455
Nb3 O19 1.969623 1_556
Nb3 O20 1.969623 1_556
Nb3 O18 1.969623 1_556
Nb3 O56 1.997805 1_555
Nb3 O54 1.997805 1_555
Nb3 O55 1.997805 1_555
Nb4 O57 1.945748 1_555
Nb4 O59 1.945748 1_555
Nb4 O58 1.945748 1_555
Nb4 O22 2.034851 1_555
Nb4 O21 2.034851 1_555
Nb4 O23 2.034851 1_555
Nb5 O62 1.935464 1_555
Nb5 O60 1.935464 1_555
Nb5 O61 1.935464 1_555
Nb5 O25 2.050146 1_554
Nb5 O26 2.050146 1_554
Nb5 O24 2.050146 1_554
Nb6 O28 1.993367 1_555
Nb6 O27 1.993367 1_555
Nb6 O29 1.993367 1_555
Nb6 O63 2.006301 1_555
Nb6 O65 2.006301 1_555
Nb6 O64 2.006301 1_555
Nb7 O68 1.949833 1_555
Nb7 O66 1.949833 1_555
Nb7 O67 1.949833 1_555
Nb7 O31 2.033176 1_555
Nb7 O32 2.033176 1_555
Nb7 O30 2.033176 1_555
Nb8 O69 1.939589 1_555
Nb8 O71 1.939589 1_555
Nb8 O70 1.939589 1_555
Nb8 O34 2.035349 1_555
Nb8 O33 2.035349 1_555
Nb8 O35 2.035349 1_555
Al0 O2 1.919476 1_455
Al0 O1 1.919476 1_445
Al0 O0 1.919476 1_555
Al0 O38 1.923841 1_555
Al0 O37 1.923841 1_445
Al0 O36 1.923841 1_545
Al1 O13 1.904204 1_555
Al1 O14 1.904204 1_555
Al1 O12 1.904204 1_555
Al1 O50 1.911524 1_555
Al1 O48 1.911524 1_555
Al1 O49 1.911524 1_555
Al2 O52 1.870644 1_555
Al2 O53 1.870644 1_555
Al2 O51 1.870644 1_555
Al2 O16 1.961051 1_555
Al2 O15 1.961051 1_555
Al2 O17 1.961051 1_555
O0 P0 1.506722 1_555
O1 P1 1.506722 1_555
O2 P2 1.506722 1_555
O3 P3 1.569865 1_555
O4 P4 1.569865 1_555
O5 P5 1.569865 1_555
O6 P5 1.535921 1_565
O7 P3 1.535921 1_555
O8 P4 1.535921 1_455
O9 P1 1.589827 1_555
O10 P2 1.589827 1_455
O11 P0 1.589827 1_565
O12 P6 1.503710 1_555
O13 P7 1.503710 1_555
O14 P8 1.503710 1_555
O15 P9 1.492690 1_555
O16 P10 1.492690 1_555
O17 P11 1.492690 1_555
O18 P11 1.568888 1_555
O19 P9 1.568888 1_555
O20 P10 1.568888 1_555
O21 P7 1.537526 1_555
O22 P8 1.537526 1_555
O23 P6 1.537526 1_555
O24 P12 1.531203 1_555
O25 P13 1.531203 1_555
O26 P14 1.531203 1_555
O27 P15 1.574627 1_555
O28 P16 1.574627 1_555
O29 P17 1.574627 1_555
O30 P17 1.536996 1_555
O31 P15 1.536996 1_555
O32 P16 1.536996 1_555
O33 P13 1.534162 1_555
O34 P14 1.534162 1_555
O35 P12 1.534162 1_555
O36 P17 1.496902 1_555
O37 P15 1.496910 1_555
O38 P16 1.496907 1_555
O39 P13 1.545307 1_555
O40 P14 1.545299 1_555
O41 P12 1.545304 1_555
O42 P6 1.573118 1_555
O43 P7 1.573126 1_555
O44 P8 1.573123 1_555
O45 P9 1.532398 1_555
O46 P10 1.532389 1_555
O47 P11 1.532394 1_555
O48 P5 1.493296 1_555
O49 P3 1.493305 1_555
O50 P4 1.493301 1_555
O51 P1 1.510583 1_555
O52 P2 1.510575 1_555
O53 P0 1.510580 1_555
O54 P12 1.540235 1_555
O55 P13 1.540218 1_655
O56 P14 1.540224 1_545
O57 P15 1.573172 1_545
O58 P16 1.573189 1_555
O59 P17 1.573180 1_655
O60 P11 1.578856 1_555
O61 P9 1.578839 1_455
O62 P10 1.578846 1_565
O63 P7 1.552684 1_565
O64 P8 1.552701 1_555
O65 P6 1.552690 1_455
O66 P0 1.579141 1_565
O67 P1 1.579150 1_555
O68 P2 1.579146 1_455
O69 P3 1.573336 1_555
O70 P4 1.573328 1_455
O71 P5 1.573332 1_565
