# generated using pymatgen
data_NbGe(PO4)3
_symmetry_space_group_name_H-M   'P 1'
_cell_length_a   8.58782334
_cell_length_b   8.58782308
_cell_length_c   21.99081758
_cell_angle_alpha   90.00000000
_cell_angle_beta   90.00000000
_cell_angle_gamma   120.00000102
_symmetry_Int_Tables_number   1
_chemical_formula_structural   NbGe(PO4)3
_chemical_formula_sum   'Nb6 Ge6 P18 O72'
_cell_volume   1404.55320082
_cell_formula_units_Z   6
loop_
 _symmetry_equiv_pos_site_id
 _symmetry_equiv_pos_as_xyz
  1  'x, y, z'
loop_
 _atom_site_type_symbol
 _atom_site_label
 _atom_site_symmetry_multiplicity
 _atom_site_fract_x
 _atom_site_fract_y
 _atom_site_fract_z
 _atom_site_occupancy
  Nb  Nb0  1  -0.00000000  -0.00000000  0.63733733  1
  Nb  Nb1  1  -0.00000000  -0.00000000  0.13733733  1
  Nb  Nb2  1  0.66666700  0.33333300  0.97067033  1
  Nb  Nb3  1  0.66666700  0.33333300  0.47067033  1
  Nb  Nb4  1  0.33333300  0.66666700  0.30400433  1
  Nb  Nb5  1  0.33333300  0.66666700  0.80400433  1
  Ge  Ge0  1  -0.00000000  -0.00000000  0.35494645  1
  Ge  Ge1  1  -0.00000000  -0.00000000  0.85494645  1
  Ge  Ge2  1  0.66666700  0.33333300  0.68827945  1
  Ge  Ge3  1  0.66666700  0.33333300  0.18827945  1
  Ge  Ge4  1  0.33333300  0.66666700  0.02161345  1
  Ge  Ge5  1  0.33333300  0.66666700  0.52161345  1
  P  P0  1  0.29089734  0.02089913  0.25043543  1
  P  P1  1  0.73000179  0.70910266  0.25043543  1
  P  P2  1  0.97910087  0.26999821  0.25043543  1
  P  P3  1  0.29089734  0.26999821  0.75043543  1
  P  P4  1  0.97910087  0.70910266  0.75043543  1
  P  P5  1  0.73000179  0.02089913  0.75043543  1
  P  P6  1  0.95756434  0.35423213  0.58376843  1
  P  P7  1  0.39666879  0.04243566  0.58376843  1
  P  P8  1  0.64576787  0.60333121  0.58376843  1
  P  P9  1  0.95756434  0.60333121  0.08376843  1
  P  P10  1  0.64576787  0.04243566  0.08376843  1
  P  P11  1  0.39666879  0.35423213  0.08376843  1
  P  P12  1  0.62423034  0.68756613  0.91710243  1
  P  P13  1  0.06333479  0.37576966  0.91710243  1
  P  P14  1  0.31243387  0.93666521  0.91710243  1
  P  P15  1  0.62423034  0.93666521  0.41710243  1
  P  P16  1  0.31243387  0.37576966  0.41710243  1
  P  P17  1  0.06333479  0.68756613  0.41710243  1
  O  O0  1  0.20806891  0.05263005  0.30780749  1
  O  O1  1  0.84456114  0.79193109  0.30780749  1
  O  O2  1  0.94736995  0.15543886  0.30780749  1
  O  O3  1  0.20806891  0.15543886  0.80780749  1
  O  O4  1  0.94736995  0.79193109  0.80780749  1
  O  O5  1  0.84456114  0.05263005  0.80780749  1
  O  O6  1  0.80773876  0.97904560  0.69408986  1
  O  O7  1  0.17130684  0.19226124  0.69408986  1
  O  O8  1  0.02095440  0.82869316  0.69408986  1
  O  O9  1  0.80773876  0.82869316  0.19408986  1
  O  O10  1  0.02095440  0.19226124  0.19408986  1
  O  O11  1  0.17130684  0.97904560  0.19408986  1
  O  O12  1  0.87473591  0.38596305  0.64114049  1
  O  O13  1  0.51122814  0.12526409  0.64114049  1
  O  O14  1  0.61403695  0.48877186  0.64114049  1
  O  O15  1  0.87473591  0.48877186  0.14114049  1
  O  O16  1  0.61403695  0.12526409  0.14114049  1
  O  O17  1  0.51122814  0.38596305  0.14114049  1
  O  O18  1  0.47440576  0.31237860  0.02742286  1
  O  O19  1  0.83797384  0.52559424  0.02742286  1
  O  O20  1  0.68762140  0.16202616  0.02742286  1
  O  O21  1  0.47440576  0.16202616  0.52742286  1
  O  O22  1  0.68762140  0.52559424  0.52742286  1
  O  O23  1  0.83797384  0.31237860  0.52742286  1
  O  O24  1  0.54140191  0.71929705  0.97447449  1
  O  O25  1  0.17789414  0.45859809  0.97447449  1
  O  O26  1  0.28070295  0.82210586  0.97447449  1
  O  O27  1  0.54140191  0.82210586  0.47447449  1
  O  O28  1  0.28070295  0.45859809  0.47447449  1
  O  O29  1  0.17789414  0.71929705  0.47447449  1
  O  O30  1  0.14107176  0.64571260  0.36075686  1
  O  O31  1  0.50463984  0.85892824  0.36075686  1
  O  O32  1  0.35428740  0.49536016  0.36075686  1
  O  O33  1  0.14107176  0.49536016  0.86075686  1
  O  O34  1  0.35428740  0.85892824  0.86075686  1
  O  O35  1  0.50463984  0.64571260  0.86075686  1
  O  O36  1  0.04033776  0.85100850  0.40783676  1
  O  O37  1  0.81067074  0.95966224  0.40783676  1
  O  O38  1  0.14899150  0.18932926  0.40783676  1
  O  O39  1  0.04033776  0.18932926  0.90783676  1
  O  O40  1  0.14899150  0.95966224  0.90783676  1
  O  O41  1  0.81067074  0.85100850  0.90783676  1
  O  O42  1  0.97760877  0.18438455  0.59240254  1
  O  O43  1  0.20677578  0.02239123  0.59240254  1
  O  O44  1  0.81561545  0.79322422  0.59240254  1
  O  O45  1  0.97760877  0.79322422  0.09240254  1
  O  O46  1  0.81561545  0.02239123  0.09240254  1
  O  O47  1  0.20677578  0.18438455  0.09240254  1
  O  O48  1  0.70700476  0.18434150  0.74116976  1
  O  O49  1  0.47733774  0.29299524  0.74116976  1
  O  O50  1  0.81565850  0.52266226  0.74116976  1
  O  O51  1  0.70700476  0.52266226  0.24116976  1
  O  O52  1  0.81565850  0.29299524  0.24116976  1
  O  O53  1  0.47733774  0.18434150  0.24116976  1
  O  O54  1  0.64427577  0.51771755  0.92573554  1
  O  O55  1  0.87344278  0.35572423  0.92573554  1
  O  O56  1  0.48228245  0.12655722  0.92573554  1
  O  O57  1  0.64427577  0.12655722  0.42573554  1
  O  O58  1  0.48228245  0.35572423  0.42573554  1
  O  O59  1  0.87344278  0.51771755  0.42573554  1
  O  O60  1  0.37367076  0.51767550  0.07450376  1
  O  O61  1  0.14400374  0.62632924  0.07450376  1
  O  O62  1  0.48232450  0.85599626  0.07450376  1
  O  O63  1  0.37367076  0.85599626  0.57450376  1
  O  O64  1  0.48232450  0.62632924  0.57450376  1
  O  O65  1  0.14400374  0.51767550  0.57450376  1
  O  O66  1  0.31094177  0.85105155  0.25906954  1
  O  O67  1  0.54010878  0.68905823  0.25906954  1
  O  O68  1  0.14894845  0.45989122  0.25906954  1
  O  O69  1  0.31094177  0.45989122  0.75906954  1
  O  O70  1  0.14894845  0.68905823  0.75906954  1
  O  O71  1  0.54010878  0.85105155  0.75906954  1
loop_
_geom_bond_atom_site_label_1
_geom_bond_atom_site_label_2
_geom_bond_distance
_geom_bond_site_symmetry_2
Nb0 O44 1.955827 1_445
Nb0 O42 1.955827 1_455
Nb0 O43 1.955827 1_555
Nb0 O7 2.004745 1_555
Nb0 O8 2.004745 1_545
Nb0 O6 2.004745 1_445
Nb1 O45 1.955827 1_445
Nb1 O47 1.955827 1_555
Nb1 O46 1.955827 1_455
Nb1 O10 2.004745 1_555
Nb1 O9 2.004745 1_445
Nb1 O11 2.004745 1_545
Nb2 O56 1.955827 1_555
Nb2 O54 1.955827 1_555
Nb2 O55 1.955827 1_555
Nb2 O19 2.004745 1_556
Nb2 O20 2.004745 1_556
Nb2 O18 2.004745 1_556
Nb3 O57 1.955827 1_555
Nb3 O59 1.955827 1_555
Nb3 O58 1.955827 1_555
Nb3 O22 2.004745 1_555
Nb3 O21 2.004745 1_555
Nb3 O23 2.004745 1_555
Nb4 O68 1.955827 1_555
Nb4 O66 1.955827 1_555
Nb4 O67 1.955827 1_555
Nb4 O31 2.004745 1_555
Nb4 O32 2.004745 1_555
Nb4 O30 2.004745 1_555
Nb5 O69 1.955827 1_555
Nb5 O71 1.955827 1_555
Nb5 O70 1.955827 1_555
Nb5 O34 2.004745 1_555
Nb5 O33 2.004745 1_555
Nb5 O35 2.004745 1_555
Ge0 O38 1.884993 1_555
Ge0 O36 1.884993 1_545
Ge0 O37 1.884993 1_445
Ge0 O1 1.914189 1_445
Ge0 O2 1.914189 1_455
Ge0 O0 1.914189 1_555
Ge1 O39 1.884993 1_555
Ge1 O41 1.884993 1_445
Ge1 O40 1.884993 1_545
Ge1 O4 1.914189 1_445
Ge1 O3 1.914189 1_555
Ge1 O5 1.914189 1_455
Ge2 O50 1.884993 1_555
Ge2 O48 1.884993 1_555
Ge2 O49 1.884993 1_555
Ge2 O13 1.914189 1_555
Ge2 O14 1.914189 1_555
Ge2 O12 1.914189 1_555
Ge3 O51 1.884993 1_555
Ge3 O53 1.884993 1_555
Ge3 O52 1.884993 1_555
Ge3 O16 1.914189 1_555
Ge3 O15 1.914189 1_555
Ge3 O17 1.914189 1_555
Ge4 O62 1.884993 1_555
Ge4 O60 1.884993 1_555
Ge4 O61 1.884993 1_555
Ge4 O25 1.914189 1_554
Ge4 O26 1.914189 1_554
Ge4 O24 1.914189 1_554
Ge5 O63 1.884993 1_555
Ge5 O65 1.884993 1_555
Ge5 O64 1.884993 1_555
Ge5 O28 1.914189 1_555
Ge5 O27 1.914189 1_555
Ge5 O29 1.914189 1_555
O0 P0 1.538129 1_555
O1 P1 1.538129 1_555
O2 P2 1.538129 1_555
O3 P3 1.538129 1_555
O4 P4 1.538129 1_555
O5 P5 1.538129 1_555
O6 P5 1.533021 1_565
O7 P3 1.533021 1_555
O8 P4 1.533021 1_455
O9 P1 1.533021 1_555
O10 P2 1.533021 1_455
O11 P0 1.533021 1_565
O12 P6 1.538129 1_555
O13 P7 1.538129 1_555
O14 P8 1.538129 1_555
O15 P9 1.538129 1_555
O16 P10 1.538129 1_555
O17 P11 1.538129 1_555
O18 P11 1.533021 1_555
O19 P9 1.533021 1_555
O20 P10 1.533021 1_555
O21 P7 1.533021 1_555
O22 P8 1.533021 1_555
O23 P6 1.533021 1_555
O24 P12 1.538129 1_555
O25 P13 1.538129 1_555
O26 P14 1.538129 1_555
O27 P15 1.538129 1_555
O28 P16 1.538129 1_555
O29 P17 1.538129 1_555
O30 P17 1.533021 1_555
O31 P15 1.533021 1_555
O32 P16 1.533021 1_555
O33 P13 1.533021 1_555
O34 P14 1.533021 1_555
O35 P12 1.533021 1_555
O36 P17 1.525733 1_555
O37 P15 1.525741 1_555
O38 P16 1.525738 1_555
O39 P13 1.525741 1_555
O40 P14 1.525733 1_555
O41 P12 1.525738 1_555
O42 P6 1.563439 1_555
O43 P7 1.563448 1_555
O44 P8 1.563444 1_555
O45 P9 1.563448 1_555
O46 P10 1.563439 1_555
O47 P11 1.563444 1_555
O48 P5 1.525733 1_555
O49 P3 1.525741 1_555
O50 P4 1.525738 1_555
O51 P1 1.525741 1_555
O52 P2 1.525733 1_555
O53 P0 1.525738 1_555
O54 P12 1.563450 1_555
O55 P13 1.563433 1_655
O56 P14 1.563440 1_545
O57 P15 1.563433 1_545
O58 P16 1.563450 1_555
O59 P17 1.563440 1_655
O60 P11 1.525743 1_555
O61 P9 1.525727 1_455
O62 P10 1.525733 1_565
O63 P7 1.525727 1_565
O64 P8 1.525743 1_555
O65 P6 1.525733 1_455
O66 P0 1.563439 1_565
O67 P1 1.563448 1_555
O68 P2 1.563444 1_455
O69 P3 1.563448 1_555
O70 P4 1.563439 1_455
O71 P5 1.563444 1_565
