# generated using pymatgen
data_Na21Mg8Nb4Si3(P5O24)3
_symmetry_space_group_name_H-M   'P 1'
_cell_length_a   9.00446276
_cell_length_b   9.00434013
_cell_length_c   22.19576148
_cell_angle_alpha   89.85308547
_cell_angle_beta   90.10519532
_cell_angle_gamma   119.90783230
_symmetry_Int_Tables_number   1
_chemical_formula_structural   Na21Mg8Nb4Si3(P5O24)3
_chemical_formula_sum   'Na21 Mg8 Nb4 Si3 P15 O72'
_cell_volume   1559.95280980
_cell_formula_units_Z   1
loop_
 _symmetry_equiv_pos_site_id
 _symmetry_equiv_pos_as_xyz
  1  'x, y, z'
loop_
 _atom_site_type_symbol
 _atom_site_label
 _atom_site_symmetry_multiplicity
 _atom_site_fract_x
 _atom_site_fract_y
 _atom_site_fract_z
 _atom_site_occupancy
  Na  Na0  1  0.64832750  0.01102081  0.24442637  1
  Na  Na1  1  0.99048295  0.63474332  0.24428126  1
  Na  Na2  1  0.64602604  0.63647916  0.74689326  1
  Na  Na3  1  0.98863986  0.35129523  0.74789106  1
  Na  Na4  1  0.36514798  0.01031187  0.74730645  1
  Na  Na5  1  0.29665979  0.33364958  0.58541717  1
  Na  Na6  1  0.04055886  0.70532573  0.58219931  1
  Na  Na7  1  0.66409069  0.95866817  0.58274670  1
  Na  Na8  1  0.29560764  0.96257072  0.08494991  1
  Na  Na9  1  0.66630350  0.70238673  0.08456783  1
  Na  Na10  1  0.04117069  0.33631844  0.08201151  1
  Na  Na11  1  0.97327207  0.67508012  0.91521524  1
  Na  Na12  1  0.97284612  0.29331116  0.41009176  1
  Na  Na13  1  0.31771240  0.02223384  0.41232148  1
  Na  Na14  1  0.71048430  0.68679985  0.41256205  1
  Na  Na15  1  0.99525229  0.99461779  0.49693887  1
  Na  Na16  1  0.00168751  0.01600382  0.99509448  1
  Na  Na17  1  0.65853881  0.32281437  0.83166833  1
  Na  Na18  1  0.65631918  0.33454030  0.32368819  1
  Na  Na19  1  0.33347493  0.65422870  0.16151410  1
  Na  Na20  1  0.33519723  0.66846907  0.66258892  1
  Mg  Mg0  1  0.99890580  0.99872629  0.34920133  1
  Mg  Mg1  1  0.00008309  0.00774591  0.85245794  1
  Mg  Mg2  1  0.99906859  0.00048003  0.65051786  1
  Mg  Mg3  1  0.00201047  0.00323564  0.14997365  1
  Mg  Mg4  1  0.66710689  0.33308549  0.68450413  1
  Mg  Mg5  1  0.66168071  0.33372764  0.18470135  1
  Mg  Mg6  1  0.33287078  0.66347804  0.01696792  1
  Mg  Mg7  1  0.33509910  0.66938633  0.51713172  1
  Nb  Nb0  1  0.66484006  0.32852908  0.97920817  1
  Nb  Nb1  1  0.66917571  0.33287094  0.47987091  1
  Nb  Nb2  1  0.33181351  0.66733719  0.31280368  1
  Nb  Nb3  1  0.33159480  0.66392533  0.81828162  1
  Si  Si0  1  0.03849174  0.36246423  0.92226337  1
  Si  Si1  1  0.62879853  0.95679452  0.41993072  1
  Si  Si2  1  0.04346352  0.67255724  0.42012378  1
  P  P0  1  0.29510197  0.00527697  0.25062046  1
  P  P1  1  0.70594946  0.70441934  0.25013598  1
  P  P2  1  0.00076998  0.29357452  0.24985831  1
  P  P3  1  0.29368660  0.29223940  0.74922691  1
  P  P4  1  0.00056537  0.70687919  0.75032734  1
  P  P5  1  0.70605617  -0.00101349  0.74874497  1
  P  P6  1  0.96251854  0.33367709  0.58590823  1
  P  P7  1  0.37240510  0.03910099  0.58579504  1
  P  P8  1  0.66528458  0.62632224  0.58551818  1
  P  P9  1  0.96020246  0.62684832  0.08523451  1
  P  P10  1  0.66550455  0.03870035  0.08577309  1
  P  P11  1  0.37557388  0.33485670  0.08489954  1
  P  P12  1  0.62872694  0.66867227  0.92003995  1
  P  P13  1  0.33201705  0.95925903  0.91914677  1
  P  P14  1  0.33233609  0.37572014  0.41962156  1
  O  O0  1  0.21235045  0.01946442  0.30862248  1
  O  O1  1  0.81117499  0.78774154  0.30711705  1
  O  O2  1  0.97721098  0.18821529  0.30684380  1
  O  O3  1  0.20681588  0.17578195  0.80230737  1
  O  O4  1  0.97530413  0.78836854  0.80644691  1
  O  O5  1  0.82109398  0.02521830  0.80196592  1
  O  O6  1  0.77408989  0.96099230  0.69008597  1
  O  O7  1  0.18629569  0.22804487  0.69064236  1
  O  O8  1  0.03673409  0.81741246  0.69302612  1
  O  O9  1  0.77910201  0.81848963  0.19380142  1
  O  O10  1  0.02767392  0.21680007  0.19249284  1
  O  O11  1  0.18244512  0.96438074  0.19436862  1
  O  O12  1  0.87568090  0.35928031  0.64047424  1
  O  O13  1  0.48297298  0.12661957  0.64079950  1
  O  O14  1  0.64314368  0.51670249  0.64084968  1
  O  O15  1  0.87583183  0.51478519  0.14050842  1
  O  O16  1  0.63899545  0.12161137  0.14153431  1
  O  O17  1  0.49027006  0.36150835  0.13850767  1
  O  O18  1  0.47289819  0.31326001  0.02769973  1
  O  O19  1  0.84162649  0.52953876  0.02791588  1
  O  O20  1  0.68517565  0.16107610  0.02948424  1
  O  O21  1  0.47000478  0.15673970  0.52839531  1
  O  O22  1  0.68481277  0.52812111  0.52815779  1
  O  O23  1  0.84288630  0.31373741  0.52816596  1
  O  O24  1  0.54632503  0.69129957  0.97569753  1
  O  O25  1  0.14369557  0.46201188  0.97987863  1
  O  O26  1  0.31098350  0.85272370  0.97486894  1
  O  O27  1  0.54687026  0.84369380  0.47871432  1
  O  O28  1  0.30465942  0.45199211  0.47649434  1
  O  O29  1  0.15236912  0.69443382  0.47917756  1
  O  O30  1  0.13208320  0.63042786  0.36061925  1
  O  O31  1  0.49831211  0.86427651  0.36054484  1
  O  O32  1  0.36639931  0.49806455  0.36449765  1
  O  O33  1  0.13728859  0.50077323  0.86125588  1
  O  O34  1  0.36285245  0.86932811  0.86173239  1
  O  O35  1  0.50958754  0.64305000  0.86252259  1
  O  O36  1  0.01449585  0.83319471  0.41087012  1
  O  O37  1  0.82125647  0.99507602  0.41028828  1
  O  O38  1  0.18118127  0.19602174  0.40989843  1
  O  O39  1  0.01111642  0.17770212  0.91082538  1
  O  O40  1  0.17205931  0.97091706  0.90849403  1
  O  O41  1  0.80992870  0.81396483  0.90964203  1
  O  O42  1  0.97009048  0.16654185  0.58509107  1
  O  O43  1  0.19608437  0.02862110  0.58554899  1
  O  O44  1  0.83073477  0.80228000  0.58499895  1
  O  O45  1  0.96909010  0.80267180  0.08569159  1
  O  O46  1  0.83137192  0.02957679  0.08540930  1
  O  O47  1  0.19898860  0.16962486  0.08577939  1
  O  O48  1  0.67804732  0.15513819  0.74428725  1
  O  O49  1  0.47832698  0.32322425  0.74423775  1
  O  O50  1  0.84682163  0.52277502  0.74489713  1
  O  O51  1  0.68800066  0.52690623  0.24477522  1
  O  O52  1  0.84476634  0.32227174  0.24638037  1
  O  O53  1  0.48089075  0.15004097  0.24602645  1
  O  O54  1  0.63812125  0.49801484  0.92181799  1
  O  O55  1  0.84928958  0.36516731  0.92236007  1
  O  O56  1  0.49777988  0.13965085  0.92179369  1
  O  O57  1  0.63411082  0.14827735  0.42341063  1
  O  O58  1  0.50161229  0.36390654  0.42299258  1
  O  O59  1  0.84824226  0.49140757  0.42335928  1
  O  O60  1  0.35777898  0.49592648  0.07850290  1
  O  O61  1  0.14088014  0.64957536  0.07919257  1
  O  O62  1  0.50573963  0.86107458  0.07776323  1
  O  O63  1  0.35543438  0.86097438  0.58042134  1
  O  O64  1  0.50299102  0.64113762  0.57960875  1
  O  O65  1  0.14064860  0.49250936  0.57890885  1
  O  O66  1  0.30975004  0.82983387  0.25699431  1
  O  O67  1  0.52166632  0.68809676  0.25832810  1
  O  O68  1  0.16554824  0.48055587  0.25688925  1
  O  O69  1  0.31478729  0.48026960  0.75831287  1
  O  O70  1  0.16992565  0.68967606  0.75657707  1
  O  O71  1  0.51965696  0.83305096  0.75691005  1
loop_
_geom_bond_atom_site_label_1
_geom_bond_atom_site_label_2
_geom_bond_distance
_geom_bond_site_symmetry_2
Na0 O53 2.392441 1_555
Na0 O52 2.458064 1_555
Na0 O16 2.507058 1_555
Na0 O67 2.557430 1_545
Na0 O66 2.659870 1_545
Na0 O9 2.775834 1_545
Na0 O31 2.903223 1_545
Na0 O2 2.918812 1_555
Na1 O51 2.392525 1_555
Na1 O52 2.440951 1_555
Na1 O66 2.528569 1_655
Na1 O15 2.535705 1_555
Na1 O68 2.582563 1_655
Na1 O11 2.810527 1_655
Na1 O30 2.886492 1_655
Na1 O1 2.947227 1_555
Na2 O49 2.448036 1_555
Na2 O50 2.483097 1_555
Na2 O71 2.547254 1_555
Na2 O14 2.586257 1_555
Na2 O69 2.599253 1_555
Na2 O6 2.843259 1_555
Na2 O35 2.860859 1_555
Na2 O4 2.891353 1_555
Na3 O50 2.446364 1_555
Na3 O48 2.453906 1_555
Na3 O69 2.573850 1_655
Na3 O12 2.605240 1_555
Na3 O70 2.650932 1_655
Na3 O5 2.812237 1_555
Na3 O7 2.828268 1_655
Na3 O33 2.853593 1_655
Na4 O48 2.445327 1_555
Na4 O49 2.473414 1_555
Na4 O70 2.530837 1_545
Na4 O13 2.588323 1_555
Na4 O71 2.596203 1_545
Na4 O3 2.806579 1_555
Na4 O34 2.831942 1_545
Na4 O8 2.844110 1_545
Na5 O43 2.425571 1_555
Na5 O64 2.450231 1_555
Na5 O65 2.458150 1_555
Na5 O7 2.530097 1_555
Na5 O42 2.549277 1_455
Na5 O28 2.626115 1_555
Na6 O44 2.445648 1_455
Na6 O63 2.458079 1_555
Na6 O65 2.492565 1_555
Na6 O29 2.521917 1_555
Na6 O43 2.525147 1_565
Na6 O8 2.668061 1_555
Na7 O42 2.440327 1_565
Na7 O63 2.462230 1_555
Na7 O64 2.479632 1_555
Na7 O44 2.518643 1_555
Na7 O27 2.536008 1_555
Na7 O6 2.574609 1_555
Na8 O47 2.418866 1_565
Na8 O61 2.446611 1_555
Na8 O62 2.483358 1_555
Na8 O45 2.548774 1_455
Na8 O11 2.638686 1_555
Na8 O26 2.667874 1_554
Na9 O45 2.407118 1_555
Na9 O60 2.457984 1_555
Na9 O62 2.492592 1_555
Na9 O46 2.553953 1_565
Na9 O24 2.626876 1_554
Na9 O9 2.635895 1_555
Na10 O46 2.449364 1_455
Na10 O60 2.472556 1_555
Na10 O25 2.494937 1_554
Na10 O61 2.498015 1_555
Na10 O47 2.530862 1_555
Na10 O10 2.653949 1_555
Na11 O40 2.359290 1_655
Na11 O41 2.361206 1_555
Na11 O55 2.439346 1_555
Na11 O4 2.614990 1_555
Na11 O54 2.621677 1_555
Na11 O19 2.797304 1_556
Na11 O33 2.899421 1_655
Na11 O26 2.950318 1_655
Na12 O37 2.327932 1_545
Na12 O38 2.434227 1_655
Na12 O2 2.489447 1_555
Na12 O59 2.554784 1_555
Na12 O57 2.669328 1_555
Na12 O30 2.850333 1_655
Na12 O23 2.915462 1_555
Na12 O28 2.979636 1_655
Na13 O36 2.391327 1_545
Na13 O38 2.425036 1_555
Na13 O0 2.483367 1_555
Na13 O57 2.497977 1_555
Na13 O58 2.680532 1_555
Na13 O31 2.882696 1_545
Na13 O21 2.886472 1_555
Na13 O29 2.955360 1_545
Na14 O36 2.373692 1_655
Na14 O37 2.437436 1_555
Na14 O1 2.510157 1_555
Na14 O58 2.566959 1_555
Na14 O59 2.620036 1_555
Na14 O22 2.886506 1_555
Na14 O32 2.893465 1_555
Na14 O27 2.901081 1_555
Na15 O36 2.461464 1_655
Na15 O37 2.479721 1_555
Na15 O44 2.539500 1_555
Na15 O42 2.577414 1_565
Na15 O43 2.582647 1_665
Na15 O38 2.605819 1_665
Na16 O39 2.342842 1_555
Na16 O46 2.566080 1_456
Na16 O47 2.582951 1_556
Na16 O41 2.600313 1_445
Na16 O40 2.617043 1_545
Na16 O45 2.690682 1_446
Na17 O48 2.520469 1_555
Na17 O49 2.528529 1_555
Na17 O56 2.535755 1_555
Na17 O55 2.546706 1_555
Na17 O50 2.603003 1_555
Na17 O54 2.614008 1_555
Na18 O53 2.369445 1_555
Na18 O51 2.375509 1_555
Na18 O52 2.456519 1_555
Na18 O58 2.692643 1_555
Na18 O57 2.720339 1_555
Na18 O59 2.728299 1_555
Na19 O60 2.408422 1_555
Na19 O61 2.502831 1_555
Na19 O62 2.538194 1_555
Na19 O68 2.617256 1_555
Na19 O67 2.656464 1_555
Na19 O66 2.718971 1_555
Na20 O63 2.456418 1_555
Na20 O64 2.473653 1_555
Na20 O65 2.502837 1_555
Na20 O71 2.624190 1_555
Na20 O70 2.626775 1_555
Na20 O69 2.663098 1_555
Mg0 O1 2.034706 1_555
Mg0 O2 2.038808 1_565
Mg0 O0 2.046363 1_665
Mg0 O36 2.076623 1_655
Mg0 O37 2.086531 1_555
Mg0 O38 2.182051 1_665
Mg1 O39 1.971864 1_555
Mg1 O5 2.030675 1_455
Mg1 O3 2.045455 1_555
Mg1 O40 2.134912 1_545
Mg1 O4 2.136523 1_445
Mg1 O41 2.145840 1_445
Mg2 O8 2.066595 1_645
Mg2 O6 2.070819 1_545
Mg2 O7 2.095955 1_655
Mg2 O42 2.188462 1_555
Mg2 O43 2.202287 1_655
Mg2 O44 2.214722 1_545
Mg3 O10 2.051189 1_555
Mg3 O11 2.071782 1_545
Mg3 O9 2.100371 1_445
Mg3 O47 2.183841 1_555
Mg3 O46 2.196441 1_455
Mg3 O45 2.205188 1_445
Mg4 O14 2.016371 1_555
Mg4 O13 2.018859 1_555
Mg4 O12 2.025281 1_555
Mg4 O48 2.117507 1_555
Mg4 O49 2.124242 1_555
Mg4 O50 2.140185 1_555
Mg5 O17 1.968243 1_555
Mg5 O15 2.049931 1_555
Mg5 O16 2.056043 1_555
Mg5 O51 2.111728 1_555
Mg5 O53 2.133087 1_555
Mg5 O52 2.182487 1_555
Mg6 O25 1.947098 1_554
Mg6 O24 2.030083 1_554
Mg6 O26 2.035133 1_554
Mg6 O60 2.125476 1_555
Mg6 O62 2.156917 1_555
Mg6 O61 2.168847 1_555
Mg7 O29 1.957506 1_555
Mg7 O27 1.959915 1_555
Mg7 O28 2.047821 1_555
Mg7 O64 2.155721 1_555
Mg7 O63 2.163196 1_555
Mg7 O65 2.167769 1_555
Nb0 O20 1.954026 1_556
Nb0 O55 1.979543 1_555
Nb0 O18 1.983327 1_556
Nb0 O19 2.027144 1_556
Nb0 O56 2.057221 1_555
Nb0 O54 2.089150 1_555
Nb1 O23 1.971549 1_555
Nb1 O59 1.978354 1_555
Nb1 O57 1.979585 1_555
Nb1 O22 2.005410 1_555
Nb1 O21 2.013354 1_555
Nb1 O58 2.088084 1_555
Nb2 O31 1.966670 1_555
Nb2 O30 1.969885 1_555
Nb2 O66 1.998621 1_555
Nb2 O68 2.025634 1_555
Nb2 O67 2.026614 1_555
Nb2 O32 2.049318 1_555
Nb3 O33 1.888112 1_555
Nb3 O35 1.965202 1_555
Nb3 O34 1.979667 1_555
Nb3 O69 2.071303 1_555
Nb3 O70 2.091973 1_555
Nb3 O71 2.113877 1_555
O0 P0 1.525854 1_555
O1 P1 1.533553 1_555
O2 P2 1.529368 1_655
O3 P3 1.509511 1_555
O4 P4 1.521140 1_655
O5 P5 1.509025 1_555
O6 P5 1.549740 1_565
O7 P3 1.549806 1_555
O8 P4 1.544677 1_555
O9 P1 1.540812 1_555
O10 P2 1.526583 1_555
O11 P0 1.532553 1_565
O12 P6 1.521866 1_555
O13 P7 1.523428 1_555
O14 P8 1.523403 1_555
O15 P9 1.527457 1_555
O16 P10 1.526325 1_555
O17 P11 1.513213 1_555
O18 P11 1.610271 1_555
O19 P9 1.610627 1_555
O20 P10 1.614199 1_555
O21 P7 1.608230 1_555
O22 P8 1.611015 1_555
O23 P6 1.624338 1_555
O24 P12 1.507841 1_555
O25 Si0 1.578254 1_555
O26 P13 1.516362 1_555
O27 Si1 1.590990 1_555
O28 P14 1.517742 1_555
O29 Si2 1.588229 1_555
O30 Si2 1.683254 1_555
O31 Si1 1.683986 1_555
O32 P14 1.569132 1_555
O33 Si0 1.751271 1_555
O34 P13 1.608603 1_555
O35 P12 1.607352 1_555
O36 Si2 1.605275 1_555
O37 Si1 1.604099 1_555
O38 P14 1.523736 1_555
O39 Si0 1.576696 1_555
O40 P13 1.513566 1_555
O41 P12 1.515983 1_555
O42 P6 1.540226 1_555
O43 P7 1.542793 1_555
O44 P8 1.541437 1_555
O45 P9 1.544889 1_555
O46 P10 1.536196 1_555
O47 P11 1.543725 1_555
O48 P5 1.550216 1_555
O49 P3 1.546691 1_555
O50 P4 1.546285 1_655
O51 P1 1.529189 1_555
O52 P2 1.551600 1_655
O53 P0 1.527601 1_555
O54 P12 1.580927 1_555
O55 Si0 1.715935 1_655
O56 P13 1.565942 1_545
O57 Si1 1.702781 1_545
O58 P14 1.581598 1_555
O59 Si2 1.701876 1_655
O60 P11 1.542688 1_555
O61 P9 1.541214 1_455
O62 P10 1.537952 1_565
O63 P7 1.538380 1_565
O64 P8 1.537597 1_555
O65 P6 1.534427 1_455
O66 P0 1.655171 1_565
O67 P1 1.601855 1_555
O68 P2 1.603080 1_555
O69 P3 1.619919 1_555
O70 P4 1.613548 1_555
O71 P5 1.606650 1_565
