# generated using pymatgen
data_NaHf4P5SO24
_symmetry_space_group_name_H-M   'P 1'
_cell_length_a   8.86581633
_cell_length_b   8.87233378
_cell_length_c   23.04037111
_cell_angle_alpha   90.02727004
_cell_angle_beta   89.93050519
_cell_angle_gamma   120.01654420
_symmetry_Int_Tables_number   1
_chemical_formula_structural   NaHf4P5SO24
_chemical_formula_sum   'Na3 Hf12 P15 S3 O72'
_cell_volume   1569.29269564
_cell_formula_units_Z   3
loop_
 _symmetry_equiv_pos_site_id
 _symmetry_equiv_pos_as_xyz
  1  'x, y, z'
loop_
 _atom_site_type_symbol
 _atom_site_label
 _atom_site_symmetry_multiplicity
 _atom_site_fract_x
 _atom_site_fract_y
 _atom_site_fract_z
 _atom_site_occupancy
  Na  Na0  1  0.66977890  0.33694725  0.83429458  1
  Na  Na1  1  0.66703273  0.33381330  0.33144458  1
  Na  Na2  1  0.33345694  0.66717241  0.16721909  1
  Hf  Hf0  1  0.00061748  0.00007091  0.35498933  1
  Hf  Hf1  1  0.99359321  0.99983852  0.85559207  1
  Hf  Hf2  1  0.00577620  0.99956091  0.64727808  1
  Hf  Hf3  1  0.99937207  0.00005869  0.14419783  1
  Hf  Hf4  1  0.66162960  0.32608377  0.68893896  1
  Hf  Hf5  1  0.66647163  0.33268089  0.18693822  1
  Hf  Hf6  1  0.67261339  0.33930801  0.98261529  1
  Hf  Hf7  1  0.65875129  0.32762051  0.47678640  1
  Hf  Hf8  1  0.33536170  0.66034206  0.02173045  1
  Hf  Hf9  1  0.33335586  0.67244756  0.51852214  1
  Hf  Hf10  1  0.33292066  0.66605725  0.31224807  1
  Hf  Hf11  1  0.33133276  0.65912100  0.80991971  1
  P  P0  1  0.28806988  0.00004477  0.24983239  1
  P  P1  1  0.71221715  0.71168038  0.24995626  1
  P  P2  1  0.99952596  0.28771387  0.24995652  1
  P  P3  1  0.28690394  0.28626037  0.75053106  1
  P  P4  1  -0.00016251  0.71102692  0.75060651  1
  P  P5  1  0.71129748  0.99825797  0.74970670  1
  P  P6  1  0.37707511  0.04316689  0.58324285  1
  P  P7  1  0.95821965  0.62477961  0.08407825  1
  P  P8  1  0.66638797  0.04343862  0.08334552  1
  P  P9  1  0.37707203  0.33111810  0.08363423  1
  P  P10  1  0.62117789  0.66468179  0.91622814  1
  P  P11  1  0.04378068  0.37827857  0.91636468  1
  P  P12  1  0.62348399  0.95448111  0.41621359  1
  P  P13  1  0.33086196  0.37806806  0.41686477  1
  P  P14  1  0.04316999  0.66680040  0.41646983  1
  S  S0  1  0.95618728  0.33310720  0.58323286  1
  S  S1  1  0.66640869  0.62273189  0.58335671  1
  S  S2  1  0.33337177  0.95574247  0.91634008  1
  O  O0  1  0.20545371  0.02894683  0.30443450  1
  O  O1  1  0.82359816  0.79471050  0.30447658  1
  O  O2  1  0.97086884  0.17630962  0.30448928  1
  O  O3  1  0.20564980  0.17226099  0.80423624  1
  O  O4  1  0.96884328  0.79567750  0.80409628  1
  O  O5  1  0.82679722  0.03255226  0.80367862  1
  O  O6  1  0.79708315  0.97295062  0.69531429  1
  O  O7  1  0.17564995  0.20388084  0.69574689  1
  O  O8  1  0.02668456  0.82346658  0.69585798  1
  O  O9  1  0.79461158  0.82378686  0.19577122  1
  O  O10  1  0.02945896  0.20554127  0.19576168  1
  O  O11  1  0.17605223  0.97060748  0.19571800  1
  O  O12  1  0.87512531  0.36266504  0.63525483  1
  O  O13  1  0.49394330  0.13241333  0.63671231  1
  O  O14  1  0.63938748  0.51322179  0.63528509  1
  O  O15  1  0.87265349  0.50682890  0.13718831  1
  O  O16  1  0.63466358  0.12798086  0.13710119  1
  O  O17  1  0.49362941  0.36560542  0.13723350  1
  O  O18  1  0.46278084  0.30564341  0.02894103  1
  O  O19  1  0.84426836  0.53895209  0.02954907  1
  O  O20  1  0.69315765  0.15683038  0.02898596  1
  O  O21  1  0.46575231  0.16106408  0.53016878  1
  O  O22  1  0.69676767  0.54224997  0.53161719  1
  O  O23  1  0.84639998  0.30554361  0.53159963  1
  O  O24  1  0.53717382  0.69538984  0.97015540  1
  O  O25  1  0.15724246  0.46460859  0.97022764  1
  O  O26  1  0.30562885  0.84900249  0.96862814  1
  O  O27  1  0.53733065  0.84305061  0.47102358  1
  O  O28  1  0.30720651  0.46465790  0.47161271  1
  O  O29  1  0.15644303  0.69298425  0.47102156  1
  O  O30  1  0.12710407  0.63358443  0.36311047  1
  O  O31  1  0.50611142  0.87283275  0.36299098  1
  O  O32  1  0.36617409  0.49397397  0.36307587  1
  O  O33  1  0.12924440  0.49386348  0.86251879  1
  O  O34  1  0.36301340  0.87653362  0.86420506  1
  O  O35  1  0.50688121  0.63781309  0.86242423  1
  O  O36  1  0.02399948  0.82640473  0.40810360  1
  O  O37  1  0.80317074  0.97617222  0.40815601  1
  O  O38  1  0.17381425  0.19769040  0.40812174  1
  O  O39  1  0.02615809  0.19884577  0.90689745  1
  O  O40  1  0.17890017  0.97479048  0.90809128  1
  O  O41  1  0.80217248  0.82515836  0.90702916  1
  O  O42  1  0.97326440  0.17769956  0.59196360  1
  O  O43  1  0.19732297  0.02502479  0.59302059  1
  O  O44  1  0.82098079  0.79644527  0.59189134  1
  O  O45  1  0.97568451  0.80266087  0.09228988  1
  O  O46  1  0.82605461  0.02432035  0.09226751  1
  O  O47  1  0.19748363  0.17329044  0.09223724  1
  O  O48  1  0.69284136  0.16307947  0.74191044  1
  O  O49  1  0.47161654  0.31007321  0.74161715  1
  O  O50  1  0.83742112  0.52848263  0.74069672  1
  O  O51  1  0.69028791  0.52784093  0.24289737  1
  O  O52  1  0.83754553  0.30973093  0.24297096  1
  O  O53  1  0.47204281  0.16234496  0.24292782  1
  O  O54  1  0.64098198  0.50170596  0.92355290  1
  O  O55  1  0.85944965  0.35561229  0.92351054  1
  O  O56  1  0.48983393  0.13178002  0.92318498  1
  O  O57  1  0.64283372  0.13755536  0.42534819  1
  O  O58  1  0.49604563  0.35977707  0.42508786  1
  O  O59  1  0.86148174  0.50338685  0.42642849  1
  O  O60  1  0.35840912  0.49537696  0.07597989  1
  O  O61  1  0.13954761  0.64345609  0.07474046  1
  O  O62  1  0.50239069  0.86186898  0.07489176  1
  O  O63  1  0.35805749  0.86328921  0.57402415  1
  O  O64  1  0.51103132  0.64008267  0.57516455  1
  O  O65  1  0.12998647  0.48758682  0.57517591  1
  O  O66  1  0.30960182  0.83783130  0.25749577  1
  O  O67  1  0.52836486  0.69045976  0.25752404  1
  O  O68  1  0.16206682  0.47157774  0.25746977  1
  O  O69  1  0.30893778  0.46758226  0.75833345  1
  O  O70  1  0.16058073  0.69230690  0.75956979  1
  O  O71  1  0.53035615  0.84155408  0.75987200  1
loop_
_geom_bond_atom_site_label_1
_geom_bond_atom_site_label_2
_geom_bond_distance
_geom_bond_site_symmetry_2
Na0 O54 2.607808 1_555
Na0 O55 2.609591 1_555
Na0 O56 2.672715 1_555
Na0 O50 2.686301 1_555
Na0 O48 2.695114 1_555
Na0 O49 2.700473 1_555
Na1 O52 2.607991 1_555
Na1 O51 2.610645 1_555
Na1 O53 2.614705 1_555
Na1 O58 2.710581 1_555
Na1 O57 2.718048 1_555
Na1 O59 2.726895 1_555
Na2 O66 2.641992 1_555
Na2 O68 2.646116 1_555
Na2 O67 2.647448 1_555
Na2 O60 2.669189 1_555
Na2 O62 2.675753 1_555
Na2 O61 2.680746 1_555
Hf0 O37 2.057562 1_445
Hf0 O36 2.058328 1_545
Hf0 O38 2.059022 1_555
Hf0 O0 2.061567 1_555
Hf0 O1 2.068532 1_445
Hf0 O2 2.069655 1_455
Hf1 O41 2.012953 1_555
Hf1 O39 2.021650 1_665
Hf1 O5 2.033656 1_565
Hf1 O4 2.082768 1_555
Hf1 O3 2.096130 1_665
Hf1 O40 2.140561 1_655
Hf2 O8 2.005022 1_555
Hf2 O7 2.017962 1_565
Hf2 O43 2.027074 1_565
Hf2 O6 2.064530 1_455
Hf2 O44 2.146914 1_455
Hf2 O42 2.159619 1_465
Hf3 O45 2.042651 1_545
Hf3 O46 2.043211 1_555
Hf3 O47 2.043598 1_655
Hf3 O9 2.075921 1_545
Hf3 O10 2.078101 1_655
Hf3 O11 2.084543 1_645
Hf4 O13 2.014274 1_555
Hf4 O48 2.015099 1_555
Hf4 O49 2.021642 1_555
Hf4 O50 2.068376 1_555
Hf4 O12 2.144312 1_555
Hf4 O14 2.157307 1_555
Hf5 O16 2.045208 1_555
Hf5 O17 2.048780 1_555
Hf5 O15 2.052683 1_555
Hf5 O53 2.075948 1_555
Hf5 O52 2.079081 1_555
Hf5 O51 2.082750 1_555
Hf6 O19 1.981943 1_556
Hf6 O20 2.023109 1_556
Hf6 O18 2.031966 1_556
Hf6 O55 2.091468 1_555
Hf6 O54 2.100853 1_555
Hf6 O56 2.215613 1_555
Hf7 O58 1.999339 1_555
Hf7 O57 2.007136 1_555
Hf7 O21 2.022659 1_555
Hf7 O59 2.049635 1_555
Hf7 O22 2.166195 1_555
Hf7 O23 2.175419 1_555
Hf8 O60 2.011927 1_555
Hf8 O24 2.036825 1_554
Hf8 O25 2.043657 1_554
Hf8 O62 2.059950 1_555
Hf8 O61 2.064673 1_555
Hf8 O26 2.193724 1_554
Hf9 O29 1.995341 1_555
Hf9 O27 2.004308 1_555
Hf9 O63 2.043976 1_555
Hf9 O28 2.047382 1_555
Hf9 O65 2.163907 1_555
Hf9 O64 2.173688 1_555
Hf10 O32 2.059689 1_555
Hf10 O68 2.062108 1_555
Hf10 O30 2.062796 1_555
Hf10 O67 2.063677 1_555
Hf10 O31 2.067415 1_555
Hf10 O66 2.067498 1_555
Hf11 O69 2.000281 1_555
Hf11 O70 2.043229 1_555
Hf11 O33 2.048593 1_555
Hf11 O71 2.049980 1_555
Hf11 O35 2.054424 1_555
Hf11 O34 2.195596 1_555
O0 P0 1.539586 1_555
O1 P1 1.539507 1_555
O2 P2 1.539270 1_555
O3 P3 1.530729 1_555
O4 P4 1.537281 1_655
O5 P5 1.542248 1_545
O6 P5 1.538736 1_555
O7 P3 1.543126 1_555
O8 P4 1.551116 1_555
O9 P1 1.534137 1_555
O10 P2 1.533962 1_455
O11 P0 1.533704 1_565
O12 S0 1.485970 1_555
O13 P6 1.549062 1_555
O14 S1 1.483388 1_555
O15 P7 1.540363 1_555
O16 P8 1.544375 1_555
O17 P9 1.540444 1_555
O18 P9 1.544578 1_555
O19 P7 1.552887 1_555
O20 P8 1.548780 1_555
O21 P6 1.543929 1_555
O22 S1 1.481260 1_555
O23 S0 1.478805 1_555
O24 P10 1.540509 1_555
O25 P11 1.539467 1_555
O26 S2 1.475152 1_555
O27 P12 1.548851 1_555
O28 P13 1.544344 1_555
O29 P14 1.552948 1_555
O30 P14 1.539130 1_555
O31 P12 1.536037 1_555
O32 P13 1.539349 1_555
O33 P11 1.544815 1_555
O34 S2 1.479547 1_555
O35 P10 1.543215 1_555
O36 P14 1.520663 1_555
O37 P12 1.517218 1_555
O38 P13 1.520327 1_555
O39 P11 1.535354 1_555
O40 S2 1.473935 1_555
O41 P10 1.536450 1_555
O42 S0 1.474366 1_555
O43 P6 1.535870 1_555
O44 S1 1.476243 1_555
O45 P7 1.518502 1_555
O46 P8 1.521794 1_555
O47 P9 1.517911 1_555
O48 P5 1.561165 1_545
O49 P3 1.556183 1_555
O50 P4 1.554292 1_655
O51 P1 1.551528 1_555
O52 P2 1.551668 1_555
O53 P0 1.552078 1_555
O54 P10 1.550636 1_555
O55 P11 1.552053 1_655
O56 S2 1.490358 1_545
O57 P12 1.559819 1_545
O58 P13 1.563791 1_555
O59 P14 1.553146 1_655
O60 P9 1.556904 1_555
O61 P7 1.546241 1_455
O62 P8 1.550505 1_565
O63 P6 1.533328 1_565
O64 S1 1.473020 1_555
O65 S0 1.474401 1_455
O66 P0 1.553755 1_565
O67 P1 1.554043 1_555
O68 P2 1.554387 1_455
O69 P3 1.530992 1_555
O70 P4 1.529302 1_555
O71 P5 1.526182 1_555
