# generated using pymatgen
data_MgSc2Nb2O8
_symmetry_space_group_name_H-M   'P 1'
_cell_length_a   5.13068344
_cell_length_b   5.14172957
_cell_length_c   5.95484700
_cell_angle_alpha   90.00000000
_cell_angle_beta   90.00000000
_cell_angle_gamma   92.64322366
_symmetry_Int_Tables_number   1
_chemical_formula_structural   MgSc2Nb2O8
_chemical_formula_sum   'Mg1 Sc2 Nb2 O8'
_cell_volume   156.92522157
_cell_formula_units_Z   1
loop_
 _symmetry_equiv_pos_site_id
 _symmetry_equiv_pos_as_xyz
  1  'x, y, z'
loop_
 _atom_site_type_symbol
 _atom_site_label
 _atom_site_symmetry_multiplicity
 _atom_site_fract_x
 _atom_site_fract_y
 _atom_site_fract_z
 _atom_site_occupancy
  Mg  Mg0  1  0.00000000  0.75000000  0.60211800  1
  Sc  Sc0  1  0.50000000  0.75000000  0.67464400  1
  Sc  Sc1  1  0.50000000  0.25000000  0.34160900  1
  Nb  Nb0  1  0.00000000  0.25000000  0.87777100  1
  Nb  Nb1  1  0.00000000  0.75000000  0.13593700  1
  O  O0  1  0.78422700  0.58693200  0.86218600  1
  O  O1  1  0.21577300  0.91306800  0.86218600  1
  O  O2  1  0.76711200  0.08494800  0.12709500  1
  O  O3  1  0.25584800  0.90193600  0.37745400  1
  O  O4  1  0.75450800  0.06991800  0.63493400  1
  O  O5  1  0.23288800  0.41505200  0.12709500  1
  O  O6  1  0.24549200  0.43008200  0.63493400  1
  O  O7  1  0.74415200  0.59806400  0.37745400  1
loop_
_geom_bond_atom_site_label_1
_geom_bond_atom_site_label_2
_geom_bond_distance
_geom_bond_site_symmetry_2
Mg0 O7 2.007148 1_455
Mg0 O3 2.007148 1_555
Mg0 O1 2.059452 1_555
Mg0 O0 2.059452 1_455
Mg0 O4 2.126388 1_465
Mg0 O6 2.126388 1_555
Nb0 O2 2.063662 1_456
Nb0 O5 2.063662 1_556
Nb0 O0 2.100559 1_455
Nb0 O1 2.100559 1_545
Nb0 O6 2.104118 1_555
Nb0 O4 2.104118 1_455
Nb1 O3 2.075389 1_555
Nb1 O7 2.075389 1_455
Nb1 O1 2.121403 1_554
Nb1 O0 2.121403 1_454
Nb1 O2 2.141568 1_465
Nb1 O5 2.141568 1_555
O0 Sc0 2.046841 1_555
O1 Sc0 2.046841 1_555
O2 Sc1 2.082645 1_555
O3 Sc1 2.147281 1_565
O3 Sc0 2.324143 1_555
O4 Sc0 2.066088 1_545
O4 Sc1 2.392690 1_555
O5 Sc1 2.082645 1_555
O6 Sc0 2.066088 1_555
O6 Sc1 2.392690 1_555
O7 Sc1 2.147281 1_555
O7 Sc0 2.324143 1_555
