# generated using pymatgen
data_RbZn2P2HO8
_symmetry_space_group_name_H-M   'P 1'
_cell_length_a   5.23563407
_cell_length_b   8.87176955
_cell_length_c   9.71754043
_cell_angle_alpha   75.36214825
_cell_angle_beta   77.45630592
_cell_angle_gamma   73.53354908
_symmetry_Int_Tables_number   1
_chemical_formula_structural   RbZn2P2HO8
_chemical_formula_sum   'Rb2 Zn4 P4 H2 O16'
_cell_volume   413.62588581
_cell_formula_units_Z   2
loop_
 _symmetry_equiv_pos_site_id
 _symmetry_equiv_pos_as_xyz
  1  'x, y, z'
loop_
 _atom_site_type_symbol
 _atom_site_label
 _atom_site_symmetry_multiplicity
 _atom_site_fract_x
 _atom_site_fract_y
 _atom_site_fract_z
 _atom_site_occupancy
  Rb  Rb0  1  0.70903020  0.70444936  0.82323385  1
  Rb  Rb1  1  0.29096980  0.29555064  0.17676615  1
  Zn  Zn0  1  0.80643046  0.88823978  0.38993040  1
  Zn  Zn1  1  0.19356954  0.11176022  0.61006960  1
  Zn  Zn2  1  0.61120219  0.61702085  0.27151185  1
  Zn  Zn3  1  0.38879781  0.38297915  0.72848815  1
  P  P0  1  0.10682033  0.75455298  0.11108853  1
  P  P1  1  0.89317967  0.24544702  0.88891147  1
  P  P2  1  0.66900737  0.24486395  0.44964123  1
  P  P3  1  0.33099263  0.75513605  0.55035877  1
  H  H0  1  0.05721315  0.92563902  0.89965569  1
  H  H1  1  0.94278685  0.07436098  0.10034431  1
  O  O0  1  0.96796074  0.89783434  0.18478573  1
  O  O1  1  0.03203926  0.10216566  0.81521427  1
  O  O2  1  0.06460520  0.80985196  0.94839191  1
  O  O3  1  0.93539480  0.19014804  0.05160809  1
  O  O4  1  0.64432142  0.11198114  0.38261310  1
  O  O5  1  0.35567858  0.88801886  0.61738690  1
  O  O6  1  0.95503433  0.22632633  0.47415183  1
  O  O7  1  0.04496567  0.77367367  0.52584817  1
  O  O8  1  0.59091638  0.29614725  0.88825680  1
  O  O9  1  0.40908362  0.70385275  0.11174320  1
  O  O10  1  0.43083088  0.59527730  0.64866569  1
  O  O11  1  0.56916912  0.40472270  0.35133431  1
  O  O12  1  0.47250682  0.23302468  0.59735861  1
  O  O13  1  0.52749318  0.76697532  0.40264139  1
  O  O14  1  0.02134995  0.38627638  0.82449192  1
  O  O15  1  0.97865005  0.61372362  0.17550808  1
loop_
_geom_bond_atom_site_label_1
_geom_bond_atom_site_label_2
_geom_bond_distance
_geom_bond_site_symmetry_2
H0 O2 1.010221 1_555
H0 O1 1.556866 1_565
H1 O3 1.010221 1_555
H1 O0 1.556866 1_545
O0 P0 1.538609 1_655
O0 Zn0 1.979712 1_555
O1 P1 1.538609 1_455
O1 Zn1 1.979712 1_555
O2 P0 1.577157 1_556
O2 Rb0 2.892167 1_455
O3 P1 1.577157 1_554
O3 Rb1 2.892167 1_655
O4 P2 1.530302 1_555
O4 Zn0 1.914513 1_545
O4 Rb1 2.886012 1_555
O5 P3 1.530302 1_555
O5 Zn1 1.914513 1_565
O5 Rb0 2.886012 1_555
O6 P2 1.523777 1_555
O6 Zn1 1.911973 1_655
O6 Rb1 3.054423 1_655
O7 P3 1.523777 1_555
O7 Zn0 1.911973 1_455
O7 Rb0 3.054423 1_455
O8 P1 1.518611 1_555
O8 Zn3 1.941834 1_555
O8 Rb1 2.900202 1_556
O9 P0 1.518611 1_555
O9 Zn2 1.941834 1_555
O9 Rb0 2.900202 1_554
O10 P3 1.519568 1_555
O10 Zn3 1.902621 1_555
O10 Rb0 2.939513 1_555
O11 P2 1.519568 1_555
O11 Zn2 1.902621 1_555
O11 Rb1 2.939513 1_555
O12 P2 1.572759 1_555
O12 Zn3 1.967065 1_555
O12 Zn1 2.012625 1_555
O13 P3 1.572759 1_555
O13 Zn2 1.967065 1_555
O13 Zn0 2.012625 1_555
O14 P1 1.516818 1_455
O14 Zn3 1.942830 1_555
O14 Rb0 2.831342 1_455
O15 P0 1.516818 1_655
O15 Zn2 1.942830 1_555
O15 Rb1 2.831342 1_655
