# generated using pymatgen
data_KMgNbO3
_symmetry_space_group_name_H-M   'P 1'
_cell_length_a   4.36201655
_cell_length_b   4.38839292
_cell_length_c   4.38839362
_cell_angle_alpha   99.61114123
_cell_angle_beta   99.51144476
_cell_angle_gamma   80.48855605
_symmetry_Int_Tables_number   1
_chemical_formula_structural   KMgNbO3
_chemical_formula_sum   'K1 Mg1 Nb1 O3'
_cell_volume   80.86334672
_cell_formula_units_Z   1
loop_
 _symmetry_equiv_pos_site_id
 _symmetry_equiv_pos_as_xyz
  1  'x, y, z'
loop_
 _atom_site_type_symbol
 _atom_site_label
 _atom_site_symmetry_multiplicity
 _atom_site_fract_x
 _atom_site_fract_y
 _atom_site_fract_z
 _atom_site_occupancy
  K  K0  1  0.58424298  0.61256087  0.38743913  1
  Mg  Mg0  1  0.27139181  0.29656836  0.70343164  1
  Nb  Nb0  1  0.95960180  0.98859504  0.01140496  1
  O  O0  1  0.97532232  0.49911323  0.99473420  1
  O  O1  1  0.97532232  0.00526580  0.50088678  1
  O  O2  1  0.46745178  0.00277171  0.99722829  1
loop_
_geom_bond_atom_site_label_1
_geom_bond_atom_site_label_2
_geom_bond_distance
_geom_bond_site_symmetry_2
K0 O2 2.554739 1_564
K0 O1 2.555828 1_565
K0 O0 2.555829 1_554
K0 Mg0 2.757009 1_555
K0 O1 2.985046 1_465
K0 O0 2.985046 1_454
K0 O1 2.986685 1_555
K0 O0 2.986686 1_555
K0 O2 2.997479 1_554
K0 O2 2.997479 1_565
Mg0 O1 1.969498 1_455
Mg0 O0 1.969498 1_455
Mg0 O2 1.970335 1_555
Nb0 O0 2.127117 1_554
Nb0 O1 2.127117 1_565
Nb0 O2 2.128230 1_564
Nb0 O2 2.237735 1_664
Nb0 O0 2.266363 1_564
Nb0 O1 2.266364 1_564
