# generated using pymatgen
data_Li3InO3
_symmetry_space_group_name_H-M   'P 1'
_cell_length_a   5.61355486
_cell_length_b   5.61355145
_cell_length_c   10.26175415
_cell_angle_alpha   89.99997953
_cell_angle_beta   90.00004539
_cell_angle_gamma   119.99738882
_symmetry_Int_Tables_number   1
_chemical_formula_structural   Li3InO3
_chemical_formula_sum   'Li12 In4 O12'
_cell_volume   280.05242833
_cell_formula_units_Z   4
loop_
 _symmetry_equiv_pos_site_id
 _symmetry_equiv_pos_as_xyz
  1  'x, y, z'
loop_
 _atom_site_type_symbol
 _atom_site_label
 _atom_site_symmetry_multiplicity
 _atom_site_fract_x
 _atom_site_fract_y
 _atom_site_fract_z
 _atom_site_occupancy
  Li  Li0  1  0.62877343  0.94718161  0.93051713  1
  Li  Li1  1  0.05281313  0.68159719  0.93052188  1
  Li  Li2  1  0.31840701  0.37122309  0.93051349  1
  Li  Li3  1  0.05281834  0.37123029  0.56948488  1
  Li  Li4  1  0.31840470  0.94718394  0.56947858  1
  Li  Li5  1  0.62878230  0.68159580  0.56948513  1
  Li  Li6  1  0.37122418  0.05281778  0.06948381  1
  Li  Li7  1  0.94718805  0.31840302  0.06947736  1
  Li  Li8  1  0.68158770  0.62877083  0.06948673  1
  Li  Li9  1  0.94718268  0.62877556  0.43051607  1
  Li  Li10  1  0.68160012  0.05281447  0.43052205  1
  Li  Li11  1  0.37122886  0.31841351  0.43051390  1
  In  In0  1  0.66666338  0.33333402  0.75000061  1
  In  In1  1  0.33333493  0.66666535  0.24999976  1
  In  In2  1  0.00000056  0.00000032  0.75000030  1
  In  In3  1  -0.00000160  0.00000032  0.24999978  1
  O  O0  1  0.70222582  0.03984443  0.62189550  1
  O  O1  1  0.96015234  0.66237624  0.62189684  1
  O  O2  1  0.33761317  0.29777327  0.62189608  1
  O  O3  1  0.96015537  0.29777423  0.87810453  1
  O  O4  1  0.33762257  0.03984710  0.87810450  1
  O  O5  1  0.70222599  0.66238628  0.87810463  1
  O  O6  1  0.29777363  0.96015547  0.37810440  1
  O  O7  1  0.03984851  0.33762390  0.37810315  1
  O  O8  1  0.66238682  0.70222810  0.37810413  1
  O  O9  1  0.03984237  0.70222446  0.12189475  1
  O  O10  1  0.66237523  0.96015079  0.12189550  1
  O  O11  1  0.29777042  0.33761164  0.12189454  1
loop_
_geom_bond_atom_site_label_1
_geom_bond_atom_site_label_2
_geom_bond_distance
_geom_bond_site_symmetry_2
Li0 O5 1.916852 1_555
Li0 O10 1.970777 1_556
Li0 O3 1.990543 1_565
Li0 O4 2.020202 1_565
Li1 O4 1.916978 1_565
Li1 O9 1.970719 1_556
Li1 O5 1.990457 1_455
Li1 O3 2.020300 1_455
Li2 O3 1.916899 1_455
Li2 O11 1.970809 1_556
Li2 O4 1.990438 1_555
Li2 O5 2.020306 1_555
Li3 O2 1.916862 1_555
Li3 O7 1.970814 1_555
Li3 O0 1.990547 1_455
Li3 O1 2.020176 1_455
Li4 O1 1.916987 1_455
Li4 O6 1.970734 1_555
Li4 O2 1.990475 1_565
Li4 O0 2.020285 1_565
Li5 O0 1.916896 1_565
Li5 O8 1.970806 1_555
Li5 O1 1.990425 1_555
Li5 O2 2.020334 1_555
Li6 O11 1.916844 1_555
Li6 O4 1.970787 1_554
Li6 O9 1.990540 1_545
Li6 O10 2.020206 1_545
Li7 O10 1.916994 1_545
Li7 O3 1.970718 1_554
Li7 O11 1.990437 1_655
Li7 O9 2.020297 1_655
Li8 O9 1.916904 1_655
Li8 O5 1.970821 1_554
Li8 O10 1.990450 1_555
Li8 O11 2.020291 1_555
Li9 O8 1.916854 1_555
Li9 O1 1.970802 1_555
Li9 O6 1.990530 1_655
Li9 O7 2.020208 1_655
Li10 O7 1.916977 1_655
Li10 O0 1.970724 1_555
Li10 O8 1.990448 1_545
Li10 O6 2.020318 1_545
Li11 O6 1.916923 1_545
Li11 O2 1.970822 1_555
Li11 O7 1.990452 1_555
Li11 O8 2.020284 1_555
In0 O3 2.193435 1_555
In0 O0 2.193439 1_555
In0 O2 2.193442 1_555
In0 O5 2.193445 1_555
In0 O4 2.193458 1_555
In0 O1 2.193464 1_555
In1 O6 2.193435 1_555
In1 O9 2.193442 1_555
In1 O8 2.193445 1_555
In1 O11 2.193455 1_555
In1 O7 2.193455 1_555
In1 O10 2.193456 1_555
In2 O3 2.223991 1_455
In2 O0 2.223995 1_455
In2 O4 2.224015 1_555
In2 O1 2.224017 1_445
In2 O2 2.224035 1_555
In2 O5 2.224042 1_445
In3 O6 2.223998 1_545
In3 O9 2.224001 1_545
In3 O7 2.224011 1_555
In3 O10 2.224015 1_445
In3 O8 2.224032 1_445
In3 O11 2.224036 1_555
