# generated using pymatgen
data_MgV4O8
_symmetry_space_group_name_H-M   'P 1'
_cell_length_a   5.63309327
_cell_length_b   5.64825126
_cell_length_c   6.62716754
_cell_angle_alpha   89.71346041
_cell_angle_beta   89.84017913
_cell_angle_gamma   60.91332792
_symmetry_Int_Tables_number   1
_chemical_formula_structural   MgV4O8
_chemical_formula_sum   'Mg1 V4 O8'
_cell_volume   184.26289124
_cell_formula_units_Z   1
loop_
 _symmetry_equiv_pos_site_id
 _symmetry_equiv_pos_as_xyz
  1  'x, y, z'
loop_
 _atom_site_type_symbol
 _atom_site_label
 _atom_site_symmetry_multiplicity
 _atom_site_fract_x
 _atom_site_fract_y
 _atom_site_fract_z
 _atom_site_occupancy
  Mg  Mg0  1  0.15942700  0.15546200  0.24579300  1
  V  V0  1  0.92796000  0.92930300  0.96926700  1
  V  V1  1  0.93022900  0.93266600  0.52918500  1
  V  V2  1  0.42372100  0.42385300  0.25071400  1
  V  V3  1  0.60827300  0.60840000  0.75077500  1
  O  O0  1  0.31460100  0.30975200  0.05273800  1
  O  O1  1  0.30727800  0.30869800  0.44455100  1
  O  O2  1  0.21824900  0.78512000  0.24982600  1
  O  O3  1  0.23965100  0.76418100  0.75016400  1
  O  O4  1  0.78576100  0.22135700  0.25347100  1
  O  O5  1  0.76468400  0.24045700  0.74977900  1
  O  O6  1  0.71606700  0.71410600  0.95927800  1
  O  O7  1  0.71660000  0.71914500  0.54445900  1
loop_
_geom_bond_atom_site_label_1
_geom_bond_atom_site_label_2
_geom_bond_distance
_geom_bond_site_symmetry_2
Mg0 O4 1.951819 1_455
Mg0 O2 1.952350 1_545
Mg0 O0 1.970698 1_555
Mg0 O1 1.973873 1_555
O0 V2 1.706660 1_555
O1 V2 1.704470 1_555
O2 V2 1.790835 1_555
O2 V1 2.332046 1_455
O2 V0 2.345479 1_454
O3 V3 1.819234 1_555
O3 V0 2.113817 1_455
O3 V1 2.115640 1_455
O4 V2 1.788797 1_555
O4 V1 2.312599 1_545
O4 V0 2.376593 1_544
O5 V3 1.820771 1_555
O5 V0 2.112052 1_545
O5 V1 2.114406 1_545
O6 V3 1.732030 1_555
O6 V0 2.078059 1_555
O7 V3 1.729457 1_555
O7 V1 2.078953 1_555
