# generated using pymatgen
data_MgTiZn(BiO3)2
_symmetry_space_group_name_H-M   'P 1'
_cell_length_a   6.57613208
_cell_length_b   5.51533041
_cell_length_c   5.51532713
_cell_angle_alpha   90.00000000
_cell_angle_beta   90.00000000
_cell_angle_gamma   90.00017979
_symmetry_Int_Tables_number   1
_chemical_formula_structural   MgTiZn(BiO3)2
_chemical_formula_sum   'Mg1 Ti1 Zn1 Bi2 O6'
_cell_volume   200.03838480
_cell_formula_units_Z   1
loop_
 _symmetry_equiv_pos_site_id
 _symmetry_equiv_pos_as_xyz
  1  'x, y, z'
loop_
 _atom_site_type_symbol
 _atom_site_label
 _atom_site_symmetry_multiplicity
 _atom_site_fract_x
 _atom_site_fract_y
 _atom_site_fract_z
 _atom_site_occupancy
  Mg  Mg0  1  0.73648553  0.99999999  -0.00000000  1
  Ti  Ti0  1  0.66133896  0.50000102  0.50000000  1
  Zn  Zn0  1  0.34432552  1.00000000  -0.00000000  1
  Bi  Bi0  1  0.97460314  0.99999999  0.50000000  1
  Bi  Bi1  1  0.97460314  0.49999899  -0.00000000  1
  O  O0  1  0.78954931  0.73479586  0.73479586  1
  O  O1  1  0.78954931  0.73479586  0.26520414  1
  O  O2  1  0.05671625  0.99999999  -0.00000000  1
  O  O3  1  0.40322923  0.50000101  0.50000000  1
  O  O4  1  0.78955031  0.26520314  0.26520414  1
  O  O5  1  0.78955031  0.26520314  0.73479586  1
loop_
_geom_bond_atom_site_label_1
_geom_bond_atom_site_label_2
_geom_bond_distance
_geom_bond_site_symmetry_2
Mg0 O4 2.097777 1_565
Mg0 O5 2.097777 1_564
Mg0 O1 2.097781 1_555
Mg0 O0 2.097781 1_554
Mg0 O2 2.105880 1_655
Mg0 Zn0 2.578896 1_555
Bi0 O5 2.301595 1_565
Bi0 O4 2.301595 1_565
Bi0 O0 2.301597 1_555
Bi0 O1 2.301597 1_555
Bi1 O4 2.301594 1_555
Bi1 O5 2.301594 1_554
Bi1 O1 2.301604 1_555
Bi1 O0 2.301604 1_554
O0 Ti0 2.016128 1_555
O1 Ti0 2.016128 1_555
O2 Zn0 1.891357 1_555
O3 Ti0 1.697364 1_555
O4 Ti0 2.016145 1_555
O5 Ti0 2.016145 1_555
