# generated using pymatgen
data_Na6Mg4In4SiS11O48
_symmetry_space_group_name_H-M   'P 1'
_cell_length_a   17.63353922
_cell_length_b   8.83389380
_cell_length_c   22.92346438
_cell_angle_alpha   89.85564976
_cell_angle_beta   89.92908105
_cell_angle_gamma   119.99015733
_symmetry_Int_Tables_number   1
_chemical_formula_structural   Na6Mg4In4SiS11O48
_chemical_formula_sum   'Na18 Mg12 In12 Si3 S33 O144'
_cell_volume   3092.73299743
_cell_formula_units_Z   3
loop_
 _symmetry_equiv_pos_site_id
 _symmetry_equiv_pos_as_xyz
  1  'x, y, z'
loop_
 _atom_site_type_symbol
 _atom_site_label
 _atom_site_symmetry_multiplicity
 _atom_site_fract_x
 _atom_site_fract_y
 _atom_site_fract_z
 _atom_site_occupancy
  Na  Na0  1  0.81989265  0.99559258  0.24574146  1
  Na  Na1  1  0.99586805  0.64009891  0.25521645  1
  Na  Na2  1  0.31926542  0.65270317  0.74902725  1
  Na  Na3  1  0.81884563  0.65014033  0.74446325  1
  Na  Na4  1  0.99267158  0.35146285  0.75162022  1
  Na  Na5  1  0.68761981  0.00203658  0.74816216  1
  Na  Na6  1  0.99646562  0.99577472  0.49859924  1
  Na  Na7  1  0.50347025  0.00415052  0.49426765  1
  Na  Na8  1  0.00087929  0.00123739  0.00093388  1
  Na  Na9  1  0.49972870  0.00064232  0.00138034  1
  Na  Na10  1  0.33599744  0.30288707  0.83625463  1
  Na  Na11  1  0.83484723  0.31925999  0.83707848  1
  Na  Na12  1  0.33495675  0.33532461  0.32936503  1
  Na  Na13  1  0.82557281  0.35322928  0.33574594  1
  Na  Na14  1  0.17770721  0.67076329  0.16887832  1
  Na  Na15  1  0.66584170  0.65125987  0.16984726  1
  Na  Na16  1  0.17511809  0.69626035  0.66529636  1
  Na  Na17  1  0.67199826  0.67426972  0.66197937  1
  Mg  Mg0  1  0.49849991  0.00042192  0.35153891  1
  Mg  Mg1  1  0.83395151  0.32598982  0.67795221  1
  Mg  Mg2  1  0.33488473  0.33710007  0.18438808  1
  Mg  Mg3  1  0.82851925  0.33966301  0.18325775  1
  Mg  Mg4  1  0.33330371  0.33342083  0.98307498  1
  Mg  Mg5  1  0.83283382  0.33366840  0.98271310  1
  Mg  Mg6  1  0.83339611  0.33375177  0.48272049  1
  Mg  Mg7  1  0.16552105  0.66268009  0.51537570  1
  Mg  Mg8  1  0.66929489  0.66820337  0.51618192  1
  Mg  Mg9  1  0.17186305  0.67163035  0.31916113  1
  Mg  Mg10  1  0.17133164  0.68361432  0.81807245  1
  Mg  Mg11  1  0.66734137  0.66680922  0.81901050  1
  In  In0  1  0.99869188  0.99057845  0.35208296  1
  In  In1  1  0.99672418  0.00252923  0.85116263  1
  In  In2  1  0.49663660  0.00828504  0.85193086  1
  In  In3  1  0.99210180  0.99455367  0.64673496  1
  In  In4  1  0.49731504  0.00196196  0.64814776  1
  In  In5  1  0.99799539  0.99635397  0.14892721  1
  In  In6  1  0.49741917  0.99710988  0.15039969  1
  In  In7  1  0.33430370  0.31874816  0.68113517  1
  In  In8  1  0.33153893  0.32824123  0.47904390  1
  In  In9  1  0.16753667  0.66972797  0.01817333  1
  In  In10  1  0.66676178  0.67016306  0.01878746  1
  In  In11  1  0.66634504  0.65555215  0.31899150  1
  Si  Si0  1  0.84981662  0.69815810  0.24928023  1
  Si  Si1  1  0.34784835  0.99649421  0.75035197  1
  Si  Si2  1  0.84878429  0.00039734  0.75065333  1
  S  S0  1  0.15330083  0.00330320  0.25018371  1
  S  S1  1  0.64617172  0.00023084  0.25093442  1
  S  S2  1  0.35077436  0.70159896  0.25159632  1
  S  S3  1  0.00387800  0.30382150  0.24951134  1
  S  S4  1  0.49616750  0.29115530  0.25034246  1
  S  S5  1  0.14872337  0.29786381  0.75066527  1
  S  S6  1  0.65045621  0.30107164  0.75009158  1
  S  S7  1  0.00118340  0.70228215  0.74940200  1
  S  S8  1  0.50191217  0.70327840  0.75098071  1
  S  S9  1  0.48682771  0.34195983  0.58012027  1
  S  S10  1  0.98318749  0.34057699  0.58228033  1
  S  S11  1  0.18098861  0.02797602  0.58126361  1
  S  S12  1  0.68493314  0.03547859  0.58371371  1
  S  S13  1  0.33148799  0.62643464  0.58305386  1
  S  S14  1  0.83131903  0.62144783  0.58273871  1
  S  S15  1  0.47809804  0.62420307  0.08325973  1
  S  S16  1  0.97976585  0.62348141  0.08269972  1
  S  S17  1  0.33346422  0.04435967  0.08310139  1
  S  S18  1  0.83343859  0.04521611  0.08305410  1
  S  S19  1  0.18810195  0.33226506  0.08373188  1
  S  S20  1  0.68595361  0.33097053  0.08205472  1
  S  S21  1  0.31463016  0.66001297  0.91673379  1
  S  S22  1  0.81442192  0.66045694  0.91670956  1
  S  S23  1  0.01868756  0.37382059  0.91615284  1
  S  S24  1  0.51920179  0.37562743  0.91779724  1
  S  S25  1  0.16689446  0.96646487  0.91703299  1
  S  S26  1  0.66678347  0.96662980  0.91526174  1
  S  S27  1  0.31367274  0.95675308  0.41699721  1
  S  S28  1  0.81426408  0.96865606  0.41849148  1
  S  S29  1  0.16571202  0.37409043  0.41629264  1
  S  S30  1  0.66602672  0.36439764  0.41979794  1
  S  S31  1  0.02044435  0.66341717  0.41706840  1
  S  S32  1  0.51980918  0.66997447  0.41748086  1
  O  O0  1  0.11557053  0.03962141  0.30260890  1
  O  O1  1  0.60349773  0.02612195  0.30149440  1
  O  O2  1  0.40793635  0.79224128  0.30125401  1
  O  O3  1  0.91466782  0.78046514  0.30559547  1
  O  O4  1  0.48753345  0.18420393  0.30158001  1
  O  O5  1  0.98797392  0.19191991  0.30176588  1
  O  O6  1  0.11465183  0.18509311  0.80280512  1
  O  O7  1  0.61485105  0.18051740  0.80125492  1
  O  O8  1  0.48684867  0.78455635  0.80282029  1
  O  O9  1  0.98452256  0.78020626  0.80195329  1
  O  O10  1  0.40754489  0.03455161  0.80824385  1
  O  O11  1  0.91677438  0.05919170  0.80573670  1
  O  O12  1  0.38954481  0.94997687  0.69366223  1
  O  O13  1  0.88799154  0.94142419  0.69592303  1
  O  O14  1  0.09593611  0.21583044  0.69780338  1
  O  O15  1  0.59746633  0.22363459  0.69715877  1
  O  O16  1  0.02254511  0.81586215  0.69738927  1
  O  O17  1  0.52463392  0.81876916  0.69853765  1
  O  O18  1  0.38603950  0.80470327  0.19591831  1
  O  O19  1  0.88948273  0.83457692  0.19382036  1
  O  O20  1  0.02456728  0.23364168  0.19697608  1
  O  O21  1  0.51227073  0.21872380  0.19574253  1
  O  O22  1  0.09542573  0.96583998  0.19814201  1
  O  O23  1  0.59619541  0.97525843  0.19597422  1
  O  O24  1  0.44897279  0.36781692  0.63473980  1
  O  O25  1  0.94469502  0.35433313  0.63848515  1
  O  O26  1  0.23184989  0.10622628  0.63549211  1
  O  O27  1  0.73132498  0.11308233  0.63953494  1
  O  O28  1  0.32175119  0.52825545  0.63902971  1
  O  O29  1  0.82463887  0.52996480  0.63880878  1
  O  O30  1  0.43654882  0.52377778  0.13614366  1
  O  O31  1  0.93952697  0.52837626  0.13703959  1
  O  O32  1  0.32518048  0.12743828  0.13576962  1
  O  O33  1  0.82616039  0.12420056  0.13788490  1
  O  O34  1  0.23797580  0.34864856  0.13662461  1
  O  O35  1  0.73554389  0.34689154  0.13483358  1
  O  O36  1  0.22899256  0.31484391  0.03043482  1
  O  O37  1  0.72796175  0.31587853  0.02902005  1
  O  O38  1  0.42874248  0.54148005  0.03022492  1
  O  O39  1  0.92840098  0.53567665  0.03087365  1
  O  O40  1  0.34120039  0.14245293  0.02973953  1
  O  O41  1  0.83778323  0.14617554  0.03125884  1
  O  O42  1  0.22255000  0.14218026  0.52988267  1
  O  O43  1  0.72939952  0.14669316  0.53342674  1
  O  O44  1  0.34194121  0.53442546  0.53266775  1
  O  O45  1  0.83871636  0.52790838  0.53283135  1
  O  O46  1  0.42900795  0.31177057  0.52968405  1
  O  O47  1  0.92647450  0.31881055  0.53287440  1
  O  O48  1  0.27374372  0.68911783  0.96921529  1
  O  O49  1  0.77302848  0.68824308  0.96889007  1
  O  O50  1  0.07165594  0.45860510  0.96878590  1
  O  O51  1  0.57041939  0.45603806  0.97152394  1
  O  O52  1  0.15163666  0.86121249  0.97125612  1
  O  O53  1  0.65248302  0.85857241  0.96842665  1
  O  O54  1  0.27226369  0.85807082  0.47054671  1
  O  O55  1  0.76725026  0.85147490  0.46724733  1
  O  O56  1  0.15821364  0.45547506  0.46989179  1
  O  O57  1  0.65372623  0.45526732  0.46926385  1
  O  O58  1  0.07500230  0.67860616  0.46724915  1
  O  O59  1  0.57189274  0.68565193  0.46904819  1
  O  O60  1  0.05975890  0.65005828  0.36141198  1
  O  O61  1  0.55791538  0.64221922  0.36326742  1
  O  O62  1  0.26097174  0.87526791  0.36498690  1
  O  O63  1  0.76805706  0.89706499  0.36160542  1
  O  O64  1  0.17381152  0.47459507  0.36357482  1
  O  O65  1  0.68230265  0.46694253  0.36443716  1
  O  O66  1  0.06093070  0.47319871  0.86243622  1
  O  O67  1  0.56345601  0.47847105  0.86555607  1
  O  O68  1  0.17551241  0.87860288  0.86537466  1
  O  O69  1  0.67521681  0.88185238  0.86213247  1
  O  O70  1  0.26471015  0.64460564  0.86331407  1
  O  O71  1  0.76534243  0.64530304  0.86295509  1
  O  O72  1  0.01453310  0.82842347  0.41720194  1
  O  O73  1  0.51099566  0.82668807  0.41138018  1
  O  O74  1  0.40218411  0.97828473  0.41172476  1
  O  O75  1  0.90332750  0.98529326  0.41641497  1
  O  O76  1  0.08633033  0.19487436  0.41343681  1
  O  O77  1  0.58598614  0.19118398  0.41301867  1
  O  O78  1  0.01134310  0.19742027  0.91537636  1
  O  O79  1  0.51235109  0.19961658  0.91621104  1
  O  O80  1  0.08708555  0.98546918  0.91231922  1
  O  O81  1  0.58703305  0.98570881  0.91151050  1
  O  O82  1  0.40466525  0.81667127  0.91463378  1
  O  O83  1  0.90429250  0.81782012  0.91436084  1
  O  O84  1  0.49487621  0.18235440  0.58415678  1
  O  O85  1  0.99337330  0.18017925  0.58371012  1
  O  O86  1  0.09338977  0.01348418  0.58660811  1
  O  O87  1  0.59475460  0.01767343  0.58662628  1
  O  O88  1  0.41321017  0.79991329  0.58469212  1
  O  O89  1  0.91366753  0.79840229  0.58262374  1
  O  O90  1  0.48837645  0.80396170  0.08602438  1
  O  O91  1  0.99133284  0.80383688  0.08355462  1
  O  O92  1  0.41296615  0.02270038  0.08551729  1
  O  O93  1  0.91425379  0.02956551  0.08262710  1
  O  O94  1  0.09776984  0.17276342  0.08670885  1
  O  O95  1  0.59610539  0.17220588  0.08522873  1
  O  O96  1  0.33906464  0.17200545  0.74652968  1
  O  O97  1  0.83920673  0.17371682  0.74141145  1
  O  O98  1  0.24120335  0.34016612  0.74347247  1
  O  O99  1  0.74011759  0.32842233  0.74175184  1
  O  O100  1  0.41800671  0.53688509  0.74281218  1
  O  O101  1  0.91878237  0.53223279  0.74104814  1
  O  O102  1  0.34346486  0.52787327  0.24515121  1
  O  O103  1  0.84490166  0.51199168  0.24220635  1
  O  O104  1  0.41646600  0.30453159  0.24441191  1
  O  O105  1  0.92147940  0.30914452  0.24117800  1
  O  O106  1  0.24039009  0.15557158  0.24114868  1
  O  O107  1  0.73631038  0.15156854  0.24481156  1
  O  O108  1  0.32099772  0.50112646  0.92294630  1
  O  O109  1  0.82143114  0.50197645  0.92267000  1
  O  O110  1  0.43139576  0.35605426  0.92213554  1
  O  O111  1  0.93087350  0.35516492  0.92124687  1
  O  O112  1  0.24562775  0.14038001  0.92249665  1
  O  O113  1  0.74600043  0.14034958  0.92092676  1
  O  O114  1  0.32295013  0.13683463  0.41955353  1
  O  O115  1  0.82375552  0.14262435  0.42537306  1
  O  O116  1  0.24577755  0.35348666  0.41827369  1
  O  O117  1  0.74389387  0.34458611  0.42678720  1
  O  O118  1  0.42986220  0.50990844  0.42062611  1
  O  O119  1  0.93161028  0.50944859  0.42215828  1
  O  O120  1  0.17739158  0.49155020  0.08071610  1
  O  O121  1  0.67615131  0.49085337  0.07977351  1
  O  O122  1  0.06927951  0.64144431  0.08025121  1
  O  O123  1  0.56844498  0.64568677  0.08085422  1
  O  O124  1  0.25364782  0.86361908  0.08093175  1
  O  O125  1  0.75398258  0.86458327  0.08062702  1
  O  O126  1  0.17282741  0.85536167  0.57487552  1
  O  O127  1  0.67455983  0.85891215  0.57813449  1
  O  O128  1  0.25356092  0.64506444  0.57793576  1
  O  O129  1  0.75401577  0.64498522  0.57840381  1
  O  O130  1  0.07078321  0.49708493  0.57666940  1
  O  O131  1  0.57315294  0.49779655  0.57369871  1
  O  O132  1  0.15718469  0.84009583  0.25836627  1
  O  O133  1  0.65474196  0.84080563  0.25663093  1
  O  O134  1  0.26256098  0.68128395  0.25872487  1
  O  O135  1  0.75535377  0.69163958  0.25535912  1
  O  O136  1  0.07710817  0.48465384  0.25781841  1
  O  O137  1  0.57385331  0.47025821  0.25500999  1
  O  O138  1  0.14899796  0.46453498  0.75860034  1
  O  O139  1  0.65697098  0.47157748  0.75972474  1
  O  O140  1  0.07330694  0.66619299  0.75844029  1
  O  O141  1  0.57627224  0.67472936  0.75920693  1
  O  O142  1  0.25329649  0.81786121  0.75559849  1
  O  O143  1  0.75237815  0.82734568  0.75928635  1
loop_
_geom_bond_atom_site_label_1
_geom_bond_atom_site_label_2
_geom_bond_distance
_geom_bond_site_symmetry_2
Na0 O135 2.344143 1_555
Na0 O105 2.435127 1_565
Na0 O107 2.470089 1_565
Na0 O133 2.535447 1_555
Na0 O19 2.587562 1_555
Na0 O33 2.697330 1_565
Na0 O63 2.799001 1_555
Na0 O5 2.885069 1_565
Na1 O103 2.334142 1_555
Na1 O136 2.430590 1_655
Na1 O132 2.489027 1_655
Na1 O105 2.558057 1_555
Na1 O3 2.588339 1_555
Na1 O60 2.666824 1_655
Na1 O22 2.828291 1_655
Na1 O31 2.887871 1_555
Na2 O142 2.280764 1_555
Na2 O98 2.395114 1_555
Na2 O100 2.424815 1_555
Na2 O12 2.601677 1_555
Na2 O138 2.614000 1_555
Na2 O28 2.762329 1_555
Na2 O70 2.778165 1_555
Na2 O8 2.860961 1_555
Na3 O143 2.403248 1_555
Na3 O101 2.455921 1_555
Na3 O99 2.462729 1_555
Na3 O13 2.488314 1_555
Na3 O139 2.500367 1_555
Na3 O29 2.669110 1_555
Na3 O71 2.867520 1_555
Na3 O9 2.872868 1_555
Na4 O97 2.366208 1_555
Na4 O140 2.413895 1_655
Na4 O138 2.423090 1_655
Na4 O101 2.526918 1_555
Na4 O11 2.553739 1_555
Na4 O25 2.732923 1_555
Na4 O66 2.790274 1_655
Na4 O14 2.907967 1_655
Na5 O97 2.326829 1_555
Na5 O143 2.347530 1_545
Na5 O99 2.553616 1_555
Na5 O141 2.568866 1_545
Na5 O27 2.642736 1_555
Na5 O17 2.746071 1_545
Na5 O7 2.764428 1_555
Na5 O69 2.784449 1_545
Na6 O75 2.472181 1_555
Na6 O72 2.500391 1_655
Na6 O89 2.512550 1_555
Na6 O85 2.562761 1_565
Na6 O76 2.569914 1_665
Na6 O86 2.599722 1_665
Na7 O77 2.427014 1_555
Na7 O73 2.511545 1_545
Na7 O74 2.534757 1_545
Na7 O87 2.627779 1_555
Na7 O84 2.645977 1_555
Na7 O88 2.680915 1_545
Na8 O93 2.506057 1_455
Na8 O91 2.519007 1_445
Na8 O94 2.552736 1_555
Na8 O78 2.558600 1_554
Na8 O80 2.581093 1_544
Na8 O83 2.594289 1_444
Na9 O95 2.515444 1_555
Na9 O92 2.528083 1_555
Na9 O90 2.541274 1_545
Na9 O79 2.557616 1_554
Na9 O82 2.589694 1_544
Na9 O81 2.613062 1_544
Na10 O96 2.375792 1_555
Na10 O110 2.479750 1_555
Na10 O112 2.489892 1_555
Na10 O108 2.750509 1_555
Na10 O100 2.816754 1_555
Na10 O98 2.825206 1_555
Na11 O113 2.479660 1_555
Na11 O111 2.482896 1_555
Na11 O97 2.565327 1_555
Na11 O109 2.628209 1_555
Na11 O99 2.777648 1_555
Na11 O101 2.786297 1_555
Na12 O104 2.513735 1_555
Na12 O102 2.523906 1_555
Na12 O106 2.601725 1_555
Na12 O116 2.626482 1_555
Na12 O118 2.645839 1_555
Na12 O114 2.646352 1_555
Na13 O103 2.487192 1_555
Na13 O117 2.513478 1_555
Na13 O119 2.601508 1_555
Na13 O107 2.687004 1_555
Na13 O115 2.757635 1_555
Na13 O105 2.892194 1_555
Na14 O134 2.521700 1_555
Na14 O124 2.540748 1_555
Na14 O120 2.568678 1_555
Na14 O136 2.658025 1_555
Na14 O132 2.670487 1_555
Na14 O122 2.714308 1_555
Na15 O135 2.430935 1_555
Na15 O137 2.526370 1_555
Na15 O121 2.564319 1_555
Na15 O123 2.653003 1_555
Na15 O133 2.672660 1_555
Na15 O125 2.682267 1_555
Na16 O142 2.424306 1_555
Na16 O126 2.513092 1_555
Na16 O128 2.598342 1_555
Na16 O140 2.713589 1_555
Na16 O130 2.720171 1_555
Na16 O138 2.830216 1_555
Na17 O129 2.489720 1_555
Na17 O127 2.503406 1_555
Na17 O131 2.621430 1_555
Na17 O143 2.630615 1_555
Na17 O139 2.793006 1_555
Na17 O141 2.795429 1_555
Mg0 O4 2.071177 1_555
Mg0 O2 2.083344 1_545
Mg0 O1 2.090167 1_555
Mg0 O74 2.118267 1_545
Mg0 O73 2.148013 1_545
Mg0 O77 2.150426 1_555
Mg1 O97 2.012290 1_555
Mg1 O27 2.048792 1_555
Mg1 O25 2.049470 1_555
Mg1 O29 2.089729 1_555
Mg1 O99 2.215149 1_555
Mg1 O101 2.223316 1_555
Mg2 O30 2.046169 1_555
Mg2 O34 2.075508 1_555
Mg2 O106 2.086594 1_555
Mg2 O32 2.096620 1_555
Mg2 O104 2.112384 1_555
Mg2 O102 2.135568 1_555
Mg3 O103 1.949018 1_555
Mg3 O35 2.008235 1_555
Mg3 O31 2.111158 1_555
Mg3 O33 2.153440 1_555
Mg3 O107 2.162706 1_555
Mg3 O105 2.228894 1_555
Mg4 O40 2.058088 1_556
Mg4 O36 2.069122 1_556
Mg4 O38 2.073851 1_556
Mg4 O108 2.110360 1_555
Mg4 O112 2.146683 1_555
Mg4 O110 2.151789 1_555
Mg5 O41 2.030958 1_556
Mg5 O39 2.061886 1_556
Mg5 O37 2.067623 1_556
Mg5 O109 2.105885 1_555
Mg5 O113 2.161126 1_555
Mg5 O111 2.162065 1_555
Mg6 O45 2.029643 1_555
Mg6 O47 2.062421 1_555
Mg6 O117 2.073500 1_555
Mg6 O115 2.081482 1_555
Mg6 O43 2.097677 1_555
Mg6 O119 2.152133 1_555
Mg7 O58 2.003178 1_555
Mg7 O56 2.056293 1_555
Mg7 O54 2.077631 1_555
Mg7 O130 2.108481 1_555
Mg7 O126 2.137073 1_555
Mg7 O128 2.176432 1_555
Mg8 O55 2.013315 1_555
Mg8 O57 2.065226 1_555
Mg8 O131 2.076482 1_555
Mg8 O59 2.099892 1_555
Mg8 O129 2.149062 1_555
Mg8 O127 2.172495 1_555
Mg9 O62 1.999102 1_555
Mg9 O64 2.029368 1_555
Mg9 O134 2.083757 1_555
Mg9 O60 2.121278 1_555
Mg9 O132 2.144639 1_555
Mg9 O136 2.180800 1_555
Mg10 O142 1.954261 1_555
Mg10 O68 2.007711 1_555
Mg10 O70 2.115480 1_555
Mg10 O140 2.149667 1_555
Mg10 O66 2.155745 1_555
Mg10 O138 2.238718 1_555
Mg11 O143 1.998326 1_555
Mg11 O67 2.049787 1_555
Mg11 O69 2.085962 1_555
Mg11 O71 2.090163 1_555
Mg11 O139 2.133540 1_555
Mg11 O141 2.140184 1_555
In0 O3 2.010136 1_555
In0 O72 2.179119 1_655
In0 O0 2.195604 1_665
In0 O76 2.203027 1_665
In0 O5 2.203616 1_565
In0 O75 2.218062 1_555
In1 O11 2.007212 1_555
In1 O83 2.177461 1_545
In1 O9 2.182961 1_545
In1 O78 2.183423 1_655
In1 O80 2.184380 1_645
In1 O6 2.187836 1_655
In2 O10 1.972803 1_555
In2 O79 2.156429 1_555
In2 O81 2.183529 1_545
In2 O82 2.190667 1_545
In2 O7 2.196392 1_555
In2 O8 2.207713 1_545
In3 O13 1.998197 1_555
In3 O89 2.167328 1_555
In3 O85 2.174387 1_565
In3 O86 2.193604 1_665
In3 O16 2.228845 1_655
In3 O14 2.232203 1_665
In4 O12 2.007762 1_545
In4 O87 2.171406 1_555
In4 O84 2.179444 1_555
In4 O15 2.185065 1_555
In4 O88 2.207559 1_545
In4 O17 2.226335 1_545
In5 O19 2.004182 1_555
In5 O22 2.182508 1_655
In5 O94 2.190845 1_665
In5 O20 2.204020 1_665
In5 O91 2.228303 1_555
In5 O93 2.238949 1_565
In6 O21 2.116600 1_565
In6 O18 2.117514 1_555
In6 O23 2.121816 1_555
In6 O92 2.195753 1_565
In6 O90 2.203566 1_555
In6 O95 2.223440 1_565
In7 O96 2.008479 1_555
In7 O26 2.122988 1_555
In7 O24 2.126904 1_555
In7 O28 2.192489 1_555
In7 O100 2.250854 1_555
In7 O98 2.253668 1_555
In8 O114 2.120810 1_555
In8 O44 2.130742 1_555
In8 O118 2.139300 1_555
In8 O46 2.139354 1_555
In8 O42 2.140131 1_555
In8 O116 2.148989 1_555
In9 O48 2.114097 1_554
In9 O50 2.116996 1_554
In9 O52 2.135973 1_554
In9 O122 2.156102 1_555
In9 O124 2.174138 1_555
In9 O120 2.196785 1_555
In10 O51 2.107204 1_554
In10 O49 2.130670 1_554
In10 O53 2.139230 1_554
In10 O123 2.166631 1_555
In10 O125 2.168341 1_555
In10 O121 2.177732 1_555
In11 O135 2.045628 1_555
In11 O65 2.097910 1_555
In11 O61 2.114051 1_555
In11 O137 2.199921 1_555
In11 O63 2.216376 1_555
In11 O133 2.255488 1_555
O0 S0 1.484311 1_555
O1 S1 1.460513 1_555
O2 S2 1.467486 1_555
O3 Si0 1.637092 1_555
O4 S4 1.464764 1_555
O5 S3 1.485513 1_655
O6 S5 1.475070 1_555
O7 S6 1.492429 1_555
O8 S8 1.480681 1_555
O9 S7 1.488909 1_655
O10 Si1 1.623017 1_545
O11 Si2 1.638931 1_555
O12 Si1 1.643351 1_555
O13 Si2 1.638487 1_565
O14 S5 1.480833 1_555
O15 S6 1.476952 1_555
O16 S7 1.478257 1_555
O17 S8 1.493524 1_555
O18 S2 1.507070 1_555
O19 Si0 1.644756 1_555
O20 S3 1.482076 1_555
O21 S4 1.497126 1_555
O22 S0 1.497192 1_565
O23 S1 1.490763 1_565
O24 S9 1.489036 1_555
O25 S10 1.488812 1_555
O26 S11 1.488228 1_555
O27 S12 1.490961 1_555
O28 S13 1.507706 1_555
O29 S14 1.489381 1_555
O30 S15 1.461522 1_555
O31 S16 1.468866 1_555
O32 S17 1.459048 1_555
O33 S18 1.475358 1_555
O34 S19 1.463141 1_555
O35 S20 1.459030 1_555
O36 S19 1.464914 1_555
O37 S20 1.463497 1_555
O38 S15 1.463141 1_555
O39 S16 1.462330 1_555
O40 S17 1.463521 1_555
O41 S18 1.461906 1_555
O42 S11 1.481527 1_555
O43 S12 1.459730 1_555
O44 S13 1.477390 1_555
O45 S14 1.456301 1_555
O46 S9 1.476489 1_555
O47 S10 1.459939 1_555
O48 S21 1.489288 1_555
O49 S22 1.483997 1_555
O50 S23 1.482252 1_555
O51 S24 1.484221 1_555
O52 S25 1.491698 1_555
O53 S26 1.487553 1_555
O54 S27 1.468337 1_555
O55 S28 1.463540 1_555
O56 S29 1.463931 1_555
O57 S30 1.468082 1_555
O58 S31 1.463298 1_555
O59 S32 1.461640 1_555
O60 S31 1.484132 1_555
O61 S32 1.490051 1_555
O62 S27 1.463408 1_555
O63 S28 1.501991 1_555
O64 S29 1.461671 1_555
O65 S30 1.498961 1_555
O66 S23 1.476612 1_555
O67 S24 1.466944 1_555
O68 S25 1.466262 1_555
O69 S26 1.477082 1_555
O70 S21 1.475360 1_555
O71 S22 1.474103 1_555
O72 S31 1.512458 1_555
O73 S32 1.474591 1_555
O74 S27 1.479669 1_555
O75 S28 1.503122 1_555
O76 S29 1.501808 1_555
O77 S30 1.483337 1_555
O78 S23 1.497927 1_555
O79 S24 1.498676 1_555
O80 S25 1.502288 1_555
O81 S26 1.500201 1_555
O82 S21 1.497027 1_555
O83 S22 1.497941 1_555
O84 S9 1.488639 1_555
O85 S10 1.515007 1_555
O86 S11 1.489695 1_555
O87 S12 1.519036 1_555
O88 S13 1.489716 1_555
O89 S14 1.510929 1_555
O90 S15 1.507090 1_555
O91 S16 1.501898 1_555
O92 S17 1.507745 1_555
O93 S18 1.498979 1_555
O94 S19 1.510883 1_555
O95 S20 1.503421 1_555
O96 Si1 1.635536 1_545
O97 Si2 1.635416 1_555
O98 S5 1.488617 1_555
O99 S6 1.487201 1_555
O100 S8 1.487504 1_555
O101 S7 1.491511 1_655
O102 S2 1.482264 1_555
O103 Si0 1.611620 1_555
O104 S4 1.474470 1_555
O105 S3 1.489562 1_655
O106 S0 1.464012 1_555
O107 S1 1.485792 1_555
O108 S21 1.469533 1_555
O109 S22 1.471736 1_555
O110 S24 1.472756 1_555
O111 S23 1.477465 1_655
O112 S25 1.473977 1_545
O113 S26 1.477026 1_545
O114 S27 1.516981 1_545
O115 S28 1.469304 1_545
O116 S29 1.511784 1_555
O117 S30 1.477250 1_555
O118 S32 1.509110 1_555
O119 S31 1.478570 1_655
O120 S19 1.511824 1_555
O121 S20 1.507037 1_555
O122 S16 1.506370 1_455
O123 S15 1.508181 1_555
O124 S17 1.512184 1_565
O125 S18 1.509297 1_565
O126 S11 1.465995 1_565
O127 S12 1.482745 1_565
O128 S13 1.468150 1_555
O129 S14 1.481489 1_555
O130 S10 1.475672 1_455
O131 S9 1.462007 1_555
O132 S0 1.488595 1_565
O133 S1 1.495065 1_565
O134 S2 1.482797 1_555
O135 Si0 1.643421 1_555
O136 S3 1.481738 1_555
O137 S4 1.491900 1_555
O138 S5 1.481609 1_555
O139 S6 1.469506 1_555
O140 S7 1.472304 1_555
O141 S8 1.466103 1_555
O142 Si1 1.628735 1_555
O143 Si2 1.632699 1_565
