# generated using pymatgen
data_SrTa2Bi2O9
_symmetry_space_group_name_H-M   'P 1'
_cell_length_a   5.53780908
_cell_length_b   5.53548553
_cell_length_c   12.80953138
_cell_angle_alpha   102.47825508
_cell_angle_beta   90.00000000
_cell_angle_gamma   90.00000000
_symmetry_Int_Tables_number   1
_chemical_formula_structural   SrTa2Bi2O9
_chemical_formula_sum   'Sr2 Ta4 Bi4 O18'
_cell_volume   383.39369099
_cell_formula_units_Z   2
loop_
 _symmetry_equiv_pos_site_id
 _symmetry_equiv_pos_as_xyz
  1  'x, y, z'
loop_
 _atom_site_type_symbol
 _atom_site_label
 _atom_site_symmetry_multiplicity
 _atom_site_fract_x
 _atom_site_fract_y
 _atom_site_fract_z
 _atom_site_occupancy
  Sr  Sr0  1  0.01436004  0.74905282  0.00000000  1
  Sr  Sr1  1  0.51436004  0.25094718  -0.00000000  1
  Ta  Ta0  1  0.01803803  0.33211325  0.16778117  1
  Ta  Ta1  1  0.51803803  0.83566892  0.16778117  1
  Ta  Ta2  1  0.01803803  0.16433108  0.83221883  1
  Ta  Ta3  1  0.51803803  0.66788675  0.83221883  1
  Bi  Bi0  1  0.93496312  0.97928742  0.39973929  1
  Bi  Bi1  1  0.43496312  0.02071258  0.60026071  1
  Bi  Bi2  1  0.43496312  0.42045187  0.39973929  1
  Bi  Bi3  1  0.93496312  0.57954813  0.60026071  1
  O  O0  1  0.79749479  0.60298823  0.16929819  1
  O  O1  1  0.29749479  0.39701177  0.83070181  1
  O  O2  1  0.29749479  0.56631096  0.16929819  1
  O  O3  1  0.79749479  0.43368904  0.83070181  1
  O  O4  1  0.76975632  0.07959042  0.13555339  1
  O  O5  1  0.26975632  0.92040958  0.86444761  1
  O  O6  1  0.26975632  0.05596198  0.13555339  1
  O  O7  1  0.76975632  0.94403802  0.86444761  1
  O  O8  1  0.71686956  0.26614781  0.50178262  1
  O  O9  1  0.21686956  0.73385219  0.49821738  1
  O  O10  1  0.53481873  0.70539887  0.00000000  1
  O  O11  1  0.03481873  0.29460113  -0.00000000  1
  O  O12  1  0.53679030  0.97543188  0.31467698  1
  O  O13  1  0.03679030  0.02456812  0.68532302  1
  O  O14  1  0.03679030  0.33924411  0.31467698  1
  O  O15  1  0.53679030  0.66075589  0.68532302  1
  O  O16  1  0.71686956  0.76436419  0.49821738  1
  O  O17  1  0.21686956  0.23563581  0.50178262  1
loop_
_geom_bond_atom_site_label_1
_geom_bond_atom_site_label_2
_geom_bond_distance
_geom_bond_site_symmetry_2
Bi0 O8 2.189014 1_565
Bi0 O16 2.261392 1_555
Bi0 O17 2.314694 1_665
Bi0 O12 2.457580 1_555
Bi0 O14 2.532515 1_665
Bi0 O9 2.571937 1_655
Bi1 O9 2.189014 1_545
Bi1 O17 2.261392 1_555
Bi1 O16 2.314694 1_545
Bi1 O13 2.457580 1_555
Bi1 O15 2.532515 1_545
Bi1 O8 2.571937 1_555
Bi2 O17 2.189011 1_555
Bi2 O9 2.261389 1_555
Bi2 O8 2.314691 1_555
Bi2 O14 2.457581 1_555
Bi2 O12 2.532520 1_545
Bi2 O16 2.571933 1_555
Bi3 O16 2.189011 1_555
Bi3 O8 2.261389 1_555
Bi3 O9 2.314691 1_655
Bi3 O15 2.457581 1_555
Bi3 O13 2.532520 1_665
Bi3 O17 2.571933 1_655
O0 Ta0 1.930725 1_655
O0 Ta1 2.016219 1_555
O0 Sr0 2.748948 1_655
O0 Sr1 3.022032 1_555
O1 Ta3 1.930725 1_555
O1 Ta2 2.016219 1_555
O1 Sr1 2.748948 1_556
O1 Sr0 3.022032 1_556
O2 Ta1 1.930725 1_555
O2 Ta0 2.016219 1_555
O2 Sr1 2.748950 1_555
O2 Sr0 3.022030 1_555
O3 Ta2 1.930725 1_655
O3 Ta3 2.016219 1_555
O3 Sr0 2.748950 1_656
O3 Sr1 3.022030 1_556
O4 Ta0 1.940477 1_655
O4 Ta1 2.043905 1_545
O4 Sr1 2.574261 1_555
O4 Sr0 2.612412 1_645
O5 Ta3 1.940478 1_555
O5 Ta2 2.043910 1_565
O5 Sr0 2.574252 1_556
O5 Sr1 2.612405 1_566
O6 Ta1 1.940470 1_545
O6 Ta0 2.043913 1_555
O6 Sr0 2.574259 1_545
O6 Sr1 2.612415 1_555
O7 Ta2 1.940474 1_665
O7 Ta3 2.043914 1_555
O7 Sr1 2.574252 1_566
O7 Sr0 2.612405 1_656
O10 Ta3 2.116117 1_554
O10 Ta1 2.116118 1_555
O10 Sr1 2.518161 1_555
O10 Sr0 2.666580 1_655
O10 Sr0 2.892313 1_555
O10 Sr1 3.021999 1_565
O11 Ta0 2.116117 1_555
O11 Ta2 2.116118 1_554
O11 Sr0 2.518161 1_555
O11 Sr1 2.666580 1_555
O11 Sr1 2.892313 1_455
O11 Sr0 3.021999 1_545
O12 Ta1 1.876408 1_555
O13 Ta2 1.876408 1_555
O14 Ta0 1.876410 1_555
O15 Ta3 1.876410 1_555
