# generated using pymatgen
data_Rb2CuH4(Cl2O)2
_symmetry_space_group_name_H-M   'P 1'
_cell_length_a   7.79352500
_cell_length_b   7.79352500
_cell_length_c   8.08543600
_cell_angle_alpha   90.00000000
_cell_angle_beta   90.00000000
_cell_angle_gamma   90.00000000
_symmetry_Int_Tables_number   1
_chemical_formula_structural   Rb2CuH4(Cl2O)2
_chemical_formula_sum   'Rb4 Cu2 H8 Cl8 O4'
_cell_volume   491.10155534
_cell_formula_units_Z   2
loop_
 _symmetry_equiv_pos_site_id
 _symmetry_equiv_pos_as_xyz
  1  'x, y, z'
loop_
 _atom_site_type_symbol
 _atom_site_label
 _atom_site_symmetry_multiplicity
 _atom_site_fract_x
 _atom_site_fract_y
 _atom_site_fract_z
 _atom_site_occupancy
  Rb  Rb0  1  0.50000000  0.00000000  0.75000000  1
  Rb  Rb1  1  0.50000000  0.00000000  0.25000000  1
  Rb  Rb2  1  0.00000000  0.50000000  0.75000000  1
  Rb  Rb3  1  0.00000000  0.50000000  0.25000000  1
  Cu  Cu0  1  0.50000000  0.50000000  0.50000000  1
  Cu  Cu1  1  0.00000000  0.00000000  0.00000000  1
  H  H0  1  0.92678800  0.92678800  0.68294900  1
  H  H1  1  0.07321200  0.07321200  0.68294900  1
  H  H2  1  0.92678800  0.92678800  0.31705100  1
  H  H3  1  0.42678800  0.57321200  0.18294900  1
  H  H4  1  0.57321200  0.42678800  0.18294900  1
  H  H5  1  0.07321200  0.07321200  0.31705100  1
  H  H6  1  0.42678800  0.57321200  0.81705100  1
  H  H7  1  0.57321200  0.42678800  0.81705100  1
  Cl  Cl0  1  0.70803300  0.29196700  0.00000000  1
  Cl  Cl1  1  0.79381900  0.79381900  0.00000000  1
  Cl  Cl2  1  0.79196700  0.79196700  0.50000000  1
  Cl  Cl3  1  0.29381900  0.70618100  0.50000000  1
  Cl  Cl4  1  0.20618100  0.20618100  0.00000000  1
  Cl  Cl5  1  0.20803300  0.20803300  0.50000000  1
  Cl  Cl6  1  0.29196700  0.70803300  0.00000000  1
  Cl  Cl7  1  0.70618100  0.29381900  0.50000000  1
  O  O0  1  0.00000000  0.00000000  0.24437400  1
  O  O1  1  0.50000000  0.50000000  0.74437400  1
  O  O2  1  0.50000000  0.50000000  0.25562600  1
  O  O3  1  0.00000000  0.00000000  0.75562600  1
loop_
_geom_bond_atom_site_label_1
_geom_bond_atom_site_label_2
_geom_bond_distance
_geom_bond_site_symmetry_2
Cu0 O2 1.975870 1_555
Cu0 O1 1.975870 1_555
Cu1 O3 1.975870 1_554
Cu1 O0 1.975870 1_555
H0 O3 0.998211 1_665
H1 O3 0.998211 1_555
H2 O0 0.998211 1_665
H3 O2 0.998211 1_555
H4 O2 0.998211 1_555
H5 O0 0.998211 1_555
H6 O1 0.998211 1_555
H7 O1 0.998211 1_555
Cl0 Rb3 3.448510 1_655
Cl0 Rb0 3.448510 1_554
Cl0 Rb1 3.448510 1_555
Cl0 Rb2 3.448510 1_654
Cl1 Cu1 2.272467 1_665
Cl1 Rb2 3.451307 1_654
Cl1 Rb1 3.451307 1_565
Cl1 Rb3 3.451307 1_655
Cl1 Rb0 3.451307 1_564
Cl2 Rb1 3.448510 1_565
Cl2 Rb2 3.448510 1_655
Cl2 Rb0 3.448510 1_565
Cl2 Rb3 3.448510 1_655
Cl3 Cu0 2.272467 1_555
Cl3 Rb3 3.451307 1_555
Cl3 Rb2 3.451307 1_555
Cl3 Rb1 3.451307 1_565
Cl3 Rb0 3.451307 1_565
Cl4 Cu1 2.272467 1_555
Cl4 Rb3 3.451307 1_555
Cl4 Rb2 3.451307 1_554
Cl4 Rb0 3.451307 1_554
Cl4 Rb1 3.451307 1_555
Cl5 Rb3 3.448510 1_555
Cl5 Rb0 3.448510 1_555
Cl5 Rb1 3.448510 1_555
Cl5 Rb2 3.448510 1_555
Cl6 Rb0 3.448510 1_564
Cl6 Rb1 3.448510 1_565
Cl6 Rb2 3.448510 1_554
Cl6 Rb3 3.448510 1_555
Cl7 Cu0 2.272467 1_555
Cl7 Rb0 3.451307 1_555
Cl7 Rb1 3.451307 1_555
Cl7 Rb2 3.451307 1_655
Cl7 Rb3 3.451307 1_655
