# generated using pymatgen
data_Na3Y2Nb2SiP5O24
_symmetry_space_group_name_H-M   'P 1'
_cell_length_a   9.08712987
_cell_length_b   9.06811952
_cell_length_c   22.98555182
_cell_angle_alpha   89.93436517
_cell_angle_beta   90.18000904
_cell_angle_gamma   120.02654144
_symmetry_Int_Tables_number   1
_chemical_formula_structural   Na3Y2Nb2SiP5O24
_chemical_formula_sum   'Na9 Y6 Nb6 Si3 P15 O72'
_cell_volume   1639.87643914
_cell_formula_units_Z   3
loop_
 _symmetry_equiv_pos_site_id
 _symmetry_equiv_pos_as_xyz
  1  'x, y, z'
loop_
 _atom_site_type_symbol
 _atom_site_label
 _atom_site_symmetry_multiplicity
 _atom_site_fract_x
 _atom_site_fract_y
 _atom_site_fract_z
 _atom_site_occupancy
  Na  Na0  1  0.34797713  0.98879057  0.75260872  1
  Na  Na1  1  0.67492764  0.98064892  0.58728362  1
  Na  Na2  1  0.68353642  0.69852546  0.08128464  1
  Na  Na3  1  0.02708007  0.99988286  0.50216869  1
  Na  Na4  1  0.02026486  0.00732783  0.00161911  1
  Na  Na5  1  0.68096185  0.35391185  0.83637655  1
  Na  Na6  1  0.66246801  0.33036051  0.33476992  1
  Na  Na7  1  0.32298247  0.66698684  0.17054437  1
  Na  Na8  1  0.32884082  0.64190378  0.66990027  1
  Y  Y0  1  0.00141209  0.99685031  0.64676612  1
  Y  Y1  1  0.00885347  0.00857070  0.14784829  1
  Y  Y2  1  0.66616227  0.32963574  0.97860102  1
  Y  Y3  1  0.66370688  0.33523235  0.47724724  1
  Y  Y4  1  0.33588027  0.66781585  0.31198423  1
  Y  Y5  1  0.33735537  0.66222342  0.81422328  1
  Nb  Nb0  1  0.00064324  0.00055654  0.35240265  1
  Nb  Nb1  1  0.99126397  0.99833717  0.85262997  1
  Nb  Nb2  1  0.66856466  0.33181207  0.68493766  1
  Nb  Nb3  1  0.67139949  0.33459043  0.18668347  1
  Nb  Nb4  1  0.32551192  0.66731202  0.01854969  1
  Nb  Nb5  1  0.33089491  0.66657567  0.51840068  1
  Si  Si0  1  0.70765533  0.01027930  0.74588796  1
  Si  Si1  1  0.37184026  0.03173987  0.58137068  1
  Si  Si2  1  0.96312601  0.62188892  0.08274291  1
  P  P0  1  0.30225432  0.01625031  0.25080674  1
  P  P1  1  0.71511140  0.70039458  0.24784623  1
  P  P2  1  0.98405889  0.28715383  0.25078626  1
  P  P3  1  0.29959528  0.28622214  0.75048722  1
  P  P4  1  0.98579693  0.70055461  0.75227297  1
  P  P5  1  0.96409568  0.34772374  0.58244418  1
  P  P6  1  0.65156602  0.61808030  0.58244331  1
  P  P7  1  0.65153324  0.03287205  0.08414821  1
  P  P8  1  0.38218575  0.34711456  0.08282959  1
  P  P9  1  0.63617014  0.68027574  0.91835355  1
  P  P10  1  0.04688574  0.36399340  0.91605127  1
  P  P11  1  0.31613367  0.95277246  0.91375549  1
  P  P12  1  0.63615994  0.95254202  0.41661364  1
  P  P13  1  0.31726674  0.36649541  0.41522292  1
  P  P14  1  0.04990717  0.68290290  0.41505054  1
  O  O0  1  0.19886088  0.03140792  0.30475544  1
  O  O1  1  0.83567525  0.80434307  0.30127401  1
  O  O2  1  0.96891072  0.16910941  0.30463560  1
  O  O3  1  0.20250872  0.16666351  0.80443324  1
  O  O4  1  0.96858516  0.80060804  0.80658154  1
  O  O5  1  0.83630545  0.02472338  0.80316366  1
  O  O6  1  0.77948217  0.98459937  0.68641931  1
  O  O7  1  0.19952007  0.20425830  0.69592957  1
  O  O8  1  0.02522730  0.81353800  0.69939722  1
  O  O9  1  0.78961046  0.79513026  0.19163397  1
  O  O10  1  0.00539566  0.20979187  0.19603415  1
  O  O11  1  0.19956412  0.99122809  0.19644307  1
  O  O12  1  0.86963481  0.37086824  0.63755606  1
  O  O13  1  0.49966763  0.13570796  0.64118564  1
  O  O14  1  0.63732047  0.50680332  0.63768686  1
  O  O15  1  0.86117890  0.49377432  0.14125247  1
  O  O16  1  0.63180575  0.12827305  0.13902468  1
  O  O17  1  0.50140060  0.36756688  0.13705187  1
  O  O18  1  0.45762192  0.31963779  0.02861241  1
  O  O19  1  0.84260019  0.53652422  0.02875164  1
  O  O20  1  0.67932036  0.13596647  0.03006685  1
  O  O21  1  0.47327159  0.14143002  0.52731217  1
  O  O22  1  0.68290384  0.54486125  0.52858800  1
  O  O23  1  0.85623808  0.32049106  0.52958431  1
  O  O24  1  0.54586050  0.69860842  0.97417949  1
  O  O25  1  0.16602948  0.46637834  0.97051133  1
  O  O26  1  0.30576414  0.83073974  0.96750381  1
  O  O27  1  0.54116742  0.83879527  0.47271867  1
  O  O28  1  0.30003058  0.46453565  0.46981549  1
  O  O29  1  0.16764550  0.69988359  0.47038094  1
  O  O30  1  0.13212133  0.66148844  0.36187667  1
  O  O31  1  0.52862670  0.86893811  0.36387890  1
  O  O32  1  0.33664743  0.46713287  0.36109190  1
  O  O33  1  0.12505937  0.46696404  0.86216283  1
  O  O34  1  0.33534694  0.87613606  0.85799861  1
  O  O35  1  0.53429176  0.66475377  0.86459751  1
  O  O36  1  0.04513050  0.85397517  0.41083237  1
  O  O37  1  0.81077862  0.95486617  0.40993871  1
  O  O38  1  0.14674225  0.18887290  0.41047131  1
  O  O39  1  0.04528907  0.19001270  0.91164035  1
  O  O40  1  0.14663033  0.95591429  0.91348920  1
  O  O41  1  0.81400573  0.85167400  0.91199013  1
  O  O42  1  0.98402301  0.19176204  0.59043839  1
  O  O43  1  0.18071983  0.99179201  0.58504536  1
  O  O44  1  0.79204413  0.80403923  0.58881746  1
  O  O45  1  0.98852048  0.80963742  0.08925088  1
  O  O46  1  0.79473403  0.99229101  0.09172129  1
  O  O47  1  0.19950667  0.20605120  0.08979888  1
  O  O48  1  0.70811078  0.19584904  0.74215638  1
  O  O49  1  0.47436549  0.28933208  0.74687557  1
  O  O50  1  0.81651505  0.52959703  0.74611917  1
  O  O51  1  0.70814343  0.52300392  0.24506630  1
  O  O52  1  0.81050349  0.28768488  0.24665125  1
  O  O53  1  0.47560676  0.18714009  0.24669275  1
  O  O54  1  0.66820814  0.53118434  0.92083538  1
  O  O55  1  0.86655928  0.32869588  0.92325947  1
  O  O56  1  0.46708089  0.12968425  0.92165841  1
  O  O57  1  0.67366181  0.13473570  0.42227796  1
  O  O58  1  0.46497605  0.33393380  0.42076349  1
  O  O59  1  0.87076099  0.53613832  0.42210933  1
  O  O60  1  0.38632043  0.52383768  0.07822869  1
  O  O61  1  0.14990152  0.63080409  0.07359318  1
  O  O62  1  0.48190950  0.85491071  0.07780788  1
  O  O63  1  0.37462761  0.84675810  0.57557785  1
  O  O64  1  0.47935947  0.62049595  0.57710609  1
  O  O65  1  0.14184942  0.51278488  0.57721104  1
  O  O66  1  0.33363948  0.86754899  0.25715982  1
  O  O67  1  0.53555076  0.66916454  0.25516011  1
  O  O68  1  0.12953831  0.46873213  0.25694771  1
  O  O69  1  0.33119799  0.46649891  0.75553704  1
  O  O70  1  0.13725984  0.67366473  0.76025808  1
  O  O71  1  0.51163125  0.86483069  0.75414496  1
loop_
_geom_bond_atom_site_label_1
_geom_bond_atom_site_label_2
_geom_bond_distance
_geom_bond_site_symmetry_2
Na0 O71 2.269143 1_555
Na0 O49 2.373075 1_565
Na0 O70 2.527470 1_555
Na0 O34 2.608398 1_555
Na0 O3 2.813583 1_565
Na0 O8 2.817890 1_555
Na0 O48 2.854345 1_565
Na0 O13 2.900138 1_565
Na1 O44 2.324685 1_555
Na1 O63 2.381909 1_555
Na1 O6 2.459454 1_555
Na1 O42 2.485370 1_565
Na1 O64 2.840709 1_555
Na2 O46 2.341145 1_555
Na2 O60 2.350759 1_555
Na2 O45 2.435596 1_555
Na2 O9 2.697167 1_555
Na2 O24 2.758186 1_554
Na2 O19 2.800995 1_555
Na2 O62 2.823764 1_555
Na2 O17 2.902205 1_555
Na3 O43 2.380962 1_555
Na3 O36 2.531955 1_555
Na3 O38 2.589018 1_565
Na3 O37 2.774358 1_455
Na3 O44 2.811562 1_455
Na3 O42 2.826941 1_465
Na4 O40 2.488383 1_544
Na4 O39 2.586823 1_554
Na4 O45 2.613812 1_445
Na4 O47 2.656805 1_555
Na4 O41 2.661642 1_444
Na4 O46 2.873036 1_445
Na5 O50 2.530596 1_555
Na5 O54 2.561517 1_555
Na5 O49 2.641561 1_555
Na5 O48 2.677674 1_555
Na5 O55 2.692340 1_555
Na5 O56 2.795384 1_555
Na6 O53 2.538898 1_555
Na6 O52 2.569389 1_555
Na6 O51 2.597466 1_555
Na6 O58 2.685030 1_555
Na6 O57 2.715545 1_555
Na6 O59 2.746779 1_555
Na7 O61 2.647768 1_555
Na7 O62 2.661089 1_555
Na7 O66 2.666766 1_555
Na7 O68 2.667843 1_555
Na7 O60 2.698260 1_555
Na7 O67 2.729964 1_555
Na8 O69 2.536086 1_555
Na8 O64 2.596710 1_555
Na8 O65 2.605602 1_555
Na8 O71 2.687665 1_555
Na8 O63 2.747238 1_555
Na8 O70 2.820154 1_555
Nb0 O0 2.007367 1_555
Nb0 O2 2.014967 1_455
Nb0 O1 2.029419 1_445
Nb0 O38 2.045822 1_555
Nb0 O37 2.048188 1_445
Nb0 O36 2.065014 1_545
Nb1 O5 1.912952 1_565
Nb1 O4 2.002726 1_555
Nb1 O41 2.022549 1_555
Nb1 O39 2.061345 1_665
Nb1 O3 2.078251 1_665
Nb1 O40 2.151293 1_655
Nb2 O13 1.947351 1_555
Nb2 O48 1.953395 1_555
Nb2 O12 2.003502 1_555
Nb2 O14 2.055060 1_555
Nb2 O50 2.140704 1_555
Nb2 O49 2.150268 1_555
Nb3 O15 1.914344 1_555
Nb3 O16 2.039200 1_555
Nb3 O52 2.050493 1_555
Nb3 O17 2.056148 1_555
Nb3 O51 2.064706 1_555
Nb3 O53 2.118086 1_555
Nb4 O61 1.933883 1_555
Nb4 O26 1.966214 1_554
Nb4 O25 1.997831 1_554
Nb4 O62 2.083881 1_555
Nb4 O24 2.138571 1_554
Nb4 O60 2.142524 1_555
Nb5 O63 1.976525 1_555
Nb5 O29 1.986849 1_555
Nb5 O28 2.042288 1_555
Nb5 O27 2.053029 1_555
Nb5 O65 2.082293 1_555
Nb5 O64 2.089736 1_555
O0 P0 1.605087 1_555
O1 P1 1.599258 1_555
O2 P2 1.596058 1_555
O3 P3 1.593063 1_555
O4 P4 1.597428 1_555
O5 Si0 1.718878 1_555
O6 Si0 1.583403 1_565
O6 Y0 2.167322 1_655
O7 P3 1.506836 1_555
O7 Y0 2.158414 1_545
O8 P4 1.512518 1_455
O8 Y0 2.151128 1_555
O9 P1 1.512173 1_555
O9 Y1 2.208454 1_665
O10 P2 1.501086 1_455
O10 Y1 2.149295 1_555
O11 P0 1.505036 1_565
O11 Y1 2.129765 1_565
O12 P5 1.604159 1_555
O13 Si1 1.739355 1_555
O14 P6 1.585797 1_555
O15 Si2 1.715729 1_555
O16 P7 1.590824 1_555
O17 P8 1.597587 1_555
O18 P8 1.504011 1_555
O18 Y2 2.182273 1_554
O19 Si2 1.576088 1_555
O19 Y2 2.098119 1_554
O20 P7 1.498692 1_555
O20 Y2 2.168530 1_554
O21 Si1 1.571540 1_555
O21 Y3 2.090855 1_555
O22 P6 1.499214 1_555
O22 Y3 2.169931 1_555
O23 P5 1.499613 1_555
O23 Y3 2.178643 1_555
O24 P9 1.578395 1_555
O25 P10 1.609135 1_555
O26 P11 1.628803 1_555
O27 P12 1.607793 1_555
O28 P13 1.591446 1_555
O29 P14 1.616446 1_555
O30 P14 1.497056 1_555
O30 Y4 2.157240 1_555
O31 P12 1.500714 1_555
O31 Y4 2.147502 1_555
O32 P13 1.499960 1_555
O32 Y4 2.143324 1_555
O33 P10 1.499941 1_555
O33 Y5 2.159014 1_555
O34 P11 1.510238 1_555
O34 Y5 2.194438 1_555
O35 P9 1.505463 1_555
O35 Y5 2.118909 1_555
O36 P14 1.576340 1_555
O37 P12 1.584271 1_555
O38 P13 1.583954 1_555
O39 P10 1.573850 1_555
O40 P11 1.554744 1_555
O41 P9 1.592440 1_555
O42 P5 1.523891 1_555
O42 Y0 2.257933 1_645
O43 Si1 1.589284 1_565
O43 Y0 2.181551 1_555
O44 P6 1.529595 1_555
O44 Y0 2.260788 1_655
O45 Si2 1.606672 1_555
O45 Y1 2.184702 1_665
O46 P7 1.528640 1_565
O46 Y1 2.273596 1_665
O47 P8 1.514490 1_555
O47 Y1 2.211970 1_555
O48 Si0 1.682791 1_555
O49 P3 1.576685 1_555
O50 P4 1.549878 1_555
O51 P1 1.579227 1_555
O52 P2 1.582095 1_555
O53 P0 1.565045 1_555
O54 P9 1.519704 1_555
O54 Y2 2.250397 1_555
O55 P10 1.513849 1_655
O55 Y2 2.228110 1_555
O56 P11 1.511605 1_545
O56 Y2 2.231870 1_555
O57 P12 1.516388 1_545
O57 Y3 2.254060 1_555
O58 P13 1.516752 1_555
O58 Y3 2.216082 1_555
O59 P14 1.510152 1_655
O59 Y3 2.246016 1_555
O60 P8 1.587491 1_555
O61 Si2 1.672219 1_455
O62 P7 1.584636 1_565
O63 Si1 1.695647 1_565
O64 P6 1.580323 1_555
O65 P5 1.563683 1_455
O66 P0 1.518266 1_565
O66 Y4 2.213689 1_555
O67 P1 1.519879 1_555
O67 Y4 2.234042 1_555
O68 P2 1.516502 1_455
O68 Y4 2.231117 1_555
O69 P3 1.516179 1_555
O69 Y5 2.208729 1_555
O70 P4 1.523717 1_455
O70 Y5 2.242751 1_555
O71 Si0 1.612107 1_565
O71 Y5 2.210544 1_555
