# generated using pymatgen
data_Na3CaTa5Si6(SO12)3
_symmetry_space_group_name_H-M   'P 1'
_cell_length_a   8.92878116
_cell_length_b   8.92878086
_cell_length_c   23.05207067
_cell_angle_alpha   90.12616043
_cell_angle_beta   89.87383957
_cell_angle_gamma   119.98948264
_symmetry_Int_Tables_number   1
_chemical_formula_structural   Na3CaTa5Si6(SO12)3
_chemical_formula_sum   'Na6 Ca2 Ta10 Si12 S6 O72'
_cell_volume   1591.73046832
_cell_formula_units_Z   2
loop_
 _symmetry_equiv_pos_site_id
 _symmetry_equiv_pos_as_xyz
  1  'x, y, z'
loop_
 _atom_site_type_symbol
 _atom_site_label
 _atom_site_symmetry_multiplicity
 _atom_site_fract_x
 _atom_site_fract_y
 _atom_site_fract_z
 _atom_site_occupancy
  Na  Na0  1  0.00511665  0.99463584  0.50007257  1
  Na  Na1  1  0.00536416  0.99488335  0.00007257  1
  Na  Na2  1  0.66739897  0.31669572  0.83092458  1
  Na  Na3  1  0.68330428  0.33260103  0.33092458  1
  Na  Na4  1  0.31424090  0.64308995  0.16308574  1
  Na  Na5  1  0.35691005  0.68575910  0.66308574  1
  Ca  Ca0  1  0.65766570  0.32210009  0.68702279  1
  Ca  Ca1  1  0.67789991  0.34233430  0.18702279  1
  Ta  Ta0  1  0.99707726  0.00668572  0.35928335  1
  Ta  Ta1  1  0.99331428  0.00292274  0.85928335  1
  Ta  Ta2  1  0.98637344  0.99010174  0.64231837  1
  Ta  Ta3  1  0.00989826  0.01362656  0.14231837  1
  Ta  Ta4  1  0.66498948  0.34682744  0.97770268  1
  Ta  Ta5  1  0.65317256  0.33501052  0.47770268  1
  Ta  Ta6  1  0.32308416  0.65950464  0.01615548  1
  Ta  Ta7  1  0.34049536  0.67691584  0.51615548  1
  Ta  Ta8  1  0.32367959  0.65655039  0.31521662  1
  Ta  Ta9  1  0.34344961  0.67632041  0.81521662  1
  Si  Si0  1  0.00259400  0.29061480  0.25199786  1
  Si  Si1  1  0.70938520  0.99740600  0.75199786  1
  Si  Si2  1  0.37517390  0.03879678  0.58485046  1
  Si  Si3  1  0.65742116  0.61764513  0.58472657  1
  Si  Si4  1  0.96120322  0.62482610  0.08485046  1
  Si  Si5  1  0.38235487  0.34257884  0.08472657  1
  Si  Si6  1  0.61868582  0.66778091  0.91714598  1
  Si  Si7  1  0.04180917  0.38381050  0.91422347  1
  Si  Si8  1  0.33955643  0.95947165  0.91604490  1
  Si  Si9  1  0.61618950  0.95819083  0.41422347  1
  Si  Si10  1  0.33221909  0.38131418  0.41714598  1
  Si  Si11  1  0.04052835  0.66044357  0.41604490  1
  S  S0  1  0.27666862  0.98970024  0.25121139  1
  S  S1  1  0.71217261  0.72281051  0.25227546  1
  S  S2  1  0.27718949  0.28782739  0.75227546  1
  S  S3  1  0.01029976  0.72333138  0.75121139  1
  S  S4  1  0.96324291  0.33527753  0.58223405  1
  S  S5  1  0.66472247  0.03675709  0.08223405  1
  O  O0  1  0.18153252  -0.00470747  0.30326868  1
  O  O1  1  0.81744548  0.81439720  0.30481437  1
  O  O2  1  0.00450577  0.17212705  0.30699895  1
  O  O3  1  0.18560280  0.18255452  0.80481437  1
  O  O4  1  0.00470747  0.81846748  0.80326868  1
  O  O5  1  0.82787295  -0.00450577  0.80699895  1
  O  O6  1  0.81256699  0.98037924  0.69355474  1
  O  O7  1  0.17703392  0.20097096  0.69895777  1
  O  O8  1  0.02875044  0.82689746  0.69685354  1
  O  O9  1  0.79902904  0.82296608  0.19895777  1
  O  O10  1  0.01962076  0.18743301  0.19355474  1
  O  O11  1  0.17310254  0.97124956  0.19685354  1
  O  O12  1  0.89808395  0.36692816  0.63557659  1
  O  O13  1  0.48237742  0.09096017  0.64254711  1
  O  O14  1  0.62673875  0.52232202  0.64402547  1
  O  O15  1  0.90903983  0.51762258  0.14254711  1
  O  O16  1  0.63307184  0.10191605  0.13557659  1
  O  O17  1  0.47767798  0.37326125  0.14402547  1
  O  O18  1  0.47426425  0.30605355  0.02705331  1
  O  O19  1  0.83312751  0.52631754  0.02723935  1
  O  O20  1  0.69901526  0.14827282  0.03079354  1
  O  O21  1  0.47368246  0.16687249  0.52723935  1
  O  O22  1  0.69394645  0.52573575  0.52705331  1
  O  O23  1  0.85172718  0.30098474  0.53079354  1
  O  O24  1  0.53253763  0.70298509  0.97266311  1
  O  O25  1  0.16558679  0.47122982  0.97038102  1
  O  O26  1  0.30510013  0.83506989  0.97100374  1
  O  O27  1  0.52877018  0.83441321  0.47038102  1
  O  O28  1  0.29701491  0.46746237  0.47266311  1
  O  O29  1  0.16493011  0.69489987  0.47100374  1
  O  O30  1  0.13469473  0.63258753  0.35797462  1
  O  O31  1  0.49724013  0.86458354  0.35673787  1
  O  O32  1  0.36255225  0.50055056  0.35885531  1
  O  O33  1  0.13541646  0.50275987  0.85673787  1
  O  O34  1  0.36741247  0.86530527  0.85797462  1
  O  O35  1  0.49944944  0.63744775  0.85885531  1
  O  O36  1  0.01985325  0.83006884  0.40487454  1
  O  O37  1  0.80810545  0.97509093  0.40695371  1
  O  O38  1  0.16757927  0.18429760  0.40900473  1
  O  O39  1  0.02490907  0.19189455  0.90695371  1
  O  O40  1  0.16993116  0.98014675  0.90487454  1
  O  O41  1  0.81570240  0.83242073  0.90900473  1
  O  O42  1  0.98151324  0.17343708  0.58892538  1
  O  O43  1  0.18223195  0.02826732  0.59312180  1
  O  O44  1  0.83624116  0.81781375  0.59006346  1
  O  O45  1  0.97173268  0.81776805  0.09312180  1
  O  O46  1  0.82656292  0.01848676  0.08892538  1
  O  O47  1  0.18218625  0.16375884  0.09006346  1
  O  O48  1  0.69680629  0.16643869  0.75677196  1
  O  O49  1  0.44960908  0.31065117  0.75271340  1
  O  O50  1  0.85654001  0.55516981  0.74981145  1
  O  O51  1  0.68934883  0.55039092  0.25271340  1
  O  O52  1  0.83356131  0.30319371  0.25677196  1
  O  O53  1  0.44483019  0.14345999  0.24981145  1
  O  O54  1  0.63859323  0.49695742  0.92369422  1
  O  O55  1  0.85203630  0.35715205  0.92535050  1
  O  O56  1  0.50907402  0.14676624  0.92620684  1
  O  O57  1  0.64284795  0.14796370  0.42535050  1
  O  O58  1  0.50304258  0.36140677  0.42369422  1
  O  O59  1  0.85323376  0.49092598  0.42620684  1
  O  O60  1  0.34619519  0.50158715  0.06982708  1
  O  O61  1  0.16052496  0.67115127  0.06862131  1
  O  O62  1  0.51882673  0.85957753  0.07239551  1
  O  O63  1  0.32884873  0.83947504  0.56862131  1
  O  O64  1  0.49841285  0.65380481  0.56982708  1
  O  O65  1  0.14042247  0.48117327  0.57239551  1
  O  O66  1  0.29028425  0.82888929  0.25362993  1
  O  O67  1  0.54141882  0.71696416  0.25591673  1
  O  O68  1  0.18528131  0.48051421  0.25632602  1
  O  O69  1  0.28303584  0.45858118  0.75591673  1
  O  O70  1  0.17111071  0.70971575  0.75362993  1
  O  O71  1  0.51948579  0.81471869  0.75632602  1
loop_
_geom_bond_atom_site_label_1
_geom_bond_atom_site_label_2
_geom_bond_distance
_geom_bond_site_symmetry_2
Na0 O44 2.586600 1_455
Na0 O43 2.594103 1_565
Na0 O38 2.631650 1_565
Na0 O42 2.666176 1_465
Na0 O36 2.677702 1_555
Na0 O37 2.727764 1_455
Na1 O47 2.586600 1_565
Na1 O45 2.594103 1_455
Na1 O41 2.631650 1_454
Na1 O46 2.666176 1_465
Na1 O40 2.677702 1_554
Na1 O39 2.727764 1_564
Na2 O48 2.265149 1_555
Na2 O49 2.635341 1_555
Na2 O56 2.642292 1_555
Na2 O55 2.646397 1_555
Na2 O50 2.700181 1_555
Na2 O54 2.761571 1_555
Na3 O52 2.265149 1_555
Na3 O51 2.635341 1_555
Na3 O59 2.642292 1_555
Na3 O57 2.646397 1_555
Na3 O53 2.700181 1_555
Na3 O58 2.761571 1_555
Na4 O68 2.526807 1_555
Na4 O60 2.577803 1_555
Na4 O61 2.654770 1_555
Na4 O66 2.737147 1_555
Na4 O67 2.793620 1_555
Na4 O62 2.813353 1_555
Na5 O71 2.526807 1_555
Na5 O64 2.577803 1_555
Na5 O63 2.654770 1_555
Na5 O70 2.737147 1_555
Na5 O69 2.793620 1_555
Na5 O65 2.813353 1_555
Ca0 O13 2.128071 1_555
Ca0 O14 2.181103 1_555
Ca0 O48 2.266490 1_555
Ca0 O12 2.303622 1_555
Ca0 O49 2.356489 1_555
Ca0 O50 2.425435 1_555
Ca1 O15 2.128071 1_555
Ca1 O17 2.181103 1_555
Ca1 O52 2.266490 1_555
Ca1 O16 2.303622 1_555
Ca1 O51 2.356489 1_555
Ca1 O53 2.425435 1_555
O0 S0 1.483838 1_545
O0 Ta0 2.132536 1_455
O1 S1 1.500442 1_555
O1 Ta0 2.084067 1_565
O2 Si0 1.658659 1_555
O2 Ta0 1.883797 1_455
O3 S2 1.500442 1_555
O3 Ta1 2.084067 1_455
O4 S3 1.483838 1_555
O4 Ta1 2.132536 1_465
O5 Si1 1.658659 1_545
O5 Ta1 1.883797 1_555
O6 Si1 1.679457 1_555
O6 Ta2 1.915353 1_555
O7 S2 1.489675 1_555
O7 Ta2 2.223173 1_445
O8 S3 1.517995 1_555
O8 Ta2 2.099626 1_455
O9 S1 1.489675 1_555
O9 Ta3 2.223173 1_665
O10 Si0 1.679457 1_555
O10 Ta3 1.915353 1_555
O11 S0 1.517995 1_555
O11 Ta3 2.099626 1_565
O12 S4 1.445711 1_555
O13 Si2 1.568224 1_555
O14 Si3 1.561545 1_555
O15 Si4 1.568224 1_555
O16 S5 1.445711 1_555
O17 Si5 1.561545 1_555
O18 Si5 1.675762 1_555
O18 Ta4 1.923612 1_554
O19 Si4 1.685563 1_555
O19 Ta4 1.928857 1_554
O20 S5 1.479912 1_555
O20 Ta4 2.298423 1_554
O21 Si2 1.685563 1_555
O21 Ta5 1.928857 1_555
O22 Si3 1.675762 1_555
O22 Ta5 1.923612 1_555
O23 S4 1.479912 1_555
O23 Ta5 2.298423 1_555
O24 Si6 1.601224 1_555
O24 Ta6 1.980166 1_556
O25 Si7 1.626658 1_555
O25 Ta6 1.884793 1_556
O26 Si8 1.611324 1_555
O26 Ta6 1.956019 1_556
O27 Si9 1.626658 1_555
O27 Ta7 1.884793 1_555
O28 Si10 1.601224 1_555
O28 Ta7 1.980166 1_555
O29 Si11 1.611324 1_555
O29 Ta7 1.956019 1_555
O30 Si11 1.662342 1_555
O30 Ta8 1.870113 1_555
O31 Si9 1.642113 1_555
O31 Ta8 1.972056 1_555
O32 Si10 1.651918 1_555
O32 Ta8 1.887743 1_555
O33 Si7 1.642113 1_555
O33 Ta9 1.972056 1_555
O34 Si8 1.662342 1_555
O34 Ta9 1.870113 1_555
O35 Si6 1.651918 1_555
O35 Ta9 1.887743 1_555
O36 Si11 1.635746 1_555
O36 Ta0 1.990371 1_465
O37 Si9 1.651530 1_555
O37 Ta0 1.910881 1_565
O38 Si10 1.644790 1_555
O38 Ta0 1.931962 1_455
O39 Si7 1.651530 1_555
O39 Ta1 1.910881 1_455
O40 Si8 1.635746 1_555
O40 Ta1 1.990371 1_465
O41 Si6 1.644790 1_555
O41 Ta1 1.931962 1_565
O42 S4 1.541197 1_555
O42 Ta2 2.067985 1_545
O43 Si2 1.688116 1_555
O43 Ta2 1.964107 1_445
O44 Si3 1.704669 1_555
O44 Ta2 1.884643 1_555
O45 Si4 1.688116 1_555
O45 Ta3 1.964107 1_665
O46 S5 1.541197 1_555
O46 Ta3 2.067985 1_655
O47 Si5 1.704669 1_555
O47 Ta3 1.884643 1_555
O48 Si1 1.572021 1_545
O49 S2 1.448485 1_555
O50 S3 1.442073 1_655
O51 S1 1.448485 1_555
O52 Si0 1.572021 1_655
O53 S0 1.442073 1_545
O54 Si6 1.628776 1_555
O54 Ta4 1.930529 1_555
O55 Si7 1.608956 1_655
O55 Ta4 2.022836 1_555
O56 Si8 1.616137 1_545
O56 Ta4 2.012472 1_555
O57 Si9 1.608955 1_545
O57 Ta5 2.022836 1_555
O58 Si10 1.628776 1_555
O58 Ta5 1.930530 1_555
O59 Si11 1.616137 1_655
O59 Ta5 2.012472 1_555
O60 Si5 1.642794 1_555
O60 Ta6 1.964982 1_555
O61 Si4 1.655365 1_455
O61 Ta6 1.929482 1_555
O62 S5 1.480088 1_565
O62 Ta6 2.192083 1_555
O63 Si2 1.655365 1_565
O63 Ta7 1.929482 1_555
O64 Si3 1.642794 1_555
O64 Ta7 1.964982 1_555
O65 S4 1.480088 1_455
O65 Ta7 2.192083 1_555
O66 S0 1.501474 1_555
O66 Ta8 2.223165 1_555
O67 S1 1.501380 1_555
O67 Ta8 2.209636 1_555
O68 Si0 1.667550 1_555
O68 Ta8 1.974029 1_555
O69 S2 1.501380 1_555
O69 Ta9 2.209636 1_555
O70 S3 1.501474 1_555
O70 Ta9 2.223165 1_555
O71 Si1 1.667550 1_555
O71 Ta9 1.974029 1_555
