# generated using pymatgen
data_Na2HfTiSi2SO12
_symmetry_space_group_name_H-M   'P 1'
_cell_length_a   8.95311219
_cell_length_b   8.93201616
_cell_length_c   22.58365453
_cell_angle_alpha   89.98517228
_cell_angle_beta   89.85675243
_cell_angle_gamma   119.88444474
_symmetry_Int_Tables_number   1
_chemical_formula_structural   Na2HfTiSi2SO12
_chemical_formula_sum   'Na12 Hf6 Ti6 Si12 S6 O72'
_cell_volume   1565.85264205
_cell_formula_units_Z   6
loop_
 _symmetry_equiv_pos_site_id
 _symmetry_equiv_pos_as_xyz
  1  'x, y, z'
loop_
 _atom_site_type_symbol
 _atom_site_label
 _atom_site_symmetry_multiplicity
 _atom_site_fract_x
 _atom_site_fract_y
 _atom_site_fract_z
 _atom_site_occupancy
  Na  Na0  1  0.99822548  0.62689363  0.25428368  1
  Na  Na1  1  0.37369658  0.00820193  0.75272680  1
  Na  Na2  1  0.66480318  0.95991554  0.58719444  1
  Na  Na3  1  0.03809645  0.33820657  0.08947888  1
  Na  Na4  1  0.32391820  0.29239497  0.92184798  1
  Na  Na5  1  0.70438363  0.67133566  0.41994259  1
  Na  Na6  1  0.02126540  0.99523235  0.50025629  1
  Na  Na7  1  0.01348583  0.98402968  0.00338021  1
  Na  Na8  1  0.68788447  0.32264643  0.83212459  1
  Na  Na9  1  0.67273422  0.31588725  0.33708618  1
  Na  Na10  1  0.34875613  0.65643475  0.17033578  1
  Na  Na11  1  0.34108549  0.64934623  0.66633197  1
  Hf  Hf0  1  0.00359007  0.01275481  0.85214524  1
  Hf  Hf1  1  0.66865235  0.34557757  0.19006310  1
  Hf  Hf2  1  0.66518068  0.33336822  0.98113357  1
  Hf  Hf3  1  0.31806193  0.66352448  0.02151007  1
  Hf  Hf4  1  0.33580076  0.67781804  0.52056347  1
  Hf  Hf5  1  0.33324859  0.66769798  0.81054771  1
  Ti  Ti0  1  0.97619994  0.99114633  0.35408490  1
  Ti  Ti1  1  0.99951364  0.00116984  0.64491733  1
  Ti  Ti2  1  0.00131066  0.00176175  0.14894660  1
  Ti  Ti3  1  0.64471436  0.32411452  0.68589012  1
  Ti  Ti4  1  0.66565392  0.33502975  0.47986318  1
  Ti  Ti5  1  0.33198178  0.66858511  0.31407063  1
  Si  Si0  1  0.70465243  0.71915900  0.25113317  1
  Si  Si1  1  0.00460705  0.28868224  0.25095386  1
  Si  Si2  1  0.28757809  0.29221438  0.74671137  1
  Si  Si3  1  0.71209347  0.00674340  0.74502102  1
  Si  Si4  1  0.37283900  0.05133949  0.58302443  1
  Si  Si5  1  0.67073387  0.62091901  0.58290317  1
  Si  Si6  1  0.95534491  0.63456124  0.08588049  1
  Si  Si7  1  0.36846658  0.32908766  0.08400237  1
  Si  Si8  1  0.03605112  0.37591207  0.91653946  1
  Si  Si9  1  0.33351658  0.96163824  0.91412386  1
  Si  Si10  1  0.61891517  0.96286631  0.41612938  1
  Si  Si11  1  0.04088510  0.66818304  0.41437955  1
  S  S0  1  0.28505134  0.99872999  0.25169027  1
  S  S1  1  0.99272893  0.70648775  0.74769049  1
  S  S2  1  0.95205420  0.33305010  0.58356721  1
  S  S3  1  0.66811443  0.04014143  0.08531984  1
  S  S4  1  0.62453752  0.66904068  0.91685650  1
  S  S5  1  0.32975752  0.37366278  0.41580975  1
  O  O0  1  0.20667217  0.02150770  0.30473337  1
  O  O1  1  0.82679488  0.80170623  0.31026585  1
  O  O2  1  0.98896380  0.16392463  0.30668644  1
  O  O3  1  0.21424386  0.17460173  0.80709155  1
  O  O4  1  0.97169865  0.78600551  0.80239308  1
  O  O5  1  0.82474323  0.02220317  0.80347308  1
  O  O6  1  0.80671106  0.98052885  0.68615977  1
  O  O7  1  0.16162551  0.17757620  0.69223189  1
  O  O8  1  0.02119264  0.81786679  0.69542128  1
  O  O9  1  0.81433738  0.84112319  0.19492372  1
  O  O10  1  0.02767870  0.20053481  0.19006660  1
  O  O11  1  0.18101129  0.97532778  0.19741708  1
  O  O12  1  0.87444021  0.35571855  0.63712277  1
  O  O13  1  0.49432493  0.13330829  0.64243068  1
  O  O14  1  0.65467582  0.49726856  0.63898817  1
  O  O15  1  0.87482948  0.50782537  0.14402996  1
  O  O16  1  0.64313527  0.12021446  0.13851399  1
  O  O17  1  0.49064040  0.34549585  0.13971984  1
  O  O18  1  0.44989603  0.30187273  0.02253032  1
  O  O19  1  0.83693575  0.53491543  0.02860534  1
  O  O20  1  0.69196605  0.14882006  0.03194438  1
  O  O21  1  0.48424235  0.17486968  0.52690467  1
  O  O22  1  0.69381309  0.53096117  0.52206170  1
  O  O23  1  0.84656069  0.30889317  0.52971247  1
  O  O24  1  0.54559686  0.69182201  0.97053876  1
  O  O25  1  0.15600372  0.45644587  0.97606766  1
  O  O26  1  0.32203556  0.84550845  0.97139241  1
  O  O27  1  0.54642805  0.83953848  0.47524205  1
  O  O28  1  0.30673794  0.45385000  0.47000463  1
  O  O29  1  0.16072244  0.68975314  0.47145736  1
  O  O30  1  0.13425836  0.64120536  0.35502262  1
  O  O31  1  0.49229821  0.85164325  0.36083429  1
  O  O32  1  0.35825676  0.48605588  0.36330860  1
  O  O33  1  0.14251547  0.49410213  0.85992038  1
  O  O34  1  0.35960626  0.87701940  0.85320067  1
  O  O35  1  0.51788527  0.64496410  0.86359336  1
  O  O36  1  0.01988516  0.84056267  0.40781539  1
  O  O37  1  0.81028265  0.97843261  0.40743740  1
  O  O38  1  0.18165816  0.20026472  0.40988646  1
  O  O39  1  0.02213999  0.18561616  0.91169382  1
  O  O40  1  0.15684515  0.97418348  0.91193806  1
  O  O41  1  0.79876867  0.81811263  0.91033667  1
  O  O42  1  0.96498478  0.17183666  0.58619645  1
  O  O43  1  0.18287829  0.03008983  0.58905750  1
  O  O44  1  0.83768959  0.81740766  0.58991833  1
  O  O45  1  0.97719567  0.82476648  0.09404182  1
  O  O46  1  0.82874955  0.03168408  0.08862280  1
  O  O47  1  0.17149700  0.16363419  0.09168599  1
  O  O48  1  0.69450020  0.18098408  0.73975244  1
  O  O49  1  0.47904013  0.30796685  0.73991823  1
  O  O50  1  0.84561997  0.53312407  0.74231303  1
  O  O51  1  0.69440322  0.52958152  0.24687908  1
  O  O52  1  0.83078589  0.30701454  0.24796371  1
  O  O53  1  0.46188454  0.14820307  0.24553145  1
  O  O54  1  0.63415276  0.50801179  0.92049410  1
  O  O55  1  0.84751324  0.35653414  0.92147804  1
  O  O56  1  0.49629083  0.15993834  0.91903400  1
  O  O57  1  0.64059122  0.15316105  0.42406797  1
  O  O58  1  0.49321429  0.36618484  0.42033344  1
  O  O59  1  0.84410883  0.50041970  0.42216272  1
  O  O60  1  0.35123711  0.50358506  0.08100643  1
  O  O61  1  0.14566199  0.64902883  0.08022987  1
  O  O62  1  0.51889515  0.86615832  0.07870475  1
  O  O63  1  0.36319445  0.86243263  0.57801481  1
  O  O64  1  0.49755280  0.63998302  0.57935015  1
  O  O65  1  0.12837854  0.48329463  0.57735578  1
  O  O66  1  0.29696914  0.83695372  0.25418877  1
  O  O67  1  0.51467775  0.69774235  0.25809484  1
  O  O68  1  0.17128475  0.48547143  0.25827098  1
  O  O69  1  0.30858676  0.48188206  0.75056405  1
  O  O70  1  0.15644460  0.69850529  0.75199219  1
  O  O71  1  0.51468797  0.84087732  0.74919621  1
loop_
_geom_bond_atom_site_label_1
_geom_bond_atom_site_label_2
_geom_bond_distance
_geom_bond_site_symmetry_2
Na0 O66 2.381891 1_655
Na0 O51 2.414327 1_555
Na0 O68 2.440378 1_655
Na0 O52 2.482769 1_555
Na0 O30 2.556246 1_655
Na0 O15 2.719494 1_555
Na1 O49 2.371500 1_555
Na1 O71 2.390189 1_545
Na1 O70 2.464557 1_545
Na1 O48 2.509085 1_555
Na1 O34 2.527333 1_545
Na1 O13 2.720681 1_555
Na1 O3 2.803756 1_555
Na2 O42 2.395143 1_565
Na2 O63 2.398505 1_555
Na2 O44 2.446166 1_555
Na2 O64 2.485402 1_555
Na2 O6 2.534687 1_555
Na2 O27 2.747878 1_555
Na2 O13 2.937929 1_565
Na2 O23 2.997017 1_565
Na3 O47 2.390899 1_555
Na3 O46 2.428136 1_455
Na3 O60 2.439057 1_555
Na3 O61 2.452167 1_555
Na3 O10 2.562103 1_555
Na3 O25 2.768357 1_554
Na3 O15 2.854576 1_455
Na3 O20 2.991767 1_455
Na4 O56 2.367378 1_555
Na4 O39 2.386958 1_555
Na4 O54 2.468565 1_555
Na4 O40 2.476167 1_545
Na4 O18 2.523319 1_556
Na4 O3 2.787881 1_555
Na4 O25 2.844899 1_555
Na5 O59 2.408610 1_555
Na5 O58 2.422458 1_555
Na5 O37 2.430919 1_555
Na5 O36 2.465760 1_655
Na5 O22 2.603626 1_555
Na5 O1 2.721277 1_555
Na5 O27 2.815345 1_555
Na5 O32 2.981318 1_555
Na6 O43 2.403815 1_565
Na6 O36 2.500327 1_555
Na6 O44 2.589328 1_455
Na6 O38 2.635135 1_565
Na6 O42 2.701450 1_465
Na6 O37 2.778880 1_455
Na7 O45 2.419899 1_455
Na7 O40 2.453384 1_554
Na7 O47 2.511218 1_565
Na7 O46 2.703479 1_465
Na7 O39 2.719146 1_564
Na7 O41 2.736780 1_454
Na8 O55 2.406210 1_555
Na8 O48 2.455976 1_555
Na8 O56 2.530680 1_555
Na8 O50 2.642091 1_555
Na8 O49 2.761319 1_555
Na8 O54 2.783197 1_555
Na9 O57 2.373397 1_555
Na9 O52 2.481383 1_555
Na9 O59 2.501740 1_555
Na9 O58 2.650379 1_555
Na9 O53 2.699194 1_555
Na9 O51 2.730946 1_555
Na10 O67 2.395791 1_555
Na10 O60 2.442473 1_555
Na10 O68 2.522917 1_555
Na10 O66 2.672658 1_555
Na10 O62 2.692663 1_555
Na10 O61 2.711142 1_555
Na11 O69 2.345792 1_555
Na11 O64 2.435414 1_555
Na11 O71 2.492195 1_555
Na11 O65 2.658991 1_555
Na11 O63 2.694524 1_555
Na11 O70 2.715828 1_555
Hf0 O5 1.980586 1_455
Hf0 O3 1.988673 1_555
Hf0 O39 1.991666 1_555
Hf0 O40 2.074823 1_545
Hf0 O4 2.207361 1_445
Hf0 O41 2.218596 1_445
Hf1 O17 1.959744 1_555
Hf1 O15 1.977940 1_555
Hf1 O51 2.006412 1_555
Hf1 O52 2.107873 1_555
Hf1 O53 2.199833 1_555
Hf1 O16 2.236898 1_555
Hf2 O19 2.001365 1_556
Hf2 O18 2.029485 1_556
Hf2 O55 2.043282 1_555
Hf2 O56 2.080974 1_555
Hf2 O20 2.117959 1_556
Hf2 O54 2.195123 1_555
Hf3 O26 1.966150 1_554
Hf3 O25 1.978294 1_554
Hf3 O61 1.987032 1_555
Hf3 O60 2.087651 1_555
Hf3 O62 2.224216 1_555
Hf3 O24 2.239185 1_554
Hf4 O29 1.968103 1_555
Hf4 O27 1.991333 1_555
Hf4 O63 2.015535 1_555
Hf4 O64 2.114495 1_555
Hf4 O28 2.203933 1_555
Hf4 O65 2.210014 1_555
Hf5 O33 1.978535 1_555
Hf5 O34 2.010372 1_555
Hf5 O69 2.067836 1_555
Hf5 O71 2.105927 1_555
Hf5 O35 2.133841 1_555
Hf5 O70 2.185065 1_555
O0 S0 1.451552 1_545
O0 Ti0 2.237019 1_445
O1 Si0 1.651427 1_555
O1 Ti0 1.839489 1_555
O2 Si1 1.639640 1_655
O2 Ti0 1.833935 1_545
O3 Si2 1.643638 1_555
O4 S1 1.482782 1_555
O5 Si3 1.626900 1_555
O6 Si3 1.652778 1_565
O6 Ti1 1.885723 1_565
O7 Si2 1.640368 1_555
O7 Ti1 1.860311 1_455
O8 S1 1.480984 1_455
O8 Ti1 2.082309 1_465
O9 Si0 1.639979 1_555
O9 Ti2 1.880466 1_665
O10 Si1 1.647589 1_555
O10 Ti2 1.911696 1_555
O11 S0 1.491803 1_555
O11 Ti2 2.056622 1_565
O12 S2 1.456995 1_555
O12 Ti3 2.221004 1_555
O13 Si4 1.653254 1_555
O13 Ti3 1.844333 1_555
O14 Si5 1.638565 1_555
O14 Ti3 1.839331 1_555
O15 Si6 1.645289 1_555
O16 S3 1.470784 1_555
O17 Si7 1.627425 1_555
O18 Si7 1.639997 1_555
O19 Si6 1.629827 1_555
O20 S3 1.494141 1_555
O21 Si4 1.647671 1_555
O21 Ti4 1.867708 1_555
O22 Si5 1.655553 1_555
O22 Ti4 1.896543 1_555
O23 S2 1.490187 1_555
O23 Ti4 2.081109 1_555
O24 S4 1.466236 1_555
O25 Si8 1.648033 1_555
O26 Si9 1.628375 1_555
O27 Si10 1.642957 1_555
O28 S5 1.483150 1_555
O29 Si11 1.628162 1_555
O30 Si11 1.658060 1_555
O30 Ti5 1.899785 1_555
O31 Si10 1.648304 1_555
O31 Ti5 1.875844 1_555
O32 S5 1.490415 1_555
O32 Ti5 2.081451 1_555
O33 Si8 1.627412 1_555
O34 Si9 1.641248 1_555
O35 S4 1.485322 1_555
O36 Si11 1.648178 1_555
O36 Ti0 1.990027 1_455
O37 Si10 1.659607 1_555
O37 Ti0 1.869274 1_555
O38 S5 1.459229 1_555
O38 Ti0 2.247137 1_445
O39 Si8 1.644921 1_555
O40 Si9 1.641330 1_555
O41 S4 1.468638 1_555
O42 S2 1.502174 1_555
O42 Ti1 2.156060 1_555
O43 Si4 1.619955 1_555
O43 Ti1 1.979942 1_455
O44 Si5 1.651279 1_555
O44 Ti1 1.994055 1_565
O45 Si6 1.621018 1_555
O45 Ti2 1.935364 1_665
O46 S3 1.479338 1_555
O46 Ti2 2.176255 1_655
O47 Si7 1.650849 1_555
O47 Ti2 1.969320 1_555
O48 Si3 1.644806 1_555
O48 Ti3 1.970410 1_555
O49 Si2 1.655318 1_555
O49 Ti3 1.867464 1_555
O50 S1 1.454582 1_555
O50 Ti3 2.238472 1_555
O51 Si0 1.652342 1_555
O52 Si1 1.645512 1_655
O53 S0 1.483519 1_545
O54 S4 1.485350 1_555
O55 Si8 1.612342 1_655
O56 Si9 1.643780 1_545
O57 Si10 1.621870 1_545
O57 Ti4 1.978937 1_555
O58 S5 1.501574 1_555
O58 Ti4 2.169492 1_555
O59 Si11 1.657618 1_655
O59 Ti4 2.017339 1_555
O60 Si7 1.642326 1_555
O61 Si6 1.647982 1_455
O62 S3 1.467777 1_565
O63 Si4 1.649927 1_565
O64 Si5 1.644149 1_555
O65 S2 1.483380 1_455
O66 S0 1.502062 1_555
O66 Ti5 2.158608 1_555
O67 Si0 1.621318 1_555
O67 Ti5 1.976453 1_555
O68 Si1 1.652677 1_555
O68 Ti5 1.999567 1_555
O69 Si2 1.611085 1_555
O70 S1 1.505935 1_455
O71 Si3 1.648420 1_565
