# generated using pymatgen
data_Na3HfGaSi(PO6)2
_symmetry_space_group_name_H-M   'P 1'
_cell_length_a   8.92637285
_cell_length_b   8.92637255
_cell_length_c   22.33387907
_cell_angle_alpha   89.61292146
_cell_angle_beta   90.38707854
_cell_angle_gamma   119.93265577
_symmetry_Int_Tables_number   1
_chemical_formula_structural   Na3HfGaSi(PO6)2
_chemical_formula_sum   'Na18 Hf6 Ga6 Si6 P12 O72'
_cell_volume   1542.14750210
_cell_formula_units_Z   6
loop_
 _symmetry_equiv_pos_site_id
 _symmetry_equiv_pos_as_xyz
  1  'x, y, z'
loop_
 _atom_site_type_symbol
 _atom_site_label
 _atom_site_symmetry_multiplicity
 _atom_site_fract_x
 _atom_site_fract_y
 _atom_site_fract_z
 _atom_site_occupancy
  Na  Na0  1  0.00326165  0.99738330  0.49617335  1
  Na  Na1  1  0.00261670  0.99673835  0.99617335  1
  Na  Na2  1  0.66540353  0.32743916  0.82965934  1
  Na  Na3  1  0.67256084  0.33459647  0.32965934  1
  Na  Na4  1  0.34307638  0.67075033  0.16284046  1
  Na  Na5  1  0.32924967  0.65692362  0.66284046  1
  Na  Na6  1  0.36397567  0.36241619  0.24763981  1
  Na  Na7  1  0.99179633  0.62585806  0.24822155  1
  Na  Na8  1  0.63758381  0.63602433  0.74763981  1
  Na  Na9  1  0.37414194  0.00820367  0.74822155  1
  Na  Na10  1  0.03891578  0.70012761  0.58058350  1
  Na  Na11  1  0.65620752  0.96352755  0.58367779  1
  Na  Na12  1  0.29987239  0.96108422  0.08058350  1
  Na  Na13  1  0.03647245  0.34379248  0.08367779  1
  Na  Na14  1  0.97215675  0.67337236  0.91762537  1
  Na  Na15  1  0.69959065  0.02852670  0.91293313  1
  Na  Na16  1  0.97147330  0.30040935  0.41293313  1
  Na  Na17  1  0.32662764  0.02784325  0.41762537  1
  Hf  Hf0  1  0.00495254  0.00650111  0.64752334  1
  Hf  Hf1  1  0.99349889  0.99504746  0.14752334  1
  Hf  Hf2  1  0.66044583  0.33522627  0.98067959  1
  Hf  Hf3  1  0.66477373  0.33955417  0.48067959  1
  Hf  Hf4  1  0.33107106  0.66644556  0.31405083  1
  Hf  Hf5  1  0.33355444  0.66892894  0.81405083  1
  Ga  Ga0  1  0.98862281  0.99057977  0.35039090  1
  Ga  Ga1  1  0.00942023  0.01137719  0.85039090  1
  Ga  Ga2  1  0.67060293  0.32166775  0.68353507  1
  Ga  Ga3  1  0.67833225  0.32939707  0.18353507  1
  Ga  Ga4  1  0.32834749  0.66863595  0.01673127  1
  Ga  Ga5  1  0.33136405  0.67165251  0.51673127  1
  Si  Si0  1  0.99027780  0.28450733  0.25169117  1
  Si  Si1  1  0.71549267  0.00972220  0.75169117  1
  Si  Si2  1  0.37402197  0.03690471  0.58340413  1
  Si  Si3  1  0.96309529  0.62597803  0.08340413  1
  Si  Si4  1  0.32564588  0.96071781  0.91665529  1
  Si  Si5  1  0.03928219  0.67435412  0.41665529  1
  P  P0  1  0.29772926  0.00771455  0.25069212  1
  P  P1  1  0.70805694  0.70531082  0.25118012  1
  P  P2  1  0.29468918  0.29194306  0.75118012  1
  P  P3  1  0.99228545  0.70227074  0.75069212  1
  P  P4  1  0.96187425  0.33915535  0.58340193  1
  P  P5  1  0.65882721  0.62041217  0.58606738  1
  P  P6  1  0.66084465  0.03812575  0.08340193  1
  P  P7  1  0.37958783  0.34117279  0.08606738  1
  P  P8  1  0.62323959  0.66925775  0.91810852  1
  P  P9  1  0.04486867  0.37123224  0.91894709  1
  P  P10  1  0.62876776  0.95513133  0.41894709  1
  P  P11  1  0.33074225  0.37676041  0.41810852  1
  O  O0  1  0.21496937  0.03690468  0.30663911  1
  O  O1  1  0.82776930  0.78675716  0.30559269  1
  O  O2  1  0.97172319  0.17168786  0.31178279  1
  O  O3  1  0.21324284  0.17223070  0.80559269  1
  O  O4  1  0.96309532  0.78503063  0.80663911  1
  O  O5  1  0.82831214  0.02827681  0.81178279  1
  O  O6  1  0.79275624  0.96559409  0.69203746  1
  O  O7  1  0.18019095  0.20759966  0.69525905  1
  O  O8  1  0.03189940  0.82162706  0.69467788  1
  O  O9  1  0.79240034  0.81980905  0.19525905  1
  O  O10  1  0.03440591  0.20724376  0.19203746  1
  O  O11  1  0.17837294  0.96810060  0.19467788  1
  O  O12  1  0.87843202  0.37501939  0.63773735  1
  O  O13  1  0.49619354  0.12357335  0.64256411  1
  O  O14  1  0.63792386  0.51356389  0.64301589  1
  O  O15  1  0.87642665  0.50380646  0.14256411  1
  O  O16  1  0.62498061  0.12156798  0.13773735  1
  O  O17  1  0.48643611  0.36207614  0.14301589  1
  O  O18  1  0.46020428  0.30084775  0.03123639  1
  O  O19  1  0.84620344  0.54039348  0.02346782  1
  O  O20  1  0.69682465  0.15363220  0.02683491  1
  O  O21  1  0.45960652  0.15379656  0.52346782  1
  O  O22  1  0.69915225  0.53979572  0.53123639  1
  O  O23  1  0.84636780  0.30317535  0.52683491  1
  O  O24  1  0.53426422  0.69857348  0.97187228  1
  O  O25  1  0.15251181  0.45226402  0.97601401  1
  O  O26  1  0.29209756  0.83869809  0.97599373  1
  O  O27  1  0.54773598  0.84748819  0.47601401  1
  O  O28  1  0.30142652  0.46573578  0.47187228  1
  O  O29  1  0.16130191  0.70790244  0.47599373  1
  O  O30  1  0.12663879  0.63546885  0.35828717  1
  O  O31  1  0.50949851  0.87237194  0.36396146  1
  O  O32  1  0.36307590  0.48586357  0.36009437  1
  O  O33  1  0.12762806  0.49050149  0.86396146  1
  O  O34  1  0.36453115  0.87336121  0.85828717  1
  O  O35  1  0.51413643  0.63692410  0.86009437  1
  O  O36  1  0.03152270  0.85267334  0.40830547  1
  O  O37  1  0.81263309  0.98369935  0.41274825  1
  O  O38  1  0.16943465  0.19580477  0.41289707  1
  O  O39  1  0.01630065  0.18736691  0.91274825  1
  O  O40  1  0.14732666  0.96847730  0.90830547  1
  O  O41  1  0.80419523  0.83056535  0.91289707  1
  O  O42  1  0.96895554  0.16936461  0.58938078  1
  O  O43  1  0.17706899  0.00682196  0.58762717  1
  O  O44  1  0.82541158  0.80404289  0.58983312  1
  O  O45  1  0.99317804  0.82293101  0.08762717  1
  O  O46  1  0.83063539  0.03104446  0.08938078  1
  O  O47  1  0.19595711  0.17458842  0.08983312  1
  O  O48  1  0.68351586  0.17444027  0.74618517  1
  O  O49  1  0.47683607  0.31446570  0.74490626  1
  O  O50  1  0.82735960  0.52647119  0.74232114  1
  O  O51  1  0.68553430  0.52316393  0.24490626  1
  O  O52  1  0.82555973  0.31648414  0.24618517  1
  O  O53  1  0.47352881  0.17264040  0.24232114  1
  O  O54  1  0.64787908  0.50871703  0.92197428  1
  O  O55  1  0.86213894  0.35643962  0.92311127  1
  O  O56  1  0.50667196  0.14584263  0.92124201  1
  O  O57  1  0.64356038  0.13786106  0.42311127  1
  O  O58  1  0.49128297  0.35212092  0.42197428  1
  O  O59  1  0.85415737  0.49332804  0.42124201  1
  O  O60  1  0.35478113  0.49789063  0.07713090  1
  O  O61  1  0.15577534  0.64190103  0.07871571  1
  O  O62  1  0.50032504  0.85856397  0.07688619  1
  O  O63  1  0.35809897  0.84422466  0.57871571  1
  O  O64  1  0.50210937  0.64521887  0.57713090  1
  O  O65  1  0.14143603  0.49967496  0.57688619  1
  O  O66  1  0.31115863  0.84085685  0.25578760  1
  O  O67  1  0.52653037  0.68616530  0.25605102  1
  O  O68  1  0.16920103  0.47977306  0.25541502  1
  O  O69  1  0.31383470  0.47346963  0.75605102  1
  O  O70  1  0.15914315  0.68884137  0.75578760  1
  O  O71  1  0.52022694  0.83079897  0.75541502  1
loop_
_geom_bond_atom_site_label_1
_geom_bond_atom_site_label_2
_geom_bond_distance
_geom_bond_site_symmetry_2
Na0 O36 2.439158 1_555
Na0 O37 2.476850 1_455
Na0 O38 2.483421 1_565
Na0 O43 2.532804 1_565
Na0 O44 2.671368 1_455
Na0 O42 2.702753 1_465
Na1 O40 2.439158 1_555
Na1 O39 2.476850 1_565
Na1 O41 2.483421 1_455
Na1 O45 2.532804 1_456
Na1 O47 2.671368 1_566
Na1 O46 2.702753 1_466
Na2 O48 2.371877 1_555
Na2 O49 2.488970 1_555
Na2 O50 2.545452 1_555
Na2 O56 2.553650 1_555
Na2 O55 2.647883 1_555
Na2 O54 2.682490 1_555
Na3 O52 2.371877 1_555
Na3 O51 2.488970 1_555
Na3 O53 2.545452 1_555
Na3 O59 2.553650 1_555
Na3 O57 2.647883 1_555
Na3 O58 2.682490 1_555
Na4 O61 2.434350 1_555
Na4 O62 2.471963 1_555
Na4 O60 2.501911 1_555
Na4 O67 2.601390 1_555
Na4 O68 2.635349 1_555
Na4 O66 2.679248 1_555
Na5 O63 2.434350 1_555
Na5 O65 2.471963 1_555
Na5 O64 2.501911 1_555
Na5 O69 2.601390 1_555
Na5 O71 2.635349 1_555
Na5 O70 2.679248 1_555
Na6 O53 2.344696 1_555
Na6 O68 2.444292 1_555
Na6 O51 2.488472 1_555
Na6 O67 2.512207 1_555
Na6 O17 2.587050 1_555
Na6 O32 2.751126 1_555
Na6 O10 2.832413 1_555
Na6 O0 2.839580 1_555
Na7 O52 2.396163 1_555
Na7 O51 2.411794 1_555
Na7 O68 2.507690 1_655
Na7 O66 2.525166 1_655
Na7 O15 2.588069 1_555
Na7 O30 2.712687 1_655
Na7 O1 2.827932 1_555
Na7 O11 2.904594 1_655
Na8 O50 2.344696 1_555
Na8 O71 2.444292 1_555
Na8 O49 2.488471 1_555
Na8 O69 2.512207 1_555
Na8 O14 2.587050 1_555
Na8 O35 2.751126 1_555
Na8 O6 2.832413 1_555
Na8 O4 2.839580 1_555
Na9 O48 2.396164 1_555
Na9 O49 2.411794 1_555
Na9 O71 2.507690 1_545
Na9 O70 2.525166 1_545
Na9 O13 2.588069 1_555
Na9 O34 2.712687 1_545
Na9 O3 2.827932 1_555
Na9 O8 2.904594 1_545
Na10 O43 2.382086 1_565
Na10 O65 2.383922 1_555
Na10 O63 2.473348 1_555
Na10 O44 2.511445 1_455
Na10 O29 2.571250 1_555
Na10 O8 2.789377 1_555
Na10 O12 2.815883 1_455
Na10 O22 2.847028 1_455
Na11 O63 2.323143 1_555
Na11 O42 2.462760 1_565
Na11 O64 2.467628 1_555
Na11 O44 2.543071 1_555
Na11 O27 2.606452 1_555
Na11 O6 2.698365 1_555
Na11 O13 2.810334 1_565
Na11 O23 2.919965 1_565
Na12 O45 2.382086 1_455
Na12 O62 2.383922 1_555
Na12 O61 2.473347 1_555
Na12 O47 2.511445 1_565
Na12 O26 2.571250 1_554
Na12 O11 2.789377 1_555
Na12 O16 2.815883 1_565
Na12 O18 2.847028 1_565
Na13 O61 2.323143 1_555
Na13 O46 2.462760 1_455
Na13 O60 2.467628 1_555
Na13 O47 2.543071 1_555
Na13 O25 2.606452 1_554
Na13 O10 2.698365 1_555
Na13 O15 2.810334 1_455
Na13 O20 2.919965 1_455
Na14 O40 2.305168 1_655
Na14 O55 2.491451 1_555
Na14 O54 2.510897 1_555
Na14 O41 2.514597 1_555
Na14 O19 2.631941 1_556
Na14 O4 2.681146 1_555
Na14 O26 2.793400 1_655
Na14 O33 2.887347 1_655
Na15 O41 2.375098 1_545
Na15 O56 2.429652 1_555
Na15 O39 2.450006 1_655
Na15 O5 2.541925 1_555
Na15 O55 2.547711 1_555
Na15 O20 2.790292 1_556
Na15 O34 2.862274 1_545
Na15 O24 2.867317 1_545
Na16 O38 2.375098 1_655
Na16 O59 2.429652 1_555
Na16 O37 2.450006 1_545
Na16 O2 2.541925 1_555
Na16 O57 2.547711 1_555
Na16 O23 2.790292 1_555
Na16 O30 2.862274 1_655
Na16 O28 2.867317 1_655
Na17 O36 2.305168 1_545
Na17 O57 2.491451 1_555
Na17 O58 2.510897 1_555
Na17 O38 2.514597 1_555
Na17 O21 2.631941 1_555
Na17 O0 2.681146 1_555
Na17 O29 2.793400 1_545
Na17 O31 2.887347 1_545
Hf0 O7 2.001722 1_555
Hf0 O6 2.009923 1_445
Hf0 O43 2.042856 1_555
Hf0 O8 2.063867 1_545
Hf0 O42 2.082784 1_455
Hf0 O44 2.146564 1_445
Hf1 O9 2.001722 1_555
Hf1 O10 2.009923 1_665
Hf1 O45 2.042856 1_555
Hf1 O11 2.063867 1_655
Hf1 O46 2.082784 1_565
Hf1 O47 2.146564 1_665
Hf2 O19 1.997093 1_556
Hf2 O18 2.009776 1_556
Hf2 O56 2.047953 1_555
Hf2 O54 2.067330 1_555
Hf2 O20 2.072156 1_556
Hf2 O55 2.148977 1_555
Hf3 O21 1.997093 1_555
Hf3 O22 2.009776 1_555
Hf3 O59 2.047953 1_555
Hf3 O58 2.067330 1_555
Hf3 O23 2.072156 1_555
Hf3 O57 2.148977 1_555
Hf4 O30 1.974763 1_555
Hf4 O32 2.042216 1_555
Hf4 O68 2.044619 1_555
Hf4 O31 2.059161 1_555
Hf4 O66 2.096260 1_555
Hf4 O67 2.115191 1_555
Hf5 O34 1.974763 1_555
Hf5 O35 2.042216 1_555
Hf5 O71 2.044619 1_555
Hf5 O33 2.059161 1_555
Hf5 O70 2.096260 1_555
Hf5 O69 2.115191 1_555
Ga0 O2 1.898043 1_565
Ga0 O1 1.941911 1_555
Ga0 O36 1.943523 1_655
Ga0 O37 2.084067 1_555
Ga0 O0 2.096539 1_665
Ga0 O38 2.227813 1_665
Ga1 O5 1.898043 1_455
Ga1 O3 1.941911 1_555
Ga1 O40 1.943523 1_545
Ga1 O39 2.084067 1_555
Ga1 O4 2.096539 1_445
Ga1 O41 2.227813 1_445
Ga2 O13 1.908698 1_555
Ga2 O48 1.955094 1_555
Ga2 O12 1.962647 1_555
Ga2 O14 2.076613 1_555
Ga2 O50 2.116269 1_555
Ga2 O49 2.189599 1_555
Ga3 O15 1.908698 1_555
Ga3 O52 1.955094 1_555
Ga3 O16 1.962647 1_555
Ga3 O17 2.076613 1_555
Ga3 O53 2.116269 1_555
Ga3 O51 2.189599 1_555
Ga4 O26 1.924707 1_554
Ga4 O24 1.996198 1_554
Ga4 O25 2.000003 1_554
Ga4 O61 2.000957 1_555
Ga4 O62 2.107481 1_555
Ga4 O60 2.127245 1_555
Ga5 O29 1.924707 1_555
Ga5 O28 1.996198 1_555
Ga5 O27 2.000003 1_555
Ga5 O63 2.000957 1_555
Ga5 O65 2.107481 1_555
Ga5 O64 2.127245 1_555
O0 P0 1.543985 1_555
O1 P1 1.538297 1_555
O2 Si0 1.631282 1_555
O3 P2 1.538297 1_555
O4 P3 1.543985 1_555
O5 Si1 1.631282 1_555
O6 Si1 1.642092 1_565
O7 P2 1.548806 1_555
O8 P3 1.561150 1_455
O9 P1 1.548806 1_555
O10 Si0 1.642092 1_455
O11 P0 1.561150 1_565
O12 P4 1.544450 1_555
O13 Si2 1.638884 1_555
O14 P5 1.539930 1_555
O15 Si3 1.638884 1_555
O16 P6 1.544450 1_555
O17 P7 1.539930 1_555
O18 P7 1.556725 1_555
O19 Si3 1.632077 1_555
O20 P6 1.555544 1_555
O21 Si2 1.632077 1_555
O22 P5 1.556725 1_555
O23 P4 1.555544 1_555
O24 P8 1.538060 1_555
O25 P9 1.540512 1_555
O26 Si4 1.640938 1_555
O27 P10 1.540512 1_555
O28 P11 1.538060 1_555
O29 Si5 1.640938 1_555
O30 Si5 1.648585 1_555
O31 P10 1.548221 1_555
O32 P11 1.555009 1_555
O33 P9 1.548221 1_555
O34 Si4 1.648585 1_555
O35 P8 1.555009 1_555
O36 Si5 1.636784 1_555
O37 P10 1.537144 1_555
O38 P11 1.541150 1_555
O39 P9 1.537144 1_555
O40 Si4 1.636784 1_555
O41 P8 1.541150 1_555
O42 P4 1.552957 1_555
O43 Si2 1.643958 1_555
O44 P5 1.572507 1_555
O45 Si3 1.643958 1_555
O46 P6 1.552957 1_555
O47 P7 1.572507 1_555
O48 Si1 1.635358 1_555
O49 P2 1.542764 1_555
O50 P3 1.536086 1_555
O51 P1 1.542764 1_555
O52 Si0 1.635358 1_555
O53 P0 1.536086 1_555
O54 P8 1.556299 1_555
O55 P9 1.572756 1_655
O56 Si4 1.639389 1_545
O57 P10 1.572755 1_545
O58 P11 1.556299 1_555
O59 Si5 1.639389 1_655
O60 P7 1.533173 1_555
O61 Si3 1.657591 1_455
O62 P6 1.533530 1_565
O63 Si2 1.657591 1_565
O64 P5 1.533173 1_555
O65 P4 1.533530 1_455
O66 P0 1.556099 1_565
O67 P1 1.546747 1_555
O68 Si0 1.678649 1_455
O69 P2 1.546747 1_555
O70 P3 1.556099 1_455
O71 Si1 1.678649 1_565
