# generated using pymatgen
data_MgCd2(CoO3)2
_symmetry_space_group_name_H-M   'P 1'
_cell_length_a   5.78382593
_cell_length_b   5.77647529
_cell_length_c   5.77993363
_cell_angle_alpha   55.18188372
_cell_angle_beta   55.13841479
_cell_angle_gamma   55.14871863
_symmetry_Int_Tables_number   1
_chemical_formula_structural   MgCd2(CoO3)2
_chemical_formula_sum   'Mg1 Cd2 Co2 O6'
_cell_volume   121.16945109
_cell_formula_units_Z   1
loop_
 _symmetry_equiv_pos_site_id
 _symmetry_equiv_pos_as_xyz
  1  'x, y, z'
loop_
 _atom_site_type_symbol
 _atom_site_label
 _atom_site_symmetry_multiplicity
 _atom_site_fract_x
 _atom_site_fract_y
 _atom_site_fract_z
 _atom_site_occupancy
  Mg  Mg0  1  0.79825294  0.79911685  0.79812703  1
  Cd  Cd0  1  0.35009404  0.35083306  0.34960044  1
  Cd  Cd1  1  0.58362092  0.58431358  0.58259644  1
  Co  Co0  1  0.15085000  0.15189891  0.15110480  1
  Co  Co1  1  0.97703345  0.97821964  0.97735236  1
  O  O0  1  0.02414494  0.81338158  0.35229416  1
  O  O1  1  0.57002190  0.95096035  0.16017020  1
  O  O2  1  0.16097058  0.57074594  0.94930560  1
  O  O3  1  0.81220376  0.35340470  0.02510988  1
  O  O4  1  0.35168485  0.02542669  0.81254230  1
  O  O5  1  0.95028962  0.16128270  0.57096379  1
loop_
_geom_bond_atom_site_label_1
_geom_bond_atom_site_label_2
_geom_bond_distance
_geom_bond_site_symmetry_2
Mg0 O3 2.093522 1_556
Mg0 O0 2.094240 1_655
Mg0 O4 2.099163 1_565
Mg0 O1 2.122644 1_556
Mg0 O5 2.125965 1_565
Mg0 O2 2.126330 1_655
Cd0 O3 2.223603 1_555
Cd0 O0 2.224949 1_555
Cd0 O4 2.226636 1_555
Cd0 O1 2.467812 1_545
Cd0 O5 2.468755 1_455
Cd0 O2 2.472276 1_554
Cd1 O5 2.138964 1_555
Cd1 O1 2.139439 1_555
Cd1 O2 2.140193 1_555
Co0 O4 1.943309 1_554
Co0 O3 1.943858 1_455
Co0 O0 1.944207 1_545
Co0 O2 2.019623 1_554
Co0 O1 2.021732 1_545
Co0 O5 2.024329 1_455
Co1 O4 1.922567 1_665
Co1 O0 1.923410 1_656
Co1 O3 1.924307 1_566
Co1 O5 2.012821 1_565
Co1 O1 2.018173 1_556
Co1 O2 2.018649 1_655
