# generated using pymatgen
data_MgV4O5F7
_symmetry_space_group_name_H-M   'P 1'
_cell_length_a   5.12850038
_cell_length_b   7.70903772
_cell_length_c   5.43977245
_cell_angle_alpha   93.00342935
_cell_angle_beta   86.30678878
_cell_angle_gamma   88.87106846
_symmetry_Int_Tables_number   1
_chemical_formula_structural   MgV4O5F7
_chemical_formula_sum   'Mg1 V4 O5 F7'
_cell_volume   214.26686036
_cell_formula_units_Z   1
loop_
 _symmetry_equiv_pos_site_id
 _symmetry_equiv_pos_as_xyz
  1  'x, y, z'
loop_
 _atom_site_type_symbol
 _atom_site_label
 _atom_site_symmetry_multiplicity
 _atom_site_fract_x
 _atom_site_fract_y
 _atom_site_fract_z
 _atom_site_occupancy
  Mg  Mg0  1  0.97633700  0.76799000  0.41796800  1
  V  V0  1  0.51959800  0.46748600  0.49405700  1
  V  V1  1  0.49696000  0.01254400  0.50769000  1
  V  V2  1  0.00344600  0.49195200  0.98975100  1
  V  V3  1  0.00237900  0.00689600  0.00674700  1
  O  O0  1  0.80150000  0.55520100  0.28984900  1
  O  O1  1  0.73080500  0.94296100  0.25156900  1
  O  O2  1  0.59883800  0.25467600  0.51167000  1
  O  O3  1  0.29234200  0.03502200  0.77995000  1
  O  O4  1  0.20942400  0.47361000  0.72461700  1
  F  F0  1  0.87988900  0.25302900  0.98759200  1
  F  F1  1  0.80635400  0.91717200  0.70703200  1
  F  F2  1  0.71033800  0.56301700  0.78044500  1
  F  F3  1  0.35137400  0.75188700  0.48636700  1
  F  F4  1  0.30026200  0.44164700  0.20733400  1
  F  F5  1  0.20759500  0.06384700  0.30072300  1
  F  F6  1  0.11255900  0.75106300  0.04413600  1
loop_
_geom_bond_atom_site_label_1
_geom_bond_atom_site_label_2
_geom_bond_distance
_geom_bond_site_symmetry_2
Mg0 O0 1.999819 1_555
Mg0 O1 2.105285 1_555
O0 V2 1.911595 1_654
O0 V0 1.921382 1_555
O1 V1 1.829808 1_565
O1 V3 1.952750 1_665
O2 V0 1.691444 1_555
O2 V1 1.947645 1_555
O3 V1 1.757956 1_555
O3 V3 1.893374 1_556
O4 V2 1.729882 1_555
O4 V0 1.959454 1_555
F0 V2 1.959291 1_655
F0 V3 1.996991 1_656
F1 Mg0 2.037043 1_555
F1 V3 2.065820 1_666
F1 V1 2.119757 1_565
F2 V0 2.007673 1_555
F2 V2 2.027195 1_655
F3 Mg0 1.985159 1_455
F3 V1 2.157434 1_565
F3 V0 2.343643 1_555
F4 V0 1.984939 1_555
F4 V2 2.031111 1_554
F5 V1 1.965966 1_555
F5 V3 2.004790 1_555
F6 V3 2.064766 1_565
F6 V2 2.096210 1_554
F6 Mg0 2.103815 1_455
