# generated using pymatgen
data_Na10Ti4Nb4Si11SO48
_symmetry_space_group_name_H-M   'P 1'
_cell_length_a   17.95010047
_cell_length_b   8.98570238
_cell_length_c   22.43280159
_cell_angle_alpha   90.03317324
_cell_angle_beta   90.00773751
_cell_angle_gamma   119.99975294
_symmetry_Int_Tables_number   1
_chemical_formula_structural   Na10Ti4Nb4Si11SO48
_chemical_formula_sum   'Na30 Ti12 Nb12 Si33 S3 O144'
_cell_volume   3133.53115384
_cell_formula_units_Z   3
loop_
 _symmetry_equiv_pos_site_id
 _symmetry_equiv_pos_as_xyz
  1  'x, y, z'
loop_
 _atom_site_type_symbol
 _atom_site_label
 _atom_site_symmetry_multiplicity
 _atom_site_fract_x
 _atom_site_fract_y
 _atom_site_fract_z
 _atom_site_occupancy
  Na  Na0  1  0.31649455  0.00012535  0.24974347  1
  Na  Na1  1  0.81633658  0.99983313  0.25022127  1
  Na  Na2  1  0.82022967  0.63828052  0.74940351  1
  Na  Na3  1  0.49555652  0.35991201  0.74845504  1
  Na  Na4  1  0.01665156  0.70256098  0.58452442  1
  Na  Na5  1  0.33228870  0.96847375  0.58522248  1
  Na  Na6  1  0.83502783  0.96563628  0.58417963  1
  Na  Na7  1  0.33357905  0.69940684  0.08599419  1
  Na  Na8  1  0.83422669  0.70006127  0.08684794  1
  Na  Na9  1  0.01666357  0.33041166  0.08551200  1
  Na  Na10  1  0.51433773  0.32783463  0.08563486  1
  Na  Na11  1  0.98581287  0.66674342  0.91331917  1
  Na  Na12  1  0.34857253  0.03224117  0.91603310  1
  Na  Na13  1  0.85363834  0.03505623  0.91538591  1
  Na  Na14  1  0.48383220  0.30053805  0.41369858  1
  Na  Na15  1  0.98424727  0.30078531  0.41311385  1
  Na  Na16  1  0.35155996  0.67051272  0.41433474  1
  Na  Na17  1  0.85108435  0.67104709  0.41428152  1
  Na  Na18  1  0.00932721  0.01005808  0.49912091  1
  Na  Na19  1  0.50881876  0.00154934  0.49838773  1
  Na  Na20  1  0.01034127  0.00954946  0.00075696  1
  Na  Na21  1  0.50712049  0.99770195  0.00167440  1
  Na  Na22  1  0.32848695  0.33943470  0.83040591  1
  Na  Na23  1  0.83174983  0.32666149  0.83223857  1
  Na  Na24  1  0.33196949  0.33748916  0.32840568  1
  Na  Na25  1  0.83167315  0.33723193  0.32807867  1
  Na  Na26  1  0.16333514  0.66330469  0.17106156  1
  Na  Na27  1  0.66287399  0.66281138  0.17224432  1
  Na  Na28  1  0.16716296  0.66072009  0.67332562  1
  Na  Na29  1  0.66292851  0.66781937  0.66446543  1
  Ti  Ti0  1  0.99318344  0.99365439  0.35315100  1
  Ti  Ti1  1  0.49349685  0.99436084  0.35288577  1
  Ti  Ti2  1  0.99796107  0.99786013  0.85443816  1
  Ti  Ti3  1  0.99921460  0.99060486  0.64621962  1
  Ti  Ti4  1  0.99683078  0.00592764  0.14698009  1
  Ti  Ti5  1  0.49529709  0.00503016  0.14691566  1
  Ti  Ti6  1  0.33512582  0.33233886  0.68504243  1
  Ti  Ti7  1  0.34042795  0.34941045  0.18588224  1
  Ti  Ti8  1  0.84056915  0.35030831  0.18620531  1
  Ti  Ti9  1  0.16538054  0.65019824  0.31387147  1
  Ti  Ti10  1  0.66537367  0.65000491  0.31400304  1
  Ti  Ti11  1  0.16808344  0.67881927  0.81442518  1
  Nb  Nb0  1  0.49926206  0.99704262  0.85403310  1
  Nb  Nb1  1  0.49922156  0.99709763  0.64566525  1
  Nb  Nb2  1  0.83641294  0.33261603  0.68938844  1
  Nb  Nb3  1  0.33241099  0.34022861  0.97883789  1
  Nb  Nb4  1  0.83176565  0.33359409  0.98020581  1
  Nb  Nb5  1  0.33073323  0.32938270  0.47893146  1
  Nb  Nb6  1  0.83198551  0.32864604  0.47820683  1
  Nb  Nb7  1  0.16631952  0.66887745  0.02061265  1
  Nb  Nb8  1  0.66626188  0.66933417  0.02206073  1
  Nb  Nb9  1  0.16693865  0.66263076  0.52056051  1
  Nb  Nb10  1  0.66234698  0.66183030  0.52025359  1
  Nb  Nb11  1  0.66616590  0.67247388  0.81105836  1
  Si  Si0  1  0.35394393  0.70620432  0.24969046  1
  Si  Si1  1  0.85411382  0.70707604  0.24945830  1
  Si  Si2  1  0.00075000  0.29287616  0.25043850  1
  Si  Si3  1  0.50072553  0.29311593  0.25040816  1
  Si  Si4  1  0.64537698  0.28770598  0.75006279  1
  Si  Si5  1  0.00544830  0.71641685  0.75106159  1
  Si  Si6  1  0.49518679  0.70399829  0.74932433  1
  Si  Si7  1  0.34897320  0.99467994  0.74989816  1
  Si  Si8  1  0.85953087  0.00362163  0.75001462  1
  Si  Si9  1  0.47838293  0.33595201  0.58453250  1
  Si  Si10  1  0.98061761  0.32981335  0.58387204  1
  Si  Si11  1  0.18766910  0.04808253  0.58608646  1
  Si  Si12  1  0.68716183  0.04470304  0.58399217  1
  Si  Si13  1  0.33293116  0.61690977  0.58491409  1
  Si  Si14  1  0.83197882  0.62152695  0.58431116  1
  Si  Si15  1  0.47934039  0.62999020  0.08523047  1
  Si  Si16  1  0.98002038  0.63062512  0.08473896  1
  Si  Si17  1  0.33112599  0.04764577  0.08592774  1
  Si  Si18  1  0.83186237  0.04677456  0.08711862  1
  Si  Si19  1  0.18780624  0.32551980  0.08645505  1
  Si  Si20  1  0.68725953  0.32485573  0.08683555  1
  Si  Si21  1  0.30809318  0.66252354  0.91402830  1
  Si  Si22  1  0.81148275  0.66485346  0.91546222  1
  Si  Si23  1  0.02542516  0.37681426  0.91421513  1
  Si  Si24  1  0.52185840  0.37700924  0.91665468  1
  Si  Si25  1  0.16568167  0.95929880  0.91484202  1
  Si  Si26  1  0.66481230  0.95769921  0.91719119  1
  Si  Si27  1  0.30838245  0.95397709  0.41291240  1
  Si  Si28  1  0.80766151  0.95151991  0.41366666  1
  Si  Si29  1  0.16458499  0.36953499  0.41448664  1
  Si  Si30  1  0.66454968  0.37016036  0.41497044  1
  Si  Si31  1  0.02565636  0.67532243  0.41453868  1
  Si  Si32  1  0.52443816  0.67448547  0.41324349  1
  S  S0  1  0.14215319  0.99992342  0.25009222  1
  S  S1  1  0.64225730  0.00013520  0.24990887  1
  S  S2  1  0.14251802  0.28468366  0.74982480  1
  O  O0  1  0.10078052  0.02201080  0.30406812  1
  O  O1  1  0.60116552  0.02228296  0.30400735  1
  O  O2  1  0.41426491  0.80202831  0.30906885  1
  O  O3  1  0.91422728  0.80180737  0.30902791  1
  O  O4  1  0.48605477  0.16541671  0.30797940  1
  O  O5  1  0.98583996  0.16525815  0.30805622  1
  O  O6  1  0.10072044  0.17714121  0.80388467  1
  O  O7  1  0.59787651  0.16782042  0.80808706  1
  O  O8  1  0.48522297  0.80323896  0.80756214  1
  O  O9  1  0.98576676  0.80750114  0.80816217  1
  O  O10  1  0.41487481  0.03285277  0.80774157  1
  O  O11  1  0.91526673  0.02630628  0.81020653  1
  O  O12  1  0.39931083  0.97282198  0.69106840  1
  O  O13  1  0.90281543  0.96909330  0.69140782  1
  O  O14  1  0.08867736  0.19953595  0.69587628  1
  O  O15  1  0.58145179  0.19850631  0.69300448  1
  O  O16  1  0.01373789  0.83126131  0.69116808  1
  O  O17  1  0.51352464  0.83157584  0.69218223  1
  O  O18  1  0.40295623  0.83438808  0.19216924  1
  O  O19  1  0.90316922  0.83460302  0.19189856  1
  O  O20  1  0.01311740  0.19754835  0.19100197  1
  O  O21  1  0.51333726  0.19802225  0.19098421  1
  O  O22  1  0.08976658  0.97778450  0.19606221  1
  O  O23  1  0.59006549  0.97813837  0.19596049  1
  O  O24  1  0.43362044  0.36267365  0.64370404  1
  O  O25  1  0.93278776  0.36854925  0.63966443  1
  O  O26  1  0.25393416  0.13820571  0.64114441  1
  O  O27  1  0.75224895  0.13884733  0.64059189  1
  O  O28  1  0.31968592  0.49469367  0.64151859  1
  O  O29  1  0.81906105  0.50444360  0.64320902  1
  O  O30  1  0.43471491  0.49675529  0.14121803  1
  O  O31  1  0.93327249  0.49572643  0.14004598  1
  O  O32  1  0.31868688  0.13675985  0.14488148  1
  O  O33  1  0.81830412  0.13662868  0.14504774  1
  O  O34  1  0.25554811  0.36907215  0.14095893  1
  O  O35  1  0.75548102  0.36940889  0.14084183  1
  O  O36  1  0.23468162  0.30174630  0.02643025  1
  O  O37  1  0.73562173  0.30328863  0.02643957  1
  O  O38  1  0.41612711  0.53433158  0.02725322  1
  O  O39  1  0.91861290  0.53832597  0.02494156  1
  O  O40  1  0.35076579  0.16715626  0.02578338  1
  O  O41  1  0.84980486  0.16580928  0.02627591  1
  O  O42  1  0.23505037  0.16723137  0.52631864  1
  O  O43  1  0.73636066  0.16714438  0.52561368  1
  O  O44  1  0.34682243  0.53198284  0.52370311  1
  O  O45  1  0.85089845  0.53455534  0.52559247  1
  O  O46  1  0.41778750  0.30275827  0.52503314  1
  O  O47  1  0.91896735  0.29863966  0.52476088  1
  O  O48  1  0.26659060  0.69845954  0.97500854  1
  O  O49  1  0.76775735  0.69944184  0.97440462  1
  O  O50  1  0.08110513  0.46477716  0.97609322  1
  O  O51  1  0.58176950  0.46925376  0.97569958  1
  O  O52  1  0.14825918  0.82966667  0.97291914  1
  O  O53  1  0.65366499  0.83513311  0.97480031  1
  O  O54  1  0.26679530  0.83466982  0.47364579  1
  O  O55  1  0.76730440  0.83341365  0.47414901  1
  O  O56  1  0.14938459  0.46710534  0.47267649  1
  O  O57  1  0.64911929  0.46694692  0.47291112  1
  O  O58  1  0.08149013  0.69692197  0.47620428  1
  O  O59  1  0.58348116  0.69821039  0.47351225  1
  O  O60  1  0.07149549  0.63103679  0.36022483  1
  O  O61  1  0.57108057  0.63089800  0.35923824  1
  O  O62  1  0.25012613  0.86362659  0.35486062  1
  O  O63  1  0.75024885  0.86381422  0.35495273  1
  O  O64  1  0.18572904  0.50329196  0.35891043  1
  O  O65  1  0.68619633  0.50333386  0.35897976  1
  O  O66  1  0.06950494  0.51007472  0.85965156  1
  O  O67  1  0.56871013  0.49711267  0.85777041  1
  O  O68  1  0.18529841  0.86730252  0.85908172  1
  O  O69  1  0.68330281  0.86548516  0.85981094  1
  O  O70  1  0.24716147  0.63726618  0.85781474  1
  O  O71  1  0.75242155  0.63839899  0.85655330  1
  O  O72  1  0.00954821  0.83730205  0.40916350  1
  O  O73  1  0.50969896  0.83790673  0.40862505  1
  O  O74  1  0.40506249  0.97351673  0.40954444  1
  O  O75  1  0.90507028  0.97391254  0.40942917  1
  O  O76  1  0.07782600  0.18630760  0.40865212  1
  O  O77  1  0.57812498  0.18658662  0.40848076  1
  O  O78  1  0.01028108  0.18258472  0.90887894  1
  O  O79  1  0.50884772  0.18406195  0.91172418  1
  O  O80  1  0.07859124  0.96984620  0.90823018  1
  O  O81  1  0.58000550  0.97507895  0.91247099  1
  O  O82  1  0.40222015  0.84005704  0.91000360  1
  O  O83  1  0.90678752  0.83804919  0.91044713  1
  O  O84  1  0.48259457  0.15841769  0.58857060  1
  O  O85  1  0.98533603  0.15649196  0.59168698  1
  O  O86  1  0.09123676  0.01977715  0.59096169  1
  O  O87  1  0.59307672  0.02645286  0.58855859  1
  O  O88  1  0.41553085  0.81324133  0.58899314  1
  O  O89  1  0.91963965  0.81199121  0.58983546  1
  O  O90  1  0.48491317  0.81375845  0.09180705  1
  O  O91  1  0.98456824  0.81349351  0.09135787  1
  O  O92  1  0.41762420  0.02540771  0.09082863  1
  O  O93  1  0.91853070  0.02685984  0.09025879  1
  O  O94  1  0.09088838  0.16240248  0.09149862  1
  O  O95  1  0.59064051  0.16263358  0.09089651  1
  O  O96  1  0.34608757  0.17370183  0.74411484  1
  O  O97  1  0.84765721  0.17207067  0.74483437  1
  O  O98  1  0.22865479  0.30012300  0.74478777  1
  O  O99  1  0.74229441  0.31674298  0.74562266  1
  O  O100  1  0.41301654  0.51183256  0.74500788  1
  O  O101  1  0.91449232  0.52894929  0.74436229  1
  O  O102  1  0.34503713  0.51681940  0.24366404  1
  O  O103  1  0.84520629  0.51733454  0.24351065  1
  O  O104  1  0.41014380  0.29669294  0.24520568  1
  O  O105  1  0.91024790  0.29714361  0.24492002  1
  O  O106  1  0.23023278  0.15428821  0.24612803  1
  O  O107  1  0.73058681  0.15474221  0.24605394  1
  O  O108  1  0.32039961  0.49552035  0.92171161  1
  O  O109  1  0.82563857  0.49899454  0.92066917  1
  O  O110  1  0.42565545  0.35269962  0.92209915  1
  O  O111  1  0.92837381  0.35707089  0.92285059  1
  O  O112  1  0.25395887  0.14293120  0.92280626  1
  O  O113  1  0.75493967  0.14162522  0.92238536  1
  O  O114  1  0.32494800  0.15002965  0.42098088  1
  O  O115  1  0.82488193  0.14924726  0.42126221  1
  O  O116  1  0.25421056  0.36527805  0.42135751  1
  O  O117  1  0.75467640  0.36647102  0.42257799  1
  O  O118  1  0.42897036  0.49898571  0.42212320  1
  O  O119  1  0.92928679  0.49899415  0.42259040  1
  O  O120  1  0.17956800  0.50088872  0.07783151  1
  O  O121  1  0.68014500  0.50121073  0.07756019  1
  O  O122  1  0.07169678  0.63425163  0.07844791  1
  O  O123  1  0.57178922  0.63486449  0.07832341  1
  O  O124  1  0.24957340  0.85044483  0.07818125  1
  O  O125  1  0.75028080  0.85028133  0.07898521  1
  O  O126  1  0.17984986  0.85751592  0.57751056  1
  O  O127  1  0.68407235  0.86052557  0.57744906  1
  O  O128  1  0.24937660  0.64621549  0.57771870  1
  O  O129  1  0.75011697  0.65164421  0.57830188  1
  O  O130  1  0.07219168  0.50919873  0.57831340  1
  O  O131  1  0.57358180  0.50620914  0.57858536  1
  O  O132  1  0.15275679  0.84522773  0.25400310  1
  O  O133  1  0.65317291  0.84563731  0.25392358  1
  O  O134  1  0.26159741  0.70304856  0.25515855  1
  O  O135  1  0.76168882  0.70327202  0.25488701  1
  O  O136  1  0.08632390  0.48304635  0.25645560  1
  O  O137  1  0.58657780  0.48308879  0.25643568  1
  O  O138  1  0.15015775  0.45559400  0.75470752  1
  O  O139  1  0.65380852  0.47884209  0.75477910  1
  O  O140  1  0.08738921  0.68952737  0.75605692  1
  O  O141  1  0.58219001  0.68430722  0.75512593  1
  O  O142  1  0.25721330  0.81976761  0.75566162  1
  O  O143  1  0.76399653  0.82684318  0.75526918  1
loop_
_geom_bond_atom_site_label_1
_geom_bond_atom_site_label_2
_geom_bond_distance
_geom_bond_site_symmetry_2
Na0 O104 2.336323 1_555
Na0 O134 2.341292 1_545
Na0 O106 2.543250 1_555
Na0 O132 2.548372 1_545
Na0 O32 2.645285 1_555
Na0 O62 2.650861 1_545
Na0 O18 2.933315 1_545
Na0 O4 2.941504 1_555
Na1 O135 2.336828 1_555
Na1 O105 2.343058 1_565
Na1 O133 2.539048 1_555
Na1 O107 2.541286 1_565
Na1 O63 2.641034 1_555
Na1 O33 2.653042 1_565
Na1 O5 2.936710 1_565
Na1 O19 2.942440 1_555
Na2 O101 2.345861 1_555
Na2 O143 2.370044 1_555
Na2 O99 2.503952 1_555
Na2 O139 2.590647 1_555
Na2 O29 2.663314 1_555
Na2 O71 2.694661 1_555
Na2 O13 2.885283 1_555
Na2 O9 2.890893 1_555
Na3 O96 2.349064 1_555
Na3 O100 2.467242 1_555
Na3 O139 2.489065 1_555
Na3 O141 2.530603 1_555
Na3 O24 2.604882 1_555
Na3 O67 2.763056 1_555
Na3 O10 2.872627 1_555
Na3 O15 2.874481 1_555
Na4 O89 2.392840 1_455
Na4 O130 2.400866 1_555
Na4 O86 2.474155 1_565
Na4 O126 2.542941 1_555
Na4 O16 2.668451 1_555
Na4 O58 2.705783 1_555
Na4 O25 2.879388 1_455
Na4 O45 2.895530 1_455
Na5 O84 2.364932 1_565
Na5 O126 2.404749 1_555
Na5 O88 2.503954 1_555
Na5 O128 2.513613 1_555
Na5 O12 2.653084 1_555
Na5 O54 2.770344 1_555
Na5 O26 2.832199 1_565
Na5 O46 2.931975 1_565
Na6 O85 2.370960 1_565
Na6 O127 2.386972 1_555
Na6 O129 2.449529 1_555
Na6 O89 2.515133 1_555
Na6 O13 2.688674 1_555
Na6 O55 2.744697 1_555
Na6 O47 2.915007 1_565
Na6 O27 2.922782 1_565
Na7 O90 2.379184 1_555
Na7 O120 2.434381 1_555
Na7 O124 2.488604 1_555
Na7 O92 2.539511 1_565
Na7 O18 2.679620 1_555
Na7 O48 2.762895 1_554
Na7 O34 2.853083 1_555
Na7 O38 2.885887 1_555
Na8 O91 2.362417 1_555
Na8 O121 2.437863 1_555
Na8 O125 2.481509 1_555
Na8 O93 2.544594 1_565
Na8 O19 2.654490 1_555
Na8 O49 2.789036 1_554
Na8 O35 2.845649 1_555
Na8 O39 2.921423 1_555
Na9 O93 2.397889 1_455
Na9 O122 2.399699 1_555
Na9 O94 2.466555 1_555
Na9 O120 2.539296 1_555
Na9 O20 2.637558 1_555
Na9 O50 2.725489 1_554
Na9 O31 2.857584 1_455
Na9 O41 2.913919 1_455
Na10 O92 2.386427 1_555
Na10 O123 2.420182 1_555
Na10 O95 2.475226 1_555
Na10 O121 2.584911 1_555
Na10 O21 2.632165 1_555
Na10 O51 2.761909 1_554
Na10 O30 2.840607 1_555
Na10 O40 2.875003 1_555
Na11 O80 2.380988 1_655
Na11 O111 2.446127 1_555
Na11 O109 2.496466 1_555
Na11 O83 2.563080 1_555
Na11 O9 2.677491 1_555
Na11 O39 2.769269 1_556
Na11 O66 2.793114 1_655
Na11 O52 2.856795 1_655
Na12 O112 2.363421 1_555
Na12 O82 2.364439 1_545
Na12 O79 2.494548 1_555
Na12 O110 2.498004 1_555
Na12 O10 2.704092 1_555
Na12 O40 2.735234 1_556
Na12 O68 2.841030 1_545
Na12 O48 2.915975 1_545
Na13 O83 2.396850 1_545
Na13 O113 2.403500 1_555
Na13 O78 2.440814 1_655
Na13 O111 2.513544 1_555
Na13 O11 2.623832 1_555
Na13 O41 2.765985 1_556
Na13 O69 2.926177 1_545
Na13 O49 2.929194 1_545
Na14 O77 2.379053 1_555
Na14 O118 2.437409 1_555
Na14 O114 2.476466 1_555
Na14 O74 2.547073 1_545
Na14 O4 2.673067 1_555
Na14 O46 2.769108 1_555
Na14 O61 2.848344 1_555
Na14 O57 2.891913 1_555
Na15 O76 2.370132 1_655
Na15 O119 2.438704 1_555
Na15 O115 2.485148 1_555
Na15 O75 2.545402 1_545
Na15 O5 2.658870 1_555
Na15 O47 2.761249 1_555
Na15 O60 2.832628 1_655
Na15 O56 2.893462 1_655
Na16 O74 2.394275 1_555
Na16 O116 2.410155 1_555
Na16 O73 2.463177 1_555
Na16 O118 2.545343 1_555
Na16 O2 2.629356 1_555
Na16 O44 2.733831 1_555
Na16 O64 2.861538 1_555
Na16 O54 2.916123 1_555
Na17 O75 2.391737 1_555
Na17 O117 2.405028 1_555
Na17 O72 2.467140 1_655
Na17 O119 2.562392 1_555
Na17 O3 2.629137 1_555
Na17 O45 2.781869 1_555
Na17 O65 2.847236 1_555
Na17 O55 2.895893 1_555
Na18 O76 2.489151 1_555
Na18 O86 2.506900 1_555
Na18 O72 2.546488 1_545
Na18 O85 2.606234 1_455
Na18 O89 2.653367 1_445
Na18 O75 2.654508 1_445
Na19 O87 2.467673 1_555
Na19 O73 2.497392 1_545
Na19 O77 2.513176 1_555
Na19 O84 2.638504 1_555
Na19 O88 2.640048 1_545
Na19 O74 2.652068 1_545
Na20 O94 2.476020 1_555
Na20 O80 2.524537 1_544
Na20 O91 2.576390 1_445
Na20 O78 2.582825 1_554
Na20 O93 2.651069 1_455
Na20 O83 2.658033 1_444
Na21 O81 2.454277 1_554
Na21 O95 2.494778 1_565
Na21 O90 2.514810 1_555
Na21 O79 2.613204 1_564
Na21 O92 2.653839 1_565
Na21 O82 2.666344 1_554
Na22 O100 2.454734 1_555
Na22 O108 2.526627 1_555
Na22 O98 2.527890 1_555
Na22 O96 2.555789 1_555
Na22 O112 2.616637 1_555
Na22 O110 2.660493 1_555
Na23 O99 2.493505 1_555
Na23 O97 2.499843 1_555
Na23 O113 2.543064 1_555
Na23 O109 2.551785 1_555
Na23 O101 2.588681 1_555
Na23 O111 2.595981 1_555
Na24 O102 2.427163 1_555
Na24 O104 2.470071 1_555
Na24 O106 2.537895 1_555
Na24 O116 2.589826 1_555
Na24 O114 2.637777 1_555
Na24 O118 2.650696 1_555
Na25 O103 2.426436 1_555
Na25 O105 2.471249 1_555
Na25 O107 2.527320 1_555
Na25 O117 2.614652 1_555
Na25 O115 2.652556 1_555
Na25 O119 2.669566 1_555
Na26 O136 2.443232 1_555
Na26 O134 2.483145 1_555
Na26 O132 2.545028 1_555
Na26 O122 2.580560 1_555
Na26 O124 2.639529 1_555
Na26 O120 2.647771 1_555
Na27 O137 2.417262 1_555
Na27 O135 2.463485 1_555
Na27 O133 2.523718 1_555
Na27 O123 2.600610 1_555
Na27 O125 2.652936 1_555
Na27 O121 2.676373 1_555
Na28 O142 2.398506 1_555
Na28 O140 2.435702 1_555
Na28 O138 2.502977 1_555
Na28 O130 2.641468 1_555
Na28 O128 2.643397 1_555
Na28 O126 2.720417 1_555
Na29 O131 2.461591 1_555
Na29 O127 2.509938 1_555
Na29 O129 2.536633 1_555
Na29 O141 2.544346 1_555
Na29 O139 2.596351 1_555
Na29 O143 2.624065 1_555
Nb0 O8 1.934405 1_555
Nb0 O7 1.958715 1_565
Nb0 O10 1.990927 1_565
Nb0 O81 2.035664 1_555
Nb0 O82 2.036189 1_555
Nb0 O79 2.058358 1_565
Nb1 O17 1.936634 1_555
Nb1 O15 1.976826 1_565
Nb1 O12 1.977581 1_555
Nb1 O87 2.026212 1_565
Nb1 O88 2.029188 1_555
Nb1 O84 2.065296 1_565
Nb2 O25 1.945131 1_555
Nb2 O27 1.969552 1_555
Nb2 O97 1.990504 1_555
Nb2 O29 2.009166 1_555
Nb2 O101 2.030259 1_555
Nb2 O99 2.055656 1_555
Nb3 O36 1.931616 1_556
Nb3 O38 1.963729 1_556
Nb3 O108 1.984626 1_555
Nb3 O40 2.037245 1_556
Nb3 O112 2.050953 1_555
Nb3 O110 2.060876 1_555
Nb4 O37 1.912866 1_556
Nb4 O41 1.983907 1_556
Nb4 O39 1.987778 1_556
Nb4 O109 2.042174 1_555
Nb4 O113 2.043972 1_555
Nb4 O111 2.083802 1_555
Nb5 O42 1.924234 1_555
Nb5 O44 1.969368 1_555
Nb5 O46 1.985522 1_555
Nb5 O116 2.025319 1_555
Nb5 O114 2.031808 1_555
Nb5 O118 2.090828 1_555
Nb6 O43 1.922132 1_555
Nb6 O47 2.005483 1_555
Nb6 O45 2.009499 1_555
Nb6 O115 2.009658 1_555
Nb6 O117 2.017476 1_555
Nb6 O119 2.068689 1_555
Nb7 O52 1.951234 1_554
Nb7 O48 1.969563 1_554
Nb7 O50 1.973018 1_554
Nb7 O124 2.030218 1_555
Nb7 O122 2.034093 1_555
Nb7 O120 2.084189 1_555
Nb8 O53 1.932179 1_554
Nb8 O51 1.971004 1_554
Nb8 O123 2.010078 1_555
Nb8 O49 2.010775 1_554
Nb8 O125 2.023311 1_555
Nb8 O121 2.067111 1_555
Nb9 O56 1.945269 1_555
Nb9 O58 1.977413 1_555
Nb9 O54 1.985376 1_555
Nb9 O128 2.018300 1_555
Nb9 O130 2.032147 1_555
Nb9 O126 2.084216 1_555
Nb10 O59 1.916541 1_555
Nb10 O57 1.957763 1_555
Nb10 O131 1.995265 1_555
Nb10 O55 2.023343 1_555
Nb10 O127 2.070501 1_555
Nb10 O129 2.080862 1_555
Nb11 O69 1.939811 1_555
Nb11 O67 1.971581 1_555
Nb11 O71 2.001639 1_555
Nb11 O141 2.004429 1_555
Nb11 O143 2.034918 1_555
Nb11 O139 2.069267 1_555
O0 S0 1.484715 1_545
O0 Ti0 2.125154 1_445
O1 S1 1.484316 1_555
O1 Ti1 2.125182 1_545
O2 Si0 1.659533 1_555
O2 Ti1 1.874948 1_555
O3 Si1 1.659652 1_555
O3 Ti0 1.874724 1_555
O4 Si3 1.659396 1_555
O4 Ti1 1.897967 1_545
O5 Si2 1.658965 1_655
O5 Ti0 1.903535 1_545
O6 S2 1.497996 1_555
O6 Ti2 2.077219 1_445
O7 Si4 1.632537 1_555
O8 Si6 1.640787 1_555
O9 Si5 1.650305 1_655
O9 Ti2 1.916998 1_555
O10 Si7 1.671543 1_545
O11 Si8 1.631288 1_555
O11 Ti2 1.905924 1_545
O12 Si7 1.665577 1_555
O13 Si8 1.633790 1_565
O13 Ti3 1.930122 1_555
O14 S2 1.497737 1_555
O14 Ti3 2.080034 1_445
O15 Si4 1.635897 1_555
O16 Si5 1.655412 1_555
O16 Ti3 1.873399 1_455
O17 Si6 1.640168 1_555
O18 Si0 1.659645 1_555
O18 Ti5 1.894679 1_565
O19 Si1 1.657936 1_555
O19 Ti4 1.904189 1_565
O20 Si2 1.658223 1_555
O20 Ti4 1.876174 1_455
O21 Si3 1.658494 1_555
O21 Ti5 1.877729 1_555
O22 S0 1.484999 1_555
O22 Ti4 2.116805 1_465
O23 S1 1.481760 1_565
O23 Ti5 2.138566 1_565
O24 Si9 1.630351 1_555
O24 Ti6 1.891786 1_555
O25 Si10 1.650252 1_555
O26 Si11 1.622133 1_555
O26 Ti6 1.895280 1_555
O27 Si12 1.644002 1_555
O28 Si13 1.617266 1_555
O28 Ti6 1.887935 1_555
O29 Si14 1.632195 1_555
O30 Si15 1.641770 1_555
O30 Ti7 1.839152 1_555
O31 Si16 1.642454 1_555
O31 Ti8 1.837482 1_555
O32 Si17 1.617933 1_555
O32 Ti7 1.975258 1_555
O33 Si18 1.610972 1_555
O33 Ti8 1.982244 1_555
O34 Si19 1.627838 1_555
O34 Ti7 1.907123 1_555
O35 Si20 1.623708 1_555
O35 Ti8 1.913039 1_555
O36 Si19 1.657246 1_555
O37 Si20 1.671836 1_555
O38 Si15 1.655559 1_555
O39 Si16 1.669252 1_555
O40 Si17 1.649574 1_555
O41 Si18 1.663729 1_555
O42 Si11 1.660918 1_555
O43 Si12 1.654021 1_555
O44 Si13 1.649000 1_555
O45 Si14 1.650906 1_555
O46 Si9 1.651754 1_555
O47 Si10 1.658504 1_555
O48 Si21 1.664599 1_555
O49 Si22 1.644596 1_555
O50 Si23 1.660983 1_555
O51 Si24 1.644666 1_555
O52 Si25 1.670210 1_555
O53 Si26 1.644526 1_555
O54 Si27 1.662660 1_555
O55 Si28 1.650782 1_555
O56 Si29 1.668853 1_555
O57 Si30 1.661976 1_555
O58 Si31 1.661482 1_555
O59 Si32 1.664308 1_555
O60 Si31 1.626975 1_555
O60 Ti9 1.913499 1_555
O61 Si32 1.627792 1_555
O61 Ti10 1.906323 1_555
O62 Si27 1.611819 1_555
O62 Ti9 1.979326 1_555
O63 Si28 1.613757 1_555
O63 Ti10 1.981578 1_555
O64 Si29 1.639710 1_555
O64 Ti9 1.838578 1_555
O65 Si30 1.642400 1_555
O65 Ti10 1.840843 1_555
O66 Si23 1.616364 1_555
O66 Ti11 1.943909 1_555
O67 Si24 1.646572 1_555
O68 Si25 1.631562 1_555
O68 Ti11 1.855289 1_555
O69 Si26 1.651525 1_555
O70 Si21 1.609042 1_555
O70 Ti11 1.905711 1_555
O71 Si22 1.635244 1_555
O72 Si31 1.624089 1_555
O72 Ti0 2.013358 1_455
O73 Si32 1.620422 1_555
O73 Ti1 2.008797 1_555
O74 Si27 1.656369 1_555
O74 Ti1 1.968226 1_555
O75 Si28 1.659823 1_555
O75 Ti0 1.961410 1_555
O76 Si29 1.608980 1_555
O76 Ti0 2.054793 1_445
O77 Si30 1.609193 1_555
O77 Ti1 2.054175 1_545
O78 Si23 1.630821 1_555
O78 Ti2 1.981436 1_445
O79 Si24 1.633275 1_555
O80 Si25 1.619551 1_555
O80 Ti2 1.994603 1_455
O81 Si26 1.609558 1_555
O82 Si21 1.647002 1_555
O83 Si22 1.642915 1_555
O83 Ti2 1.992904 1_555
O84 Si9 1.636941 1_555
O85 Si10 1.611107 1_555
O85 Ti3 2.038104 1_545
O86 Si11 1.622570 1_555
O86 Ti3 1.975273 1_445
O87 Si12 1.616376 1_555
O88 Si13 1.644114 1_555
O89 Si14 1.651398 1_555
O89 Ti3 1.980082 1_555
O90 Si15 1.610296 1_555
O90 Ti5 2.047956 1_565
O91 Si16 1.610712 1_555
O91 Ti4 2.052355 1_565
O92 Si17 1.665226 1_555
O92 Ti5 1.953343 1_555
O93 Si18 1.653958 1_555
O93 Ti4 1.973320 1_555
O94 Si19 1.624198 1_555
O94 Ti4 2.001305 1_455
O95 Si20 1.616518 1_555
O95 Ti5 2.023047 1_555
O96 Si7 1.640363 1_545
O96 Ti6 2.027144 1_555
O97 Si8 1.634875 1_555
O98 S2 1.486001 1_555
O98 Ti6 2.231711 1_555
O99 Si4 1.628080 1_555
O100 Si6 1.618469 1_555
O100 Ti6 2.026743 1_555
O101 Si5 1.665897 1_655
O102 Si0 1.633239 1_555
O102 Ti7 1.955284 1_555
O103 Si1 1.636271 1_555
O103 Ti8 1.945468 1_555
O104 Si3 1.646385 1_555
O104 Ti7 2.038257 1_555
O105 Si2 1.648670 1_655
O105 Ti8 2.031059 1_555
O106 S0 1.496244 1_545
O106 Ti7 2.312695 1_555
O107 S1 1.499629 1_555
O107 Ti8 2.307004 1_555
O108 Si21 1.631628 1_555
O109 Si22 1.636541 1_555
O110 Si24 1.633258 1_555
O111 Si23 1.671802 1_655
O112 Si25 1.628029 1_545
O113 Si26 1.639597 1_545
O114 Si27 1.643302 1_545
O115 Si28 1.652801 1_545
O116 Si29 1.635511 1_555
O117 Si30 1.643475 1_555
O118 Si32 1.661701 1_555
O119 Si31 1.671833 1_655
O120 Si19 1.666087 1_555
O121 Si20 1.665395 1_555
O122 Si16 1.635672 1_455
O123 Si15 1.645341 1_555
O124 Si17 1.648848 1_565
O125 Si18 1.645961 1_565
O126 Si11 1.657772 1_565
O127 Si12 1.634461 1_565
O128 Si13 1.655224 1_555
O129 Si14 1.627354 1_555
O130 Si10 1.632930 1_455
O131 Si9 1.632312 1_555
O132 S0 1.496954 1_555
O132 Ti9 2.307804 1_555
O133 S1 1.498650 1_565
O133 Ti10 2.311328 1_555
O134 Si0 1.648223 1_555
O134 Ti9 2.030837 1_555
O135 Si1 1.646741 1_555
O135 Ti10 2.037295 1_555
O136 Si2 1.634808 1_555
O136 Ti9 1.947951 1_555
O137 Si3 1.635902 1_555
O137 Ti10 1.947737 1_555
O138 S2 1.475984 1_555
O138 Ti11 2.296279 1_555
O139 Si4 1.650372 1_555
O140 Si5 1.609255 1_555
O140 Ti11 1.990166 1_555
O141 Si6 1.662378 1_555
O142 Si7 1.616006 1_555
O142 Ti11 1.969183 1_555
O143 Si8 1.659566 1_565
