# generated using pymatgen
data_MgMn6(O5F)2
_symmetry_space_group_name_H-M   'P 1'
_cell_length_a   7.01773550
_cell_length_b   5.67654112
_cell_length_c   5.83080286
_cell_angle_alpha   82.70021375
_cell_angle_beta   71.59315469
_cell_angle_gamma   74.72070293
_symmetry_Int_Tables_number   1
_chemical_formula_structural   MgMn6(O5F)2
_chemical_formula_sum   'Mg1 Mn6 O10 F2'
_cell_volume   212.36032175
_cell_formula_units_Z   1
loop_
 _symmetry_equiv_pos_site_id
 _symmetry_equiv_pos_as_xyz
  1  'x, y, z'
loop_
 _atom_site_type_symbol
 _atom_site_label
 _atom_site_symmetry_multiplicity
 _atom_site_fract_x
 _atom_site_fract_y
 _atom_site_fract_z
 _atom_site_occupancy
  Mg  Mg0  1  0.16228785  0.33753284  0.83099319  1
  Mn  Mn0  1  0.83439739  0.66966340  0.64249554  1
  Mn  Mn1  1  0.67468605  0.29067374  0.37270821  1
  Mn  Mn2  1  0.33821901  0.73827695  0.59771332  1
  Mn  Mn3  1  0.16544614  0.33280538  0.33779193  1
  Mn  Mn4  1  0.51520202  0.98609481  0.00121907  1
  Mn  Mn5  1  0.00496499  0.93253147  0.04985850  1
  O  O0  1  0.69034834  -0.00010921  0.66918468  1
  O  O1  1  0.28838961  0.95942792  0.85896908  1
  O  O2  1  0.63472239  0.59289837  0.52304422  1
  O  O3  1  0.97900893  0.25066773  0.18490795  1
  O  O4  1  0.71162215  0.05249889  0.14468775  1
  O  O5  1  0.05053889  0.71342198  0.79133960  1
  O  O6  1  0.36225561  0.41025780  0.48305989  1
  O  O7  1  0.31806019  0.00047858  0.32132169  1
  O  O8  1  0.97857732  0.32272549  0.63921505  1
  O  O9  1  0.02357705  0.67516380  0.33221405  1
  F  F0  1  0.34657084  0.38367573  0.00423958  1
  F  F1  1  0.67112522  0.61321931  0.97753671  1
loop_
_geom_bond_atom_site_label_1
_geom_bond_atom_site_label_2
_geom_bond_distance
_geom_bond_site_symmetry_2
Mg0 O8 1.977634 1_455
Mg0 O5 2.080520 1_555
Mg0 O1 2.101806 1_545
Mg0 O6 2.133087 1_555
Mg0 O3 2.134341 1_456
Mn0 O9 1.878119 1_655
Mn0 O0 1.880453 1_565
Mn0 O2 1.911504 1_555
Mn0 O8 1.962094 1_555
Mn0 O5 2.049485 1_655
Mn1 O4 1.928018 1_555
Mn1 O2 1.940005 1_555
Mn1 O6 2.029219 1_555
Mn1 O3 2.035284 1_555
Mn1 O0 2.241503 1_555
Mn2 O2 1.953050 1_555
Mn2 O1 1.984180 1_555
Mn2 O6 2.005504 1_555
Mn2 O5 2.010116 1_555
Mn2 O7 2.063007 1_565
Mn3 O8 1.835868 1_455
Mn3 O7 1.905586 1_555
Mn3 O9 1.937459 1_555
Mn3 O3 1.971696 1_455
Mn3 O6 1.992949 1_555
Mn4 O7 1.937219 1_565
Mn4 O0 1.942808 1_564
Mn4 O4 1.955539 1_565
Mn4 O1 2.058411 1_554
Mn5 O4 1.909269 1_465
Mn5 O5 1.970732 1_554
Mn5 O1 1.984203 1_554
Mn5 O3 2.002997 1_465
Mn5 O9 2.070256 1_555
F0 Mg0 1.957634 1_554
F0 Mn3 1.992770 1_555
F0 Mn4 2.254680 1_545
F1 Mn0 1.962841 1_555
F1 Mn4 2.110626 1_556
