# generated using pymatgen
data_Sm5Sb3H
_symmetry_space_group_name_H-M   'P 1'
_cell_length_a   9.21377147
_cell_length_b   9.21377147
_cell_length_c   6.33775000
_cell_angle_alpha   90.00000000
_cell_angle_beta   90.00000000
_cell_angle_gamma   119.99999617
_symmetry_Int_Tables_number   1
_chemical_formula_structural   Sm5Sb3H
_chemical_formula_sum   'Sm10 Sb6 H2'
_cell_volume   465.95140374
_cell_formula_units_Z   2
loop_
 _symmetry_equiv_pos_site_id
 _symmetry_equiv_pos_as_xyz
  1  'x, y, z'
loop_
 _atom_site_type_symbol
 _atom_site_label
 _atom_site_symmetry_multiplicity
 _atom_site_fract_x
 _atom_site_fract_y
 _atom_site_fract_z
 _atom_site_occupancy
  Sm  Sm0  1  0.74726500  0.74726500  0.25000000  1
  Sm  Sm1  1  0.74726500  0.00000000  0.75000000  1
  Sm  Sm2  1  0.00000000  0.25273500  0.25000000  1
  Sm  Sm3  1  0.00000000  0.74726500  0.75000000  1
  Sm  Sm4  1  0.25273500  0.25273500  0.75000000  1
  Sm  Sm5  1  0.25273500  0.00000000  0.25000000  1
  Sm  Sm6  1  0.33333300  0.66666700  0.50000000  1
  Sm  Sm7  1  0.66666700  0.33333300  0.00000000  1
  Sm  Sm8  1  0.66666700  0.33333300  0.50000000  1
  Sm  Sm9  1  0.33333300  0.66666700  0.00000000  1
  Sb  Sb0  1  0.38576500  0.00000000  0.75000000  1
  Sb  Sb1  1  0.38576500  0.38576500  0.25000000  1
  Sb  Sb2  1  0.00000000  0.61423500  0.25000000  1
  Sb  Sb3  1  0.00000000  0.38576500  0.75000000  1
  Sb  Sb4  1  0.61423500  0.61423500  0.75000000  1
  Sb  Sb5  1  0.61423500  0.00000000  0.25000000  1
  H  H0  1  0.00000000  0.00000000  0.50000000  1
  H  H1  1  0.00000000  0.00000000  0.00000000  1
loop_
_geom_bond_atom_site_label_1
_geom_bond_atom_site_label_2
_geom_bond_distance
_geom_bond_site_symmetry_2
Sb0 Sm4 3.127167 1_555
Sb0 Sm3 3.127167 1_545
Sb0 Sm6 3.269972 1_545
Sb0 Sm9 3.269972 1_546
Sb0 Sm8 3.269975 1_555
Sb0 Sm7 3.269975 1_556
Sb0 Sm1 3.330778 1_555
Sb0 Sm5 3.397665 1_556
Sb0 Sm5 3.397665 1_555
Sb1 Sm2 3.127167 1_555
Sb1 Sm5 3.127167 1_555
Sb1 Sm7 3.269980 1_555
Sb1 Sm8 3.269980 1_555
Sb1 Sm6 3.269980 1_555
Sb1 Sm9 3.269980 1_555
Sb1 Sm0 3.330779 1_555
Sb1 Sm4 3.397665 1_555
Sb1 Sm4 3.397665 1_554
Sb2 Sm0 3.127167 1_455
Sb2 Sm5 3.127167 1_565
Sb2 Sm6 3.269972 1_555
Sb2 Sm9 3.269972 1_555
Sb2 Sm8 3.269975 1_455
Sb2 Sm7 3.269975 1_455
Sb2 Sm2 3.330778 1_555
Sb2 Sm3 3.397665 1_555
Sb2 Sm3 3.397665 1_554
Sb3 Sm4 3.127167 1_555
Sb3 Sm1 3.127167 1_455
Sb3 Sm7 3.269972 1_456
Sb3 Sm8 3.269972 1_455
Sb3 Sm9 3.269975 1_556
Sb3 Sm6 3.269975 1_555
Sb3 Sm3 3.330778 1_555
Sb3 Sm2 3.397665 1_555
Sb3 Sm2 3.397665 1_556
Sb4 Sm3 3.127167 1_655
Sb4 Sm1 3.127167 1_565
Sb4 Sm6 3.269980 1_555
Sb4 Sm9 3.269980 1_556
Sb4 Sm7 3.269980 1_556
Sb4 Sm8 3.269980 1_555
Sb4 Sm4 3.330779 1_555
Sb4 Sm0 3.397665 1_556
Sb4 Sm0 3.397665 1_555
Sb5 Sm0 3.127167 1_545
Sb5 Sm2 3.127167 1_655
Sb5 Sm8 3.269972 1_555
Sb5 Sm7 3.269972 1_555
Sb5 Sm9 3.269975 1_545
Sb5 Sm6 3.269975 1_545
Sb5 Sm5 3.330778 1_555
Sb5 Sm1 3.397665 1_554
Sb5 Sm1 3.397665 1_555
H0 Sm2 2.816561 1_555
H0 Sm5 2.816561 1_555
H0 Sm1 2.816561 1_455
H0 Sm3 2.816561 1_545
H0 Sm4 2.816562 1_555
H0 Sm0 2.816562 1_445
H1 Sm2 2.816561 1_555
H1 Sm5 2.816561 1_555
H1 Sm3 2.816561 1_544
H1 Sm1 2.816561 1_454
H1 Sm4 2.816562 1_554
H1 Sm0 2.816562 1_445
