# generated using pymatgen
data_Na7TaGa3Si3(PO8)3
_symmetry_space_group_name_H-M   'P 1'
_cell_length_a   8.94387671
_cell_length_b   8.91820406
_cell_length_c   21.91232876
_cell_angle_alpha   90.02591597
_cell_angle_beta   90.15626888
_cell_angle_gamma   120.09360613
_symmetry_Int_Tables_number   1
_chemical_formula_structural   Na7TaGa3Si3(PO8)3
_chemical_formula_sum   'Na21 Ta3 Ga9 Si9 P9 O72'
_cell_volume   1512.20052258
_cell_formula_units_Z   3
loop_
 _symmetry_equiv_pos_site_id
 _symmetry_equiv_pos_as_xyz
  1  'x, y, z'
loop_
 _atom_site_type_symbol
 _atom_site_label
 _atom_site_symmetry_multiplicity
 _atom_site_fract_x
 _atom_site_fract_y
 _atom_site_fract_z
 _atom_site_occupancy
  Na  Na0  1  0.62856516  0.99824071  0.25209659  1
  Na  Na1  1  0.36942721  0.37186779  0.25166748  1
  Na  Na2  1  0.00221595  0.63244316  0.25345466  1
  Na  Na3  1  0.64022078  0.62897853  0.74374990  1
  Na  Na4  1  0.99468327  0.35734016  0.74268978  1
  Na  Na5  1  0.29591278  0.33971011  0.58443573  1
  Na  Na6  1  0.03746651  0.70221247  0.58290764  1
  Na  Na7  1  0.66621651  0.96124205  0.58086417  1
  Na  Na8  1  0.29881503  0.96353074  0.08430450  1
  Na  Na9  1  0.66177225  0.70097862  0.08537787  1
  Na  Na10  1  0.04079154  0.33234338  0.08191648  1
  Na  Na11  1  0.32279675  0.29529060  0.91308251  1
  Na  Na12  1  0.97496132  0.29758757  0.41558790  1
  Na  Na13  1  0.32499868  0.02609700  0.41494345  1
  Na  Na14  1  0.70049764  0.67556765  0.41530771  1
  Na  Na15  1  0.99806650  0.00044918  0.49967974  1
  Na  Na16  1  0.99014761  0.99546396  0.99632671  1
  Na  Na17  1  0.66419501  0.32213836  0.82724338  1
  Na  Na18  1  0.66548470  0.33227328  0.33092440  1
  Na  Na19  1  0.33652094  0.66677034  0.16650716  1
  Na  Na20  1  0.33494826  0.67291462  0.65962445  1
  Ta  Ta0  1  0.66924667  0.32868719  0.97872772  1
  Ta  Ta1  1  0.67077287  0.33678254  0.47987131  1
  Ta  Ta2  1  0.32852889  0.66544905  0.81201673  1
  Ga  Ga0  1  0.99810114  0.99874416  0.35387171  1
  Ga  Ga1  1  0.00232483  0.00740031  0.85121617  1
  Ga  Ga2  1  0.99835272  0.00465590  0.64746353  1
  Ga  Ga3  1  0.00143343  0.00588226  0.14693090  1
  Ga  Ga4  1  0.65885901  0.33157750  0.68371650  1
  Ga  Ga5  1  0.66054984  0.32906008  0.18165674  1
  Ga  Ga6  1  0.33833342  0.66321811  0.01820247  1
  Ga  Ga7  1  0.33247768  0.66030846  0.51617276  1
  Ga  Ga8  1  0.33207674  0.66516785  0.32079453  1
  Si  Si0  1  0.29383521  0.28017419  0.75019367  1
  Si  Si1  1  0.96054517  0.33511620  0.58789978  1
  Si  Si2  1  0.66681759  0.63064504  0.58696803  1
  Si  Si3  1  0.66448691  0.03610734  0.08650104  1
  Si  Si4  1  0.37329964  0.33388607  0.08529515  1
  Si  Si5  1  0.04041980  0.37084074  0.91876039  1
  Si  Si6  1  0.62115812  0.95216895  0.41551985  1
  Si  Si7  1  0.32975453  0.37525198  0.41502615  1
  Si  Si8  1  0.04883122  0.67049964  0.41583949  1
  P  P0  1  0.28910251  0.99939034  0.24905477  1
  P  P1  1  0.71137949  0.70945054  0.24846233  1
  P  P2  1  0.99980325  0.29297900  0.24921627  1
  P  P3  1  0.00100004  0.71882289  0.75043200  1
  P  P4  1  0.71222826  0.00324568  0.74996889  1
  P  P5  1  0.37679119  0.04210348  0.58512788  1
  P  P6  1  0.95683349  0.62301611  0.08568676  1
  P  P7  1  0.63197975  0.67554901  0.91761663  1
  P  P8  1  0.32693987  0.95096330  0.91974092  1
  O  O0  1  0.20555206  0.02906328  0.30610173  1
  O  O1  1  0.82366884  0.79265678  0.30611593  1
  O  O2  1  0.96727449  0.17795865  0.30605215  1
  O  O3  1  0.20914593  0.17769093  0.81288689  1
  O  O4  1  0.96976559  0.80351202  0.80568745  1
  O  O5  1  0.82810131  0.03351869  0.80551630  1
  O  O6  1  0.77874987  0.95560517  0.69187889  1
  O  O7  1  0.16605114  0.20754379  0.69082944  1
  O  O8  1  0.03120081  0.82162904  0.69096146  1
  O  O9  1  0.79600471  0.82234391  0.19098087  1
  O  O10  1  0.03065750  0.21140204  0.19133193  1
  O  O11  1  0.17627981  0.96969679  0.19117739  1
  O  O12  1  0.86901515  0.36701789  0.64656929  1
  O  O13  1  0.49585611  0.12703576  0.63985914  1
  O  O14  1  0.62723775  0.50552666  0.64558310  1
  O  O15  1  0.87784989  0.50860414  0.14294413  1
  O  O16  1  0.62645772  0.12094292  0.14606098  1
  O  O17  1  0.49934774  0.37702534  0.14450801  1
  O  O18  1  0.47004890  0.30416161  0.02514239  1
  O  O19  1  0.83351793  0.52943449  0.02965501  1
  O  O20  1  0.70047435  0.17187839  0.02812509  1
  O  O21  1  0.46316523  0.15681239  0.52662613  1
  O  O22  1  0.69488548  0.53242934  0.52645493  1
  O  O23  1  0.83373041  0.30340263  0.52715910  1
  O  O24  1  0.55094420  0.69941441  0.97593232  1
  O  O25  1  0.16304866  0.46129562  0.97774733  1
  O  O26  1  0.31050476  0.84892261  0.97761850  1
  O  O27  1  0.54005370  0.83386244  0.47585998  1
  O  O28  1  0.28946778  0.45278487  0.47576345  1
  O  O29  1  0.16739034  0.70788854  0.47620176  1
  O  O30  1  0.11993067  0.62002266  0.35516386  1
  O  O31  1  0.50000027  0.87902183  0.35440303  1
  O  O32  1  0.38035018  0.49895469  0.35472052  1
  O  O33  1  0.13853852  0.49611676  0.85840699  1
  O  O34  1  0.35793249  0.86314066  0.86330939  1
  O  O35  1  0.50776427  0.64253209  0.86143184  1
  O  O36  1  0.01775831  0.83491683  0.40934832  1
  O  O37  1  0.81586352  0.98093346  0.40912383  1
  O  O38  1  0.16304153  0.18095206  0.40812422  1
  O  O39  1  0.02324814  0.18197737  0.91189158  1
  O  O40  1  0.17193995  0.97717918  0.91314021  1
  O  O41  1  0.81138206  0.82834680  0.90859011  1
  O  O42  1  0.97353877  0.15841646  0.58780769  1
  O  O43  1  0.19846642  0.03035618  0.58788396  1
  O  O44  1  0.84740629  0.81701868  0.58903766  1
  O  O45  1  0.96831151  0.80119774  0.08845648  1
  O  O46  1  0.83857906  0.02045017  0.08863446  1
  O  O47  1  0.18551400  0.15524877  0.08848689  1
  O  O48  1  0.69378260  0.16459115  0.74420711  1
  O  O49  1  0.49188020  0.31868355  0.74586932  1
  O  O50  1  0.84695790  0.53056242  0.74808617  1
  O  O51  1  0.69482193  0.52590585  0.24504688  1
  O  O52  1  0.83590977  0.31333039  0.24457450  1
  O  O53  1  0.47286474  0.16588369  0.24592754  1
  O  O54  1  0.63300069  0.49889793  0.92149672  1
  O  O55  1  0.85100971  0.36101794  0.92158797  1
  O  O56  1  0.49480825  0.13858504  0.92230757  1
  O  O57  1  0.64177750  0.14758468  0.42263825  1
  O  O58  1  0.50304705  0.35367096  0.42280770  1
  O  O59  1  0.85255873  0.49477388  0.42265600  1
  O  O60  1  0.35251004  0.50484599  0.07890174  1
  O  O61  1  0.13630748  0.64331304  0.07796789  1
  O  O62  1  0.49066133  0.84845458  0.07697586  1
  O  O63  1  0.35738572  0.86186075  0.57877114  1
  O  O64  1  0.49664511  0.65103374  0.57925358  1
  O  O65  1  0.14864138  0.50949587  0.58036241  1
  O  O66  1  0.30819833  0.83514993  0.25249485  1
  O  O67  1  0.52870726  0.69047340  0.25180597  1
  O  O68  1  0.16530265  0.47587479  0.25338616  1
  O  O69  1  0.31547821  0.48478778  0.75719177  1
  O  O70  1  0.16801965  0.69750131  0.75739121  1
  O  O71  1  0.52777596  0.83665958  0.75902225  1
loop_
_geom_bond_atom_site_label_1
_geom_bond_atom_site_label_2
_geom_bond_distance
_geom_bond_site_symmetry_2
Na0 O67 2.423408 1_555
Na0 O52 2.477647 1_565
Na0 O66 2.479206 1_555
Na0 O31 2.503672 1_555
Na0 O53 2.505951 1_565
Na0 O16 2.572771 1_565
Na0 O2 2.872877 1_565
Na0 O9 2.976870 1_555
Na1 O68 2.427626 1_555
Na1 O53 2.439467 1_555
Na1 O67 2.458387 1_555
Na1 O32 2.505736 1_555
Na1 O51 2.524122 1_555
Na1 O17 2.612922 1_555
Na1 O0 2.904600 1_555
Na1 O10 2.933330 1_555
Na2 O66 2.407681 1_555
Na2 O51 2.423390 1_455
Na2 O52 2.470300 1_455
Na2 O68 2.473811 1_555
Na2 O30 2.488398 1_555
Na2 O15 2.659288 1_455
Na2 O1 2.867032 1_455
Na2 O11 2.941392 1_555
Na3 O14 2.391857 1_555
Na3 O49 2.395583 1_555
Na3 O50 2.413480 1_555
Na3 O71 2.534377 1_555
Na3 O69 2.536881 1_555
Na3 O6 2.775518 1_555
Na3 O35 2.868391 1_555
Na3 O4 2.885748 1_555
Na4 O48 2.357956 1_555
Na4 O12 2.406542 1_555
Na4 O50 2.488715 1_555
Na4 O69 2.519774 1_655
Na4 O70 2.643890 1_655
Na4 O7 2.736173 1_655
Na4 O33 2.828263 1_655
Na4 O5 2.855689 1_555
Na5 O64 2.438733 1_555
Na5 O43 2.442536 1_555
Na5 O65 2.456674 1_555
Na5 O42 2.501835 1_455
Na5 O28 2.598147 1_555
Na5 O7 2.611092 1_555
Na5 O14 2.888847 1_555
Na5 O21 2.993025 1_555
Na6 O65 2.379010 1_555
Na6 O44 2.387971 1_455
Na6 O63 2.477625 1_555
Na6 O43 2.534257 1_565
Na6 O29 2.603048 1_555
Na6 O8 2.608002 1_555
Na6 O22 2.921661 1_455
Na6 O12 2.941204 1_455
Na7 O64 2.397276 1_555
Na7 O42 2.412637 1_565
Na7 O63 2.441584 1_555
Na7 O44 2.530108 1_555
Na7 O27 2.560435 1_555
Na7 O6 2.640177 1_555
Na7 O23 2.892940 1_565
Na7 O13 2.906408 1_565
Na8 O47 2.386734 1_565
Na8 O62 2.406331 1_555
Na8 O61 2.474528 1_555
Na8 O45 2.559698 1_455
Na8 O26 2.574291 1_554
Na8 O11 2.600503 1_555
Na8 O16 2.870614 1_565
Na8 O18 2.933127 1_565
Na9 O45 2.421077 1_555
Na9 O60 2.424094 1_555
Na9 O46 2.470670 1_565
Na9 O62 2.474468 1_555
Na9 O9 2.578167 1_555
Na9 O24 2.589839 1_554
Na9 O17 2.817930 1_555
Na9 O19 2.925075 1_555
Na10 O60 2.417391 1_555
Na10 O46 2.446731 1_455
Na10 O61 2.460320 1_555
Na10 O47 2.497962 1_555
Na10 O25 2.546240 1_554
Na10 O10 2.612522 1_555
Na10 O20 2.883138 1_455
Na10 O15 2.947721 1_455
Na11 O39 2.341827 1_555
Na11 O3 2.422837 1_555
Na11 O54 2.444060 1_555
Na11 O40 2.455674 1_545
Na11 O56 2.552540 1_555
Na11 O18 2.765484 1_556
Na11 O25 2.893319 1_555
Na11 O35 2.912653 1_555
Na12 O38 2.386305 1_655
Na12 O37 2.447147 1_545
Na12 O59 2.499253 1_555
Na12 O57 2.588158 1_555
Na12 O2 2.612864 1_555
Na12 O28 2.764165 1_655
Na12 O23 2.767244 1_555
Na12 O30 2.824325 1_655
Na13 O36 2.402629 1_545
Na13 O38 2.456199 1_555
Na13 O57 2.479591 1_555
Na13 O58 2.536287 1_555
Na13 O0 2.616220 1_555
Na13 O21 2.722359 1_555
Na13 O29 2.800782 1_545
Na13 O31 2.828180 1_545
Na14 O37 2.383828 1_555
Na14 O36 2.458977 1_655
Na14 O58 2.510944 1_555
Na14 O59 2.583279 1_555
Na14 O1 2.625220 1_555
Na14 O22 2.739146 1_555
Na14 O27 2.802289 1_555
Na14 O32 2.810131 1_555
Na15 O42 2.464077 1_555
Na15 O44 2.476379 1_545
Na15 O37 2.514145 1_545
Na15 O36 2.527497 1_645
Na15 O38 2.535827 1_655
Na15 O43 2.553519 1_655
Na16 O39 2.406138 1_665
Na16 O41 2.462648 1_555
Na16 O40 2.504926 1_655
Na16 O46 2.509190 1_566
Na16 O47 2.577422 1_666
Na16 O45 2.604070 1_556
Na17 O49 2.343694 1_555
Na17 O48 2.393321 1_555
Na17 O50 2.471225 1_555
Na17 O55 2.566175 1_555
Na17 O56 2.616742 1_555
Na17 O54 2.696212 1_555
Na18 O53 2.460704 1_555
Na18 O51 2.478548 1_555
Na18 O52 2.491131 1_555
Na18 O57 2.540021 1_555
Na18 O59 2.547039 1_555
Na18 O58 2.548417 1_555
Na19 O60 2.448856 1_555
Na19 O67 2.471948 1_555
Na19 O62 2.480383 1_555
Na19 O66 2.500156 1_555
Na19 O68 2.504383 1_555
Na19 O61 2.572805 1_555
Na20 O65 2.337456 1_555
Na20 O64 2.351100 1_555
Na20 O63 2.384134 1_555
Na20 O69 2.669869 1_555
Na20 O70 2.685488 1_555
Na20 O71 2.702168 1_555
Ga0 O38 1.953136 1_665
Ga0 O37 1.974576 1_555
Ga0 O36 1.975180 1_655
Ga0 O1 2.005200 1_555
Ga0 O0 2.029559 1_665
Ga0 O2 2.042130 1_565
Ga1 O3 1.904193 1_555
Ga1 O5 1.959800 1_455
Ga1 O4 1.962686 1_445
Ga1 O39 1.982743 1_555
Ga1 O41 2.079829 1_445
Ga1 O40 2.148087 1_545
Ga2 O7 1.922403 1_655
Ga2 O42 1.985857 1_555
Ga2 O44 1.996240 1_545
Ga2 O8 2.034669 1_645
Ga2 O6 2.036038 1_545
Ga2 O43 2.135866 1_655
Ga3 O10 1.972534 1_555
Ga3 O47 1.984645 1_555
Ga3 O46 1.987452 1_455
Ga3 O9 1.995465 1_445
Ga3 O11 1.996931 1_545
Ga3 O45 2.124898 1_445
Ga4 O14 1.903848 1_555
Ga4 O13 1.923626 1_555
Ga4 O12 1.925674 1_555
Ga4 O49 1.984290 1_555
Ga4 O48 2.130320 1_555
Ga4 O50 2.227058 1_555
Ga5 O17 1.880613 1_555
Ga5 O16 1.891048 1_555
Ga5 O15 1.987494 1_555
Ga5 O53 2.117530 1_555
Ga5 O51 2.135652 1_555
Ga5 O52 2.142268 1_555
Ga6 O25 1.909520 1_554
Ga6 O60 1.990068 1_555
Ga6 O24 1.993081 1_554
Ga6 O62 1.993800 1_555
Ga6 O26 2.002279 1_554
Ga6 O61 2.168614 1_555
Ga7 O28 1.907868 1_555
Ga7 O29 1.936202 1_555
Ga7 O27 1.936803 1_555
Ga7 O64 2.045522 1_555
Ga7 O65 2.070605 1_555
Ga7 O63 2.180966 1_555
Ga8 O31 1.885630 1_555
Ga8 O30 1.889820 1_555
Ga8 O32 1.891397 1_555
Ga8 O68 2.171876 1_555
Ga8 O66 2.215507 1_555
Ga8 O67 2.246281 1_555
O0 P0 1.547293 1_545
O1 P1 1.549236 1_555
O2 P2 1.546528 1_555
O3 Si0 1.615189 1_555
O4 P3 1.525472 1_655
O5 P4 1.529923 1_555
O6 P4 1.553020 1_565
O7 Si0 1.632972 1_555
O8 P3 1.538306 1_555
O9 P1 1.554078 1_555
O10 P2 1.554552 1_455
O11 P0 1.556117 1_555
O12 Si1 1.625672 1_555
O13 P5 1.526224 1_555
O14 Si2 1.621023 1_555
O15 P6 1.548363 1_555
O16 Si3 1.628180 1_555
O17 Si4 1.630661 1_555
O18 Si4 1.671027 1_555
O18 Ta0 1.968665 1_554
O19 P6 1.577663 1_555
O19 Ta0 1.990119 1_554
O20 Si3 1.678918 1_555
O20 Ta0 1.896497 1_554
O21 P5 1.581351 1_555
O21 Ta1 2.024023 1_555
O22 Si2 1.676226 1_555
O22 Ta1 1.937183 1_555
O23 Si1 1.675603 1_555
O23 Ta1 1.927087 1_555
O24 P7 1.537189 1_555
O25 Si5 1.621233 1_555
O26 P8 1.525147 1_555
O27 Si6 1.620668 1_555
O28 Si7 1.621991 1_555
O29 Si8 1.619394 1_555
O30 Si8 1.632744 1_555
O31 Si6 1.635749 1_555
O32 Si7 1.634619 1_555
O33 Si5 1.670852 1_555
O33 Ta2 1.907546 1_555
O34 P8 1.561419 1_555
O34 Ta2 1.993087 1_555
O35 P7 1.581397 1_555
O35 Ta2 2.025664 1_555
O36 Si8 1.629770 1_555
O37 Si6 1.634434 1_555
O38 Si7 1.629803 1_555
O39 Si5 1.619696 1_555
O40 P8 1.523607 1_555
O41 P7 1.509936 1_555
O42 Si1 1.637207 1_555
O43 P5 1.546397 1_555
O44 Si2 1.637313 1_555
O45 P6 1.541305 1_555
O46 Si3 1.632102 1_555
O47 Si4 1.637447 1_555
O48 P4 1.533536 1_555
O49 Si0 1.629508 1_555
O50 P3 1.549033 1_655
O51 P1 1.569610 1_555
O52 P2 1.567797 1_555
O53 P0 1.569735 1_545
O54 P7 1.582331 1_555
O54 Ta0 2.115421 1_555
O55 Si5 1.653212 1_655
O55 Ta0 1.958307 1_555
O56 P8 1.592875 1_545
O56 Ta0 2.042512 1_555
O57 Si6 1.665184 1_545
O57 Ta1 2.011106 1_555
O58 Si7 1.663148 1_555
O58 Ta1 2.013219 1_555
O59 Si8 1.674117 1_655
O59 Ta1 1.978872 1_555
O60 Si4 1.631907 1_555
O61 P6 1.532366 1_455
O62 Si3 1.627892 1_565
O63 P5 1.534041 1_565
O64 Si2 1.629196 1_555
O65 Si1 1.629124 1_455
O66 P0 1.559225 1_555
O67 P1 1.557781 1_555
O68 P2 1.561341 1_455
O69 Si0 1.742465 1_555
O69 Ta2 1.965101 1_555
O70 P3 1.604522 1_555
O70 Ta2 1.994438 1_555
O71 P4 1.585022 1_565
O71 Ta2 2.034635 1_555
