# generated using pymatgen
data_Na6CaZr3Si2(PO6)4
_symmetry_space_group_name_H-M   'P 1'
_cell_length_a   16.01955257
_cell_length_b   9.17396959
_cell_length_c   9.26156881
_cell_angle_alpha   90.21650092
_cell_angle_beta   125.25577594
_cell_angle_gamma   89.82875649
_symmetry_Int_Tables_number   1
_chemical_formula_structural   Na6CaZr3Si2(PO6)4
_chemical_formula_sum   'Na12 Ca2 Zr6 Si4 P8 O48'
_cell_volume   1111.44878080
_cell_formula_units_Z   2
loop_
 _symmetry_equiv_pos_site_id
 _symmetry_equiv_pos_as_xyz
  1  'x, y, z'
loop_
 _atom_site_type_symbol
 _atom_site_label
 _atom_site_symmetry_multiplicity
 _atom_site_fract_x
 _atom_site_fract_y
 _atom_site_fract_z
 _atom_site_occupancy
  Na  Na0  1  0.25143909  0.74601592  0.00160450  1
  Na  Na1  1  0.74810053  0.74501166  0.48714073  1
  Na  Na2  1  0.75143909  0.24601592  0.00160450  1
  Na  Na3  1  0.24810053  0.24501166  0.48714073  1
  Na  Na4  1  0.51190343  0.09389530  0.77022127  1
  Na  Na5  1  0.49787079  0.88982226  0.23553700  1
  Na  Na6  1  0.01190343  0.59389530  0.77022127  1
  Na  Na7  1  0.99787079  0.38982226  0.23553700  1
  Na  Na8  1  0.79867150  0.92603038  0.21540594  1
  Na  Na9  1  0.18278131  0.07845351  0.80402492  1
  Na  Na10  1  0.29867150  0.42603038  0.21540594  1
  Na  Na11  1  0.68278131  0.57845351  0.80402492  1
  Ca  Ca0  1  0.10052280  0.24015730  0.06006532  1
  Ca  Ca1  1  0.60052280  0.74015730  0.06006532  1
  Zr  Zr0  1  0.10556894  0.74578043  0.55441607  1
  Zr  Zr1  1  0.89531536  0.75760408  0.93788077  1
  Zr  Zr2  1  0.89635182  0.25427116  0.44645174  1
  Zr  Zr3  1  0.60556894  0.24578043  0.55441607  1
  Zr  Zr4  1  0.39531536  0.25760408  0.93788077  1
  Zr  Zr5  1  0.39635182  0.75427116  0.44645174  1
  Si  Si0  1  0.65276690  0.89985948  0.75156615  1
  Si  Si1  1  0.35548842  0.09566428  0.25101423  1
  Si  Si2  1  0.15276690  0.39985948  0.75156615  1
  Si  Si3  1  0.85548842  0.59566428  0.25101423  1
  P  P0  1  0.99579376  0.94677863  0.73816011  1
  P  P1  1  0.99653277  0.04557473  0.26036376  1
  P  P2  1  0.49579376  0.44677863  0.73816011  1
  P  P3  1  0.49653277  0.54557473  0.26036376  1
  P  P4  1  0.35312471  0.90484542  0.76236640  1
  P  P5  1  0.64703351  0.11364123  0.24077552  1
  P  P6  1  0.85312471  0.40484542  0.76236640  1
  P  P7  1  0.14703351  0.61364123  0.24077552  1
  O  O0  1  0.16263833  0.57685970  0.73495379  1
  O  O1  1  0.85341943  0.57503562  0.74982080  1
  O  O2  1  0.85042872  0.41517230  0.25366505  1
  O  O3  1  0.15392222  0.44697365  0.26005014  1
  O  O4  1  0.66263833  0.07685970  0.73495379  1
  O  O5  1  0.35341943  0.07503562  0.74982080  1
  O  O6  1  0.35042872  0.91517230  0.25366505  1
  O  O7  1  0.65392222  0.94697365  0.26005014  1
  O  O8  1  0.42950502  0.54272300  0.56874235  1
  O  O9  1  0.56584404  0.54127311  0.90002768  1
  O  O10  1  0.55366717  0.45027396  0.42666995  1
  O  O11  1  0.44365852  0.44128117  0.09537081  1
  O  O12  1  0.92950502  0.04272300  0.56874235  1
  O  O13  1  0.06584404  0.04127311  0.90002768  1
  O  O14  1  0.05366717  0.95027396  0.42666995  1
  O  O15  1  0.94365852  0.94128117  0.09537081  1
  O  O16  1  0.25150405  0.85916241  0.73318082  1
  O  O17  1  0.74409314  0.81380779  0.75301412  1
  O  O18  1  0.73926156  0.17251435  0.24509869  1
  O  O19  1  0.27187096  0.18193939  0.26252100  1
  O  O20  1  0.75150405  0.35916241  0.73318082  1
  O  O21  1  0.24409314  0.31380779  0.75301412  1
  O  O22  1  0.23926156  0.67251435  0.24509869  1
  O  O23  1  0.77187096  0.68193939  0.26252100  1
  O  O24  1  0.36185590  0.84818525  0.61026869  1
  O  O25  1  0.65650438  0.87385555  0.92701466  1
  O  O26  1  0.64877496  0.18101887  0.39578291  1
  O  O27  1  0.35278497  0.13833912  0.07247201  1
  O  O28  1  0.86185590  0.34818525  0.61026869  1
  O  O29  1  0.15650438  0.37385555  0.92701466  1
  O  O30  1  0.14877496  0.68101887  0.39578291  1
  O  O31  1  0.85278497  0.63833912  0.07247201  1
  O  O32  1  0.44314617  0.85123259  0.94074778  1
  O  O33  1  0.54214316  0.82926193  0.58097194  1
  O  O34  1  0.54631679  0.16272731  0.06464588  1
  O  O35  1  0.47177580  0.14145534  0.41793368  1
  O  O36  1  0.94314617  0.35123259  0.94074778  1
  O  O37  1  0.04214316  0.32926193  0.58097194  1
  O  O38  1  0.04631679  0.66272731  0.06464588  1
  O  O39  1  0.97177580  0.64145534  0.41793368  1
  O  O40  1  0.06943940  0.84384347  0.72427843  1
  O  O41  1  0.92358380  0.84578291  0.75246037  1
  O  O42  1  0.90701555  0.12707846  0.25088462  1
  O  O43  1  0.06758032  0.15679702  0.26242939  1
  O  O44  1  0.56943940  0.34384347  0.72427843  1
  O  O45  1  0.42358380  0.34578291  0.75246037  1
  O  O46  1  0.40701555  0.62707846  0.25088462  1
  O  O47  1  0.56758032  0.65679702  0.26242939  1
loop_
_geom_bond_atom_site_label_1
_geom_bond_atom_site_label_2
_geom_bond_distance
_geom_bond_site_symmetry_2
Na0 O6 2.467032 1_555
Na0 O46 2.468250 1_555
Na0 O22 2.469523 1_555
Na0 O0 2.541507 1_554
Na0 O40 2.694360 1_554
Na0 O16 2.698196 1_554
Na1 O23 2.389916 1_555
Na1 O47 2.530270 1_555
Na1 O1 2.543847 1_555
Na1 O7 2.545986 1_555
Na1 O17 2.576120 1_555
Na1 O41 2.611343 1_555
Na2 O2 2.467032 1_555
Na2 O42 2.468250 1_555
Na2 O18 2.469523 1_555
Na2 O4 2.541507 1_554
Na2 O44 2.694360 1_554
Na2 O20 2.698196 1_554
Na3 O19 2.389916 1_555
Na3 O43 2.530270 1_555
Na3 O5 2.543847 1_555
Na3 O3 2.545986 1_555
Na3 O21 2.576120 1_555
Na3 O45 2.611343 1_555
Na4 O5 2.441302 1_555
Na4 O34 2.528220 1_556
Na4 O44 2.600246 1_555
Na4 O4 2.621034 1_555
Na4 O45 2.661451 1_555
Na4 O25 2.767737 1_545
Na4 O35 2.972675 1_555
Na4 O24 2.991614 1_545
Na5 O47 2.355375 1_555
Na5 O32 2.362056 1_554
Na5 O7 2.434653 1_555
Na5 O6 2.472921 1_555
Na5 O46 2.865486 1_555
Na6 O1 2.441302 1_455
Na6 O38 2.528220 1_556
Na6 O40 2.600246 1_555
Na6 O0 2.621034 1_555
Na6 O41 2.661451 1_455
Na6 O29 2.767737 1_555
Na6 O39 2.972675 1_455
Na6 O28 2.991614 1_455
Na7 O43 2.355375 1_655
Na7 O36 2.362056 1_554
Na7 O3 2.434653 1_655
Na7 O2 2.472921 1_555
Na7 O42 2.865486 1_555
Na8 O25 2.350369 1_554
Na8 O23 2.370345 1_555
Na8 O42 2.424534 1_565
Na8 O18 2.525703 1_565
Na8 O7 2.586193 1_555
Na8 O12 2.883853 1_565
Na9 O27 2.466142 1_556
Na9 O13 2.518942 1_555
Na9 O21 2.530974 1_555
Na9 O16 2.549590 1_545
Na9 O40 2.633975 1_545
Na10 O29 2.350369 1_554
Na10 O19 2.370345 1_555
Na10 O46 2.424534 1_555
Na10 O22 2.525703 1_555
Na10 O3 2.586193 1_555
Na10 O8 2.883853 1_555
Na11 O31 2.466142 1_556
Na11 O9 2.518942 1_555
Na11 O17 2.530974 1_555
Na11 O20 2.549590 1_555
Na11 O44 2.633975 1_555
Ca0 O13 2.206710 1_554
Ca0 O29 2.262939 1_554
Ca0 O36 2.322144 1_454
Ca0 O19 2.322206 1_555
Ca0 O43 2.351821 1_555
Ca0 O3 2.432319 1_555
Ca1 O9 2.206710 1_554
Ca1 O25 2.262939 1_554
Ca1 O32 2.322144 1_554
Ca1 O23 2.322206 1_555
Ca1 O47 2.351821 1_555
Ca1 O7 2.432319 1_555
O0 Si2 1.648302 1_555
O0 Zr0 2.068684 1_555
O1 P6 1.566298 1_555
O1 Zr1 2.219107 1_555
O2 Si3 1.659019 1_555
O2 Zr2 2.098839 1_555
O3 P7 1.536297 1_555
O4 Si0 1.648302 1_545
O4 Zr3 2.068684 1_555
O5 P4 1.566298 1_545
O5 Zr4 2.219107 1_555
O6 Si1 1.659019 1_565
O6 Zr5 2.098839 1_555
O7 P5 1.536297 1_565
O8 P2 1.563862 1_555
O8 Zr5 2.155767 1_555
O9 P2 1.520547 1_555
O10 P3 1.533749 1_555
O10 Zr3 2.117154 1_555
O11 P3 1.570830 1_555
O11 Zr4 2.061995 1_554
O12 P0 1.563862 1_545
O12 Zr2 2.155767 1_555
O13 P0 1.520547 1_445
O14 P1 1.533749 1_465
O14 Zr0 2.117154 1_555
O15 P1 1.570830 1_565
O15 Zr1 2.061995 1_554
O16 P4 1.547270 1_555
O16 Zr0 2.195808 1_555
O17 Si0 1.653572 1_555
O17 Zr1 2.068030 1_555
O18 P5 1.553219 1_555
O18 Zr2 2.226209 1_555
O19 Si1 1.609327 1_555
O20 P6 1.547270 1_555
O20 Zr3 2.195808 1_555
O21 Si2 1.653572 1_555
O21 Zr4 2.068030 1_555
O22 P7 1.553219 1_555
O22 Zr5 2.226209 1_555
O23 Si3 1.609327 1_555
O24 P4 1.579741 1_555
O24 Zr5 2.074793 1_555
O25 Si0 1.609788 1_555
O26 P5 1.546284 1_555
O26 Zr3 2.038495 1_555
O27 Si1 1.676781 1_555
O27 Zr4 2.051918 1_554
O28 P6 1.579741 1_555
O28 Zr2 2.074793 1_555
O29 Si2 1.609788 1_555
O30 P7 1.546284 1_555
O30 Zr0 2.038495 1_555
O31 Si3 1.676781 1_555
O31 Zr1 2.051918 1_554
O32 P4 1.517368 1_555
O33 Si0 1.680176 1_555
O33 Zr5 2.030778 1_555
O34 P5 1.558748 1_555
O34 Zr4 2.168851 1_554
O35 Si1 1.646742 1_555
O35 Zr3 1.995744 1_555
O36 P6 1.517368 1_555
O37 Si2 1.680176 1_555
O37 Zr2 2.030778 1_455
O38 P7 1.558748 1_555
O38 Zr1 2.168851 1_454
O39 Si3 1.646742 1_555
O39 Zr0 1.995744 1_655
O40 P0 1.570880 1_455
O40 Zr0 2.157917 1_555
O41 P0 1.548653 1_555
O41 Zr1 2.172327 1_555
O42 P1 1.572246 1_555
O42 Zr2 2.238626 1_555
O43 P1 1.522670 1_455
O44 P2 1.570880 1_555
O44 Zr3 2.157917 1_555
O45 P2 1.548653 1_555
O45 Zr4 2.172327 1_555
O46 P3 1.572246 1_555
O46 Zr5 2.238626 1_555
O47 P3 1.522670 1_555
