# generated using pymatgen
data_Eu(Sb3Ru)4
_symmetry_space_group_name_H-M   'P 1'
_cell_length_a   8.08970755
_cell_length_b   8.08971281
_cell_length_c   8.08969019
_cell_angle_alpha   109.47135822
_cell_angle_beta   109.47104252
_cell_angle_gamma   109.47142780
_symmetry_Int_Tables_number   1
_chemical_formula_structural   Eu(Sb3Ru)4
_chemical_formula_sum   'Eu1 Sb12 Ru4'
_cell_volume   407.54449593
_cell_formula_units_Z   1
loop_
 _symmetry_equiv_pos_site_id
 _symmetry_equiv_pos_as_xyz
  1  'x, y, z'
loop_
 _atom_site_type_symbol
 _atom_site_label
 _atom_site_symmetry_multiplicity
 _atom_site_fract_x
 _atom_site_fract_y
 _atom_site_fract_z
 _atom_site_occupancy
  Eu  Eu0  1  -0.00000000  -0.00000000  0.00000000  1
  Sb  Sb0  1  0.49965763  0.65809077  0.84156635  1
  Sb  Sb1  1  0.50034237  0.34190923  0.15843365  1
  Sb  Sb2  1  0.34190641  0.84156477  0.18347499  1
  Sb  Sb3  1  0.15843103  0.81653010  0.65809023  1
  Sb  Sb4  1  0.65810107  0.84156234  0.49965988  1
  Sb  Sb5  1  0.84156897  0.18346990  0.34190977  1
  Sb  Sb6  1  0.65809359  0.15843523  0.81652501  1
  Sb  Sb7  1  0.84156198  0.49965914  0.65809701  1
  Sb  Sb8  1  0.15843802  0.50034086  0.34190299  1
  Sb  Sb9  1  0.34189893  0.15843766  0.50034012  1
  Sb  Sb10  1  0.18346414  0.34190320  0.84156165  1
  Sb  Sb11  1  0.81653586  0.65809680  0.15843835  1
  Ru  Ru0  1  0.50000000  0.50000000  0.50000000  1
  Ru  Ru1  1  0.50000000  -0.00000000  0.00000000  1
  Ru  Ru2  1  -0.00000000  0.50000000  0.00000000  1
  Ru  Ru3  1  -0.00000000  -0.00000000  0.50000000  1
loop_
_geom_bond_atom_site_label_1
_geom_bond_atom_site_label_2
_geom_bond_distance
_geom_bond_site_symmetry_2
Eu0 Sb4 3.520015 1_444
Eu0 Sb9 3.520015 1_555
Eu0 Sb7 3.520023 1_444
Eu0 Sb8 3.520023 1_555
Eu0 Sb10 3.520031 1_554
Eu0 Sb11 3.520031 1_445
Eu0 Sb5 3.520035 1_455
Eu0 Sb3 3.520035 1_544
Eu0 Sb0 3.520058 1_444
Eu0 Sb1 3.520058 1_555
Eu0 Sb2 3.520068 1_545
Eu0 Sb6 3.520068 1_454
Sb0 Sb10 2.953567 1_555
Sb0 Sb11 2.959966 1_556
Sb1 Sb11 2.953567 1_555
Sb1 Sb10 2.959966 1_554
Sb2 Sb4 2.953603 1_555
Sb2 Sb9 2.959961 1_565
Sb3 Sb8 2.953600 1_555
Sb3 Sb7 2.959968 1_455
Sb4 Sb6 2.959961 1_565
Sb5 Sb7 2.953600 1_555
Sb5 Sb8 2.959968 1_655
Sb6 Sb9 2.953603 1_555
Ru0 Sb9 2.630997 1_555
Ru0 Sb4 2.630997 1_555
Ru0 Sb8 2.630999 1_555
Ru0 Sb7 2.630999 1_555
Ru0 Sb0 2.631018 1_555
Ru0 Sb1 2.631018 1_555
Ru1 Sb1 2.631029 1_555
Ru1 Sb0 2.631029 1_544
Ru1 Sb2 2.631038 1_545
Ru1 Sb6 2.631038 1_554
Ru1 Sb3 2.631045 1_544
Ru1 Sb5 2.631045 1_555
Ru2 Sb11 2.630989 1_455
Ru2 Sb10 2.630989 1_554
Ru2 Sb8 2.630996 1_555
Ru2 Sb7 2.630996 1_454
Ru2 Sb6 2.631004 1_454
Ru2 Sb2 2.631004 1_555
Ru3 Sb4 2.630966 1_445
Ru3 Sb9 2.630966 1_555
Ru3 Sb5 2.630980 1_455
Ru3 Sb3 2.630980 1_545
Ru3 Sb10 2.630987 1_555
Ru3 Sb11 2.630987 1_445
