# generated using pymatgen
data_ZnO
_symmetry_space_group_name_H-M   'P 1'
_cell_length_a   3.23735118
_cell_length_b   3.23735087
_cell_length_c   5.22206130
_cell_angle_alpha   90.00000000
_cell_angle_beta   90.00000000
_cell_angle_gamma   119.99999298
_symmetry_Int_Tables_number   1
_chemical_formula_structural   ZnO
_chemical_formula_sum   'Zn2 O2'
_cell_volume   47.39714826
_cell_formula_units_Z   2
loop_
 _symmetry_equiv_pos_site_id
 _symmetry_equiv_pos_as_xyz
  1  'x, y, z'
loop_
 _atom_site_type_symbol
 _atom_site_label
 _atom_site_symmetry_multiplicity
 _atom_site_fract_x
 _atom_site_fract_y
 _atom_site_fract_z
 _atom_site_occupancy
  Zn  Zn0  1  0.66666700  0.33333300  0.50059170  1
  Zn  Zn1  1  0.33333300  0.66666700  0.00059170  1
  O  O0  1  0.66666700  0.33333300  0.87971830  1
  O  O1  1  0.33333300  0.66666700  0.37971830  1
loop_
_geom_bond_atom_site_label_1
_geom_bond_atom_site_label_2
_geom_bond_distance
_geom_bond_site_symmetry_2
O0 Zn1 1.972789 1_546
O0 Zn1 1.972789 1_656
O0 Zn1 1.972795 1_556
O0 Zn0 1.979822 1_555
O1 Zn0 1.972789 1_565
O1 Zn0 1.972789 1_455
O1 Zn0 1.972795 1_555
O1 Zn1 1.979822 1_555
