# generated using pymatgen
data_Ni8Ge2B3
_symmetry_space_group_name_H-M   'P 1'
_cell_length_a   2.93153890
_cell_length_b   6.01224193
_cell_length_c   14.51804140
_cell_angle_alpha   90.00000000
_cell_angle_beta   90.00000000
_cell_angle_gamma   90.00000000
_symmetry_Int_Tables_number   1
_chemical_formula_structural   Ni8Ge2B3
_chemical_formula_sum   'Ni16 Ge4 B6'
_cell_volume   255.88223772
_cell_formula_units_Z   2
loop_
 _symmetry_equiv_pos_site_id
 _symmetry_equiv_pos_as_xyz
  1  'x, y, z'
loop_
 _atom_site_type_symbol
 _atom_site_label
 _atom_site_symmetry_multiplicity
 _atom_site_fract_x
 _atom_site_fract_y
 _atom_site_fract_z
 _atom_site_occupancy
  Ni  Ni0  1  -0.00000000  0.92406415  -0.00000000  1
  Ni  Ni1  1  0.50000000  0.63376505  0.64521988  1
  Ni  Ni2  1  0.00000000  0.36623495  0.85478012  1
  Ni  Ni3  1  0.50000000  0.63376505  0.35478012  1
  Ni  Ni4  1  0.00000000  0.70202881  0.50000000  1
  Ni  Ni5  1  0.50000000  0.07593585  0.50000000  1
  Ni  Ni6  1  0.50000000  0.29797119  -0.00000000  1
  Ni  Ni7  1  0.00000000  0.80026306  0.22652155  1
  Ni  Ni8  1  -0.00000000  0.80026306  0.77347845  1
  Ni  Ni9  1  0.50000000  0.19973694  0.72652155  1
  Ni  Ni10  1  0.50000000  0.65909616  0.08671425  1
  Ni  Ni11  1  0.50000000  0.19973694  0.27347845  1
  Ni  Ni12  1  -0.00000000  0.34090384  0.58671425  1
  Ni  Ni13  1  0.50000000  0.65909616  0.91328575  1
  Ni  Ni14  1  0.00000000  0.34090384  0.41328575  1
  Ni  Ni15  1  0.00000000  0.36623495  0.14521988  1
  Ge  Ge0  1  0.00000000  0.96248190  0.62429473  1
  Ge  Ge1  1  0.50000000  0.03751810  0.12429473  1
  Ge  Ge2  1  -0.00000000  0.96248190  0.37570527  1
  Ge  Ge3  1  0.50000000  0.03751810  0.87570527  1
  B  B0  1  -0.00000000  0.54305086  -0.00000000  1
  B  B1  1  0.50000000  0.45694914  0.50000000  1
  B  B2  1  0.00000000  0.45967743  0.28264276  1
  B  B3  1  0.50000000  0.54032257  0.21735724  1
  B  B4  1  0.00000000  0.45967743  0.71735724  1
  B  B5  1  0.50000000  0.54032257  0.78264276  1
loop_
_geom_bond_atom_site_label_1
_geom_bond_atom_site_label_2
_geom_bond_distance
_geom_bond_site_symmetry_2
Ge0 Ni12 2.339668 1_565
Ge0 Ni8 2.375318 1_555
Ge0 Ni4 2.389214 1_555
Ge0 Ni5 2.422816 1_465
Ge0 Ni5 2.422816 1_565
Ge0 Ni1 2.479240 1_555
Ge0 Ni1 2.479240 1_455
Ge0 Ni9 2.527023 1_465
Ge0 Ni9 2.527023 1_565
Ge1 Ni10 2.339668 1_545
Ge1 Ni11 2.375318 1_555
Ge1 Ni6 2.389214 1_555
Ge1 Ni0 2.422816 1_545
Ge1 Ni0 2.422816 1_645
Ge1 Ni15 2.479240 1_655
Ge1 Ni15 2.479240 1_555
Ge1 Ni7 2.527023 1_545
Ge1 Ni7 2.527023 1_645
Ge2 Ni14 2.339668 1_565
Ge2 Ni7 2.375318 1_555
Ge2 Ni4 2.389214 1_555
Ge2 Ni5 2.422816 1_565
Ge2 Ni5 2.422816 1_465
Ge2 Ni3 2.479240 1_455
Ge2 Ni3 2.479240 1_555
Ge2 Ni11 2.527023 1_565
Ge2 Ni11 2.527023 1_465
Ge3 Ni13 2.339668 1_545
Ge3 Ni9 2.375318 1_555
Ge3 Ni6 2.389214 1_556
Ge3 Ni0 2.422816 1_646
Ge3 Ni0 2.422816 1_546
Ge3 Ni2 2.479240 1_655
Ge3 Ni2 2.479240 1_555
Ge3 Ni8 2.527023 1_645
Ge3 Ni8 2.527023 1_545
B0 Ni13 2.054297 1_454
B0 Ni10 2.054297 1_455
B0 Ni13 2.054297 1_554
B0 Ni10 2.054297 1_555
B0 Ni6 2.078369 1_555
B0 Ni6 2.078369 1_455
B0 Ni0 2.290744 1_555
B0 Ni2 2.361157 1_554
B0 Ni15 2.361157 1_555
B1 Ni12 2.054297 1_655
B1 Ni14 2.054297 1_555
B1 Ni12 2.054297 1_555
B1 Ni14 2.054297 1_655
B1 Ni4 2.078369 1_655
B1 Ni4 2.078369 1_555
B1 Ni5 2.290744 1_555
B1 Ni1 2.361157 1_555
B1 Ni3 2.361157 1_555
B2 B3 1.811609 1_455
B2 B3 1.811609 1_555
B2 Ni14 2.026655 1_555
B2 Ni15 2.072700 1_555
B2 Ni3 2.083457 1_555
B2 Ni3 2.083457 1_455
B2 Ni11 2.146766 1_455
B2 Ni11 2.146766 1_555
B2 Ni7 2.203828 1_555
B3 Ni10 2.026655 1_555
B3 Ni3 2.072700 1_555
B3 Ni15 2.083457 1_655
B3 Ni15 2.083457 1_555
B3 Ni7 2.146766 1_655
B3 Ni7 2.146766 1_555
B3 Ni11 2.203828 1_555
B4 B5 1.811609 1_555
B4 B5 1.811609 1_455
B4 Ni12 2.026655 1_555
B4 Ni2 2.072700 1_555
B4 Ni1 2.083457 1_555
B4 Ni1 2.083457 1_455
B4 Ni9 2.146766 1_455
B4 Ni9 2.146766 1_555
B4 Ni8 2.203828 1_555
B5 Ni13 2.026655 1_555
B5 Ni1 2.072700 1_555
B5 Ni2 2.083457 1_555
B5 Ni2 2.083457 1_655
B5 Ni8 2.146766 1_555
B5 Ni8 2.146766 1_655
B5 Ni9 2.203828 1_555
