# generated using pymatgen
data_Zr2(V2Sb3)3
_symmetry_space_group_name_H-M   'P 1'
_cell_length_a   9.76661400
_cell_length_b   9.76661400
_cell_length_c   7.24146100
_cell_angle_alpha   90.00000000
_cell_angle_beta   90.00000000
_cell_angle_gamma   90.00000000
_symmetry_Int_Tables_number   1
_chemical_formula_structural   Zr2(V2Sb3)3
_chemical_formula_sum   'Zr4 V12 Sb18'
_cell_volume   690.73942298
_cell_formula_units_Z   2
loop_
 _symmetry_equiv_pos_site_id
 _symmetry_equiv_pos_as_xyz
  1  'x, y, z'
loop_
 _atom_site_type_symbol
 _atom_site_label
 _atom_site_symmetry_multiplicity
 _atom_site_fract_x
 _atom_site_fract_y
 _atom_site_fract_z
 _atom_site_occupancy
  Zr  Zr0  1  0.50000000  0.00000000  0.08525800  1
  Zr  Zr1  1  0.00000000  0.50000000  0.91474200  1
  Zr  Zr2  1  0.50000000  0.00000000  0.58695900  1
  Zr  Zr3  1  0.00000000  0.50000000  0.41304100  1
  V  V0  1  0.13893100  0.00000000  0.15926600  1
  V  V1  1  0.36106900  0.50000000  0.84073400  1
  V  V2  1  0.00000000  0.13893100  0.84073400  1
  V  V3  1  0.50000000  0.63893100  0.15926600  1
  V  V4  1  0.00000000  0.86106900  0.84073400  1
  V  V5  1  0.86106900  0.00000000  0.15926600  1
  V  V6  1  0.25000000  0.75000000  0.00000000  1
  V  V7  1  0.25000000  0.25000000  0.00000000  1
  V  V8  1  0.75000000  0.75000000  0.00000000  1
  V  V9  1  0.63893100  0.50000000  0.84073400  1
  V  V10  1  0.50000000  0.36106900  0.15926600  1
  V  V11  1  0.75000000  0.25000000  0.00000000  1
  Sb  Sb0  1  0.82730800  0.67269200  0.65309500  1
  Sb  Sb1  1  0.25194300  0.00000000  0.81729900  1
  Sb  Sb2  1  0.24805700  0.50000000  0.18270100  1
  Sb  Sb3  1  0.67269200  0.17269200  0.34690500  1
  Sb  Sb4  1  0.17269200  0.32730800  0.65309500  1
  Sb  Sb5  1  0.82730800  0.32730800  0.65309500  1
  Sb  Sb6  1  0.75194300  0.50000000  0.18270100  1
  Sb  Sb7  1  0.32730800  0.82730800  0.34690500  1
  Sb  Sb8  1  0.00000000  0.25194300  0.18270100  1
  Sb  Sb9  1  0.67269200  0.82730800  0.34690500  1
  Sb  Sb10  1  0.00000000  0.00000000  0.50000000  1
  Sb  Sb11  1  0.50000000  0.75194300  0.81729900  1
  Sb  Sb12  1  0.00000000  0.74805700  0.18270100  1
  Sb  Sb13  1  0.17269200  0.67269200  0.65309500  1
  Sb  Sb14  1  0.74805700  0.00000000  0.81729900  1
  Sb  Sb15  1  0.32730800  0.17269200  0.34690500  1
  Sb  Sb16  1  0.50000000  0.24805700  0.81729900  1
  Sb  Sb17  1  0.50000000  0.50000000  0.50000000  1
loop_
_geom_bond_atom_site_label_1
_geom_bond_atom_site_label_2
_geom_bond_distance
_geom_bond_site_symmetry_2
Sb0 V8 2.729616 1_556
Sb0 V4 2.841803 1_655
Sb0 V9 2.841803 1_555
Sb0 Zr3 2.951471 1_655
Sb0 Zr1 3.046188 1_655
Sb1 V0 2.711183 1_556
Sb1 V7 2.777124 1_556
Sb1 V6 2.777124 1_546
Sb1 V2 2.815073 1_555
Sb1 V4 2.815073 1_545
Sb1 Zr2 2.941357 1_555
Sb1 Zr0 3.103961 1_556
Sb2 V1 2.711183 1_554
Sb2 V7 2.777124 1_555
Sb2 V6 2.777124 1_555
Sb2 V10 2.815073 1_555
Sb2 V3 2.815073 1_555
Sb2 Zr3 2.941357 1_555
Sb2 Zr1 3.103961 1_554
Sb3 V11 2.729616 1_555
Sb3 V10 2.841803 1_555
Sb3 V5 2.841803 1_555
Sb3 Zr2 2.951471 1_555
Sb3 Zr0 3.046188 1_555
Sb4 V7 2.729616 1_556
Sb4 V1 2.841803 1_555
Sb4 V2 2.841803 1_555
Sb4 Zr3 2.951471 1_555
Sb4 Zr1 3.046188 1_555
Sb5 V11 2.729616 1_556
Sb5 V2 2.841803 1_655
Sb5 V9 2.841803 1_555
Sb5 Zr3 2.951471 1_655
Sb5 Zr1 3.046188 1_655
Sb6 V9 2.711183 1_554
Sb6 V11 2.777124 1_555
Sb6 V8 2.777124 1_555
Sb6 V10 2.815073 1_555
Sb6 V3 2.815073 1_555
Sb6 Zr3 2.941357 1_655
Sb6 Zr1 3.103961 1_654
Sb7 V6 2.729616 1_555
Sb7 V0 2.841803 1_565
Sb7 V3 2.841803 1_555
Sb7 Zr2 2.951471 1_565
Sb7 Zr0 3.046188 1_565
Sb8 V2 2.711183 1_554
Sb8 V7 2.777124 1_555
Sb8 V11 2.777124 1_455
Sb8 V5 2.815073 1_455
Sb8 V0 2.815073 1_555
Sb8 Zr3 2.941357 1_555
Sb8 Zr1 3.103961 1_554
Sb9 V8 2.729616 1_555
Sb9 V3 2.841803 1_555
Sb9 V5 2.841803 1_565
Sb9 Zr2 2.951471 1_565
Sb9 Zr0 3.046188 1_565
Sb10 V4 2.815894 1_545
Sb10 V2 2.815894 1_555
Sb10 V5 2.815894 1_455
Sb10 V0 2.815894 1_555
Sb11 V3 2.711183 1_556
Sb11 V6 2.777124 1_556
Sb11 V8 2.777124 1_556
Sb11 V9 2.815073 1_555
Sb11 V1 2.815073 1_555
Sb11 Zr2 2.941357 1_565
Sb11 Zr0 3.103961 1_566
Sb12 V4 2.711183 1_554
Sb12 V6 2.777124 1_555
Sb12 V8 2.777124 1_455
Sb12 V0 2.815073 1_565
Sb12 V5 2.815073 1_465
Sb12 Zr3 2.941357 1_555
Sb12 Zr1 3.103961 1_554
Sb13 V6 2.729616 1_556
Sb13 V1 2.841803 1_555
Sb13 V4 2.841803 1_555
Sb13 Zr3 2.951471 1_555
Sb13 Zr1 3.046188 1_555
Sb14 V5 2.711183 1_556
Sb14 V11 2.777124 1_556
Sb14 V8 2.777124 1_546
Sb14 V4 2.815073 1_645
Sb14 V2 2.815073 1_655
Sb14 Zr2 2.941357 1_555
Sb14 Zr0 3.103961 1_556
Sb15 V7 2.729616 1_555
Sb15 V10 2.841803 1_555
Sb15 V0 2.841803 1_555
Sb15 Zr2 2.951471 1_555
Sb15 Zr0 3.046188 1_555
Sb16 V10 2.711183 1_556
Sb16 V7 2.777124 1_556
Sb16 V11 2.777124 1_556
Sb16 V9 2.815073 1_555
Sb16 V1 2.815073 1_555
Sb16 Zr2 2.941357 1_555
Sb16 Zr0 3.103961 1_556
Sb17 V9 2.815894 1_555
Sb17 V1 2.815894 1_555
Sb17 V10 2.815894 1_555
Sb17 V3 2.815894 1_555
