# generated using pymatgen
data_MgV(WO4)2
_symmetry_space_group_name_H-M   'P 1'
_cell_length_a   4.98183419
_cell_length_b   6.75695556
_cell_length_c   6.35349630
_cell_angle_alpha   105.81069014
_cell_angle_beta   123.42987800
_cell_angle_gamma   92.58950378
_symmetry_Int_Tables_number   1
_chemical_formula_structural   MgV(WO4)2
_chemical_formula_sum   'Mg1 V1 W2 O8'
_cell_volume   166.58012890
_cell_formula_units_Z   1
loop_
 _symmetry_equiv_pos_site_id
 _symmetry_equiv_pos_as_xyz
  1  'x, y, z'
loop_
 _atom_site_type_symbol
 _atom_site_label
 _atom_site_symmetry_multiplicity
 _atom_site_fract_x
 _atom_site_fract_y
 _atom_site_fract_z
 _atom_site_occupancy
  Mg  Mg0  1  0.59622900  0.86496200  0.09245500  1
  V  V0  1  0.12080500  0.21999000  0.09324200  1
  W  W0  1  0.89004400  0.38901900  0.60416900  1
  W  W1  1  0.35435700  0.06702400  0.58704300  1
  O  O0  1  0.19679900  0.63569400  0.82815900  1
  O  O1  1  0.53934700  0.46817300  0.35507800  1
  O  O2  1  0.18640900  0.18918800  0.80624200  1
  O  O3  1  0.50122100  0.07531200  0.33312300  1
  O  O4  1  0.71145200  0.98707700  0.88404100  1
  O  O5  1  0.03774100  0.82411300  0.34719300  1
  O  O6  1  0.07251500  0.26791200  0.40344000  1
  O  O7  1  0.75224200  0.35605500  0.82493000  1
loop_
_geom_bond_atom_site_label_1
_geom_bond_atom_site_label_2
_geom_bond_distance
_geom_bond_site_symmetry_2
Mg0 O0 1.949745 1_554
Mg0 O5 1.977245 1_655
Mg0 O4 2.038088 1_554
Mg0 O3 2.063062 1_565
O0 W0 1.794380 1_455
O1 W0 1.828172 1_555
O1 V0 2.066215 1_555
O2 V0 1.982701 1_556
O2 W1 2.010187 1_555
O2 W0 2.165079 1_455
O3 W1 2.118303 1_555
O3 V0 2.160308 1_555
O3 W0 2.274928 1_555
O4 W1 1.990185 1_565
O4 V0 1.996454 1_666
O5 W1 1.805229 1_565
O6 W0 1.974430 1_455
O6 V0 2.056366 1_555
O6 W1 2.098837 1_555
O7 W0 1.924987 1_555
O7 V0 2.163434 1_656
O7 W1 2.183645 1_555
