# generated using pymatgen
data_Ba2MgCu3(BrO2)2
_symmetry_space_group_name_H-M   'P 1'
_cell_length_a   5.70159738
_cell_length_b   5.68660273
_cell_length_c   10.13029899
_cell_angle_alpha   106.30036946
_cell_angle_beta   106.34455593
_cell_angle_gamma   90.00000031
_symmetry_Int_Tables_number   1
_chemical_formula_structural   Ba2MgCu3(BrO2)2
_chemical_formula_sum   'Ba2 Mg1 Cu3 Br2 O4'
_cell_volume   301.39450967
_cell_formula_units_Z   1
loop_
 _symmetry_equiv_pos_site_id
 _symmetry_equiv_pos_as_xyz
  1  'x, y, z'
loop_
 _atom_site_type_symbol
 _atom_site_label
 _atom_site_symmetry_multiplicity
 _atom_site_fract_x
 _atom_site_fract_y
 _atom_site_fract_z
 _atom_site_occupancy
  Ba  Ba0  1  0.65754600  0.65754600  0.31509300  1
  Ba  Ba1  1  0.34245400  0.34245400  0.68490700  1
  Mg  Mg0  1  0.50000000  0.50000000  0.00000000  1
  Cu  Cu0  1  0.00000000  0.50000000  0.00000000  1
  Cu  Cu1  1  0.50000000  0.00000000  0.00000000  1
  Cu  Cu2  1  0.00000000  0.00000000  0.00000000  1
  Br  Br0  1  0.75032100  0.25032100  0.50064400  1
  Br  Br1  1  0.24967900  0.74967900  0.49935600  1
  O  O0  1  0.74369400  0.25587600  0.00000000  1
  O  O1  1  0.74369400  0.74412400  0.00000000  1
  O  O2  1  0.25630600  0.25587600  0.00000000  1
  O  O3  1  0.25630600  0.74412400  0.00000000  1
loop_
_geom_bond_atom_site_label_1
_geom_bond_atom_site_label_2
_geom_bond_distance
_geom_bond_site_symmetry_2
Ba0 Mg0 2.929036 1_555
Ba0 Br0 3.325572 1_565
Ba0 Br0 3.325576 1_555
Ba0 Br1 3.325797 1_555
Ba0 Br1 3.325811 1_655
Ba1 Mg0 2.929036 1_556
Ba1 Br1 3.325572 1_545
Ba1 Br1 3.325576 1_555
Ba1 Br0 3.325797 1_555
Ba1 Br0 3.325811 1_455
Mg0 O1 1.964117 1_555
Mg0 O2 1.964117 1_555
Mg0 O0 1.964117 1_555
Mg0 O3 1.964117 1_555
Cu0 O0 2.015627 1_455
Cu0 O3 2.015627 1_555
Cu0 O2 2.015627 1_555
Cu0 O1 2.015627 1_455
Cu1 O0 2.011908 1_555
Cu1 O3 2.011908 1_545
Cu1 O2 2.011908 1_555
Cu1 O1 2.011908 1_545
Cu2 O1 2.062224 1_445
Cu2 O2 2.062224 1_555
Cu2 O0 2.062224 1_455
Cu2 O3 2.062224 1_545
