# generated using pymatgen
data_Na2Ti4Si5Sn4S7O48
_symmetry_space_group_name_H-M   'P 1'
_cell_length_a   17.52675951
_cell_length_b   8.77829316
_cell_length_c   22.72139922
_cell_angle_alpha   90.05060438
_cell_angle_beta   90.14830369
_cell_angle_gamma   120.13395219
_symmetry_Int_Tables_number   1
_chemical_formula_structural   Na2Ti4Si5Sn4S7O48
_chemical_formula_sum   'Na6 Ti12 Si15 Sn12 S21 O144'
_cell_volume   3023.33856205
_cell_formula_units_Z   3
loop_
 _symmetry_equiv_pos_site_id
 _symmetry_equiv_pos_as_xyz
  1  'x, y, z'
loop_
 _atom_site_type_symbol
 _atom_site_label
 _atom_site_symmetry_multiplicity
 _atom_site_fract_x
 _atom_site_fract_y
 _atom_site_fract_z
 _atom_site_occupancy
  Na  Na0  1  0.99470981  0.99830587  0.50073680  1
  Na  Na1  1  0.49392200  0.99554672  0.99271512  1
  Na  Na2  1  0.34019711  0.34796402  0.83591538  1
  Na  Na3  1  0.83322396  0.34152490  0.83036496  1
  Na  Na4  1  0.33588878  0.32985866  0.33117090  1
  Na  Na5  1  0.83351891  0.32931826  0.33985367  1
  Ti  Ti0  1  0.00395504  0.99167381  0.35805235  1
  Ti  Ti1  1  0.50229111  0.99975675  0.85253216  1
  Ti  Ti2  1  0.99734597  0.99345296  0.64679031  1
  Ti  Ti3  1  0.49690201  0.00324102  0.14431036  1
  Ti  Ti4  1  0.83878989  0.34805045  0.69122431  1
  Ti  Ti5  1  0.34037184  0.33145795  0.19018954  1
  Ti  Ti6  1  0.34535542  0.36788147  0.97447656  1
  Ti  Ti7  1  0.84009977  0.31929688  0.97768201  1
  Ti  Ti8  1  0.34159985  0.36088036  0.48100865  1
  Ti  Ti9  1  0.84281295  0.31868322  0.47747546  1
  Ti  Ti10  1  0.16018020  0.68051894  0.31034822  1
  Ti  Ti11  1  0.65318540  0.63849938  0.80692935  1
  Si  Si0  1  0.14382292  0.01017894  0.24900204  1
  Si  Si1  1  0.50414730  0.29031812  0.25011750  1
  Si  Si2  1  0.64316615  0.27954642  0.74817025  1
  Si  Si3  1  0.00416703  0.71714752  0.75026541  1
  Si  Si4  1  0.49902738  0.71015622  0.75238195  1
  Si  Si5  1  0.97431387  0.32418811  0.58705094  1
  Si  Si6  1  0.33579888  0.63523641  0.58406068  1
  Si  Si7  1  0.47516019  0.62306787  0.08595009  1
  Si  Si8  1  0.83466181  0.03801147  0.08341079  1
  Si  Si9  1  0.31384348  0.67492272  0.91421115  1
  Si  Si10  1  0.02150208  0.37088222  0.91609000  1
  Si  Si11  1  0.52408077  0.37285103  0.91675497  1
  Si  Si12  1  0.81268218  0.95274211  0.41339180  1
  Si  Si13  1  0.02290730  0.66405260  0.41780559  1
  Si  Si14  1  0.52019066  0.67022110  0.41653273  1
  Sn  Sn0  1  0.49730247  -0.00122217  0.35449040  1
  Sn  Sn1  1  0.99584910  0.99325430  0.85510617  1
  Sn  Sn2  1  0.50446430  0.99396331  0.64647718  1
  Sn  Sn3  1  0.00305523  0.00412656  0.14396519  1
  Sn  Sn4  1  0.33927886  0.35067887  0.68630981  1
  Sn  Sn5  1  0.83462145  0.33035071  0.18277590  1
  Sn  Sn6  1  0.17051922  0.65747699  0.01723164  1
  Sn  Sn7  1  0.66037539  0.66242919  0.02287611  1
  Sn  Sn8  1  0.16061178  0.65983607  0.52520938  1
  Sn  Sn9  1  0.67089410  0.68372219  0.51820761  1
  Sn  Sn10  1  0.65962731  0.66193302  0.31325683  1
  Sn  Sn11  1  0.16144868  0.65877327  0.81259394  1
  S  S0  1  0.64607418  0.00539570  0.24769514  1
  S  S1  1  0.35327988  0.70769733  0.24909749  1
  S  S2  1  0.85485332  0.70647888  0.25006569  1
  S  S3  1  0.00088312  0.29377955  0.25227023  1
  S  S4  1  0.14381390  0.28411855  0.74833151  1
  S  S5  1  0.35335547  0.00025653  0.74977151  1
  S  S6  1  0.85429859  0.99991900  0.74935485  1
  S  S7  1  0.48098530  0.33498230  0.58105728  1
  S  S8  1  0.19000422  0.05050881  0.58379162  1
  S  S9  1  0.69336367  0.05283956  0.58289637  1
  S  S10  1  0.83143961  0.61765647  0.58298819  1
  S  S11  1  0.98051819  0.62409461  0.08081719  1
  S  S12  1  0.33068078  0.04412835  0.08324714  1
  S  S13  1  0.19321708  0.33567796  0.08351023  1
  S  S14  1  0.68804935  0.33053289  0.08284198  1
  S  S15  1  0.80899773  0.66113182  0.91771650  1
  S  S16  1  0.16847113  0.96250163  0.91868100  1
  S  S17  1  0.66817685  0.95946654  0.91551607  1
  S  S18  1  0.30816558  0.95459578  0.41681956  1
  S  S19  1  0.16797441  0.37696057  0.41472677  1
  S  S20  1  0.66852384  0.37524325  0.41828595  1
  O  O0  1  0.09288026  0.03221458  0.30573081  1
  O  O1  1  0.60891667  0.03325735  0.30279702  1
  O  O2  1  0.40946223  0.77823067  0.30318243  1
  O  O3  1  0.91069165  0.78697849  0.30203480  1
  O  O4  1  0.47967912  0.16701456  0.30871934  1
  O  O5  1  0.98391680  0.18005368  0.30309905  1
  O  O6  1  0.10563443  0.18257409  0.80298488  1
  O  O7  1  0.59585306  0.15729045  0.80563793  1
  O  O8  1  0.48213418  0.80461680  0.80819362  1
  O  O9  1  0.97971415  0.79199533  0.80851183  1
  O  O10  1  0.40911010  0.03436485  0.80192068  1
  O  O11  1  0.91172824  0.04495896  0.80288859  1
  O  O12  1  0.39047106  0.97437023  0.69509968  1
  O  O13  1  0.89976342  0.97715769  0.69736736  1
  O  O14  1  0.08898683  0.19765228  0.69573004  1
  O  O15  1  0.58248543  0.21388888  0.68877616  1
  O  O16  1  0.01054040  0.84040010  0.69307735  1
  O  O17  1  0.51679462  0.81483162  0.69124083  1
  O  O18  1  0.39682832  0.82129051  0.19788308  1
  O  O19  1  0.89206940  0.80772449  0.19539073  1
  O  O20  1  0.01276842  0.22047698  0.19679606  1
  O  O21  1  0.51047496  0.18033815  0.19337429  1
  O  O22  1  0.08097718  0.95390631  0.19092218  1
  O  O23  1  0.59301001  0.98555968  0.19575018  1
  O  O24  1  0.44365922  0.36645195  0.63564951  1
  O  O25  1  0.92129188  0.34772206  0.64119483  1
  O  O26  1  0.24301819  0.12592308  0.63855716  1
  O  O27  1  0.74447540  0.13493113  0.63589464  1
  O  O28  1  0.31098253  0.50228346  0.63953611  1
  O  O29  1  0.81958977  0.51494654  0.63673496  1
  O  O30  1  0.42206794  0.49429379  0.14149392  1
  O  O31  1  0.94448638  0.52101398  0.13730125  1
  O  O32  1  0.31959033  0.12445779  0.13746357  1
  O  O33  1  0.81342040  0.11807020  0.14252418  1
  O  O34  1  0.24395979  0.35515313  0.13716836  1
  O  O35  1  0.74064216  0.36458493  0.13923589  1
  O  O36  1  0.23217441  0.31142521  0.03019063  1
  O  O37  1  0.73097542  0.30371797  0.03238429  1
  O  O38  1  0.41443491  0.53634975  0.02665864  1
  O  O39  1  0.92217127  0.53301307  0.03082321  1
  O  O40  1  0.34597968  0.15006174  0.03071629  1
  O  O41  1  0.84820086  0.17244201  0.02758120  1
  O  O42  1  0.23193940  0.15942387  0.53155605  1
  O  O43  1  0.73525286  0.15517573  0.52881142  1
  O  O44  1  0.34970268  0.52782988  0.52691101  1
  O  O45  1  0.84589729  0.54028788  0.52997890  1
  O  O46  1  0.42295427  0.31053142  0.52950388  1
  O  O47  1  0.91460982  0.29338771  0.52622687  1
  O  O48  1  0.27973255  0.71998705  0.97548318  1
  O  O49  1  0.77188984  0.69415281  0.97153031  1
  O  O50  1  0.07528568  0.45146150  0.97697444  1
  O  O51  1  0.58378211  0.45163121  0.97584155  1
  O  O52  1  0.15042446  0.84882671  0.97148591  1
  O  O53  1  0.65412663  0.85729370  0.97046922  1
  O  O54  1  0.27018850  0.84665130  0.46991682  1
  O  O55  1  0.78026653  0.83793951  0.47376303  1
  O  O56  1  0.15236622  0.45153349  0.46864383  1
  O  O57  1  0.65163636  0.45426121  0.47072844  1
  O  O58  1  0.08606999  0.71470691  0.47439649  1
  O  O59  1  0.57740715  0.70050250  0.47578684  1
  O  O60  1  0.07050989  0.63388382  0.35962192  1
  O  O61  1  0.55335324  0.61751067  0.35737953  1
  O  O62  1  0.25445168  0.86673441  0.36310927  1
  O  O63  1  0.75156964  0.87201166  0.35497407  1
  O  O64  1  0.18299588  0.48569970  0.36236613  1
  O  O65  1  0.68670096  0.48477538  0.36454806  1
  O  O66  1  0.05513794  0.49261710  0.85794595  1
  O  O67  1  0.56856725  0.50409089  0.86027478  1
  O  O68  1  0.18623103  0.88823081  0.86521797  1
  O  O69  1  0.68591894  0.88380578  0.86418504  1
  O  O70  1  0.25045644  0.62927944  0.85667140  1
  O  O71  1  0.75710712  0.63972521  0.86478519  1
  O  O72  1  0.01217939  0.83836870  0.40733722  1
  O  O73  1  0.50739548  0.83904901  0.40836047  1
  O  O74  1  0.39698587  0.97562231  0.41070636  1
  O  O75  1  0.91264379  0.98846296  0.40264159  1
  O  O76  1  0.08738978  0.19937355  0.40865754  1
  O  O77  1  0.58799719  0.20073901  0.41096007  1
  O  O78  1  0.00762519  0.17611607  0.90851636  1
  O  O79  1  0.51141957  0.17938164  0.90730388  1
  O  O80  1  0.08827028  0.97657695  0.91115175  1
  O  O81  1  0.58968721  0.97975437  0.91044500  1
  O  O82  1  0.41254124  0.83974054  0.90795398  1
  O  O83  1  0.89952275  0.81818217  0.91306505  1
  O  O84  1  0.48565102  0.17334175  0.58542669  1
  O  O85  1  0.98365702  0.14854103  0.59546748  1
  O  O86  1  0.10106083  0.03454286  0.58977848  1
  O  O87  1  0.60479060  0.03473877  0.58442295  1
  O  O88  1  0.42361353  0.82441629  0.58846456  1
  O  O89  1  0.91099860  0.79960821  0.58953964  1
  O  O90  1  0.48408246  0.81760114  0.09743685  1
  O  O91  1  0.98516840  0.79577077  0.08585736  1
  O  O92  1  0.41028937  0.02103672  0.09052543  1
  O  O93  1  0.92504752  0.03203594  0.09074466  1
  O  O94  1  0.10252405  0.17766174  0.08757635  1
  O  O95  1  0.60001826  0.16791783  0.08993466  1
  O  O96  1  0.34192775  0.15967292  0.74398824  1
  O  O97  1  0.84420482  0.15634641  0.74143223  1
  O  O98  1  0.23117504  0.29397514  0.74410724  1
  O  O99  1  0.74053795  0.29851134  0.73897928  1
  O  O100  1  0.41200068  0.50877571  0.75117350  1
  O  O101  1  0.91580984  0.52205222  0.74044918  1
  O  O102  1  0.34231091  0.53029399  0.24154347  1
  O  O103  1  0.84736953  0.52562902  0.24419665  1
  O  O104  1  0.41621744  0.30997713  0.24008756  1
  O  O105  1  0.92092607  0.31882323  0.24742641  1
  O  O106  1  0.24091121  0.17983578  0.24091901  1
  O  O107  1  0.73614175  0.17160185  0.24496778  1
  O  O108  1  0.31844578  0.49149680  0.92325686  1
  O  O109  1  0.81731230  0.50102924  0.92499339  1
  O  O110  1  0.42521632  0.35341609  0.92620284  1
  O  O111  1  0.92235841  0.35336005  0.92536669  1
  O  O112  1  0.24585864  0.13735473  0.92761810  1
  O  O113  1  0.74700177  0.14263192  0.92352661  1
  O  O114  1  0.31475886  0.12830711  0.42217958  1
  O  O115  1  0.81884972  0.14503337  0.42366790  1
  O  O116  1  0.24542654  0.35082104  0.42225608  1
  O  O117  1  0.74591887  0.35417512  0.42658736  1
  O  O118  1  0.42160996  0.48974884  0.42589072  1
  O  O119  1  0.92423502  0.49371507  0.42471053  1
  O  O120  1  0.18373404  0.49728261  0.08110003  1
  O  O121  1  0.67850135  0.48639681  0.07792196  1
  O  O122  1  0.06928920  0.64598100  0.07537362  1
  O  O123  1  0.57040511  0.64331981  0.07943805  1
  O  O124  1  0.25004856  0.86542503  0.07921178  1
  O  O125  1  0.75168058  0.84896108  0.07136357  1
  O  O126  1  0.17994145  0.87459388  0.57844525  1
  O  O127  1  0.68473161  0.87281675  0.58002747  1
  O  O128  1  0.25056848  0.65073348  0.57092521  1
  O  O129  1  0.75064453  0.63450636  0.57814303  1
  O  O130  1  0.06825151  0.49720167  0.57881613  1
  O  O131  1  0.56962711  0.49256963  0.57448981  1
  O  O132  1  0.15592632  0.83706729  0.26388287  1
  O  O133  1  0.65677247  0.84976887  0.25157940  1
  O  O134  1  0.26687244  0.69356526  0.25842564  1
  O  O135  1  0.76643703  0.68169298  0.25694791  1
  O  O136  1  0.08033280  0.46894618  0.25962665  1
  O  O137  1  0.59370480  0.47960152  0.25362377  1
  O  O138  1  0.15421211  0.46076706  0.75133801  1
  O  O139  1  0.65928469  0.47717651  0.76239096  1
  O  O140  1  0.09336156  0.70713468  0.75345964  1
  O  O141  1  0.58710772  0.69379776  0.76235320  1
  O  O142  1  0.26525496  0.84349606  0.75707231  1
  O  O143  1  0.77001699  0.84070465  0.75731459  1
loop_
_geom_bond_atom_site_label_1
_geom_bond_atom_site_label_2
_geom_bond_distance
_geom_bond_site_symmetry_2
Na0 O85 2.581342 1_565
Na0 O89 2.591960 1_555
Na0 O75 2.627246 1_555
Na0 O72 2.645414 1_655
Na0 O86 2.655709 1_665
Na0 O76 2.697508 1_665
Na1 O82 2.374143 1_555
Na1 O79 2.444615 1_565
Na1 O81 2.565168 1_555
Na1 O92 2.735502 1_566
Na1 O95 2.788306 1_566
Na1 O90 2.805288 1_556
Na2 O100 2.348943 1_555
Na2 O108 2.480519 1_555
Na2 O110 2.518650 1_555
Na2 O96 2.672116 1_555
Na2 O98 2.701034 1_555
Na2 O112 2.729240 1_555
Na3 O99 2.541317 1_555
Na3 O101 2.549178 1_555
Na3 O111 2.632489 1_555
Na3 O109 2.655372 1_555
Na3 O97 2.659496 1_555
Na3 O113 2.680795 1_555
Na4 O106 2.546959 1_555
Na4 O104 2.560625 1_555
Na4 O118 2.592242 1_555
Na4 O114 2.626028 1_555
Na4 O102 2.657871 1_555
Na4 O116 2.672101 1_555
Na5 O115 2.429013 1_555
Na5 O119 2.450192 1_555
Na5 O117 2.576794 1_555
Na5 O105 2.631301 1_555
Na5 O107 2.661001 1_555
Na5 O103 2.709586 1_555
O0 Si0 1.635528 1_555
O0 Ti0 1.850004 1_545
O1 S0 1.488299 1_555
O1 Sn0 2.171648 1_555
O2 S1 1.497793 1_555
O2 Sn0 2.114601 1_565
O3 S2 1.466160 1_555
O3 Ti0 2.134673 1_655
O4 Si1 1.633360 1_555
O4 Sn0 1.953730 1_555
O5 S3 1.457605 1_655
O5 Ti0 2.236394 1_645
O6 S4 1.480466 1_555
O6 Sn1 2.161347 1_445
O7 Si2 1.630617 1_555
O7 Ti1 1.863193 1_545
O8 Si4 1.621716 1_555
O8 Ti1 1.860530 1_555
O9 Si3 1.628190 1_655
O9 Sn1 1.953348 1_555
O10 S5 1.465663 1_555
O10 Ti1 2.137986 1_545
O11 S6 1.497413 1_545
O11 Sn1 2.109793 1_545
O12 S5 1.473100 1_565
O12 Sn2 2.215530 1_555
O13 S6 1.494828 1_555
O13 Ti2 2.007748 1_555
O14 S4 1.479224 1_555
O14 Ti2 2.031231 1_445
O15 Si2 1.631022 1_555
O15 Sn2 1.964689 1_545
O16 Si3 1.659336 1_555
O16 Ti2 1.810489 1_455
O17 Si4 1.608852 1_555
O17 Sn2 1.974015 1_555
O18 S1 1.474271 1_555
O18 Ti3 2.076265 1_565
O19 S2 1.477408 1_555
O19 Sn3 2.183957 1_665
O20 S3 1.476718 1_555
O20 Sn3 2.178789 1_555
O21 Si1 1.647018 1_555
O21 Ti3 1.827684 1_555
O22 Si0 1.625971 1_565
O22 Sn3 1.948248 1_565
O23 S0 1.455910 1_565
O23 Ti3 2.116647 1_565
O24 S7 1.492639 1_555
O24 Sn4 2.108999 1_555
O25 Si5 1.618013 1_555
O25 Ti4 1.842761 1_555
O26 S8 1.491631 1_555
O26 Sn4 2.135624 1_555
O27 S9 1.454855 1_555
O27 Ti4 2.166334 1_555
O28 Si6 1.623535 1_555
O28 Sn4 1.951663 1_555
O29 S10 1.470587 1_555
O29 Ti4 2.070879 1_555
O30 Si7 1.639792 1_555
O30 Ti5 1.809324 1_555
O31 S11 1.515655 1_555
O31 Sn5 2.086669 1_555
O32 S12 1.479820 1_555
O32 Ti5 2.049180 1_555
O33 Si8 1.643211 1_555
O33 Sn5 1.935717 1_555
O34 S13 1.465592 1_555
O34 Ti5 2.166289 1_555
O35 S14 1.515732 1_555
O35 Sn5 2.066690 1_555
O36 S13 1.459122 1_555
O36 Ti6 2.193216 1_554
O37 S14 1.455211 1_555
O37 Ti7 2.229696 1_554
O38 Si7 1.644521 1_555
O38 Ti6 1.802887 1_554
O39 S11 1.465204 1_555
O39 Ti7 2.079454 1_554
O40 S12 1.454139 1_555
O40 Ti6 2.305283 1_554
O41 Si8 1.667657 1_555
O41 Ti7 1.775673 1_554
O42 S8 1.471028 1_555
O42 Ti8 2.177807 1_555
O43 S9 1.483442 1_555
O43 Ti9 2.066917 1_555
O44 Si6 1.692532 1_555
O44 Ti8 1.744503 1_555
O45 S10 1.465978 1_555
O45 Ti9 2.258378 1_555
O46 S7 1.492263 1_555
O46 Ti8 2.016953 1_555
O47 Si5 1.669079 1_555
O47 Ti9 1.770188 1_555
O48 Si9 1.641005 1_555
O48 Sn6 1.954641 1_556
O49 S15 1.481504 1_555
O49 Sn7 2.173598 1_556
O50 Si10 1.620097 1_555
O50 Sn6 1.962554 1_556
O51 Si11 1.624827 1_555
O51 Sn7 1.965529 1_556
O52 S16 1.490803 1_555
O52 Sn6 2.149664 1_556
O53 S17 1.485234 1_555
O53 Sn7 2.132370 1_556
O54 S18 1.472870 1_555
O54 Sn8 2.193167 1_555
O55 Si12 1.628374 1_555
O55 Sn9 1.983426 1_555
O56 S19 1.477934 1_555
O56 Sn8 2.178502 1_555
O57 S20 1.481580 1_555
O57 Sn9 2.155616 1_555
O58 Si13 1.604361 1_555
O58 Sn8 1.974048 1_555
O59 Si14 1.616682 1_555
O59 Sn9 1.967204 1_555
O60 Si13 1.655562 1_555
O60 Ti10 1.804153 1_555
O61 Si14 1.622146 1_555
O61 Sn10 1.976773 1_555
O62 S18 1.494595 1_555
O62 Ti10 2.028224 1_555
O63 Si12 1.624851 1_555
O63 Sn10 1.975174 1_555
O64 S19 1.465323 1_555
O64 Ti10 2.273615 1_555
O65 S20 1.487735 1_555
O65 Sn10 2.177858 1_555
O66 Si10 1.615189 1_555
O66 Sn11 1.986194 1_555
O67 Si11 1.639499 1_555
O67 Ti11 1.820902 1_555
O68 S16 1.483883 1_555
O68 Sn11 2.188641 1_555
O69 S17 1.451201 1_555
O69 Ti11 2.325800 1_555
O70 Si9 1.627472 1_555
O70 Sn11 1.975245 1_555
O71 S15 1.459871 1_555
O71 Ti11 2.239115 1_555
O72 Si13 1.650069 1_555
O72 Ti0 1.811750 1_555
O73 Si14 1.617135 1_555
O73 Sn0 1.935573 1_565
O74 S18 1.479676 1_555
O74 Sn0 2.101769 1_565
O75 Si12 1.636538 1_555
O75 Ti0 1.884577 1_655
O76 S19 1.493979 1_555
O76 Ti0 2.023699 1_545
O77 S20 1.481153 1_555
O77 Sn0 2.114714 1_555
O78 Si10 1.610478 1_555
O78 Sn1 1.937689 1_445
O79 Si11 1.612574 1_555
O79 Ti1 1.950092 1_545
O80 S16 1.481078 1_555
O80 Sn1 2.120074 1_455
O81 S17 1.477383 1_555
O81 Ti1 2.090134 1_555
O82 Si9 1.610780 1_555
O82 Ti1 1.956553 1_555
O83 S15 1.494675 1_555
O83 Sn1 2.087196 1_555
O84 S7 1.465131 1_555
O84 Sn2 2.243926 1_545
O85 Si5 1.641541 1_555
O85 Ti2 1.897408 1_545
O86 S8 1.500015 1_555
O86 Ti2 2.113567 1_445
O87 S9 1.479532 1_555
O87 Sn2 2.142391 1_545
O88 Si6 1.602908 1_555
O88 Sn2 1.957018 1_555
O89 S10 1.509959 1_555
O89 Ti2 2.068394 1_555
O90 Si7 1.655170 1_555
O90 Ti3 1.862376 1_565
O91 S11 1.472141 1_555
O91 Sn3 2.145834 1_665
O92 S12 1.515944 1_555
O92 Ti3 2.012743 1_555
O93 Si8 1.619318 1_555
O93 Sn3 1.928699 1_655
O94 S13 1.498824 1_555
O94 Sn3 2.085660 1_555
O95 S14 1.494836 1_555
O95 Ti3 2.067367 1_555
O96 S5 1.515693 1_555
O96 Sn4 2.147726 1_555
O97 S6 1.481037 1_545
O97 Ti4 2.074979 1_555
O98 S4 1.492950 1_555
O98 Sn4 2.151602 1_555
O99 Si2 1.643317 1_555
O99 Ti4 1.894860 1_555
O100 Si4 1.656720 1_555
O100 Sn4 1.983250 1_555
O101 Si3 1.647910 1_655
O101 Ti4 1.823511 1_555
O102 S1 1.479984 1_555
O102 Ti5 2.084672 1_555
O103 S2 1.531591 1_555
O103 Sn5 2.132051 1_555
O104 Si1 1.649869 1_555
O104 Ti5 1.825464 1_555
O105 S3 1.527385 1_655
O105 Sn5 2.144430 1_555
O106 Si0 1.613976 1_555
O106 Ti5 1.955110 1_555
O107 S0 1.520744 1_555
O107 Sn5 2.125801 1_555
O108 Si9 1.665020 1_555
O108 Ti6 1.807649 1_555
O109 S15 1.493226 1_555
O109 Ti7 2.185934 1_555
O110 Si11 1.668192 1_555
O110 Ti6 1.834263 1_555
O111 Si10 1.679633 1_655
O111 Ti7 1.776963 1_555
O112 S16 1.464445 1_545
O112 Ti6 2.170959 1_555
O113 S17 1.514895 1_545
O113 Ti7 2.006767 1_555
O114 S18 1.475176 1_545
O114 Ti8 2.281169 1_555
O115 Si12 1.652718 1_545
O115 Ti9 1.829203 1_555
O116 S19 1.495427 1_555
O116 Ti8 2.114197 1_555
O117 S20 1.469848 1_555
O117 Ti9 2.199934 1_555
O118 Si14 1.671672 1_555
O118 Ti8 1.798171 1_555
O119 Si13 1.629945 1_655
O119 Ti9 1.909244 1_555
O120 S13 1.509938 1_555
O120 Sn6 2.113278 1_555
O121 S14 1.463759 1_555
O121 Sn7 2.132445 1_555
O122 S11 1.474396 1_455
O122 Sn6 2.176214 1_555
O123 Si7 1.594845 1_555
O123 Sn7 1.977789 1_555
O124 S12 1.496537 1_565
O124 Sn6 2.165390 1_555
O125 Si8 1.586822 1_565
O125 Sn7 1.952580 1_555
O126 S8 1.468544 1_565
O126 Sn8 2.117659 1_555
O127 S9 1.511350 1_565
O127 Sn9 2.092149 1_555
O128 Si6 1.594008 1_555
O128 Sn8 1.920761 1_555
O129 S10 1.499598 1_555
O129 Sn9 2.143001 1_555
O130 Si5 1.594933 1_455
O130 Sn8 1.958336 1_555
O131 S7 1.480978 1_555
O131 Sn9 2.150924 1_555
O132 Si0 1.671163 1_565
O132 Ti10 1.764571 1_555
O133 S0 1.471939 1_565
O133 Sn10 2.184439 1_555
O134 S1 1.472046 1_555
O134 Ti10 2.167569 1_555
O135 S2 1.461503 1_555
O135 Sn10 2.204142 1_555
O136 S3 1.476441 1_555
O136 Ti10 2.028361 1_555
O137 Si1 1.616006 1_555
O137 Sn10 1.965686 1_555
O138 S4 1.469172 1_555
O138 Sn11 2.178968 1_555
O139 Si2 1.643284 1_555
O139 Ti11 1.786337 1_555
O140 Si3 1.610670 1_555
O140 Sn11 1.977617 1_555
O141 Si4 1.635843 1_555
O141 Ti11 1.778196 1_555
O142 S5 1.474355 1_565
O142 Sn11 2.141117 1_555
O143 S6 1.448126 1_555
O143 Ti11 2.231732 1_555
