# generated using pymatgen
data_Na10La4Zr4Si7S5O48
_symmetry_space_group_name_H-M   'P 1'
_cell_length_a   18.99605337
_cell_length_b   9.49028337
_cell_length_c   23.35307274
_cell_angle_alpha   90.02359510
_cell_angle_beta   88.84292147
_cell_angle_gamma   119.71687043
_symmetry_Int_Tables_number   1
_chemical_formula_structural   Na10La4Zr4Si7S5O48
_chemical_formula_sum   'Na30 La12 Zr12 Si21 S15 O144'
_cell_volume   3655.39328961
_cell_formula_units_Z   3
loop_
 _symmetry_equiv_pos_site_id
 _symmetry_equiv_pos_as_xyz
  1  'x, y, z'
loop_
 _atom_site_type_symbol
 _atom_site_label
 _atom_site_symmetry_multiplicity
 _atom_site_fract_x
 _atom_site_fract_y
 _atom_site_fract_z
 _atom_site_occupancy
  Na  Na0  1  0.18492246  0.37572185  0.23709828  1
  Na  Na1  1  0.68518775  0.37777082  0.23721699  1
  Na  Na2  1  0.99050009  0.63585619  0.25592246  1
  Na  Na3  1  0.49282848  0.63664024  0.25579469  1
  Na  Na4  1  0.49170602  0.34150892  0.76281123  1
  Na  Na5  1  0.18556697  0.99750672  0.74096435  1
  Na  Na6  1  0.68177102  0.99684143  0.74004072  1
  Na  Na7  1  0.66352644  0.34533645  0.57745290  1
  Na  Na8  1  0.01505926  0.70720340  0.57427130  1
  Na  Na9  1  0.82437122  0.96249486  0.59207117  1
  Na  Na10  1  0.49838797  0.67968584  0.91041576  1
  Na  Na11  1  0.99813270  0.67829515  0.90945461  1
  Na  Na12  1  0.84768604  0.03647217  0.90480370  1
  Na  Na13  1  0.15345542  0.29738129  0.92411050  1
  Na  Na14  1  0.49531130  0.31486006  0.40884462  1
  Na  Na15  1  0.99150029  0.30916923  0.40972064  1
  Na  Na16  1  0.34506763  0.65688213  0.40262027  1
  Na  Na17  1  0.84794350  0.66257875  0.40745342  1
  Na  Na18  1  0.03010058  0.01534099  0.49871772  1
  Na  Na19  1  0.52482754  0.98742424  0.49685321  1
  Na  Na20  1  0.01768295  0.02510710  0.00349227  1
  Na  Na21  1  0.52555942  0.05987689  0.99796643  1
  Na  Na22  1  0.34639072  0.32571418  0.83515075  1
  Na  Na23  1  0.85482929  0.34255293  0.82692012  1
  Na  Na24  1  0.34373830  0.33774948  0.32980810  1
  Na  Na25  1  0.84097987  0.33492342  0.33394138  1
  Na  Na26  1  0.17966861  0.65032693  0.16501520  1
  Na  Na27  1  0.67887873  0.65101989  0.16577616  1
  Na  Na28  1  0.17904897  0.69110634  0.67316536  1
  Na  Na29  1  0.67899261  0.69043183  0.66900101  1
  La  La0  1  0.00200010  0.99835296  0.34812422  1
  La  La1  1  0.50263493  0.00079591  0.34664548  1
  La  La2  1  0.99794311  0.00186434  0.84223136  1
  La  La3  1  0.49425756  -0.00041941  0.85387492  1
  La  La4  1  0.33466307  0.33327901  0.68177764  1
  La  La5  1  0.83823058  0.34240158  0.68614556  1
  La  La6  1  0.33542354  0.33871766  0.17851094  1
  La  La7  1  0.83544178  0.33751796  0.17941200  1
  La  La8  1  0.16049136  0.65419077  0.01927114  1
  La  La9  1  0.65990120  0.64725309  0.02079209  1
  La  La10  1  0.16627834  0.67737836  0.51725127  1
  La  La11  1  0.65866842  0.67280805  0.51699336  1
  Zr  Zr0  1  0.99447742  0.97897897  0.65144662  1
  Zr  Zr1  1  0.49560215  0.97521723  0.65074386  1
  Zr  Zr2  1  0.99781553  0.01626820  0.15005048  1
  Zr  Zr3  1  0.49755795  0.01407987  0.14986208  1
  Zr  Zr4  1  0.32501387  0.31210216  0.98000969  1
  Zr  Zr5  1  0.82234430  0.32018251  0.98021028  1
  Zr  Zr6  1  0.32308132  0.32577189  0.47988049  1
  Zr  Zr7  1  0.82563644  0.34642853  0.48125619  1
  Zr  Zr8  1  0.16318454  0.64539666  0.31447583  1
  Zr  Zr9  1  0.66220830  0.64699527  0.31527992  1
  Zr  Zr10  1  0.16132623  0.68170151  0.81414451  1
  Zr  Zr11  1  0.66297831  0.68073077  0.81453831  1
  Si  Si0  1  0.34744993  0.70610146  0.25223592  1
  Si  Si1  1  0.84781992  0.70703008  0.25224350  1
  Si  Si2  1  0.00237860  0.30784798  0.25474960  1
  Si  Si3  1  0.50243028  0.30797137  0.25443499  1
  Si  Si4  1  0.00508106  0.69863158  0.75499679  1
  Si  Si5  1  0.50241703  0.69568085  0.75533283  1
  Si  Si6  1  0.34825879  0.98907650  0.74847528  1
  Si  Si7  1  0.84205171  0.98421531  0.75288625  1
  Si  Si8  1  0.17796523  0.03748759  0.58981617  1
  Si  Si9  1  0.68215678  0.04631125  0.58937762  1
  Si  Si10  1  0.83555412  0.64124233  0.58175205  1
  Si  Si11  1  0.17829547  0.31922699  0.08844524  1
  Si  Si12  1  0.67820398  0.31726362  0.09116694  1
  Si  Si13  1  0.01454927  0.37148307  0.91671322  1
  Si  Si14  1  0.51101080  0.37300553  0.91548306  1
  Si  Si15  1  0.16707789  0.96954289  0.91617331  1
  Si  Si16  1  0.66976724  0.96699895  0.91887346  1
  Si  Si17  1  0.16843863  0.36893116  0.41797620  1
  Si  Si18  1  0.66825841  0.36672722  0.42108883  1
  Si  Si19  1  0.01151161  0.65297849  0.41891494  1
  Si  Si20  1  0.50815673  0.65236019  0.41444105  1
  S  S0  1  0.14595199  0.98202061  0.24550931  1
  S  S1  1  0.64639255  0.98158436  0.24543372  1
  S  S2  1  0.14630567  0.31300145  0.74894281  1
  S  S3  1  0.64097520  0.30158427  0.74531081  1
  S  S4  1  0.47988539  0.30627175  0.58088941  1
  S  S5  1  0.97879258  0.31281283  0.57754976  1
  S  S6  1  0.34377494  0.64538251  0.57922490  1
  S  S7  1  0.48020724  0.65508541  0.08280943  1
  S  S8  1  0.97958868  0.65419279  0.08196086  1
  S  S9  1  0.34218493  0.03852581  0.08187079  1
  S  S10  1  0.84244877  0.03877145  0.07988319  1
  S  S11  1  0.30848803  0.64090887  0.91606355  1
  S  S12  1  0.81240300  0.65017029  0.91608697  1
  S  S13  1  0.31301007  0.97710971  0.41414752  1
  S  S14  1  0.81133592  0.97408149  0.41578354  1
  O  O0  1  0.11623171  0.01325198  0.30041229  1
  O  O1  1  0.61704906  0.01283375  0.30052188  1
  O  O2  1  0.39474290  0.76654193  0.31231023  1
  O  O3  1  0.89671308  0.76629710  0.31186801  1
  O  O4  1  0.49301342  0.22182766  0.31586603  1
  O  O5  1  0.99426203  0.22073557  0.31567903  1
  O  O6  1  0.11773447  0.23597254  0.80647239  1
  O  O7  1  0.60401574  0.20532034  0.79777557  1
  O  O8  1  0.49437239  0.77096298  0.81496271  1
  O  O9  1  0.00247157  0.77581059  0.81612694  1
  O  O10  1  0.40960214  0.04387465  0.80111351  1
  O  O11  1  0.88504541  0.00017162  0.81356541  1
  O  O12  1  0.40103810  0.97454610  0.69153713  1
  O  O13  1  0.90064130  0.98364731  0.69691337  1
  O  O14  1  0.09018800  0.20734916  0.70387874  1
  O  O15  1  0.59115518  0.21043214  0.69423596  1
  O  O16  1  0.01096018  0.82487609  0.70099896  1
  O  O17  1  0.51036687  0.82276637  0.70055466  1
  O  O18  1  0.40685589  0.83085696  0.19951492  1
  O  O19  1  0.90654313  0.83264545  0.19909752  1
  O  O20  1  0.01250670  0.19832307  0.20156949  1
  O  O21  1  0.51179542  0.19612577  0.20194816  1
  O  O22  1  0.09149110  0.97225768  0.19837275  1
  O  O23  1  0.59150754  0.97156779  0.19867707  1
  O  O24  1  0.44340837  0.32303415  0.63507191  1
  O  O25  1  0.94098704  0.33555249  0.62975044  1
  O  O26  1  0.22249809  0.11138809  0.64920174  1
  O  O27  1  0.72615153  0.11569001  0.64951161  1
  O  O28  1  0.33445104  0.55444321  0.63208562  1
  O  O29  1  0.81765600  0.51472737  0.63278770  1
  O  O30  1  0.44573069  0.56890918  0.13851137  1
  O  O31  1  0.94410442  0.56893934  0.13737808  1
  O  O32  1  0.33276722  0.10662793  0.13599982  1
  O  O33  1  0.83392313  0.11264424  0.13302840  1
  O  O34  1  0.22044317  0.32388771  0.14890656  1
  O  O35  1  0.71919770  0.32036639  0.15182173  1
  O  O36  1  0.23605524  0.30895101  0.03308162  1
  O  O37  1  0.73933845  0.31185574  0.03726425  1
  O  O38  1  0.43073285  0.55396944  0.03432602  1
  O  O39  1  0.93095698  0.55453025  0.03292693  1
  O  O40  1  0.34773990  0.14599742  0.03229119  1
  O  O41  1  0.84817788  0.14163471  0.02879026  1
  O  O42  1  0.23864968  0.16110127  0.53471930  1
  O  O43  1  0.73862177  0.17820842  0.53536945  1
  O  O44  1  0.34733900  0.55149832  0.52781459  1
  O  O45  1  0.84923026  0.55271647  0.52202090  1
  O  O46  1  0.43292509  0.31114454  0.53089162  1
  O  O47  1  0.93050794  0.30456883  0.52627760  1
  O  O48  1  0.27552274  0.66670990  0.96961648  1
  O  O49  1  0.77798887  0.67381131  0.96930349  1
  O  O50  1  0.07594003  0.43723931  0.96973619  1
  O  O51  1  0.56448025  0.46275385  0.96997443  1
  O  O52  1  0.15078719  0.84705034  0.96845248  1
  O  O53  1  0.66822359  0.85976530  0.97184708  1
  O  O54  1  0.27970644  0.88777234  0.46819298  1
  O  O55  1  0.77948759  0.89030026  0.47136384  1
  O  O56  1  0.16426680  0.47058056  0.47125357  1
  O  O57  1  0.66407184  0.44936173  0.48038578  1
  O  O58  1  0.05671798  0.67233000  0.47904249  1
  O  O59  1  0.56069301  0.67610030  0.47007597  1
  O  O60  1  0.06856896  0.64222156  0.36340103  1
  O  O61  1  0.55997934  0.63860955  0.35649050  1
  O  O62  1  0.26230976  0.88761093  0.36507280  1
  O  O63  1  0.75881393  0.87687120  0.36806790  1
  O  O64  1  0.18333630  0.48711553  0.35907587  1
  O  O65  1  0.67757684  0.49396300  0.36599460  1
  O  O66  1  0.06643453  0.50035871  0.86192306  1
  O  O67  1  0.56060385  0.48762887  0.85650005  1
  O  O68  1  0.17758694  0.88089203  0.85634008  1
  O  O69  1  0.68318245  0.87716989  0.85946749  1
  O  O70  1  0.26006368  0.63605791  0.86609860  1
  O  O71  1  0.76241722  0.63594408  0.86616075  1
  O  O72  1  0.99013272  0.79890531  0.41425873  1
  O  O73  1  0.48421074  0.79524020  0.41255011  1
  O  O74  1  0.39683930  0.00606643  0.40853562  1
  O  O75  1  0.89428402  0.99568443  0.40933091  1
  O  O76  1  0.08795294  0.19172567  0.41610049  1
  O  O77  1  0.58730436  0.19021813  0.41568106  1
  O  O78  1  0.99213187  0.18252045  0.90973935  1
  O  O79  1  0.49221020  0.18735818  0.91523362  1
  O  O80  1  0.09329551  0.01213356  0.91387702  1
  O  O81  1  0.58922851  0.98380987  0.91664556  1
  O  O82  1  0.39468567  0.76537952  0.91117118  1
  O  O83  1  0.89693264  0.78814999  0.91017037  1
  O  O84  1  0.48270813  0.15221522  0.58125449  1
  O  O85  1  0.97871089  0.15558533  0.58210208  1
  O  O86  1  0.08806719  0.02838506  0.58899529  1
  O  O87  1  0.59260009  0.04117524  0.58911751  1
  O  O88  1  0.42305824  0.80305183  0.58067160  1
  O  O89  1  0.92321806  0.81461689  0.59015024  1
  O  O90  1  0.48037914  0.81234057  0.08408335  1
  O  O91  1  0.98095974  0.81281420  0.08256298  1
  O  O92  1  0.42069557  0.03583902  0.08315591  1
  O  O93  1  0.92133580  0.03626036  0.08241193  1
  O  O94  1  0.08785484  0.14865773  0.08925429  1
  O  O95  1  0.58802377  0.14786439  0.08962265  1
  O  O96  1  0.32829187  0.13902134  0.74312075  1
  O  O97  1  0.82076206  0.13074491  0.74962503  1
  O  O98  1  0.22787782  0.33056538  0.74083052  1
  O  O99  1  0.72397574  0.32961263  0.74110444  1
  O  O100  1  0.43214814  0.50710572  0.74783985  1
  O  O101  1  0.92976149  0.51706145  0.75127318  1
  O  O102  1  0.33015735  0.51828405  0.24545286  1
  O  O103  1  0.83134558  0.52027920  0.24471391  1
  O  O104  1  0.43132900  0.35465075  0.24686784  1
  O  O105  1  0.93122474  0.35403247  0.24751681  1
  O  O106  1  0.22987129  0.11530619  0.23769830  1
  O  O107  1  0.73038938  0.11424862  0.23765448  1
  O  O108  1  0.30435105  0.47653976  0.91931770  1
  O  O109  1  0.81898204  0.49755758  0.92103306  1
  O  O110  1  0.42424627  0.38332746  0.92248727  1
  O  O111  1  0.92798700  0.37728350  0.92670630  1
  O  O112  1  0.25310727  0.14899440  0.92368781  1
  O  O113  1  0.75692444  0.14931636  0.92300501  1
  O  O114  1  0.31817238  0.14079824  0.41819294  1
  O  O115  1  0.81858002  0.13812896  0.41693104  1
  O  O116  1  0.25494052  0.36115616  0.42270315  1
  O  O117  1  0.75596779  0.36358823  0.41836511  1
  O  O118  1  0.42135044  0.47100589  0.42082765  1
  O  O119  1  0.92485250  0.47262102  0.41948830  1
  O  O120  1  0.16847457  0.47959844  0.08585404  1
  O  O121  1  0.66837147  0.47723426  0.08877611  1
  O  O122  1  0.06310090  0.68130424  0.07958311  1
  O  O123  1  0.56414184  0.68482466  0.08002063  1
  O  O124  1  0.27393175  0.87380268  0.07584118  1
  O  O125  1  0.77482920  0.87351317  0.07589967  1
  O  O126  1  0.15846946  0.84883054  0.58566415  1
  O  O127  1  0.67721871  0.87123167  0.58245880  1
  O  O128  1  0.27623160  0.67804518  0.57520861  1
  O  O129  1  0.76174464  0.68092373  0.57923729  1
  O  O130  1  0.06211262  0.45190402  0.57428884  1
  O  O131  1  0.56499665  0.44366616  0.57929312  1
  O  O132  1  0.14253408  0.82127710  0.24907664  1
  O  O133  1  0.64330282  0.82115153  0.24866701  1
  O  O134  1  0.25797949  0.69871595  0.25496094  1
  O  O135  1  0.75783853  0.69710513  0.25635096  1
  O  O136  1  0.09235770  0.48478111  0.25341206  1
  O  O137  1  0.59312439  0.48346612  0.25340121  1
  O  O138  1  0.15172840  0.47431906  0.74832609  1
  O  O139  1  0.64014783  0.45823053  0.74780946  1
  O  O140  1  0.09513628  0.70497424  0.74983248  1
  O  O141  1  0.59300784  0.70200711  0.75279220  1
  O  O142  1  0.26037706  0.81886980  0.75626428  1
  O  O143  1  0.75469324  0.80803948  0.75271005  1
loop_
_geom_bond_atom_site_label_1
_geom_bond_atom_site_label_2
_geom_bond_distance
_geom_bond_site_symmetry_2
Na0 O34 2.282791 1_555
Na0 O102 2.408503 1_555
Na0 O136 2.466811 1_555
Na0 O134 2.702010 1_555
Na1 O35 2.233202 1_555
Na1 O103 2.421764 1_555
Na1 O137 2.433031 1_555
Na1 O135 2.676913 1_555
Na2 O105 2.341484 1_555
Na2 O132 2.531000 1_655
Na2 O103 2.675072 1_555
Na2 O31 2.895884 1_555
Na2 O3 2.916273 1_555
Na2 O136 2.923797 1_655
Na2 O60 2.926465 1_655
Na3 O104 2.340908 1_555
Na3 O133 2.506619 1_555
Na3 O61 2.693474 1_555
Na3 O102 2.730844 1_555
Na3 O30 2.871008 1_555
Na3 O137 2.913351 1_555
Na4 O100 2.377230 1_555
Na4 O139 2.482889 1_555
Na4 O67 2.595516 1_555
Na4 O10 2.605611 1_555
Na4 O96 2.771862 1_555
Na5 O26 2.332786 1_565
Na5 O96 2.356344 1_565
Na5 O140 2.441130 1_555
Na5 O142 2.725956 1_555
Na5 O98 2.849211 1_565
Na5 O68 2.885669 1_555
Na6 O97 2.309380 1_565
Na6 O27 2.332320 1_565
Na6 O141 2.462483 1_555
Na6 O143 2.773925 1_555
Na7 O57 2.470614 1_555
Na7 O131 2.470667 1_555
Na7 O87 2.520281 1_555
Na7 O43 2.775207 1_555
Na7 O129 2.781676 1_555
Na7 O29 2.882913 1_555
Na7 O84 2.985219 1_555
Na7 O15 3.012210 1_555
Na8 O126 2.386951 1_555
Na8 O58 2.422687 1_555
Na8 O89 2.440719 1_455
Na8 O86 2.675797 1_565
Na9 O129 2.346850 1_555
Na9 O127 2.497841 1_555
Na9 O85 2.579571 1_565
Na9 O13 2.826397 1_555
Na9 O89 2.847181 1_555
Na9 O55 2.942587 1_555
Na10 O8 2.408143 1_555
Na10 O110 2.455762 1_555
Na10 O82 2.475734 1_555
Na10 O81 2.530053 1_555
Na10 O67 2.894468 1_555
Na11 O9 2.352063 1_655
Na11 O111 2.510754 1_555
Na11 O83 2.601642 1_555
Na11 O80 2.765004 1_665
Na11 O66 2.807068 1_655
Na11 O52 2.902997 1_655
Na12 O11 2.311472 1_555
Na12 O78 2.388612 1_555
Na12 O113 2.469961 1_555
Na12 O111 2.861551 1_555
Na13 O80 2.373764 1_555
Na13 O108 2.505014 1_555
Na13 O50 2.634075 1_555
Na13 O78 2.724235 1_455
Na13 O6 2.833576 1_555
Na13 O112 2.865100 1_555
Na13 O36 2.990038 1_556
Na14 O4 2.336699 1_555
Na14 O118 2.509198 1_555
Na14 O77 2.557204 1_555
Na14 O74 2.579319 1_555
Na14 O114 2.925574 1_555
Na14 O61 2.940140 1_555
Na15 O5 2.359600 1_555
Na15 O119 2.448722 1_555
Na15 O76 2.580174 1_655
Na15 O75 2.610572 1_545
Na15 O115 2.853902 1_555
Na15 O47 2.928473 1_555
Na15 O60 2.941931 1_655
Na16 O73 2.312544 1_555
Na16 O2 2.317168 1_555
Na16 O116 2.496514 1_555
Na16 O118 2.819955 1_555
Na17 O72 2.355267 1_555
Na17 O3 2.413324 1_555
Na17 O117 2.497294 1_555
Na17 O75 2.830709 1_555
Na17 O119 2.844560 1_555
Na17 O45 2.876836 1_555
Na17 O65 2.993756 1_555
Na18 O86 2.372969 1_555
Na18 O76 2.413597 1_555
Na18 O72 2.682683 1_445
Na18 O85 2.779490 1_455
Na18 O89 2.881669 1_445
Na19 O87 2.453611 1_565
Na19 O77 2.520613 1_565
Na19 O73 2.541847 1_555
Na19 O88 2.669600 1_555
Na19 O84 2.853994 1_565
Na20 O94 2.391492 1_555
Na20 O80 2.551808 1_554
Na20 O91 2.552075 1_445
Na20 O93 2.610225 1_455
Na20 O78 2.832906 1_454
Na21 O95 2.409471 1_556
Na21 O81 2.522343 1_545
Na21 O79 2.531625 1_555
Na21 O92 2.714360 1_556
Na21 O90 2.869680 1_546
Na22 O110 2.442398 1_555
Na22 O100 2.619750 1_555
Na22 O112 2.671380 1_555
Na22 O96 2.701691 1_555
Na22 O108 2.759995 1_555
Na23 O101 2.335256 1_555
Na23 O97 2.544048 1_555
Na23 O111 2.673260 1_555
Na23 O113 2.882773 1_555
Na23 O109 2.896224 1_555
Na24 O104 2.480189 1_555
Na24 O118 2.562598 1_555
Na24 O114 2.655663 1_555
Na24 O102 2.710034 1_555
Na24 O116 2.797177 1_555
Na25 O119 2.509877 1_555
Na25 O105 2.568559 1_555
Na25 O115 2.570409 1_555
Na25 O117 2.622104 1_555
Na25 O103 2.794173 1_555
Na26 O120 2.399963 1_555
Na26 O134 2.506809 1_555
Na26 O136 2.600308 1_555
Na26 O132 2.838922 1_555
Na26 O124 2.851146 1_555
Na27 O121 2.383088 1_555
Na27 O135 2.528263 1_555
Na27 O137 2.582534 1_555
Na27 O133 2.799495 1_555
Na27 O125 2.866975 1_555
Na28 O140 2.419980 1_555
Na28 O142 2.425882 1_555
Na28 O138 2.547659 1_555
Na28 O126 2.680276 1_555
Na28 O128 2.951703 1_555
Na29 O143 2.378151 1_555
Na29 O141 2.560780 1_555
Na29 O129 2.623146 1_555
Na29 O127 2.663217 1_555
Na29 O139 2.669100 1_555
La0 O3 2.295002 1_455
La0 O5 2.315856 1_465
La0 O0 2.359757 1_565
La0 O72 2.363086 1_455
La0 O76 2.384393 1_565
La0 O75 2.461932 1_455
La1 O2 2.309416 1_545
La1 O4 2.310168 1_555
La1 O1 2.357198 1_555
La1 O73 2.366562 1_545
La1 O77 2.377701 1_555
La1 O74 2.472377 1_555
La2 O11 2.252016 1_555
La2 O9 2.271822 1_645
La2 O78 2.369687 1_555
La2 O6 2.392512 1_655
La2 O80 2.457039 1_655
La2 O83 2.516745 1_545
La3 O10 2.243117 1_555
La3 O79 2.301057 1_555
La3 O8 2.352898 1_545
La3 O7 2.394062 1_555
La3 O81 2.408442 1_545
La3 O82 2.457713 1_545
La4 O26 2.273496 1_555
La4 O96 2.289001 1_555
La4 O24 2.361019 1_555
La4 O100 2.369670 1_555
La4 O28 2.400560 1_555
La4 O98 2.419204 1_555
La5 O29 2.243901 1_555
La5 O101 2.308962 1_555
La5 O27 2.329059 1_555
La5 O25 2.360251 1_555
La5 O97 2.379978 1_555
La5 O99 2.449297 1_555
La6 O34 2.241546 1_555
La6 O30 2.328081 1_555
La6 O102 2.349148 1_555
La6 O32 2.393658 1_555
La6 O104 2.394653 1_555
La6 O106 2.470206 1_555
La7 O35 2.240249 1_555
La7 O103 2.338130 1_555
La7 O31 2.339498 1_555
La7 O33 2.380530 1_555
La7 O105 2.387182 1_555
La7 O107 2.454098 1_555
La8 O50 2.225206 1_554
La8 O52 2.266607 1_554
La8 O120 2.333869 1_555
La8 O48 2.402914 1_554
La8 O122 2.416413 1_555
La8 O124 2.528381 1_555
La9 O51 2.167569 1_554
La9 O53 2.253322 1_554
La9 O121 2.328039 1_555
La9 O49 2.423232 1_554
La9 O123 2.426987 1_555
La9 O125 2.548870 1_555
La10 O56 2.220944 1_555
La10 O58 2.259656 1_555
La10 O126 2.334444 1_555
La10 O54 2.361953 1_555
La10 O130 2.442642 1_555
La10 O128 2.509102 1_555
La11 O59 2.192113 1_555
La11 O127 2.317114 1_555
La11 O57 2.334301 1_555
La11 O55 2.422747 1_555
La11 O129 2.432717 1_555
La11 O131 2.464475 1_555
O0 S0 1.478803 1_545
O1 S1 1.479290 1_545
O2 Si0 1.625925 1_555
O3 Si1 1.628334 1_555
O4 Si3 1.613708 1_555
O5 Si2 1.611704 1_655
O6 S2 1.487260 1_555
O7 S3 1.469339 1_555
O8 Si5 1.603680 1_555
O9 Si4 1.615300 1_555
O10 Si6 1.611192 1_545
O11 Si7 1.619232 1_545
O12 Si6 1.695685 1_555
O12 Zr1 2.013449 1_555
O13 Si7 1.701332 1_555
O13 Zr0 2.075702 1_555
O14 S2 1.494653 1_555
O14 Zr0 2.383929 1_445
O15 S3 1.516480 1_555
O15 Zr1 2.316191 1_545
O16 Si4 1.703222 1_555
O16 Zr0 2.011470 1_455
O17 Si5 1.710782 1_555
O17 Zr1 1.985419 1_555
O18 Si0 1.676766 1_555
O18 Zr3 2.070612 1_565
O19 Si1 1.683087 1_555
O19 Zr2 2.068999 1_565
O20 Si2 1.687403 1_555
O20 Zr2 2.011053 1_455
O21 Si3 1.684655 1_555
O21 Zr3 2.021346 1_555
O22 S0 1.497152 1_555
O22 Zr2 2.330827 1_465
O23 S1 1.495310 1_555
O23 Zr3 2.333191 1_565
O24 S4 1.476553 1_555
O25 S5 1.471895 1_555
O26 Si8 1.609095 1_555
O27 Si9 1.614047 1_555
O28 S6 1.463078 1_555
O29 Si10 1.599300 1_555
O30 S7 1.491754 1_555
O31 S8 1.486190 1_555
O32 S9 1.467121 1_555
O33 S10 1.470308 1_555
O34 Si11 1.626991 1_555
O35 Si12 1.623408 1_555
O36 Si11 1.712799 1_555
O36 Zr4 2.063484 1_554
O37 Si12 1.713430 1_555
O37 Zr5 2.014807 1_554
O38 S7 1.494667 1_555
O38 Zr4 2.537936 1_554
O39 S8 1.494927 1_555
O39 Zr5 2.503948 1_554
O40 S9 1.510405 1_555
O40 Zr4 2.204449 1_554
O41 S10 1.509593 1_555
O41 Zr5 2.290764 1_554
O42 Si8 1.720824 1_555
O42 Zr6 2.021984 1_555
O43 Si9 1.709871 1_555
O43 Zr7 2.044239 1_555
O44 S6 1.515090 1_555
O44 Zr6 2.257134 1_555
O45 Si10 1.708763 1_555
O45 Zr7 2.021296 1_555
O46 S4 1.498070 1_555
O46 Zr6 2.485956 1_555
O47 S5 1.501405 1_555
O47 Zr7 2.470106 1_555
O48 S11 1.461608 1_555
O49 S12 1.461011 1_555
O50 Si13 1.618285 1_555
O51 Si14 1.603149 1_555
O52 Si15 1.602168 1_555
O53 Si16 1.592772 1_555
O54 S13 1.465906 1_555
O55 S14 1.474844 1_555
O56 Si17 1.598663 1_555
O57 Si18 1.611025 1_555
O58 Si19 1.623259 1_555
O59 Si20 1.601242 1_555
O60 Si19 1.708429 1_555
O60 Zr8 2.097643 1_555
O61 Si20 1.700300 1_555
O61 Zr9 2.115432 1_555
O62 S13 1.481613 1_555
O62 Zr8 2.453992 1_555
O63 S14 1.489870 1_555
O63 Zr9 2.401393 1_555
O64 Si17 1.703218 1_555
O64 Zr8 2.018725 1_555
O65 Si18 1.710251 1_555
O65 Zr9 2.008201 1_555
O66 Si13 1.691068 1_555
O66 Zr10 2.073828 1_555
O67 Si14 1.703223 1_555
O67 Zr11 2.119379 1_555
O68 Si15 1.689489 1_555
O68 Zr10 2.017865 1_555
O69 Si16 1.707768 1_555
O69 Zr11 2.007225 1_555
O70 S11 1.486979 1_555
O70 Zr10 2.464853 1_555
O71 S12 1.482133 1_555
O71 Zr11 2.467893 1_555
O72 Si19 1.629164 1_655
O73 Si20 1.630921 1_555
O74 S13 1.478598 1_545
O75 S14 1.489190 1_555
O76 Si17 1.619003 1_555
O77 Si18 1.624982 1_555
O78 Si13 1.633787 1_655
O79 Si14 1.614909 1_555
O80 Si15 1.641759 1_545
O81 Si16 1.616794 1_555
O82 S11 1.471217 1_555
O83 S12 1.489538 1_555
O84 S4 1.489383 1_555
O84 Zr1 2.437467 1_545
O85 S5 1.495191 1_555
O85 Zr0 2.457806 1_545
O86 Si8 1.667081 1_555
O86 Zr0 2.139386 1_445
O87 Si9 1.677731 1_555
O87 Zr1 2.146687 1_545
O88 S6 1.508687 1_555
O88 Zr1 2.258990 1_555
O89 Si10 1.677873 1_555
O89 Zr0 2.073061 1_555
O90 S7 1.491066 1_555
O90 Zr3 2.351628 1_565
O91 S8 1.492688 1_555
O91 Zr2 2.391545 1_565
O92 S9 1.505095 1_555
O92 Zr3 2.234335 1_555
O93 S10 1.512833 1_555
O93 Zr2 2.237835 1_555
O94 Si11 1.677438 1_555
O94 Zr2 2.071868 1_455
O95 Si12 1.671070 1_555
O95 Zr3 2.070001 1_555
O96 Si6 1.649745 1_545
O97 Si7 1.631577 1_545
O98 S2 1.482185 1_555
O99 S3 1.464343 1_555
O100 Si5 1.629715 1_555
O101 Si4 1.607645 1_655
O102 Si0 1.652714 1_555
O103 Si1 1.649863 1_555
O104 Si3 1.629303 1_555
O105 Si2 1.626103 1_655
O106 S0 1.470999 1_545
O107 S1 1.470000 1_545
O108 S11 1.524332 1_555
O108 Zr4 2.286888 1_555
O109 S12 1.518822 1_555
O109 Zr5 2.204456 1_555
O110 Si14 1.703534 1_555
O110 Zr4 2.109494 1_555
O111 Si13 1.683919 1_655
O111 Zr5 2.168688 1_555
O112 Si15 1.689341 1_545
O112 Zr4 1.991609 1_555
O113 Si16 1.705992 1_545
O113 Zr5 2.006464 1_555
O114 S13 1.510289 1_545
O114 Zr6 2.237559 1_555
O115 S14 1.493710 1_545
O115 Zr7 2.434203 1_555
O116 Si17 1.686789 1_555
O116 Zr6 2.017996 1_555
O117 Si18 1.681028 1_555
O117 Zr7 2.056073 1_555
O118 Si20 1.697089 1_555
O118 Zr6 2.152428 1_555
O119 Si19 1.686837 1_655
O119 Zr7 2.172775 1_555
O120 Si11 1.623852 1_555
O121 Si12 1.620017 1_555
O122 S8 1.475715 1_455
O123 S7 1.475049 1_555
O124 S9 1.463687 1_565
O125 S10 1.457993 1_565
O126 Si8 1.641964 1_565
O127 Si9 1.625281 1_565
O128 S6 1.466395 1_555
O129 Si10 1.624176 1_555
O130 S5 1.475537 1_455
O131 S4 1.491002 1_555
O132 S0 1.496663 1_555
O132 Zr8 2.438847 1_555
O133 S1 1.496206 1_555
O133 Zr9 2.427714 1_555
O134 Si0 1.665858 1_555
O134 Zr8 2.103923 1_555
O135 Si1 1.665388 1_555
O135 Zr9 2.112608 1_555
O136 Si2 1.701307 1_555
O136 Zr8 2.051740 1_555
O137 Si3 1.701817 1_555
O137 Zr9 2.067474 1_555
O138 S2 1.482644 1_555
O138 Zr10 2.433591 1_555
O139 S3 1.495573 1_555
O139 Zr11 2.488359 1_555
O140 Si4 1.683516 1_555
O140 Zr10 2.058451 1_555
O141 Si5 1.691732 1_555
O141 Zr11 2.056800 1_555
O142 Si6 1.656415 1_555
O142 Zr10 2.128924 1_555
O143 Si7 1.672956 1_555
O143 Zr11 2.095901 1_555
