# generated using pymatgen
data_MgCr2Ag6(ClO4)2
_symmetry_space_group_name_H-M   'P 1'
_cell_length_a   5.44404102
_cell_length_b   7.57088601
_cell_length_c   7.57092701
_cell_angle_alpha   90.00003009
_cell_angle_beta   90.00713392
_cell_angle_gamma   90.00585920
_symmetry_Int_Tables_number   1
_chemical_formula_structural   MgCr2Ag6(ClO4)2
_chemical_formula_sum   'Mg1 Cr2 Ag6 Cl2 O8'
_cell_volume   312.04494380
_cell_formula_units_Z   1
loop_
 _symmetry_equiv_pos_site_id
 _symmetry_equiv_pos_as_xyz
  1  'x, y, z'
loop_
 _atom_site_type_symbol
 _atom_site_label
 _atom_site_symmetry_multiplicity
 _atom_site_fract_x
 _atom_site_fract_y
 _atom_site_fract_z
 _atom_site_occupancy
  Mg  Mg0  1  0.50001700  0.25003600  0.74998300  1
  Cr  Cr0  1  0.00000900  0.74985600  0.25012300  1
  Cr  Cr1  1  0.00001100  0.25010200  0.74992700  1
  Ag  Ag0  1  0.12379600  0.24989000  0.24995400  1
  Ag  Ag1  1  0.49996400  0.52550700  0.47452400  1
  Ag  Ag2  1  0.50004900  0.97456100  0.47446300  1
  Ag  Ag3  1  0.87617500  0.75010200  0.75004600  1
  Ag  Ag4  1  0.50000900  0.97454000  0.02548600  1
  Ag  Ag5  1  0.49993700  0.52552700  0.02545300  1
  Cl  Cl0  1  0.35208800  0.75012300  0.75003400  1
  Cl  Cl1  1  0.64790100  0.24993000  0.24993200  1
  O  O0  1  0.18348000  0.57035800  0.25007300  1
  O  O1  1  0.22743200  0.25007600  0.92760400  1
  O  O2  1  0.18349800  0.92942000  0.25007500  1
  O  O3  1  0.22744800  0.25008200  0.57231000  1
  O  O4  1  0.81650300  0.74987200  0.42959600  1
  O  O5  1  0.77257100  0.42772400  0.74993900  1
  O  O6  1  0.77259000  0.07242300  0.74993900  1
  O  O7  1  0.81652700  0.74987000  0.07053800  1
loop_
_geom_bond_atom_site_label_1
_geom_bond_atom_site_label_2
_geom_bond_distance
_geom_bond_site_symmetry_2
Mg0 O6 2.002635 1_555
Mg0 O3 2.002703 1_555
Mg0 O5 2.002736 1_555
Mg0 O1 2.002752 1_555
Cr0 O4 1.686607 1_455
Cr0 O0 1.686623 1_555
Cr0 O2 1.686919 1_555
Cr0 O7 1.687012 1_455
Cr1 O3 1.828054 1_555
Cr1 O5 1.828067 1_455
Cr1 O1 1.828102 1_555
Cr1 O6 1.828128 1_455
Ag0 O0 2.447854 1_555
Ag0 O2 2.447948 1_545
Ag0 O3 2.504852 1_555
Ag0 O1 2.504925 1_554
Ag0 Cl1 2.590792 1_455
Ag0 Cl1 2.853249 1_555
Ag1 O4 2.443405 1_555
Ag1 O0 2.443539 1_555
Ag1 O3 2.663996 1_555
Ag1 O5 2.664179 1_555
Ag1 Cl0 2.809176 1_555
Ag1 Cl1 2.809533 1_555
Ag2 O2 2.443722 1_555
Ag2 O4 2.444965 1_555
Ag2 O6 2.664421 1_565
Ag2 O3 2.665187 1_565
Ag2 Cl1 2.807830 1_565
Ag2 Cl0 2.808738 1_555
Ag3 O4 2.447717 1_555
Ag3 O7 2.448095 1_556
Ag3 O6 2.504623 1_565
Ag3 O5 2.504954 1_555
Ag3 Cl0 2.590890 1_655
Ag3 Cl0 2.853151 1_555
Ag4 O2 2.444903 1_555
Ag4 O7 2.445246 1_555
Ag4 O1 2.665175 1_564
Ag4 O6 2.665297 1_564
Ag4 Cl1 2.807498 1_565
Ag4 Cl0 2.807760 1_554
Ag5 O7 2.443590 1_555
Ag5 O0 2.444603 1_555
Ag5 O1 2.664146 1_554
Ag5 O5 2.665178 1_554
Ag5 Cl0 2.808383 1_554
Ag5 Cl1 2.809050 1_555
