# generated using pymatgen
data_Ce2SbO2
_symmetry_space_group_name_H-M   'P 1'
_cell_length_a   3.98862666
_cell_length_b   3.98862666
_cell_length_c   7.10404563
_cell_angle_alpha   74.04999254
_cell_angle_beta   74.04999254
_cell_angle_gamma   89.97545939
_symmetry_Int_Tables_number   1
_chemical_formula_structural   Ce2SbO2
_chemical_formula_sum   'Ce2 Sb1 O2'
_cell_volume   104.13952309
_cell_formula_units_Z   1
loop_
 _symmetry_equiv_pos_site_id
 _symmetry_equiv_pos_as_xyz
  1  'x, y, z'
loop_
 _atom_site_type_symbol
 _atom_site_label
 _atom_site_symmetry_multiplicity
 _atom_site_fract_x
 _atom_site_fract_y
 _atom_site_fract_z
 _atom_site_occupancy
  Ce  Ce0  1  0.66109099  0.66109099  0.68596404  1
  Ce  Ce1  1  0.33890901  0.33890901  0.31403596  1
  Sb  Sb0  1  0.00000000  0.00000000  0.00000000  1
  O  O0  1  0.24944970  0.75055030  0.50000000  1
  O  O1  1  0.75055030  0.24944970  0.50000000  1
loop_
_geom_bond_atom_site_label_1
_geom_bond_atom_site_label_2
_geom_bond_distance
_geom_bond_site_symmetry_2
Ce0 O0 2.327565 1_655
Ce0 O1 2.327565 1_565
Ce0 O0 2.345409 1_555
Ce0 O1 2.345409 1_555
Ce0 Sb0 3.456601 1_666
Ce0 Sb0 3.489787 1_566
Ce0 Sb0 3.489787 1_656
Ce0 Sb0 3.524594 1_556
Ce1 O1 2.327565 1_455
Ce1 O0 2.327565 1_545
Ce1 O0 2.345409 1_555
Ce1 O1 2.345409 1_555
Ce1 Sb0 3.456601 1_555
Ce1 Sb0 3.489787 1_565
Ce1 Sb0 3.489787 1_655
Ce1 Sb0 3.524594 1_665
