# generated using pymatgen
data_TiGaP(SO6)2
_symmetry_space_group_name_H-M   'P 1'
_cell_length_a   8.53644974
_cell_length_b   8.53074651
_cell_length_c   22.06980079
_cell_angle_alpha   90.01261798
_cell_angle_beta   90.00000000
_cell_angle_gamma   120.02211793
_symmetry_Int_Tables_number   1
_chemical_formula_structural   TiGaP(SO6)2
_chemical_formula_sum   'Ti6 Ga6 P6 S12 O72'
_cell_volume   1391.54264079
_cell_formula_units_Z   6
loop_
 _symmetry_equiv_pos_site_id
 _symmetry_equiv_pos_as_xyz
  1  'x, y, z'
loop_
 _atom_site_type_symbol
 _atom_site_label
 _atom_site_symmetry_multiplicity
 _atom_site_fract_x
 _atom_site_fract_y
 _atom_site_fract_z
 _atom_site_occupancy
  Ti  Ti0  1  0.00073023  0.99964985  0.64369133  1
  Ti  Ti1  1  0.99891962  0.99964985  0.14369133  1
  Ti  Ti2  1  0.66273147  0.33210641  0.97700452  1
  Ti  Ti3  1  0.66937593  0.33210641  0.47700452  1
  Ti  Ti4  1  0.34338802  0.65887479  0.31041422  1
  Ti  Ti5  1  0.31548577  0.65887479  0.81041422  1
  Ga  Ga0  1  0.00076871  0.99869986  0.35351740  1
  Ga  Ga1  1  0.99793115  0.99869986  0.85351740  1
  Ga  Ga2  1  0.67941353  0.34039438  0.68712800  1
  Ga  Ga3  1  0.66098185  0.34039438  0.18712800  1
  Ga  Ga4  1  0.32941450  0.65395864  0.02021184  1
  Ga  Ga5  1  0.32454315  0.65395864  0.52021184  1
  P  P0  1  0.71862516  0.71177738  0.25054023  1
  P  P1  1  0.99315222  0.71177738  0.75054023  1
  P  P2  1  0.95730692  0.33699284  0.58370716  1
  P  P3  1  0.37968692  0.33699284  0.08370716  1
  P  P4  1  0.04366867  0.37192517  0.91749870  1
  P  P5  1  0.32825551  0.37192517  0.41749870  1
  S  S0  1  0.29091727  0.00087052  0.25024494  1
  S  S1  1  0.99516307  0.28761667  0.24983292  1
  S  S2  1  0.29245360  0.28761667  0.74983292  1
  S  S3  1  0.70995325  0.00087052  0.75024494  1
  S  S4  1  0.38051081  0.04267744  0.58358862  1
  S  S5  1  0.66319392  0.62064969  0.58346786  1
  S  S6  1  0.95745677  0.62064969  0.08346786  1
  S  S7  1  0.66216763  0.04267744  0.08358862  1
  S  S8  1  0.62282341  0.67014063  0.91641888  1
  S  S9  1  0.33015739  0.95256043  0.91721478  1
  S  S10  1  0.62240203  0.95256043  0.41721478  1
  S  S11  1  0.04731622  0.67014063  0.41641888  1
  O  O0  1  0.21232763  0.03622104  0.30428208  1
  O  O1  1  0.83127362  0.79850704  0.30709132  1
  O  O2  1  0.96477570  0.17731106  0.30426978  1
  O  O3  1  0.21253537  0.17731106  0.80426978  1
  O  O4  1  0.96723342  0.79850704  0.80709132  1
  O  O5  1  0.82389342  0.03622104  0.80428208  1
  O  O6  1  0.79371592  0.96791013  0.69599144  1
  O  O7  1  0.17468365  0.20811025  0.69571458  1
  O  O8  1  0.03201907  0.83519132  0.69399302  1
  O  O9  1  0.80317225  0.83519132  0.19399302  1
  O  O10  1  0.03342659  0.20811025  0.19571458  1
  O  O11  1  0.17419421  0.96791013  0.19599144  1
  O  O12  1  0.87111173  0.36669256  0.63939500  1
  O  O13  1  0.48996015  0.12375394  0.63818766  1
  O  O14  1  0.62923112  0.50870278  0.63775355  1
  O  O15  1  0.87947266  0.50870278  0.13775355  1
  O  O16  1  0.63379479  0.12375394  0.13818766  1
  O  O17  1  0.49558182  0.36669256  0.13939500  1
  O  O18  1  0.46846656  0.30074440  0.02716938  1
  O  O19  1  0.84107855  0.54015964  0.02938380  1
  O  O20  1  0.69960470  0.15948445  0.02917827  1
  O  O21  1  0.45988075  0.15948445  0.52917827  1
  O  O22  1  0.69908209  0.54015964  0.52938380  1
  O  O23  1  0.83227884  0.30074440  0.52716938  1
  O  O24  1  0.54560160  0.70344362  0.97121882  1
  O  O25  1  0.16168741  0.46039102  0.97234980  1
  O  O26  1  0.30103427  0.84266341  0.97174532  1
  O  O27  1  0.54162815  0.84266341  0.47174532  1
  O  O28  1  0.29870261  0.46039102  0.47234980  1
  O  O29  1  0.15784102  0.70344362  0.47121882  1
  O  O30  1  0.12679826  0.63472211  0.36255229  1
  O  O31  1  0.50657192  0.87379653  0.36277461  1
  O  O32  1  0.36572014  0.49903213  0.36061980  1
  O  O33  1  0.13331100  0.49903213  0.86061980  1
  O  O34  1  0.36722361  0.87379653  0.86277461  1
  O  O35  1  0.50792285  0.63472211  0.86255229  1
  O  O36  1  0.02394894  0.82748727  0.40894862  1
  O  O37  1  0.80227399  0.97549639  0.40893312  1
  O  O38  1  0.16515527  0.18783170  0.40567045  1
  O  O39  1  0.02267643  0.18783170  0.90567045  1
  O  O40  1  0.17322240  0.97549639  0.90893312  1
  O  O41  1  0.80353833  0.82748727  0.90894862  1
  O  O42  1  0.97418449  0.16469800  0.59411570  1
  O  O43  1  0.19944695  0.02686659  0.59141273  1
  O  O44  1  0.82805418  0.80126097  0.59146874  1
  O  O45  1  0.97320679  0.80126097  0.09146874  1
  O  O46  1  0.82741964  0.02686659  0.09141273  1
  O  O47  1  0.19051351  0.16469800  0.09411570  1
  O  O48  1  0.68808581  0.15885592  0.74175434  1
  O  O49  1  0.47077670  0.30756725  0.74053688  1
  O  O50  1  0.83287610  0.52490561  0.74155739  1
  O  O51  1  0.69203050  0.52490561  0.24155739  1
  O  O52  1  0.83679155  0.30756725  0.24053688  1
  O  O53  1  0.47077111  0.15885592  0.24175434  1
  O  O54  1  0.64065720  0.50593652  0.92504376  1
  O  O55  1  0.85669752  0.35812854  0.92742024  1
  O  O56  1  0.49520865  0.13377648  0.92470828  1
  O  O57  1  0.63856883  0.13377648  0.42470828  1
  O  O58  1  0.50143203  0.35812854  0.42742024  1
  O  O59  1  0.86528032  0.50593652  0.42504376  1
  O  O60  1  0.35792548  0.50043787  0.07443281  1
  O  O61  1  0.13814846  0.64558069  0.07506699  1
  O  O62  1  0.50447185  0.86395823  0.07435342  1
  O  O63  1  0.35948538  0.86395823  0.57435342  1
  O  O64  1  0.50743124  0.64558069  0.57506699  1
  O  O65  1  0.14251139  0.50043787  0.57443281  1
  O  O66  1  0.30530732  0.83704076  0.25868600  1
  O  O67  1  0.52777949  0.69552179  0.25972317  1
  O  O68  1  0.15888453  0.46891728  0.25801543  1
  O  O69  1  0.31003175  0.46891728  0.75801543  1
  O  O70  1  0.16774131  0.69552179  0.75972317  1
  O  O71  1  0.53173244  0.83704076  0.75868600  1
loop_
_geom_bond_atom_site_label_1
_geom_bond_atom_site_label_2
_geom_bond_distance
_geom_bond_site_symmetry_2
Ga0 O1 1.893797 1_455
Ga0 O38 1.905453 1_565
Ga0 O36 1.989728 1_555
Ga0 O0 1.991580 1_565
Ga0 O2 2.016567 1_465
Ga0 O37 2.017561 1_455
Ga1 O4 1.893797 1_555
Ga1 O39 1.905453 1_665
Ga1 O41 1.989728 1_555
Ga1 O5 1.991580 1_565
Ga1 O3 2.016567 1_665
Ga1 O40 2.017561 1_655
Ga2 O12 1.862987 1_555
Ga2 O50 1.890100 1_555
Ga2 O48 1.993194 1_555
Ga2 O14 2.012113 1_555
Ga2 O49 2.034918 1_555
Ga2 O13 2.050829 1_555
Ga3 O17 1.862987 1_555
Ga3 O51 1.890100 1_555
Ga3 O53 1.993194 1_555
Ga3 O15 2.012113 1_555
Ga3 O52 2.034918 1_555
Ga3 O16 2.050829 1_555
Ga4 O25 1.877736 1_554
Ga4 O60 1.877770 1_555
Ga4 O24 1.993421 1_554
Ga4 O61 2.004956 1_555
Ga4 O26 2.045797 1_554
Ga4 O62 2.047044 1_555
Ga5 O28 1.877736 1_555
Ga5 O65 1.877770 1_555
Ga5 O29 1.993421 1_555
Ga5 O64 2.004956 1_555
Ga5 O27 2.045797 1_555
Ga5 O63 2.047044 1_555
O0 S0 1.471590 1_555
O1 P0 1.522315 1_555
O2 S1 1.467099 1_555
O3 S2 1.467099 1_555
O4 P1 1.522315 1_555
O5 S3 1.471590 1_555
O6 S3 1.491662 1_565
O6 Ti0 2.012418 1_655
O7 S2 1.488150 1_555
O7 Ti0 2.010559 1_545
O8 P1 1.557884 1_455
O8 Ti0 1.909898 1_555
O9 P0 1.557884 1_555
O9 Ti1 1.909898 1_555
O10 S1 1.488149 1_455
O10 Ti1 2.010559 1_445
O11 S0 1.491662 1_565
O11 Ti1 2.012418 1_455
O12 P2 1.517397 1_555
O13 S4 1.468433 1_555
O14 S5 1.467954 1_555
O15 S6 1.467954 1_555
O16 S7 1.468433 1_555
O17 P3 1.517397 1_555
O18 P3 1.568842 1_555
O18 Ti2 1.898299 1_554
O19 S6 1.483309 1_555
O19 Ti2 2.024710 1_554
O20 S7 1.489596 1_555
O20 Ti2 2.014463 1_554
O21 S4 1.489596 1_555
O21 Ti3 2.014463 1_555
O22 S5 1.483309 1_555
O22 Ti3 2.024710 1_555
O23 P2 1.568842 1_555
O23 Ti3 1.898299 1_555
O24 S8 1.471467 1_555
O25 P4 1.512857 1_555
O26 S9 1.468451 1_555
O27 S10 1.468451 1_555
O28 P5 1.512857 1_555
O29 S11 1.471467 1_555
O30 S11 1.473070 1_555
O30 Ti4 2.098540 1_555
O31 S10 1.485779 1_555
O31 Ti4 2.020079 1_555
O32 P5 1.583479 1_555
O32 Ti4 1.839619 1_555
O33 P4 1.583479 1_555
O33 Ti5 1.839619 1_555
O34 S9 1.485779 1_555
O34 Ti5 2.020079 1_555
O35 S8 1.473070 1_555
O35 Ti5 2.098540 1_555
O36 S11 1.461754 1_555
O37 S10 1.459019 1_555
O38 P5 1.511550 1_555
O39 P4 1.511553 1_555
O40 S9 1.459010 1_555
O41 S8 1.461759 1_555
O42 P2 1.563937 1_555
O42 Ti0 1.884364 1_645
O43 S4 1.492788 1_555
O43 Ti0 1.966892 1_545
O44 S5 1.488537 1_555
O44 Ti0 1.966770 1_655
O45 S6 1.488541 1_555
O45 Ti1 1.966770 1_555
O46 S7 1.492780 1_555
O46 Ti1 1.966892 1_545
O47 P3 1.563942 1_555
O47 Ti1 1.884364 1_445
O48 S3 1.462261 1_555
O49 S2 1.459129 1_555
O50 P1 1.506610 1_555
O51 P0 1.506613 1_555
O52 S1 1.459120 1_555
O53 S0 1.462266 1_555
O54 S8 1.495030 1_555
O54 Ti2 1.957022 1_555
O55 P4 1.556044 1_655
O55 Ti2 1.902817 1_555
O56 S9 1.490855 1_545
O56 Ti2 1.953893 1_555
O57 S10 1.490848 1_545
O57 Ti3 1.953893 1_555
O58 P5 1.556061 1_555
O58 Ti3 1.902817 1_555
O59 S11 1.495020 1_655
O59 Ti3 1.957022 1_555
O60 P3 1.509905 1_555
O61 S6 1.459642 1_455
O62 S7 1.457479 1_565
O63 S4 1.457473 1_565
O64 S5 1.459659 1_555
O65 P2 1.509895 1_455
O66 S0 1.474775 1_565
O66 Ti4 2.052859 1_555
O67 P0 1.577453 1_555
O67 Ti4 1.826111 1_555
O68 S1 1.488228 1_455
O68 Ti4 1.972088 1_555
O69 S2 1.488232 1_555
O69 Ti5 1.972088 1_555
O70 P1 1.577445 1_455
O70 Ti5 1.826111 1_555
O71 S3 1.474780 1_565
O71 Ti5 2.052859 1_555
