# generated using pymatgen
data_Ho6MgWO12
_symmetry_space_group_name_H-M   'P 1'
_cell_length_a   6.42538792
_cell_length_b   6.67636811
_cell_length_c   6.60052213
_cell_angle_alpha   100.28069293
_cell_angle_beta   98.44687876
_cell_angle_gamma   97.91886094
_symmetry_Int_Tables_number   1
_chemical_formula_structural   Ho6MgWO12
_chemical_formula_sum   'Ho6 Mg1 W1 O12'
_cell_volume   271.64287960
_cell_formula_units_Z   1
loop_
 _symmetry_equiv_pos_site_id
 _symmetry_equiv_pos_as_xyz
  1  'x, y, z'
loop_
 _atom_site_type_symbol
 _atom_site_label
 _atom_site_symmetry_multiplicity
 _atom_site_fract_x
 _atom_site_fract_y
 _atom_site_fract_z
 _atom_site_occupancy
  Ho  Ho0  1  0.14178300  0.32256200  0.57271700  1
  Ho  Ho1  1  0.74065700  0.40962100  0.87007000  1
  Ho  Ho2  1  0.39391700  0.82887800  0.66182500  1
  Ho  Ho3  1  0.61411800  0.14656800  0.33735900  1
  Ho  Ho4  1  0.30421300  0.63773200  0.12593900  1
  Ho  Ho5  1  0.86112700  0.69376600  0.39626000  1
  Mg  Mg0  1  0.36558000  0.20157800  0.94149800  1
  W  W0  1  0.97511800  0.99113500  0.99726500  1
  O  O0  1  0.42825600  0.17250800  0.63101500  1
  O  O1  1  0.18273300  0.57942200  0.41265300  1
  O  O2  1  0.56515100  0.40987700  0.16215600  1
  O  O3  1  0.56396300  0.82308600  0.39535600  1
  O  O4  1  0.81769600  0.42161100  0.56259300  1
  O  O5  1  0.42513100  0.57388700  0.81984600  1
  O  O6  1  0.04916800  0.89056600  0.70416200  1
  O  O7  1  0.30222300  0.97995200  0.09764000  1
  O  O8  1  0.08291700  0.30229800  0.92192100  1
  O  O9  1  0.93871500  0.69042200  0.06796800  1
  O  O10  1  0.67777400  0.05722800  0.92602500  1
  O  O11  1  0.94476500  0.07563400  0.31240100  1
loop_
_geom_bond_atom_site_label_1
_geom_bond_atom_site_label_2
_geom_bond_distance
_geom_bond_site_symmetry_2
Ho0 O1 2.174933 1_555
Ho0 O0 2.231032 1_555
Ho0 O11 2.246666 1_455
Ho0 O4 2.265485 1_455
Ho0 O8 2.414000 1_555
Ho0 O5 2.469760 1_555
Ho1 O4 2.170842 1_555
Ho1 O9 2.195571 1_556
Ho1 O2 2.372055 1_556
Ho1 O8 2.401545 1_655
Ho1 O10 2.434533 1_555
Ho1 O5 2.442923 1_555
Ho1 O0 2.515424 1_555
Ho2 O5 2.166278 1_555
Ho2 O3 2.200166 1_555
Ho2 O1 2.250314 1_555
Ho2 O0 2.322419 1_565
Ho2 O6 2.355152 1_555
Ho2 O10 2.458113 1_565
Ho3 O3 2.248157 1_545
Ho3 O4 2.255122 1_555
Ho3 O11 2.262139 1_555
Ho3 O2 2.301708 1_555
Ho3 O7 2.362860 1_545
Ho3 O0 2.414611 1_555
Ho3 O10 2.776657 1_554
Ho4 O1 2.226083 1_555
Ho4 O5 2.261031 1_554
Ho4 O3 2.291882 1_555
Ho4 O7 2.327012 1_555
Ho4 O9 2.407724 1_455
Ho4 O2 2.428425 1_555
Ho4 O8 2.516767 1_554
Ho5 O3 2.200908 1_555
Ho5 O6 2.281347 1_655
Ho5 O4 2.290651 1_555
Ho5 O9 2.290775 1_555
Ho5 O1 2.294155 1_655
Ho5 O2 2.587435 1_555
Ho5 O11 2.703454 1_565
Mg0 O7 1.979619 1_546
Mg0 O2 1.984081 1_556
Mg0 O8 2.016462 1_555
Mg0 O0 2.126432 1_555
Mg0 O10 2.349650 1_555
O6 W0 2.077212 1_455
O7 W0 2.124567 1_454
O8 W0 2.261926 1_445
O9 W0 2.130808 1_554
O10 W0 2.026931 1_545
O11 W0 2.100856 1_544
