# generated using pymatgen
data_Na2Ca2Hf6Si3(S3O16)3
_symmetry_space_group_name_H-M   'P 1'
_cell_length_a   17.98577904
_cell_length_b   8.99114374
_cell_length_c   23.45256556
_cell_angle_alpha   90.03830108
_cell_angle_beta   89.95365189
_cell_angle_gamma   120.00712823
_symmetry_Int_Tables_number   1
_chemical_formula_structural   Na2Ca2Hf6Si3(S3O16)3
_chemical_formula_sum   'Na6 Ca6 Hf18 Si9 S27 O144'
_cell_volume   3284.23196017
_cell_formula_units_Z   3
loop_
 _symmetry_equiv_pos_site_id
 _symmetry_equiv_pos_as_xyz
  1  'x, y, z'
loop_
 _atom_site_type_symbol
 _atom_site_label
 _atom_site_symmetry_multiplicity
 _atom_site_fract_x
 _atom_site_fract_y
 _atom_site_fract_z
 _atom_site_occupancy
  Na  Na0  1  0.00207160  0.99009568  0.49390237  1
  Na  Na1  1  0.50023573  0.01197853  0.99798858  1
  Na  Na2  1  0.32991708  0.32394036  0.83849251  1
  Na  Na3  1  0.83509299  0.33397701  0.83592603  1
  Na  Na4  1  0.32522809  0.32268525  0.33194975  1
  Na  Na5  1  0.83200293  0.33815943  0.33591959  1
  Ca  Ca0  1  0.00478684  0.99560608  0.35336984  1
  Ca  Ca1  1  0.49957205  0.00718527  0.85551787  1
  Ca  Ca2  1  0.00143922  0.00704882  0.65029335  1
  Ca  Ca3  1  0.50083312  0.99405348  0.15085841  1
  Ca  Ca4  1  0.83592085  0.33464376  0.98071174  1
  Ca  Ca5  1  0.33542889  0.33522070  0.47896231  1
  Hf  Hf0  1  0.50981223  0.01108376  0.35423073  1
  Hf  Hf1  1  0.01101440  0.00976041  0.85543291  1
  Hf  Hf2  1  0.50465838  0.00172914  0.64367236  1
  Hf  Hf3  1  0.01077141  0.00740710  0.14633586  1
  Hf  Hf4  1  0.32458493  0.32730020  0.68608104  1
  Hf  Hf5  1  0.83339497  0.32518097  0.68173685  1
  Hf  Hf6  1  0.32807972  0.33627977  0.18547282  1
  Hf  Hf7  1  0.82653736  0.32106962  0.18683477  1
  Hf  Hf8  1  0.32677746  0.32171496  0.97726684  1
  Hf  Hf9  1  0.82641715  0.33147104  0.47528403  1
  Hf  Hf10  1  0.16402473  0.66998546  0.02441687  1
  Hf  Hf11  1  0.66403787  0.65885672  0.02270387  1
  Hf  Hf12  1  0.16489780  0.66976133  0.51875723  1
  Hf  Hf13  1  0.66404485  0.66130717  0.52153030  1
  Hf  Hf14  1  0.15760891  0.66789248  0.31050012  1
  Hf  Hf15  1  0.67019333  0.66501625  0.31048969  1
  Hf  Hf16  1  0.16953552  0.67302946  0.81199339  1
  Hf  Hf17  1  0.65947560  0.65691558  0.81436860  1
  Si  Si0  1  0.14898633  0.00440770  0.25062434  1
  Si  Si1  1  0.64685723  0.99778761  0.25010600  1
  Si  Si2  1  0.14676381  0.29619313  0.75017382  1
  Si  Si3  1  0.68996776  0.04105538  0.58173506  1
  Si  Si4  1  0.18920206  0.33716789  0.08184501  1
  Si  Si5  1  0.51969538  0.37599197  0.91956428  1
  Si  Si6  1  0.16686588  0.95119855  0.91684406  1
  Si  Si7  1  0.66514570  0.38062402  0.41644109  1
  Si  Si8  1  0.01918341  0.66445446  0.41850427  1
  S  S0  1  0.35242123  0.70521576  0.25290444  1
  S  S1  1  0.85370040  0.70496432  0.24736712  1
  S  S2  1  0.99809100  0.29138248  0.24830400  1
  S  S3  1  0.49903900  0.29383953  0.25171594  1
  S  S4  1  0.64887722  0.29453996  0.74903238  1
  S  S5  1  0.99807418  0.70277540  0.75203961  1
  S  S6  1  0.49918035  0.70503771  0.74850846  1
  S  S7  1  0.35448031  0.00284088  0.74779778  1
  S  S8  1  0.85149869  -0.00005576  0.75231251  1
  S  S9  1  0.47875282  0.33202719  0.58530817  1
  S  S10  1  0.97812381  0.33676963  0.58011293  1
  S  S11  1  0.18793536  0.03786416  0.58182224  1
  S  S12  1  0.33351912  0.62714530  0.58466821  1
  S  S13  1  0.83224634  0.61889355  0.58120146  1
  S  S14  1  0.47751792  0.61935992  0.08044131  1
  S  S15  1  0.97794268  0.62559232  0.08487137  1
  S  S16  1  0.33330797  0.04691924  0.08135126  1
  S  S17  1  0.83380344  0.03861805  0.08449629  1
  S  S18  1  0.68787552  0.33589742  0.08214330  1
  S  S19  1  0.30786594  0.66367250  0.91899281  1
  S  S20  1  0.80992937  0.67145207  0.91441395  1
  S  S21  1  0.02460349  0.38061423  0.91472215  1
  S  S22  1  0.66763867  0.94957838  0.91700701  1
  S  S23  1  0.31037661  0.94812334  0.41410969  1
  S  S24  1  0.80813033  0.95194269  0.41867377  1
  S  S25  1  0.16733381  0.38490253  0.41692473  1
  S  S26  1  0.52491029  0.66917902  0.41441125  1
  O  O0  1  0.11643370  0.05324587  0.30636097  1
  O  O1  1  0.60090453  0.03289583  0.30600312  1
  O  O2  1  0.40942266  0.79124381  0.30274032  1
  O  O3  1  0.90282319  0.76876570  0.29962865  1
  O  O4  1  0.48339329  0.17910386  0.30214616  1
  O  O5  1  0.97740955  0.18958289  0.29999736  1
  O  O6  1  0.10079157  0.16912847  0.80602573  1
  O  O7  1  0.61563800  0.19174965  0.79939533  1
  O  O8  1  0.48155803  0.77133055  0.79955412  1
  O  O9  1  0.98208162  0.78552117  0.80222683  1
  O  O10  1  0.40491332  0.03849144  0.79917194  1
  O  O11  1  0.90755854  0.02977037  0.80246381  1
  O  O12  1  0.39732913  0.97675364  0.69761580  1
  O  O13  1  0.88346885  0.96743592  0.70025145  1
  O  O14  1  0.09460909  0.22417934  0.69332747  1
  O  O15  1  0.59272508  0.21044214  0.69834668  1
  O  O16  1  0.01314571  0.79980200  0.70006421  1
  O  O17  1  0.51201197  0.81771920  0.69807024  1
  O  O18  1  0.38424014  0.80281292  0.20069189  1
  O  O19  1  0.89423136  0.81532082  0.19723005  1
  O  O20  1  0.00935352  0.20484518  0.19784064  1
  O  O21  1  0.51469196  0.22650986  0.20000451  1
  O  O22  1  0.08677888  0.97420027  0.19483158  1
  O  O23  1  0.59493281  0.96494076  0.19309008  1
  O  O24  1  0.43633499  0.35995637  0.63561795  1
  O  O25  1  0.93817661  0.36292818  0.63407544  1
  O  O26  1  0.24255307  0.12625416  0.63429117  1
  O  O27  1  0.75019665  0.13697599  0.63904144  1
  O  O28  1  0.32039280  0.51312881  0.63550594  1
  O  O29  1  0.82141022  0.51222209  0.63410358  1
  O  O30  1  0.44104195  0.51711324  0.13323268  1
  O  O31  1  0.93573062  0.51228208  0.13471623  1
  O  O32  1  0.32230506  0.12912464  0.13319517  1
  O  O33  1  0.81844661  0.12587506  0.13456280  1
  O  O34  1  0.25044104  0.36698240  0.13782045  1
  O  O35  1  0.74236192  0.35845367  0.13368327  1
  O  O36  1  0.23636165  0.30672480  0.02772002  1
  O  O37  1  0.72738576  0.31171639  0.03129861  1
  O  O38  1  0.42424438  0.52753762  0.03048668  1
  O  O39  1  0.92858219  0.55619682  0.03285320  1
  O  O40  1  0.34419951  0.15384478  0.03013293  1
  O  O41  1  0.85103740  0.14328458  0.03357096  1
  O  O42  1  0.22831926  0.14426209  0.53210165  1
  O  O43  1  0.73620270  0.16722830  0.52886386  1
  O  O44  1  0.35284906  0.56063166  0.53447468  1
  O  O45  1  0.84380823  0.53309374  0.53113853  1
  O  O46  1  0.42819580  0.29565035  0.53416614  1
  O  O47  1  0.92341438  0.32004054  0.53135559  1
  O  O48  1  0.26347141  0.68187259  0.96936121  1
  O  O49  1  0.77044407  0.69385340  0.96692435  1
  O  O50  1  0.07452009  0.45634628  0.96738319  1
  O  O51  1  0.58435121  0.48688230  0.97276043  1
  O  O52  1  0.15463603  0.83311293  0.97224902  1
  O  O53  1  0.66304715  0.84957648  0.96877110  1
  O  O54  1  0.27037473  0.84692247  0.46798455  1
  O  O55  1  0.76269266  0.84525415  0.46979577  1
  O  O56  1  0.16434170  0.47983643  0.47001399  1
  O  O57  1  0.65421635  0.47451907  0.47300008  1
  O  O58  1  0.08287348  0.68247169  0.47328777  1
  O  O59  1  0.57554599  0.69356804  0.46786587  1
  O  O60  1  0.06692531  0.63930646  0.36210047  1
  O  O61  1  0.56955220  0.64892863  0.36476408  1
  O  O62  1  0.25459949  0.85898022  0.36454804  1
  O  O63  1  0.75736758  0.87374693  0.36644246  1
  O  O64  1  0.17619895  0.48755946  0.36553360  1
  O  O65  1  0.68088604  0.50128208  0.36135106  1
  O  O66  1  0.06915079  0.48938620  0.86434709  1
  O  O67  1  0.56876730  0.49491298  0.86128117  1
  O  O68  1  0.18128998  0.86232803  0.86049419  1
  O  O69  1  0.67611498  0.86208678  0.86436931  1
  O  O70  1  0.25739341  0.64149473  0.86592153  1
  O  O71  1  0.75356881  0.64890408  0.86358224  1
  O  O72  1  0.00924742  0.83027641  0.42089986  1
  O  O73  1  0.51551906  0.82312070  0.40724501  1
  O  O74  1  0.39470124  0.96035441  0.40668337  1
  O  O75  1  0.89351958  0.97282256  0.41592471  1
  O  O76  1  0.08760838  0.21948653  0.41762609  1
  O  O77  1  0.57962999  0.19318844  0.40687396  1
  O  O78  1  0.01458955  0.20691461  0.90658336  1
  O  O79  1  0.51320392  0.19262517  0.91855759  1
  O  O80  1  0.08055278  0.96663557  0.90674502  1
  O  O81  1  0.58914671  0.95906533  0.91391590  1
  O  O82  1  0.39358932  0.81428408  0.91501340  1
  O  O83  1  0.89408576  0.82737829  0.90512945  1
  O  O84  1  0.49058004  0.18118637  0.59843686  1
  O  O85  1  0.98543185  0.18364313  0.58504255  1
  O  O86  1  0.10127714  0.00935380  0.58891112  1
  O  O87  1  0.59592942  0.02244634  0.59756798  1
  O  O88  1  0.40870441  0.80069663  0.59881544  1
  O  O89  1  0.90700948  0.78904013  0.58686334  1
  O  O90  1  0.48652674  0.78965414  0.08313380  1
  O  O91  1  0.98782990  0.79721138  0.09524118  1
  O  O92  1  0.40803229  0.02466538  0.08518000  1
  O  O93  1  0.90670084  0.01360618  0.09805271  1
  O  O94  1  0.09452041  0.17121631  0.09422655  1
  O  O95  1  0.60090942  0.19196090  0.08841857  1
  O  O96  1  0.34318411  0.15555316  0.73637016  1
  O  O97  1  0.84374081  0.16183935  0.74539813  1
  O  O98  1  0.24519451  0.31577151  0.74320600  1
  O  O99  1  0.73745044  0.32202611  0.73761214  1
  O  O100  1  0.42565581  0.52877757  0.73596025  1
  O  O101  1  0.91967605  0.52562867  0.74595209  1
  O  O102  1  0.34743656  0.53192596  0.24629949  1
  O  O103  1  0.84198322  0.52871823  0.23608845  1
  O  O104  1  0.42262475  0.31678068  0.24585303  1
  O  O105  1  0.92465374  0.32333330  0.23582757  1
  O  O106  1  0.24686918  0.16679089  0.23683125  1
  O  O107  1  0.74503442  0.17432415  0.24323864  1
  O  O108  1  0.31516311  0.50625775  0.92395481  1
  O  O109  1  0.81806606  0.51704043  0.91718801  1
  O  O110  1  0.42838488  0.37185020  0.92454508  1
  O  O111  1  0.93867185  0.36242868  0.91738320  1
  O  O112  1  0.25050297  0.14404927  0.92239035  1
  O  O113  1  0.74534610  0.12078583  0.91818318  1
  O  O114  1  0.31948191  0.11924408  0.41877754  1
  O  O115  1  0.81441834  0.12348824  0.42478008  1
  O  O116  1  0.24430078  0.36733295  0.42056783  1
  O  O117  1  0.74934179  0.35617656  0.42263579  1
  O  O118  1  0.43960267  0.51584184  0.41864571  1
  O  O119  1  0.92749950  0.48432984  0.42597935  1
  O  O120  1  0.17805600  0.50295449  0.06990154  1
  O  O121  1  0.68548461  0.50083506  0.07658642  1
  O  O122  1  0.06486471  0.64367733  0.07796759  1
  O  O123  1  0.56588706  0.63984500  0.07295306  1
  O  O124  1  0.25385339  0.87573777  0.07411298  1
  O  O125  1  0.75498722  0.86811551  0.07629633  1
  O  O126  1  0.18606016  0.86996219  0.57681416  1
  O  O127  1  0.67672107  0.85200786  0.57178728  1
  O  O128  1  0.25675108  0.64468102  0.57812534  1
  O  O129  1  0.75283718  0.62976088  0.57502452  1
  O  O130  1  0.06465566  0.49296215  0.57462146  1
  O  O131  1  0.56514668  0.48606924  0.57831689  1
  O  O132  1  0.15885926  0.83314147  0.25802063  1
  O  O133  1  0.66327425  0.84184949  0.26746585  1
  O  O134  1  0.26495945  0.67338893  0.26524577  1
  O  O135  1  0.76628839  0.68300756  0.25461831  1
  O  O136  1  0.07707499  0.46174248  0.25478777  1
  O  O137  1  0.57494745  0.46642741  0.26351131  1
  O  O138  1  0.16366250  0.48559739  0.76704357  1
  O  O139  1  0.65785230  0.46847182  0.75620756  1
  O  O140  1  0.07281444  0.67917364  0.76356754  1
  O  O141  1  0.57840006  0.69127889  0.75516022  1
  O  O142  1  0.26795047  0.84927715  0.75443028  1
  O  O143  1  0.76380695  0.85347842  0.76429649  1
loop_
_geom_bond_atom_site_label_1
_geom_bond_atom_site_label_2
_geom_bond_distance
_geom_bond_site_symmetry_2
Na0 O72 2.279173 1_555
Na0 O76 2.578276 1_565
Na0 O75 2.623451 1_455
Na0 O89 2.802160 1_455
Na0 O86 2.806321 1_565
Na0 O85 2.863844 1_465
Na1 O79 2.405653 1_555
Na1 O92 2.669834 1_556
Na1 O82 2.686401 1_545
Na1 O81 2.725040 1_545
Na1 O95 2.732405 1_556
Na1 O90 2.748757 1_546
Na2 O112 2.493333 1_555
Na2 O110 2.576156 1_555
Na2 O108 2.684143 1_555
Na2 O98 2.686011 1_555
Na2 O96 2.905316 1_555
Na2 O100 2.994416 1_555
Na3 O111 2.591138 1_555
Na3 O113 2.628026 1_555
Na3 O109 2.633258 1_555
Na3 O101 2.667190 1_555
Na3 O97 2.676391 1_555
Na3 O99 2.868709 1_555
Na4 O106 2.636726 1_555
Na4 O102 2.643098 1_555
Na4 O116 2.679102 1_555
Na4 O104 2.689933 1_555
Na4 O114 2.705319 1_555
Na4 O118 2.794747 1_555
Na5 O117 2.570634 1_555
Na5 O119 2.623503 1_555
Na5 O107 2.652877 1_555
Na5 O115 2.749960 1_555
Na5 O103 2.854207 1_555
Na5 O105 2.918980 1_555
Ca0 O0 2.114856 1_565
Ca0 O72 2.201598 1_555
Ca0 O3 2.317467 1_455
Ca0 O76 2.354203 1_565
Ca0 O5 2.390386 1_465
Ca0 O75 2.405159 1_455
Ca1 O79 2.148084 1_555
Ca1 O10 2.281991 1_555
Ca1 O82 2.297986 1_545
Ca1 O81 2.315176 1_545
Ca1 O7 2.318959 1_555
Ca1 O8 2.373673 1_545
Ca2 O14 2.089478 1_555
Ca2 O13 2.289598 1_445
Ca2 O86 2.292561 1_555
Ca2 O16 2.296682 1_545
Ca2 O85 2.325286 1_455
Ca2 O89 2.368550 1_445
Ca3 O23 2.088077 1_555
Ca3 O18 2.261008 1_555
Ca3 O21 2.288032 1_565
Ca3 O95 2.312185 1_565
Ca3 O90 2.343113 1_555
Ca3 O92 2.387145 1_565
Ca4 O37 2.203350 1_556
Ca4 O39 2.218211 1_556
Ca4 O41 2.245500 1_556
Ca4 O111 2.284266 1_555
Ca4 O113 2.317026 1_555
Ca4 O109 2.354328 1_555
Ca5 O42 2.214249 1_555
Ca5 O118 2.259264 1_555
Ca5 O116 2.263346 1_555
Ca5 O46 2.276940 1_555
Ca5 O44 2.294047 1_555
Ca5 O114 2.298989 1_555
Hf0 O1 1.917791 1_555
Hf0 O77 1.930105 1_555
Hf0 O73 2.142197 1_545
Hf0 O4 2.172894 1_555
Hf0 O2 2.248558 1_545
Hf0 O74 2.249401 1_545
Hf1 O80 1.910729 1_545
Hf1 O6 1.920447 1_555
Hf1 O78 2.113937 1_555
Hf1 O9 2.200243 1_445
Hf1 O83 2.240420 1_445
Hf1 O11 2.318791 1_455
Hf2 O87 1.894775 1_555
Hf2 O84 2.050472 1_555
Hf2 O88 2.057314 1_545
Hf2 O17 2.145759 1_545
Hf2 O15 2.168321 1_555
Hf2 O12 2.222662 1_545
Hf3 O22 1.913833 1_545
Hf3 O94 1.926682 1_555
Hf3 O91 2.096591 1_445
Hf3 O20 2.157173 1_555
Hf3 O93 2.212875 1_455
Hf3 O19 2.275702 1_445
Hf4 O98 1.921862 1_555
Hf4 O26 2.062044 1_555
Hf4 O28 2.081578 1_555
Hf4 O96 2.099339 1_555
Hf4 O100 2.159026 1_555
Hf4 O24 2.221024 1_555
Hf5 O27 1.890168 1_555
Hf5 O25 2.067273 1_555
Hf5 O29 2.118506 1_555
Hf5 O99 2.154822 1_555
Hf5 O97 2.167331 1_555
Hf5 O101 2.264317 1_555
Hf6 O34 1.914047 1_555
Hf6 O106 1.918275 1_555
Hf6 O102 2.153020 1_555
Hf6 O32 2.187869 1_555
Hf6 O30 2.228677 1_555
Hf6 O104 2.286918 1_555
Hf7 O107 1.924628 1_555
Hf7 O33 2.084732 1_555
Hf7 O103 2.091897 1_555
Hf7 O105 2.098123 1_555
Hf7 O35 2.114597 1_555
Hf7 O31 2.220033 1_555
Hf8 O36 1.959760 1_556
Hf8 O112 1.974410 1_555
Hf8 O110 2.060309 1_555
Hf8 O40 2.095164 1_556
Hf8 O108 2.170227 1_555
Hf8 O38 2.193452 1_556
Hf9 O117 1.951094 1_555
Hf9 O43 1.998762 1_555
Hf9 O119 2.007681 1_555
Hf9 O45 2.128474 1_555
Hf9 O115 2.130775 1_555
Hf9 O47 2.228587 1_555
Hf10 O120 1.959251 1_555
Hf10 O52 1.981683 1_554
Hf10 O122 2.094953 1_555
Hf10 O124 2.098014 1_555
Hf10 O48 2.164032 1_554
Hf10 O50 2.231030 1_554
Hf11 O51 1.897541 1_554
Hf11 O123 2.056562 1_555
Hf11 O121 2.077428 1_555
Hf11 O53 2.138736 1_554
Hf11 O125 2.171939 1_555
Hf11 O49 2.206156 1_554
Hf12 O58 1.870289 1_555
Hf12 O56 2.050187 1_555
Hf12 O54 2.128494 1_555
Hf12 O126 2.133352 1_555
Hf12 O130 2.150896 1_555
Hf12 O128 2.257318 1_555
Hf13 O57 1.961630 1_555
Hf13 O127 1.996960 1_555
Hf13 O55 2.102285 1_555
Hf13 O131 2.148467 1_555
Hf13 O129 2.159074 1_555
Hf13 O59 2.160378 1_555
Hf14 O132 1.921415 1_555
Hf14 O60 1.941310 1_555
Hf14 O136 2.134310 1_555
Hf14 O62 2.145825 1_555
Hf14 O134 2.181308 1_555
Hf14 O64 2.225380 1_555
Hf15 O133 1.939522 1_555
Hf15 O65 1.978124 1_555
Hf15 O137 2.068250 1_555
Hf15 O135 2.108857 1_555
Hf15 O61 2.156910 1_555
Hf15 O63 2.181572 1_555
Hf16 O138 1.944793 1_555
Hf16 O68 1.968061 1_555
Hf16 O140 2.102026 1_555
Hf16 O66 2.123920 1_555
Hf16 O70 2.151476 1_555
Hf16 O142 2.158760 1_555
Hf17 O67 1.901619 1_555
Hf17 O69 2.076812 1_555
Hf17 O71 2.080036 1_555
Hf17 O141 2.145807 1_555
Hf17 O139 2.163250 1_555
Hf17 O143 2.169283 1_555
O0 Si0 1.580961 1_555
O1 Si1 1.661301 1_545
O2 S0 1.490961 1_555
O3 S1 1.451138 1_555
O4 S3 1.500984 1_555
O5 S2 1.451247 1_555
O6 Si2 1.661340 1_555
O7 S4 1.433292 1_555
O8 S6 1.440935 1_555
O9 S5 1.494637 1_555
O10 S7 1.444869 1_555
O11 S8 1.484245 1_555
O12 S7 1.487615 1_565
O13 S8 1.439900 1_565
O14 Si2 1.571603 1_555
O15 S4 1.497222 1_555
O16 S5 1.443863 1_455
O17 S6 1.498754 1_555
O18 S0 1.447408 1_555
O19 S1 1.474870 1_555
O20 S2 1.484288 1_455
O21 S3 1.444115 1_555
O22 Si0 1.653986 1_565
O23 Si1 1.572589 1_555
O24 S9 1.492320 1_555
O25 S10 1.529812 1_555
O26 S11 1.526624 1_555
O27 Si3 1.670300 1_555
O28 S12 1.512373 1_555
O29 S13 1.520330 1_555
O30 S14 1.485051 1_555
O31 S15 1.485727 1_555
O32 S16 1.486108 1_555
O33 S17 1.511785 1_555
O34 Si4 1.647700 1_555
O35 S18 1.505110 1_555
O36 Si4 1.623478 1_555
O37 S18 1.458417 1_555
O38 S14 1.477005 1_555
O39 S15 1.453430 1_555
O40 S16 1.489399 1_555
O41 S17 1.455080 1_555
O42 S11 1.451752 1_555
O43 Si3 1.603938 1_555
O44 S12 1.438956 1_555
O45 S13 1.475036 1_555
O46 S9 1.440893 1_555
O47 S10 1.466961 1_555
O48 S19 1.479403 1_555
O49 S20 1.484196 1_555
O50 S21 1.477906 1_555
O51 Si5 1.656456 1_555
O52 Si6 1.622296 1_555
O53 S22 1.488652 1_555
O54 S23 1.512378 1_555
O55 S24 1.497113 1_555
O56 S25 1.525158 1_555
O57 Si7 1.635513 1_555
O58 Si8 1.675019 1_555
O59 S26 1.500288 1_555
O60 Si8 1.652345 1_555
O61 S26 1.475797 1_555
O62 S23 1.481979 1_555
O63 S24 1.478859 1_555
O64 S25 1.477826 1_555
O65 Si7 1.618770 1_555
O66 S21 1.486753 1_555
O67 Si5 1.687223 1_555
O68 Si6 1.630229 1_555
O69 S22 1.511414 1_555
O70 S19 1.494475 1_555
O71 S20 1.511929 1_555
O72 Si8 1.588814 1_555
O73 S26 1.485509 1_555
O74 S23 1.474928 1_555
O75 S24 1.452423 1_555
O76 S25 1.461266 1_555
O77 Si7 1.632037 1_555
O78 S21 1.492070 1_555
O79 Si5 1.593658 1_555
O80 Si6 1.643620 1_555
O81 S22 1.458135 1_555
O82 S19 1.459885 1_555
O83 S20 1.476931 1_555
O84 S9 1.506202 1_555
O85 S10 1.451694 1_555
O86 S11 1.456931 1_555
O87 Si3 1.656069 1_555
O88 S12 1.504361 1_555
O89 S13 1.452095 1_555
O90 S14 1.458209 1_555
O91 S15 1.482190 1_555
O92 S16 1.457243 1_555
O93 S17 1.471858 1_555
O94 Si4 1.633684 1_555
O95 S18 1.455424 1_555
O96 S7 1.509305 1_555
O97 S8 1.538864 1_555
O98 Si2 1.696969 1_555
O99 S4 1.508729 1_555
O100 S6 1.500237 1_555
O101 S5 1.516299 1_555
O102 S0 1.523026 1_555
O103 S1 1.513609 1_555
O104 S3 1.494736 1_555
O105 S2 1.514261 1_555
O106 Si0 1.662660 1_555
O107 Si1 1.691116 1_545
O108 S19 1.489964 1_555
O109 S20 1.468498 1_555
O110 Si5 1.628089 1_555
O111 S21 1.471883 1_655
O112 Si6 1.636295 1_545
O113 S22 1.473713 1_545
O114 S23 1.467579 1_545
O115 S24 1.495836 1_545
O116 S25 1.472246 1_555
O117 Si7 1.641939 1_555
O118 S26 1.465915 1_555
O119 Si8 1.643639 1_655
O120 Si4 1.624840 1_555
O121 S18 1.510665 1_555
O122 S15 1.497368 1_455
O123 S14 1.515819 1_555
O124 S16 1.496656 1_565
O125 S17 1.490987 1_565
O126 S11 1.497585 1_565
O127 Si3 1.610856 1_565
O128 S12 1.474091 1_555
O129 S13 1.486717 1_555
O130 S10 1.491571 1_455
O131 S9 1.485577 1_555
O132 Si0 1.645222 1_565
O133 Si1 1.622886 1_555
O134 S0 1.479639 1_555
O135 S1 1.492915 1_555
O136 S2 1.486945 1_455
O137 S3 1.493139 1_555
O138 Si2 1.621904 1_555
O139 S4 1.499062 1_555
O140 S5 1.486995 1_455
O141 S6 1.498820 1_555
O142 S7 1.484343 1_565
O143 S8 1.491005 1_565
