# generated using pymatgen
data_MgZn2(FeO2)4
_symmetry_space_group_name_H-M   'P 1'
_cell_length_a   2.95290292
_cell_length_b   5.33152706
_cell_length_c   11.14446900
_cell_angle_alpha   90.00000000
_cell_angle_beta   90.00000000
_cell_angle_gamma   106.17533219
_symmetry_Int_Tables_number   1
_chemical_formula_structural   MgZn2(FeO2)4
_chemical_formula_sum   'Mg1 Zn2 Fe4 O8'
_cell_volume   168.50722231
_cell_formula_units_Z   1
loop_
 _symmetry_equiv_pos_site_id
 _symmetry_equiv_pos_as_xyz
  1  'x, y, z'
loop_
 _atom_site_type_symbol
 _atom_site_label
 _atom_site_symmetry_multiplicity
 _atom_site_fract_x
 _atom_site_fract_y
 _atom_site_fract_z
 _atom_site_occupancy
  Mg  Mg0  1  0.69616600  0.39115400  0.75000000  1
  Zn  Zn0  1  0.42990900  0.86325500  0.75000000  1
  Zn  Zn1  1  0.62671500  0.25198100  0.25000000  1
  Fe  Fe0  1  0.88300600  0.76626900  0.09129700  1
  Fe  Fe1  1  0.14113900  0.27999700  0.98341400  1
  Fe  Fe2  1  0.88300600  0.76626900  0.40870300  1
  Fe  Fe3  1  0.14113900  0.27999700  0.51658600  1
  O  O0  1  0.23750400  0.47675700  0.36962600  1
  O  O1  1  0.75769700  0.51131900  0.58459400  1
  O  O2  1  0.75769700  0.51131900  0.91540600  1
  O  O3  1  0.23750400  0.47675700  0.13037400  1
  O  O4  1  0.98249700  0.96529800  0.25000000  1
  O  O5  1  0.06472900  0.13013400  0.75000000  1
  O  O6  1  0.50772900  0.01474700  0.00711600  1
  O  O7  1  0.50772900  0.01474700  0.49288400  1
loop_
_geom_bond_atom_site_label_1
_geom_bond_atom_site_label_2
_geom_bond_distance
_geom_bond_site_symmetry_2
Mg0 O2 1.943345 1_555
Mg0 O1 1.943345 1_555
Mg0 O5 1.991220 1_655
Mg0 O5 1.991876 1_555
Fe0 O4 2.041268 1_555
Fe0 O3 2.136861 1_555
Fe0 O3 2.137334 1_655
Fe0 O6 2.162549 1_665
Fe0 O6 2.163581 1_565
Fe0 O2 2.355152 1_554
Fe1 O3 1.922884 1_556
Fe1 O6 2.023453 1_456
Fe1 O6 2.023474 1_556
Fe1 O2 2.038508 1_455
Fe1 O2 2.039398 1_555
Fe2 O4 2.041268 1_555
Fe2 O0 2.136861 1_555
Fe2 O0 2.137334 1_655
Fe2 O7 2.162549 1_665
Fe2 O7 2.163581 1_565
Fe2 O1 2.355152 1_555
Fe3 O0 1.922884 1_555
Fe3 O7 2.023453 1_455
Fe3 O7 2.023474 1_555
Fe3 O1 2.038508 1_455
Fe3 O1 2.039398 1_555
O0 Zn1 2.293953 1_455
O0 Zn1 2.302559 1_555
O3 Zn1 2.293953 1_455
O3 Zn1 2.302559 1_555
O4 Zn1 2.081969 1_565
O4 Zn1 2.082064 1_665
O5 Zn0 2.010535 1_545
O5 Zn0 2.013075 1_445
