# generated using pymatgen
data_Na6Ga4Si3(SO8)3
_symmetry_space_group_name_H-M   'P 1'
_cell_length_a   8.91032345
_cell_length_b   8.81086398
_cell_length_c   21.97968391
_cell_angle_alpha   90.54847768
_cell_angle_beta   89.79583956
_cell_angle_gamma   120.30084614
_symmetry_Int_Tables_number   1
_chemical_formula_structural   Na6Ga4Si3(SO8)3
_chemical_formula_sum   'Na18 Ga12 Si9 S9 O72'
_cell_volume   1489.76957527
_cell_formula_units_Z   3
loop_
 _symmetry_equiv_pos_site_id
 _symmetry_equiv_pos_as_xyz
  1  'x, y, z'
loop_
 _atom_site_type_symbol
 _atom_site_label
 _atom_site_symmetry_multiplicity
 _atom_site_fract_x
 _atom_site_fract_y
 _atom_site_fract_z
 _atom_site_occupancy
  Na  Na0  1  0.63087510  0.00309593  0.25594417  1
  Na  Na1  1  0.35716276  0.35895853  0.25268158  1
  Na  Na2  1  0.64063476  0.64031982  0.74244784  1
  Na  Na3  1  0.99134731  0.36686517  0.74737356  1
  Na  Na4  1  0.02491336  0.69226257  0.58789390  1
  Na  Na5  1  0.67340345  0.96598865  0.58265723  1
  Na  Na6  1  0.30601181  0.96818329  0.09043146  1
  Na  Na7  1  0.02910928  0.32737463  0.08294305  1
  Na  Na8  1  0.96925618  0.66344933  0.90691249  1
  Na  Na9  1  0.71071357  0.03981818  0.91198484  1
  Na  Na10  1  0.95810605  0.29168789  0.41945364  1
  Na  Na11  1  0.34057431  0.03229857  0.41508219  1
  Na  Na12  1  0.98502707  0.99528187  0.50364766  1
  Na  Na13  1  0.99623287  0.00756846  0.99880232  1
  Na  Na14  1  0.66283882  0.32634326  0.82657053  1
  Na  Na15  1  0.67379282  0.33664287  0.33485424  1
  Na  Na16  1  0.33037707  0.67054136  0.17042440  1
  Na  Na17  1  0.33300945  0.66622227  0.66511940  1
  Ga  Ga0  1  0.98972284  0.00619635  0.34861081  1
  Ga  Ga1  1  0.99543608  0.01921825  0.84166194  1
  Ga  Ga2  1  0.97206985  0.98253028  0.64777035  1
  Ga  Ga3  1  0.99325986  0.00853837  0.15554945  1
  Ga  Ga4  1  0.69406969  0.35087929  0.68404815  1
  Ga  Ga5  1  0.66134186  0.30517571  0.18948035  1
  Ga  Ga6  1  0.68623511  0.32708735  0.98280113  1
  Ga  Ga7  1  0.67834389  0.32352142  0.48983051  1
  Ga  Ga8  1  0.34350084  0.66416221  0.01493514  1
  Ga  Ga9  1  0.35452258  0.65675004  0.52342396  1
  Ga  Ga10  1  0.31912174  0.68387700  0.31346466  1
  Ga  Ga11  1  0.31525489  0.67241809  0.80844295  1
  Si  Si0  1  0.27890385  0.99670222  0.24881626  1
  Si  Si1  1  0.00533518  0.30488655  0.25073554  1
  Si  Si2  1  0.00325532  0.72116960  0.75026962  1
  Si  Si3  1  0.69364393  0.99954213  0.75031569  1
  Si  Si4  1  0.97350076  0.33432806  0.58281351  1
  Si  Si5  1  0.66299952  0.61199841  0.58400058  1
  Si  Si6  1  0.66517240  0.02661552  0.08259572  1
  Si  Si7  1  0.05171237  0.37591759  0.91711890  1
  Si  Si8  1  0.62450411  0.95326309  0.41711951  1
  S  S0  1  0.71080679  0.70437356  0.24905343  1
  S  S1  1  0.29152231  0.28695415  0.74997775  1
  S  S2  1  0.37460317  0.04630237  0.58321831  1
  S  S3  1  0.95202590  0.62498512  0.08358758  1
  S  S4  1  0.38572747  0.33841736  0.08247280  1
  S  S5  1  0.62344234  0.65802240  0.91783866  1
  S  S6  1  0.33444619  0.96376423  0.91882007  1
  S  S7  1  0.33731313  0.37716673  0.41502002  1
  S  S8  1  0.03833697  0.66840109  0.41691192  1
  O  O0  1  0.19287975  0.03101411  0.30954928  1
  O  O1  1  0.81788235  0.78159840  0.30394088  1
  O  O2  1  0.95476302  0.17185190  0.30817487  1
  O  O3  1  0.21556530  0.18479706  0.80732095  1
  O  O4  1  0.97302543  0.80786775  0.81361656  1
  O  O5  1  0.81944139  0.04996743  0.81153105  1
  O  O6  1  0.77824033  0.95464916  0.69227156  1
  O  O7  1  0.17793819  0.20765642  0.69726495  1
  O  O8  1  0.03467357  0.83803330  0.69019657  1
  O  O9  1  0.78695775  0.81855418  0.19449087  1
  O  O10  1  0.04691145  0.22560708  0.18866766  1
  O  O11  1  0.16593979  0.96825834  0.18627626  1
  O  O12  1  0.89092127  0.37948275  0.64219068  1
  O  O13  1  0.49062994  0.12959644  0.63554924  1
  O  O14  1  0.63113498  0.49958898  0.64599101  1
  O  O15  1  0.86518994  0.51100206  0.13593861  1
  O  O16  1  0.61828958  0.11212361  0.14100367  1
  O  O17  1  0.48572542  0.36320440  0.13887511  1
  O  O18  1  0.47231247  0.31411689  0.02827330  1
  O  O19  1  0.85063935  0.54857366  0.02578228  1
  O  O20  1  0.70732480  0.15427429  0.02301774  1
  O  O21  1  0.45019521  0.14549989  0.52499919  1
  O  O22  1  0.69806848  0.52278364  0.52407052  1
  O  O23  1  0.84603474  0.28237368  0.52243526  1
  O  O24  1  0.54594361  0.69704036  0.97233134  1
  O  O25  1  0.15951212  0.46453561  0.98098874  1
  O  O26  1  0.30524486  0.85406057  0.97466720  1
  O  O27  1  0.52830569  0.83898691  0.47716347  1
  O  O28  1  0.30047645  0.45607940  0.46877781  1
  O  O29  1  0.14650175  0.69808461  0.47104268  1
  O  O30  1  0.11621315  0.63059408  0.36196194  1
  O  O31  1  0.50272526  0.87028703  0.35540549  1
  O  O32  1  0.35849242  0.47904096  0.35928112  1
  O  O33  1  0.14015994  0.50738680  0.85975316  1
  O  O34  1  0.37263540  0.88476358  0.86554570  1
  O  O35  1  0.52148198  0.63400073  0.86294364  1
  O  O36  1  0.02854377  0.83055401  0.40902215  1
  O  O37  1  0.82261689  0.98138240  0.41064157  1
  O  O38  1  0.17586914  0.19628216  0.41212489  1
  O  O39  1  0.01983119  0.17499044  0.91142176  1
  O  O40  1  0.17739208  0.97592271  0.91308862  1
  O  O41  1  0.80132252  0.81617066  0.91578504  1
  O  O42  1  0.98640947  0.15779702  0.59185056  1
  O  O43  1  0.20130384  0.02654255  0.58775046  1
  O  O44  1  0.84207499  0.80806503  0.58562254  1
  O  O45  1  0.97840151  0.80410839  0.08712937  1
  O  O46  1  0.84525070  0.01892857  0.09129537  1
  O  O47  1  0.20895424  0.17611111  0.08395797  1
  O  O48  1  0.67927076  0.17523621  0.74167382  1
  O  O49  1  0.46529996  0.30851101  0.74614483  1
  O  O50  1  0.82415592  0.52541020  0.74920720  1
  O  O51  1  0.68789380  0.52771941  0.24059103  1
  O  O52  1  0.82956467  0.31880745  0.24366487  1
  O  O53  1  0.47428364  0.17999722  0.24520464  1
  O  O54  1  0.64061808  0.49951873  0.92618981  1
  O  O55  1  0.85394842  0.36006594  0.92152556  1
  O  O56  1  0.49403864  0.14173170  0.92516679  1
  O  O57  1  0.64240394  0.15372636  0.42193419  1
  O  O58  1  0.48928089  0.35457930  0.42099058  1
  O  O59  1  0.86377942  0.50878892  0.42006212  1
  O  O60  1  0.35905490  0.49220628  0.07863278  1
  O  O61  1  0.12766637  0.63978875  0.07947045  1
  O  O62  1  0.48045666  0.83769191  0.07348456  1
  O  O63  1  0.35423519  0.86683737  0.57804830  1
  O  O64  1  0.50209285  0.65214903  0.58195657  1
  O  O65  1  0.15494998  0.52084278  0.57169732  1
  O  O66  1  0.31934508  0.83540423  0.25174164  1
  O  O67  1  0.53604247  0.68635021  0.25449166  1
  O  O68  1  0.18915640  0.48979943  0.25984064  1
  O  O69  1  0.31016419  0.46642270  0.75673949  1
  O  O70  1  0.16429243  0.68097013  0.75258724  1
  O  O71  1  0.51284087  0.81248647  0.76204350  1
loop_
_geom_bond_atom_site_label_1
_geom_bond_atom_site_label_2
_geom_bond_distance
_geom_bond_site_symmetry_2
Na0 O66 2.399472 1_545
Na0 O52 2.446732 1_555
Na0 O67 2.474365 1_545
Na0 O31 2.476927 1_545
Na0 O53 2.576010 1_555
Na0 O16 2.734052 1_555
Na0 O2 2.741960 1_555
Na0 O9 2.937488 1_545
Na1 O53 2.292744 1_555
Na1 O68 2.308901 1_555
Na1 O67 2.494347 1_555
Na1 O51 2.558564 1_555
Na1 O32 2.559183 1_555
Na1 O17 2.740243 1_555
Na1 O10 2.778632 1_555
Na1 O0 2.800391 1_555
Na2 O50 2.323007 1_555
Na2 O71 2.347382 1_555
Na2 O14 2.425797 1_555
Na2 O49 2.527670 1_555
Na2 O69 2.562599 1_555
Na2 O6 2.648041 1_555
Na2 O35 2.840380 1_555
Na3 O70 2.395570 1_655
Na3 O48 2.420655 1_555
Na3 O50 2.504141 1_555
Na3 O12 2.505582 1_555
Na3 O69 2.523482 1_655
Na3 O33 2.774985 1_655
Na3 O5 2.806271 1_555
Na3 O7 2.873279 1_655
Na4 O44 2.318744 1_455
Na4 O65 2.345865 1_555
Na4 O63 2.543737 1_555
Na4 O43 2.544406 1_565
Na4 O8 2.558645 1_555
Na4 O12 2.679018 1_455
Na4 O29 2.774783 1_555
Na4 O22 2.877479 1_455
Na5 O64 2.390960 1_555
Na5 O42 2.432418 1_565
Na5 O44 2.512325 1_555
Na5 O63 2.520819 1_555
Na5 O6 2.608079 1_555
Na5 O27 2.609973 1_555
Na5 O23 2.760120 1_565
Na5 O13 2.899160 1_565
Na6 O62 2.380694 1_555
Na6 O47 2.393549 1_565
Na6 O11 2.444937 1_555
Na6 O61 2.510964 1_555
Na6 O45 2.521420 1_455
Na6 O16 2.649607 1_565
Na6 O26 2.725731 1_554
Na7 O46 2.370247 1_455
Na7 O61 2.432762 1_555
Na7 O10 2.532828 1_555
Na7 O25 2.539419 1_554
Na7 O60 2.540378 1_555
Na7 O47 2.549632 1_555
Na7 O20 2.803146 1_455
Na7 O15 2.905872 1_455
Na8 O55 2.355171 1_555
Na8 O4 2.414875 1_555
Na8 O40 2.424888 1_655
Na8 O41 2.472327 1_555
Na8 O54 2.564268 1_555
Na8 O33 2.712662 1_655
Na8 O19 2.814126 1_556
Na9 O39 2.386389 1_655
Na9 O5 2.392216 1_555
Na9 O55 2.447709 1_555
Na9 O41 2.480075 1_545
Na9 O56 2.521513 1_555
Na9 O20 2.637587 1_556
Na9 O34 2.797350 1_545
Na9 O24 2.936785 1_545
Na10 O37 2.372954 1_545
Na10 O57 2.437892 1_555
Na10 O59 2.446899 1_555
Na10 O23 2.456038 1_555
Na10 O38 2.477608 1_655
Na10 O2 2.649029 1_555
Na10 O28 2.848577 1_655
Na10 O30 2.883168 1_655
Na11 O57 2.344468 1_555
Na11 O36 2.432811 1_545
Na11 O58 2.456261 1_555
Na11 O38 2.527390 1_555
Na11 O21 2.602547 1_555
Na11 O0 2.668085 1_555
Na11 O31 2.806676 1_545
Na11 O29 2.844350 1_545
Na12 O44 2.347383 1_555
Na12 O42 2.395446 1_565
Na12 O37 2.474988 1_555
Na12 O43 2.585874 1_665
Na12 O38 2.660762 1_665
Na12 O36 2.662136 1_655
Na13 O39 2.376403 1_655
Na13 O46 2.462783 1_556
Na13 O41 2.489553 1_545
Na13 O47 2.536314 1_656
Na13 O40 2.579745 1_645
Na13 O45 2.604790 1_546
Na14 O48 2.328772 1_555
Na14 O50 2.351498 1_555
Na14 O49 2.446514 1_555
Na14 O55 2.616636 1_555
Na14 O56 2.679539 1_555
Na14 O54 2.720200 1_555
Na15 O57 2.437088 1_555
Na15 O59 2.459891 1_555
Na15 O52 2.482476 1_555
Na15 O53 2.538685 1_555
Na15 O58 2.558627 1_555
Na15 O51 2.644668 1_555
Na16 O66 2.325366 1_555
Na16 O68 2.449939 1_555
Na16 O62 2.559217 1_555
Na16 O67 2.559984 1_555
Na16 O61 2.617997 1_555
Na16 O60 2.635438 1_555
Na17 O64 2.406433 1_555
Na17 O70 2.478844 1_555
Na17 O65 2.509281 1_555
Na17 O63 2.558830 1_555
Na17 O71 2.579690 1_555
Na17 O69 2.626620 1_555
Ga0 O2 1.871599 1_555
Ga0 O0 1.911763 1_655
Ga0 O37 1.945887 1_545
Ga0 O1 2.034816 1_545
Ga0 O38 2.161838 1_655
Ga0 O36 2.204653 1_645
Ga1 O5 1.846811 1_555
Ga1 O4 1.868488 1_545
Ga1 O3 1.915285 1_655
Ga1 O39 1.985703 1_655
Ga1 O41 2.399953 1_545
Ga1 O40 2.427444 1_645
Ga2 O8 1.882740 1_655
Ga2 O6 1.887943 1_555
Ga2 O44 1.935178 1_555
Ga2 O42 1.935934 1_565
Ga2 O7 2.187269 1_665
Ga2 O43 2.292171 1_665
Ga3 O10 1.862667 1_655
Ga3 O11 1.874163 1_645
Ga3 O9 1.955737 1_545
Ga3 O46 1.969712 1_555
Ga3 O45 2.287436 1_545
Ga3 O47 2.347187 1_655
Ga4 O14 1.869947 1_555
Ga4 O12 1.879727 1_555
Ga4 O48 1.961385 1_555
Ga4 O50 1.982531 1_555
Ga4 O13 2.152027 1_555
Ga4 O49 2.319356 1_555
Ga5 O16 1.866946 1_555
Ga5 O52 1.872935 1_555
Ga5 O53 1.910749 1_555
Ga5 O51 2.157394 1_555
Ga5 O15 2.162087 1_555
Ga5 O17 2.185818 1_555
Ga6 O20 1.857623 1_556
Ga6 O55 1.920027 1_555
Ga6 O19 1.984082 1_556
Ga6 O56 2.087657 1_555
Ga6 O18 2.100971 1_556
Ga6 O54 2.164394 1_555
Ga7 O22 1.828644 1_555
Ga7 O23 1.853867 1_555
Ga7 O21 1.996203 1_555
Ga7 O57 2.011217 1_555
Ga7 O59 2.248221 1_555
Ga7 O58 2.386101 1_555
Ga8 O25 1.847135 1_554
Ga8 O62 1.890434 1_555
Ga8 O24 1.918455 1_554
Ga8 O26 2.074866 1_554
Ga8 O60 2.128075 1_555
Ga8 O61 2.307884 1_555
Ga9 O64 1.858117 1_555
Ga9 O27 1.876408 1_555
Ga9 O65 1.893159 1_555
Ga9 O28 1.976096 1_555
Ga9 O63 2.197751 1_555
Ga9 O29 2.366047 1_555
Ga10 O31 1.869270 1_555
Ga10 O68 1.904529 1_555
Ga10 O66 1.911790 1_555
Ga10 O30 1.940311 1_555
Ga10 O32 2.251801 1_555
Ga10 O67 2.314446 1_555
Ga11 O70 1.854206 1_555
Ga11 O71 1.865885 1_555
Ga11 O33 1.884137 1_555
Ga11 O34 2.081221 1_555
Ga11 O69 2.113182 1_555
Ga11 O35 2.361618 1_555
O0 Si0 1.636971 1_545
O1 S0 1.471759 1_555
O2 Si1 1.631620 1_655
O3 S1 1.502572 1_555
O4 Si2 1.667121 1_655
O5 Si3 1.661606 1_545
O6 Si3 1.623772 1_555
O7 S1 1.460871 1_555
O8 Si2 1.616953 1_555
O9 S0 1.496403 1_555
O10 Si1 1.650932 1_555
O11 Si0 1.647487 1_555
O12 Si4 1.637554 1_555
O13 S2 1.468712 1_555
O14 Si5 1.630142 1_555
O15 S3 1.470697 1_555
O16 Si6 1.638742 1_555
O17 S4 1.478107 1_555
O18 S4 1.488447 1_555
O19 S3 1.503904 1_555
O20 Si6 1.649063 1_555
O21 S2 1.508734 1_555
O22 Si5 1.635775 1_555
O23 Si4 1.653834 1_555
O24 S5 1.501787 1_555
O25 Si7 1.653742 1_555
O26 S6 1.508444 1_555
O27 Si8 1.623803 1_555
O28 S7 1.482930 1_555
O29 S8 1.469935 1_555
O30 S8 1.506909 1_555
O31 Si8 1.656165 1_555
O32 S7 1.480103 1_555
O33 Si7 1.628620 1_555
O34 S6 1.480537 1_555
O35 S5 1.461124 1_555
O36 S8 1.486454 1_555
O37 Si8 1.659916 1_555
O38 S7 1.516138 1_555
O39 Si7 1.648947 1_555
O40 S6 1.462349 1_555
O41 S5 1.492615 1_555
O42 Si4 1.630500 1_555
O43 S2 1.467174 1_555
O44 Si5 1.658108 1_555
O45 S3 1.474994 1_555
O46 Si6 1.651619 1_555
O47 S4 1.501557 1_555
O48 Si3 1.629323 1_545
O49 S1 1.464025 1_555
O50 Si2 1.656559 1_655
O51 S0 1.474098 1_555
O52 Si1 1.639523 1_655
O53 Si0 1.676192 1_545
O54 S5 1.492735 1_555
O55 Si7 1.698447 1_655
O56 S6 1.499185 1_545
O57 Si8 1.693685 1_545
O58 S7 1.471075 1_555
O59 S8 1.481750 1_655
O60 S4 1.492300 1_555
O61 S3 1.505889 1_455
O62 Si6 1.658685 1_565
O63 S2 1.501101 1_565
O64 Si5 1.641742 1_555
O65 Si4 1.642583 1_455
O66 Si0 1.634747 1_555
O67 S0 1.487919 1_555
O68 Si1 1.637234 1_555
O69 S1 1.510211 1_555
O70 Si2 1.643372 1_555
O71 Si3 1.644395 1_555
