# generated using pymatgen
data_NbAlP2SO12
_symmetry_space_group_name_H-M   'P 1'
_cell_length_a   8.57214592
_cell_length_b   8.60751946
_cell_length_c   22.07215981
_cell_angle_alpha   89.90731803
_cell_angle_beta   90.00000000
_cell_angle_gamma   119.86414810
_symmetry_Int_Tables_number   1
_chemical_formula_structural   NbAlP2SO12
_chemical_formula_sum   'Nb6 Al6 P12 S6 O72'
_cell_volume   1412.32670384
_cell_formula_units_Z   6
loop_
 _symmetry_equiv_pos_site_id
 _symmetry_equiv_pos_as_xyz
  1  'x, y, z'
loop_
 _atom_site_type_symbol
 _atom_site_label
 _atom_site_symmetry_multiplicity
 _atom_site_fract_x
 _atom_site_fract_y
 _atom_site_fract_z
 _atom_site_occupancy
  Nb  Nb0  1  0.99309546  0.00447591  0.63943493  1
  Nb  Nb1  1  0.01138045  0.00447591  0.13943493  1
  Nb  Nb2  1  0.65976246  0.33780891  0.97276793  1
  Nb  Nb3  1  0.67804745  0.33780891  0.47276793  1
  Nb  Nb4  1  0.32642846  0.67114291  0.30610193  1
  Nb  Nb5  1  0.34471345  0.67114291  0.80610193  1
  Al  Al0  1  0.00011822  0.00435428  0.35572637  1
  Al  Al1  1  0.00423606  0.00435428  0.85572637  1
  Al  Al2  1  0.66678522  0.33768728  0.68905937  1
  Al  Al3  1  0.67090306  0.33768728  0.18905937  1
  Al  Al4  1  0.33345122  0.67102128  0.02239337  1
  Al  Al5  1  0.33756906  0.67102128  0.52239337  1
  P  P0  1  0.29499057  0.02578015  0.25191167  1
  P  P1  1  0.97975821  0.26996936  0.25193088  1
  P  P2  1  0.29021115  0.26996936  0.75193088  1
  P  P3  1  0.73078958  0.02578015  0.75191167  1
  P  P4  1  0.96165757  0.35911315  0.58524467  1
  P  P5  1  0.64642521  0.60330236  0.58526388  1
  P  P6  1  0.95687815  0.60330236  0.08526388  1
  P  P7  1  0.39745658  0.35911315  0.08524467  1
  P  P8  1  0.62832357  0.69244715  0.91857867  1
  P  P9  1  0.31309121  0.93663636  0.91859788  1
  P  P10  1  0.62354415  0.93663636  0.41859788  1
  P  P11  1  0.06412258  0.69244715  0.41857867  1
  S  S0  1  0.72323104  0.70820486  0.25101824  1
  S  S1  1  0.98497382  0.70820486  0.75101824  1
  S  S2  1  0.38989804  0.04153786  0.58435124  1
  S  S3  1  0.65164082  0.04153786  0.08435124  1
  S  S4  1  0.05656404  0.37487186  0.91768524  1
  S  S5  1  0.31830682  0.37487186  0.41768524  1
  O  O0  1  0.20024404  0.04508592  0.30659718  1
  O  O1  1  0.83231874  0.79207962  0.30482908  1
  O  O2  1  0.95568138  0.15519079  0.30719442  1
  O  O3  1  0.19950941  0.15519079  0.80719442  1
  O  O4  1  0.95976088  0.79207962  0.80482908  1
  O  O5  1  0.84484188  0.04508592  0.80659718  1
  O  O6  1  0.80447565  0.97620672  0.69404374  1
  O  O7  1  0.16764653  0.18886254  0.69456080  1
  O  O8  1  0.02758774  0.82183282  0.69603088  1
  O  O9  1  0.79424508  0.82183282  0.19603088  1
  O  O10  1  0.02121601  0.18886254  0.19456080  1
  O  O11  1  0.17173107  0.97620672  0.19404374  1
  O  O12  1  0.86691104  0.37841892  0.63993018  1
  O  O13  1  0.49898574  0.12541262  0.63816208  1
  O  O14  1  0.62234838  0.48852379  0.64052742  1
  O  O15  1  0.86617641  0.48852379  0.14052742  1
  O  O16  1  0.62642788  0.12541262  0.13816208  1
  O  O17  1  0.51150888  0.37841892  0.13993018  1
  O  O18  1  0.47114265  0.30953972  0.02737674  1
  O  O19  1  0.83431353  0.52219554  0.02789380  1
  O  O20  1  0.69425474  0.15516582  0.02936388  1
  O  O21  1  0.46091208  0.15516582  0.52936388  1
  O  O22  1  0.68788301  0.52219554  0.52789380  1
  O  O23  1  0.83839807  0.30953972  0.52737674  1
  O  O24  1  0.53357704  0.71175292  0.97326418  1
  O  O25  1  0.16565174  0.45874662  0.97149608  1
  O  O26  1  0.28901438  0.82185779  0.97386142  1
  O  O27  1  0.53284241  0.82185779  0.47386142  1
  O  O28  1  0.29309388  0.45874662  0.47149608  1
  O  O29  1  0.17817488  0.71175292  0.47326418  1
  O  O30  1  0.13780865  0.64287372  0.36071074  1
  O  O31  1  0.50097953  0.85552954  0.36122780  1
  O  O32  1  0.36092074  0.48849982  0.36269788  1
  O  O33  1  0.12757808  0.48849982  0.86269788  1
  O  O34  1  0.35454901  0.85552954  0.86122780  1
  O  O35  1  0.50506407  0.64287372  0.86071074  1
  O  O36  1  0.04060787  0.85086311  0.40536165  1
  O  O37  1  0.80794106  0.96342261  0.40602861  1
  O  O38  1  0.16075229  0.19839162  0.40882244  1
  O  O39  1  0.03763933  0.19839162  0.90882244  1
  O  O40  1  0.15548155  0.96342261  0.90602861  1
  O  O41  1  0.81025524  0.85086311  0.90536165  1
  O  O42  1  0.97880213  0.18413270  0.59155464  1
  O  O43  1  0.20451886  0.01855557  0.59150484  1
  O  O44  1  0.82271563  0.79259143  0.59344963  1
  O  O45  1  0.96987580  0.79259143  0.09344963  1
  O  O46  1  0.81403671  0.01855557  0.09150484  1
  O  O47  1  0.20533057  0.18413270  0.09155464  1
  O  O48  1  0.70727487  0.18419611  0.73869465  1
  O  O49  1  0.47460806  0.29675561  0.73936161  1
  O  O50  1  0.82741929  0.53172462  0.74215544  1
  O  O51  1  0.70430633  0.53172462  0.24215544  1
  O  O52  1  0.82214855  0.29675561  0.23936161  1
  O  O53  1  0.47692224  0.18419611  0.23869465  1
  O  O54  1  0.64546913  0.51746570  0.92488764  1
  O  O55  1  0.87118586  0.35188857  0.92483784  1
  O  O56  1  0.48938263  0.12592443  0.92678263  1
  O  O57  1  0.63654280  0.12592443  0.42678263  1
  O  O58  1  0.48070371  0.35188857  0.42483784  1
  O  O59  1  0.87199757  0.51746570  0.42488764  1
  O  O60  1  0.37394087  0.51753011  0.07202865  1
  O  O61  1  0.14127406  0.63008961  0.07269561  1
  O  O62  1  0.49408529  0.86505862  0.07548944  1
  O  O63  1  0.37097233  0.86505862  0.57548944  1
  O  O64  1  0.48881455  0.63008961  0.57269561  1
  O  O65  1  0.14358824  0.51753011  0.57202865  1
  O  O66  1  0.31213513  0.85079970  0.25822164  1
  O  O67  1  0.53785186  0.68522257  0.25817184  1
  O  O68  1  0.15604863  0.45925843  0.26011663  1
  O  O69  1  0.30320880  0.45925843  0.76011663  1
  O  O70  1  0.14736971  0.68522257  0.75817184  1
  O  O71  1  0.53866357  0.85079970  0.75822164  1
loop_
_geom_bond_atom_site_label_1
_geom_bond_atom_site_label_2
_geom_bond_distance
_geom_bond_site_symmetry_2
Nb0 O42 1.925264 1_555
Nb0 O6 1.932244 1_545
Nb0 O44 1.960311 1_545
Nb0 O7 1.969642 1_655
Nb0 O43 2.049232 1_655
Nb0 O8 2.139155 1_645
Nb1 O47 1.925264 1_555
Nb1 O11 1.932244 1_545
Nb1 O45 1.960311 1_445
Nb1 O10 1.969642 1_555
Nb1 O46 2.049232 1_455
Nb1 O9 2.139155 1_445
Nb2 O54 1.925264 1_555
Nb2 O18 1.932244 1_556
Nb2 O56 1.960311 1_555
Nb2 O19 1.969642 1_556
Nb2 O55 2.049232 1_555
Nb2 O20 2.139155 1_556
Nb3 O59 1.925264 1_555
Nb3 O23 1.932244 1_555
Nb3 O57 1.960311 1_555
Nb3 O22 1.969642 1_555
Nb3 O58 2.049232 1_555
Nb3 O21 2.139155 1_555
Nb4 O66 1.925264 1_555
Nb4 O30 1.932244 1_555
Nb4 O68 1.960311 1_555
Nb4 O31 1.969642 1_555
Nb4 O67 2.049232 1_555
Nb4 O32 2.139155 1_555
Nb5 O71 1.925264 1_555
Nb5 O35 1.932244 1_555
Nb5 O69 1.960311 1_555
Nb5 O34 1.969642 1_555
Nb5 O70 2.049232 1_555
Nb5 O33 2.139155 1_555
Al0 O2 1.861790 1_455
Al0 O37 1.868528 1_445
Al0 O36 1.875691 1_545
Al0 O0 1.908290 1_555
Al0 O38 1.942938 1_555
Al0 O1 2.014651 1_445
Al1 O3 1.861790 1_555
Al1 O40 1.868528 1_545
Al1 O41 1.875691 1_445
Al1 O5 1.908290 1_455
Al1 O39 1.942938 1_555
Al1 O4 2.014651 1_445
Al2 O14 1.861790 1_555
Al2 O49 1.868528 1_555
Al2 O48 1.875691 1_555
Al2 O12 1.908290 1_555
Al2 O50 1.942938 1_555
Al2 O13 2.014651 1_555
Al3 O15 1.861790 1_555
Al3 O52 1.868528 1_555
Al3 O53 1.875691 1_555
Al3 O17 1.908290 1_555
Al3 O51 1.942938 1_555
Al3 O16 2.014651 1_555
Al4 O26 1.861790 1_554
Al4 O61 1.868528 1_555
Al4 O60 1.875691 1_555
Al4 O24 1.908290 1_554
Al4 O62 1.942938 1_555
Al4 O25 2.014651 1_554
Al5 O27 1.861790 1_555
Al5 O64 1.868528 1_555
Al5 O65 1.875691 1_555
Al5 O29 1.908290 1_555
Al5 O63 1.942938 1_555
Al5 O28 2.014651 1_555
O0 P0 1.509710 1_555
O1 S0 1.461773 1_555
O2 P1 1.516434 1_555
O3 P2 1.516434 1_555
O4 S1 1.461773 1_555
O5 P3 1.509710 1_555
O6 P3 1.575645 1_565
O7 P2 1.570698 1_555
O8 S1 1.484394 1_455
O9 S0 1.484394 1_555
O10 P1 1.570698 1_455
O11 P0 1.575645 1_565
O12 P4 1.509710 1_555
O13 S2 1.461773 1_555
O14 P5 1.516434 1_555
O15 P6 1.516434 1_555
O16 S3 1.461773 1_555
O17 P7 1.509710 1_555
O18 P7 1.575645 1_555
O19 P6 1.570698 1_555
O20 S3 1.484394 1_555
O21 S2 1.484394 1_555
O22 P5 1.570698 1_555
O23 P4 1.575645 1_555
O24 P8 1.509710 1_555
O25 S4 1.461773 1_555
O26 P9 1.516434 1_555
O27 P10 1.516434 1_555
O28 S5 1.461773 1_555
O29 P11 1.509710 1_555
O30 P11 1.575645 1_555
O31 P10 1.570698 1_555
O32 S5 1.484394 1_555
O33 S4 1.484394 1_555
O34 P9 1.570698 1_555
O35 P8 1.575645 1_555
O36 P11 1.502496 1_555
O37 P10 1.505162 1_555
O38 S5 1.458648 1_555
O39 S4 1.458651 1_555
O40 P9 1.505154 1_555
O41 P8 1.502501 1_555
O42 P4 1.590359 1_555
O43 S2 1.508685 1_555
O44 P5 1.587407 1_555
O45 P6 1.587410 1_555
O46 S3 1.508676 1_555
O47 P7 1.590364 1_555
O48 P3 1.502496 1_555
O49 P2 1.505162 1_555
O50 S1 1.458648 1_555
O51 S0 1.458651 1_555
O52 P1 1.505154 1_555
O53 P0 1.502501 1_555
O54 P8 1.590370 1_555
O55 S4 1.508670 1_655
O56 P9 1.587403 1_545
O57 P10 1.587395 1_545
O58 S5 1.508687 1_555
O59 P11 1.590360 1_655
O60 P7 1.502506 1_555
O61 P6 1.505146 1_455
O62 S3 1.458643 1_565
O63 S2 1.458636 1_565
O64 P5 1.505163 1_555
O65 P4 1.502496 1_455
O66 P0 1.590359 1_565
O67 S0 1.508685 1_555
O68 P1 1.587407 1_455
O69 P2 1.587410 1_555
O70 S1 1.508676 1_455
O71 P3 1.590364 1_565
