# generated using pymatgen
data_MgTi4Zn2O10
_symmetry_space_group_name_H-M   'P 1'
_cell_length_a   3.94110800
_cell_length_b   5.45161165
_cell_length_c   11.02071700
_cell_angle_alpha   90.00000000
_cell_angle_beta   90.00000000
_cell_angle_gamma   111.19230556
_symmetry_Int_Tables_number   1
_chemical_formula_structural   MgTi4Zn2O10
_chemical_formula_sum   'Mg1 Ti4 Zn2 O10'
_cell_volume   220.77123448
_cell_formula_units_Z   1
loop_
 _symmetry_equiv_pos_site_id
 _symmetry_equiv_pos_as_xyz
  1  'x, y, z'
loop_
 _atom_site_type_symbol
 _atom_site_label
 _atom_site_symmetry_multiplicity
 _atom_site_fract_x
 _atom_site_fract_y
 _atom_site_fract_z
 _atom_site_occupancy
  Mg  Mg0  1  0.58154700  0.16259400  0.75000000  1
  Ti  Ti0  1  0.23267700  0.46507700  0.59192600  1
  Ti  Ti1  1  0.77682200  0.55359000  0.40656700  1
  Ti  Ti2  1  0.77682200  0.55359000  0.09343300  1
  Ti  Ti3  1  0.23267700  0.46507700  0.90807400  1
  Zn  Zn0  1  0.89908200  0.79770000  0.75000000  1
  Zn  Zn1  1  0.08060700  0.16166100  0.25000000  1
  O  O0  1  0.67458200  0.34928800  0.25000000  1
  O  O1  1  0.36656300  0.73268400  0.75000000  1
  O  O2  1  0.23481900  0.46963400  0.08332100  1
  O  O3  1  0.75238000  0.50446400  0.89675500  1
  O  O4  1  0.75238000  0.50446400  0.60324500  1
  O  O5  1  0.23481900  0.46963400  0.41667800  1
  O  O6  1  0.06403000  0.12802000  0.63790300  1
  O  O7  1  0.94165700  0.88350300  0.37886800  1
  O  O8  1  0.06403000  0.12802000  0.86209700  1
  O  O9  1  0.94165700  0.88350300  0.12113300  1
loop_
_geom_bond_atom_site_label_1
_geom_bond_atom_site_label_2
_geom_bond_distance
_geom_bond_site_symmetry_2
Mg0 O1 2.185203 1_545
Mg0 O8 2.331654 1_655
Mg0 O6 2.331654 1_655
Mg0 O8 2.333174 1_555
Mg0 O6 2.333174 1_555
Mg0 O3 2.373903 1_555
Mg0 O4 2.373903 1_555
O0 Ti1 2.013869 1_555
O0 Ti2 2.013869 1_555
O0 Zn1 2.188666 1_655
O0 Zn1 2.189744 1_555
O1 Zn0 1.998043 1_455
O1 Zn0 1.998103 1_555
O1 Ti3 2.210225 1_555
O1 Ti0 2.210225 1_555
O2 Ti3 1.931487 1_554
O2 Ti2 2.019230 1_455
O2 Ti2 2.019389 1_555
O2 Zn1 2.413458 1_555
O3 Ti3 1.984593 1_655
O3 Ti3 1.984651 1_555
O3 Ti2 2.181868 1_556
O3 Zn0 2.199407 1_555
O4 Ti0 1.984593 1_655
O4 Ti0 1.984651 1_555
O4 Ti1 2.181868 1_555
O4 Zn0 2.199407 1_555
O5 Ti0 1.931498 1_555
O5 Ti1 2.019229 1_455
O5 Ti1 2.019389 1_555
O5 Zn1 2.413449 1_555
O6 Ti0 1.786597 1_555
O6 Zn0 2.084516 1_445
O7 Ti1 1.704484 1_555
O7 Zn1 2.003999 1_665
O8 Ti3 1.786597 1_555
O8 Zn0 2.084516 1_445
O9 Ti2 1.704486 1_555
O9 Zn1 2.003992 1_665
