# generated using pymatgen
data_Na3ZnSn(PO4)3
_symmetry_space_group_name_H-M   'P 1'
_cell_length_a   15.55677239
_cell_length_b   9.02512384
_cell_length_c   8.90722811
_cell_angle_alpha   90.00000000
_cell_angle_beta   124.90539314
_cell_angle_gamma   90.00000000
_symmetry_Int_Tables_number   1
_chemical_formula_structural   Na3ZnSn(PO4)3
_chemical_formula_sum   'Na12 Zn4 Sn4 P12 O48'
_cell_volume   1025.60706460
_cell_formula_units_Z   4
loop_
 _symmetry_equiv_pos_site_id
 _symmetry_equiv_pos_as_xyz
  1  'x, y, z'
loop_
 _atom_site_type_symbol
 _atom_site_label
 _atom_site_symmetry_multiplicity
 _atom_site_fract_x
 _atom_site_fract_y
 _atom_site_fract_z
 _atom_site_occupancy
  Na  Na0  1  0.25074009  0.72610720  0.98379822  1
  Na  Na1  1  0.75074009  0.77389280  0.48379822  1
  Na  Na2  1  0.75074009  0.22610720  0.98379822  1
  Na  Na3  1  0.25074009  0.27389280  0.48379822  1
  Na  Na4  1  0.50406561  0.11175929  0.74858766  1
  Na  Na5  1  0.50406561  0.88824071  0.24858766  1
  Na  Na6  1  0.00406561  0.61175929  0.74858766  1
  Na  Na7  1  0.00406561  0.38824071  0.24858766  1
  Na  Na8  1  0.18280694  0.94197594  0.28659326  1
  Na  Na9  1  0.18280694  0.05802406  0.78659326  1
  Na  Na10  1  0.68280694  0.44197594  0.28659326  1
  Na  Na11  1  0.68280694  0.55802406  0.78659326  1
  Zn  Zn0  1  0.09933974  0.75093147  0.55337394  1
  Zn  Zn1  1  0.09933974  0.24906853  0.05337394  1
  Zn  Zn2  1  0.59933974  0.25093147  0.55337394  1
  Zn  Zn3  1  0.59933974  0.74906853  0.05337394  1
  Sn  Sn0  1  0.89725506  0.75658428  0.94735792  1
  Sn  Sn1  1  0.89725506  0.24341572  0.44735792  1
  Sn  Sn2  1  0.39725506  0.25658428  0.94735792  1
  Sn  Sn3  1  0.39725506  0.74341572  0.44735792  1
  P  P0  1  0.99932389  0.95054951  0.75875091  1
  P  P1  1  0.99932389  0.04945049  0.25875091  1
  P  P2  1  0.49932389  0.45054951  0.75875091  1
  P  P3  1  0.49932389  0.54945049  0.25875091  1
  P  P4  1  0.35316477  0.90225122  0.76233822  1
  P  P5  1  0.64809897  0.89169146  0.74904104  1
  P  P6  1  0.64809897  0.10830854  0.24904104  1
  P  P7  1  0.35316477  0.09774878  0.26233822  1
  P  P8  1  0.85316477  0.40225122  0.76233822  1
  P  P9  1  0.14809897  0.39169146  0.74904104  1
  P  P10  1  0.14809897  0.60830854  0.24904104  1
  P  P11  1  0.85316477  0.59774878  0.26233822  1
  O  O0  1  0.15410479  0.56042237  0.74276527  1
  O  O1  1  0.84703531  0.57850414  0.75644066  1
  O  O2  1  0.84703531  0.42149586  0.25644066  1
  O  O3  1  0.15410479  0.43957763  0.24276527  1
  O  O4  1  0.65410479  0.06042237  0.74276527  1
  O  O5  1  0.34703531  0.07850414  0.75644066  1
  O  O6  1  0.34703531  0.92149586  0.25644066  1
  O  O7  1  0.65410479  0.93957763  0.24276527  1
  O  O8  1  0.43278899  0.54763273  0.58213078  1
  O  O9  1  0.56390874  0.54302078  0.93222635  1
  O  O10  1  0.56390874  0.45697922  0.43222635  1
  O  O11  1  0.43278899  0.45236727  0.08213078  1
  O  O12  1  0.93278899  0.04763273  0.58213078  1
  O  O13  1  0.06390874  0.04302078  0.93222635  1
  O  O14  1  0.06390874  0.95697922  0.43222635  1
  O  O15  1  0.93278899  0.95236727  0.08213078  1
  O  O16  1  0.25712005  0.84349728  0.74962837  1
  O  O17  1  0.73968805  0.81242630  0.75266852  1
  O  O18  1  0.73968805  0.18757370  0.25266852  1
  O  O19  1  0.25712005  0.15650272  0.24962837  1
  O  O20  1  0.75712005  0.34349728  0.74962837  1
  O  O21  1  0.23968805  0.31242630  0.75266852  1
  O  O22  1  0.23968805  0.68757370  0.25266852  1
  O  O23  1  0.75712005  0.65650272  0.24962837  1
  O  O24  1  0.34980803  0.86998659  0.58344579  1
  O  O25  1  0.64662422  0.84241365  0.91022066  1
  O  O26  1  0.64662422  0.15758635  0.41022066  1
  O  O27  1  0.34980803  0.13001341  0.08344579  1
  O  O28  1  0.84980803  0.36998659  0.58344579  1
  O  O29  1  0.14662422  0.34241365  0.91022066  1
  O  O30  1  0.14662422  0.65758635  0.41022066  1
  O  O31  1  0.84980803  0.63001341  0.08344579  1
  O  O32  1  0.45530530  0.85076776  0.93499765  1
  O  O33  1  0.54762290  0.82906397  0.56382428  1
  O  O34  1  0.54762290  0.17093603  0.06382428  1
  O  O35  1  0.45530530  0.14923224  0.43499765  1
  O  O36  1  0.95530530  0.35076776  0.93499765  1
  O  O37  1  0.04762290  0.32906397  0.56382428  1
  O  O38  1  0.04762290  0.67093603  0.06382428  1
  O  O39  1  0.95530530  0.64923224  0.43499765  1
  O  O40  1  0.07563259  0.84812602  0.74884821  1
  O  O41  1  0.91556594  0.84839682  0.75296229  1
  O  O42  1  0.91556594  0.15160318  0.25296229  1
  O  O43  1  0.07563259  0.15187398  0.24884821  1
  O  O44  1  0.57563259  0.34812602  0.74884821  1
  O  O45  1  0.41556594  0.34839682  0.75296229  1
  O  O46  1  0.41556594  0.65160318  0.25296229  1
  O  O47  1  0.57563259  0.65187398  0.24884821  1
loop_
_geom_bond_atom_site_label_1
_geom_bond_atom_site_label_2
_geom_bond_distance
_geom_bond_site_symmetry_2
Na0 O0 2.326279 1_555
Na0 O16 2.391612 1_555
Na0 O46 2.395724 1_556
Na0 O22 2.521357 1_556
Na0 O40 2.547301 1_555
Na0 O6 2.662296 1_556
Na1 O7 2.326279 1_555
Na1 O23 2.391612 1_555
Na1 O41 2.395724 1_555
Na1 O17 2.521357 1_555
Na1 O47 2.547301 1_555
Na1 O1 2.662296 1_555
Na2 O4 2.326279 1_555
Na2 O20 2.391612 1_555
Na2 O42 2.395724 1_556
Na2 O18 2.521357 1_556
Na2 O44 2.547301 1_555
Na2 O2 2.662296 1_556
Na3 O3 2.326279 1_555
Na3 O19 2.391612 1_555
Na3 O45 2.395724 1_555
Na3 O21 2.521357 1_555
Na3 O43 2.547301 1_555
Na3 O5 2.662296 1_555
Na4 O44 2.405682 1_555
Na4 O4 2.409156 1_555
Na4 O35 2.463126 1_555
Na4 O5 2.501643 1_555
Na4 O34 2.539907 1_556
Na4 O45 2.553341 1_555
Na5 O47 2.405682 1_555
Na5 O7 2.409156 1_555
Na5 O32 2.463126 1_554
Na5 O6 2.501643 1_555
Na5 O33 2.539907 1_555
Na5 O46 2.553341 1_555
Na6 O40 2.405682 1_555
Na6 O0 2.409156 1_555
Na6 O39 2.463126 1_455
Na6 O1 2.501643 1_455
Na6 O38 2.539907 1_556
Na6 O41 2.553341 1_455
Na7 O43 2.405682 1_555
Na7 O3 2.409156 1_555
Na7 O36 2.463126 1_454
Na7 O2 2.501643 1_455
Na7 O37 2.539907 1_555
Na7 O42 2.553341 1_455
Na8 O19 2.372581 1_565
Na8 O43 2.416598 1_565
Na8 O24 2.510267 1_555
Na8 O22 2.540082 1_555
Na8 O6 2.723768 1_555
Na8 O13 2.744863 1_564
Na8 O14 2.805043 1_555
Na9 O16 2.372581 1_545
Na9 O40 2.416598 1_545
Na9 O27 2.510267 1_556
Na9 O21 2.540082 1_555
Na9 O5 2.723768 1_555
Na9 O14 2.744863 1_545
Na9 O13 2.805043 1_555
Na10 O23 2.372581 1_555
Na10 O47 2.416598 1_555
Na10 O28 2.510267 1_555
Na10 O18 2.540082 1_555
Na10 O2 2.723768 1_555
Na10 O9 2.744863 1_554
Na10 O10 2.805043 1_555
Na11 O20 2.372581 1_555
Na11 O44 2.416598 1_555
Na11 O31 2.510267 1_556
Na11 O17 2.540082 1_555
Na11 O1 2.723768 1_555
Na11 O10 2.744863 1_555
Na11 O9 2.805043 1_555
O0 P9 1.528661 1_555
O0 Zn0 2.209763 1_555
O1 P8 1.592627 1_555
O1 Sn0 2.136544 1_555
O2 P11 1.592627 1_555
O2 Sn1 2.136544 1_555
O3 P10 1.528661 1_555
O3 Zn1 2.209763 1_555
O4 P5 1.528661 1_545
O4 Zn2 2.209763 1_555
O5 P4 1.592627 1_545
O5 Sn2 2.136544 1_555
O6 P7 1.592627 1_565
O6 Sn3 2.136544 1_555
O7 P6 1.528661 1_565
O7 Zn3 2.209763 1_555
O8 P2 1.565388 1_555
O8 Sn3 2.027160 1_555
O9 P2 1.522115 1_555
O9 Zn3 2.060505 1_556
O10 P3 1.522115 1_555
O10 Zn2 2.060505 1_555
O11 P3 1.565388 1_555
O11 Sn2 2.027160 1_554
O12 P0 1.565388 1_545
O12 Sn1 2.027160 1_555
O13 P0 1.522115 1_445
O13 Zn1 2.060505 1_556
O14 P1 1.522115 1_465
O14 Zn0 2.060505 1_555
O15 P1 1.565388 1_565
O15 Sn0 2.027160 1_554
O16 P4 1.527377 1_555
O16 Zn0 2.206354 1_555
O17 P5 1.578057 1_555
O17 Sn0 2.098808 1_555
O18 P6 1.578057 1_555
O18 Sn1 2.098808 1_555
O19 P7 1.527377 1_555
O19 Zn1 2.206354 1_555
O20 P8 1.527377 1_555
O20 Zn2 2.206354 1_555
O21 P9 1.578057 1_555
O21 Sn2 2.098808 1_555
O22 P10 1.578057 1_555
O22 Sn3 2.098808 1_555
O23 P11 1.527377 1_555
O23 Zn3 2.206354 1_555
O24 P4 1.591015 1_555
O24 Sn3 2.083993 1_555
O25 P5 1.515633 1_555
O25 Zn3 1.987496 1_556
O26 P6 1.515633 1_555
O26 Zn2 1.987496 1_555
O27 P7 1.591015 1_555
O27 Sn2 2.083993 1_554
O28 P8 1.591015 1_555
O28 Sn1 2.083993 1_555
O29 P9 1.515633 1_555
O29 Zn1 1.987496 1_556
O30 P10 1.515633 1_555
O30 Zn0 1.987496 1_555
O31 P11 1.591015 1_555
O31 Sn0 2.083993 1_554
O32 P4 1.519615 1_555
O32 Zn3 2.066667 1_556
O33 P5 1.591611 1_555
O33 Sn3 2.090093 1_555
O34 P6 1.591611 1_555
O34 Sn2 2.090093 1_554
O35 P7 1.519615 1_555
O35 Zn2 2.066667 1_555
O36 P8 1.519615 1_555
O36 Zn1 2.066667 1_656
O37 P9 1.591611 1_555
O37 Sn1 2.090093 1_455
O38 P10 1.591611 1_555
O38 Sn0 2.090093 1_454
O39 P11 1.519615 1_555
O39 Zn0 2.066667 1_655
O40 P0 1.546399 1_455
O40 Zn0 2.161465 1_555
O41 P0 1.572756 1_555
O41 Sn0 2.080967 1_555
O42 P1 1.572756 1_555
O42 Sn1 2.080967 1_555
O43 P1 1.546399 1_455
O43 Zn1 2.161465 1_555
O44 P2 1.546399 1_555
O44 Zn2 2.161465 1_555
O45 P2 1.572756 1_555
O45 Sn2 2.080967 1_555
O46 P3 1.572756 1_555
O46 Sn3 2.080967 1_555
O47 P3 1.546399 1_555
O47 Zn3 2.161465 1_555
