# generated using pymatgen
data_Na7Y3NbSi3(PO8)3
_symmetry_space_group_name_H-M   'P 1'
_cell_length_a   9.35536775
_cell_length_b   9.35698961
_cell_length_c   23.27634985
_cell_angle_alpha   90.00155867
_cell_angle_beta   89.95820889
_cell_angle_gamma   119.99814525
_symmetry_Int_Tables_number   1
_chemical_formula_structural   Na7Y3NbSi3(PO8)3
_chemical_formula_sum   'Na21 Y9 Nb3 Si9 P9 O72'
_cell_volume   1764.61711467
_cell_formula_units_Z   3
loop_
 _symmetry_equiv_pos_site_id
 _symmetry_equiv_pos_as_xyz
  1  'x, y, z'
loop_
 _atom_site_type_symbol
 _atom_site_label
 _atom_site_symmetry_multiplicity
 _atom_site_fract_x
 _atom_site_fract_y
 _atom_site_fract_z
 _atom_site_occupancy
  Na  Na0  1  0.63240116  0.99852301  0.25265284  1
  Na  Na1  1  0.36624357  0.36816987  0.25255596  1
  Na  Na2  1  0.00235536  0.63520450  0.25476683  1
  Na  Na3  1  0.63979227  0.63430528  0.74669911  1
  Na  Na4  1  0.99389914  0.35239023  0.74381193  1
  Na  Na5  1  0.29994798  0.34327737  0.58293074  1
  Na  Na6  1  0.03380409  0.69511002  0.58149572  1
  Na  Na7  1  0.66561496  0.95977079  0.57920828  1
  Na  Na8  1  0.30541555  0.96809913  0.08237158  1
  Na  Na9  1  0.65752875  0.69727496  0.08261832  1
  Na  Na10  1  0.04232907  0.33473448  0.07920934  1
  Na  Na11  1  0.32285917  0.29785877  0.91271329  1
  Na  Na12  1  0.97753185  0.30239791  0.41885381  1
  Na  Na13  1  0.33042304  0.02680777  0.41942348  1
  Na  Na14  1  0.69498131  0.67365034  0.41881698  1
  Na  Na15  1  0.99565509  0.99936955  0.49934684  1
  Na  Na16  1  0.99110055  0.00013744  0.99669339  1
  Na  Na17  1  0.65889236  0.32420580  0.83020004  1
  Na  Na18  1  0.66454328  0.33161878  0.33755278  1
  Na  Na19  1  0.33953494  0.66679141  0.16532067  1
  Na  Na20  1  0.33396923  0.66902076  0.66016308  1
  Y  Y0  1  0.99977985  0.00038094  0.35120494  1
  Y  Y1  1  0.99836754  0.99783958  0.85153339  1
  Y  Y2  1  0.00190805  0.00482739  0.65000430  1
  Y  Y3  1  0.00181343  0.00374208  0.14567191  1
  Y  Y4  1  0.65846209  0.32837751  0.68506739  1
  Y  Y5  1  0.66383485  0.33213306  0.18144158  1
  Y  Y6  1  0.33449928  0.66728893  0.01388394  1
  Y  Y7  1  0.33304450  0.66370119  0.51455924  1
  Y  Y8  1  0.33445198  0.66652778  0.32392313  1
  Nb  Nb0  1  0.66846669  0.32569819  0.97953777  1
  Nb  Nb1  1  0.67296264  0.33882128  0.48288726  1
  Nb  Nb2  1  0.32563878  0.66302211  0.81771203  1
  Si  Si0  1  0.30196201  0.30576164  0.75423090  1
  Si  Si1  1  0.96023582  0.33310307  0.58466143  1
  Si  Si2  1  0.66828048  0.62918377  0.58414516  1
  Si  Si3  1  0.66587914  0.03870797  0.08244948  1
  Si  Si4  1  0.37572521  0.33440236  0.08059919  1
  Si  Si5  1  0.03215793  0.37211380  0.91871062  1
  Si  Si6  1  0.63501283  0.97566574  0.41818026  1
  Si  Si7  1  0.34015157  0.36352233  0.41787530  1
  Si  Si8  1  0.02675937  0.66199689  0.41802017  1
  P  P0  1  0.29981673  0.99733710  0.24895640  1
  P  P1  1  0.69893577  0.70044915  0.24886042  1
  P  P2  1  0.00254253  0.30353119  0.24905583  1
  P  P3  1  0.00801677  0.70180492  0.75139496  1
  P  P4  1  0.69377549  0.99056510  0.75242289  1
  P  P5  1  0.37603718  0.04319579  0.58064231  1
  P  P6  1  0.95394312  0.62071665  0.08065709  1
  P  P7  1  0.62362408  0.65741700  0.91673279  1
  P  P8  1  0.34127838  0.96630379  0.91773958  1
  O  O0  1  0.21558929  0.01899133  0.30246384  1
  O  O1  1  0.80374724  0.78479525  0.30251187  1
  O  O2  1  0.97926096  0.19735085  0.30263701  1
  O  O3  1  0.21192935  0.19869485  0.81030521  1
  O  O4  1  0.97620635  0.78670710  0.80140530  1
  O  O5  1  0.81074601  0.01686733  0.80211402  1
  O  O6  1  0.75961590  0.95076659  0.69630149  1
  O  O7  1  0.18680224  0.23756516  0.69610033  1
  O  O8  1  0.03710323  0.79962514  0.69488082  1
  O  O9  1  0.78467058  0.80474641  0.19427414  1
  O  O10  1  0.02169147  0.21701660  0.19472311  1
  O  O11  1  0.19524192  0.97795002  0.19442872  1
  O  O12  1  0.87707757  0.35495339  0.64229924  1
  O  O13  1  0.48115511  0.12220526  0.63392566  1
  O  O14  1  0.64020252  0.52043779  0.64136244  1
  O  O15  1  0.88549828  0.52466090  0.13708406  1
  O  O16  1  0.64088580  0.11821218  0.14041324  1
  O  O17  1  0.48115549  0.36521720  0.13909472  1
  O  O18  1  0.48744938  0.32004121  0.02559204  1
  O  O19  1  0.83579630  0.51898468  0.02959057  1
  O  O20  1  0.68300377  0.16907621  0.02751501  1
  O  O21  1  0.46766981  0.15209939  0.52657560  1
  O  O22  1  0.67821568  0.51638109  0.52844087  1
  O  O23  1  0.83634066  0.31811119  0.52866085  1
  O  O24  1  0.55039008  0.68190836  0.97235802  1
  O  O25  1  0.13911342  0.45046475  0.97579250  1
  O  O26  1  0.31984874  0.87377502  0.97405827  1
  O  O27  1  0.55458060  0.85784570  0.47354847  1
  O  O28  1  0.30162711  0.44442738  0.47288072  1
  O  O29  1  0.14274995  0.69807502  0.47354839  1
  O  O30  1  0.09702406  0.61738731  0.36002830  1
  O  O31  1  0.52063317  0.90308256  0.36005105  1
  O  O32  1  0.38407177  0.47896021  0.35988827  1
  O  O33  1  0.14263688  0.50321110  0.86354782  1
  O  O34  1  0.35920476  0.86713602  0.86657597  1
  O  O35  1  0.50342925  0.63813761  0.86494831  1
  O  O36  1  0.99447262  0.81658303  0.41174725  1
  O  O37  1  0.82119101  0.00463384  0.41181763  1
  O  O38  1  0.18228564  0.17801243  0.41167833  1
  O  O39  1  0.01908531  0.19509297  0.90985062  1
  O  O40  1  0.19747324  0.99887645  0.91000945  1
  O  O41  1  0.79657484  0.80310757  0.90853736  1
  O  O42  1  0.96730926  0.16074934  0.58234108  1
  O  O43  1  0.20572412  0.03467091  0.58395739  1
  O  O44  1  0.84350528  0.80505808  0.58246133  1
  O  O45  1  0.96124880  0.79015134  0.08211303  1
  O  O46  1  0.83684097  0.03115455  0.08033471  1
  O  O47  1  0.19875971  0.15960956  0.08014029  1
  O  O48  1  0.68079782  0.14771371  0.74746403  1
  O  O49  1  0.49387520  0.35122610  0.75169305  1
  O  O50  1  0.86136527  0.52207970  0.74794824  1
  O  O51  1  0.68275657  0.52649722  0.24667527  1
  O  O52  1  0.84718129  0.32339002  0.24595421  1
  O  O53  1  0.47423311  0.15490269  0.24650490  1
  O  O54  1  0.62236008  0.48807114  0.92058325  1
  O  O55  1  0.84878510  0.36225539  0.92505475  1
  O  O56  1  0.50403112  0.14391841  0.92269667  1
  O  O57  1  0.64914532  0.15889067  0.42790174  1
  O  O58  1  0.50798276  0.34777456  0.42803693  1
  O  O59  1  0.84217245  0.49150514  0.42767898  1
  O  O60  1  0.35141900  0.49505649  0.07651967  1
  O  O61  1  0.12862091  0.64469781  0.07415159  1
  O  O62  1  0.50111620  0.85862527  0.07714854  1
  O  O63  1  0.35431834  0.86893373  0.57601380  1
  O  O64  1  0.50690138  0.65224127  0.57949034  1
  O  O65  1  0.14143732  0.49856029  0.57952220  1
  O  O66  1  0.31599999  0.83976068  0.25236133  1
  O  O67  1  0.52493751  0.68410755  0.25208241  1
  O  O68  1  0.16118972  0.47649732  0.25229465  1
  O  O69  1  0.31630996  0.49719281  0.76567327  1
  O  O70  1  0.16780036  0.68502467  0.76341757  1
  O  O71  1  0.52027488  0.83201867  0.76471724  1
loop_
_geom_bond_atom_site_label_1
_geom_bond_atom_site_label_2
_geom_bond_distance
_geom_bond_site_symmetry_2
Na0 O53 2.552747 1_565
Na0 O66 2.563546 1_555
Na0 O67 2.590099 1_555
Na0 O52 2.682159 1_565
Na0 O31 2.683770 1_555
Na0 O16 2.827864 1_565
Na1 O67 2.560242 1_555
Na1 O51 2.567970 1_555
Na1 O68 2.579134 1_555
Na1 O53 2.652999 1_555
Na1 O32 2.677982 1_555
Na1 O17 2.855998 1_555
Na2 O52 2.535203 1_455
Na2 O68 2.573534 1_555
Na2 O66 2.580765 1_555
Na2 O30 2.639323 1_555
Na2 O51 2.640013 1_455
Na2 O15 2.939711 1_455
Na3 O49 2.297203 1_555
Na3 O71 2.629888 1_555
Na3 O69 2.667431 1_555
Na3 O14 2.674085 1_555
Na3 O50 2.752662 1_555
Na3 O6 2.842542 1_555
Na4 O50 2.456845 1_555
Na4 O48 2.577840 1_555
Na4 O12 2.609222 1_555
Na4 O69 2.666132 1_655
Na4 O70 2.734974 1_655
Na4 O7 2.753261 1_655
Na5 O65 2.543862 1_555
Na5 O64 2.552553 1_555
Na5 O43 2.563334 1_555
Na5 O42 2.699415 1_455
Na5 O28 2.728157 1_555
Na5 O7 2.826103 1_555
Na6 O44 2.461670 1_455
Na6 O65 2.500022 1_555
Na6 O63 2.602992 1_555
Na6 O29 2.705706 1_555
Na6 O43 2.752337 1_565
Na6 O8 2.809352 1_555
Na7 O42 2.490158 1_565
Na7 O64 2.492511 1_555
Na7 O63 2.595098 1_555
Na7 O27 2.655202 1_555
Na7 O44 2.698210 1_555
Na7 O6 2.878616 1_555
Na8 O47 2.448968 1_565
Na8 O62 2.508201 1_555
Na8 O61 2.631535 1_555
Na8 O26 2.696644 1_554
Na8 O45 2.789045 1_455
Na8 O11 2.822245 1_555
Na9 O45 2.521861 1_555
Na9 O60 2.526611 1_555
Na9 O62 2.578018 1_555
Na9 O46 2.708574 1_565
Na9 O24 2.733431 1_554
Na9 O9 2.826456 1_555
Na10 O60 2.505610 1_555
Na10 O46 2.510932 1_455
Na10 O61 2.595392 1_555
Na10 O25 2.608343 1_554
Na10 O47 2.688003 1_555
Na10 O10 2.875172 1_555
Na11 O40 2.434138 1_545
Na11 O54 2.462975 1_555
Na11 O39 2.504648 1_555
Na11 O3 2.580799 1_555
Na11 O56 2.728270 1_555
Na12 O37 2.419564 1_555
Na12 O59 2.648976 1_555
Na12 O57 2.675765 1_555
Na12 O38 2.698272 1_655
Na12 O2 2.880916 1_555
Na12 O23 2.913468 1_555
Na12 O30 2.918004 1_655
Na12 O28 2.918393 1_655
Na13 O38 2.432266 1_555
Na13 O57 2.602537 1_555
Na13 O58 2.613647 1_555
Na13 O36 2.756469 1_445
Na13 O21 2.782614 1_555
Na13 O31 2.910840 1_545
Na13 O0 2.914894 1_555
Na13 O29 2.954316 1_545
Na14 O36 2.432784 1_555
Na14 O58 2.658887 1_555
Na14 O59 2.681550 1_555
Na14 O37 2.712074 1_565
Na14 O32 2.892688 1_555
Na14 O1 2.895450 1_555
Na14 O22 2.910295 1_555
Na14 O27 2.929143 1_555
Na15 O42 2.545954 1_565
Na15 O44 2.546144 1_555
Na15 O37 2.627263 1_565
Na15 O36 2.657780 1_555
Na15 O38 2.661445 1_665
Na15 O43 2.684498 1_665
Na16 O46 2.524262 1_556
Na16 O47 2.622991 1_656
Na16 O39 2.646525 1_655
Na16 O45 2.709696 1_546
Na16 O41 2.751654 1_545
Na16 O40 2.795687 1_645
Na17 O49 2.486140 1_555
Na17 O48 2.610666 1_555
Na17 O56 2.670556 1_555
Na17 O50 2.677583 1_555
Na17 O54 2.723324 1_555
Na17 O55 2.744210 1_555
Na18 O58 2.611677 1_555
Na18 O57 2.611976 1_555
Na18 O59 2.630484 1_555
Na18 O53 2.730720 1_555
Na18 O51 2.741819 1_555
Na18 O52 2.756337 1_555
Na19 O67 2.614806 1_555
Na19 O62 2.646043 1_555
Na19 O60 2.654247 1_555
Na19 O68 2.660304 1_555
Na19 O66 2.669843 1_555
Na19 O61 2.835066 1_555
Na20 O64 2.533303 1_555
Na20 O65 2.538424 1_555
Na20 O63 2.648651 1_555
Na20 O69 2.894428 1_555
Na20 O70 2.905632 1_555
Na20 O71 2.938447 1_555
Nb0 O20 1.900769 1_556
Nb0 O18 1.981802 1_556
Nb0 O55 1.997730 1_555
Nb0 O19 2.061641 1_556
Nb0 O56 2.096782 1_555
Nb0 O54 2.243601 1_555
Nb1 O22 1.950735 1_555
Nb1 O23 1.951275 1_555
Nb1 O59 1.983439 1_555
Nb1 O57 2.036520 1_555
Nb1 O58 2.037505 1_555
Nb1 O21 2.101709 1_555
Nb2 O33 1.934656 1_555
Nb2 O69 1.935741 1_555
Nb2 O70 2.031428 1_555
Nb2 O35 2.102282 1_555
Nb2 O34 2.107274 1_555
Nb2 O71 2.110771 1_555
O0 P0 1.539914 1_545
O0 Y0 2.244733 1_455
O1 P1 1.540059 1_555
O1 Y0 2.240717 1_565
O2 P2 1.540541 1_655
O2 Y0 2.250748 1_555
O3 Si0 1.603543 1_555
O3 Y1 2.165046 1_445
O4 P3 1.520054 1_655
O4 Y1 2.213125 1_555
O5 P4 1.525904 1_545
O5 Y1 2.179751 1_545
O6 P4 1.566102 1_555
O6 Y2 2.324899 1_665
O7 Si0 1.647218 1_555
O7 Y2 2.263098 1_555
O8 P3 1.546837 1_555
O8 Y2 2.349255 1_565
O9 P1 1.557544 1_555
O9 Y3 2.255671 1_665
O10 P2 1.559301 1_555
O10 Y3 2.224787 1_555
O11 P0 1.557326 1_555
O11 Y3 2.249564 1_565
O12 Si1 1.613830 1_555
O12 Y4 2.173539 1_555
O13 P5 1.525319 1_555
O13 Y4 2.166356 1_555
O14 Si2 1.615669 1_555
O14 Y4 2.144990 1_555
O15 P6 1.538262 1_555
O15 Y5 2.207519 1_555
O16 Si3 1.613013 1_555
O16 Y5 2.129600 1_555
O17 Si4 1.620929 1_555
O17 Y5 2.125958 1_555
O18 Si4 1.699519 1_555
O19 P6 1.578120 1_555
O20 Si3 1.718454 1_555
O21 P5 1.575444 1_555
O22 Si2 1.703440 1_555
O23 Si1 1.703481 1_555
O24 P7 1.534273 1_555
O24 Y6 2.180184 1_556
O25 Si5 1.603864 1_555
O25 Y6 2.130129 1_556
O26 P8 1.527855 1_555
O26 Y6 2.208202 1_556
O27 Si6 1.616067 1_555
O27 Y7 2.176962 1_555
O28 Si7 1.616886 1_555
O28 Y7 2.152782 1_555
O29 Si8 1.611751 1_555
O29 Y7 2.181541 1_555
O30 Si8 1.643610 1_555
O30 Y8 2.197169 1_555
O31 Si6 1.646924 1_555
O31 Y8 2.187971 1_555
O32 Si7 1.647055 1_555
O32 Y8 2.193599 1_555
O33 Si5 1.718137 1_555
O34 P8 1.569284 1_555
O35 P7 1.596550 1_555
O36 Si8 1.625351 1_655
O36 Y0 2.204691 1_565
O37 Si6 1.629935 1_545
O37 Y0 2.201489 1_555
O38 Si7 1.628466 1_555
O38 Y0 2.196544 1_455
O39 Si5 1.612000 1_555
O39 Y1 2.220195 1_445
O40 P8 1.531537 1_555
O40 Y1 2.303913 1_455
O41 P7 1.518789 1_555
O41 Y1 2.280649 1_555
O42 Si1 1.647677 1_555
O42 Y2 2.277476 1_655
O43 P5 1.556851 1_555
O43 Y2 2.353821 1_555
O44 Si2 1.642969 1_555
O44 Y2 2.322743 1_665
O45 P6 1.552726 1_555
O45 Y3 2.359919 1_665
O46 Si3 1.636598 1_555
O46 Y3 2.271557 1_655
O47 Si4 1.645736 1_555
O47 Y3 2.271018 1_555
O48 P4 1.539090 1_545
O48 Y4 2.316142 1_555
O49 Si0 1.626066 1_555
O49 Y4 2.268758 1_555
O50 P3 1.552378 1_655
O50 Y4 2.365202 1_555
O51 P1 1.558348 1_555
O51 Y5 2.307106 1_555
O52 P2 1.556442 1_655
O52 Y5 2.312530 1_555
O53 P0 1.560050 1_545
O53 Y5 2.290150 1_555
O54 P7 1.581232 1_555
O55 Si5 1.677712 1_655
O56 P8 1.601124 1_545
O57 Si6 1.667732 1_545
O58 Si7 1.665783 1_555
O59 Si8 1.679982 1_655
O60 Si4 1.631655 1_555
O60 Y6 2.236816 1_555
O61 P6 1.541679 1_455
O61 Y6 2.304616 1_555
O62 Si3 1.622837 1_565
O62 Y6 2.239676 1_555
O63 P5 1.542846 1_565
O63 Y7 2.321988 1_555
O64 Si2 1.632059 1_555
O64 Y7 2.262562 1_555
O65 Si1 1.631035 1_455
O65 Y7 2.261382 1_555
O66 P0 1.557698 1_555
O66 Y8 2.390011 1_555
O67 P1 1.558758 1_555
O67 Y8 2.387796 1_555
O68 P2 1.557592 1_555
O68 Y8 2.385492 1_555
O69 Si0 1.748435 1_555
O70 P3 1.603995 1_555
O71 P4 1.583939 1_555
