# generated using pymatgen
data_KZnP2H5O9
_symmetry_space_group_name_H-M   'P 1'
_cell_length_a   7.73856100
_cell_length_b   7.91247407
_cell_length_c   8.06759962
_cell_angle_alpha   115.31076914
_cell_angle_beta   84.88374721
_cell_angle_gamma   107.93751697
_symmetry_Int_Tables_number   1
_chemical_formula_structural   KZnP2H5O9
_chemical_formula_sum   'K2 Zn2 P4 H10 O18'
_cell_volume   424.34154169
_cell_formula_units_Z   2
loop_
 _symmetry_equiv_pos_site_id
 _symmetry_equiv_pos_as_xyz
  1  'x, y, z'
loop_
 _atom_site_type_symbol
 _atom_site_label
 _atom_site_symmetry_multiplicity
 _atom_site_fract_x
 _atom_site_fract_y
 _atom_site_fract_z
 _atom_site_occupancy
  K  K0  1  0.86152100  0.77563000  0.77604500  1
  K  K1  1  0.13847900  0.22437000  0.22395500  1
  Zn  Zn0  1  0.73920800  0.23177500  0.96911600  1
  Zn  Zn1  1  0.26079200  0.76822500  0.03088400  1
  P  P0  1  0.37786500  0.95147500  0.74559700  1
  P  P1  1  0.62213500  0.04852500  0.25440300  1
  P  P2  1  0.07961200  0.32080500  0.74022700  1
  P  P3  1  0.92038800  0.67919500  0.25977300  1
  H  H0  1  0.54358800  0.52346300  0.27331100  1
  H  H1  1  0.45641200  0.47653700  0.72668900  1
  H  H2  1  0.44668400  0.66910900  0.27361000  1
  H  H3  1  0.55331600  0.33089100  0.72639000  1
  H  H4  1  0.86063200  0.28079800  0.56319200  1
  H  H5  1  0.13936800  0.71920200  0.43680800  1
  H  H6  1  0.20179800  0.07893700  0.57682900  1
  H  H7  1  0.79820200  0.92106300  0.42317100  1
  H  H8  1  0.46633600  0.70268500  0.53791500  1
  H  H9  1  0.53366400  0.29731500  0.46208500  1
  O  O0  1  0.25731200  0.91792200  0.58613200  1
  O  O1  1  0.47666900  0.78525100  0.67749900  1
  O  O2  1  0.73767600  0.06379700  0.09178400  1
  O  O3  1  0.52333100  0.21474900  0.32250100  1
  O  O4  1  0.76478200  0.50307400  0.14211900  1
  O  O5  1  0.23521800  0.49692600  0.85788100  1
  O  O6  1  0.83949600  0.81291800  0.43472400  1
  O  O7  1  0.16050400  0.18708200  0.56527600  1
  O  O8  1  0.52508900  0.15416500  0.81079300  1
  O  O9  1  0.47491100  0.84583500  0.18920700  1
  O  O10  1  0.96797400  0.20171800  0.84250600  1
  O  O11  1  0.03202600  0.79828200  0.15749400  1
  O  O12  1  0.04534600  0.60271000  0.33997500  1
  O  O13  1  0.95465400  0.39729000  0.66002500  1
  O  O14  1  0.56234900  0.42932400  0.67715500  1
  O  O15  1  0.43765100  0.57067600  0.32284500  1
  O  O16  1  0.26232400  0.93620300  0.90821600  1
  O  O17  1  0.74268800  0.08207800  0.41386800  1
loop_
_geom_bond_atom_site_label_1
_geom_bond_atom_site_label_2
_geom_bond_distance
_geom_bond_site_symmetry_2
K0 O14 2.838565 1_555
K0 O6 2.916847 1_555
K0 O2 2.924096 1_566
K0 O10 3.025708 1_565
K0 O13 3.028194 1_555
K0 O16 3.061951 1_655
K0 O1 3.181390 1_555
K0 O11 3.369017 1_656
K1 O15 2.838565 1_555
K1 O7 2.916847 1_555
K1 O16 2.924096 1_544
K1 O11 3.025708 1_545
K1 O12 3.028194 1_555
K1 O2 3.061951 1_455
K1 O3 3.181390 1_555
K1 O10 3.369017 1_454
H0 O15 0.986856 1_555
H1 O14 0.986856 1_555
H2 O15 0.997649 1_555
H3 O14 0.997649 1_555
H4 O13 1.030470 1_555
H4 O17 1.564970 1_555
H5 O12 1.030470 1_555
H5 O0 1.564970 1_555
H6 O7 1.041611 1_555
H6 O0 1.495985 1_545
H7 O6 1.041611 1_555
H7 O17 1.495985 1_565
H8 O1 1.027689 1_555
H8 O15 1.589680 1_555
H9 O3 1.027689 1_555
H9 O14 1.589680 1_555
O0 P0 1.537965 1_555
O1 P0 1.594670 1_555
O2 P1 1.547593 1_555
O2 Zn0 1.964429 1_554
O3 P1 1.594670 1_555
O4 P3 1.527146 1_555
O4 Zn0 1.954745 1_554
O5 P2 1.527146 1_555
O5 Zn1 1.954745 1_556
O6 P3 1.573845 1_555
O7 P2 1.573845 1_555
O8 P0 1.551415 1_545
O8 Zn0 1.958103 1_555
O9 P1 1.551415 1_565
O9 Zn1 1.958103 1_555
O10 P2 1.533412 1_655
O10 Zn0 1.990738 1_555
O11 P3 1.533412 1_455
O11 Zn1 1.990738 1_555
O12 P3 1.589612 1_455
O13 P2 1.589612 1_655
O16 P0 1.547593 1_555
O16 Zn1 1.964429 1_556
O17 P1 1.537965 1_555
