# generated using pymatgen
data_MgSb2(H4O3)6
_symmetry_space_group_name_H-M   'P 1'
_cell_length_a   16.23788266
_cell_length_b   16.23788223
_cell_length_c   9.93341308
_cell_angle_alpha   90.00000000
_cell_angle_beta   90.00000000
_cell_angle_gamma   120.00000087
_symmetry_Int_Tables_number   1
_chemical_formula_structural   MgSb2(H4O3)6
_chemical_formula_sum   'Mg6 Sb12 H144 O108'
_cell_volume   2268.23428115
_cell_formula_units_Z   6
loop_
 _symmetry_equiv_pos_site_id
 _symmetry_equiv_pos_as_xyz
  1  'x, y, z'
loop_
 _atom_site_type_symbol
 _atom_site_label
 _atom_site_symmetry_multiplicity
 _atom_site_fract_x
 _atom_site_fract_y
 _atom_site_fract_z
 _atom_site_occupancy
  H  H0  1  0.99800626  0.09886710  0.80401766  1
  H  H1  1  0.90113290  0.89913916  0.80401766  1
  H  H2  1  0.10086084  0.00199374  0.80401766  1
  H  H3  1  0.09197248  0.09451029  0.20410623  1
  H  H4  1  0.90548971  0.99746219  0.20410623  1
  H  H5  1  0.00253781  0.90802752  0.20410623  1
  H  H6  1  0.57097997  0.24134276  0.71293427  1
  H  H7  1  0.75865724  0.32963721  0.71293427  1
  H  H8  1  0.67036279  0.42902003  0.71293427  1
  H  H9  1  0.65768489  0.22787567  0.11214592  1
  H  H10  1  0.77212433  0.42980922  0.11214592  1
  H  H11  1  0.57019078  0.34231511  0.11214592  1
  H  H12  1  0.33630587  0.57407032  0.21275531  1
  H  H13  1  0.42592968  0.76223555  0.21275531  1
  H  H14  1  0.23776445  0.66369413  0.21275531  1
  H  H15  1  0.32790969  0.76520736  0.81447232  1
  H  H16  1  0.23479264  0.56270233  0.81447232  1
  H  H17  1  0.43729767  0.67209031  0.81447232  1
  H  H18  1  0.34824534  0.17422570  0.85895445  1
  H  H19  1  0.82577430  0.17401964  0.85895445  1
  H  H20  1  0.82598036  0.65175466  0.85895445  1
  H  H21  1  0.34291542  0.10692501  0.74255136  1
  H  H22  1  0.89307499  0.23599041  0.74255136  1
  H  H23  1  0.76400959  0.65708458  0.74255136  1
  H  H24  1  0.47735204  0.18766002  0.07549497  1
  H  H25  1  0.81233997  0.28969202  0.07549497  1
  H  H26  1  0.71030798  0.52264796  0.07549497  1
  H  H27  1  0.44176699  0.10259811  0.18578087  1
  H  H28  1  0.89740189  0.33916888  0.18578087  1
  H  H29  1  0.66083112  0.55823301  0.18578087  1
  H  H30  1  0.43735804  0.00492206  0.75252763  1
  H  H31  1  0.99507794  0.43243598  0.75252763  1
  H  H32  1  0.56756402  0.56264196  0.75252763  1
  H  H33  1  0.50380902  0.10418651  0.82746571  1
  H  H34  1  0.89581349  0.39962251  0.82746571  1
  H  H35  1  0.60037749  0.49619098  0.82746571  1
  H  H36  1  0.33373357  0.89360669  0.15989046  1
  H  H37  1  0.10639331  0.44012688  0.15989046  1
  H  H38  1  0.55987312  0.66626643  0.15989046  1
  H  H39  1  0.35723395  0.86362527  0.01774024  1
  H  H40  1  0.13637473  0.49360868  0.01774024  1
  H  H41  1  0.50639132  0.64276605  0.01774024  1
  H  H42  1  0.23185087  0.90569889  0.75272289  1
  H  H43  1  0.09430111  0.32615199  0.75272289  1
  H  H44  1  0.67384801  0.76814913  0.75272289  1
  H  H45  1  0.19646917  0.84991234  0.89202775  1
  H  H46  1  0.15008766  0.34655684  0.89202775  1
  H  H47  1  0.65344316  0.80353083  0.89202775  1
  H  H48  1  0.17595468  0.98889121  0.03123304  1
  H  H49  1  0.01110879  0.18706347  0.03123304  1
  H  H50  1  0.81293653  0.82404532  0.03123304  1
  H  H51  1  0.23303244  0.00884750  0.17066440  1
  H  H52  1  0.99115250  0.22418495  0.17066440  1
  H  H53  1  0.77581505  0.76696756  0.17066440  1
  H  H54  1  0.50802469  0.99419062  0.05930489  1
  H  H55  1  0.00580938  0.51383407  0.05930489  1
  H  H56  1  0.48616593  0.49197531  0.05930489  1
  H  H57  1  0.56556569  0.98986732  0.18221339  1
  H  H58  1  0.01013268  0.57569837  0.18221339  1
  H  H59  1  0.42430163  0.43443431  0.18221339  1
  H  H60  1  0.66417091  0.10525387  0.76540069  1
  H  H61  1  0.89474613  0.55891704  0.76540069  1
  H  H62  1  0.44108296  0.33582909  0.76540069  1
  H  H63  1  0.68303788  0.15711409  0.91010862  1
  H  H64  1  0.84288591  0.52592379  0.91010862  1
  H  H65  1  0.47407621  0.31696212  0.91010862  1
  H  H66  1  0.82880458  0.05707516  0.09272258  1
  H  H67  1  0.94292484  0.77172941  0.09272258  1
  H  H68  1  0.22827059  0.17119542  0.09272258  1
  H  H69  1  0.76372233  0.08870632  0.17481161  1
  H  H70  1  0.91129368  0.67501602  0.17481161  1
  H  H71  1  0.32498398  0.23627767  0.17481161  1
  H  H72  1  0.76974939  0.00330927  0.74394826  1
  H  H73  1  0.99669073  0.76644012  0.74394826  1
  H  H74  1  0.23355988  0.23025061  0.74394826  1
  H  H75  1  0.80539320  0.95602056  0.85483309  1
  H  H76  1  0.04397944  0.84937265  0.85483309  1
  H  H77  1  0.15062735  0.19460680  0.85483309  1
  H  H78  1  0.56102190  0.82340206  0.09092734  1
  H  H79  1  0.17659794  0.73761984  0.09092734  1
  H  H80  1  0.26238016  0.43897810  0.09092734  1
  H  H81  1  0.66351890  0.88285218  0.15875906  1
  H  H82  1  0.11714782  0.78066672  0.15875906  1
  H  H83  1  0.21933328  0.33648110  0.15875906  1
  H  H84  1  0.48404222  0.85957273  0.85340623  1
  H  H85  1  0.14042727  0.62446949  0.85340623  1
  H  H86  1  0.37553051  0.51595778  0.85340623  1
  H  H87  1  0.56750949  0.89448775  0.74061663  1
  H  H88  1  0.10551225  0.67302174  0.74061663  1
  H  H89  1  0.32697826  0.43249051  0.74061663  1
  H  H90  1  0.02331555  0.14347005  0.36546286  1
  H  H91  1  0.85652995  0.87984550  0.36546286  1
  H  H92  1  0.12015450  0.97668445  0.36546286  1
  H  H93  1  0.16447433  0.10375925  0.59024059  1
  H  H94  1  0.89624075  0.06071508  0.59024059  1
  H  H95  1  0.93928492  0.83552567  0.59024059  1
  H  H96  1  0.52350692  0.31131831  0.55414533  1
  H  H97  1  0.68868169  0.21218861  0.55414533  1
  H  H98  1  0.78781139  0.47649308  0.55414533  1
  H  H99  1  0.55954265  0.16821397  0.33283354  1
  H  H100  1  0.83178603  0.39132868  0.33283354  1
  H  H101  1  0.60867132  0.44045735  0.33283354  1
  H  H102  1  0.27571753  0.50168716  0.59655167  1
  H  H103  1  0.49831284  0.77403037  0.59655167  1
  H  H104  1  0.22596963  0.72428247  0.59655167  1
  H  H105  1  0.35217287  0.80788662  0.37343965  1
  H  H106  1  0.19211338  0.54428626  0.37343965  1
  H  H107  1  0.45571374  0.64782713  0.37343965  1
  H  H108  1  0.29407942  0.10943592  0.34715385  1
  H  H109  1  0.89056408  0.18464351  0.34715385  1
  H  H110  1  0.81535649  0.70592058  0.34715385  1
  H  H111  1  0.43987298  0.16213974  0.55153010  1
  H  H112  1  0.83786026  0.27773324  0.55153010  1
  H  H113  1  0.72226676  0.56012702  0.55153010  1
  H  H114  1  0.47908582  0.02083869  0.35363507  1
  H  H115  1  0.97916131  0.45824714  0.35363507  1
  H  H116  1  0.54175286  0.52091418  0.35363507  1
  H  H117  1  0.36661521  0.88310963  0.59740639  1
  H  H118  1  0.11689037  0.48350558  0.59740639  1
  H  H119  1  0.51649442  0.63338479  0.59740639  1
  H  H120  1  0.21343903  0.83971700  0.35313877  1
  H  H121  1  0.16028300  0.37372204  0.35313877  1
  H  H122  1  0.62627796  0.78656097  0.35313877  1
  H  H123  1  0.17728046  0.96188925  0.58703498  1
  H  H124  1  0.03811075  0.21539121  0.58703498  1
  H  H125  1  0.78460879  0.82271954  0.58703498  1
  H  H126  1  0.55553754  0.04176114  0.58035643  1
  H  H127  1  0.95823886  0.51377640  0.58035643  1
  H  H128  1  0.48622360  0.44446246  0.58035643  1
  H  H129  1  0.70215634  0.15167023  0.32908326  1
  H  H130  1  0.84832977  0.55048611  0.32908326  1
  H  H131  1  0.44951389  0.29784366  0.32908326  1
  H  H132  1  0.81829637  0.12730291  0.56996822  1
  H  H133  1  0.87269709  0.69099346  0.56996822  1
  H  H134  1  0.30900654  0.18170363  0.56996822  1
  H  H135  1  0.77172820  0.94266315  0.36153414  1
  H  H136  1  0.05733685  0.82906505  0.36153414  1
  H  H137  1  0.17093495  0.22827180  0.36153414  1
  H  H138  1  0.64784256  0.85975502  0.58226114  1
  H  H139  1  0.14024498  0.78808755  0.58226114  1
  H  H140  1  0.21191245  0.35215744  0.58226114  1
  H  H141  1  0.49968906  0.89148402  0.37394811  1
  H  H142  1  0.10851598  0.60820504  0.37394811  1
  H  H143  1  0.39179496  0.50031094  0.37394811  1
  O  O0  1  0.03434665  0.11590269  0.88922309  1
  O  O1  1  0.88409731  0.91844396  0.88922309  1
  O  O2  1  0.08155604  0.96565335  0.88922309  1
  O  O3  1  0.11370878  0.08421342  0.11535287  1
  O  O4  1  0.91578658  0.02949535  0.11535287  1
  O  O5  1  0.97050465  0.88629122  0.11535287  1
  O  O6  1  0.58191325  0.21993563  0.80163972  1
  O  O7  1  0.78006437  0.36197762  0.80163972  1
  O  O8  1  0.63802238  0.41808675  0.80163972  1
  O  O9  1  0.69545595  0.24759404  0.02819831  1
  O  O10  1  0.75240596  0.44786191  0.02819831  1
  O  O11  1  0.55213809  0.30454405  0.02819831  1
  O  O12  1  0.30291760  0.55288645  0.12483692  1
  O  O13  1  0.44711355  0.75003114  0.12483692  1
  O  O14  1  0.24996886  0.69708240  0.12483692  1
  O  O15  1  0.36539057  0.78232987  0.89865014  1
  O  O16  1  0.21767013  0.58306070  0.89865014  1
  O  O17  1  0.41693930  0.63460943  0.89865014  1
  O  O18  1  0.32171231  0.10634360  0.83652165  1
  O  O19  1  0.89365640  0.21536871  0.83652165  1
  O  O20  1  0.78463129  0.67828769  0.83652165  1
  O  O21  1  0.43229818  0.11926677  0.09371260  1
  O  O22  1  0.88073323  0.31303141  0.09371260  1
  O  O23  1  0.68696859  0.56770182  0.09371260  1
  O  O24  1  0.45537721  0.03575926  0.84207142  1
  O  O25  1  0.96424074  0.41961795  0.84207142  1
  O  O26  1  0.58038205  0.54462279  0.84207142  1
  O  O27  1  0.36821312  0.91860950  0.07454733  1
  O  O28  1  0.08139050  0.44960361  0.07454733  1
  O  O29  1  0.55039639  0.63178688  0.07454733  1
  O  O30  1  0.25259105  0.89762110  0.84332578  1
  O  O31  1  0.10237890  0.35496995  0.84332578  1
  O  O32  1  0.64503005  0.74740895  0.84332578  1
  O  O33  1  0.22567934  0.98273610  0.07876025  1
  O  O34  1  0.01726390  0.24294324  0.07876025  1
  O  O35  1  0.75705676  0.77432066  0.07876025  1
  O  O36  1  0.57306949  0.01330944  0.08815212  1
  O  O37  1  0.98669056  0.55976005  0.08815212  1
  O  O38  1  0.44023995  0.42693051  0.08815212  1
  O  O39  1  0.69441730  0.11278464  0.85438549  1
  O  O40  1  0.88721536  0.58163267  0.85438549  1
  O  O41  1  0.41836733  0.30558270  0.85438549  1
  O  O42  1  0.77546691  0.07075717  0.08456803  1
  O  O43  1  0.92924283  0.70470974  0.08456803  1
  O  O44  1  0.29529026  0.22453309  0.08456803  1
  O  O45  1  0.75358580  0.96991735  0.83137585  1
  O  O46  1  0.03008265  0.78366844  0.83137585  1
  O  O47  1  0.21633156  0.24641420  0.83137585  1
  O  O48  1  0.63034600  0.86701081  0.07141924  1
  O  O49  1  0.13298919  0.76333519  0.07141924  1
  O  O50  1  0.23666481  0.36965400  0.07141924  1
  O  O51  1  0.55234711  0.90364435  0.83414841  1
  O  O52  1  0.09635565  0.64870276  0.83414841  1
  O  O53  1  0.35129724  0.44765289  0.83414841  1
  O  O54  1  0.06557766  0.11585670  0.37189856  1
  O  O55  1  0.88414330  0.94972096  0.37189856  1
  O  O56  1  0.05027904  0.93442234  0.37189856  1
  O  O57  1  0.11442446  0.03704510  0.61039387  1
  O  O58  1  0.96295490  0.07737935  0.61039387  1
  O  O59  1  0.92262065  0.88557554  0.61039387  1
  O  O60  1  0.55059313  0.26857562  0.54613190  1
  O  O61  1  0.73142438  0.28201751  0.54613190  1
  O  O62  1  0.71798249  0.44940687  0.54613190  1
  O  O63  1  0.62534305  0.21784447  0.30842626  1
  O  O64  1  0.78215553  0.40749859  0.30842626  1
  O  O65  1  0.59250141  0.37465695  0.30842626  1
  O  O66  1  0.25933942  0.55137371  0.61973797  1
  O  O67  1  0.44862629  0.70796571  0.61973797  1
  O  O68  1  0.29203429  0.74066058  0.61973797  1
  O  O69  1  0.39634111  0.78240348  0.38081733  1
  O  O70  1  0.21759652  0.61393763  0.38081733  1
  O  O71  1  0.38606237  0.60365889  0.38081733  1
  O  O72  1  0.25857885  0.03937231  0.34446532  1
  O  O73  1  0.96062769  0.21920654  0.34446532  1
  O  O74  1  0.78079346  0.74142115  0.34446532  1
  O  O75  1  0.37258799  0.11383303  0.57297009  1
  O  O76  1  0.88616697  0.25875497  0.57297009  1
  O  O77  1  0.74124503  0.62741201  0.57297009  1
  O  O78  1  0.44736409  0.05984954  0.35075787  1
  O  O79  1  0.94015046  0.38751454  0.35075787  1
  O  O80  1  0.61248546  0.55263591  0.35075787  1
  O  O81  1  0.40035347  0.95325567  0.58870313  1
  O  O82  1  0.04674433  0.44709780  0.58870313  1
  O  O83  1  0.55290220  0.59964653  0.58870313  1
  O  O84  1  0.28398078  0.87612433  0.35200666  1
  O  O85  1  0.12387567  0.40785645  0.35200666  1
  O  O86  1  0.59214355  0.71601922  0.35200666  1
  O  O87  1  0.21236197  0.92630516  0.58450827  1
  O  O88  1  0.07369484  0.28605681  0.58450827  1
  O  O89  1  0.71394319  0.78763803  0.58450827  1
  O  O90  1  0.62554101  0.07578304  0.58205192  1
  O  O91  1  0.92421696  0.54975797  0.58205192  1
  O  O92  1  0.45024203  0.37445899  0.58205192  1
  O  O93  1  0.73672725  0.11602906  0.33683399  1
  O  O94  1  0.88397094  0.62069819  0.33683399  1
  O  O95  1  0.37930181  0.26327275  0.33683399  1
  O  O96  1  0.78724110  0.05661145  0.57299558  1
  O  O97  1  0.94338855  0.73062965  0.57299558  1
  O  O98  1  0.26937035  0.21275890  0.57299558  1
  O  O99  1  0.70490170  0.92627194  0.34267008  1
  O  O100  1  0.07372806  0.77862976  0.34267008  1
  O  O101  1  0.22137024  0.29509830  0.34267008  1
  O  O102  1  0.60539654  0.88737524  0.58167080  1
  O  O103  1  0.11262476  0.71802131  0.58167080  1
  O  O104  1  0.28197869  0.39460346  0.58167080  1
  O  O105  1  0.54823868  0.95901320  0.35306916  1
  O  O106  1  0.04098680  0.58922548  0.35306916  1
  O  O107  1  0.41077452  0.45176132  0.35306916  1
  Mg  Mg0  1  0.34235257  0.01544021  0.96220176  1
  Mg  Mg1  1  0.98455979  0.32691236  0.96220176  1
  Mg  Mg2  1  0.67308764  0.65764743  0.96220176  1
  Mg  Mg3  1  0.66154604  0.98822445  0.96163528  1
  Mg  Mg4  1  0.01177555  0.67332158  0.96163528  1
  Mg  Mg5  1  0.32667842  0.33845396  0.96163528  1
  Sb  Sb0  1  0.00000000  0.00000000  0.00233089  1
  Sb  Sb1  1  0.66666667  0.33333333  0.91392983  1
  Sb  Sb2  1  0.33333333  0.66666667  0.01181630  1
  Sb  Sb3  1  0.00000000  0.00000000  0.49457333  1
  Sb  Sb4  1  0.66666667  0.33333333  0.42359409  1
  Sb  Sb5  1  0.33333333  0.66666667  0.50426519  1
  Sb  Sb6  1  0.32870681  0.99388421  0.46531751  1
  Sb  Sb7  1  0.00611579  0.33482259  0.46531751  1
  Sb  Sb8  1  0.66517741  0.67129319  0.46531751  1
  Sb  Sb9  1  0.66800532  0.00328835  0.46000231  1
  Sb  Sb10  1  0.99671165  0.66471697  0.46000231  1
  Sb  Sb11  1  0.33528303  0.33199468  0.46000231  1
loop_
_geom_bond_atom_site_label_1
_geom_bond_atom_site_label_2
_geom_bond_distance
_geom_bond_site_symmetry_2
H0 O0 0.988866 1_655
H1 O1 0.988866 1_555
H2 O2 0.988866 1_545
H3 O3 0.994386 1_555
H4 O4 0.994386 1_565
H5 O5 0.994386 1_455
H6 O6 0.995229 1_555
H7 O7 0.995229 1_555
H8 O8 0.995229 1_555
H9 O9 0.988773 1_555
H10 O10 0.988773 1_555
H11 O11 0.988773 1_555
H12 O12 0.994218 1_555
H13 O13 0.994218 1_555
H14 O14 0.994218 1_555
H15 O15 0.988777 1_555
H16 O16 0.988777 1_555
H17 O17 0.988777 1_555
H18 O18 0.987603 1_555
H19 O19 0.987603 1_555
H20 O20 0.987603 1_555
H21 O18 0.993327 1_555
H22 O19 0.993327 1_555
H23 O20 0.993327 1_555
H24 O21 0.994404 1_555
H25 O22 0.994404 1_555
H26 O23 0.994404 1_555
H27 O21 0.987380 1_555
H28 O22 0.987380 1_555
H29 O23 0.987380 1_555
H30 O24 0.990454 1_555
H31 O25 0.990454 1_555
H32 O26 0.990454 1_555
H33 O24 1.000141 1_555
H34 O25 1.000141 1_555
H35 O26 1.000141 1_555
H36 O27 0.984714 1_555
H37 O28 0.984714 1_555
H38 O29 0.984714 1_555
H39 O27 0.994069 1_555
H40 O28 0.994069 1_555
H41 O29 0.994069 1_555
H42 O30 0.992366 1_555
H43 O31 0.992366 1_555
H44 O32 0.992366 1_555
H45 O30 0.979121 1_555
H46 O31 0.979121 1_555
H47 O32 0.979121 1_555
H48 O33 0.982601 1_555
H49 O34 0.982601 1_555
H50 O35 0.982601 1_555
H51 O33 0.988347 1_545
H52 O34 0.988347 1_655
H53 O35 0.988346 1_555
H54 O36 0.982921 1_565
H55 O37 0.982921 1_455
H56 O38 0.982921 1_555
H57 O36 0.993161 1_565
H58 O37 0.993161 1_455
H59 O38 0.993161 1_555
H60 O39 0.988651 1_555
H61 O40 0.988651 1_555
H62 O41 0.988651 1_555
H63 O39 0.995826 1_555
H64 O40 0.995826 1_555
H65 O41 0.995826 1_555
H66 O42 0.999224 1_555
H67 O43 0.999224 1_555
H68 O44 0.999224 1_555
H69 O42 0.990192 1_555
H70 O43 0.990192 1_555
H71 O44 0.990192 1_555
H72 O45 0.987312 1_545
H73 O46 0.987312 1_655
H74 O47 0.987312 1_555
H75 O45 1.001365 1_555
H76 O46 1.001366 1_555
H77 O47 1.001366 1_555
H78 O48 1.004499 1_555
H79 O49 1.004499 1_555
H80 O50 1.004498 1_555
H81 O48 0.985119 1_555
H82 O49 0.985119 1_555
H83 O50 0.985119 1_555
H84 O51 0.992551 1_555
H85 O52 0.992551 1_555
H86 O53 0.992551 1_555
H87 O51 0.991231 1_555
H88 O52 0.991231 1_555
H89 O53 0.991231 1_555
H90 O54 0.991852 1_555
H91 O55 0.991852 1_555
H92 O56 0.991852 1_555
H93 O57 0.996843 1_555
H94 O58 0.996843 1_555
H95 O59 0.996843 1_555
H96 O60 0.993351 1_555
H97 O61 0.993351 1_555
H98 O62 0.993351 1_555
H99 O63 0.994377 1_555
H100 O64 0.994377 1_555
H101 O65 0.994377 1_555
H102 O66 0.994622 1_555
H103 O67 0.994622 1_555
H104 O68 0.994622 1_555
H105 O69 0.993851 1_555
H106 O70 0.993851 1_555
H107 O71 0.993851 1_555
H108 O72 0.985655 1_555
H109 O73 0.985655 1_555
H110 O74 0.985655 1_555
H111 O75 0.998665 1_555
H112 O76 0.998665 1_555
H113 O77 0.998665 1_555
H114 O78 0.996840 1_555
H115 O79 0.996840 1_555
H116 O80 0.996840 1_555
H117 O81 0.990441 1_555
H118 O82 0.990441 1_555
H119 O83 0.990441 1_555
H120 O84 0.992223 1_555
H121 O85 0.992223 1_555
H122 O86 0.992223 1_555
H123 O87 0.994055 1_555
H124 O88 0.994055 1_555
H125 O89 0.994055 1_555
H126 O90 0.984691 1_555
H127 O91 0.984691 1_555
H128 O92 0.984691 1_555
H129 O93 0.990387 1_555
H130 O94 0.990387 1_555
H131 O95 0.990387 1_555
H132 O96 0.996985 1_555
H133 O97 0.996985 1_555
H134 O98 0.996985 1_555
H135 O99 0.997310 1_555
H136 O100 0.997310 1_555
H137 O101 0.997310 1_555
H138 O102 0.992643 1_555
H139 O103 0.992643 1_555
H140 O104 0.992643 1_555
H141 O105 1.001218 1_555
H142 O106 1.001218 1_555
H143 O107 1.001218 1_555
O0 Sb0 2.016371 1_556
O1 Sb0 2.016371 1_666
O2 Sb0 2.016371 1_566
O3 Sb0 2.003664 1_555
O4 Sb0 2.003664 1_655
O5 Sb0 2.003664 1_665
O6 Sb1 1.998647 1_555
O7 Sb1 1.998647 1_555
O8 Sb1 1.998647 1_555
O9 Sb1 2.023871 1_554
O10 Sb1 2.023871 1_554
O11 Sb1 2.023871 1_554
O12 Sb2 2.001323 1_555
O13 Sb2 2.001323 1_555
O14 Sb2 2.001323 1_555
O15 Sb2 2.020974 1_556
O16 Sb2 2.020974 1_556
O17 Sb2 2.020974 1_556
O54 Sb3 2.038318 1_555
O55 Sb3 2.038318 1_665
O56 Sb3 2.038318 1_565
O57 Sb3 2.005000 1_555
O58 Sb3 2.005000 1_655
O59 Sb3 2.005000 1_665
O60 Sb4 2.039081 1_555
O61 Sb4 2.039081 1_555
O62 Sb4 2.039081 1_555
O63 Sb4 2.004346 1_555
O64 Sb4 2.004346 1_555
O65 Sb4 2.004346 1_555
O66 Sb5 2.003688 1_555
O67 Sb5 2.003688 1_555
O68 Sb5 2.003688 1_555
O69 Sb5 2.039500 1_555
O70 Sb5 2.039500 1_555
O71 Sb5 2.039500 1_555
O72 Sb6 2.030891 1_545
O73 Sb7 2.030891 1_655
O74 Sb8 2.030891 1_555
O75 Sb6 2.014202 1_545
O76 Sb7 2.014202 1_655
O77 Sb8 2.014201 1_555
O78 Sb6 2.022582 1_545
O79 Sb7 2.022582 1_655
O80 Sb8 2.022582 1_555
O81 Sb6 2.014551 1_555
O82 Sb7 2.014551 1_555
O83 Sb8 2.014551 1_555
O84 Sb6 2.015444 1_555
O85 Sb7 2.015444 1_555
O86 Sb8 2.015444 1_555
O87 Sb6 2.025317 1_555
O88 Sb7 2.025317 1_555
O89 Sb8 2.025317 1_555
O90 Sb9 2.035359 1_555
O91 Sb10 2.035359 1_555
O92 Sb11 2.035359 1_555
O93 Sb9 2.012622 1_555
O94 Sb10 2.012622 1_555
O95 Sb11 2.012622 1_555
O96 Sb9 2.020326 1_555
O97 Sb10 2.020326 1_555
O98 Sb11 2.020326 1_555
O99 Sb9 2.007626 1_565
O100 Sb10 2.007626 1_455
O101 Sb11 2.007626 1_555
O102 Sb9 2.030601 1_565
O103 Sb10 2.030601 1_455
O104 Sb11 2.030601 1_555
O105 Sb9 2.007258 1_565
O106 Sb10 2.007258 1_455
O107 Sb11 2.007258 1_555
Mg0 O33 2.050784 1_546
Mg0 O21 2.054189 1_556
Mg0 O24 2.072573 1_555
Mg0 O18 2.084330 1_555
Mg0 O30 2.095333 1_545
Mg0 O27 2.134056 1_546
Mg1 O34 2.050784 1_656
Mg1 O22 2.054189 1_556
Mg1 O25 2.072573 1_555
Mg1 O19 2.084330 1_555
Mg1 O31 2.095334 1_655
Mg1 O28 2.134055 1_656
Mg2 O35 2.050784 1_556
Mg2 O23 2.054189 1_556
Mg2 O26 2.072573 1_555
Mg2 O20 2.084331 1_555
Mg2 O32 2.095334 1_555
Mg2 O29 2.134055 1_556
Mg3 O51 2.049093 1_555
Mg3 O42 2.056702 1_566
Mg3 O48 2.079129 1_556
Mg3 O36 2.096316 1_566
Mg3 O39 2.105039 1_565
Mg3 O45 2.107249 1_555
Mg4 O52 2.049093 1_555
Mg4 O43 2.056703 1_456
Mg4 O49 2.079129 1_556
Mg4 O37 2.096316 1_456
Mg4 O40 2.105039 1_455
Mg4 O46 2.107249 1_555
Mg5 O53 2.049093 1_555
Mg5 O44 2.056702 1_556
Mg5 O50 2.079129 1_556
Mg5 O38 2.096316 1_556
Mg5 O41 2.105039 1_555
Mg5 O47 2.107249 1_555
