# generated using pymatgen
data_Ba2YMgMn3O8
_symmetry_space_group_name_H-M   'P 1'
_cell_length_a   4.20064417
_cell_length_b   3.67174435
_cell_length_c   15.63946990
_cell_angle_alpha   90.01391287
_cell_angle_beta   90.00299349
_cell_angle_gamma   89.99710911
_symmetry_Int_Tables_number   1
_chemical_formula_structural   Ba2YMgMn3O8
_chemical_formula_sum   'Ba2 Y1 Mg1 Mn3 O8'
_cell_volume   241.21835123
_cell_formula_units_Z   1
loop_
 _symmetry_equiv_pos_site_id
 _symmetry_equiv_pos_as_xyz
  1  'x, y, z'
loop_
 _atom_site_type_symbol
 _atom_site_label
 _atom_site_symmetry_multiplicity
 _atom_site_fract_x
 _atom_site_fract_y
 _atom_site_fract_z
 _atom_site_occupancy
  Ba  Ba0  1  0.50000569  0.49983871  0.19048901  1
  Ba  Ba1  1  0.49996665  0.49956432  0.92788192  1
  Y  Y0  1  0.50004035  0.50023094  0.44791398  1
  Mg  Mg0  1  0.99989622  0.50031412  0.75690823  1
  Mn  Mn0  1  0.00002346  0.00000302  0.32964707  1
  Mn  Mn1  1  -0.00001137  -0.00032866  0.06362462  1
  Mn  Mn2  1  0.00007008  0.00030435  0.58558026  1
  O  O0  1  0.00003081  0.50005259  0.39755893  1
  O  O1  1  0.50002492  -0.00000475  0.33710517  1
  O  O2  1  0.49998615  -0.00033090  0.05180439  1
  O  O3  1  0.00000580  -0.00016497  0.19811736  1
  O  O4  1  0.00006748  0.50033695  0.63666705  1
  O  O5  1  0.50004166  0.00024699  0.52727477  1
  O  O6  1  0.99986935  0.00032146  0.81666423  1
  O  O7  1  0.99998074  0.49961584  0.02165402  1
loop_
_geom_bond_atom_site_label_1
_geom_bond_atom_site_label_2
_geom_bond_distance
_geom_bond_site_symmetry_2
Ba0 O3 2.792041 1_565
Ba0 O3 2.792088 1_655
Ba0 O3 2.792171 1_665
Ba0 O3 2.792236 1_555
Ba0 O2 2.841555 1_565
Ba0 O2 2.841679 1_555
Ba0 O1 2.937381 1_555
Ba0 O1 2.937403 1_565
Ba1 O7 2.561647 1_556
Ba1 O7 2.561676 1_456
Ba1 O2 2.669508 1_566
Ba1 O2 2.669626 1_556
Mg0 O4 1.880509 1_655
Mg0 O6 2.059874 1_565
Mg0 O6 2.060230 1_555
Mn0 O3 2.057055 1_555
Mn0 O1 2.103558 1_455
Mn0 O1 2.103558 1_555
Mn0 O0 2.120900 1_555
Mn0 O0 2.121031 1_545
Mn1 O7 1.949647 1_455
Mn1 O7 1.949730 1_445
Mn1 O3 2.103395 1_555
Mn1 O2 2.108441 1_555
Mn1 O2 2.108443 1_455
Mn2 O4 2.002126 1_555
Mn2 O4 2.002262 1_545
Mn2 O5 2.289662 1_555
Mn2 O5 2.289794 1_455
O0 Y0 2.243111 1_555
O0 Y0 2.243113 1_455
O1 Y0 2.524292 1_545
O1 Y0 2.524939 1_555
O5 Y0 2.215856 1_545
O5 Y0 2.216257 1_555
