# generated using pymatgen
data_Na2ZrTaSi2PO12
_symmetry_space_group_name_H-M   'P 1'
_cell_length_a   9.00470839
_cell_length_b   9.00470808
_cell_length_c   23.02361033
_cell_angle_alpha   89.85905036
_cell_angle_beta   90.14094964
_cell_angle_gamma   119.64960275
_symmetry_Int_Tables_number   1
_chemical_formula_structural   Na2ZrTaSi2PO12
_chemical_formula_sum   'Na12 Zr6 Ta6 Si12 P6 O72'
_cell_volume   1622.42343077
_cell_formula_units_Z   6
loop_
 _symmetry_equiv_pos_site_id
 _symmetry_equiv_pos_as_xyz
  1  'x, y, z'
loop_
 _atom_site_type_symbol
 _atom_site_label
 _atom_site_symmetry_multiplicity
 _atom_site_fract_x
 _atom_site_fract_y
 _atom_site_fract_z
 _atom_site_occupancy
  Na  Na0  1  0.99428924  0.63051029  0.25037788  1
  Na  Na1  1  0.36948971  0.00571076  0.75037788  1
  Na  Na2  1  0.66095624  0.96384329  0.58371088  1
  Na  Na3  1  0.03615671  0.33904376  0.08371088  1
  Na  Na4  1  0.32762224  0.29717729  0.91704488  1
  Na  Na5  1  0.70282271  0.67237776  0.41704488  1
  Na  Na6  1  0.01039926  0.00191118  0.49867807  1
  Na  Na7  1  0.99808882  0.98960074  0.99867807  1
  Na  Na8  1  0.67706626  0.33524418  0.83201107  1
  Na  Na9  1  0.66475582  0.32293374  0.33201107  1
  Na  Na10  1  0.34373226  0.66857818  0.16534507  1
  Na  Na11  1  0.33142182  0.65626774  0.66534507  1
  Zr  Zr0  1  0.99710098  0.00205492  0.35308089  1
  Zr  Zr1  1  0.99794508  0.00289902  0.85308089  1
  Zr  Zr2  1  0.66376798  0.33538792  0.68641389  1
  Zr  Zr3  1  0.66461208  0.33623202  0.18641389  1
  Zr  Zr4  1  0.33043398  0.66872192  0.01974789  1
  Zr  Zr5  1  0.33127808  0.66956602  0.51974789  1
  Ta  Ta0  1  0.00145280  0.99946505  0.64671806  1
  Ta  Ta1  1  0.00053495  0.99854720  0.14671806  1
  Ta  Ta2  1  0.66811980  0.33279805  0.98005106  1
  Ta  Ta3  1  0.66720195  0.33188020  0.48005106  1
  Ta  Ta4  1  0.33478580  0.66613205  0.31338506  1
  Ta  Ta5  1  0.33386795  0.66521420  0.81338506  1
  Si  Si0  1  0.70653323  0.71256061  0.25028120  1
  Si  Si1  1  0.00270513  0.29177467  0.24935026  1
  Si  Si2  1  0.28743939  0.29346677  0.75028120  1
  Si  Si3  1  0.70822533  0.99729487  0.74935026  1
  Si  Si4  1  0.37320023  0.04589361  0.58361420  1
  Si  Si5  1  0.66937213  0.62510767  0.58268326  1
  Si  Si6  1  0.95410639  0.62679977  0.08361420  1
  Si  Si7  1  0.37489233  0.33062787  0.08268326  1
  Si  Si8  1  0.03986623  0.37922761  0.91694820  1
  Si  Si9  1  0.33603813  0.95844167  0.91601726  1
  Si  Si10  1  0.62077239  0.96013377  0.41694820  1
  Si  Si11  1  0.04155833  0.66396187  0.41601726  1
  P  P0  1  0.28884211  0.99922423  0.25062273  1
  P  P1  1  0.00077577  0.71115789  0.75062273  1
  P  P2  1  0.95550911  0.33255723  0.58395573  1
  P  P3  1  0.66744277  0.04449089  0.08395573  1
  P  P4  1  0.62217511  0.66589123  0.91728973  1
  P  P5  1  0.33410877  0.37782489  0.41728973  1
  O  O0  1  0.20680219  0.02498508  0.30396691  1
  O  O1  1  0.82621069  0.79155434  0.30732040  1
  O  O2  1  0.97558147  0.17541500  0.30549533  1
  O  O3  1  0.20844566  0.17378931  0.80732040  1
  O  O4  1  0.97501492  0.79319781  0.80396691  1
  O  O5  1  0.82458500  0.02441853  0.80549533  1
  O  O6  1  0.80169987  0.96982297  0.69119084  1
  O  O7  1  0.16280511  0.19094252  0.69385397  1
  O  O8  1  0.03311118  0.83067341  0.69607863  1
  O  O9  1  0.80905748  0.83719489  0.19385397  1
  O  O10  1  0.03017703  0.19830013  0.19119084  1
  O  O11  1  0.16932659  0.96688882  0.19607863  1
  O  O12  1  0.87346919  0.35831808  0.63729991  1
  O  O13  1  0.49287769  0.12488734  0.64065340  1
  O  O14  1  0.64224847  0.50874800  0.63882833  1
  O  O15  1  0.87511266  0.50712231  0.14065340  1
  O  O16  1  0.64168192  0.12653081  0.13729991  1
  O  O17  1  0.49125200  0.35775153  0.13882833  1
  O  O18  1  0.46836687  0.30315597  0.02452384  1
  O  O19  1  0.82947211  0.52427552  0.02718697  1
  O  O20  1  0.69977818  0.16400641  0.02941163  1
  O  O21  1  0.47572448  0.17052789  0.52718697  1
  O  O22  1  0.69684403  0.53163313  0.52452384  1
  O  O23  1  0.83599359  0.30022182  0.52941163  1
  O  O24  1  0.54013519  0.69165208  0.97063391  1
  O  O25  1  0.15954369  0.45822134  0.97398740  1
  O  O26  1  0.30891447  0.84208200  0.97216233  1
  O  O27  1  0.54177866  0.84045631  0.47398740  1
  O  O28  1  0.30834792  0.45986481  0.47063391  1
  O  O29  1  0.15791800  0.69108553  0.47216233  1
  O  O30  1  0.13503287  0.63648997  0.35785784  1
  O  O31  1  0.49613811  0.85760952  0.36052097  1
  O  O32  1  0.36644418  0.49734041  0.36274563  1
  O  O33  1  0.14239048  0.50386189  0.86052097  1
  O  O34  1  0.36351003  0.86496713  0.85785784  1
  O  O35  1  0.50265959  0.63355582  0.86274563  1
  O  O36  1  0.01203724  0.82708329  0.41053798  1
  O  O37  1  0.80693710  0.97349102  0.41035002  1
  O  O38  1  0.18154189  0.19893857  0.40950198  1
  O  O39  1  0.02650898  0.19306290  0.91035002  1
  O  O40  1  0.17291671  0.98796276  0.91053798  1
  O  O41  1  0.80106143  0.81845811  0.90950198  1
  O  O42  1  0.96369952  0.16244348  0.58977619  1
  O  O43  1  0.18349966  0.02719618  0.59167137  1
  O  O44  1  0.83922008  0.81912198  0.59114730  1
  O  O45  1  0.97280382  0.81650034  0.09167137  1
  O  O46  1  0.83755652  0.03630048  0.08977619  1
  O  O47  1  0.18087802  0.16077992  0.09114730  1
  O  O48  1  0.67870424  0.16041629  0.74387098  1
  O  O49  1  0.47360410  0.30682402  0.74368302  1
  O  O50  1  0.84820889  0.53227157  0.74283498  1
  O  O51  1  0.69317598  0.52639590  0.24368302  1
  O  O52  1  0.83958371  0.32129576  0.24387098  1
  O  O53  1  0.46772843  0.15179111  0.24283498  1
  O  O54  1  0.63036652  0.49577648  0.92310919  1
  O  O55  1  0.85016666  0.36052918  0.92500437  1
  O  O56  1  0.50588708  0.15245498  0.92448030  1
  O  O57  1  0.63947082  0.14983334  0.42500437  1
  O  O58  1  0.50422352  0.36963348  0.42310919  1
  O  O59  1  0.84754502  0.49411292  0.42448030  1
  O  O60  1  0.34537024  0.49375029  0.07720498  1
  O  O61  1  0.14027010  0.64015802  0.07701702  1
  O  O62  1  0.51487489  0.86560557  0.07616898  1
  O  O63  1  0.35984198  0.85972990  0.57701702  1
  O  O64  1  0.50624971  0.65462976  0.57720498  1
  O  O65  1  0.13439443  0.48512511  0.57616898  1
  O  O66  1  0.29703252  0.82911048  0.25644319  1
  O  O67  1  0.51683266  0.69386318  0.25833837  1
  O  O68  1  0.17255308  0.48578898  0.25781430  1
  O  O69  1  0.30613682  0.48316734  0.75833837  1
  O  O70  1  0.17088952  0.70296748  0.75644319  1
  O  O71  1  0.51421102  0.82744692  0.75781430  1
loop_
_geom_bond_atom_site_label_1
_geom_bond_atom_site_label_2
_geom_bond_distance
_geom_bond_site_symmetry_2
Na0 O51 2.395453 1_555
Na0 O66 2.413551 1_655
Na0 O52 2.424714 1_555
Na0 O68 2.524185 1_655
Na0 O15 2.754790 1_555
Na0 O30 2.765922 1_655
Na0 O1 2.881499 1_555
Na0 O11 2.913679 1_655
Na1 O49 2.395453 1_555
Na1 O70 2.413551 1_545
Na1 O48 2.424714 1_555
Na1 O71 2.524185 1_545
Na1 O13 2.754790 1_555
Na1 O34 2.765922 1_545
Na1 O3 2.881499 1_555
Na1 O8 2.913679 1_545
Na2 O63 2.395462 1_555
Na2 O42 2.413551 1_565
Na2 O64 2.424704 1_555
Na2 O44 2.524185 1_555
Na2 O27 2.754769 1_555
Na2 O6 2.765922 1_555
Na2 O13 2.881499 1_565
Na2 O23 2.913679 1_565
Na3 O61 2.395462 1_555
Na3 O46 2.413551 1_455
Na3 O60 2.424704 1_555
Na3 O47 2.524185 1_555
Na3 O25 2.754769 1_554
Na3 O10 2.765922 1_555
Na3 O15 2.881499 1_455
Na3 O20 2.913679 1_455
Na4 O39 2.395453 1_555
Na4 O54 2.413555 1_555
Na4 O40 2.424714 1_545
Na4 O56 2.524199 1_555
Na4 O3 2.754790 1_555
Na4 O18 2.765908 1_556
Na4 O25 2.881499 1_555
Na4 O35 2.913679 1_555
Na5 O37 2.395453 1_555
Na5 O58 2.413555 1_555
Na5 O36 2.424714 1_655
Na5 O59 2.524199 1_555
Na5 O1 2.754790 1_555
Na5 O22 2.765908 1_555
Na5 O27 2.881499 1_555
Na5 O32 2.913679 1_555
Na6 O36 2.575940 1_545
Na6 O43 2.588504 1_555
Na6 O38 2.651527 1_555
Na6 O37 2.660477 1_445
Na6 O44 2.665785 1_445
Na6 O42 2.699304 1_455
Na7 O40 2.575940 1_655
Na7 O45 2.588504 1_556
Na7 O41 2.651527 1_555
Na7 O39 2.660477 1_665
Na7 O47 2.665785 1_666
Na7 O46 2.699304 1_566
Na8 O48 2.575940 1_555
Na8 O55 2.588504 1_555
Na8 O50 2.651527 1_555
Na8 O49 2.660477 1_555
Na8 O56 2.665785 1_555
Na8 O54 2.699304 1_555
Na9 O52 2.575940 1_555
Na9 O57 2.588504 1_555
Na9 O53 2.651527 1_555
Na9 O51 2.660477 1_555
Na9 O59 2.665785 1_555
Na9 O58 2.699304 1_555
Na10 O60 2.575940 1_555
Na10 O67 2.588504 1_555
Na10 O62 2.651527 1_555
Na10 O61 2.660477 1_555
Na10 O68 2.665785 1_555
Na10 O66 2.699304 1_555
Na11 O64 2.575940 1_555
Na11 O69 2.588504 1_555
Na11 O65 2.651527 1_555
Na11 O63 2.660477 1_555
Na11 O71 2.665785 1_555
Na11 O70 2.699304 1_555
O0 P0 1.511087 1_545
O0 Zr0 2.123810 1_455
O1 Si0 1.622083 1_555
O1 Zr0 2.046181 1_565
O2 Si1 1.603177 1_655
O2 Zr0 1.991129 1_555
O3 Si2 1.622083 1_555
O3 Zr1 2.046181 1_455
O4 P1 1.511087 1_655
O4 Zr1 2.123810 1_565
O5 Si3 1.603177 1_545
O5 Zr1 1.991129 1_555
O6 Si3 1.666099 1_555
O6 Ta0 1.971738 1_655
O7 Si2 1.665316 1_555
O7 Ta0 1.945380 1_545
O8 P1 1.582766 1_555
O8 Ta0 2.025231 1_555
O9 Si0 1.665316 1_555
O9 Ta1 1.945380 1_655
O10 Si1 1.666099 1_555
O10 Ta1 1.971738 1_545
O11 P0 1.582766 1_555
O11 Ta1 2.025231 1_555
O12 P2 1.511087 1_555
O12 Zr2 2.123810 1_555
O13 Si4 1.622083 1_555
O13 Zr2 2.046181 1_555
O14 Si5 1.603177 1_555
O14 Zr2 1.991129 1_555
O15 Si6 1.622083 1_555
O15 Zr3 2.046181 1_555
O16 P3 1.511087 1_555
O16 Zr3 2.123810 1_555
O17 Si7 1.603177 1_555
O17 Zr3 1.991129 1_555
O18 Si7 1.666099 1_555
O18 Ta2 1.971738 1_554
O19 Si6 1.665316 1_555
O19 Ta2 1.945380 1_554
O20 P3 1.582766 1_555
O20 Ta2 2.025231 1_554
O21 Si4 1.665316 1_555
O21 Ta3 1.945380 1_555
O22 Si5 1.666099 1_555
O22 Ta3 1.971738 1_555
O23 P2 1.582766 1_555
O23 Ta3 2.025231 1_555
O24 P4 1.511087 1_555
O24 Zr4 2.123810 1_556
O25 Si8 1.622083 1_555
O25 Zr4 2.046181 1_556
O26 Si9 1.603177 1_555
O26 Zr4 1.991129 1_556
O27 Si10 1.622083 1_555
O27 Zr5 2.046181 1_555
O28 P5 1.511087 1_555
O28 Zr5 2.123810 1_555
O29 Si11 1.603177 1_555
O29 Zr5 1.991129 1_555
O30 Si11 1.666099 1_555
O30 Ta4 1.971738 1_555
O31 Si10 1.665316 1_555
O31 Ta4 1.945380 1_555
O32 P5 1.582766 1_555
O32 Ta4 2.025231 1_555
O33 Si8 1.665316 1_555
O33 Ta5 1.945380 1_555
O34 Si9 1.666099 1_555
O34 Ta5 1.971738 1_555
O35 P4 1.582766 1_555
O35 Ta5 2.025231 1_555
O36 Si11 1.621535 1_555
O36 Zr0 2.109270 1_465
O37 Si10 1.627697 1_555
O37 Zr0 2.076198 1_565
O38 P5 1.524790 1_555
O38 Zr0 2.162504 1_455
O39 Si8 1.627697 1_555
O39 Zr1 2.076198 1_455
O40 Si9 1.621535 1_555
O40 Zr1 2.109270 1_465
O41 P4 1.524790 1_555
O41 Zr1 2.162504 1_565
O42 P2 1.574993 1_555
O42 Ta0 2.114247 1_645
O43 Si4 1.642424 1_555
O43 Ta0 1.989847 1_545
O44 Si5 1.669093 1_555
O44 Ta0 2.015466 1_655
O45 Si6 1.642424 1_555
O45 Ta1 1.989846 1_655
O46 P3 1.574993 1_555
O46 Ta1 2.114247 1_645
O47 Si7 1.669093 1_555
O47 Ta1 2.015466 1_545
O48 Si3 1.621535 1_545
O48 Zr2 2.109270 1_555
O49 Si2 1.627697 1_555
O49 Zr2 2.076198 1_555
O50 P1 1.524790 1_655
O50 Zr2 2.162504 1_555
O51 Si0 1.627697 1_555
O51 Zr3 2.076198 1_555
O52 Si1 1.621535 1_655
O52 Zr3 2.109270 1_555
O53 P0 1.524790 1_545
O53 Zr3 2.162504 1_555
O54 P4 1.575005 1_555
O54 Ta2 2.114247 1_555
O55 Si8 1.642409 1_655
O55 Ta2 1.989847 1_555
O56 Si9 1.669089 1_545
O56 Ta2 2.015466 1_555
O57 Si10 1.642409 1_545
O57 Ta3 1.989846 1_555
O58 P5 1.575005 1_555
O58 Ta3 2.114247 1_555
O59 Si11 1.669089 1_655
O59 Ta3 2.015466 1_555
O60 Si7 1.621548 1_555
O60 Zr4 2.109270 1_555
O61 Si6 1.627682 1_455
O61 Zr4 2.076198 1_555
O62 P3 1.524785 1_565
O62 Zr4 2.162504 1_555
O63 Si4 1.627682 1_565
O63 Zr5 2.076198 1_555
O64 Si5 1.621548 1_555
O64 Zr5 2.109270 1_555
O65 P2 1.524785 1_455
O65 Zr5 2.162504 1_555
O66 P0 1.574993 1_555
O66 Ta4 2.114247 1_555
O67 Si0 1.642424 1_555
O67 Ta4 1.989847 1_555
O68 Si1 1.669093 1_555
O68 Ta4 2.015466 1_555
O69 Si2 1.642424 1_555
O69 Ta5 1.989846 1_555
O70 P1 1.574993 1_555
O70 Ta5 2.114247 1_555
O71 Si3 1.669093 1_555
O71 Ta5 2.015466 1_555
