# generated using pymatgen
data_ZnH2(SO4)2
_symmetry_space_group_name_H-M   'P 1'
_cell_length_a   8.37720600
_cell_length_b   4.97609200
_cell_length_c   8.31457156
_cell_angle_alpha   62.86892955
_cell_angle_beta   90.00000000
_cell_angle_gamma   90.00000000
_symmetry_Int_Tables_number   1
_chemical_formula_structural   ZnH2(SO4)2
_chemical_formula_sum   'Zn2 H4 S4 O16'
_cell_volume   308.46131903
_cell_formula_units_Z   2
loop_
 _symmetry_equiv_pos_site_id
 _symmetry_equiv_pos_as_xyz
  1  'x, y, z'
loop_
 _atom_site_type_symbol
 _atom_site_label
 _atom_site_symmetry_multiplicity
 _atom_site_fract_x
 _atom_site_fract_y
 _atom_site_fract_z
 _atom_site_occupancy
  Zn  Zn0  1  0.50000000  0.00000000  0.50000000  1
  Zn  Zn1  1  0.00000000  0.00000000  0.00000000  1
  H  H0  1  0.97942900  0.44348700  0.34315500  1
  H  H1  1  0.47942900  0.55651300  0.15684500  1
  H  H2  1  0.02057100  0.55651300  0.65684500  1
  H  H3  1  0.52057100  0.44348700  0.84315500  1
  S  S0  1  0.67649000  0.66128000  0.27970500  1
  S  S1  1  0.17649000  0.33872000  0.22029500  1
  S  S2  1  0.32351000  0.33872000  0.72029500  1
  S  S3  1  0.82351000  0.66128000  0.77970500  1
  O  O0  1  0.62300000  0.91602800  0.30842000  1
  O  O1  1  0.12300000  0.08397200  0.19158000  1
  O  O2  1  0.15462000  0.30302100  0.77882600  1
  O  O3  1  0.65462000  0.69697900  0.72117400  1
  O  O4  1  0.84538000  0.69697900  0.22117400  1
  O  O5  1  0.34538000  0.30302100  0.27882600  1
  O  O6  1  0.84957900  0.36677100  0.93726900  1
  O  O7  1  0.34957900  0.63322900  0.56273100  1
  O  O8  1  0.15042100  0.63322900  0.06273100  1
  O  O9  1  0.65042100  0.36677100  0.43726900  1
  O  O10  1  0.41638400  0.33031100  0.88601300  1
  O  O11  1  0.91638400  0.66968900  0.61398700  1
  O  O12  1  0.58361600  0.66968900  0.11398700  1
  O  O13  1  0.08361600  0.33031100  0.38601300  1
  O  O14  1  0.87700000  0.91602800  0.80842000  1
  O  O15  1  0.37700000  0.08397200  0.69158000  1
loop_
_geom_bond_atom_site_label_1
_geom_bond_atom_site_label_2
_geom_bond_distance
_geom_bond_site_symmetry_2
H0 O13 1.011378 1_655
H0 O4 1.647415 1_555
H1 O12 1.011378 1_555
H1 O5 1.647415 1_555
H2 O11 1.011378 1_455
H2 O2 1.647415 1_555
H3 O10 1.011378 1_555
H3 O3 1.647415 1_555
O0 S0 1.463136 1_555
O0 Zn0 2.093019 1_565
O1 S1 1.463136 1_555
O1 Zn1 2.093019 1_555
O2 S2 1.480297 1_555
O2 Zn1 2.191839 1_556
O3 S3 1.480297 1_555
O3 Zn0 2.191839 1_565
O4 S0 1.480297 1_555
O4 Zn1 2.191839 1_665
O5 S1 1.480297 1_555
O5 Zn0 2.191839 1_555
O6 S3 1.469905 1_555
O6 Zn1 2.079097 1_656
O7 S2 1.469905 1_555
O7 Zn0 2.079097 1_565
O8 S1 1.469905 1_555
O8 Zn1 2.079097 1_565
O9 S0 1.469905 1_555
O9 Zn0 2.079097 1_555
O10 S2 1.566214 1_555
O11 S3 1.566214 1_555
O12 S0 1.566214 1_555
O13 S1 1.566214 1_555
O14 S3 1.463136 1_555
O14 Zn1 2.093019 1_666
O15 S2 1.463136 1_555
O15 Zn0 2.093019 1_555
