# generated using pymatgen
data_Sr2CoO4
_symmetry_space_group_name_H-M   'P 1'
_cell_length_a   5.38016699
_cell_length_b   8.65019861
_cell_length_c   8.65341900
_cell_angle_alpha   87.93070279
_cell_angle_beta   71.88793726
_cell_angle_gamma   108.11801854
_symmetry_Int_Tables_number   1
_chemical_formula_structural   Sr2CoO4
_chemical_formula_sum   'Sr8 Co4 O16'
_cell_volume   359.84067929
_cell_formula_units_Z   4
loop_
 _symmetry_equiv_pos_site_id
 _symmetry_equiv_pos_as_xyz
  1  'x, y, z'
loop_
 _atom_site_type_symbol
 _atom_site_label
 _atom_site_symmetry_multiplicity
 _atom_site_fract_x
 _atom_site_fract_y
 _atom_site_fract_z
 _atom_site_occupancy
  Sr  Sr0  1  0.24606795  0.39410440  0.89228223  1
  Sr  Sr1  1  -0.00607835  0.64147259  0.64414888  1
  Sr  Sr2  1  0.75379812  0.89374842  0.39443010  1
  Sr  Sr3  1  0.50488078  0.14450829  0.14336949  1
  Sr  Sr4  1  -0.00585699  0.35592548  0.35773607  1
  Sr  Sr5  1  0.75364564  0.60551671  0.10665977  1
  Sr  Sr6  1  0.50459567  0.85622809  0.85553962  1
  Sr  Sr7  1  0.24675619  0.10857427  0.60577229  1
  Co  Co0  1  0.49712696  0.49917646  0.50109137  1
  Co  Co1  1  0.24720808  0.74564273  0.25491384  1
  Co  Co2  1  0.00674216  0.00428823  -0.00482832  1
  Co  Co3  1  0.74901619  0.25081759  0.74894587  1
  O  O0  1  0.25265500  0.59154400  0.09463679  1
  O  O1  1  0.00515236  0.84468643  0.84134704  1
  O  O2  1  0.74563200  0.09546358  0.59433011  1
  O  O3  1  0.49640939  0.34454490  0.34539549  1
  O  O4  1  0.00584492  0.15837486  0.15545551  1
  O  O5  1  0.74721549  0.40539620  0.90469822  1
  O  O6  1  0.49439005  0.65454965  0.65570601  1
  O  O7  1  0.25165860  0.90518043  0.40868548  1
  O  O8  1  0.87317075  0.13274425  0.86675634  1
  O  O9  1  0.59471708  0.36863223  0.63466159  1
  O  O10  1  0.37681801  0.62989095  0.36948991  1
  O  O11  1  0.15594696  0.86834924  0.13047783  1
  O  O12  1  0.36670662  0.12009848  0.88045993  1
  O  O13  1  0.11065790  0.38144248  0.61527600  1
  O  O14  1  0.85698646  0.61735585  0.38311317  1
  O  O15  1  0.66813602  0.88174324  0.11944337  1
loop_
_geom_bond_atom_site_label_1
_geom_bond_atom_site_label_2
_geom_bond_distance
_geom_bond_site_symmetry_2
Co0 O14 1.816729 1_555
Co0 O9 1.881127 1_555
Co0 O13 1.915664 1_555
Co0 O6 1.930439 1_555
Co0 O3 1.932501 1_555
Co0 O10 1.953167 1_555
Co1 O11 1.759984 1_555
Co1 O10 1.806727 1_555
Co1 O7 1.951299 1_555
Co1 O0 1.958024 1_555
Co1 O14 1.970747 1_455
Co1 O15 2.116702 1_555
Co2 O15 1.759961 1_445
Co2 O12 1.807168 1_554
Co2 O1 1.952023 1_544
Co2 O4 1.957988 1_555
Co2 O8 1.972299 1_454
Co2 O11 2.114263 1_545
Co3 O8 1.816917 1_555
Co3 O13 1.881321 1_655
Co3 O9 1.915629 1_555
Co3 O2 1.930322 1_555
Co3 O5 1.932524 1_555
Co3 O12 1.951828 1_555
O0 Sr0 2.490235 1_554
O0 Sr4 2.684196 1_555
O0 Sr5 2.694883 1_455
O0 Sr5 2.695057 1_555
O0 Sr6 2.710026 1_554
O1 Sr1 2.494044 1_555
O1 Sr7 2.688283 1_565
O1 Sr6 2.690760 1_455
O1 Sr6 2.699021 1_555
O1 Sr5 2.714126 1_456
O2 Sr2 2.501438 1_545
O2 Sr4 2.673361 1_655
O2 Sr6 2.691479 1_545
O2 Sr7 2.692881 1_555
O2 Sr7 2.695999 1_655
O3 Sr3 2.504084 1_555
O3 Sr7 2.669886 1_555
O3 Sr4 2.684546 1_655
O3 Sr5 2.687334 1_555
O3 Sr4 2.703736 1_555
O4 Sr4 2.490484 1_555
O4 Sr0 2.685180 1_554
O4 Sr3 2.694552 1_555
O4 Sr3 2.695349 1_455
O4 Sr2 2.709084 1_445
O5 Sr5 2.504191 1_556
O5 Sr1 2.671404 1_655
O5 Sr0 2.684953 1_655
O5 Sr3 2.686537 1_556
O5 Sr0 2.703325 1_555
O6 Sr6 2.500820 1_555
O6 Sr0 2.673177 1_555
O6 Sr2 2.691669 1_555
O6 Sr1 2.692902 1_555
O6 Sr1 2.696030 1_655
O7 Sr7 2.494475 1_565
O7 Sr1 2.686697 1_555
O7 Sr2 2.690971 1_455
O7 Sr2 2.698785 1_555
O7 Sr3 2.714934 1_565
O8 Sr7 2.580147 1_655
O8 Sr0 2.583737 1_655
O8 Sr6 2.617135 1_545
O8 Sr3 2.619193 1_556
O9 Sr0 2.495889 1_555
O9 Sr7 2.517942 1_555
O9 Sr1 2.675975 1_655
O9 Sr4 2.708649 1_655
O10 Sr5 2.600218 1_555
O10 Sr2 2.607345 1_555
O10 Sr4 2.641673 1_555
O10 Sr1 2.646516 1_555
O11 Sr6 2.560379 1_554
O11 Sr3 2.569737 1_565
O11 Sr5 2.673380 1_455
O11 Sr2 2.684374 1_455
O12 Sr3 2.600343 1_556
O12 Sr6 2.606926 1_545
O12 Sr0 2.642470 1_555
O12 Sr7 2.647141 1_555
O13 Sr4 2.495282 1_555
O13 Sr1 2.517527 1_555
O13 Sr7 2.676894 1_555
O13 Sr0 2.709929 1_555
O14 Sr1 2.581056 1_655
O14 Sr4 2.584530 1_655
O14 Sr2 2.615838 1_555
O14 Sr5 2.617597 1_555
O15 Sr2 2.560375 1_555
O15 Sr5 2.569888 1_555
O15 Sr3 2.672704 1_565
O15 Sr6 2.683835 1_554
