# generated using pymatgen
data_MgV2(FeO4)2
_symmetry_space_group_name_H-M   'P 1'
_cell_length_a   5.19542609
_cell_length_b   5.38002705
_cell_length_c   6.41574941
_cell_angle_alpha   89.97231361
_cell_angle_beta   89.94314917
_cell_angle_gamma   112.59226905
_symmetry_Int_Tables_number   1
_chemical_formula_structural   MgV2(FeO4)2
_chemical_formula_sum   'Mg1 V2 Fe2 O8'
_cell_volume   165.56845978
_cell_formula_units_Z   1
loop_
 _symmetry_equiv_pos_site_id
 _symmetry_equiv_pos_as_xyz
  1  'x, y, z'
loop_
 _atom_site_type_symbol
 _atom_site_label
 _atom_site_symmetry_multiplicity
 _atom_site_fract_x
 _atom_site_fract_y
 _atom_site_fract_z
 _atom_site_occupancy
  Mg  Mg0  1  0.43001000  0.84386800  0.25005100  1
  V  V0  1  0.66481100  0.37416600  0.25008800  1
  V  V1  1  0.34963900  0.64199300  0.74996500  1
  Fe  Fe0  1  0.00752900  0.01011700  0.51264400  1
  Fe  Fe1  1  0.00745500  0.00984900  0.98719900  1
  O  O0  1  0.71131400  0.77502800  0.74977000  1
  O  O1  1  0.29608500  0.18981800  0.25001900  1
  O  O2  1  0.75881800  0.73693800  0.25005800  1
  O  O3  1  0.21893500  0.28938200  0.74983800  1
  O  O4  1  0.23519000  0.75436800  0.97662800  1
  O  O5  1  0.76130000  0.22910600  0.45505000  1
  O  O6  1  0.23466400  0.75385500  0.52342800  1
  O  O7  1  0.76175200  0.22901300  0.04526200  1
loop_
_geom_bond_atom_site_label_1
_geom_bond_atom_site_label_2
_geom_bond_distance
_geom_bond_site_symmetry_2
Mg0 O6 1.989673 1_555
Mg0 O4 1.990850 1_554
Mg0 O2 2.001082 1_555
Mg0 O1 2.223354 1_565
Mg0 O7 2.497857 1_565
Mg0 O5 2.500829 1_565
Fe0 O5 2.078385 1_455
Fe0 O3 2.125355 1_555
Fe0 O6 2.132665 1_545
Fe0 O0 2.186439 1_445
Fe0 O1 2.213821 1_555
Fe0 O2 2.283735 1_445
Fe1 O7 2.077153 1_456
Fe1 O3 2.124348 1_555
Fe1 O4 2.131482 1_545
Fe1 O0 2.190138 1_445
Fe1 O1 2.218197 1_556
Fe1 O2 2.281350 1_446
O0 V1 1.734871 1_555
O1 V0 1.787092 1_555
O2 V0 1.820811 1_555
O3 V1 1.752187 1_555
O4 V1 1.763281 1_555
O5 V0 1.700138 1_555
O6 V1 1.763090 1_555
O7 V0 1.700670 1_555
