# generated using pymatgen
data_MgNb4(NO)4
_symmetry_space_group_name_H-M   'P 1'
_cell_length_a   4.05714600
_cell_length_b   6.45727097
_cell_length_c   6.74772722
_cell_angle_alpha   75.98812028
_cell_angle_beta   90.00000000
_cell_angle_gamma   71.69029299
_symmetry_Int_Tables_number   1
_chemical_formula_structural   MgNb4(NO)4
_chemical_formula_sum   'Mg1 Nb4 N4 O4'
_cell_volume   162.27797155
_cell_formula_units_Z   1
loop_
 _symmetry_equiv_pos_site_id
 _symmetry_equiv_pos_as_xyz
  1  'x, y, z'
loop_
 _atom_site_type_symbol
 _atom_site_label
 _atom_site_symmetry_multiplicity
 _atom_site_fract_x
 _atom_site_fract_y
 _atom_site_fract_z
 _atom_site_occupancy
  Mg  Mg0  1  0.50000000  0.00000000  0.00000000  1
  Nb  Nb0  1  0.10608800  0.78782400  0.71025600  1
  Nb  Nb1  1  0.22046100  0.55907700  0.29705100  1
  Nb  Nb2  1  0.77953900  0.44092300  0.70294900  1
  Nb  Nb3  1  0.89391200  0.21217600  0.28974400  1
  N  N0  1  0.62282000  0.75436100  0.77778700  1
  N  N1  1  0.26706600  0.46586600  0.64521000  1
  N  N2  1  0.73293400  0.53413400  0.35479000  1
  N  N3  1  0.37718000  0.24563900  0.22221300  1
  O  O0  1  0.06349700  0.87300700  0.39020600  1
  O  O1  1  0.10972500  0.78054800  0.03115800  1
  O  O2  1  0.89027500  0.21945200  0.96884200  1
  O  O3  1  0.93650300  0.12699300  0.60979400  1
loop_
_geom_bond_atom_site_label_1
_geom_bond_atom_site_label_2
_geom_bond_distance
_geom_bond_site_symmetry_2
Mg0 N3 2.380671 1_555
Mg0 N0 2.380671 1_544
Mg0 O1 2.413484 1_645
Mg0 O2 2.413484 1_454
Mg0 O2 2.413491 1_554
Mg0 O1 2.413491 1_545
Nb0 O3 2.015882 1_465
Nb0 O0 2.088391 1_555
Nb0 O1 2.154415 1_556
Nb1 O1 1.954455 1_555
Nb1 O0 2.171604 1_555
Nb2 O2 1.954455 1_555
Nb2 O3 2.171604 1_555
Nb3 O0 2.015882 1_645
Nb3 O3 2.088391 1_555
Nb3 O2 2.154415 1_554
N0 Nb0 2.077775 1_655
N0 Nb0 2.077779 1_555
N0 Nb2 2.107618 1_555
N1 Nb2 2.063946 1_455
N1 Nb2 2.063958 1_555
N1 Nb0 2.128396 1_555
N1 Nb1 2.271765 1_555
N2 Nb1 2.063946 1_655
N2 Nb1 2.063958 1_555
N2 Nb3 2.128396 1_555
N2 Nb2 2.271765 1_555
N3 Nb3 2.077775 1_455
N3 Nb3 2.077779 1_555
N3 Nb1 2.107618 1_555
