# generated using pymatgen
data_MgFe6O11F
_symmetry_space_group_name_H-M   'P 1'
_cell_length_a   11.44409115
_cell_length_b   6.83849581
_cell_length_c   2.93304305
_cell_angle_alpha   90.00184812
_cell_angle_beta   90.00200621
_cell_angle_gamma   71.43659548
_symmetry_Int_Tables_number   1
_chemical_formula_structural   MgFe6O11F
_chemical_formula_sum   'Mg1 Fe6 O11 F1'
_cell_volume   217.59845721
_cell_formula_units_Z   1
loop_
 _symmetry_equiv_pos_site_id
 _symmetry_equiv_pos_as_xyz
  1  'x, y, z'
loop_
 _atom_site_type_symbol
 _atom_site_label
 _atom_site_symmetry_multiplicity
 _atom_site_fract_x
 _atom_site_fract_y
 _atom_site_fract_z
 _atom_site_occupancy
  Mg  Mg0  1  0.84219900  0.81935100  0.48812200  1
  Fe  Fe0  1  0.02501900  0.00190300  0.98884100  1
  Fe  Fe1  1  0.04209000  0.45912000  0.48870100  1
  Fe  Fe2  1  0.33266000  0.33768600  0.98906900  1
  Fe  Fe3  1  0.62740300  0.17771200  0.48932600  1
  Fe  Fe4  1  0.32977100  0.83973700  0.48927100  1
  Fe  Fe5  1  0.63721000  0.69143500  0.98929200  1
  O  O0  1  0.02713600  0.28711000  0.98878700  1
  O  O1  1  0.32538200  0.02848400  0.98917400  1
  O  O2  1  0.97071700  0.68194700  0.98848200  1
  O  O3  1  0.21599000  0.41346700  0.48905400  1
  O  O4  1  0.45811600  0.26124500  0.48914900  1
  O  O5  1  0.13970100  0.91113000  0.48914000  1
  O  O6  1  0.33925600  0.64929100  0.98937800  1
  O  O7  1  0.90882800  0.05378400  0.48864900  1
  O  O8  1  0.52281000  0.75855500  0.48930300  1
  O  O9  1  0.75063800  0.61472900  0.48928700  1
  O  O10  1  0.69480500  0.97437800  0.98925200  1
  F  F0  1  0.64776500  0.36893400  0.98939000  1
loop_
_geom_bond_atom_site_label_1
_geom_bond_atom_site_label_2
_geom_bond_distance
_geom_bond_site_symmetry_2
Mg0 O7 1.982398 1_565
Mg0 O9 1.997396 1_555
Mg0 O2 2.076972 1_554
Mg0 O2 2.078433 1_555
Mg0 O10 2.229684 1_554
Mg0 O10 2.234072 1_555
Fe0 O5 1.933204 1_545
Fe0 O5 1.934494 1_546
Fe0 O7 1.934616 1_456
Fe0 O7 1.935417 1_455
Fe0 O0 1.958234 1_555
Fe0 O2 2.457508 1_445
Fe1 O3 1.913761 1_555
Fe1 O0 1.921180 1_554
Fe1 O0 1.921632 1_555
Fe1 O2 2.084563 1_455
Fe1 O2 2.085495 1_454
Fe2 O3 1.939422 1_556
Fe2 O3 1.939444 1_555
Fe2 O4 2.001703 1_555
Fe2 O4 2.001998 1_556
Fe2 O1 2.142448 1_555
Fe2 O6 2.156128 1_555
Fe3 O4 1.837104 1_555
Fe3 O10 1.998916 1_545
Fe3 O10 1.999208 1_544
Fe4 O6 1.941025 1_554
Fe4 O6 1.941557 1_555
Fe4 O1 1.943451 1_565
Fe4 O1 1.943941 1_564
Fe4 O5 2.072100 1_555
Fe4 O8 2.099450 1_555
Fe5 O9 1.917599 1_556
Fe5 O9 1.917665 1_555
Fe5 O8 1.921609 1_555
Fe5 O8 1.921706 1_556
Fe5 O10 2.233902 1_555
F0 Fe3 2.026969 1_556
F0 Fe3 2.027168 1_555
F0 Fe5 2.169990 1_555
