# generated using pymatgen
data_Na14Al4Si9Sn4(SO16)3
_symmetry_space_group_name_H-M   'P 1'
_cell_length_a   17.85067580
_cell_length_b   8.92517504
_cell_length_c   22.15544470
_cell_angle_alpha   90.12681414
_cell_angle_beta   89.81781645
_cell_angle_gamma   119.99918672
_symmetry_Int_Tables_number   1
_chemical_formula_structural   Na14Al4Si9Sn4(SO16)3
_chemical_formula_sum   'Na42 Al12 Si27 Sn12 S9 O144'
_cell_volume   3056.91778832
_cell_formula_units_Z   3
loop_
 _symmetry_equiv_pos_site_id
 _symmetry_equiv_pos_as_xyz
  1  'x, y, z'
loop_
 _atom_site_type_symbol
 _atom_site_label
 _atom_site_symmetry_multiplicity
 _atom_site_fract_x
 _atom_site_fract_y
 _atom_site_fract_z
 _atom_site_occupancy
  Na  Na0  1  0.81736877  0.00279422  0.25273581  1
  Na  Na1  1  0.17833769  0.36263668  0.25171496  1
  Na  Na2  1  0.68929040  0.36971370  0.25242967  1
  Na  Na3  1  0.99720235  0.63066610  0.24675603  1
  Na  Na4  1  0.50414686  0.64657411  0.25060394  1
  Na  Na5  1  0.31728534  0.63108195  0.75038473  1
  Na  Na6  1  0.00219641  0.36019643  0.74657275  1
  Na  Na7  1  0.49827051  0.36461279  0.74433848  1
  Na  Na8  1  0.18814314  0.00869837  0.74953844  1
  Na  Na9  1  0.68089557  0.99668924  0.74855321  1
  Na  Na10  1  0.14766353  0.32719684  0.58291955  1
  Na  Na11  1  0.65119655  0.33559896  0.58315780  1
  Na  Na12  1  0.33486707  0.97902455  0.58527018  1
  Na  Na13  1  0.83268905  0.96674103  0.58302009  1
  Na  Na14  1  0.14475049  0.96271187  0.08204277  1
  Na  Na15  1  0.65015856  0.97040714  0.08227053  1
  Na  Na16  1  0.33260677  0.69042190  0.08300593  1
  Na  Na17  1  0.83480255  0.69123451  0.08537127  1
  Na  Na18  1  0.48277813  0.67751950  0.91526077  1
  Na  Na19  1  0.98357753  0.67414105  0.91972593  1
  Na  Na20  1  0.34699086  0.02430791  0.91153513  1
  Na  Na21  1  0.84660445  0.02597477  0.91308026  1
  Na  Na22  1  0.16878325  0.29664680  0.91257661  1
  Na  Na23  1  0.66851745  0.29656179  0.91285439  1
  Na  Na24  1  0.48527406  0.29636820  0.42232428  1
  Na  Na25  1  0.98026765  0.28708763  0.41859341  1
  Na  Na26  1  0.16805877  0.04019874  0.41533793  1
  Na  Na27  1  0.67240760  0.04496048  0.41665640  1
  Na  Na28  1  0.34675842  0.66646916  0.41536623  1
  Na  Na29  1  0.84631900  0.66702650  0.41805613  1
  Na  Na30  1  0.99817154  0.99818898  0.50044184  1
  Na  Na31  1  0.50389577  0.00940760  0.50061851  1
  Na  Na32  1  0.00186144  0.99657025  0.99936129  1
  Na  Na33  1  0.50255662  0.99815658  0.99694157  1
  Na  Na34  1  0.33074045  0.33369625  0.82885217  1
  Na  Na35  1  0.82709728  0.33082978  0.83225934  1
  Na  Na36  1  0.32730376  0.32318165  0.33591115  1
  Na  Na37  1  0.83029004  0.32709049  0.33299440  1
  Na  Na38  1  0.16141493  0.65749999  0.16894390  1
  Na  Na39  1  0.66577915  0.66331034  0.16911663  1
  Na  Na40  1  0.16379357  0.66679364  0.66760571  1
  Na  Na41  1  0.66641826  0.66586414  0.66539619  1
  Al  Al0  1  0.99739454  0.01295023  0.34816780  1
  Al  Al1  1  0.50337299  0.00245761  0.35257997  1
  Al  Al2  1  0.00216973  0.99894901  0.84933050  1
  Al  Al3  1  0.49840190  0.98392545  0.84613984  1
  Al  Al4  1  0.33576157  0.31859137  0.69030322  1
  Al  Al5  1  0.83586333  0.35238487  0.19101133  1
  Al  Al6  1  0.32349308  0.34590515  0.97900802  1
  Al  Al7  1  0.82363320  0.34576818  0.98245818  1
  Al  Al8  1  0.32451796  0.30251614  0.48277027  1
  Al  Al9  1  0.82563499  0.32159510  0.48495278  1
  Al  Al10  1  0.68558483  0.68896519  0.31631093  1
  Al  Al11  1  0.18392038  0.68060483  0.81414880  1
  Si  Si0  1  0.14539013  0.99931450  0.25346351  1
  Si  Si1  1  0.64850201  0.99641849  0.25416844  1
  Si  Si2  1  0.35938201  0.72069260  0.25232554  1
  Si  Si3  1  0.85486041  0.71095165  0.25275546  1
  Si  Si4  1  0.99609236  0.29059899  0.25028179  1
  Si  Si5  1  0.14642553  0.29600498  0.75291110  1
  Si  Si6  1  0.64579605  0.29021502  0.75425195  1
  Si  Si7  1  0.49589711  0.70133426  0.75036898  1
  Si  Si8  1  0.35519250  0.99922754  0.75264897  1
  Si  Si9  1  0.85973462  0.00440272  0.75234182  1
  Si  Si10  1  0.47276591  0.33676923  0.58321655  1
  Si  Si11  1  0.97727149  0.34149739  0.58053484  1
  Si  Si12  1  0.19164490  0.04875483  0.58553820  1
  Si  Si13  1  0.68397014  0.03640092  0.58068507  1
  Si  Si14  1  0.83723647  0.61940575  0.58002153  1
  Si  Si15  1  0.47671949  0.61300395  0.08002317  1
  Si  Si16  1  0.97329541  0.60924880  0.08326611  1
  Si  Si17  1  0.18407619  0.33172203  0.08071600  1
  Si  Si18  1  0.69007725  0.33388067  0.08573628  1
  Si  Si19  1  0.31577793  0.67180884  0.91558236  1
  Si  Si20  1  0.81800077  0.67028477  0.91646674  1
  Si  Si21  1  0.16743149  0.96152218  0.91352804  1
  Si  Si22  1  0.66791881  0.97015311  0.91787530  1
  Si  Si23  1  0.31788396  0.96565474  0.41643856  1
  Si  Si24  1  0.81664874  0.96679703  0.41571502  1
  Si  Si25  1  0.16789594  0.36555975  0.41740089  1
  Si  Si26  1  0.66616013  0.37256930  0.41236508  1
  Sn  Sn0  1  0.99946125  0.00483746  0.64429895  1
  Sn  Sn1  1  0.50327013  0.00681873  0.64976261  1
  Sn  Sn2  1  0.00241363  0.99944125  0.15062642  1
  Sn  Sn3  1  0.50466539  0.99294720  0.14890768  1
  Sn  Sn4  1  0.82915405  0.32591113  0.68316363  1
  Sn  Sn5  1  0.33091710  0.34188088  0.18627579  1
  Sn  Sn6  1  0.16214660  0.66243712  0.01695169  1
  Sn  Sn7  1  0.66653014  0.66507857  0.01846343  1
  Sn  Sn8  1  0.16581672  0.66811382  0.51889374  1
  Sn  Sn9  1  0.66820599  0.66005788  0.52061085  1
  Sn  Sn10  1  0.17414064  0.67330543  0.31265341  1
  Sn  Sn11  1  0.67530779  0.67666067  0.81125598  1
  S  S0  1  0.49958927  0.28946992  0.25205880  1
  S  S1  1  0.00076361  0.70998841  0.75318002  1
  S  S2  1  0.33560422  0.61741950  0.58252332  1
  S  S3  1  0.33592435  0.04979595  0.08146594  1
  S  S4  1  0.83576812  0.05373094  0.08247118  1
  S  S5  1  0.01886909  0.37128038  0.91403943  1
  S  S6  1  0.51683145  0.36812534  0.91692098  1
  S  S7  1  0.01766962  0.66606267  0.41553659  1
  S  S8  1  0.52051726  0.66673154  0.41450601  1
  O  O0  1  0.09932339  0.03603664  0.31018518  1
  O  O1  1  0.59883181  0.03508213  0.30849498  1
  O  O2  1  0.42199387  0.81158635  0.30937208  1
  O  O3  1  0.92018480  0.80431274  0.30896950  1
  O  O4  1  0.48545198  0.18024980  0.30513435  1
  O  O5  1  0.97998698  0.17064901  0.30916487  1
  O  O6  1  0.09984293  0.16427535  0.81004210  1
  O  O7  1  0.59798463  0.16334678  0.81167590  1
  O  O8  1  0.47888315  0.78650241  0.81044908  1
  O  O9  1  0.98706382  0.79283551  0.80696409  1
  O  O10  1  0.41854843  0.03424095  0.81033645  1
  O  O11  1  0.92026656  0.03408273  0.81113185  1
  O  O12  1  0.38993013  0.94919022  0.69073062  1
  O  O13  1  0.89638008  0.96632012  0.69047275  1
  O  O14  1  0.08595469  0.21737216  0.69208233  1
  O  O15  1  0.58994343  0.22272235  0.69138361  1
  O  O16  1  0.01856844  0.81755125  0.69824427  1
  O  O17  1  0.52193484  0.83132811  0.69259908  1
  O  O18  1  0.39430580  0.82835281  0.18823530  1
  O  O19  1  0.88895127  0.82850882  0.18983121  1
  O  O20  1  0.02342047  0.21573832  0.19148554  1
  O  O21  1  0.51619774  0.21649343  0.19591222  1
  O  O22  1  0.09209737  0.95971000  0.18937337  1
  O  O23  1  0.58899855  0.94902077  0.19153256  1
  O  O24  1  0.42880778  0.35886842  0.64402971  1
  O  O25  1  0.94241042  0.37374091  0.64531380  1
  O  O26  1  0.25180681  0.13698815  0.64432386  1
  O  O27  1  0.74212961  0.10613229  0.64296296  1
  O  O28  1  0.32048385  0.51272928  0.63746293  1
  O  O29  1  0.81349144  0.50323405  0.64175995  1
  O  O30  1  0.44066859  0.50557638  0.14383885  1
  O  O31  1  0.92959336  0.49887118  0.14364210  1
  O  O32  1  0.31945257  0.12263029  0.13729352  1
  O  O33  1  0.82052051  0.12827692  0.13739973  1
  O  O34  1  0.24402474  0.37630085  0.14186952  1
  O  O35  1  0.75010325  0.36334800  0.14413728  1
  O  O36  1  0.23081456  0.29500644  0.02412164  1
  O  O37  1  0.72812152  0.29312944  0.02484416  1
  O  O38  1  0.41362974  0.51771036  0.02297528  1
  O  O39  1  0.91537466  0.52176619  0.02242415  1
  O  O40  1  0.34719596  0.15284130  0.02750638  1
  O  O41  1  0.84575164  0.15271532  0.02738388  1
  O  O42  1  0.22964133  0.16352304  0.52424672  1
  O  O43  1  0.72892481  0.16296089  0.52329169  1
  O  O44  1  0.34567009  0.53798598  0.52725321  1
  O  O45  1  0.84837928  0.52774926  0.52033830  1
  O  O46  1  0.41407014  0.30566859  0.52246118  1
  O  O47  1  0.91570239  0.30719666  0.52268012  1
  O  O48  1  0.27453441  0.71063100  0.97708337  1
  O  O49  1  0.77813623  0.71513193  0.97736783  1
  O  O50  1  0.07431202  0.44256949  0.96942618  1
  O  O51  1  0.57446963  0.44576837  0.97069876  1
  O  O52  1  0.14430581  0.84147121  0.97570355  1
  O  O53  1  0.64398936  0.83924730  0.97685609  1
  O  O54  1  0.27705330  0.83922742  0.47633400  1
  O  O55  1  0.77399062  0.83937759  0.47455014  1
  O  O56  1  0.14495580  0.45143841  0.47562105  1
  O  O57  1  0.63995489  0.44513123  0.47288814  1
  O  O58  1  0.07552336  0.70498319  0.46921954  1
  O  O59  1  0.57536970  0.70324509  0.46865925  1
  O  O60  1  0.05710003  0.63165687  0.36161169  1
  O  O61  1  0.55956302  0.63344857  0.36069808  1
  O  O62  1  0.24828379  0.88313829  0.36143295  1
  O  O63  1  0.75113710  0.87849720  0.35850112  1
  O  O64  1  0.18946400  0.49361022  0.35844369  1
  O  O65  1  0.67928727  0.50204648  0.35545370  1
  O  O66  1  0.05981522  0.48672395  0.86189021  1
  O  O67  1  0.55446477  0.48150123  0.86343116  1
  O  O68  1  0.18163980  0.85802532  0.85773889  1
  O  O69  1  0.68861691  0.88177850  0.86006348  1
  O  O70  1  0.24852476  0.62533297  0.86014062  1
  O  O71  1  0.74691728  0.61307984  0.86278078  1
  O  O72  1  0.01082346  0.82374912  0.40977572  1
  O  O73  1  0.51145780  0.82441892  0.40890288  1
  O  O74  1  0.41190019  0.97873392  0.40621372  1
  O  O75  1  0.91062711  0.97538352  0.40755391  1
  O  O76  1  0.08132831  0.17553646  0.40937752  1
  O  O77  1  0.57921167  0.17756019  0.40550906  1
  O  O78  1  0.01116851  0.19809395  0.90929248  1
  O  O79  1  0.50940283  0.19762729  0.91137999  1
  O  O80  1  0.08111112  0.98292841  0.90698322  1
  O  O81  1  0.58126693  0.98722742  0.91048157  1
  O  O82  1  0.41055951  0.84687664  0.90910940  1
  O  O83  1  0.91260403  0.84445951  0.90675080  1
  O  O84  1  0.48142205  0.15641678  0.58595131  1
  O  O85  1  0.98748706  0.16703655  0.58338821  1
  O  O86  1  0.09543591  0.02857122  0.58920720  1
  O  O87  1  0.59007168  0.02841704  0.58477237  1
  O  O88  1  0.41059146  0.79601045  0.58565469  1
  O  O89  1  0.92000081  0.81633080  0.58512470  1
  O  O90  1  0.48295807  0.80646712  0.08354145  1
  O  O91  1  0.98320640  0.80777983  0.08569537  1
  O  O92  1  0.41267827  0.02730573  0.08675886  1
  O  O93  1  0.91078212  0.02472543  0.08548208  1
  O  O94  1  0.09040903  0.15433427  0.08463978  1
  O  O95  1  0.59097657  0.16046367  0.08888094  1
  O  O96  1  0.34468781  0.17044941  0.74654707  1
  O  O97  1  0.85206836  0.18287116  0.74929168  1
  O  O98  1  0.24206972  0.31637409  0.74248428  1
  O  O99  1  0.74080572  0.30272304  0.74970875  1
  O  O100  1  0.40945923  0.51168999  0.74222856  1
  O  O101  1  0.92318827  0.53621479  0.74911117  1
  O  O102  1  0.35281610  0.52704378  0.24939869  1
  O  O103  1  0.84464777  0.51910065  0.24565728  1
  O  O104  1  0.42084265  0.30679893  0.24655504  1
  O  O105  1  0.90986235  0.30721428  0.24145838  1
  O  O106  1  0.24258431  0.17596250  0.24662859  1
  O  O107  1  0.74246249  0.16827920  0.24190223  1
  O  O108  1  0.32433360  0.49648808  0.92249253  1
  O  O109  1  0.82683244  0.49684552  0.92388887  1
  O  O110  1  0.43052582  0.35135295  0.92561602  1
  O  O111  1  0.93285171  0.35327093  0.92268602  1
  O  O112  1  0.25726616  0.15056057  0.92450024  1
  O  O113  1  0.75859574  0.15629318  0.92737973  1
  O  O114  1  0.32697167  0.15702222  0.42330254  1
  O  O115  1  0.82598190  0.15930748  0.42323287  1
  O  O116  1  0.25859622  0.36042279  0.42652168  1
  O  O117  1  0.75427837  0.36007297  0.42051826  1
  O  O118  1  0.43296199  0.51315779  0.42195799  1
  O  O119  1  0.93316144  0.51041895  0.42202977  1
  O  O120  1  0.18223482  0.51361632  0.07633712  1
  O  O121  1  0.68368407  0.51231626  0.07915770  1
  O  O122  1  0.07560439  0.65186160  0.07944748  1
  O  O123  1  0.57726321  0.65256287  0.07891397  1
  O  O124  1  0.25669793  0.87301186  0.07891515  1
  O  O125  1  0.75513228  0.87358271  0.07980951  1
  O  O126  1  0.18568834  0.85742616  0.57920434  1
  O  O127  1  0.67845663  0.84942127  0.57586393  1
  O  O128  1  0.25518219  0.63623355  0.57967827  1
  O  O129  1  0.74995261  0.64038408  0.57919008  1
  O  O130  1  0.07848473  0.50576140  0.57927569  1
  O  O131  1  0.57239360  0.49815678  0.57886177  1
  O  O132  1  0.15023041  0.82217529  0.25636863  1
  O  O133  1  0.65299677  0.81606798  0.26193716  1
  O  O134  1  0.26005463  0.68119236  0.25161594  1
  O  O135  1  0.75691876  0.68653057  0.25738015  1
  O  O136  1  0.08301049  0.48380990  0.25709044  1
  O  O137  1  0.57608681  0.46456821  0.25729885  1
  O  O138  1  0.15233151  0.48742829  0.76215351  1
  O  O139  1  0.64882270  0.47596481  0.75781202  1
  O  O140  1  0.07829040  0.68953893  0.75982627  1
  O  O141  1  0.58261625  0.68234365  0.75804102  1
  O  O142  1  0.25727234  0.82752785  0.75776020  1
  O  O143  1  0.76051186  0.84222067  0.75237314  1
loop_
_geom_bond_atom_site_label_1
_geom_bond_atom_site_label_2
_geom_bond_distance
_geom_bond_site_symmetry_2
Na0 O105 2.384344 1_555
Na0 O107 2.450607 1_555
Na0 O135 2.469294 1_545
Na0 O133 2.556581 1_545
Na0 O63 2.608021 1_545
Na0 O33 2.781345 1_555
Na0 O5 2.810691 1_555
Na0 O19 2.821604 1_545
Na1 O136 2.432665 1_555
Na1 O106 2.452122 1_555
Na1 O134 2.462556 1_555
Na1 O64 2.599220 1_555
Na1 O34 2.674455 1_555
Na1 O102 2.699166 1_555
Na1 O20 2.745372 1_555
Na1 O0 2.838717 1_555
Na2 O103 2.406617 1_555
Na2 O107 2.427066 1_555
Na2 O135 2.459869 1_555
Na2 O137 2.553578 1_555
Na2 O65 2.614046 1_555
Na2 O35 2.642467 1_555
Na2 O1 2.872544 1_555
Na2 O21 2.962561 1_555
Na3 O103 2.386776 1_555
Na3 O132 2.400407 1_655
Na3 O136 2.475437 1_655
Na3 O105 2.505477 1_555
Na3 O31 2.577855 1_555
Na3 O60 2.761600 1_655
Na3 O22 2.852825 1_655
Na3 O3 2.881170 1_555
Na4 O133 2.322643 1_555
Na4 O102 2.356837 1_555
Na4 O137 2.529464 1_555
Na4 O104 2.627916 1_555
Na4 O30 2.653454 1_555
Na4 O61 2.659771 1_555
Na4 O23 2.684810 1_555
Na4 O2 2.855523 1_555
Na5 O100 2.371894 1_555
Na5 O98 2.439463 1_555
Na5 O142 2.474730 1_555
Na5 O138 2.569738 1_555
Na5 O70 2.709412 1_555
Na5 O28 2.725057 1_555
Na5 O12 2.795238 1_555
Na5 O8 2.833920 1_555
Na6 O97 2.334178 1_455
Na6 O138 2.356275 1_555
Na6 O25 2.516350 1_455
Na6 O140 2.564697 1_555
Na6 O101 2.583597 1_455
Na6 O14 2.684294 1_555
Na6 O66 2.775461 1_555
Na6 O11 2.899126 1_455
Na7 O139 2.373228 1_555
Na7 O96 2.402143 1_555
Na7 O141 2.475964 1_555
Na7 O100 2.514041 1_555
Na7 O24 2.536251 1_555
Na7 O15 2.776987 1_555
Na7 O67 2.831029 1_555
Na7 O10 2.944053 1_555
Na8 O98 2.418574 1_555
Na8 O96 2.421263 1_555
Na8 O142 2.483668 1_545
Na8 O140 2.534922 1_545
Na8 O26 2.594267 1_555
Na8 O68 2.724888 1_545
Na8 O16 2.866032 1_545
Na8 O6 2.894196 1_555
Na9 O99 2.384071 1_565
Na9 O143 2.426577 1_555
Na9 O141 2.464075 1_555
Na9 O27 2.558885 1_565
Na9 O97 2.649682 1_565
Na9 O69 2.707259 1_555
Na9 O17 2.755587 1_555
Na9 O7 2.921952 1_565
Na10 O86 2.346992 1_555
Na10 O128 2.450073 1_555
Na10 O130 2.457770 1_555
Na10 O85 2.476207 1_455
Na10 O14 2.633899 1_555
Na10 O56 2.636141 1_555
Na10 O42 2.842948 1_555
Na10 O28 2.936985 1_555
Na11 O87 2.391081 1_555
Na11 O129 2.391647 1_555
Na11 O131 2.476918 1_555
Na11 O15 2.617707 1_555
Na11 O84 2.626518 1_555
Na11 O57 2.678512 1_555
Na11 O29 2.828109 1_555
Na11 O43 2.859306 1_555
Na12 O84 2.282371 1_565
Na12 O126 2.323534 1_555
Na12 O88 2.589092 1_555
Na12 O12 2.602967 1_555
Na12 O128 2.654558 1_555
Na12 O54 2.676164 1_555
Na12 O26 2.822702 1_565
Na12 O46 2.884161 1_565
Na13 O127 2.412611 1_555
Na13 O85 2.427303 1_565
Na13 O89 2.515242 1_555
Na13 O129 2.524025 1_555
Na13 O55 2.641650 1_555
Na13 O13 2.642289 1_555
Na13 O27 2.813334 1_565
Na13 O47 2.952800 1_565
Na14 O94 2.351053 1_565
Na14 O122 2.408206 1_555
Na14 O124 2.497554 1_555
Na14 O91 2.499163 1_455
Na14 O22 2.549448 1_555
Na14 O52 2.588810 1_554
Na14 O36 2.872451 1_565
Na14 O32 2.970946 1_565
Na15 O95 2.409315 1_565
Na15 O125 2.424774 1_555
Na15 O123 2.460625 1_555
Na15 O90 2.585046 1_555
Na15 O53 2.587989 1_554
Na15 O23 2.620158 1_555
Na15 O37 2.801518 1_565
Na15 O33 2.908006 1_565
Na16 O120 2.341567 1_555
Na16 O90 2.344462 1_555
Na16 O124 2.590299 1_555
Na16 O92 2.606252 1_565
Na16 O18 2.609936 1_555
Na16 O48 2.611272 1_554
Na16 O34 2.762473 1_555
Na16 O38 2.906030 1_555
Na17 O91 2.311797 1_555
Na17 O121 2.353645 1_555
Na17 O19 2.570815 1_555
Na17 O93 2.581087 1_565
Na17 O125 2.646314 1_555
Na17 O49 2.651016 1_554
Na17 O35 2.850449 1_555
Na17 O39 2.907683 1_555
Na18 O81 2.425573 1_555
Na18 O82 2.432248 1_555
Na18 O108 2.462583 1_555
Na18 O8 2.534166 1_555
Na18 O110 2.585242 1_555
Na18 O38 2.736607 1_556
Na18 O53 2.844240 1_555
Na18 O67 2.870075 1_555
Na19 O80 2.430745 1_655
Na19 O109 2.431641 1_555
Na19 O83 2.434870 1_555
Na19 O111 2.536345 1_555
Na19 O39 2.617108 1_556
Na19 O9 2.704142 1_555
Na19 O52 2.780280 1_655
Na19 O66 2.923655 1_655
Na20 O82 2.365272 1_545
Na20 O112 2.391213 1_555
Na20 O79 2.512651 1_555
Na20 O110 2.547056 1_555
Na20 O10 2.556547 1_555
Na20 O40 2.810808 1_556
Na20 O68 2.823009 1_545
Na20 O48 2.829294 1_545
Na21 O113 2.396606 1_555
Na21 O83 2.436965 1_545
Na21 O111 2.539867 1_555
Na21 O78 2.546121 1_655
Na21 O11 2.592820 1_555
Na21 O69 2.715587 1_545
Na21 O41 2.774417 1_556
Na21 O49 2.799119 1_545
Na22 O80 2.433589 1_545
Na22 O108 2.447291 1_555
Na22 O78 2.494241 1_555
Na22 O112 2.515568 1_555
Na22 O6 2.573495 1_555
Na22 O36 2.714328 1_556
Na22 O70 2.794749 1_555
Na22 O50 2.881313 1_555
Na23 O81 2.398097 1_545
Na23 O109 2.488468 1_555
Na23 O113 2.504889 1_555
Na23 O79 2.518056 1_555
Na23 O7 2.555992 1_555
Na23 O71 2.687084 1_555
Na23 O37 2.709052 1_556
Na23 O51 2.906653 1_555
Na24 O77 2.418133 1_555
Na24 O114 2.453120 1_555
Na24 O74 2.482994 1_545
Na24 O118 2.534308 1_555
Na24 O46 2.575125 1_555
Na24 O57 2.643663 1_555
Na24 O4 2.794044 1_555
Na24 O61 2.948052 1_555
Na25 O115 2.398783 1_555
Na25 O75 2.425984 1_545
Na25 O76 2.465798 1_655
Na25 O119 2.522098 1_555
Na25 O47 2.620438 1_555
Na25 O5 2.634701 1_555
Na25 O56 2.844941 1_655
Na25 O60 2.953129 1_655
Na26 O76 2.396968 1_555
Na26 O72 2.490815 1_545
Na26 O114 2.491963 1_555
Na26 O116 2.494454 1_555
Na26 O0 2.628039 1_555
Na26 O42 2.652794 1_555
Na26 O62 2.726041 1_545
Na26 O58 2.857655 1_545
Na27 O115 2.404631 1_555
Na27 O117 2.437733 1_555
Na27 O77 2.490364 1_555
Na27 O73 2.550492 1_545
Na27 O43 2.578818 1_555
Na27 O1 2.716355 1_555
Na27 O63 2.812559 1_545
Na27 O59 2.889579 1_545
Na28 O116 2.387647 1_555
Na28 O74 2.433314 1_555
Na28 O118 2.523762 1_555
Na28 O73 2.550517 1_555
Na28 O2 2.692569 1_555
Na28 O44 2.729533 1_555
Na28 O64 2.745295 1_555
Na28 O54 2.765659 1_555
Na29 O117 2.388916 1_555
Na29 O75 2.405848 1_555
Na29 O72 2.550223 1_655
Na29 O119 2.555917 1_555
Na29 O45 2.596255 1_555
Na29 O3 2.731013 1_555
Na29 O55 2.750830 1_555
Na29 O65 2.934112 1_555
Na30 O89 2.415308 1_555
Na30 O85 2.440804 1_565
Na30 O75 2.533639 1_555
Na30 O76 2.534765 1_665
Na30 O86 2.550344 1_665
Na30 O72 2.616279 1_655
Na31 O87 2.372179 1_555
Na31 O84 2.442820 1_555
Na31 O77 2.545282 1_555
Na31 O74 2.591556 1_545
Na31 O88 2.602859 1_545
Na31 O73 2.660734 1_545
Na32 O94 2.415049 1_566
Na32 O91 2.461277 1_456
Na32 O80 2.521448 1_555
Na32 O83 2.537154 1_455
Na32 O93 2.594954 1_466
Na32 O78 2.638130 1_565
Na33 O81 2.402521 1_555
Na33 O82 2.469432 1_555
Na33 O90 2.478393 1_556
Na33 O95 2.541634 1_566
Na33 O79 2.563952 1_565
Na33 O92 2.645073 1_566
Na34 O96 2.420356 1_555
Na34 O100 2.438367 1_555
Na34 O98 2.442143 1_555
Na34 O108 2.565071 1_555
Na34 O112 2.595473 1_555
Na34 O110 2.745142 1_555
Na35 O99 2.325977 1_555
Na35 O97 2.427789 1_555
Na35 O109 2.512055 1_555
Na35 O113 2.540968 1_555
Na35 O101 2.558661 1_555
Na35 O111 2.694777 1_555
Na36 O106 2.438619 1_555
Na36 O114 2.439678 1_555
Na36 O116 2.456397 1_555
Na36 O102 2.524501 1_555
Na36 O118 2.622456 1_555
Na36 O104 2.636386 1_555
Na37 O117 2.463352 1_555
Na37 O115 2.478429 1_555
Na37 O103 2.513772 1_555
Na37 O107 2.515036 1_555
Na37 O105 2.528635 1_555
Na37 O119 2.635288 1_555
Na38 O136 2.449964 1_555
Na38 O134 2.479202 1_555
Na38 O122 2.494451 1_555
Na38 O132 2.496022 1_555
Na38 O120 2.541192 1_555
Na38 O124 2.700957 1_555
Na39 O135 2.488995 1_555
Na39 O121 2.511067 1_555
Na39 O123 2.523374 1_555
Na39 O133 2.536866 1_555
Na39 O137 2.585025 1_555
Na39 O125 2.642764 1_555
Na40 O130 2.456085 1_555
Na40 O126 2.495703 1_555
Na40 O142 2.539064 1_555
Na40 O138 2.584026 1_555
Na40 O140 2.614107 1_555
Na40 O128 2.636866 1_555
Na41 O131 2.495746 1_555
Na41 O129 2.498428 1_555
Na41 O127 2.514864 1_555
Na41 O143 2.524980 1_555
Na41 O139 2.577312 1_555
Na41 O141 2.582961 1_555
Al0 O5 1.807965 1_555
Al0 O3 1.885561 1_545
Al0 O0 1.917635 1_655
Al0 O75 1.926708 1_545
Al0 O76 2.004928 1_655
Al0 O72 2.277976 1_645
Al1 O1 1.853893 1_555
Al1 O2 1.858964 1_545
Al1 O77 1.880582 1_555
Al1 O74 1.940642 1_545
Al1 O4 2.059726 1_555
Al1 O73 2.083802 1_545
Al2 O6 1.843445 1_565
Al2 O11 1.849210 1_465
Al2 O9 1.958526 1_455
Al2 O80 1.962514 1_555
Al2 O83 1.966266 1_455
Al2 O78 2.157600 1_565
Al3 O8 1.798085 1_555
Al3 O7 1.859453 1_565
Al3 O10 1.873940 1_565
Al3 O82 1.994238 1_555
Al3 O81 2.047103 1_555
Al3 O79 2.319649 1_565
Al4 O24 1.825579 1_555
Al4 O26 1.866600 1_555
Al4 O96 1.882975 1_555
Al4 O100 1.938566 1_555
Al4 O98 2.022075 1_555
Al4 O28 2.220530 1_555
Al5 O31 1.848685 1_555
Al5 O103 1.861278 1_555
Al5 O35 1.895262 1_555
Al5 O105 1.923671 1_555
Al5 O107 2.001946 1_555
Al5 O33 2.220453 1_555
Al6 O36 1.783904 1_556
Al6 O108 1.833436 1_555
Al6 O38 1.850745 1_556
Al6 O112 1.958162 1_555
Al6 O110 2.223753 1_555
Al6 O40 2.245640 1_556
Al7 O37 1.788919 1_556
Al7 O39 1.834142 1_556
Al7 O109 1.853519 1_555
Al7 O113 1.932193 1_555
Al7 O41 2.192218 1_556
Al7 O111 2.326512 1_555
Al8 O42 1.773668 1_555
Al8 O46 1.814760 1_555
Al8 O114 1.863600 1_555
Al8 O116 1.955819 1_555
Al8 O44 2.174927 1_555
Al8 O118 2.335045 1_555
Al9 O43 1.805048 1_555
Al9 O45 1.847581 1_555
Al9 O47 1.875025 1_555
Al9 O115 1.991997 1_555
Al9 O117 2.056586 1_555
Al9 O119 2.286161 1_555
Al10 O63 1.767795 1_555
Al10 O135 1.828544 1_555
Al10 O65 1.834702 1_555
Al10 O133 1.935700 1_555
Al10 O61 2.268628 1_555
Al10 O137 2.373002 1_555
Al11 O70 1.786109 1_555
Al11 O142 1.809611 1_555
Al11 O68 1.870639 1_555
Al11 O138 1.908091 1_555
Al11 O140 2.274958 1_555
Al11 O66 2.276130 1_555
O0 Si0 1.619886 1_545
O1 Si1 1.628274 1_545
O2 Si2 1.613220 1_555
O3 Si3 1.624263 1_555
O4 S0 1.467616 1_555
O5 Si4 1.620721 1_555
O6 Si5 1.642611 1_555
O7 Si6 1.631650 1_555
O8 Si7 1.632695 1_555
O9 S1 1.483765 1_655
O10 Si8 1.632246 1_545
O11 Si9 1.629565 1_555
O12 Si8 1.653683 1_555
O12 Sn1 2.032614 1_565
O13 Si9 1.623861 1_565
O13 Sn0 1.976764 1_565
O14 Si5 1.649704 1_555
O14 Sn0 2.043447 1_455
O15 Si6 1.643637 1_555
O15 Sn1 1.994300 1_555
O16 S1 1.483793 1_555
O16 Sn0 2.218213 1_465
O17 Si7 1.632137 1_555
O17 Sn1 1.998850 1_565
O18 Si2 1.652148 1_555
O18 Sn3 1.974581 1_555
O19 Si3 1.666536 1_555
O19 Sn2 2.022108 1_655
O20 Si4 1.642967 1_455
O20 Sn2 1.989326 1_545
O21 S0 1.498902 1_555
O21 Sn3 2.165440 1_545
O22 Si0 1.648119 1_555
O22 Sn2 2.000849 1_555
O23 Si1 1.670452 1_555
O23 Sn3 1.978041 1_555
O24 Si10 1.617661 1_555
O25 Si11 1.643610 1_555
O25 Sn4 2.024973 1_555
O26 Si12 1.621247 1_555
O27 Si13 1.651725 1_555
O27 Sn4 2.002041 1_555
O28 S2 1.475897 1_555
O29 Si14 1.639766 1_555
O29 Sn4 1.968481 1_555
O30 Si15 1.647929 1_555
O30 Sn5 1.997219 1_555
O31 Si16 1.612172 1_555
O32 S3 1.491368 1_555
O32 Sn5 2.154160 1_555
O33 S4 1.474163 1_555
O34 Si17 1.649317 1_555
O34 Sn5 1.988899 1_555
O35 Si18 1.617708 1_555
O36 Si17 1.624985 1_555
O37 Si18 1.628660 1_555
O38 Si15 1.623471 1_555
O39 Si16 1.640925 1_555
O40 S3 1.460766 1_555
O41 S4 1.465531 1_555
O42 Si12 1.630595 1_555
O43 Si13 1.621801 1_555
O44 S2 1.468514 1_555
O45 Si14 1.616639 1_555
O46 Si10 1.644147 1_555
O47 Si11 1.617221 1_555
O48 Si19 1.662930 1_555
O48 Sn6 2.029177 1_556
O49 Si20 1.662384 1_555
O49 Sn7 2.024323 1_556
O50 S5 1.504899 1_555
O50 Sn6 2.083870 1_556
O51 S6 1.499861 1_555
O51 Sn7 2.106449 1_556
O52 Si21 1.666332 1_555
O52 Sn6 2.001772 1_556
O53 Si22 1.661101 1_555
O53 Sn7 2.015505 1_556
O54 Si23 1.656354 1_555
O54 Sn8 2.031338 1_555
O55 Si24 1.645178 1_555
O55 Sn9 2.035072 1_555
O56 Si25 1.650799 1_555
O56 Sn8 2.017822 1_555
O57 Si26 1.652696 1_555
O57 Sn9 2.019656 1_555
O58 S7 1.499682 1_555
O58 Sn8 2.112026 1_555
O59 S8 1.480233 1_555
O59 Sn9 2.207381 1_555
O60 S7 1.492065 1_555
O60 Sn10 2.211445 1_555
O61 S8 1.481697 1_555
O62 Si23 1.631508 1_555
O62 Sn10 1.987097 1_555
O63 Si24 1.636725 1_555
O64 Si25 1.650459 1_555
O64 Sn10 2.030739 1_555
O65 Si26 1.647417 1_555
O66 S5 1.475672 1_555
O67 S6 1.483293 1_555
O67 Sn11 2.293301 1_555
O68 Si21 1.634811 1_555
O69 Si22 1.638035 1_555
O69 Sn11 2.033524 1_555
O70 Si19 1.622117 1_555
O71 Si20 1.626219 1_555
O71 Sn11 1.999169 1_555
O72 S7 1.478116 1_555
O73 S8 1.500266 1_555
O74 Si23 1.638070 1_555
O75 Si24 1.649971 1_555
O76 Si25 1.635722 1_555
O77 Si26 1.661433 1_555
O78 S5 1.485297 1_555
O79 S6 1.464853 1_555
O80 Si21 1.651592 1_555
O81 Si22 1.637090 1_555
O82 Si19 1.637212 1_555
O83 Si20 1.639750 1_555
O84 Si10 1.693463 1_555
O84 Sn1 2.113326 1_555
O85 Si11 1.657177 1_555
O85 Sn0 2.069411 1_555
O86 Si12 1.636556 1_555
O86 Sn0 2.023546 1_455
O87 Si13 1.643894 1_555
O87 Sn1 2.049303 1_555
O88 S2 1.484524 1_555
O88 Sn1 2.277027 1_565
O89 Si14 1.639573 1_555
O89 Sn0 2.043788 1_565
O90 Si15 1.675446 1_555
O90 Sn3 2.089400 1_555
O91 Si16 1.691175 1_555
O91 Sn2 2.125795 1_655
O92 S3 1.485727 1_555
O92 Sn3 2.281673 1_545
O93 S4 1.487217 1_555
O93 Sn2 2.279270 1_645
O94 Si17 1.631676 1_555
O94 Sn2 2.082959 1_545
O95 Si18 1.670808 1_555
O95 Sn3 2.017457 1_545
O96 Si8 1.635976 1_545
O97 Si9 1.667037 1_555
O97 Sn4 2.116116 1_555
O98 Si5 1.639706 1_555
O99 Si6 1.645783 1_555
O99 Sn4 2.088985 1_555
O100 Si7 1.633111 1_555
O101 S1 1.477734 1_655
O101 Sn4 2.308330 1_555
O102 Si2 1.673953 1_555
O102 Sn5 2.046221 1_555
O103 Si3 1.636090 1_555
O104 S0 1.494424 1_555
O104 Sn5 2.230806 1_555
O105 Si4 1.630902 1_555
O106 Si0 1.668191 1_545
O106 Sn5 2.031644 1_555
O107 Si1 1.632833 1_545
O108 Si19 1.653918 1_555
O109 Si20 1.641173 1_555
O110 S6 1.483453 1_555
O111 S5 1.473656 1_655
O112 Si21 1.665060 1_545
O113 Si22 1.654073 1_545
O114 Si23 1.639697 1_545
O115 Si24 1.649344 1_545
O116 Si25 1.655490 1_555
O117 Si26 1.642143 1_555
O118 S8 1.485222 1_555
O119 S7 1.459476 1_655
O120 Si17 1.643205 1_555
O120 Sn6 2.027548 1_555
O121 Si18 1.659343 1_555
O121 Sn7 2.046745 1_555
O122 Si16 1.670842 1_455
O122 Sn6 2.038081 1_555
O123 Si15 1.646987 1_555
O123 Sn7 2.038255 1_555
O124 S3 1.503848 1_565
O124 Sn6 2.257621 1_555
O125 S4 1.531791 1_565
O125 Sn7 2.207064 1_555
O126 Si12 1.662680 1_565
O126 Sn8 2.039574 1_555
O127 Si13 1.625150 1_565
O127 Sn9 2.017796 1_555
O128 S2 1.527992 1_555
O128 Sn8 2.215537 1_555
O129 Si14 1.659793 1_555
O129 Sn9 2.028270 1_555
O130 Si11 1.662995 1_455
O130 Sn8 2.013968 1_555
O131 Si10 1.638538 1_555
O131 Sn9 2.049794 1_555
O132 Si0 1.627344 1_555
O132 Sn10 2.020010 1_555
O133 Si1 1.660581 1_555
O134 Si2 1.625842 1_555
O134 Sn10 2.016180 1_555
O135 Si3 1.653041 1_555
O136 Si4 1.651848 1_455
O136 Sn10 2.067470 1_555
O137 S0 1.478741 1_555
O138 Si5 1.670463 1_555
O139 Si6 1.633244 1_555
O139 Sn11 1.995356 1_555
O140 S1 1.491369 1_555
O141 Si7 1.648660 1_555
O141 Sn11 2.055950 1_555
O142 Si8 1.654529 1_555
O143 Si9 1.633598 1_565
O143 Sn11 1.986755 1_555
