# generated using pymatgen
data_Na4Ti2Ga2Si3(SO8)3
_symmetry_space_group_name_H-M   'P 1'
_cell_length_a   8.78756494
_cell_length_b   8.75710141
_cell_length_c   22.31117235
_cell_angle_alpha   89.98400977
_cell_angle_beta   88.69064836
_cell_angle_gamma   119.72835754
_symmetry_Int_Tables_number   1
_chemical_formula_structural   Na4Ti2Ga2Si3(SO8)3
_chemical_formula_sum   'Na12 Ti6 Ga6 Si9 S9 O72'
_cell_volume   1490.43133505
_cell_formula_units_Z   3
loop_
 _symmetry_equiv_pos_site_id
 _symmetry_equiv_pos_as_xyz
  1  'x, y, z'
loop_
 _atom_site_type_symbol
 _atom_site_label
 _atom_site_symmetry_multiplicity
 _atom_site_fract_x
 _atom_site_fract_y
 _atom_site_fract_z
 _atom_site_occupancy
  Na  Na0  1  0.99606365  0.63718081  0.25158912  1
  Na  Na1  1  0.99458421  0.36050995  0.74598216  1
  Na  Na2  1  0.66379137  0.97046199  0.58658145  1
  Na  Na3  1  0.66729158  0.69970191  0.08228190  1
  Na  Na4  1  0.33216580  0.30056659  0.91063410  1
  Na  Na5  1  0.32674902  0.02819655  0.41873630  1
  Na  Na6  1  0.00521513  0.99831772  0.50122437  1
  Na  Na7  1  0.99411829  0.99224275  0.99732618  1
  Na  Na8  1  0.66058055  0.32814179  0.82609712  1
  Na  Na9  1  0.66455850  0.33868906  0.33305803  1
  Na  Na10  1  0.33261283  0.66972666  0.16785515  1
  Na  Na11  1  0.33013227  0.66784106  0.66259076  1
  Ti  Ti0  1  0.01399200  0.02566717  0.64542213  1
  Ti  Ti1  1  0.99925235  0.97932327  0.15100493  1
  Ti  Ti2  1  0.68138795  0.35747398  0.97976431  1
  Ti  Ti3  1  0.67951827  0.33767978  0.48579649  1
  Ti  Ti4  1  0.33228717  0.67272017  0.31259684  1
  Ti  Ti5  1  0.35700873  0.66501904  0.80765592  1
  Ga  Ga0  1  0.99938097  0.97661850  0.34969510  1
  Ga  Ga1  1  0.98320584  0.98914691  0.84392612  1
  Ga  Ga2  1  0.64973611  0.30528178  0.68501662  1
  Ga  Ga3  1  0.66783796  0.34044390  0.18864785  1
  Ga  Ga4  1  0.32996219  0.67435518  0.01520461  1
  Ga  Ga5  1  0.30180478  0.66601619  0.52209115  1
  Si  Si0  1  0.30084439  0.01073489  0.25114639  1
  Si  Si1  1  0.70246454  0.70582016  0.25198927  1
  Si  Si2  1  0.29571563  0.28192526  0.75253511  1
  Si  Si3  1  0.71522381  0.00482492  0.74888740  1
  Si  Si4  1  0.95965515  0.34132410  0.58678866  1
  Si  Si5  1  0.37383601  0.04112592  0.58213033  1
  Si  Si6  1  0.96751989  0.62138440  0.08482059  1
  Si  Si7  1  0.63100325  0.68187509  0.91792496  1
  Si  Si8  1  0.03487971  0.66279976  0.41708653  1
  S  S0  1  0.00003766  0.28348575  0.25059179  1
  S  S1  1  0.00037440  0.71070101  0.75030655  1
  S  S2  1  0.66549426  0.62140275  0.58400179  1
  S  S3  1  0.66727335  0.04813283  0.08317238  1
  S  S4  1  0.37357149  0.33161616  0.08312773  1
  S  S5  1  0.04262072  0.37715143  0.91748177  1
  S  S6  1  0.33385238  0.95675247  0.91674976  1
  S  S7  1  0.62722664  0.95486333  0.41635740  1
  S  S8  1  0.33110035  0.37955530  0.41661993  1
  O  O0  1  0.21528976  0.04428217  0.31077088  1
  O  O1  1  0.83361392  0.79530597  0.30618868  1
  O  O2  1  0.97137066  0.17784428  0.30531693  1
  O  O3  1  0.20608667  0.17065922  0.81470070  1
  O  O4  1  0.97048733  0.78594342  0.80645091  1
  O  O5  1  0.83144433  0.04215914  0.80801381  1
  O  O6  1  0.79728505  0.96105272  0.68918361  1
  O  O7  1  0.16127332  0.19900873  0.69554005  1
  O  O8  1  0.03320170  0.82293543  0.69690690  1
  O  O9  1  0.79514214  0.83099417  0.18976331  1
  O  O10  1  0.02889930  0.20383955  0.19536320  1
  O  O11  1  0.16196375  0.96455816  0.19385289  1
  O  O12  1  0.87113373  0.37233669  0.64603300  1
  O  O13  1  0.49852182  0.12308449  0.63853436  1
  O  O14  1  0.63500647  0.51366516  0.63794118  1
  O  O15  1  0.86918054  0.50017371  0.14290365  1
  O  O16  1  0.63620022  0.12454482  0.13763324  1
  O  O17  1  0.48635182  0.36382133  0.13508561  1
  O  O18  1  0.45493150  0.30195404  0.02735708  1
  O  O19  1  0.83028537  0.52850760  0.02702485  1
  O  O20  1  0.68986274  0.15554742  0.02856221  1
  O  O21  1  0.46478009  0.16568331  0.52077778  1
  O  O22  1  0.69607236  0.53823020  0.52879897  1
  O  O23  1  0.82954451  0.29997013  0.52809108  1
  O  O24  1  0.53412891  0.69515405  0.97958590  1
  O  O25  1  0.15301658  0.45891951  0.97064398  1
  O  O26  1  0.30135422  0.84857259  0.97229886  1
  O  O27  1  0.55068454  0.84814452  0.47158659  1
  O  O28  1  0.30848600  0.46232144  0.47124456  1
  O  O29  1  0.17190542  0.71190228  0.47051420  1
  O  O30  1  0.13522259  0.63659149  0.35665044  1
  O  O31  1  0.51088787  0.87039781  0.36359804  1
  O  O32  1  0.36033841  0.49075135  0.36174457  1
  O  O33  1  0.11675580  0.48565493  0.86272232  1
  O  O34  1  0.36097241  0.87321123  0.86353687  1
  O  O35  1  0.49345036  0.62891524  0.86201464  1
  O  O36  1  0.02617572  0.84566922  0.41182833  1
  O  O37  1  0.80551532  0.98166361  0.40751176  1
  O  O38  1  0.17214974  0.20250609  0.41121224  1
  O  O39  1  0.02730791  0.20143460  0.91385122  1
  O  O40  1  0.17969237  0.98237044  0.91326294  1
  O  O41  1  0.82839918  0.84412288  0.90978257  1
  O  O42  1  0.96424930  0.15359515  0.58888367  1
  O  O43  1  0.17703245  0.01569110  0.59091972  1
  O  O44  1  0.82516191  0.79813843  0.58682840  1
  O  O45  1  0.97183569  0.81414648  0.08854020  1
  O  O46  1  0.82779078  0.02934023  0.08680692  1
  O  O47  1  0.19674639  0.17512641  0.08942773  1
  O  O48  1  0.69824420  0.18027792  0.74573791  1
  O  O49  1  0.49333058  0.32292481  0.74289957  1
  O  O50  1  0.84568316  0.53476580  0.74597926  1
  O  O51  1  0.69746525  0.51973036  0.24275510  1
  O  O52  1  0.84584566  0.30954536  0.24505139  1
  O  O53  1  0.49321269  0.17338560  0.23874193  1
  O  O54  1  0.63623890  0.49044258  0.92635407  1
  O  O55  1  0.86247532  0.35516582  0.92576874  1
  O  O56  1  0.49368916  0.13499487  0.92384122  1
  O  O57  1  0.63432375  0.12983817  0.42020629  1
  O  O58  1  0.48789745  0.35523331  0.41963993  1
  O  O59  1  0.84083775  0.48680466  0.42339419  1
  O  O60  1  0.36047325  0.49398812  0.07675912  1
  O  O61  1  0.16004823  0.64444247  0.07346394  1
  O  O62  1  0.51271578  0.86571561  0.07846198  1
  O  O63  1  0.37242967  0.85417373  0.57506179  1
  O  O64  1  0.51206420  0.64532596  0.57504553  1
  O  O65  1  0.15686036  0.50030984  0.57813625  1
  O  O66  1  0.30276181  0.82230703  0.25666846  1
  O  O67  1  0.50910947  0.68600489  0.25826607  1
  O  O68  1  0.15902311  0.46419966  0.25417685  1
  O  O69  1  0.29652520  0.47482739  0.75917895  1
  O  O70  1  0.15894830  0.68910767  0.75795892  1
  O  O71  1  0.51667669  0.82924720  0.75816398  1
loop_
_geom_bond_atom_site_label_1
_geom_bond_atom_site_label_2
_geom_bond_distance
_geom_bond_site_symmetry_2
Na0 O51 2.308458 1_555
Na0 O66 2.363363 1_655
Na0 O52 2.499705 1_555
Na0 O68 2.550254 1_655
Na0 O30 2.669684 1_655
Na0 O1 2.705775 1_555
Na0 O15 2.713166 1_555
Na0 O11 2.787594 1_655
Na1 O48 2.279655 1_555
Na1 O69 2.351703 1_655
Na1 O50 2.453774 1_555
Na1 O70 2.516736 1_655
Na1 O12 2.526314 1_555
Na1 O7 2.718921 1_655
Na1 O5 2.772375 1_555
Na1 O33 2.846069 1_655
Na2 O63 2.258950 1_555
Na2 O42 2.313542 1_565
Na2 O64 2.490347 1_555
Na2 O44 2.531962 1_555
Na2 O6 2.615668 1_555
Na2 O13 2.662359 1_565
Na2 O27 2.789284 1_555
Na2 O23 2.809540 1_565
Na3 O45 2.354373 1_555
Na3 O60 2.393331 1_555
Na3 O62 2.435085 1_555
Na3 O46 2.510199 1_565
Na3 O24 2.587889 1_554
Na3 O9 2.679231 1_555
Na3 O17 2.800307 1_555
Na3 O19 2.805158 1_555
Na4 O39 2.370708 1_555
Na4 O54 2.379999 1_555
Na4 O40 2.420050 1_545
Na4 O3 2.441849 1_555
Na4 O56 2.502756 1_555
Na4 O35 2.709149 1_555
Na4 O18 2.839259 1_556
Na4 O25 2.874685 1_555
Na5 O36 2.320935 1_545
Na5 O57 2.390969 1_555
Na5 O58 2.487320 1_555
Na5 O38 2.504169 1_555
Na5 O21 2.604498 1_555
Na5 O0 2.650685 1_555
Na5 O29 2.654511 1_545
Na5 O31 2.858128 1_545
Na6 O36 2.455177 1_555
Na6 O43 2.493608 1_565
Na6 O42 2.501693 1_465
Na6 O44 2.516633 1_455
Na6 O38 2.577651 1_565
Na6 O37 2.717809 1_455
Na7 O41 2.424085 1_555
Na7 O40 2.486890 1_655
Na7 O45 2.507879 1_556
Na7 O39 2.520510 1_665
Na7 O46 2.562319 1_566
Na7 O47 2.701640 1_666
Na8 O48 2.323776 1_555
Na8 O49 2.380316 1_555
Na8 O50 2.461991 1_555
Na8 O56 2.675653 1_555
Na8 O54 2.711223 1_555
Na8 O55 2.813023 1_555
Na9 O51 2.484611 1_555
Na9 O58 2.499760 1_555
Na9 O59 2.509117 1_555
Na9 O57 2.586244 1_555
Na9 O52 2.592109 1_555
Na9 O53 2.602985 1_555
Na10 O66 2.471019 1_555
Na10 O68 2.533063 1_555
Na10 O67 2.533516 1_555
Na10 O62 2.566757 1_555
Na10 O61 2.568447 1_555
Na10 O60 2.629051 1_555
Na11 O65 2.436897 1_555
Na11 O63 2.444987 1_555
Na11 O64 2.565171 1_555
Na11 O70 2.637572 1_555
Na11 O69 2.657433 1_555
Na11 O71 2.663724 1_555
Ga0 O1 1.832155 1_555
Ga0 O0 1.874705 1_665
Ga0 O36 1.890502 1_655
Ga0 O37 2.131306 1_555
Ga0 O2 2.141604 1_565
Ga0 O38 2.284727 1_665
Ga1 O5 1.816226 1_565
Ga1 O3 1.908203 1_665
Ga1 O4 1.919886 1_555
Ga1 O41 1.953610 1_555
Ga1 O39 2.314049 1_665
Ga1 O40 2.366771 1_655
Ga2 O13 1.829790 1_555
Ga2 O12 1.917237 1_555
Ga2 O48 1.924511 1_555
Ga2 O49 1.926218 1_555
Ga2 O14 2.165485 1_555
Ga2 O50 2.351627 1_555
Ga3 O53 1.854289 1_555
Ga3 O15 1.894948 1_555
Ga3 O51 1.897399 1_555
Ga3 O17 2.103389 1_555
Ga3 O16 2.107532 1_555
Ga3 O52 2.147859 1_555
Ga4 O24 1.869299 1_554
Ga4 O61 1.873720 1_555
Ga4 O26 1.922946 1_554
Ga4 O25 2.031689 1_554
Ga4 O62 2.194313 1_555
Ga4 O60 2.210975 1_555
Ga5 O29 1.817521 1_555
Ga5 O65 1.839765 1_555
Ga5 O63 1.875442 1_555
Ga5 O28 2.138744 1_555
Ga5 O27 2.241326 1_555
Ga5 O64 2.296574 1_555
O0 Si0 1.610830 1_555
O1 Si1 1.604093 1_555
O2 S0 1.471147 1_655
O3 Si2 1.637581 1_555
O4 S1 1.493088 1_655
O5 Si3 1.618896 1_555
O6 Si3 1.634583 1_565
O6 Ti0 1.935451 1_665
O7 Si2 1.660846 1_555
O7 Ti0 1.829827 1_555
O8 S1 1.473468 1_555
O8 Ti0 2.191977 1_565
O9 Si1 1.689497 1_555
O9 Ti1 1.808304 1_555
O10 S0 1.493579 1_555
O10 Ti1 2.101858 1_445
O11 Si0 1.693841 1_565
O11 Ti1 1.794665 1_455
O12 Si4 1.608969 1_555
O13 Si5 1.607143 1_555
O14 S2 1.464291 1_555
O15 Si6 1.609705 1_555
O16 S3 1.471481 1_555
O17 S4 1.476844 1_555
O18 S4 1.506867 1_555
O18 Ti2 2.065814 1_554
O19 Si6 1.696321 1_555
O19 Ti2 1.785347 1_554
O20 S3 1.487235 1_555
O20 Ti2 2.109737 1_554
O21 Si5 1.669376 1_555
O21 Ti3 1.884623 1_555
O22 S2 1.516283 1_555
O22 Ti3 1.944222 1_555
O23 Si4 1.676763 1_555
O23 Ti3 1.796123 1_555
O24 Si7 1.635723 1_555
O25 S5 1.491586 1_555
O26 S6 1.493282 1_555
O27 S7 1.477239 1_555
O28 S8 1.477300 1_555
O29 Si8 1.614969 1_555
O30 Si8 1.671801 1_555
O30 Ti4 1.855713 1_555
O31 S7 1.511096 1_555
O31 Ti4 2.035402 1_555
O32 S8 1.500011 1_555
O32 Ti4 2.050226 1_555
O33 S5 1.472742 1_555
O33 Ti5 2.241743 1_555
O34 S6 1.470380 1_555
O34 Ti5 2.195412 1_555
O35 Si7 1.656954 1_555
O35 Ti5 1.857590 1_555
O36 Si8 1.644962 1_555
O37 S7 1.473031 1_555
O38 S8 1.493122 1_555
O39 S5 1.479085 1_555
O40 S6 1.482493 1_555
O41 Si7 1.613009 1_555
O42 Si4 1.665020 1_555
O42 Ti0 1.883455 1_655
O43 Si5 1.637503 1_555
O43 Ti0 1.893041 1_555
O44 S2 1.489427 1_555
O44 Ti0 2.292168 1_665
O45 Si6 1.671683 1_555
O45 Ti1 1.939963 1_555
O46 S3 1.502922 1_555
O46 Ti1 2.294878 1_545
O47 S4 1.479948 1_555
O47 Ti1 2.185842 1_445
O48 Si3 1.617312 1_555
O49 Si2 1.598524 1_555
O50 S1 1.469640 1_655
O51 Si1 1.621602 1_555
O52 S0 1.489167 1_655
O53 Si0 1.597933 1_555
O54 Si7 1.710115 1_555
O54 Ti2 1.847246 1_555
O55 S5 1.503860 1_655
O55 Ti2 1.981997 1_555
O56 S6 1.506709 1_545
O56 Ti2 2.231914 1_555
O57 S7 1.504880 1_545
O57 Ti3 2.218811 1_555
O58 S8 1.497902 1_555
O58 Ti3 2.325494 1_555
O59 Si8 1.638660 1_655
O59 Ti3 1.930324 1_555
O60 S4 1.489367 1_555
O61 Si6 1.615214 1_455
O62 S3 1.504119 1_565
O63 Si5 1.638744 1_565
O64 S2 1.481248 1_555
O65 Si4 1.603264 1_455
O66 Si0 1.663066 1_565
O66 Ti4 1.921280 1_555
O67 Si1 1.622785 1_555
O67 Ti4 1.905753 1_555
O68 S0 1.508339 1_555
O68 Ti4 2.164750 1_555
O69 Si2 1.692307 1_555
O69 Ti5 1.837284 1_555
O70 S1 1.509595 1_555
O70 Ti5 2.180678 1_555
O71 Si3 1.665467 1_565
O71 Ti5 1.784185 1_555
