# generated using pymatgen
data_V3Ga
_symmetry_space_group_name_H-M   'P 1'
_cell_length_a   4.76423572
_cell_length_b   4.76430770
_cell_length_c   4.76437112
_cell_angle_alpha   90.00000000
_cell_angle_beta   90.00000000
_cell_angle_gamma   90.00000000
_symmetry_Int_Tables_number   1
_chemical_formula_structural   V3Ga
_chemical_formula_sum   'V6 Ga2'
_cell_volume   108.14305317
_cell_formula_units_Z   2
loop_
 _symmetry_equiv_pos_site_id
 _symmetry_equiv_pos_as_xyz
  1  'x, y, z'
loop_
 _atom_site_type_symbol
 _atom_site_label
 _atom_site_symmetry_multiplicity
 _atom_site_fract_x
 _atom_site_fract_y
 _atom_site_fract_z
 _atom_site_occupancy
  V  V0  1  0.50000049  0.24998815  -0.00000000  1
  V  V1  1  0.50000049  0.75001185  -0.00000000  1
  V  V2  1  0.25000416  0.99999900  0.50000000  1
  V  V3  1  0.74999623  0.99999900  0.50000000  1
  V  V4  1  0.99999912  0.50000100  0.25000394  1
  V  V5  1  0.99999912  0.50000100  0.74999606  1
  Ga  Ga0  1  0.49999872  0.49999900  0.50000000  1
  Ga  Ga1  1  0.00000166  0.00000100  -0.00000000  1
loop_
_geom_bond_atom_site_label_1
_geom_bond_atom_site_label_2
_geom_bond_distance
_geom_bond_site_symmetry_2
V0 V1 2.382041 1_545
V0 V1 2.382267 1_555
V0 V3 2.917520 1_545
V0 V3 2.917520 1_544
V0 V2 2.917521 1_544
V0 V2 2.917521 1_545
V0 V4 2.917535 1_555
V0 V5 2.917535 1_554
V0 V5 2.917546 1_454
V0 V4 2.917546 1_455
V1 V3 2.917516 1_555
V1 V3 2.917516 1_554
V1 V2 2.917517 1_555
V1 V2 2.917517 1_554
V1 V4 2.917531 1_555
V1 V5 2.917531 1_554
V1 V5 2.917542 1_454
V1 V4 2.917542 1_455
V2 V3 2.382080 1_555
V2 V3 2.382156 1_455
V2 V4 2.917524 1_455
V2 V5 2.917524 1_455
V2 V5 2.917540 1_465
V2 V4 2.917540 1_465
V3 V5 2.917520 1_555
V3 V4 2.917520 1_555
V3 V4 2.917536 1_565
V3 V5 2.917536 1_565
V4 V5 2.382148 1_555
V4 V5 2.382223 1_554
Ga0 V4 2.663294 1_455
Ga0 V5 2.663294 1_455
Ga0 V4 2.663297 1_555
Ga0 V5 2.663297 1_555
Ga0 V2 2.663309 1_545
Ga0 V2 2.663309 1_555
Ga0 V3 2.663316 1_545
Ga0 V3 2.663316 1_555
Ga0 V0 2.663380 1_555
Ga0 V0 2.663380 1_556
Ga0 V1 2.663385 1_555
Ga0 V1 2.663385 1_556
Ga1 V0 2.663264 1_555
Ga1 V1 2.663269 1_545
Ga1 V0 2.663274 1_455
Ga1 V1 2.663279 1_445
Ga1 V4 2.663344 1_445
Ga1 V5 2.663344 1_444
Ga1 V4 2.663344 1_455
Ga1 V5 2.663344 1_454
Ga1 V2 2.663355 1_544
Ga1 V2 2.663355 1_545
Ga1 V3 2.663361 1_445
Ga1 V3 2.663361 1_444
