# generated using pymatgen
data_MgNi2(SbO3)4
_symmetry_space_group_name_H-M   'P 1'
_cell_length_a   4.95913266
_cell_length_b   4.86662444
_cell_length_c   9.59913900
_cell_angle_alpha   90.00000661
_cell_angle_beta   90.00007058
_cell_angle_gamma   87.92098837
_symmetry_Int_Tables_number   1
_chemical_formula_structural   MgNi2(SbO3)4
_chemical_formula_sum   'Mg1 Ni2 Sb4 O12'
_cell_volume   231.51539240
_cell_formula_units_Z   1
loop_
 _symmetry_equiv_pos_site_id
 _symmetry_equiv_pos_as_xyz
  1  'x, y, z'
loop_
 _atom_site_type_symbol
 _atom_site_label
 _atom_site_symmetry_multiplicity
 _atom_site_fract_x
 _atom_site_fract_y
 _atom_site_fract_z
 _atom_site_occupancy
  Mg  Mg0  1  0.50000000  0.00000100  0.45820400  1
  Ni  Ni0  1  0.00000100  0.99999800  0.98910800  1
  Ni  Ni1  1  0.50000000  0.50000200  0.51522500  1
  Sb  Sb0  1  0.49999800  0.50000400  0.83231000  1
  Sb  Sb1  1  0.00000000  0.99999700  0.30064700  1
  Sb  Sb2  1  0.50000300  0.49999900  0.15798700  1
  Sb  Sb3  1  0.00001100  0.99998900  0.67653700  1
  O  O0  1  0.68375600  0.71389800  0.67554500  1
  O  O1  1  0.31624300  0.28610400  0.67554500  1
  O  O2  1  0.64972500  0.71094500  0.32471900  1
  O  O3  1  0.18590800  0.77640800  0.14677600  1
  O  O4  1  0.81409000  0.22359100  0.14677600  1
  O  O5  1  0.81345000  0.20889600  0.83017300  1
  O  O6  1  0.32548500  0.30398100  0.99365400  1
  O  O7  1  0.19654800  0.79943900  0.52484200  1
  O  O8  1  0.80344800  0.20056600  0.52483900  1
  O  O9  1  0.67451500  0.69601800  0.99365300  1
  O  O10  1  0.35027400  0.28905500  0.32471900  1
  O  O11  1  0.18654500  0.79110700  0.83017000  1
loop_
_geom_bond_atom_site_label_1
_geom_bond_atom_site_label_2
_geom_bond_distance
_geom_bond_site_symmetry_2
Mg0 O8 1.932089 1_555
Mg0 O7 1.932108 1_545
Mg0 O10 2.023913 1_555
Mg0 O2 2.023919 1_545
Mg0 O0 2.651339 1_545
Mg0 O1 2.651342 1_555
Ni0 O11 2.036835 1_555
Ni0 O5 2.036844 1_465
Ni0 O3 2.061993 1_556
Ni0 O4 2.062011 1_466
Ni0 O9 2.229139 1_455
Ni0 O6 2.229142 1_565
Ni1 O8 2.058520 1_555
Ni1 O7 2.058539 1_555
Ni1 O0 2.085937 1_555
Ni1 O1 2.085946 1_555
Ni1 O2 2.237099 1_555
Ni1 O10 2.237108 1_555
O0 Sb0 2.060891 1_555
O0 Sb3 2.134652 1_655
O1 Sb0 2.060897 1_555
O1 Sb3 2.134645 1_545
O2 Sb2 2.054760 1_555
O2 Sb1 2.286239 1_655
O3 Sb2 2.023685 1_555
O3 Sb1 2.035392 1_555
O4 Sb2 2.023652 1_555
O4 Sb1 2.035408 1_645
O5 Sb3 1.999073 1_645
O5 Sb0 2.064953 1_555
O6 Sb0 2.029189 1_555
O6 Sb2 2.051169 1_556
O7 Sb3 1.988431 1_555
O7 Sb1 2.542661 1_555
O8 Sb3 1.988574 1_645
O8 Sb1 2.542665 1_645
O9 Sb0 2.029167 1_555
O9 Sb2 2.051167 1_556
O10 Sb2 2.054770 1_555
O10 Sb1 2.286254 1_545
O11 Sb3 1.998931 1_555
O11 Sb0 2.064941 1_555
