# generated using pymatgen
data_GdCd3
_symmetry_space_group_name_H-M   'P 1'
_cell_length_a   6.64793854
_cell_length_b   6.64794028
_cell_length_c   4.96037100
_cell_angle_alpha   90.00000000
_cell_angle_beta   90.00000000
_cell_angle_gamma   120.00002607
_symmetry_Int_Tables_number   1
_chemical_formula_structural   GdCd3
_chemical_formula_sum   'Gd2 Cd6'
_cell_volume   189.85357628
_cell_formula_units_Z   2
loop_
 _symmetry_equiv_pos_site_id
 _symmetry_equiv_pos_as_xyz
  1  'x, y, z'
loop_
 _atom_site_type_symbol
 _atom_site_label
 _atom_site_symmetry_multiplicity
 _atom_site_fract_x
 _atom_site_fract_y
 _atom_site_fract_z
 _atom_site_occupancy
  Gd  Gd0  1  0.66666700  0.33333300  0.75000000  1
  Gd  Gd1  1  0.33333300  0.66666700  0.25000000  1
  Cd  Cd0  1  0.15981163  0.31962326  0.75000000  1
  Cd  Cd1  1  0.84018837  0.15981163  0.25000000  1
  Cd  Cd2  1  0.84018837  0.68037674  0.25000000  1
  Cd  Cd3  1  0.15981163  0.84018837  0.75000000  1
  Cd  Cd4  1  0.68037674  0.84018837  0.75000000  1
  Cd  Cd5  1  0.31962326  0.15981163  0.25000000  1
loop_
_geom_bond_atom_site_label_1
_geom_bond_atom_site_label_2
_geom_bond_distance
_geom_bond_site_symmetry_2
Cd0 Cd1 3.088287 1_456
Cd0 Cd1 3.088287 1_455
Cd0 Cd5 3.088287 1_556
Cd0 Cd5 3.088287 1_555
Cd0 Gd1 3.184877 1_555
Cd0 Gd1 3.184877 1_556
Cd0 Cd4 3.187253 1_445
Cd0 Cd3 3.187255 1_545
Cd0 Gd0 3.324903 1_455
Cd0 Gd0 3.324910 1_555
Cd0 Cd4 3.460684 1_555
Cd0 Cd3 3.460686 1_555
Cd1 Cd4 3.088287 1_544
Cd1 Cd4 3.088287 1_545
Cd1 Gd0 3.184874 1_555
Cd1 Gd0 3.184874 1_554
Cd1 Cd5 3.187254 1_655
Cd1 Cd2 3.187255 1_545
Cd1 Gd1 3.324906 1_545
Cd1 Gd1 3.324906 1_655
Cd1 Cd5 3.460685 1_555
Cd1 Cd2 3.460686 1_555
Cd2 Cd3 3.088287 1_655
Cd2 Cd3 3.088287 1_654
Cd2 Cd4 3.088287 1_554
Cd2 Cd4 3.088287 1_555
Cd2 Gd0 3.184877 1_554
Cd2 Gd0 3.184877 1_555
Cd2 Cd5 3.187253 1_665
Cd2 Gd1 3.324903 1_655
Cd2 Gd1 3.324910 1_555
Cd2 Cd5 3.460684 1_555
Cd3 Cd5 3.088287 1_566
Cd3 Cd5 3.088287 1_565
Cd3 Gd1 3.184874 1_556
Cd3 Gd1 3.184874 1_555
Cd3 Cd4 3.187254 1_455
Cd3 Gd0 3.324906 1_565
Cd3 Gd0 3.324906 1_455
Cd3 Cd4 3.460685 1_555
Cd4 Gd1 3.184877 1_556
Cd4 Gd1 3.184877 1_555
Cd4 Gd0 3.324904 1_565
Cd4 Gd0 3.324910 1_555
Cd5 Gd0 3.184877 1_554
Cd5 Gd0 3.184877 1_555
Cd5 Gd1 3.324904 1_545
Cd5 Gd1 3.324910 1_555
