# generated using pymatgen
data_H2O
_symmetry_space_group_name_H-M   'P 1'
_cell_length_a   4.16854114
_cell_length_b   4.16854114
_cell_length_c   6.57924986
_cell_angle_alpha   90.00000000
_cell_angle_beta   90.00000000
_cell_angle_gamma   117.56179070
_symmetry_Int_Tables_number   1
_chemical_formula_structural   H2O
_chemical_formula_sum   'H8 O4'
_cell_volume   101.35130665
_cell_formula_units_Z   4
loop_
 _symmetry_equiv_pos_site_id
 _symmetry_equiv_pos_as_xyz
  1  'x, y, z'
loop_
 _atom_site_type_symbol
 _atom_site_label
 _atom_site_symmetry_multiplicity
 _atom_site_fract_x
 _atom_site_fract_y
 _atom_site_fract_z
 _atom_site_occupancy
  H  H0  1  0.84193569  0.15806431  0.25000000  1
  H  H1  1  0.15806431  0.84193569  0.75000000  1
  H  H2  1  0.00796867  0.00796867  0.50000000  1
  H  H3  1  0.99203133  0.99203133  0.00000000  1
  H  H4  1  0.41562985  0.96366848  0.51815803  1
  H  H5  1  0.03633152  0.58437015  0.98184197  1
  H  H6  1  0.58437015  0.03633152  0.01815803  1
  H  H7  1  0.96366848  0.41562985  0.48184197  1
  O  O0  1  0.84588030  0.16096324  0.43331818  1
  O  O1  1  0.83903676  0.15411970  0.06668182  1
  O  O2  1  0.15411970  0.83903676  0.93331818  1
  O  O3  1  0.16096324  0.84588030  0.56668182  1
loop_
_geom_bond_atom_site_label_1
_geom_bond_atom_site_label_2
_geom_bond_distance
_geom_bond_site_symmetry_2
H0 O1 1.206193 1_555
H0 O0 1.206193 1_555
H1 O2 1.206193 1_555
H1 O3 1.206193 1_555
H2 O3 1.206037 1_545
H2 O0 1.206037 1_455
H3 O2 1.206037 1_654
H3 O1 1.206037 1_565
H4 O3 0.993786 1_555
H5 O2 0.993786 1_555
H6 O1 0.993786 1_555
H7 O0 0.993786 1_555
