# generated using pymatgen
data_Na18Nb8Zn4Si15(SO24)3
_symmetry_space_group_name_H-M   'P 1'
_cell_length_a   9.09121784
_cell_length_b   9.08839848
_cell_length_c   22.48626416
_cell_angle_alpha   89.90208732
_cell_angle_beta   90.04745566
_cell_angle_gamma   120.04111215
_symmetry_Int_Tables_number   1
_chemical_formula_structural   Na18Nb8Zn4Si15(SO24)3
_chemical_formula_sum   'Na18 Nb8 Zn4 Si15 S3 O72'
_cell_volume   1608.33556170
_cell_formula_units_Z   1
loop_
 _symmetry_equiv_pos_site_id
 _symmetry_equiv_pos_as_xyz
  1  'x, y, z'
loop_
 _atom_site_type_symbol
 _atom_site_label
 _atom_site_symmetry_multiplicity
 _atom_site_fract_x
 _atom_site_fract_y
 _atom_site_fract_z
 _atom_site_occupancy
  Na  Na0  1  0.64634204  0.62755253  0.74549935  1
  Na  Na1  1  0.97868999  0.36247352  0.74635301  1
  Na  Na2  1  0.02691652  0.68701392  0.58668783  1
  Na  Na3  1  0.65939811  0.97676494  0.58726515  1
  Na  Na4  1  0.32103988  0.97511932  0.08758955  1
  Na  Na5  1  0.66194582  0.68749027  0.08791336  1
  Na  Na6  1  0.96376118  0.68284371  0.90912997  1
  Na  Na7  1  0.71854280  0.03642892  0.90967046  1
  Na  Na8  1  0.32022704  0.28682457  0.91280499  1
  Na  Na9  1  0.96513057  0.28634588  0.41211643  1
  Na  Na10  1  0.31855713  0.03547994  0.40880717  1
  Na  Na11  1  0.71366827  0.67994403  0.41207870  1
  Na  Na12  1  0.01008158  0.01038162  0.49439299  1
  Na  Na13  1  0.99798658  0.00751652  0.99280755  1
  Na  Na14  1  0.66612292  0.32335547  0.82362656  1
  Na  Na15  1  0.65653574  0.32573823  0.32098545  1
  Na  Na16  1  0.32272419  0.65681299  0.16791655  1
  Na  Na17  1  0.33375940  0.66994424  0.66628063  1
  Nb  Nb0  1  0.99317068  0.98796750  0.64545840  1
  Nb  Nb1  1  0.01043112  0.00128482  0.14531116  1
  Nb  Nb2  1  0.67007948  0.33356711  0.98126602  1
  Nb  Nb3  1  0.66325106  0.33037079  0.48084734  1
  Nb  Nb4  1  0.32771907  0.66226515  0.02073003  1
  Nb  Nb5  1  0.33482859  0.66373845  0.52008164  1
  Nb  Nb6  1  0.33177871  0.67532842  0.31256997  1
  Nb  Nb7  1  0.33623681  0.68156531  0.81290778  1
  Zn  Zn0  1  0.01195286  0.00262841  0.35297096  1
  Zn  Zn1  1  0.98617291  0.98885761  0.85227381  1
  Zn  Zn2  1  0.67344869  0.32802546  0.68066533  1
  Zn  Zn3  1  0.65097961  0.31816872  0.17982151  1
  Si  Si0  1  0.30199171  0.00982865  0.25420858  1
  Si  Si1  1  0.99846103  0.70552219  0.75392426  1
  Si  Si2  1  0.70757435  0.00451752  0.75311510  1
  Si  Si3  1  0.96156119  0.33306731  0.58539224  1
  Si  Si4  1  0.37579374  0.04490456  0.58533485  1
  Si  Si5  1  0.65940840  0.61634384  0.58712372  1
  Si  Si6  1  0.95428663  0.61432820  0.08840517  1
  Si  Si7  1  0.66927331  0.04260692  0.08523496  1
  Si  Si8  1  0.37898239  0.33708143  0.08491836  1
  Si  Si9  1  0.62079760  0.66274174  0.91679048  1
  Si  Si10  1  0.04171040  0.37629518  0.91484672  1
  Si  Si11  1  0.33497962  0.96395855  0.91853477  1
  Si  Si12  1  0.62646190  0.95991851  0.41628108  1
  Si  Si13  1  0.33614153  0.37885337  0.41432515  1
  Si  Si14  1  0.03964155  0.66415663  0.41728677  1
  S  S0  1  0.70724405  0.70989324  0.25189788  1
  S  S1  1  0.00213507  0.29093667  0.25207148  1
  S  S2  1  0.28826986  0.28946143  0.75170410  1
  O  O0  1  0.21014731  0.01837256  0.31370679  1
  O  O1  1  0.80115964  0.79450427  0.30620516  1
  O  O2  1  0.98461655  0.19731968  0.30745098  1
  O  O3  1  0.21298032  0.19841907  0.80722587  1
  O  O4  1  0.97820023  0.79287468  0.81251639  1
  O  O5  1  0.81825089  0.03227052  0.81207280  1
  O  O6  1  0.80808807  0.97306364  0.69401928  1
  O  O7  1  0.17701745  0.20080255  0.69879166  1
  O  O8  1  0.02512124  0.82836897  0.69306786  1
  O  O9  1  0.79287546  0.81818565  0.19704734  1
  O  O10  1  0.02040747  0.19663728  0.19925599  1
  O  O11  1  0.17031372  0.98061054  0.19469588  1
  O  O12  1  0.89857646  0.38698059  0.64309954  1
  O  O13  1  0.50568071  0.11955615  0.63871648  1
  O  O14  1  0.63320127  0.51514269  0.64708148  1
  O  O15  1  0.86940171  0.50200860  0.14478950  1
  O  O16  1  0.60649833  0.10993666  0.13848636  1
  O  O17  1  0.50275875  0.39125294  0.13986823  1
  O  O18  1  0.46260546  0.29618695  0.02482374  1
  O  O19  1  0.83446363  0.53422465  0.02645777  1
  O  O20  1  0.69903954  0.16247188  0.02412619  1
  O  O21  1  0.46537456  0.16059957  0.52351945  1
  O  O22  1  0.69591781  0.52961677  0.52728389  1
  O  O23  1  0.83375364  0.30043003  0.52650674  1
  O  O24  1  0.51908929  0.68170958  0.97392986  1
  O  O25  1  0.16256245  0.48168484  0.97166545  1
  O  O26  1  0.31337406  0.84291206  0.97549718  1
  O  O27  1  0.53189005  0.84291269  0.47496530  1
  O  O28  1  0.31860418  0.48280272  0.47170856  1
  O  O29  1  0.16234571  0.68887923  0.47449381  1
  O  O30  1  0.13753007  0.63163607  0.36013423  1
  O  O31  1  0.49383963  0.86203248  0.35974952  1
  O  O32  1  0.36919448  0.50691750  0.35769932  1
  O  O33  1  0.13514564  0.50085781  0.85648482  1
  O  O34  1  0.36703410  0.86557036  0.86056417  1
  O  O35  1  0.49681483  0.63099844  0.85803001  1
  O  O36  1  0.01538655  0.82700247  0.41538335  1
  O  O37  1  0.81119769  0.97945345  0.41088839  1
  O  O38  1  0.16762574  0.19535567  0.41514123  1
  O  O39  1  0.02635335  0.19315466  0.91455347  1
  O  O40  1  0.17101005  0.98471677  0.91460567  1
  O  O41  1  0.80588051  0.82930375  0.91776246  1
  O  O42  1  0.97139779  0.15742565  0.59014362  1
  O  O43  1  0.18296822  0.01919306  0.59001773  1
  O  O44  1  0.83738415  0.81064418  0.58875070  1
  O  O45  1  0.97233735  0.81058986  0.09290867  1
  O  O46  1  0.83480657  0.01478120  0.09266699  1
  O  O47  1  0.18892653  0.16053546  0.09118806  1
  O  O48  1  0.68464850  0.16641594  0.74467460  1
  O  O49  1  0.46158824  0.31934615  0.74548861  1
  O  O50  1  0.83326958  0.51910432  0.74762368  1
  O  O51  1  0.68856725  0.54118390  0.24686560  1
  O  O52  1  0.85714264  0.31697966  0.24487674  1
  O  O53  1  0.48814416  0.16902297  0.24594484  1
  O  O54  1  0.63113843  0.48671767  0.92261124  1
  O  O55  1  0.85699247  0.36894711  0.92173643  1
  O  O56  1  0.51440217  0.14598245  0.92114013  1
  O  O57  1  0.63412038  0.14460517  0.42142637  1
  O  O58  1  0.51187585  0.36872477  0.42228703  1
  O  O59  1  0.85589644  0.48628497  0.42237926  1
  O  O60  1  0.34698788  0.49726031  0.07347239  1
  O  O61  1  0.15240394  0.66218559  0.07692805  1
  O  O62  1  0.50645203  0.84782989  0.07302848  1
  O  O63  1  0.34456531  0.84992110  0.57435238  1
  O  O64  1  0.50760446  0.66210615  0.57651076  1
  O  O65  1  0.15024431  0.49950813  0.57274338  1
  O  O66  1  0.30525022  0.82205362  0.25544532  1
  O  O67  1  0.53367246  0.69771262  0.25271533  1
  O  O68  1  0.16704983  0.46107108  0.25257808  1
  O  O69  1  0.29579819  0.46167377  0.75156429  1
  O  O70  1  0.17415376  0.68652547  0.75434939  1
  O  O71  1  0.52405461  0.81505001  0.75461841  1
loop_
_geom_bond_atom_site_label_1
_geom_bond_atom_site_label_2
_geom_bond_distance
_geom_bond_site_symmetry_2
Na0 O50 2.353388 1_555
Na0 O14 2.416748 1_555
Na0 O49 2.440630 1_555
Na0 O71 2.465806 1_555
Na0 O69 2.763535 1_555
Na1 O48 2.356543 1_555
Na1 O50 2.378982 1_555
Na1 O12 2.475603 1_555
Na1 O69 2.556385 1_655
Na1 O70 2.573920 1_655
Na1 O33 2.819828 1_655
Na2 O44 2.484433 1_455
Na2 O65 2.484936 1_555
Na2 O63 2.515452 1_555
Na2 O43 2.616255 1_565
Na2 O12 2.685345 1_455
Na2 O8 2.721094 1_555
Na2 O29 2.804447 1_555
Na2 O22 2.928427 1_455
Na3 O42 2.466296 1_565
Na3 O64 2.488268 1_555
Na3 O63 2.510304 1_555
Na3 O13 2.607536 1_565
Na3 O44 2.710084 1_555
Na3 O6 2.762373 1_555
Na3 O27 2.791776 1_555
Na3 O23 2.890234 1_565
Na4 O61 2.476419 1_555
Na4 O62 2.498300 1_555
Na4 O47 2.513148 1_565
Na4 O16 2.522329 1_565
Na4 O45 2.748415 1_455
Na4 O26 2.779913 1_554
Na4 O11 2.784782 1_555
Na4 O18 2.896862 1_565
Na5 O45 2.462929 1_555
Na5 O62 2.508781 1_555
Na5 O60 2.517358 1_555
Na5 O46 2.578659 1_565
Na5 O17 2.607437 1_555
Na5 O9 2.727532 1_555
Na5 O24 2.861015 1_554
Na5 O19 2.916741 1_555
Na6 O4 2.366119 1_555
Na6 O41 2.404975 1_555
Na6 O40 2.432551 1_655
Na6 O55 2.527101 1_555
Na6 O54 2.648816 1_555
Na6 O19 2.927431 1_556
Na7 O5 2.382707 1_555
Na7 O41 2.387935 1_545
Na7 O39 2.425063 1_655
Na7 O56 2.520713 1_555
Na7 O55 2.642807 1_555
Na7 O20 2.860369 1_556
Na7 O34 2.978970 1_545
Na8 O39 2.363664 1_555
Na8 O40 2.377192 1_545
Na8 O54 2.489463 1_555
Na8 O3 2.539837 1_555
Na8 O56 2.655354 1_555
Na8 O18 2.812921 1_556
Na9 O38 2.366718 1_655
Na9 O37 2.414684 1_545
Na9 O59 2.479916 1_555
Na9 O2 2.525049 1_555
Na9 O57 2.622562 1_555
Na9 O23 2.866788 1_555
Na9 O30 2.955774 1_655
Na10 O0 2.326528 1_555
Na10 O36 2.445289 1_545
Na10 O38 2.451855 1_555
Na10 O57 2.538756 1_555
Na10 O58 2.650706 1_555
Na10 O21 2.865806 1_555
Na10 O31 2.960589 1_545
Na11 O36 2.375957 1_655
Na11 O37 2.404110 1_555
Na11 O58 2.494317 1_555
Na11 O1 2.559281 1_555
Na11 O59 2.664597 1_555
Na11 O22 2.893329 1_555
Na11 O32 2.974048 1_555
Na12 O38 2.374138 1_555
Na12 O36 2.455019 1_545
Na12 O37 2.522166 1_445
Na12 O43 2.639947 1_555
Na12 O42 2.650852 1_455
Na12 O44 2.720453 1_445
Na13 O39 2.358877 1_655
Na13 O41 2.386073 1_545
Na13 O40 2.437547 1_645
Na13 O46 2.711339 1_556
Na13 O47 2.725483 1_656
Na13 O45 2.809514 1_546
Na14 O48 2.337576 1_555
Na14 O50 2.383696 1_555
Na14 O49 2.544224 1_555
Na14 O56 2.660047 1_555
Na14 O55 2.706771 1_555
Na14 O54 2.782971 1_555
Na15 O53 2.245055 1_555
Na15 O51 2.472923 1_555
Na15 O52 2.532256 1_555
Na15 O57 2.739472 1_555
Na15 O58 2.755621 1_555
Na15 O59 2.822919 1_555
Na16 O68 2.502786 1_555
Na16 O66 2.530580 1_555
Na16 O61 2.579957 1_555
Na16 O67 2.595105 1_555
Na16 O60 2.644435 1_555
Na16 O62 2.728784 1_555
Na17 O70 2.504913 1_555
Na17 O71 2.529186 1_555
Na17 O64 2.587690 1_555
Na17 O69 2.591180 1_555
Na17 O63 2.605006 1_555
Na17 O65 2.650386 1_555
Nb0 O8 1.936603 1_655
Nb0 O6 1.953530 1_555
Nb0 O44 1.986907 1_555
Nb0 O43 2.030780 1_665
Nb0 O42 2.063121 1_565
Nb0 O7 2.177381 1_665
Nb1 O11 1.910830 1_545
Nb1 O47 1.963390 1_555
Nb1 O45 1.979252 1_445
Nb1 O46 2.039138 1_455
Nb1 O10 2.116076 1_555
Nb1 O9 2.176290 1_445
Nb2 O20 1.954608 1_556
Nb2 O19 1.966424 1_556
Nb2 O18 1.998198 1_556
Nb2 O55 2.058633 1_555
Nb2 O54 2.070891 1_555
Nb2 O56 2.079983 1_555
Nb3 O21 1.938107 1_555
Nb3 O22 1.981190 1_555
Nb3 O23 1.987371 1_555
Nb3 O58 2.055502 1_555
Nb3 O57 2.065259 1_555
Nb3 O59 2.077596 1_555
Nb4 O25 1.923883 1_554
Nb4 O24 1.964718 1_554
Nb4 O60 1.985630 1_555
Nb4 O26 1.988835 1_554
Nb4 O62 2.031586 1_555
Nb4 O61 2.034543 1_555
Nb5 O28 1.916249 1_555
Nb5 O29 1.979187 1_555
Nb5 O65 1.983812 1_555
Nb5 O27 1.991706 1_555
Nb5 O64 2.024222 1_555
Nb5 O63 2.053582 1_555
Nb6 O31 1.917267 1_555
Nb6 O30 1.928669 1_555
Nb6 O66 1.949875 1_555
Nb6 O32 2.000900 1_555
Nb6 O67 2.202512 1_555
Nb6 O68 2.222651 1_555
Nb7 O34 1.886849 1_555
Nb7 O70 1.992555 1_555
Nb7 O33 1.997726 1_555
Nb7 O71 2.007358 1_555
Nb7 O35 2.009859 1_555
Nb7 O69 2.303188 1_555
O0 Si0 1.600092 1_555
O0 Zn0 1.946957 1_555
O1 S0 1.468221 1_555
O1 Zn0 2.174913 1_665
O2 S1 1.470042 1_655
O2 Zn0 2.161951 1_655
O3 S2 1.463785 1_555
O3 Zn1 2.229349 1_445
O4 Si1 1.597010 1_555
O4 Zn1 1.962938 1_555
O5 Si2 1.605751 1_555
O5 Zn1 1.975593 1_545
O6 Si2 1.716805 1_565
O7 S2 1.507702 1_555
O8 Si1 1.703605 1_455
O9 S0 1.525201 1_555
O10 S1 1.522792 1_555
O11 Si0 1.724732 1_565
O12 Si3 1.592517 1_555
O12 Zn2 2.023086 1_555
O13 Si4 1.579181 1_555
O13 Zn2 1.978922 1_555
O14 Si5 1.580290 1_555
O14 Zn2 2.052893 1_555
O15 Si6 1.566376 1_555
O15 Zn3 2.007844 1_555
O16 Si7 1.577107 1_555
O16 Zn3 1.961664 1_555
O17 Si8 1.574950 1_555
O17 Zn3 1.989018 1_555
O18 Si8 1.681796 1_555
O19 Si6 1.692314 1_555
O20 Si7 1.687746 1_555
O21 Si4 1.685361 1_555
O22 Si5 1.675805 1_555
O23 Si3 1.686728 1_555
O24 Si9 1.642517 1_555
O25 Si10 1.644723 1_555
O26 Si11 1.633622 1_555
O27 Si12 1.641037 1_555
O28 Si13 1.654761 1_555
O29 Si14 1.642346 1_555
O30 Si14 1.672565 1_555
O31 Si12 1.669857 1_555
O32 Si13 1.646708 1_555
O33 Si10 1.661122 1_555
O34 Si11 1.687969 1_555
O35 Si9 1.665173 1_555
O36 Si14 1.602312 1_555
O36 Zn0 2.135521 1_565
O37 Si12 1.602677 1_555
O37 Zn0 2.165549 1_665
O38 Si13 1.603264 1_555
O38 Zn0 2.132699 1_555
O39 Si10 1.599159 1_555
O39 Zn1 2.207050 1_445
O40 Si11 1.595882 1_555
O40 Zn1 2.202020 1_455
O41 Si9 1.604060 1_555
O41 Zn1 2.138880 1_555
O42 Si3 1.646184 1_555
O43 Si4 1.651921 1_555
O44 Si5 1.696171 1_555
O45 Si6 1.710643 1_555
O46 Si7 1.654416 1_555
O47 Si8 1.674402 1_555
O48 Si2 1.597031 1_555
O48 Zn2 2.093226 1_555
O49 S2 1.465537 1_555
O49 Zn2 2.385959 1_555
O50 Si1 1.612082 1_555
O50 Zn2 2.207444 1_555
O51 S0 1.460318 1_555
O51 Zn3 2.411179 1_555
O52 S1 1.460011 1_655
O52 Zn3 2.380888 1_555
O53 Si0 1.593708 1_555
O53 Zn3 2.056033 1_555
O54 Si9 1.653815 1_555
O55 Si10 1.654284 1_655
O56 Si11 1.642937 1_545
O57 Si12 1.649016 1_545
O58 Si13 1.655203 1_555
O59 Si14 1.647049 1_655
O60 Si8 1.640936 1_555
O61 Si6 1.647987 1_455
O62 Si7 1.666582 1_565
O63 Si4 1.667193 1_565
O64 Si5 1.645713 1_555
O65 Si3 1.647083 1_455
O66 Si0 1.721773 1_565
O67 S0 1.525694 1_555
O68 S1 1.522413 1_555
O69 S2 1.532015 1_555
O70 Si1 1.690331 1_455
O71 Si2 1.695074 1_565
