# generated using pymatgen
data_Na2CaHf3P4(SO12)2
_symmetry_space_group_name_H-M   'P 1'
_cell_length_a   8.90357409
_cell_length_b   8.91037146
_cell_length_c   23.44831027
_cell_angle_alpha   89.84007442
_cell_angle_beta   90.12229930
_cell_angle_gamma   120.02127114
_symmetry_Int_Tables_number   1
_chemical_formula_structural   Na2CaHf3P4(SO12)2
_chemical_formula_sum   'Na6 Ca3 Hf9 P12 S6 O72'
_cell_volume   1610.67305525
_cell_formula_units_Z   3
loop_
 _symmetry_equiv_pos_site_id
 _symmetry_equiv_pos_as_xyz
  1  'x, y, z'
loop_
 _atom_site_type_symbol
 _atom_site_label
 _atom_site_symmetry_multiplicity
 _atom_site_fract_x
 _atom_site_fract_y
 _atom_site_fract_z
 _atom_site_occupancy
  Na  Na0  1  0.00060482  0.99198027  0.50668176  1
  Na  Na1  1  0.00785058  0.99779944  0.00296333  1
  Na  Na2  1  0.66251808  0.32637462  0.83095490  1
  Na  Na3  1  0.66756599  0.33236155  0.33866745  1
  Na  Na4  1  0.32806120  0.66116117  0.16952702  1
  Na  Na5  1  0.34523231  0.66965545  0.66392529  1
  Ca  Ca0  1  0.99829134  0.99950094  0.64729633  1
  Ca  Ca1  1  0.00451056  0.99983840  0.14341269  1
  Ca  Ca2  1  0.33271193  0.66746866  0.32015654  1
  Hf  Hf0  1  0.00136424  0.00037350  0.35797467  1
  Hf  Hf1  1  0.00182781  0.00802292  0.85213915  1
  Hf  Hf2  1  0.65165412  0.32413777  0.68500164  1
  Hf  Hf3  1  0.66853323  0.34139668  0.18442825  1
  Hf  Hf4  1  0.66478333  0.33777441  0.97703822  1
  Hf  Hf5  1  0.66188167  0.33435186  0.48084247  1
  Hf  Hf6  1  0.32841755  0.66109110  0.01840869  1
  Hf  Hf7  1  0.34028890  0.67138259  0.51672007  1
  Hf  Hf8  1  0.33856530  0.66830645  0.81631834  1
  P  P0  1  0.29511718  0.29713884  0.75091303  1
  P  P1  1  0.70464822  0.00195300  0.75081177  1
  P  P2  1  0.37731201  0.03793005  0.58126042  1
  P  P3  1  0.66098040  0.61995405  0.58210313  1
  P  P4  1  0.95657892  0.61747929  0.08050139  1
  P  P5  1  0.38227250  0.34010945  0.08072777  1
  P  P6  1  0.62594346  0.67137974  0.91731759  1
  P  P7  1  0.04317545  0.37639570  0.91652078  1
  P  P8  1  0.33066589  0.95475841  0.91713601  1
  P  P9  1  0.63038771  0.96548253  0.41668901  1
  P  P10  1  0.33335709  0.37208440  0.41697344  1
  P  P11  1  0.03741878  0.66472506  0.41737727  1
  S  S0  1  0.29807123  0.00538291  0.24938740  1
  S  S1  1  0.70839251  0.70517792  0.24925876  1
  S  S2  1  0.99427143  0.29077894  0.24902715  1
  S  S3  1  0.99941617  0.70236695  0.75216621  1
  S  S4  1  0.95748853  0.34154002  0.58223502  1
  S  S5  1  0.65908839  0.04444663  0.08132566  1
  O  O0  1  0.21194541  0.02796034  0.30117956  1
  O  O1  1  0.81687709  0.79022852  0.30104947  1
  O  O2  1  0.97265274  0.18245658  0.30100307  1
  O  O3  1  0.20486282  0.17800547  0.80395489  1
  O  O4  1  0.97410265  0.78929323  0.80261137  1
  O  O5  1  0.82284270  0.02576457  0.80388135  1
  O  O6  1  0.77022016  0.96257498  0.69726652  1
  O  O7  1  0.19261000  0.22840873  0.69698884  1
  O  O8  1  0.03371614  0.80363633  0.70019711  1
  O  O9  1  0.78933299  0.80365186  0.19796027  1
  O  O10  1  0.01146767  0.20909100  0.19789664  1
  O  O11  1  0.19812109  0.98674711  0.19829157  1
  O  O12  1  0.87307333  0.36058442  0.63467661  1
  O  O13  1  0.48867531  0.12642944  0.63671654  1
  O  O14  1  0.64190889  0.50839833  0.63680659  1
  O  O15  1  0.86884009  0.50675798  0.13580920  1
  O  O16  1  0.63842339  0.12752755  0.13398419  1
  O  O17  1  0.49236322  0.35916242  0.13579019  1
  O  O18  1  0.47978195  0.32430864  0.02885032  1
  O  O19  1  0.84591472  0.51633047  0.02862936  1
  O  O20  1  0.67532038  0.14924903  0.03054861  1
  O  O21  1  0.47976281  0.14934575  0.53006942  1
  O  O22  1  0.67433950  0.52170092  0.53031811  1
  O  O23  1  0.85304777  0.32673837  0.53156522  1
  O  O24  1  0.53827554  0.69594713  0.97049441  1
  O  O25  1  0.15663520  0.46192357  0.97023852  1
  O  O26  1  0.30598533  0.84197195  0.97067178  1
  O  O27  1  0.54117601  0.84477127  0.46914813  1
  O  O28  1  0.30430595  0.46104750  0.46925380  1
  O  O29  1  0.15728220  0.69471863  0.46960822  1
  O  O30  1  0.10007662  0.62827600  0.36283343  1
  O  O31  1  0.52832638  0.90195007  0.36264475  1
  O  O32  1  0.37014998  0.47215188  0.36255344  1
  O  O33  1  0.12798113  0.49006091  0.86415730  1
  O  O34  1  0.35870828  0.86969661  0.86466040  1
  O  O35  1  0.51169681  0.64166834  0.86465740  1
  O  O36  1  0.02005843  0.83206892  0.41045886  1
  O  O37  1  0.81340653  0.98020363  0.40992642  1
  O  O38  1  0.16651242  0.18774050  0.41047616  1
  O  O39  1  0.02554630  0.19541041  0.90930916  1
  O  O40  1  0.16877499  0.97381352  0.90897363  1
  O  O41  1  0.80704991  0.83124703  0.90895110  1
  O  O42  1  0.97532407  0.18766146  0.58441136  1
  O  O43  1  0.20124471  0.02329722  0.58298425  1
  O  O44  1  0.81960574  0.79845357  0.58332191  1
  O  O45  1  0.97120540  0.79338973  0.08196081  1
  O  O46  1  0.81216475  0.02604420  0.08451489  1
  O  O47  1  0.20335568  0.18274965  0.08221809  1
  O  O48  1  0.69040336  0.16936760  0.74544418  1
  O  O49  1  0.47989819  0.31585679  0.74593215  1
  O  O50  1  0.84232337  0.52749289  0.74681190  1
  O  O51  1  0.69826475  0.52846839  0.24491761  1
  O  O52  1  0.82857153  0.30086301  0.24451795  1
  O  O53  1  0.47388602  0.16996203  0.24445934  1
  O  O54  1  0.64403821  0.50749043  0.92390367  1
  O  O55  1  0.86100592  0.35434647  0.92431125  1
  O  O56  1  0.49372568  0.13622927  0.92476664  1
  O  O57  1  0.66341843  0.14923121  0.42903107  1
  O  O58  1  0.48623196  0.33944835  0.42797847  1
  O  O59  1  0.85368083  0.51194586  0.42924787  1
  O  O60  1  0.37555461  0.51101518  0.07583885  1
  O  O61  1  0.13738261  0.63029306  0.07588573  1
  O  O62  1  0.49840906  0.87183569  0.07688283  1
  O  O63  1  0.36722892  0.85880843  0.57603552  1
  O  O64  1  0.48938371  0.62632100  0.57630902  1
  O  O65  1  0.12989451  0.50233939  0.57711725  1
  O  O66  1  0.32488143  0.85747887  0.25431364  1
  O  O67  1  0.53307814  0.67638399  0.25413385  1
  O  O68  1  0.14193012  0.46590569  0.25387982  1
  O  O69  1  0.32164140  0.48004225  0.76348935  1
  O  O70  1  0.15151301  0.67862554  0.76246290  1
  O  O71  1  0.51935421  0.84757120  0.76366727  1
loop_
_geom_bond_atom_site_label_1
_geom_bond_atom_site_label_2
_geom_bond_distance
_geom_bond_site_symmetry_2
Na0 O43 2.441429 1_565
Na0 O44 2.452437 1_455
Na0 O42 2.612462 1_465
Na0 O36 2.723519 1_555
Na0 O38 2.779835 1_565
Na0 O37 2.783238 1_455
Na1 O45 2.498832 1_455
Na1 O47 2.516401 1_565
Na1 O46 2.685391 1_465
Na1 O40 2.697833 1_554
Na1 O41 2.757674 1_454
Na1 O39 2.765871 1_564
Na2 O48 2.530715 1_555
Na2 O49 2.542024 1_555
Na2 O50 2.605781 1_555
Na2 O56 2.722745 1_555
Na2 O55 2.742811 1_555
Na2 O54 2.769206 1_555
Na3 O57 2.659768 1_555
Na3 O58 2.667114 1_555
Na3 O59 2.677366 1_555
Na3 O52 2.725259 1_555
Na3 O53 2.729843 1_555
Na3 O51 2.731974 1_555
Na4 O68 2.606762 1_555
Na4 O67 2.650381 1_555
Na4 O66 2.661295 1_555
Na4 O61 2.701730 1_555
Na4 O60 2.716835 1_555
Na4 O62 2.772303 1_555
Na5 O64 2.555138 1_555
Na5 O63 2.603500 1_555
Na5 O65 2.679910 1_555
Na5 O71 2.816461 1_555
Na5 O69 2.823824 1_555
Na5 O70 2.911338 1_555
Ca0 O6 2.223545 1_555
Ca0 O7 2.232659 1_665
Ca0 O44 2.267921 1_555
Ca0 O43 2.282716 1_665
Ca0 O8 2.284957 1_655
Ca0 O42 2.314088 1_565
Ca1 O11 2.198177 1_555
Ca1 O47 2.227137 1_565
Ca1 O9 2.238084 1_455
Ca1 O10 2.238260 1_565
Ca1 O45 2.239480 1_455
Ca1 O46 2.298470 1_465
Ca2 O30 2.167182 1_555
Ca2 O32 2.167402 1_555
Ca2 O31 2.180412 1_555
Ca2 O66 2.314741 1_555
Ca2 O67 2.335562 1_555
Ca2 O68 2.340458 1_555
Hf0 O38 2.003049 1_555
Hf0 O37 2.005835 1_445
Hf0 O36 2.007437 1_545
Hf0 O2 2.209904 1_455
Hf0 O0 2.212913 1_555
Hf0 O1 2.216497 1_445
Hf1 O5 2.021980 1_455
Hf1 O3 2.024322 1_555
Hf1 O39 2.070742 1_555
Hf1 O40 2.126276 1_545
Hf1 O41 2.127897 1_445
Hf1 O4 2.176719 1_445
Hf2 O13 1.984222 1_555
Hf2 O14 2.027811 1_555
Hf2 O49 2.069079 1_555
Hf2 O48 2.119575 1_555
Hf2 O12 2.179819 1_555
Hf2 O50 2.278579 1_555
Hf3 O15 2.005290 1_555
Hf3 O17 2.006463 1_555
Hf3 O51 2.104852 1_555
Hf3 O16 2.145341 1_555
Hf3 O52 2.156307 1_555
Hf3 O53 2.160482 1_555
Hf4 O18 2.003382 1_556
Hf4 O19 2.007612 1_556
Hf4 O54 2.035010 1_555
Hf4 O56 2.077112 1_555
Hf4 O55 2.086322 1_555
Hf4 O20 2.133168 1_556
Hf5 O22 1.992458 1_555
Hf5 O21 2.000443 1_555
Hf5 O58 2.011688 1_555
Hf5 O59 2.044023 1_555
Hf5 O57 2.056895 1_555
Hf5 O23 2.103009 1_555
Hf6 O25 2.013025 1_554
Hf6 O26 2.049767 1_554
Hf6 O24 2.067921 1_554
Hf6 O61 2.079761 1_555
Hf6 O60 2.080116 1_555
Hf6 O62 2.204197 1_555
Hf7 O27 2.015966 1_555
Hf7 O29 2.061221 1_555
Hf7 O28 2.064753 1_555
Hf7 O63 2.095641 1_555
Hf7 O64 2.097150 1_555
Hf7 O65 2.227003 1_555
Hf8 O35 2.018523 1_555
Hf8 O71 2.022698 1_555
Hf8 O69 2.032018 1_555
Hf8 O34 2.055632 1_555
Hf8 O33 2.077377 1_555
Hf8 O70 2.126133 1_555
O0 S0 1.504347 1_555
O1 S1 1.499907 1_555
O2 S2 1.504169 1_555
O3 P0 1.569331 1_555
O4 S3 1.493584 1_555
O5 P1 1.572716 1_555
O6 P1 1.500309 1_565
O7 P0 1.498973 1_555
O8 S3 1.453325 1_455
O9 S1 1.449550 1_555
O10 S2 1.451835 1_455
O11 S0 1.450407 1_565
O12 S4 1.496164 1_555
O13 P2 1.585470 1_555
O14 P3 1.577061 1_555
O15 P4 1.578432 1_555
O16 S5 1.499618 1_555
O17 P5 1.576678 1_555
O18 P5 1.543069 1_555
O19 P4 1.541084 1_555
O20 S5 1.473098 1_555
O21 P2 1.533077 1_555
O22 P3 1.538117 1_555
O23 S4 1.472131 1_555
O24 P6 1.545517 1_555
O25 P7 1.554804 1_555
O26 P8 1.551529 1_555
O27 P9 1.562941 1_555
O28 P10 1.552422 1_555
O29 P11 1.556012 1_555
O30 P11 1.496367 1_555
O31 P9 1.495485 1_555
O32 P10 1.494593 1_555
O33 P7 1.528157 1_555
O34 P8 1.531901 1_555
O35 P6 1.535089 1_555
O36 P11 1.582006 1_555
O37 P9 1.576323 1_555
O38 P10 1.576961 1_555
O39 P7 1.549833 1_555
O40 P8 1.544878 1_555
O41 P6 1.539192 1_555
O42 S4 1.457816 1_555
O43 P2 1.507252 1_555
O44 P3 1.509141 1_555
O45 P4 1.506979 1_555
O46 S5 1.453675 1_555
O47 P5 1.506578 1_555
O48 P1 1.563770 1_555
O49 P0 1.572997 1_555
O50 S3 1.489822 1_555
O51 S1 1.535081 1_555
O52 S2 1.525698 1_555
O53 S0 1.522188 1_555
O54 P6 1.554470 1_555
O55 P7 1.544319 1_655
O56 P8 1.551075 1_545
O57 P9 1.539921 1_545
O58 P10 1.548544 1_555
O59 P11 1.542173 1_655
O60 P5 1.557524 1_555
O61 P4 1.559795 1_455
O62 S5 1.490492 1_565
O63 P2 1.558230 1_565
O64 P3 1.562602 1_555
O65 S4 1.490849 1_455
O66 S0 1.456349 1_565
O67 S1 1.454387 1_555
O68 S2 1.457353 1_455
O69 P0 1.554360 1_555
O70 S3 1.490602 1_455
O71 P1 1.560072 1_565
