# generated using pymatgen
data_MgFe4O7F
_symmetry_space_group_name_H-M   'P 1'
_cell_length_a   6.05685303
_cell_length_b   6.03386265
_cell_length_c   5.73560236
_cell_angle_alpha   80.82804415
_cell_angle_beta   107.51348159
_cell_angle_gamma   56.83980739
_symmetry_Int_Tables_number   1
_chemical_formula_structural   MgFe4O7F
_chemical_formula_sum   'Mg1 Fe4 O7 F1'
_cell_volume   152.94244564
_cell_formula_units_Z   1
loop_
 _symmetry_equiv_pos_site_id
 _symmetry_equiv_pos_as_xyz
  1  'x, y, z'
loop_
 _atom_site_type_symbol
 _atom_site_label
 _atom_site_symmetry_multiplicity
 _atom_site_fract_x
 _atom_site_fract_y
 _atom_site_fract_z
 _atom_site_occupancy
  Mg  Mg0  1  0.24334041  0.75998859  0.49851515  1
  Fe  Fe0  1  0.78111663  0.76074253  0.54854089  1
  Fe  Fe1  1  0.22769358  0.26465890  0.48748484  1
  Fe  Fe2  1  0.50078571  0.41426354  0.06963704  1
  Fe  Fe3  1  0.96223189  0.10023623  0.90313974  1
  O  O0  1  0.53362477  0.32316701  0.75917043  1
  O  O1  1  0.08058892  0.78226361  0.78458466  1
  O  O2  1  0.49191031  0.86242772  0.67857424  1
  O  O3  1  0.01547544  0.33233348  0.69694241  1
  O  O4  1  0.46586864  0.18511687  0.30212914  1
  O  O5  1  0.98145264  0.66373341  0.31986732  1
  O  O6  1  0.93945117  0.19173242  0.21898335  1
  F  F0  1  0.41931789  0.71647871  0.23243380  1
loop_
_geom_bond_atom_site_label_1
_geom_bond_atom_site_label_2
_geom_bond_distance
_geom_bond_site_symmetry_2
Mg0 O2 2.000257 1_555
Mg0 O5 2.030428 1_455
Mg0 O0 2.089399 1_555
Mg0 O6 2.095642 1_465
Mg0 O1 2.140275 1_555
Fe0 O2 1.938431 1_555
Fe0 O5 1.990181 1_555
Fe0 O1 1.993890 1_655
Fe0 O3 1.994681 1_655
Fe0 O4 2.018291 1_565
Fe1 O5 1.848557 1_455
Fe1 O2 1.870839 1_545
Fe1 O4 1.941634 1_555
Fe1 O3 1.942628 1_555
Fe1 O6 2.247555 1_455
Fe1 O0 2.267059 1_555
Fe2 O4 1.906946 1_555
Fe2 O0 1.979453 1_554
Fe2 O6 1.989160 1_555
Fe2 O1 2.058381 1_554
Fe3 O3 1.912992 1_655
Fe3 O0 1.940653 1_555
Fe3 O1 1.965193 1_645
Fe3 O6 1.997871 1_556
F0 Fe2 2.067936 1_555
F0 Mg0 2.082001 1_555
F0 Fe3 2.244843 1_464
F0 Fe0 2.562031 1_555
