# generated using pymatgen
data_LiMo2(PO4)3
_symmetry_space_group_name_H-M   'P 1'
_cell_length_a   8.88537900
_cell_length_b   8.67546500
_cell_length_c   12.30127912
_cell_angle_alpha   89.36767521
_cell_angle_beta   90.00000000
_cell_angle_gamma   90.00000000
_symmetry_Int_Tables_number   1
_chemical_formula_structural   LiMo2(PO4)3
_chemical_formula_sum   'Li4 Mo8 P12 O48'
_cell_volume   948.18382761
_cell_formula_units_Z   4
loop_
 _symmetry_equiv_pos_site_id
 _symmetry_equiv_pos_as_xyz
  1  'x, y, z'
loop_
 _atom_site_type_symbol
 _atom_site_label
 _atom_site_symmetry_multiplicity
 _atom_site_fract_x
 _atom_site_fract_y
 _atom_site_fract_z
 _atom_site_occupancy
  Li  Li0  1  0.77749400  0.80102200  0.18078500  1
  Li  Li1  1  0.27749400  0.69897800  0.31921500  1
  Li  Li2  1  0.72250600  0.30102200  0.68078500  1
  Li  Li3  1  0.22250600  0.19897800  0.81921500  1
  Mo  Mo0  1  0.53031900  0.75180800  0.61786200  1
  Mo  Mo1  1  0.96132700  0.75369500  0.38714300  1
  Mo  Mo2  1  0.03031900  0.74819200  0.88213800  1
  Mo  Mo3  1  0.46132700  0.74630500  0.11285700  1
  Mo  Mo4  1  0.53867300  0.25369500  0.88714300  1
  Mo  Mo5  1  0.96968100  0.25180800  0.11786200  1
  Mo  Mo6  1  0.03867300  0.24630500  0.61285700  1
  Mo  Mo7  1  0.46968100  0.24819200  0.38213800  1
  P  P0  1  0.74951700  0.03488200  0.50799100  1
  P  P1  1  0.61629500  0.10504400  0.14724300  1
  P  P2  1  0.89530300  0.11168000  0.85633000  1
  P  P3  1  0.39530300  0.38832000  0.64367000  1
  P  P4  1  0.11629500  0.39495600  0.35275700  1
  P  P5  1  0.24951700  0.46511800  0.99200900  1
  P  P6  1  0.75048300  0.53488200  0.00799100  1
  P  P7  1  0.88370500  0.60504400  0.64724300  1
  P  P8  1  0.25048300  0.96511800  0.49200900  1
  P  P9  1  0.38370500  0.89495600  0.85275700  1
  P  P10  1  0.60469700  0.61168000  0.35633000  1
  P  P11  1  0.10469700  0.88832000  0.14367000  1
  O  O0  1  0.55737900  0.69155400  0.46181200  1
  O  O1  1  0.10829100  0.06470400  0.12979600  1
  O  O2  1  0.32752900  0.07222500  0.40729200  1
  O  O3  1  0.41174300  0.07035600  0.83495100  1
  O  O4  1  0.63697400  0.10708100  0.42809000  1
  O  O5  1  0.73940200  0.17322400  0.81928500  1
  O  O6  1  0.56930200  0.15246700  0.03185600  1
  O  O7  1  0.01521700  0.15753700  0.76921000  1
  O  O8  1  0.86636000  0.94624700  0.44077500  1
  O  O9  1  0.89170900  0.93529600  0.87020400  1
  O  O10  1  0.67247100  0.92777500  0.59270800  1
  O  O11  1  0.58825700  0.92964400  0.16504900  1
  O  O12  1  0.36302600  0.89291900  0.57191000  1
  O  O13  1  0.21236200  0.87471700  0.83582400  1
  O  O14  1  0.43069800  0.84753300  0.96814400  1
  O  O15  1  0.98478300  0.84246300  0.23079000  1
  O  O16  1  0.26059800  0.82677600  0.18071500  1
  O  O17  1  0.17425900  0.83437400  0.42699100  1
  O  O18  1  0.47896300  0.80285500  0.77120500  1
  O  O19  1  0.05737900  0.80844600  0.03818800  1
  O  O20  1  0.97896300  0.69714500  0.72879500  1
  O  O21  1  0.13364000  0.05375300  0.55922500  1
  O  O22  1  0.67425900  0.66562600  0.07300900  1
  O  O23  1  0.76059800  0.67322400  0.31928500  1
  O  O24  1  0.48478300  0.65753700  0.26921000  1
  O  O25  1  0.93069800  0.65246700  0.53185600  1
  O  O26  1  0.71236200  0.62528300  0.66417600  1
  O  O27  1  0.86302600  0.60708100  0.92809000  1
  O  O28  1  0.17247100  0.57222500  0.90729200  1
  O  O29  1  0.08825700  0.57035600  0.33495100  1
  O  O30  1  0.39170900  0.56470400  0.62979600  1
  O  O31  1  0.36636000  0.55375300  0.05922500  1
  O  O32  1  0.63364000  0.44624700  0.94077500  1
  O  O33  1  0.60829100  0.43529600  0.37020400  1
  O  O34  1  0.91174300  0.42964400  0.66504900  1
  O  O35  1  0.82752900  0.42777500  0.09270800  1
  O  O36  1  0.13697400  0.39291900  0.07191000  1
  O  O37  1  0.28763800  0.37471700  0.33582400  1
  O  O38  1  0.06930200  0.34753300  0.46814400  1
  O  O39  1  0.51521700  0.34246300  0.73079000  1
  O  O40  1  0.23940200  0.32677600  0.68071500  1
  O  O41  1  0.32574100  0.33437400  0.92699100  1
  O  O42  1  0.44262100  0.30844600  0.53818800  1
  O  O43  1  0.02103700  0.30285500  0.27120500  1
  O  O44  1  0.94262100  0.19155400  0.96181200  1
  O  O45  1  0.52103700  0.19714500  0.22879500  1
  O  O46  1  0.82574100  0.16562600  0.57300900  1
  O  O47  1  0.78763800  0.12528300  0.16417600  1
loop_
_geom_bond_atom_site_label_1
_geom_bond_atom_site_label_2
_geom_bond_distance
_geom_bond_site_symmetry_2
Li0 O15 1.976081 1_555
Li0 O22 2.003302 1_555
Li0 O11 2.026101 1_555
Li0 O23 2.027995 1_555
Li1 O24 1.976081 1_555
Li1 O17 2.003302 1_555
Li1 O29 2.026101 1_555
Li1 O16 2.027995 1_555
Li2 O39 1.976081 1_555
Li2 O46 2.003302 1_555
Li2 O34 2.026101 1_555
Li2 O5 2.027995 1_555
Li3 O7 1.976081 1_555
Li3 O41 2.003302 1_555
Li3 O3 2.026101 1_555
Li3 O40 2.027995 1_555
Mo0 O18 1.995237 1_555
Mo0 O10 2.002790 1_555
Mo0 O12 2.003122 1_555
Mo0 O0 2.009509 1_555
Mo0 O26 2.032737 1_555
Mo0 O30 2.041558 1_555
Mo1 O8 1.990505 1_555
Mo1 O25 1.994930 1_555
Mo1 O29 2.058294 1_655
Mo1 O15 2.074379 1_555
Mo1 O17 2.077822 1_655
Mo1 O23 2.092389 1_555
Mo2 O20 1.995237 1_455
Mo2 O28 2.002790 1_555
Mo2 O27 2.003122 1_455
Mo2 O19 2.009509 1_556
Mo2 O13 2.032737 1_555
Mo2 O9 2.041558 1_455
Mo3 O31 1.990505 1_555
Mo3 O14 1.994930 1_554
Mo3 O11 2.058294 1_555
Mo3 O24 2.074379 1_555
Mo3 O22 2.077822 1_555
Mo3 O16 2.092389 1_555
Mo4 O32 1.990505 1_555
Mo4 O6 1.994930 1_556
Mo4 O3 2.058294 1_555
Mo4 O39 2.074379 1_555
Mo4 O41 2.077822 1_555
Mo4 O5 2.092389 1_555
Mo5 O43 1.995237 1_655
Mo5 O35 2.002790 1_555
Mo5 O36 2.003122 1_655
Mo5 O44 2.009509 1_554
Mo5 O47 2.032737 1_555
Mo5 O1 2.041558 1_655
Mo6 O21 1.990505 1_555
Mo6 O38 1.994930 1_555
Mo6 O34 2.058294 1_455
Mo6 O7 2.074379 1_555
Mo6 O46 2.077822 1_455
Mo6 O40 2.092389 1_555
Mo7 O45 1.995237 1_555
Mo7 O2 2.002790 1_555
Mo7 O4 2.003122 1_555
Mo7 O42 2.009509 1_555
Mo7 O37 2.032737 1_555
Mo7 O33 2.041558 1_555
O0 P10 1.536378 1_555
O1 P11 1.538160 1_545
O2 P8 1.548137 1_545
O3 P9 1.555051 1_545
O4 P0 1.531266 1_555
O5 P2 1.551211 1_555
O6 P1 1.531483 1_555
O7 P2 1.559687 1_455
O8 P0 1.538452 1_565
O9 P2 1.538160 1_565
O10 P0 1.548137 1_565
O11 P1 1.555051 1_565
O12 P8 1.531266 1_555
O13 P9 1.546891 1_555
O14 P9 1.531483 1_555
O15 P11 1.559687 1_655
O16 P11 1.551211 1_555
O17 P8 1.550798 1_555
O18 P9 1.542375 1_555
O19 P11 1.536378 1_555
O20 P7 1.542375 1_555
O21 P8 1.538452 1_545
O22 P6 1.550798 1_555
O23 P10 1.551211 1_555
O24 P10 1.559687 1_555
O25 P7 1.531483 1_555
O26 P7 1.546891 1_555
O27 P6 1.531266 1_556
O28 P5 1.548137 1_555
O29 P4 1.555051 1_555
O30 P3 1.538160 1_555
O31 P5 1.538452 1_554
O32 P6 1.538452 1_556
O33 P10 1.538160 1_555
O34 P7 1.555051 1_555
O35 P6 1.548137 1_555
O36 P5 1.531266 1_554
O37 P4 1.546891 1_555
O38 P4 1.531483 1_555
O39 P3 1.559687 1_555
O40 P3 1.551211 1_555
O41 P5 1.550798 1_555
O42 P3 1.536378 1_555
O43 P4 1.542375 1_555
O44 P2 1.536378 1_555
O45 P1 1.542375 1_555
O46 P0 1.550798 1_555
O47 P1 1.546891 1_555
