# generated using pymatgen
data_LiGaCl3
_symmetry_space_group_name_H-M   'P 1'
_cell_length_a   6.12982850
_cell_length_b   9.67455319
_cell_length_c   15.08643494
_cell_angle_alpha   90.00000000
_cell_angle_beta   90.00000000
_cell_angle_gamma   90.00000000
_symmetry_Int_Tables_number   1
_chemical_formula_structural   LiGaCl3
_chemical_formula_sum   'Li8 Ga8 Cl24'
_cell_volume   894.67615969
_cell_formula_units_Z   8
loop_
 _symmetry_equiv_pos_site_id
 _symmetry_equiv_pos_as_xyz
  1  'x, y, z'
loop_
 _atom_site_type_symbol
 _atom_site_label
 _atom_site_symmetry_multiplicity
 _atom_site_fract_x
 _atom_site_fract_y
 _atom_site_fract_z
 _atom_site_occupancy
  Li  Li0  1  0.38375670  0.99124066  0.36886181  1
  Li  Li1  1  0.88375670  0.00875934  0.13113819  1
  Li  Li2  1  0.61624330  0.49124066  0.63113819  1
  Li  Li3  1  0.11624330  0.50875934  0.86886181  1
  Li  Li4  1  0.61624330  0.00875934  0.63113819  1
  Li  Li5  1  0.11624330  0.99124066  0.86886181  1
  Li  Li6  1  0.38375670  0.50875934  0.36886181  1
  Li  Li7  1  0.88375670  0.49124066  0.13113819  1
  Ga  Ga0  1  0.54764447  0.75000000  0.99359255  1
  Ga  Ga1  1  0.04764447  0.25000000  0.50640745  1
  Ga  Ga2  1  0.45235553  0.25000000  0.00640745  1
  Ga  Ga3  1  0.95235553  0.75000000  0.49359255  1
  Ga  Ga4  1  0.41273258  0.75000000  0.14188989  1
  Ga  Ga5  1  0.91273258  0.25000000  0.35811011  1
  Ga  Ga6  1  0.58726742  0.25000000  0.85811011  1
  Ga  Ga7  1  0.08726742  0.75000000  0.64188989  1
  Cl  Cl0  1  0.04934405  0.75000000  0.15647855  1
  Cl  Cl1  1  0.54934405  0.25000000  0.34352145  1
  Cl  Cl2  1  0.95065595  0.25000000  0.84352145  1
  Cl  Cl3  1  0.45065595  0.75000000  0.65647855  1
  Cl  Cl4  1  0.21014569  0.75000000  0.38778555  1
  Cl  Cl5  1  0.71014569  0.25000000  0.11221445  1
  Cl  Cl6  1  0.78985431  0.25000000  0.61221445  1
  Cl  Cl7  1  0.28985431  0.75000000  0.88778555  1
  Cl  Cl8  1  0.95318304  0.57120988  0.72064468  1
  Cl  Cl9  1  0.45318304  0.42879012  0.77935532  1
  Cl  Cl10  1  0.04681696  0.07120988  0.27935532  1
  Cl  Cl11  1  0.54681696  0.92879012  0.22064468  1
  Cl  Cl12  1  0.04681696  0.42879012  0.27935532  1
  Cl  Cl13  1  0.54681696  0.57120988  0.22064468  1
  Cl  Cl14  1  0.95318304  0.92879012  0.72064468  1
  Cl  Cl15  1  0.45318304  0.07120988  0.77935532  1
  Cl  Cl16  1  0.73503487  0.93408840  0.46760417  1
  Cl  Cl17  1  0.23503487  0.06591160  0.03239583  1
  Cl  Cl18  1  0.26496513  0.43408840  0.53239583  1
  Cl  Cl19  1  0.76496513  0.56591160  0.96760417  1
  Cl  Cl20  1  0.26496513  0.06591160  0.53239583  1
  Cl  Cl21  1  0.76496513  0.93408840  0.96760417  1
  Cl  Cl22  1  0.73503487  0.56591160  0.46760417  1
  Cl  Cl23  1  0.23503487  0.43408840  0.03239583  1
loop_
_geom_bond_atom_site_label_1
_geom_bond_atom_site_label_2
_geom_bond_distance
_geom_bond_site_symmetry_2
Cl0 Ga4 2.238356 1_555
Cl0 Li1 2.728248 1_465
Cl0 Li7 2.728248 1_455
Cl1 Ga5 2.238356 1_555
Cl1 Li6 2.728248 1_555
Cl1 Li0 2.728248 1_545
Cl2 Ga6 2.238356 1_555
Cl2 Li3 2.728248 1_655
Cl2 Li5 2.728248 1_645
Cl3 Ga7 2.238356 1_555
Cl3 Li4 2.728248 1_565
Cl3 Li2 2.728248 1_555
Cl4 Ga3 2.246125 1_455
Cl4 Li0 2.580912 1_555
Cl4 Li6 2.580912 1_555
Cl5 Ga2 2.246125 1_555
Cl5 Li7 2.580912 1_555
Cl5 Li1 2.580912 1_555
Cl6 Ga1 2.246125 1_655
Cl6 Li2 2.580912 1_555
Cl6 Li4 2.580912 1_555
Cl7 Ga0 2.246125 1_555
Cl7 Li5 2.580912 1_555
Cl7 Li3 2.580912 1_555
Cl8 Ga7 2.253687 1_655
Cl8 Li3 2.522716 1_655
Cl8 Li2 2.586072 1_555
Cl9 Ga6 2.253687 1_555
Cl9 Li2 2.522716 1_555
Cl9 Li3 2.586072 1_555
Cl10 Ga5 2.253687 1_455
Cl10 Li1 2.522716 1_455
Cl10 Li0 2.586072 1_545
Cl11 Ga4 2.253687 1_555
Cl11 Li0 2.522716 1_555
Cl11 Li1 2.586072 1_565
Cl12 Ga5 2.253687 1_455
Cl12 Li7 2.522716 1_455
Cl12 Li6 2.586072 1_555
Cl13 Ga4 2.253687 1_555
Cl13 Li6 2.522716 1_555
Cl13 Li7 2.586072 1_555
Cl14 Ga7 2.253687 1_655
Cl14 Li5 2.522716 1_655
Cl14 Li4 2.586072 1_565
Cl15 Ga6 2.253687 1_555
Cl15 Li4 2.522716 1_555
Cl15 Li5 2.586072 1_545
Cl16 Ga3 2.258357 1_555
Cl16 Li4 2.671875 1_565
Cl16 Li0 2.676086 1_555
Cl17 Ga2 2.258357 1_555
Cl17 Li5 2.671875 1_544
Cl17 Li1 2.676086 1_455
Cl18 Ga1 2.258357 1_555
Cl18 Li6 2.671875 1_555
Cl18 Li2 2.676086 1_555
Cl19 Ga0 2.258357 1_555
Cl19 Li7 2.671875 1_556
Cl19 Li3 2.676086 1_655
Cl20 Ga1 2.258357 1_555
Cl20 Li0 2.671875 1_545
Cl20 Li4 2.676086 1_555
Cl21 Ga0 2.258357 1_555
Cl21 Li1 2.671875 1_566
Cl21 Li5 2.676086 1_655
Cl22 Ga3 2.258357 1_555
Cl22 Li2 2.671875 1_555
Cl22 Li6 2.676086 1_555
Cl23 Ga2 2.258357 1_555
Cl23 Li3 2.671875 1_554
Cl23 Li7 2.676086 1_455
