# generated using pymatgen
data_Er2MgCr2O8
_symmetry_space_group_name_H-M   'P 1'
_cell_length_a   5.00792998
_cell_length_b   5.11338169
_cell_length_c   8.18604689
_cell_angle_alpha   111.90582982
_cell_angle_beta   111.43279204
_cell_angle_gamma   79.36379238
_symmetry_Int_Tables_number   1
_chemical_formula_structural   Er2MgCr2O8
_chemical_formula_sum   'Er2 Mg1 Cr2 O8'
_cell_volume   180.75644893
_cell_formula_units_Z   1
loop_
 _symmetry_equiv_pos_site_id
 _symmetry_equiv_pos_as_xyz
  1  'x, y, z'
loop_
 _atom_site_type_symbol
 _atom_site_label
 _atom_site_symmetry_multiplicity
 _atom_site_fract_x
 _atom_site_fract_y
 _atom_site_fract_z
 _atom_site_occupancy
  Er  Er0  1  0.57809272  0.82826187  0.15517019  1
  Er  Er1  1  0.40369745  0.15377609  0.80946359  1
  Mg  Mg0  1  0.73548989  0.48404068  0.46512170  1
  Cr  Cr0  1  0.06660894  0.31662945  0.13182497  1
  Cr  Cr1  1  0.92867856  0.67852344  0.85811745  1
  O  O0  1  0.40659012  0.23489312  0.30830567  1
  O  O1  1  0.90487797  0.57914216  0.30922481  1
  O  O2  1  0.72514336  0.47804330  0.92919974  1
  O  O3  1  0.20367358  0.95044585  0.92948863  1
  O  O4  1  0.63795144  0.79176850  0.67046501  1
  O  O5  1  0.03236851  0.37648579  0.66975443  1
  O  O6  1  0.25078568  0.51740770  0.05165296  1
  O  O7  1  0.80104178  0.03558105  0.05220886  1
loop_
_geom_bond_atom_site_label_1
_geom_bond_atom_site_label_2
_geom_bond_distance
_geom_bond_site_symmetry_2
Er0 O1 2.193648 1_555
Er0 O0 2.194350 1_565
Er0 O7 2.207300 1_565
Er0 O6 2.207492 1_555
Er0 O2 2.282108 1_554
Er0 O3 2.283951 1_554
Er1 O5 2.167651 1_555
Er1 O4 2.167887 1_545
Er1 O3 2.217147 1_545
Er1 O2 2.218316 1_555
Er1 O6 2.409896 1_556
Er1 O7 2.415772 1_556
Mg0 O4 1.970507 1_555
Mg0 O5 1.970896 1_655
Mg0 O1 1.997798 1_555
Mg0 O0 1.998243 1_555
Cr0 O0 1.884378 1_555
Cr0 O1 1.889567 1_455
Cr0 O6 1.905296 1_555
Cr0 O7 1.905779 1_455
Cr0 O3 2.182412 1_544
Cr0 O2 2.187313 1_454
Cr1 O4 1.879574 1_555
Cr1 O5 1.882736 1_655
Cr1 O3 1.919354 1_655
Cr1 O2 1.921641 1_555
Cr1 O6 2.099144 1_656
Cr1 O7 2.100789 1_566
