# generated using pymatgen
data_LiCa2Si3
_symmetry_space_group_name_H-M   'P 1'
_cell_length_a   4.37709834
_cell_length_b   10.49784916
_cell_length_c   11.23698877
_cell_angle_alpha   90.00000000
_cell_angle_beta   90.00000000
_cell_angle_gamma   90.00000000
_symmetry_Int_Tables_number   1
_chemical_formula_structural   LiCa2Si3
_chemical_formula_sum   'Li4 Ca8 Si12'
_cell_volume   516.34096143
_cell_formula_units_Z   4
loop_
 _symmetry_equiv_pos_site_id
 _symmetry_equiv_pos_as_xyz
  1  'x, y, z'
loop_
 _atom_site_type_symbol
 _atom_site_label
 _atom_site_symmetry_multiplicity
 _atom_site_fract_x
 _atom_site_fract_y
 _atom_site_fract_z
 _atom_site_occupancy
  Li  Li0  1  0.50000000  0.86085793  0.28252964  1
  Li  Li1  1  0.50000000  0.13914207  0.71747036  1
  Li  Li2  1  0.00000000  0.36085793  0.21747036  1
  Li  Li3  1  0.00000000  0.63914207  0.78252964  1
  Ca  Ca0  1  0.50000000  0.55058635  0.34923190  1
  Ca  Ca1  1  0.50000000  0.44941365  0.65076810  1
  Ca  Ca2  1  -0.00000000  0.05058635  0.15076810  1
  Ca  Ca3  1  0.00000000  0.94941365  0.84923190  1
  Ca  Ca4  1  0.50000000  0.82165338  0.57446352  1
  Ca  Ca5  1  0.50000000  0.17834662  0.42553648  1
  Ca  Ca6  1  0.00000000  0.32165338  0.92553648  1
  Ca  Ca7  1  -0.00000000  0.67834662  0.07446352  1
  Si  Si0  1  0.50000000  0.89192841  0.03931487  1
  Si  Si1  1  0.50000000  0.10807159  0.96068513  1
  Si  Si2  1  -0.00000000  0.39192841  0.46068513  1
  Si  Si3  1  -0.00000000  0.60807159  0.53931487  1
  Si  Si4  1  -0.00000000  0.96510497  0.40160248  1
  Si  Si5  1  0.00000000  0.03489503  0.59839752  1
  Si  Si6  1  0.50000000  0.46510497  0.09839752  1
  Si  Si7  1  0.50000000  0.53489503  0.90160248  1
  Si  Si8  1  0.00000000  0.25526840  0.63266586  1
  Si  Si9  1  -0.00000000  0.74473160  0.36733414  1
  Si  Si10  1  0.50000000  0.75526840  0.86733414  1
  Si  Si11  1  0.50000000  0.24473160  0.13266586  1
loop_
_geom_bond_atom_site_label_1
_geom_bond_atom_site_label_2
_geom_bond_distance
_geom_bond_site_symmetry_2
Li0 Si9 2.680299 1_555
Li0 Si9 2.680299 1_655
Li0 Si0 2.752397 1_555
Li0 Si4 2.788851 1_555
Li0 Si4 2.788851 1_655
Li1 Si8 2.680299 1_655
Li1 Si8 2.680299 1_555
Li1 Si1 2.752397 1_555
Li1 Si5 2.788851 1_555
Li1 Si5 2.788851 1_655
Li2 Si11 2.680299 1_455
Li2 Si11 2.680299 1_555
Li2 Si2 2.752397 1_555
Li2 Si6 2.788851 1_455
Li2 Si6 2.788851 1_555
Li3 Si10 2.680299 1_555
Li3 Si10 2.680299 1_455
Li3 Si3 2.752397 1_555
Li3 Si7 2.788851 1_455
Li3 Si7 2.788851 1_555
Ca0 Si6 2.958025 1_555
Ca0 Si9 2.997500 1_555
Ca0 Si9 2.997500 1_655
Ca0 Si2 3.021980 1_555
Ca0 Si2 3.021980 1_655
Ca0 Si3 3.117090 1_555
Ca0 Si3 3.117090 1_655
Ca1 Si7 2.958025 1_555
Ca1 Si8 2.997500 1_555
Ca1 Si8 2.997500 1_655
Ca1 Si3 3.021980 1_555
Ca1 Si3 3.021980 1_655
Ca1 Si2 3.117090 1_555
Ca1 Si2 3.117090 1_655
Ca2 Si4 2.958025 1_545
Ca2 Si11 2.997500 1_455
Ca2 Si11 2.997500 1_555
Ca2 Si0 3.021980 1_445
Ca2 Si0 3.021980 1_545
Ca2 Si1 3.117090 1_554
Ca2 Si1 3.117090 1_454
Ca3 Si5 2.958025 1_565
Ca3 Si10 2.997500 1_455
Ca3 Si10 2.997500 1_555
Ca3 Si1 3.021980 1_465
Ca3 Si1 3.021980 1_565
Ca3 Si0 3.117090 1_556
Ca3 Si0 3.117090 1_456
Ca4 Si5 3.142183 1_565
Ca4 Si5 3.142183 1_665
Ca4 Si3 3.158002 1_655
Ca4 Si3 3.158002 1_555
Ca4 Si4 3.290995 1_655
Ca4 Si4 3.290995 1_555
Ca4 Si9 3.295319 1_655
Ca4 Si9 3.295319 1_555
Ca4 Si10 3.363963 1_555
Ca5 Si4 3.142183 1_645
Ca5 Si4 3.142183 1_545
Ca5 Si2 3.158002 1_655
Ca5 Si2 3.158002 1_555
Ca5 Si5 3.290995 1_655
Ca5 Si5 3.290995 1_555
Ca5 Si8 3.295319 1_655
Ca5 Si8 3.295319 1_555
Ca5 Si11 3.363963 1_555
Ca6 Si7 3.142183 1_455
Ca6 Si7 3.142183 1_555
Ca6 Si1 3.158002 1_555
Ca6 Si1 3.158002 1_455
Ca6 Si6 3.290995 1_456
Ca6 Si6 3.290995 1_556
Ca6 Si11 3.295319 1_556
Ca6 Si11 3.295319 1_456
Ca6 Si8 3.363963 1_555
Ca7 Si6 3.142183 1_555
Ca7 Si6 3.142183 1_455
Ca7 Si0 3.158002 1_555
Ca7 Si0 3.158002 1_455
Ca7 Si7 3.290995 1_454
Ca7 Si7 3.290995 1_554
Ca7 Si10 3.295319 1_554
Ca7 Si10 3.295319 1_454
Ca7 Si9 3.363963 1_555
Si0 Si10 2.406847 1_554
Si0 Si1 2.434998 1_564
Si1 Si11 2.406847 1_556
Si2 Si8 2.406847 1_555
Si2 Si3 2.434998 1_555
Si3 Si9 2.406847 1_555
Si4 Si5 2.329589 1_565
Si4 Si9 2.345275 1_555
Si5 Si8 2.345275 1_555
Si6 Si7 2.329589 1_554
Si10 Si7 2.345275 1_555
Si11 Si6 2.345275 1_555
