# generated using pymatgen
data_YMgMo3O8
_symmetry_space_group_name_H-M   'P 1'
_cell_length_a   6.24310151
_cell_length_b   6.39961307
_cell_length_c   5.08355973
_cell_angle_alpha   89.72286768
_cell_angle_beta   89.41742614
_cell_angle_gamma   119.31260968
_symmetry_Int_Tables_number   1
_chemical_formula_structural   YMgMo3O8
_chemical_formula_sum   'Y1 Mg1 Mo3 O8'
_cell_volume   177.07995855
_cell_formula_units_Z   1
loop_
 _symmetry_equiv_pos_site_id
 _symmetry_equiv_pos_as_xyz
  1  'x, y, z'
loop_
 _atom_site_type_symbol
 _atom_site_label
 _atom_site_symmetry_multiplicity
 _atom_site_fract_x
 _atom_site_fract_y
 _atom_site_fract_z
 _atom_site_occupancy
  Y  Y0  1  0.33296400  0.66457800  0.75868500  1
  Mg  Mg0  1  0.00167200  0.00191300  0.82300300  1
  Mo  Mo0  1  0.82802500  0.65613000  0.27249700  1
  Mo  Mo1  1  0.81972600  0.16845400  0.26370300  1
  Mo  Mo2  1  0.34297700  0.16824000  0.26388300  1
  O  O0  1  0.51427200  0.00128500  0.49107100  1
  O  O1  1  0.68405800  0.34020500  0.05529400  1
  O  O2  1  0.69027800  0.83998200  0.02253800  1
  O  O3  1  0.14957300  0.84047100  0.01826600  1
  O  O4  1  0.99105200  0.50225600  0.47056500  1
  O  O5  1  0.99059500  0.00003500  0.45548300  1
  O  O6  1  0.14556100  0.30455900  0.01790600  1
  O  O7  1  0.51132700  0.50355400  0.47343800  1
loop_
_geom_bond_atom_site_label_1
_geom_bond_atom_site_label_2
_geom_bond_distance
_geom_bond_site_symmetry_2
Mg0 O5 1.870171 1_455
Mg0 O3 1.961672 1_546
Mg0 O2 1.964513 1_446
Mg0 O6 1.967991 1_556
Mo0 O7 1.991246 1_555
Mo0 O4 2.003008 1_555
Mo0 O1 2.092167 1_555
Mo0 O5 2.142670 1_565
Mo0 O3 2.169228 1_655
Mo0 O2 2.176466 1_555
Mo1 O1 1.991604 1_555
Mo1 O0 2.015609 1_555
Mo1 O5 2.094493 1_555
Mo1 O4 2.149564 1_555
Mo1 O6 2.158917 1_655
Mo1 O2 2.226345 1_545
Mo2 O1 2.125583 1_555
Mo2 O5 2.138871 1_455
Mo2 O7 2.163521 1_555
Mo2 O0 2.179687 1_555
Mo2 O6 2.217490 1_555
Mo2 O3 2.234485 1_545
O0 Y0 2.308092 1_545
O2 Y0 2.378859 1_554
O3 Y0 2.358990 1_554
O4 Y0 2.384948 1_655
O6 Y0 2.390306 1_554
O7 Y0 2.347289 1_555
