# generated using pymatgen
data_Na6NbAl3Si2(PO6)4
_symmetry_space_group_name_H-M   'P 1'
_cell_length_a   15.14223041
_cell_length_b   8.76857757
_cell_length_c   8.77126613
_cell_angle_alpha   89.79557035
_cell_angle_beta   124.50240775
_cell_angle_gamma   90.11360762
_symmetry_Int_Tables_number   1
_chemical_formula_structural   Na6NbAl3Si2(PO6)4
_chemical_formula_sum   'Na12 Nb2 Al6 Si4 P8 O48'
_cell_volume   959.75347422
_cell_formula_units_Z   2
loop_
 _symmetry_equiv_pos_site_id
 _symmetry_equiv_pos_as_xyz
  1  'x, y, z'
loop_
 _atom_site_type_symbol
 _atom_site_label
 _atom_site_symmetry_multiplicity
 _atom_site_fract_x
 _atom_site_fract_y
 _atom_site_fract_z
 _atom_site_occupancy
  Na  Na0  1  0.25079143  0.74888438  0.99963465  1
  Na  Na1  1  0.74546867  0.75124922  0.48700964  1
  Na  Na2  1  0.75079143  0.24888438  0.99963465  1
  Na  Na3  1  0.24546867  0.25124922  0.48700964  1
  Na  Na4  1  0.49549803  0.10148988  0.73738615  1
  Na  Na5  1  0.50480418  0.88664041  0.25658900  1
  Na  Na6  1  0.99549803  0.60148988  0.73738615  1
  Na  Na7  1  0.00480418  0.38664041  0.25658900  1
  Na  Na8  1  0.19180739  0.92877504  0.28900122  1
  Na  Na9  1  0.80710624  0.07116945  0.70777588  1
  Na  Na10  1  0.69180739  0.42877504  0.28900122  1
  Na  Na11  1  0.30710624  0.57116945  0.70777588  1
  Nb  Nb0  1  0.89493611  0.74869961  0.93480435  1
  Nb  Nb1  1  0.39493611  0.24869961  0.93480435  1
  Al  Al0  1  0.10610653  0.75214176  0.56384524  1
  Al  Al1  1  0.89488463  0.24777222  0.43671703  1
  Al  Al2  1  0.10272552  0.25293837  0.06036353  1
  Al  Al3  1  0.60610653  0.25214176  0.56384524  1
  Al  Al4  1  0.39488463  0.74777222  0.43671703  1
  Al  Al5  1  0.60272552  0.75293837  0.06036353  1
  Si  Si0  1  0.35399592  0.88511186  0.75101956  1
  Si  Si1  1  0.65369859  0.09780298  0.25700935  1
  Si  Si2  1  0.85399592  0.38511186  0.75101956  1
  Si  Si3  1  0.15369859  0.59780298  0.25700935  1
  P  P0  1  0.00835355  0.96928031  0.75224650  1
  P  P1  1  -0.00009432  0.04295437  0.25703057  1
  P  P2  1  0.50835355  0.46928031  0.75224650  1
  P  P3  1  0.49990568  0.54295437  0.25703057  1
  P  P4  1  0.63772480  0.89282795  0.74123099  1
  P  P5  1  0.35568255  0.10805162  0.26504316  1
  P  P6  1  0.13772480  0.39282795  0.74123099  1
  P  P7  1  0.85568255  0.60805162  0.26504316  1
  O  O0  1  0.14572061  0.57021045  0.73759283  1
  O  O1  1  0.84659289  0.57728461  0.76069621  1
  O  O2  1  0.85250975  0.43133377  0.26021382  1
  O  O3  1  0.15040383  0.41453428  0.23167658  1
  O  O4  1  0.64572061  0.07021045  0.73759283  1
  O  O5  1  0.34659289  0.07728461  0.76069621  1
  O  O6  1  0.35250975  0.93133377  0.26021382  1
  O  O7  1  0.65040383  0.91453428  0.23167658  1
  O  O8  1  0.43742783  0.57175639  0.58385820  1
  O  O9  1  0.57560906  0.55824432  0.93428671  1
  O  O10  1  0.56436973  0.43060263  0.41764921  1
  O  O11  1  0.42732160  0.44915432  0.07302994  1
  O  O12  1  0.93742783  0.07175639  0.58385820  1
  O  O13  1  0.07560906  0.05824432  0.93428671  1
  O  O14  1  0.06436973  0.93060263  0.41764921  1
  O  O15  1  0.92732160  0.94915432  0.07302994  1
  O  O16  1  0.25002003  0.80976790  0.73183819  1
  O  O17  1  0.73931494  0.83145523  0.75277198  1
  O  O18  1  0.75064462  0.18665073  0.26632419  1
  O  O19  1  0.25361987  0.17018753  0.23964436  1
  O  O20  1  0.75002003  0.30976790  0.73183819  1
  O  O21  1  0.23931494  0.33145523  0.75277198  1
  O  O22  1  0.25064462  0.68665073  0.26632419  1
  O  O23  1  0.75361987  0.67018753  0.23964436  1
  O  O24  1  0.35846611  0.86414997  0.57068342  1
  O  O25  1  0.63973707  0.84988175  0.91213638  1
  O  O26  1  0.64076950  0.13461710  0.42599276  1
  O  O27  1  0.35881265  0.15249399  0.09265632  1
  O  O28  1  0.85846611  0.36414997  0.57068342  1
  O  O29  1  0.13973707  0.34988175  0.91213638  1
  O  O30  1  0.14076950  0.63461710  0.42599276  1
  O  O31  1  0.85881265  0.65249399  0.09265632  1
  O  O32  1  0.46214389  0.82147694  0.93856469  1
  O  O33  1  0.53868889  0.83179895  0.56051868  1
  O  O34  1  0.53997595  0.17619731  0.06910464  1
  O  O35  1  0.45717416  0.17295881  0.43830302  1
  O  O36  1  0.96214389  0.32147694  0.93856469  1
  O  O37  1  0.03868889  0.33179895  0.56051868  1
  O  O38  1  0.03997595  0.67619731  0.06910464  1
  O  O39  1  0.95717416  0.67295881  0.43830302  1
  O  O40  1  0.07775483  0.85088359  0.73593633  1
  O  O41  1  0.92138467  0.86775305  0.75871704  1
  O  O42  1  0.92568124  0.15436810  0.26897819  1
  O  O43  1  0.08236646  0.13644884  0.24211952  1
  O  O44  1  0.57775483  0.35088359  0.73593633  1
  O  O45  1  0.42138467  0.36775305  0.75871704  1
  O  O46  1  0.42568124  0.65436810  0.26897819  1
  O  O47  1  0.58236646  0.63644884  0.24211952  1
loop_
_geom_bond_atom_site_label_1
_geom_bond_atom_site_label_2
_geom_bond_distance
_geom_bond_site_symmetry_2
Na0 O16 2.400528 1_555
Na0 O22 2.401344 1_556
Na0 O0 2.478261 1_555
Na0 O40 2.478682 1_555
Na0 O6 2.486749 1_556
Na0 O46 2.487622 1_556
Na1 O7 2.339001 1_555
Na1 O23 2.354322 1_555
Na1 O47 2.392162 1_555
Na1 O17 2.489023 1_555
Na1 O1 2.500640 1_555
Na1 O41 2.575586 1_555
Na2 O20 2.400528 1_555
Na2 O18 2.401344 1_556
Na2 O4 2.478261 1_555
Na2 O44 2.478682 1_555
Na2 O2 2.486749 1_556
Na2 O42 2.487622 1_556
Na3 O3 2.339001 1_555
Na3 O19 2.354322 1_555
Na3 O43 2.392162 1_555
Na3 O21 2.489023 1_555
Na3 O5 2.500640 1_555
Na3 O45 2.575586 1_555
Na4 O4 2.290701 1_555
Na4 O5 2.385547 1_555
Na4 O35 2.424141 1_555
Na4 O44 2.518079 1_555
Na4 O45 2.645159 1_555
Na4 O34 2.672135 1_556
Na4 O24 2.709620 1_545
Na4 O25 2.861749 1_545
Na5 O7 2.347668 1_555
Na5 O6 2.357822 1_555
Na5 O46 2.394081 1_555
Na5 O33 2.458354 1_555
Na5 O47 2.527729 1_555
Na5 O32 2.548232 1_554
Na5 O26 2.777453 1_565
Na5 O27 2.963819 1_565
Na6 O0 2.290701 1_655
Na6 O1 2.385547 1_555
Na6 O39 2.424141 1_555
Na6 O40 2.518079 1_655
Na6 O41 2.645159 1_555
Na6 O38 2.672135 1_656
Na6 O28 2.709620 1_555
Na6 O29 2.861749 1_655
Na7 O3 2.347668 1_555
Na7 O2 2.357822 1_455
Na7 O42 2.394081 1_455
Na7 O37 2.458354 1_555
Na7 O43 2.527729 1_555
Na7 O36 2.548232 1_454
Na7 O30 2.777453 1_555
Na7 O31 2.963819 1_455
Na8 O43 2.337951 1_565
Na8 O22 2.356285 1_555
Na8 O24 2.392930 1_555
Na8 O19 2.447276 1_565
Na8 O6 2.584857 1_555
Na8 O14 2.732093 1_555
Na8 O13 2.801031 1_564
Na9 O20 2.320761 1_555
Na9 O41 2.346518 1_545
Na9 O26 2.388618 1_555
Na9 O17 2.464182 1_545
Na9 O4 2.600822 1_555
Na9 O12 2.739592 1_555
Na9 O15 2.845820 1_546
Na10 O47 2.337951 1_555
Na10 O18 2.356285 1_555
Na10 O28 2.392930 1_555
Na10 O23 2.447276 1_555
Na10 O2 2.584857 1_555
Na10 O10 2.732093 1_555
Na10 O9 2.801031 1_554
Na11 O16 2.320761 1_555
Na11 O45 2.346518 1_555
Na11 O30 2.388618 1_555
Na11 O21 2.464182 1_555
Na11 O0 2.600822 1_555
Na11 O8 2.739592 1_555
Na11 O11 2.845820 1_556
Nb0 O38 1.919510 1_656
Nb0 O31 1.943106 1_556
Nb0 O1 1.967945 1_555
Nb0 O15 2.034251 1_556
Nb0 O41 2.079250 1_555
Nb0 O17 2.089223 1_555
Nb1 O34 1.919510 1_556
Nb1 O27 1.943106 1_556
Nb1 O5 1.967945 1_555
Nb1 O11 2.034251 1_556
Nb1 O45 2.079250 1_555
Nb1 O21 2.089223 1_555
Al0 O30 1.878700 1_555
Al0 O16 1.881110 1_555
Al0 O14 1.887859 1_555
Al0 O40 1.989309 1_555
Al0 O39 1.991577 1_455
Al0 O0 2.044035 1_555
Al1 O28 1.863089 1_555
Al1 O12 1.873666 1_555
Al1 O18 1.895872 1_555
Al1 O37 1.945302 1_655
Al1 O42 1.959672 1_555
Al1 O2 2.064018 1_555
Al2 O36 1.859591 1_454
Al2 O29 1.882218 1_554
Al2 O3 1.889197 1_555
Al2 O13 1.949947 1_554
Al2 O19 2.036654 1_555
Al2 O43 2.055206 1_555
Al3 O26 1.878700 1_555
Al3 O20 1.881110 1_555
Al3 O10 1.887859 1_555
Al3 O44 1.989309 1_555
Al3 O35 1.991577 1_555
Al3 O4 2.044035 1_555
Al4 O24 1.863089 1_555
Al4 O8 1.873666 1_555
Al4 O22 1.895872 1_555
Al4 O33 1.945302 1_555
Al4 O46 1.959672 1_555
Al4 O6 2.064018 1_555
Al5 O32 1.859591 1_554
Al5 O25 1.882218 1_554
Al5 O7 1.889197 1_555
Al5 O9 1.949947 1_554
Al5 O23 2.036654 1_555
Al5 O47 2.055206 1_555
O0 P6 1.561473 1_555
O1 Si2 1.694644 1_555
O2 P7 1.550200 1_555
O3 Si3 1.619877 1_555
O4 P4 1.561473 1_545
O5 Si0 1.694644 1_545
O6 P5 1.550200 1_565
O7 Si1 1.619877 1_565
O8 P2 1.529592 1_555
O9 P2 1.535824 1_555
O10 P3 1.531061 1_555
O11 P3 1.576566 1_555
O12 P0 1.529592 1_645
O13 P0 1.535824 1_545
O14 P1 1.531061 1_565
O15 P1 1.576566 1_665
O16 Si0 1.624862 1_555
O17 P4 1.578831 1_555
O18 Si1 1.621305 1_555
O19 P5 1.532106 1_555
O20 Si2 1.624862 1_555
O21 P6 1.578831 1_555
O22 Si3 1.621305 1_555
O23 P7 1.532106 1_555
O24 Si0 1.632116 1_555
O25 P4 1.527803 1_555
O26 Si1 1.634579 1_555
O27 P5 1.586606 1_555
O28 Si2 1.632116 1_555
O29 P6 1.527803 1_555
O30 Si3 1.634579 1_555
O31 P7 1.586606 1_555
O32 Si0 1.626155 1_555
O33 P4 1.535481 1_555
O34 Si1 1.713363 1_555
O35 P5 1.533648 1_555
O36 Si2 1.626155 1_555
O37 P6 1.535481 1_555
O38 Si3 1.713363 1_555
O39 P7 1.533648 1_555
O40 P0 1.542187 1_555
O41 P0 1.615445 1_655
O42 P1 1.538544 1_655
O43 P1 1.558360 1_555
O44 P2 1.542187 1_555
O45 P2 1.615445 1_555
O46 P3 1.538544 1_555
O47 P3 1.558360 1_555
