# generated using pymatgen
data_MgV4(O2F)4
_symmetry_space_group_name_H-M   'P 1'
_cell_length_a   5.16647683
_cell_length_b   9.29139610
_cell_length_c   5.06689325
_cell_angle_alpha   103.06768327
_cell_angle_beta   117.59282424
_cell_angle_gamma   77.03198738
_symmetry_Int_Tables_number   1
_chemical_formula_structural   MgV4(O2F)4
_chemical_formula_sum   'Mg1 V4 O8 F4'
_cell_volume   207.95556704
_cell_formula_units_Z   1
loop_
 _symmetry_equiv_pos_site_id
 _symmetry_equiv_pos_as_xyz
  1  'x, y, z'
loop_
 _atom_site_type_symbol
 _atom_site_label
 _atom_site_symmetry_multiplicity
 _atom_site_fract_x
 _atom_site_fract_y
 _atom_site_fract_z
 _atom_site_occupancy
  Mg  Mg0  1  0.12870373  0.55651721  0.84604624  1
  V  V0  1  0.00131129  0.99215375  0.99444231  1
  V  V1  1  0.70010997  0.76207429  0.24488677  1
  V  V2  1  0.53566993  0.50017837  0.57195174  1
  V  V3  1  0.31103072  0.22507740  0.75256878  1
  O  O0  1  0.39124134  0.88198647  0.21927698  1
  O  O1  1  0.80876207  0.88108543  0.03960462  1
  O  O2  1  0.26750108  0.39052162  0.56060077  1
  O  O3  1  0.72363048  0.62380244  0.49218882  1
  O  O4  1  0.21464038  0.12831502  0.93547026  1
  O  O5  1  0.48608466  0.62924181  0.87460999  1
  O  O6  1  0.63657210  0.13405993  0.77530090  1
  O  O7  1  0.85191945  0.39215432  0.74446035  1
  F  F0  1  0.09787003  0.62898420  0.23037141  1
  F  F1  1  0.04563114  0.13622251  0.36929205  1
  F  F2  1  0.43392565  0.38681049  0.11688890  1
  F  F3  1  0.99039597  0.86887174  0.61953910  1
loop_
_geom_bond_atom_site_label_1
_geom_bond_atom_site_label_2
_geom_bond_distance
_geom_bond_site_symmetry_2
Mg0 O5 2.038360 1_555
Mg0 O3 2.104520 1_455
Mg0 O2 2.107253 1_555
Mg0 O7 2.141232 1_455
O0 V1 1.697124 1_555
O0 V0 1.969726 1_554
O1 V0 1.698648 1_654
O1 V1 1.989812 1_555
O2 V2 1.869281 1_555
O2 V3 1.917820 1_555
O3 V2 1.870789 1_555
O3 V1 1.937089 1_555
O4 V3 1.708922 1_555
O4 V0 2.001607 1_545
O5 V2 1.802736 1_555
O5 V1 1.977242 1_556
O6 V3 1.668368 1_555
O6 V0 2.032480 1_645
O7 V2 1.666953 1_555
O7 V3 2.514721 1_655
F0 Mg0 1.979182 1_554
F0 V1 2.171640 1_455
F0 V2 2.374685 1_555
F1 V3 1.910348 1_555
F1 V0 2.009153 1_544
F2 V3 2.038869 1_554
F2 Mg0 2.171207 1_554
F2 V2 2.174805 1_555
F3 V0 1.967110 1_655
F3 V1 2.004063 1_555
