# generated using pymatgen
data_MgVS2
_symmetry_space_group_name_H-M   'P 1'
_cell_length_a   6.26970147
_cell_length_b   6.26970181
_cell_length_c   6.26970228
_cell_angle_alpha   33.94869410
_cell_angle_beta   33.94869415
_cell_angle_gamma   33.94867840
_symmetry_Int_Tables_number   1
_chemical_formula_structural   MgVS2
_chemical_formula_sum   'Mg1 V1 S2'
_cell_volume   68.50678151
_cell_formula_units_Z   1
loop_
 _symmetry_equiv_pos_site_id
 _symmetry_equiv_pos_as_xyz
  1  'x, y, z'
loop_
 _atom_site_type_symbol
 _atom_site_label
 _atom_site_symmetry_multiplicity
 _atom_site_fract_x
 _atom_site_fract_y
 _atom_site_fract_z
 _atom_site_occupancy
  Mg  Mg0  1  0.50000000  0.50000000  0.50000000  1
  V  V0  1  0.00000000  0.00000000  0.00000000  1
  S  S0  1  0.74681100  0.74681100  0.74681100  1
  S  S1  1  0.25318900  0.25318900  0.25318900  1
loop_
_geom_bond_atom_site_label_1
_geom_bond_atom_site_label_2
_geom_bond_distance
_geom_bond_site_symmetry_2
Mg0 S1 2.610484 1_655
Mg0 S0 2.610484 1_455
Mg0 S1 2.610484 1_565
Mg0 S0 2.610484 1_545
Mg0 S1 2.610485 1_556
Mg0 S0 2.610485 1_554
S0 V0 2.545838 1_566
S0 V0 2.545838 1_656
S0 V0 2.545839 1_665
S1 V0 2.545838 1_655
S1 V0 2.545838 1_565
S1 V0 2.545839 1_556
