# generated using pymatgen
data_MgTi2(FeO2)4
_symmetry_space_group_name_H-M   'P 1'
_cell_length_a   6.52849604
_cell_length_b   6.52443681
_cell_length_c   6.31374100
_cell_angle_alpha   61.06263178
_cell_angle_beta   61.08232624
_cell_angle_gamma   58.91761899
_symmetry_Int_Tables_number   1
_chemical_formula_structural   MgTi2(FeO2)4
_chemical_formula_sum   'Mg1 Ti2 Fe4 O8'
_cell_volume   191.51115556
_cell_formula_units_Z   1
loop_
 _symmetry_equiv_pos_site_id
 _symmetry_equiv_pos_as_xyz
  1  'x, y, z'
loop_
 _atom_site_type_symbol
 _atom_site_label
 _atom_site_symmetry_multiplicity
 _atom_site_fract_x
 _atom_site_fract_y
 _atom_site_fract_z
 _atom_site_occupancy
  Mg  Mg0  1  0.35851200  0.35668800  0.39240000  1
  Ti  Ti0  1  0.92109500  0.52993600  0.52448500  1
  Ti  Ti1  1  0.53277200  0.91903400  0.52409700  1
  Fe  Fe0  1  0.11579300  0.11713200  0.13353700  1
  Fe  Fe1  1  0.52284300  0.52562700  0.96148500  1
  Fe  Fe2  1  0.52284300  0.52562700  0.49004500  1
  Fe  Fe3  1  0.90118900  0.90092700  0.84894200  1
  O  O0  1  0.24053700  0.24280800  0.27246800  1
  O  O1  1  0.24053700  0.24280800  0.74418800  1
  O  O2  1  0.24383800  0.71112800  0.27251700  1
  O  O3  1  0.71205600  0.24029300  0.27382500  1
  O  O4  1  0.29192200  0.75856100  0.72475900  1
  O  O5  1  0.75609800  0.29299300  0.72545400  1
  O  O6  1  0.75748200  0.75571900  0.25475500  1
  O  O7  1  0.75748200  0.75571900  0.73204200  1
loop_
_geom_bond_atom_site_label_1
_geom_bond_atom_site_label_2
_geom_bond_distance
_geom_bond_site_symmetry_2
Mg0 O0 1.848782 1_555
Mg0 O1 1.848788 1_555
Mg0 O3 1.879831 1_555
Mg0 O2 1.883538 1_555
Fe0 O1 2.044837 1_554
Fe0 O0 2.044847 1_555
Fe0 O3 2.149803 1_455
Fe0 O2 2.158548 1_545
Fe1 O4 2.105149 1_555
Fe1 O5 2.109764 1_555
Fe1 O7 2.196048 1_555
Fe1 O2 2.281101 1_556
Fe1 Mg0 2.294384 1_556
Fe1 O3 2.304186 1_556
Fe1 O0 2.676305 1_556
Fe2 O4 2.105153 1_555
Fe2 O5 2.109760 1_555
Fe2 O6 2.196048 1_555
Fe2 O2 2.281101 1_555
Fe2 Mg0 2.294384 1_555
Fe2 O3 2.304191 1_555
Fe2 O1 2.676304 1_555
Fe3 O4 2.075713 1_655
Fe3 O5 2.081084 1_565
Fe3 O6 2.141635 1_556
Fe3 O7 2.141644 1_555
O2 Ti0 2.424500 1_455
O3 Ti1 2.408235 1_545
O4 Ti1 1.913991 1_555
O5 Ti0 1.913002 1_555
O6 Ti1 1.976407 1_555
O6 Ti0 1.979404 1_555
O7 Ti1 1.976397 1_555
O7 Ti0 1.979390 1_555
