# generated using pymatgen
data_Ba2PrMgNbO6
_symmetry_space_group_name_H-M   'P 1'
_cell_length_a   7.52108881
_cell_length_b   5.74831183
_cell_length_c   6.74620901
_cell_angle_alpha   62.20126409
_cell_angle_beta   46.69926703
_cell_angle_gamma   65.70630638
_symmetry_Int_Tables_number   1
_chemical_formula_structural   Ba2PrMgNbO6
_chemical_formula_sum   'Ba2 Pr1 Mg1 Nb1 O6'
_cell_volume   185.85574219
_cell_formula_units_Z   1
loop_
 _symmetry_equiv_pos_site_id
 _symmetry_equiv_pos_as_xyz
  1  'x, y, z'
loop_
 _atom_site_type_symbol
 _atom_site_label
 _atom_site_symmetry_multiplicity
 _atom_site_fract_x
 _atom_site_fract_y
 _atom_site_fract_z
 _atom_site_occupancy
  Ba  Ba0  1  0.27909300  0.14424528  0.39136043  1
  Ba  Ba1  1  0.57984657  0.76124703  0.87039253  1
  Pr  Pr0  1  0.97958689  0.90833638  0.15666400  1
  Mg  Mg0  1  0.04505480  0.54789098  0.83601948  1
  Nb  Nb0  1  0.58748041  0.45348852  0.48160728  1
  O  O0  1  0.74425044  0.78819626  0.11064623  1
  O  O1  1  0.29333366  0.65741575  0.80123465  1
  O  O2  1  0.81090456  0.46979804  0.51879751  1
  O  O3  1  0.29990495  0.21186663  0.75826204  1
  O  O4  1  0.13786790  0.73378861  0.43370995  1
  O  O5  1  0.74267984  0.32372852  0.14130589  1
loop_
_geom_bond_atom_site_label_1
_geom_bond_atom_site_label_2
_geom_bond_distance
_geom_bond_site_symmetry_2
Ba0 O3 2.789461 1_555
Ba0 O4 2.791748 1_545
Ba0 O1 2.903561 1_545
Ba0 O2 2.926890 1_455
Ba0 O0 2.941181 1_545
Ba0 O5 3.055477 1_555
Ba0 O4 3.196770 1_555
Ba1 O2 2.666419 1_555
Ba1 O0 2.705675 1_556
Ba1 O5 2.722823 1_556
Ba1 O3 2.753965 1_565
Ba1 O1 2.813271 1_555
Ba1 O4 2.839277 1_556
Ba1 O4 3.040939 1_655
Mg0 O1 2.041284 1_555
Mg0 O3 2.049297 1_555
Mg0 O4 2.074912 1_555
Mg0 O0 2.127271 1_456
Mg0 O5 2.141353 1_456
Nb0 O2 1.904026 1_555
Nb0 O5 2.096291 1_555
Nb0 O1 2.144400 1_555
Nb0 O3 2.146493 1_555
Nb0 O0 2.164040 1_555
O0 Pr0 2.380258 1_555
O1 Pr0 2.462204 1_456
O2 Pr0 2.562923 1_555
O3 Pr0 2.505019 1_446
O4 Pr0 2.497397 1_455
O5 Pr0 2.325687 1_545
