# generated using pymatgen
data_Na2MgSn3P4(SO12)2
_symmetry_space_group_name_H-M   'P 1'
_cell_length_a   8.71180496
_cell_length_b   8.71676037
_cell_length_c   22.86063543
_cell_angle_alpha   89.94889173
_cell_angle_beta   89.85089116
_cell_angle_gamma   119.95708198
_symmetry_Int_Tables_number   1
_chemical_formula_structural   Na2MgSn3P4(SO12)2
_chemical_formula_sum   'Na6 Mg3 Sn9 P12 S6 O72'
_cell_volume   1504.06628945
_cell_formula_units_Z   3
loop_
 _symmetry_equiv_pos_site_id
 _symmetry_equiv_pos_as_xyz
  1  'x, y, z'
loop_
 _atom_site_type_symbol
 _atom_site_label
 _atom_site_symmetry_multiplicity
 _atom_site_fract_x
 _atom_site_fract_y
 _atom_site_fract_z
 _atom_site_occupancy
  Na  Na0  1  0.00070516  0.99482957  0.50401934  1
  Na  Na1  1  0.00518925  0.99919554  0.00214968  1
  Na  Na2  1  0.66263569  0.32852917  0.83183335  1
  Na  Na3  1  0.66698433  0.33341383  0.33786218  1
  Na  Na4  1  0.32931575  0.66191225  0.16880834  1
  Na  Na5  1  0.34229789  0.66968251  0.66483748  1
  Mg  Mg0  1  0.99891923  0.00021232  0.64582042  1
  Mg  Mg1  1  0.00638541  0.99925155  0.14580205  1
  Mg  Mg2  1  0.33353653  0.66755478  0.31973239  1
  Sn  Sn0  1  0.00117614  0.00028728  0.35564889  1
  Sn  Sn1  1  0.00083325  0.00614382  0.85059018  1
  Sn  Sn2  1  0.65248669  0.32377526  0.68400796  1
  Sn  Sn3  1  0.66834915  0.34040465  0.18424663  1
  Sn  Sn4  1  0.66508198  0.33787515  0.97984271  1
  Sn  Sn5  1  0.66133006  0.33487238  0.48032910  1
  Sn  Sn6  1  0.32784916  0.66046452  0.01794104  1
  Sn  Sn7  1  0.34021407  0.67168821  0.51679565  1
  Sn  Sn8  1  0.33890409  0.66703715  0.81386876  1
  P  P0  1  0.28813378  0.28982968  0.74840846  1
  P  P1  1  0.71113069  0.00173772  0.74794128  1
  P  P2  1  0.36830467  0.03713162  0.58256421  1
  P  P3  1  0.66971241  0.62888826  0.58342083  1
  P  P4  1  0.95954946  0.62891645  0.08303254  1
  P  P5  1  0.37096871  0.33095406  0.08314656  1
  P  P6  1  0.62734299  0.67016998  0.91683557  1
  P  P7  1  0.04058385  0.37432850  0.91608762  1
  P  P8  1  0.33186114  0.95704499  0.91659198  1
  P  P9  1  0.62301310  0.95945932  0.41448800  1
  P  P10  1  0.33406608  0.37966913  0.41487423  1
  P  P11  1  0.04345990  0.66331618  0.41541829  1
  S  S0  1  0.29106095  0.99682071  0.24845044  1
  S  S1  1  0.70743702  0.71241506  0.24867357  1
  S  S2  1  0.00236445  0.29231357  0.24806715  1
  S  S3  1  0.99935222  0.70827285  0.74895699  1
  S  S4  1  0.95873733  0.33248903  0.58339774  1
  S  S5  1  0.66851267  0.04078912  0.08336309  1
  O  O0  1  0.21772849  0.03563946  0.30258828  1
  O  O1  1  0.81900558  0.78568737  0.30263477  1
  O  O2  1  0.96479732  0.18142904  0.30246291  1
  O  O3  1  0.21833825  0.18145998  0.80672972  1
  O  O4  1  0.96675722  0.77988787  0.80458917  1
  O  O5  1  0.81505263  0.03336874  0.80672336  1
  O  O6  1  0.79325000  0.96930001  0.69512531  1
  O  O7  1  0.17696015  0.20639704  0.69525308  1
  O  O8  1  0.02886770  0.81700151  0.69759821  1
  O  O9  1  0.79348757  0.81764071  0.19653714  1
  O  O10  1  0.02198244  0.20574526  0.19624470  1
  O  O11  1  0.18483954  0.97649893  0.19684363  1
  O  O12  1  0.88219275  0.36948832  0.63708096  1
  O  O13  1  0.48899223  0.11118753  0.63778115  1
  O  O14  1  0.63148664  0.51025366  0.63920917  1
  O  O15  1  0.88349184  0.50727299  0.13839322  1
  O  O16  1  0.63044032  0.11681312  0.13683588  1
  O  O17  1  0.48998009  0.37085427  0.13855238  1
  O  O18  1  0.45516616  0.29833409  0.02817919  1
  O  O19  1  0.84619405  0.54190054  0.02796366  1
  O  O20  1  0.69753119  0.14987648  0.02997923  1
  O  O21  1  0.45654856  0.15234872  0.52776356  1
  O  O22  1  0.70087464  0.54432321  0.52833743  1
  O  O23  1  0.85003315  0.30429546  0.53014133  1
  O  O24  1  0.54916992  0.70485373  0.97286540  1
  O  O25  1  0.15228726  0.44961495  0.97201462  1
  O  O26  1  0.29949632  0.84579049  0.97293791  1
  O  O27  1  0.55400623  0.85068448  0.47177336  1
  O  O28  1  0.29656476  0.45066312  0.47239330  1
  O  O29  1  0.15212813  0.69950373  0.47261432  1
  O  O30  1  0.12118859  0.63484092  0.36042831  1
  O  O31  1  0.51436918  0.88092999  0.36025047  1
  O  O32  1  0.36383919  0.48729255  0.36025431  1
  O  O33  1  0.11967433  0.49050247  0.86138631  1
  O  O34  1  0.36661150  0.87778658  0.86152317  1
  O  O35  1  0.51235192  0.63177203  0.86224526  1
  O  O36  1  0.02147259  0.83147722  0.41103862  1
  O  O37  1  0.81191107  0.97958966  0.41025103  1
  O  O38  1  0.16676976  0.18970094  0.41096543  1
  O  O39  1  0.02272155  0.18954891  0.91144220  1
  O  O40  1  0.16455346  0.97461542  0.91051207  1
  O  O41  1  0.81314858  0.83503875  0.91047463  1
  O  O42  1  0.97564171  0.17586985  0.58982908  1
  O  O43  1  0.18975830  0.02300247  0.58989934  1
  O  O44  1  0.83127041  0.80986079  0.58984556  1
  O  O45  1  0.97396350  0.80764072  0.09009793  1
  O  O46  1  0.82481176  0.02364356  0.09072658  1
  O  O47  1  0.18943406  0.17036731  0.09007194  1
  O  O48  1  0.69256938  0.17202076  0.74464582  1
  O  O49  1  0.47981234  0.31551513  0.74641659  1
  O  O50  1  0.84027862  0.52712430  0.74449312  1
  O  O51  1  0.69237036  0.52885211  0.24538322  1
  O  O52  1  0.83307020  0.30632354  0.24400522  1
  O  O53  1  0.47475708  0.16418657  0.24375803  1
  O  O54  1  0.64375232  0.50180181  0.92176475  1
  O  O55  1  0.85471353  0.35513936  0.92279286  1
  O  O56  1  0.50077595  0.14175946  0.92295676  1
  O  O57  1  0.64764057  0.14766227  0.42259875  1
  O  O58  1  0.49873323  0.35587251  0.42111551  1
  O  O59  1  0.85562815  0.49811397  0.42286050  1
  O  O60  1  0.36399779  0.50644023  0.07774601  1
  O  O61  1  0.14552757  0.64301361  0.07806726  1
  O  O62  1  0.50376076  0.86400400  0.07781539  1
  O  O63  1  0.35568794  0.85209474  0.57734218  1
  O  O64  1  0.49386484  0.63563315  0.57782029  1
  O  O65  1  0.13586252  0.49688176  0.57777936  1
  O  O66  1  0.31267083  0.84223136  0.25542254  1
  O  O67  1  0.53046577  0.68927466  0.25543505  1
  O  O68  1  0.15639146  0.46879196  0.25491532  1
  O  O69  1  0.30689416  0.47715088  0.75595974  1
  O  O70  1  0.16093152  0.69033408  0.75609098  1
  O  O71  1  0.52091527  0.83650665  0.75557146  1
loop_
_geom_bond_atom_site_label_1
_geom_bond_atom_site_label_2
_geom_bond_distance
_geom_bond_site_symmetry_2
Na0 O44 2.496091 1_455
Na0 O43 2.498216 1_565
Na0 O42 2.594913 1_465
Na0 O36 2.615164 1_555
Na0 O38 2.650839 1_565
Na0 O37 2.668050 1_455
Na1 O45 2.538086 1_455
Na1 O47 2.544186 1_565
Na1 O40 2.577741 1_554
Na1 O39 2.610659 1_564
Na1 O41 2.621343 1_454
Na1 O46 2.633197 1_465
Na2 O49 2.489726 1_555
Na2 O48 2.501862 1_555
Na2 O56 2.581525 1_555
Na2 O50 2.584680 1_555
Na2 O54 2.605169 1_555
Na2 O55 2.609424 1_555
Na3 O58 2.466129 1_555
Na3 O57 2.474416 1_555
Na3 O59 2.490566 1_555
Na3 O51 2.652457 1_555
Na3 O52 2.660640 1_555
Na3 O53 2.676889 1_555
Na4 O68 2.534573 1_555
Na4 O66 2.577573 1_555
Na4 O61 2.578440 1_555
Na4 O67 2.578946 1_555
Na4 O60 2.583068 1_555
Na4 O62 2.653896 1_555
Na5 O64 2.483459 1_555
Na5 O63 2.520022 1_555
Na5 O71 2.569194 1_555
Na5 O69 2.593161 1_555
Na5 O65 2.604355 1_555
Na5 O70 2.673637 1_555
Mg0 O6 2.014993 1_545
Mg0 O43 2.023973 1_655
Mg0 O44 2.029028 1_545
Mg0 O7 2.035112 1_655
Mg0 O42 2.081331 1_555
Mg0 O8 2.105692 1_645
Mg1 O47 2.000371 1_565
Mg1 O45 2.006385 1_455
Mg1 O11 2.033416 1_555
Mg1 O9 2.084346 1_455
Mg1 O10 2.085263 1_565
Mg1 O46 2.116228 1_465
Mg2 O32 1.951863 1_555
Mg2 O30 1.957759 1_555
Mg2 O31 1.970668 1_555
Mg2 O66 2.187829 1_555
Mg2 O67 2.191276 1_555
Mg2 O68 2.219278 1_555
O0 S0 1.505615 1_545
O0 Sn0 2.128911 1_555
O1 S1 1.504010 1_555
O1 Sn0 2.129753 1_665
O2 S2 1.505822 1_655
O2 Sn0 2.137817 1_655
O3 P0 1.568290 1_555
O3 Sn1 2.006652 1_555
O4 S3 1.504771 1_555
O4 Sn1 2.122326 1_665
O5 P1 1.568170 1_555
O5 Sn1 2.018187 1_655
O6 P1 1.499240 1_565
O7 P0 1.499274 1_555
O8 S3 1.447731 1_455
O9 S1 1.459635 1_555
O10 S2 1.459953 1_555
O11 S0 1.456673 1_555
O12 S4 1.505332 1_555
O12 Sn2 2.122723 1_555
O13 P2 1.563995 1_555
O13 Sn2 1.988653 1_555
O14 P3 1.567905 1_555
O14 Sn2 2.004874 1_555
O15 P4 1.567361 1_555
O15 Sn3 1.997950 1_555
O16 S5 1.504102 1_555
O16 Sn3 2.108354 1_555
O17 P5 1.564520 1_555
O17 Sn3 1.999039 1_555
O18 P5 1.549852 1_555
O18 Sn4 2.010832 1_554
O19 P4 1.547739 1_555
O19 Sn4 2.018076 1_554
O20 S5 1.487849 1_555
O20 Sn4 2.130737 1_554
O21 P2 1.546211 1_555
O21 Sn5 2.010489 1_555
O22 P3 1.549996 1_555
O22 Sn5 2.008451 1_555
O23 S4 1.487808 1_555
O23 Sn5 2.125351 1_555
O24 P6 1.548428 1_555
O24 Sn6 2.042796 1_556
O25 P7 1.543526 1_555
O25 Sn6 2.005976 1_556
O26 P8 1.549833 1_555
O26 Sn6 2.031245 1_556
O27 P9 1.549142 1_555
O27 Sn7 2.011874 1_555
O28 P10 1.555586 1_555
O28 Sn7 2.039769 1_555
O29 P11 1.553812 1_555
O29 Sn7 2.041757 1_555
O30 P11 1.504810 1_555
O31 P9 1.504108 1_555
O32 P10 1.503226 1_555
O33 P7 1.536364 1_555
O33 Sn8 2.060750 1_555
O34 P8 1.536965 1_555
O34 Sn8 2.044975 1_555
O35 P6 1.531471 1_555
O35 Sn8 2.018113 1_555
O36 P11 1.573402 1_555
O36 Sn0 2.014342 1_565
O37 P9 1.568140 1_555
O37 Sn0 2.000280 1_665
O38 P10 1.569984 1_555
O38 Sn0 2.010168 1_555
O39 P7 1.542678 1_555
O39 Sn1 2.056282 1_555
O40 P8 1.546349 1_555
O40 Sn1 2.094594 1_565
O41 P6 1.543311 1_555
O41 Sn1 2.078779 1_665
O42 S4 1.451776 1_555
O43 P2 1.506662 1_555
O44 P3 1.508349 1_555
O45 P4 1.508005 1_555
O46 S5 1.452289 1_555
O47 P5 1.507655 1_555
O48 P1 1.573083 1_555
O48 Sn2 2.062504 1_555
O49 P0 1.570622 1_555
O49 Sn2 2.045500 1_555
O50 S3 1.496614 1_555
O50 Sn2 2.202360 1_555
O51 S1 1.540662 1_555
O51 Sn3 2.087523 1_555
O52 S2 1.542503 1_655
O52 Sn3 2.109277 1_555
O53 S0 1.538851 1_545
O53 Sn3 2.109933 1_555
O54 P6 1.548024 1_555
O54 Sn4 2.025382 1_555
O55 P7 1.549729 1_655
O55 Sn4 2.047665 1_555
O56 P8 1.553815 1_545
O56 Sn4 2.057257 1_555
O57 P9 1.555940 1_545
O57 Sn5 2.056515 1_555
O58 P10 1.555476 1_555
O58 Sn5 2.034922 1_555
O59 P11 1.557259 1_655
O59 Sn5 2.048306 1_555
O60 P5 1.565663 1_555
O60 Sn6 2.047471 1_555
O61 P4 1.566280 1_455
O61 Sn6 2.045061 1_555
O62 S5 1.497729 1_565
O62 Sn6 2.160948 1_555
O63 P2 1.565634 1_565
O63 Sn7 2.049410 1_555
O64 P3 1.567698 1_555
O64 Sn7 2.065391 1_555
O65 S4 1.497104 1_455
O65 Sn7 2.169997 1_555
O66 S0 1.459377 1_555
O67 S1 1.459336 1_555
O68 S2 1.459969 1_555
O69 P0 1.567415 1_555
O69 Sn8 2.028504 1_555
O70 S3 1.501164 1_455
O70 Sn8 2.124715 1_555
O71 P1 1.570129 1_565
O71 Sn8 2.029474 1_555
