# generated using pymatgen
data_NaTaTiSi(PO6)2
_symmetry_space_group_name_H-M   'P 1'
_cell_length_a   8.73469023
_cell_length_b   8.72225251
_cell_length_c   22.68612839
_cell_angle_alpha   90.24106323
_cell_angle_beta   90.00000000
_cell_angle_gamma   120.04718216
_symmetry_Int_Tables_number   1
_chemical_formula_structural   NaTaTiSi(PO6)2
_chemical_formula_sum   'Na6 Ta6 Ti6 Si6 P12 O72'
_cell_volume   1496.08191565
_cell_formula_units_Z   6
loop_
 _symmetry_equiv_pos_site_id
 _symmetry_equiv_pos_as_xyz
  1  'x, y, z'
loop_
 _atom_site_type_symbol
 _atom_site_label
 _atom_site_symmetry_multiplicity
 _atom_site_fract_x
 _atom_site_fract_y
 _atom_site_fract_z
 _atom_site_occupancy
  Na  Na0  1  0.00052371  0.00160241  0.49740656  1
  Na  Na1  1  0.00107869  0.00160241  0.99740656  1
  Na  Na2  1  0.66726880  0.33388170  0.83087468  1
  Na  Na3  1  0.66661389  0.33388170  0.33087468  1
  Na  Na4  1  0.33464748  0.66788673  0.16413489  1
  Na  Na5  1  0.33323825  0.66788673  0.66413489  1
  Ta  Ta0  1  0.00237663  -0.00002005  0.64530828  1
  Ta  Ta1  1  0.99760332  -0.00002005  0.14530828  1
  Ta  Ta2  1  0.66542752  0.33110164  0.97867393  1
  Ta  Ta3  1  0.66567512  0.33110164  0.47867393  1
  Ta  Ta4  1  0.33666824  0.66470710  0.31198682  1
  Ta  Ta5  1  0.32803786  0.66470710  0.81198682  1
  Ti  Ti0  1  0.99933559  0.99796848  0.35344718  1
  Ti  Ti1  1  0.99863289  0.99796848  0.85344718  1
  Ti  Ti2  1  0.67898507  0.34013081  0.68689819  1
  Ti  Ti3  1  0.66114674  0.34013081  0.18689819  1
  Ti  Ti4  1  0.32944471  0.65477111  0.02017364  1
  Ti  Ti5  1  0.32532540  0.65477111  0.52017364  1
  Si  Si0  1  0.71501814  0.71092489  0.25070848  1
  Si  Si1  1  0.99590676  0.71092489  0.75070848  1
  Si  Si2  1  0.95753143  0.33637567  0.58339219  1
  Si  Si3  1  0.37884524  0.33637567  0.08339219  1
  Si  Si4  1  0.04490668  0.37296221  0.91697645  1
  Si  Si5  1  0.32805453  0.37296221  0.41697645  1
  P  P0  1  0.28796562  0.00281898  0.25062023  1
  P  P1  1  0.99411866  0.28464068  0.25086635  1
  P  P2  1  0.29052203  0.28464068  0.75086635  1
  P  P3  1  0.71485336  0.00281898  0.75062023  1
  P  P4  1  0.38281662  0.04472956  0.58433094  1
  P  P5  1  0.66283603  0.61860631  0.58408711  1
  P  P6  1  0.95577128  0.61860631  0.08408711  1
  P  P7  1  0.66191395  0.04472956  0.08433094  1
  P  P8  1  0.62202238  0.67003286  0.91727242  1
  P  P9  1  0.32918132  0.95046634  0.91794848  1
  P  P10  1  0.62128402  0.95046634  0.41794848  1
  P  P11  1  0.04800949  0.67003286  0.41727242  1
  O  O0  1  0.20295884  0.03178188  0.30542392  1
  O  O1  1  0.83661635  0.80683163  0.30821903  1
  O  O2  1  0.97210711  0.17209196  0.30527259  1
  O  O3  1  0.19998485  0.17209196  0.80527259  1
  O  O4  1  0.97021529  0.80683163  0.80821903  1
  O  O5  1  0.82882304  0.03178188  0.80542392  1
  O  O6  1  0.79990155  0.97093506  0.69497111  1
  O  O7  1  0.17080779  0.20316988  0.69509443  1
  O  O8  1  0.03083177  0.83396419  0.69255769  1
  O  O9  1  0.80313242  0.83396419  0.19255769  1
  O  O10  1  0.03236209  0.20316988  0.19509443  1
  O  O11  1  0.17103351  0.97093506  0.19497111  1
  O  O12  1  0.86125410  0.36419222  0.64116403  1
  O  O13  1  0.49468309  0.13399841  0.63904681  1
  O  O14  1  0.63530002  0.50494143  0.63883432  1
  O  O15  1  0.86964242  0.50494143  0.13883432  1
  O  O16  1  0.63931632  0.13399841  0.13904681  1
  O  O17  1  0.50293912  0.36419222  0.14116403  1
  O  O18  1  0.46990777  0.30241395  0.02576934  1
  O  O19  1  0.83815749  0.53461153  0.02846110  1
  O  O20  1  0.69827403  0.16287575  0.02834662  1
  O  O21  1  0.46460273  0.16287575  0.52834662  1
  O  O22  1  0.69645504  0.53461153  0.52846110  1
  O  O23  1  0.83250718  0.30241395  0.52576934  1
  O  O24  1  0.53560817  0.69745501  0.97218241  1
  O  O25  1  0.16963019  0.47229448  0.97441303  1
  O  O26  1  0.30478171  0.83917624  0.97221762  1
  O  O27  1  0.53439353  0.83917624  0.47221762  1
  O  O28  1  0.30266329  0.47229448  0.47441303  1
  O  O29  1  0.16184584  0.69745501  0.47218241  1
  O  O30  1  0.13093902  0.63688395  0.36147408  1
  O  O31  1  0.50365280  0.86917860  0.36150037  1
  O  O32  1  0.36366139  0.50169866  0.35954295  1
  O  O33  1  0.13803627  0.50169866  0.85954295  1
  O  O34  1  0.36552480  0.86917860  0.86150037  1
  O  O35  1  0.50594393  0.63688395  0.86147408  1
  O  O36  1  0.02540131  0.83188600  0.40972160  1
  O  O37  1  0.80575791  0.97475768  0.40897088  1
  O  O38  1  0.15597186  0.18006864  0.40805269  1
  O  O39  1  0.02409678  0.18006864  0.90805269  1
  O  O40  1  0.16899977  0.97475768  0.90897088  1
  O  O41  1  0.80648469  0.83188600  0.90972160  1
  O  O42  1  0.97654455  0.16075548  0.59149234  1
  O  O43  1  0.19612611  0.02781339  0.59072497  1
  O  O44  1  0.83216177  0.80458191  0.59099332  1
  O  O45  1  0.97242014  0.80458191  0.09099332  1
  O  O46  1  0.83168728  0.02781339  0.09072497  1
  O  O47  1  0.18421093  0.16075548  0.09149234  1
  O  O48  1  0.68962903  0.16329593  0.74240600  1
  O  O49  1  0.47216305  0.30560000  0.74236509  1
  O  O50  1  0.82287204  0.51535211  0.74246841  1
  O  O51  1  0.69248106  0.51535211  0.24246841  1
  O  O52  1  0.83343795  0.30560000  0.24236509  1
  O  O53  1  0.47366790  0.16329593  0.24240600  1
  O  O54  1  0.63983588  0.50156309  0.92453299  1
  O  O55  1  0.85190804  0.35793234  0.92469264  1
  O  O56  1  0.49835095  0.13783454  0.92388344  1
  O  O57  1  0.63948459  0.13783454  0.42388344  1
  O  O58  1  0.50602530  0.35793234  0.42469264  1
  O  O59  1  0.86172821  0.50156309  0.42453299  1
  O  O60  1  0.36002677  0.51163434  0.07586818  1
  O  O61  1  0.14111887  0.64459747  0.07590349  1
  O  O62  1  0.50121051  0.86145059  0.07527826  1
  O  O63  1  0.36023908  0.86145059  0.57527826  1
  O  O64  1  0.50347760  0.64459747  0.57590349  1
  O  O65  1  0.15160657  0.51163434  0.57586818  1
  O  O66  1  0.30343469  0.83356225  0.25770668  1
  O  O67  1  0.51855643  0.69277034  0.25748788  1
  O  O68  1  0.16301439  0.47246162  0.25785284  1
  O  O69  1  0.30944623  0.47246162  0.75785284  1
  O  O70  1  0.17421292  0.69277034  0.75748788  1
  O  O71  1  0.53012656  0.83356225  0.75770668  1
loop_
_geom_bond_atom_site_label_1
_geom_bond_atom_site_label_2
_geom_bond_distance
_geom_bond_site_symmetry_2
Na0 O38 2.507141 1_555
Na0 O36 2.548122 1_545
Na0 O37 2.563437 1_445
Na0 O42 2.606333 1_455
Na0 O43 2.656676 1_555
Na0 O44 2.668958 1_445
Na1 O39 2.507141 1_555
Na1 O41 2.548122 1_445
Na1 O40 2.563437 1_545
Na1 O47 2.606333 1_556
Na1 O46 2.656676 1_456
Na1 O45 2.668958 1_446
Na2 O50 2.499479 1_555
Na2 O48 2.558506 1_555
Na2 O49 2.563547 1_555
Na2 O55 2.613887 1_555
Na2 O54 2.652516 1_555
Na2 O56 2.656478 1_555
Na3 O51 2.499479 1_555
Na3 O53 2.558506 1_555
Na3 O52 2.563547 1_555
Na3 O58 2.613887 1_555
Na3 O59 2.652516 1_555
Na3 O57 2.656478 1_555
Na4 O60 2.489152 1_555
Na4 O61 2.560856 1_555
Na4 O62 2.568933 1_555
Na4 O67 2.599947 1_555
Na4 O66 2.652822 1_555
Na4 O68 2.672960 1_555
Na5 O65 2.489152 1_555
Na5 O64 2.560856 1_555
Na5 O63 2.568933 1_555
Na5 O70 2.599947 1_555
Na5 O71 2.652822 1_555
Na5 O69 2.672960 1_555
O0 P0 1.531694 1_555
O0 Ti0 1.978554 1_445
O1 Si0 1.622084 1_555
O1 Ti0 1.861441 1_555
O2 P1 1.531423 1_555
O2 Ti0 1.983248 1_545
O3 P2 1.531423 1_555
O3 Ti1 1.983248 1_445
O4 Si1 1.622084 1_555
O4 Ti1 1.861441 1_555
O5 P3 1.531694 1_555
O5 Ti1 1.978554 1_545
O6 P3 1.557864 1_565
O6 Ta0 2.003760 1_665
O7 P2 1.564466 1_555
O7 Ta0 1.988244 1_555
O8 Si1 1.633760 1_455
O8 Ta0 1.918601 1_565
O9 Si0 1.633760 1_555
O9 Ta1 1.918601 1_565
O10 P1 1.564466 1_455
O10 Ta1 1.988244 1_455
O11 P0 1.557864 1_565
O11 Ta1 2.003760 1_465
O12 Si2 1.638731 1_555
O12 Ti2 1.822748 1_555
O13 P4 1.527022 1_555
O13 Ti2 2.021792 1_555
O14 P5 1.534564 1_555
O14 Ti2 1.990852 1_555
O15 P6 1.534564 1_555
O15 Ti3 1.990852 1_555
O16 P7 1.527022 1_555
O16 Ti3 2.021792 1_555
O17 Si3 1.638731 1_555
O17 Ti3 1.822748 1_555
O18 Si3 1.631558 1_555
O18 Ta2 1.922244 1_554
O19 P6 1.556638 1_555
O19 Ta2 2.001018 1_554
O20 P7 1.568163 1_555
O20 Ta2 1.985110 1_554
O21 P4 1.568163 1_555
O21 Ta3 1.985110 1_555
O22 P5 1.556638 1_555
O22 Ta3 2.001018 1_555
O23 Si2 1.631558 1_555
O23 Ta3 1.922244 1_555
O24 P8 1.535245 1_555
O24 Ti4 1.974529 1_556
O25 Si4 1.637258 1_555
O25 Ti4 1.822281 1_556
O26 P9 1.518654 1_555
O26 Ti4 2.044203 1_556
O27 P10 1.518654 1_555
O27 Ti5 2.044203 1_555
O28 Si5 1.637258 1_555
O28 Ti5 1.822281 1_555
O29 P11 1.535244 1_555
O29 Ti5 1.974529 1_555
O30 P11 1.554776 1_555
O30 Ta4 2.028302 1_555
O31 P10 1.568801 1_555
O31 Ta4 1.986956 1_555
O32 Si5 1.648580 1_555
O32 Ta4 1.894642 1_555
O33 Si4 1.648580 1_555
O33 Ta5 1.894642 1_555
O34 P9 1.568801 1_555
O34 Ta5 1.986956 1_555
O35 P8 1.554776 1_555
O35 Ta5 2.028302 1_555
O36 P11 1.530529 1_555
O36 Ti0 2.031255 1_455
O37 P10 1.530101 1_555
O37 Ti0 2.036151 1_555
O38 Si5 1.611082 1_555
O38 Ti0 1.933004 1_445
O39 Si4 1.611085 1_555
O39 Ti1 1.933004 1_445
O40 P9 1.530092 1_555
O40 Ti1 2.036151 1_455
O41 P8 1.530534 1_555
O41 Ti1 2.031255 1_555
O42 Si2 1.632451 1_555
O42 Ta0 1.959396 1_655
O43 P4 1.568813 1_555
O43 Ta0 2.011815 1_555
O44 P5 1.561604 1_555
O44 Ta0 2.019473 1_665
O45 P6 1.561608 1_555
O45 Ta1 2.019473 1_565
O46 P7 1.568805 1_555
O46 Ta1 2.011815 1_555
O47 Si3 1.632456 1_555
O47 Ta1 1.959396 1_455
O48 P3 1.534118 1_555
O48 Ti2 2.033055 1_555
O49 P2 1.515811 1_555
O49 Ti2 2.096653 1_555
O50 Si1 1.626221 1_555
O50 Ti2 1.888088 1_555
O51 Si0 1.626225 1_555
O51 Ti3 1.888088 1_555
O52 P1 1.515802 1_555
O52 Ti3 2.096653 1_555
O53 P0 1.534123 1_555
O53 Ti3 2.033055 1_555
O54 P8 1.562556 1_555
O54 Ta2 2.029126 1_555
O55 Si4 1.633577 1_655
O55 Ta2 1.956606 1_555
O56 P9 1.565963 1_545
O56 Ta2 2.008779 1_555
O57 P10 1.565955 1_545
O57 Ta3 2.008779 1_555
O58 Si5 1.633595 1_555
O58 Ta3 1.956606 1_555
O59 P11 1.562547 1_655
O59 Ta3 2.029126 1_555
O60 Si3 1.626883 1_555
O60 Ti4 1.890426 1_555
O61 P6 1.529603 1_455
O61 Ti4 2.041323 1_555
O62 P7 1.522550 1_565
O62 Ti4 2.082316 1_555
O63 P4 1.522543 1_565
O63 Ti5 2.082316 1_555
O64 P5 1.529620 1_555
O64 Ti5 2.041323 1_555
O65 Si2 1.626873 1_455
O65 Ti5 1.890426 1_555
O66 P0 1.557344 1_565
O66 Ta4 2.052598 1_555
O67 Si0 1.649721 1_555
O67 Ta4 1.930212 1_555
O68 P1 1.569343 1_455
O68 Ta4 2.014017 1_555
O69 P2 1.569347 1_555
O69 Ta5 2.014017 1_555
O70 Si1 1.649713 1_455
O70 Ta5 1.930212 1_555
O71 P3 1.557348 1_565
O71 Ta5 2.052598 1_555
