# generated using pymatgen
data_Ni2P3O11
_symmetry_space_group_name_H-M   'P 1'
_cell_length_a   7.07715031
_cell_length_b   7.07715031
_cell_length_c   8.64638737
_cell_angle_alpha   70.52147999
_cell_angle_beta   70.52147999
_cell_angle_gamma   70.88277639
_symmetry_Int_Tables_number   1
_chemical_formula_structural   Ni2P3O11
_chemical_formula_sum   'Ni4 P6 O22'
_cell_volume   373.33755170
_cell_formula_units_Z   2
loop_
 _symmetry_equiv_pos_site_id
 _symmetry_equiv_pos_as_xyz
  1  'x, y, z'
loop_
 _atom_site_type_symbol
 _atom_site_label
 _atom_site_symmetry_multiplicity
 _atom_site_fract_x
 _atom_site_fract_y
 _atom_site_fract_z
 _atom_site_occupancy
  Ni  Ni0  1  0.88397400  0.36671400  0.96135100  1
  Ni  Ni1  1  0.63328600  0.11602600  0.53864900  1
  Ni  Ni2  1  0.36671400  0.88397400  0.46135100  1
  Ni  Ni3  1  0.11602600  0.63328600  0.03864900  1
  P  P0  1  0.45807300  0.32387300  0.20758700  1
  P  P1  1  0.32387300  0.45807300  0.70758700  1
  P  P2  1  0.67612700  0.54192700  0.29241300  1
  P  P3  1  0.54192700  0.67612700  0.79241300  1
  P  P4  1  0.04392600  0.95607400  0.25000000  1
  P  P5  1  0.95607400  0.04392600  0.75000000  1
  O  O0  1  0.36390800  0.72459600  0.94523000  1
  O  O1  1  0.95523100  0.25417000  0.77251900  1
  O  O2  1  0.75473900  0.61983000  0.82427000  1
  O  O3  1  0.03261800  0.12705400  0.08533900  1
  O  O4  1  0.04476900  0.74583000  0.22748100  1
  O  O5  1  0.24526100  0.38017000  0.17573000  1
  O  O6  1  0.96738200  0.87294600  0.91466100  1
  O  O7  1  0.25417000  0.95523100  0.27251900  1
  O  O8  1  0.14566000  0.47184400  0.87246100  1
  O  O9  1  0.12705400  0.03261800  0.58533900  1
  O  O10  1  0.47184400  0.14566000  0.37246100  1
  O  O11  1  0.27540400  0.63609200  0.55477000  1
  O  O12  1  0.38017000  0.24526100  0.67573000  1
  O  O13  1  0.85434000  0.52815600  0.12753900  1
  O  O14  1  0.48375200  0.51624800  0.25000000  1
  O  O15  1  0.51624800  0.48375200  0.75000000  1
  O  O16  1  0.63609200  0.27540400  0.05477000  1
  O  O17  1  0.61983000  0.75473900  0.32427000  1
  O  O18  1  0.72459600  0.36390800  0.44523000  1
  O  O19  1  0.52815600  0.85434000  0.62753900  1
  O  O20  1  0.87294600  0.96738200  0.41466100  1
  O  O21  1  0.74583000  0.04476900  0.72748100  1
loop_
_geom_bond_atom_site_label_1
_geom_bond_atom_site_label_2
_geom_bond_distance
_geom_bond_site_symmetry_2
Ni0 O3 1.871764 1_656
Ni0 O16 1.896581 1_556
Ni0 O1 1.899878 1_555
Ni0 O2 1.919398 1_555
Ni0 O8 2.036187 1_655
Ni0 O13 2.037432 1_556
Ni1 O20 1.871764 1_545
Ni1 O18 1.896581 1_555
Ni1 O21 1.899878 1_555
Ni1 O12 1.919398 1_555
Ni1 O19 2.036187 1_545
Ni1 O10 2.037432 1_555
Ni2 O9 1.871764 1_565
Ni2 O11 1.896581 1_555
Ni2 O7 1.899878 1_555
Ni2 O17 1.919398 1_555
Ni2 O10 2.036187 1_565
Ni2 O19 2.037432 1_555
Ni3 O6 1.871764 1_454
Ni3 O0 1.896581 1_554
Ni3 O4 1.899878 1_555
Ni3 O5 1.919398 1_555
Ni3 O13 2.036187 1_455
Ni3 O8 2.037432 1_554
O0 P3 1.536169 1_555
O1 P5 1.561569 1_555
O2 P3 1.520983 1_555
O3 P4 1.536633 1_545
O4 P4 1.561569 1_555
O5 P0 1.520983 1_555
O6 P5 1.536633 1_565
O7 P4 1.561569 1_555
O8 P1 1.563815 1_555
O9 P5 1.536633 1_455
O10 P0 1.563815 1_555
O11 P1 1.536169 1_555
O12 P1 1.520983 1_555
O13 P2 1.563815 1_555
O14 P0 1.600182 1_555
O14 P2 1.600182 1_555
O15 P3 1.600182 1_555
O15 P1 1.600182 1_555
O16 P0 1.536169 1_555
O17 P2 1.520983 1_555
O18 P2 1.536169 1_555
O19 P3 1.563815 1_555
O20 P4 1.536633 1_655
O21 P5 1.561569 1_555
