# generated using pymatgen
data_Na24Ca10Ta2Si9(SO8)9
_symmetry_space_group_name_H-M   'P 1'
_cell_length_a   9.52361387
_cell_length_b   9.50722680
_cell_length_c   22.88028317
_cell_angle_alpha   89.72433421
_cell_angle_beta   90.07230484
_cell_angle_gamma   120.05039715
_symmetry_Int_Tables_number   1
_chemical_formula_structural   Na24Ca10Ta2Si9(SO8)9
_chemical_formula_sum   'Na24 Ca10 Ta2 Si9 S9 O72'
_cell_volume   1793.17005661
_cell_formula_units_Z   1
loop_
 _symmetry_equiv_pos_site_id
 _symmetry_equiv_pos_as_xyz
  1  'x, y, z'
loop_
 _atom_site_type_symbol
 _atom_site_label
 _atom_site_symmetry_multiplicity
 _atom_site_fract_x
 _atom_site_fract_y
 _atom_site_fract_z
 _atom_site_occupancy
  Na  Na0  1  0.64377203  0.00098969  0.24689248  1
  Na  Na1  1  0.37535102  0.34391720  0.25806113  1
  Na  Na2  1  0.99401438  0.65917819  0.25085342  1
  Na  Na3  1  0.65044455  0.64056325  0.75472353  1
  Na  Na4  1  0.97860431  0.33673368  0.75608338  1
  Na  Na5  1  0.36245031  0.02547116  0.75724254  1
  Na  Na6  1  0.28987825  0.32974315  0.59202708  1
  Na  Na7  1  0.03242235  0.70727503  0.60068312  1
  Na  Na8  1  0.67095331  0.96123968  0.59323573  1
  Na  Na9  1  0.29409100  0.96018419  0.07492384  1
  Na  Na10  1  0.67040240  0.70638390  0.08696340  1
  Na  Na11  1  0.03524330  0.33153313  0.06779795  1
  Na  Na12  1  0.98378016  0.67651138  0.89953594  1
  Na  Na13  1  0.71761136  0.05652590  0.89618439  1
  Na  Na14  1  0.30832040  0.26993743  0.90005324  1
  Na  Na15  1  0.97018679  0.28081595  0.42008582  1
  Na  Na16  1  0.33943272  0.05901840  0.40543047  1
  Na  Na17  1  0.69266583  0.67750083  0.41068056  1
  Na  Na18  1  0.00029816  0.01832718  0.49356737  1
  Na  Na19  1  0.01397305  0.01235315  0.98159400  1
  Na  Na20  1  0.66806034  0.32301552  0.82442357  1
  Na  Na21  1  0.63899811  0.32112628  0.33278183  1
  Na  Na22  1  0.33869440  0.68006572  0.16931065  1
  Na  Na23  1  0.33984404  0.66471743  0.67957514  1
  Ca  Ca0  1  0.00244620  0.99915976  0.34666856  1
  Ca  Ca1  1  0.00231076  0.00161208  0.84347756  1
  Ca  Ca2  1  0.99985038  0.00603695  0.66768346  1
  Ca  Ca3  1  0.00051424  0.98785453  0.15955261  1
  Ca  Ca4  1  0.66440731  0.33100600  0.68586030  1
  Ca  Ca5  1  0.66023171  0.32920302  0.18417723  1
  Ca  Ca6  1  0.66703692  0.32503388  0.97382125  1
  Ca  Ca7  1  0.65715250  0.32932967  0.47722157  1
  Ca  Ca8  1  0.32747992  0.66747943  0.00935053  1
  Ca  Ca9  1  0.34194690  0.66708657  0.51457521  1
  Ta  Ta0  1  0.35375119  0.67655143  0.31880916  1
  Ta  Ta1  1  0.31950412  0.66735559  0.81667151  1
  Si  Si0  1  0.30804250  0.98848612  0.25151792  1
  Si  Si1  1  0.68774643  0.69017619  0.25146065  1
  Si  Si2  1  0.30984786  0.32122509  0.75044542  1
  Si  Si3  1  0.00124857  0.69037819  0.75041305  1
  Si  Si4  1  0.67995721  0.98806329  0.75105127  1
  Si  Si5  1  0.03574681  0.36774672  0.91950920  1
  Si  Si6  1  0.33241803  0.96512966  0.92013651  1
  Si  Si7  1  0.63911691  0.97322272  0.41959342  1
  Si  Si8  1  0.32908587  0.36806249  0.41865038  1
  S  S0  1  0.01206297  0.31676146  0.25020862  1
  S  S1  1  0.96715622  0.33192760  0.58012649  1
  S  S2  1  0.35658135  0.02932861  0.58099415  1
  S  S3  1  0.67338118  0.64011519  0.58074143  1
  S  S4  1  0.96748145  0.63426696  0.08523307  1
  S  S5  1  0.67290761  0.02996480  0.08511794  1
  S  S6  1  0.36272124  0.33573677  0.08525629  1
  S  S7  1  0.62799196  0.66760884  0.91845008  1
  S  S8  1  0.04430416  0.66508286  0.41519510  1
  O  O0  1  0.22971400  0.02963423  0.30687886  1
  O  O1  1  0.79901728  0.77663669  0.30775598  1
  O  O2  1  0.98587492  0.21536615  0.30271087  1
  O  O3  1  0.22469193  0.19505846  0.80391179  1
  O  O4  1  0.96539321  0.77088942  0.80589041  1
  O  O5  1  0.80219178  0.02482729  0.80514075  1
  O  O6  1  0.74370299  0.94373974  0.69091993  1
  O  O7  1  0.19997272  0.26068354  0.69050321  1
  O  O8  1  0.04759373  0.80317269  0.69155109  1
  O  O9  1  0.75048082  0.80207032  0.19229940  1
  O  O10  1  0.03683251  0.24093994  0.19788023  1
  O  O11  1  0.19711242  0.94665556  0.19249440  1
  O  O12  1  0.87748226  0.33624418  0.63169510  1
  O  O13  1  0.45485525  0.11325967  0.63272388  1
  O  O14  1  0.66637414  0.54367421  0.63231721  1
  O  O15  1  0.88720930  0.54440852  0.13984707  1
  O  O16  1  0.65992864  0.10803210  0.13939419  1
  O  O17  1  0.45288671  0.34266584  0.13931360  1
  O  O18  1  0.44718315  0.32286723  0.03321289  1
  O  O19  1  0.87032039  0.54629733  0.03373717  1
  O  O20  1  0.68024801  0.12733456  0.03357704  1
  O  O21  1  0.44023516  0.12009888  0.52679947  1
  O  O22  1  0.67986106  0.55825319  0.52623852  1
  O  O23  1  0.87832622  0.32532153  0.52536663  1
  O  O24  1  0.55854147  0.68136628  0.97473684  1
  O  O25  1  0.12736528  0.43929348  0.98134153  1
  O  O26  1  0.32677231  0.88486722  0.98361378  1
  O  O27  1  0.55317869  0.87325718  0.47779027  1
  O  O28  1  0.30592091  0.44201499  0.47846340  1
  O  O29  1  0.13290428  0.68014268  0.46925295  1
  O  O30  1  0.13846100  0.65685803  0.36291547  1
  O  O31  1  0.51116612  0.84790202  0.36241849  1
  O  O32  1  0.32743857  0.49274306  0.36284898  1
  O  O33  1  0.16312123  0.49477430  0.86699732  1
  O  O34  1  0.33488867  0.83821006  0.86791864  1
  O  O35  1  0.52231957  0.65875437  0.86826762  1
  O  O36  1  0.02250837  0.80806104  0.40995380  1
  O  O37  1  0.81647609  0.98938657  0.41308715  1
  O  O38  1  0.17525625  0.18523359  0.41179853  1
  O  O39  1  0.00546055  0.18431850  0.91332804  1
  O  O40  1  0.16782045  0.97615246  0.91412394  1
  O  O41  1  0.79223545  0.81098567  0.91317910  1
  O  O42  1  0.98481749  0.18354854  0.58117510  1
  O  O43  1  0.19370321  0.01783761  0.58283439  1
  O  O44  1  0.82152923  0.80572820  0.58183492  1
  O  O45  1  0.98260755  0.79949402  0.08551898  1
  O  O46  1  0.82465855  0.01888739  0.08579078  1
  O  O47  1  0.19463237  0.19056074  0.08726794  1
  O  O48  1  0.64198838  0.13664143  0.74590343  1
  O  O49  1  0.49575257  0.35830914  0.74474351  1
  O  O50  1  0.86096385  0.50153015  0.74465372  1
  O  O51  1  0.65535309  0.50498911  0.24719426  1
  O  O52  1  0.86999399  0.34095438  0.24373037  1
  O  O53  1  0.49760165  0.13365989  0.24649054  1
  O  O54  1  0.63686539  0.51571978  0.91733535  1
  O  O55  1  0.86800146  0.37514641  0.91146474  1
  O  O56  1  0.49847637  0.14088700  0.90954714  1
  O  O57  1  0.64204745  0.14475555  0.40915060  1
  O  O58  1  0.50403156  0.37570334  0.40956588  1
  O  O59  1  0.88355206  0.51246287  0.41391896  1
  O  O60  1  0.35218266  0.48833991  0.08436951  1
  O  O61  1  0.13369334  0.65290246  0.08447882  1
  O  O62  1  0.52791525  0.86124541  0.08380274  1
  O  O63  1  0.33274678  0.86049439  0.58077423  1
  O  O64  1  0.52392537  0.65611382  0.58233147  1
  O  O65  1  0.13145459  0.48268629  0.58132716  1
  O  O66  1  0.31026540  0.81100978  0.26321849  1
  O  O67  1  0.49757256  0.66887081  0.26170042  1
  O  O68  1  0.16109618  0.48251432  0.25661249  1
  O  O69  1  0.32520118  0.50208127  0.76537627  1
  O  O70  1  0.17329541  0.67996084  0.76286318  1
  O  O71  1  0.50082814  0.82039252  0.76614854  1
loop_
_geom_bond_atom_site_label_1
_geom_bond_atom_site_label_2
_geom_bond_distance
_geom_bond_site_symmetry_2
Na0 O53 2.299407 1_555
Na0 O16 2.632294 1_555
Na0 O67 2.758847 1_545
Na0 O66 2.782264 1_545
Na0 O52 2.849139 1_555
Na0 O9 2.849620 1_545
Na0 O31 2.971633 1_545
Na1 O51 2.329382 1_555
Na1 O67 2.703139 1_555
Na1 O53 2.785356 1_555
Na1 O0 2.814332 1_555
Na1 O17 2.818074 1_555
Na1 O68 2.931402 1_555
Na1 O32 2.939489 1_555
Na2 O66 2.623459 1_655
Na2 O52 2.645795 1_555
Na2 O15 2.754029 1_555
Na2 O11 2.769653 1_655
Na2 O51 2.797080 1_555
Na2 O68 2.836257 1_655
Na2 O1 2.913398 1_555
Na2 O30 2.913419 1_655
Na3 O49 2.338622 1_555
Na3 O69 2.702177 1_555
Na3 O71 2.732525 1_555
Na3 O4 2.861028 1_555
Na3 O50 2.911733 1_555
Na3 O35 2.914052 1_555
Na3 O6 2.937159 1_555
Na3 O14 2.980143 1_555
Na4 O50 2.351948 1_555
Na4 O48 2.800868 1_555
Na4 O5 2.803398 1_555
Na4 O70 2.838062 1_655
Na4 O69 2.866467 1_655
Na5 O48 2.335131 1_555
Na5 O3 2.756732 1_555
Na5 O49 2.770477 1_555
Na5 O70 2.849910 1_545
Na5 O71 2.854574 1_545
Na6 O7 2.380871 1_555
Na6 O42 2.528128 1_455
Na6 O65 2.577488 1_555
Na6 O43 2.638527 1_555
Na6 O64 2.777274 1_555
Na6 O28 2.779421 1_555
Na7 O8 2.249501 1_555
Na7 O63 2.516786 1_555
Na7 O43 2.586841 1_565
Na7 O44 2.640603 1_455
Na7 O65 2.769809 1_555
Na8 O6 2.368772 1_555
Na8 O64 2.525091 1_555
Na8 O44 2.537412 1_555
Na8 O42 2.673437 1_565
Na8 O27 2.830021 1_555
Na8 O63 2.878152 1_555
Na9 O26 2.283333 1_554
Na9 O61 2.537930 1_555
Na9 O45 2.579139 1_455
Na9 O47 2.803306 1_565
Na9 O62 2.824853 1_555
Na9 O11 2.826638 1_555
Na10 O62 2.452348 1_555
Na10 O9 2.557241 1_555
Na10 O46 2.571768 1_565
Na10 O45 2.643721 1_555
Na10 O60 2.682185 1_555
Na10 O24 2.744112 1_554
Na11 O25 2.194782 1_554
Na11 O47 2.515759 1_555
Na11 O60 2.640623 1_555
Na11 O46 2.654573 1_455
Na11 O61 2.738811 1_555
Na12 O4 2.358934 1_555
Na12 O40 2.511144 1_655
Na12 O55 2.515665 1_555
Na12 O41 2.720418 1_555
Na12 O54 2.890933 1_555
Na13 O5 2.309197 1_555
Na13 O39 2.410647 1_655
Na13 O56 2.602399 1_555
Na13 O55 2.648275 1_555
Na13 O41 2.785296 1_545
Na14 O3 2.328688 1_555
Na14 O40 2.438192 1_545
Na14 O39 2.592793 1_555
Na14 O56 2.655908 1_555
Na14 O54 2.844297 1_555
Na15 O37 2.405584 1_545
Na15 O38 2.540863 1_655
Na15 O23 2.670735 1_555
Na15 O59 2.714302 1_555
Na15 O57 2.730292 1_555
Na15 O2 2.780650 1_555
Na16 O38 2.405646 1_555
Na16 O0 2.441758 1_555
Na16 O57 2.573871 1_555
Na16 O58 2.608959 1_555
Na16 O36 2.756689 1_545
Na16 O21 2.901857 1_555
Na17 O58 2.509741 1_555
Na17 O1 2.547260 1_555
Na17 O37 2.585609 1_555
Na17 O36 2.739262 1_655
Na17 O22 2.850336 1_555
Na17 O59 2.937275 1_555
Na18 O37 2.458779 1_445
Na18 O38 2.475042 1_555
Na18 O42 2.601942 1_455
Na18 O43 2.750144 1_555
Na18 O44 2.754206 1_445
Na18 O36 2.856957 1_545
Na19 O40 2.272485 1_545
Na19 O39 2.286271 1_555
Na19 O41 2.558595 1_445
Na20 O48 2.453120 1_555
Na20 O50 2.538237 1_555
Na20 O56 2.564111 1_555
Na20 O49 2.582088 1_555
Na20 O55 2.625338 1_555
Na20 O54 2.923732 1_555
Na21 O58 2.385442 1_555
Na21 O57 2.426135 1_555
Na21 O53 2.551760 1_555
Na21 O51 2.570956 1_555
Na21 O59 2.821039 1_555
Na21 O52 2.935803 1_555
Na22 O66 2.569930 1_555
Na22 O62 2.628657 1_555
Na22 O67 2.630670 1_555
Na22 O61 2.671340 1_555
Na22 O68 2.677524 1_555
Na22 O60 2.717602 1_555
Na23 O69 2.453516 1_555
Na23 O71 2.492528 1_555
Na23 O70 2.531577 1_555
Na23 O64 2.861082 1_555
Na23 O65 2.928022 1_555
Na23 O63 2.943535 1_555
Ca0 O1 2.220506 1_455
Ca0 O0 2.229761 1_565
Ca0 O38 2.272018 1_565
Ca0 O37 2.301193 1_455
Ca0 O2 2.359289 1_465
Ca0 O36 2.399092 1_555
Ca1 O3 2.185215 1_555
Ca1 O5 2.205813 1_455
Ca1 O4 2.218063 1_445
Ca1 O40 2.351138 1_545
Ca1 O39 2.355170 1_555
Ca1 O41 2.485847 1_445
Ca2 O8 2.256608 1_645
Ca2 O6 2.266623 1_545
Ca2 O7 2.270392 1_655
Ca2 O43 2.643746 1_655
Ca2 O42 2.644907 1_555
Ca2 O44 2.675352 1_545
Ca3 O11 2.226026 1_555
Ca3 O9 2.265131 1_455
Ca3 O45 2.414111 1_455
Ca3 O10 2.421614 1_565
Ca3 O46 2.494633 1_465
Ca3 O47 2.505179 1_565
Ca4 O49 2.211060 1_555
Ca4 O50 2.217487 1_555
Ca4 O48 2.220071 1_555
Ca4 O14 2.351061 1_555
Ca4 O12 2.358125 1_555
Ca4 O13 2.372103 1_555
Ca5 O51 2.230525 1_555
Ca5 O53 2.232503 1_555
Ca5 O17 2.283891 1_555
Ca5 O15 2.333179 1_555
Ca5 O16 2.342221 1_555
Ca5 O52 2.372971 1_555
Ca6 O56 2.238041 1_555
Ca6 O55 2.238911 1_555
Ca6 O54 2.353235 1_555
Ca6 O20 2.372682 1_556
Ca6 O19 2.448438 1_556
Ca6 O18 2.488926 1_556
Ca7 O57 2.301878 1_555
Ca7 O58 2.312748 1_555
Ca7 O21 2.319472 1_555
Ca7 O22 2.364929 1_555
Ca7 O23 2.392875 1_555
Ca7 O59 2.449900 1_555
Ca8 O25 2.149112 1_554
Ca8 O26 2.149537 1_554
Ca8 O24 2.280231 1_554
Ca8 O61 2.475808 1_555
Ca8 O60 2.504859 1_555
Ca8 O62 2.537602 1_555
Ca9 O27 2.153268 1_555
Ca9 O28 2.158748 1_555
Ca9 O29 2.301139 1_555
Ca9 O64 2.364446 1_555
Ca9 O63 2.423102 1_555
Ca9 O65 2.426302 1_555
O0 Si0 1.616601 1_545
O1 Si1 1.609991 1_555
O2 S0 1.477613 1_655
O3 Si2 1.614665 1_555
O4 Si3 1.608084 1_655
O5 Si4 1.613060 1_545
O6 Si4 1.644056 1_555
O7 Si2 1.645608 1_555
O8 Si3 1.634673 1_555
O9 Si1 1.634801 1_555
O10 S0 1.479222 1_555
O11 Si0 1.636711 1_555
O12 S1 1.470143 1_555
O13 S2 1.473736 1_555
O14 S3 1.471803 1_555
O15 S4 1.487875 1_555
O16 S5 1.486435 1_555
O17 S6 1.487597 1_555
O18 S6 1.477267 1_555
O19 S4 1.474996 1_555
O20 S5 1.475604 1_555
O21 S2 1.490180 1_555
O22 S3 1.490731 1_555
O23 S1 1.494761 1_555
O24 S7 1.484443 1_555
O25 Si5 1.623956 1_555
O26 Si6 1.625735 1_555
O27 Si7 1.599280 1_555
O28 Si8 1.606631 1_555
O29 S8 1.463004 1_555
O30 S8 1.521470 1_555
O30 Ta0 2.208235 1_555
O31 Si7 1.781201 1_555
O31 Ta0 1.860873 1_555
O32 Si8 1.743401 1_555
O32 Ta0 1.917561 1_555
O33 Si5 1.701787 1_555
O33 Ta1 1.942907 1_555
O34 Si6 1.710671 1_555
O34 Ta1 1.953048 1_555
O35 S7 1.500466 1_555
O35 Ta1 2.298409 1_555
O36 S8 1.478579 1_555
O37 Si7 1.624588 1_555
O38 Si8 1.625992 1_555
O39 Si5 1.625689 1_555
O40 Si6 1.628191 1_555
O41 S7 1.477429 1_555
O42 S1 1.502054 1_555
O43 S2 1.500098 1_555
O44 S3 1.498600 1_555
O45 S4 1.503938 1_555
O46 S5 1.500782 1_555
O47 S6 1.502154 1_555
O48 Si4 1.627828 1_545
O49 Si2 1.628163 1_555
O50 Si3 1.620281 1_655
O51 Si1 1.631584 1_555
O52 S0 1.488742 1_655
O53 Si0 1.637312 1_545
O54 S7 1.488500 1_555
O55 Si5 1.643977 1_655
O56 Si6 1.643882 1_545
O57 Si7 1.633421 1_545
O58 Si8 1.644364 1_555
O59 S8 1.491824 1_655
O60 S6 1.503645 1_555
O61 S4 1.502178 1_455
O62 S5 1.504217 1_565
O63 S2 1.504396 1_565
O64 S3 1.505796 1_555
O65 S1 1.502525 1_455
O66 Si0 1.717713 1_555
O66 Ta0 1.984106 1_555
O67 Si1 1.734750 1_555
O67 Ta0 1.922078 1_555
O68 S0 1.510270 1_555
O68 Ta0 2.328834 1_555
O69 Si2 1.687688 1_555
O69 Ta1 1.988133 1_555
O70 Si3 1.713692 1_555
O70 Ta1 1.905347 1_555
O71 Si4 1.686215 1_555
O71 Ta1 1.976804 1_555
