# generated using pymatgen
data_MgFe6(O5F)2
_symmetry_space_group_name_H-M   'P 1'
_cell_length_a   5.14964357
_cell_length_b   7.65355615
_cell_length_c   5.72734574
_cell_angle_alpha   98.15203547
_cell_angle_beta   99.38465837
_cell_angle_gamma   82.81267592
_symmetry_Int_Tables_number   1
_chemical_formula_structural   MgFe6(O5F)2
_chemical_formula_sum   'Mg1 Fe6 O10 F2'
_cell_volume   219.25527040
_cell_formula_units_Z   1
loop_
 _symmetry_equiv_pos_site_id
 _symmetry_equiv_pos_as_xyz
  1  'x, y, z'
loop_
 _atom_site_type_symbol
 _atom_site_label
 _atom_site_symmetry_multiplicity
 _atom_site_fract_x
 _atom_site_fract_y
 _atom_site_fract_z
 _atom_site_occupancy
  Mg  Mg0  1  0.49325440  0.83472374  0.82359763  1
  Fe  Fe0  1  0.46731097  0.64370768  0.21585030  1
  Fe  Fe1  1  0.58172046  0.02808668  0.43503450  1
  Fe  Fe2  1  0.42509189  0.30933219  0.86176639  1
  Fe  Fe3  1  0.00221476  0.65753284  0.66847973  1
  Fe  Fe4  1  0.00136143  0.32231056  0.32419829  1
  Fe  Fe5  1  0.00607231  0.01282977  0.99201690  1
  O  O0  1  0.89017112  0.43647762  0.60946971  1
  O  O1  1  0.85578355  0.09119019  0.28721577  1
  O  O2  1  0.64296085  0.07452158  0.80001077  1
  O  O3  1  0.65791286  0.75951913  0.51041044  1
  O  O4  1  0.67197917  0.41964581  0.13966018  1
  O  O5  1  0.33198241  0.57919179  0.86028026  1
  O  O6  1  0.33062590  0.23932374  0.51180313  1
  O  O7  1  0.36750987  0.89557028  0.15836648  1
  O  O8  1  0.15947270  0.23973147  0.03221870  1
  O  O9  1  0.11650382  0.88242694  0.69918113  1
  F  F0  1  0.84416354  0.75224259  0.98379027  1
  F  F1  1  0.16779699  0.57996941  0.34855544  1
loop_
_geom_bond_atom_site_label_1
_geom_bond_atom_site_label_2
_geom_bond_distance
_geom_bond_site_symmetry_2
Mg0 O9 1.962357 1_555
Mg0 O3 2.085390 1_555
Mg0 O7 2.094893 1_556
Mg0 O2 2.106956 1_565
Mg0 O5 2.266845 1_555
Fe0 O4 1.930686 1_555
Fe0 O3 1.961830 1_555
Fe0 O7 1.991292 1_555
Fe0 O5 2.052995 1_554
Fe1 O1 1.902113 1_555
Fe1 O6 1.984887 1_555
Fe1 O7 2.002622 1_545
Fe1 O2 2.048823 1_555
Fe1 O3 2.135414 1_545
Fe2 O8 1.968019 1_556
Fe2 O6 1.995962 1_555
Fe2 O2 2.014493 1_555
Fe2 O4 2.022374 1_556
Fe2 O5 2.061951 1_555
Fe3 O0 1.824289 1_455
Fe3 O9 1.863834 1_555
Fe3 O5 1.942600 1_555
Fe3 O3 1.975636 1_455
Fe4 O0 1.880384 1_455
Fe4 O6 1.939808 1_555
Fe4 O4 1.967634 1_455
Fe4 O8 1.968355 1_555
Fe4 O1 1.977281 1_455
Fe5 O9 1.956198 1_545
Fe5 O1 1.959634 1_456
Fe5 O8 1.965554 1_556
Fe5 O2 2.045599 1_455
Fe5 O7 2.103252 1_546
F0 Mg0 1.960573 1_555
F0 Fe3 2.099905 1_655
F0 Fe5 2.247608 1_665
F1 Fe0 1.967321 1_555
F1 Fe3 2.123973 1_555
F1 Fe4 2.224585 1_555
