# generated using pymatgen
data_MgTe4Mo4(SeS)2
_symmetry_space_group_name_H-M   'P 1'
_cell_length_a   6.77823000
_cell_length_b   6.77835854
_cell_length_c   77.35206602
_cell_angle_alpha   90.00098723
_cell_angle_beta   89.99766761
_cell_angle_gamma   119.99867609
_symmetry_Int_Tables_number   1
_chemical_formula_structural   MgTe4Mo4(SeS)2
_chemical_formula_sum   'Mg8 Te32 Mo32 Se16 S16'
_cell_volume   3077.86226410
_cell_formula_units_Z   8
loop_
 _symmetry_equiv_pos_site_id
 _symmetry_equiv_pos_as_xyz
  1  'x, y, z'
loop_
 _atom_site_type_symbol
 _atom_site_label
 _atom_site_symmetry_multiplicity
 _atom_site_fract_x
 _atom_site_fract_y
 _atom_site_fract_z
 _atom_site_occupancy
  Mg  Mg0_0  1  0.18989500  0.33065700  0.44086600  1
  Mg  Mg0_1  1  0.18989500  0.33065700  0.94086600  1
  Mg  Mg0_2  1  0.18989500  0.83065700  0.44086600  1
  Mg  Mg0_3  1  0.18989500  0.83065700  0.94086600  1
  Mg  Mg0_4  1  0.68989500  0.33065700  0.44086600  1
  Mg  Mg0_5  1  0.68989500  0.33065700  0.94086600  1
  Mg  Mg0_6  1  0.68989500  0.83065700  0.44086600  1
  Mg  Mg0_7  1  0.68989500  0.83065700  0.94086600  1
  Te  Te0_0  1  0.16666900  0.33336300  0.35308750  1
  Te  Te0_1  1  0.16666900  0.33336300  0.85308750  1
  Te  Te0_2  1  0.16666900  0.83336300  0.35308750  1
  Te  Te0_3  1  0.16666900  0.83336300  0.85308750  1
  Te  Te0_4  1  0.66666900  0.33336300  0.35308750  1
  Te  Te0_5  1  0.66666900  0.33336300  0.85308750  1
  Te  Te0_6  1  0.66666900  0.83336300  0.35308750  1
  Te  Te0_7  1  0.66666900  0.83336300  0.85308750  1
  Te  Te1_0  1  0.33332650  0.16664450  0.21051550  1
  Te  Te1_1  1  0.33332650  0.16664450  0.71051550  1
  Te  Te1_2  1  0.33332650  0.66664450  0.21051550  1
  Te  Te1_3  1  0.33332650  0.66664450  0.71051550  1
  Te  Te1_4  1  0.83332650  0.16664450  0.21051550  1
  Te  Te1_5  1  0.83332650  0.16664450  0.71051550  1
  Te  Te1_6  1  0.83332650  0.66664450  0.21051550  1
  Te  Te1_7  1  0.83332650  0.66664450  0.71051550  1
  Te  Te2_0  1  0.33330100  0.16663350  0.25897250  1
  Te  Te2_1  1  0.33330100  0.16663350  0.75897250  1
  Te  Te2_2  1  0.33330100  0.66663350  0.25897250  1
  Te  Te2_3  1  0.33330100  0.66663350  0.75897250  1
  Te  Te2_4  1  0.83330100  0.16663350  0.25897250  1
  Te  Te2_5  1  0.83330100  0.16663350  0.75897250  1
  Te  Te2_6  1  0.83330100  0.66663350  0.25897250  1
  Te  Te2_7  1  0.83330100  0.66663350  0.75897250  1
  Te  Te3_0  1  0.16668700  0.33335850  0.30459950  1
  Te  Te3_1  1  0.16668700  0.33335850  0.80459950  1
  Te  Te3_2  1  0.16668700  0.83335850  0.30459950  1
  Te  Te3_3  1  0.16668700  0.83335850  0.80459950  1
  Te  Te3_4  1  0.66668700  0.33335850  0.30459950  1
  Te  Te3_5  1  0.66668700  0.33335850  0.80459950  1
  Te  Te3_6  1  0.66668700  0.83335850  0.30459950  1
  Te  Te3_7  1  0.66668700  0.83335850  0.80459950  1
  Mo  Mo0_0  1  0.16664350  0.33329450  0.04693950  1
  Mo  Mo0_1  1  0.16664350  0.33329450  0.54693950  1
  Mo  Mo0_2  1  0.16664350  0.83329450  0.04693950  1
  Mo  Mo0_3  1  0.16664350  0.83329450  0.54693950  1
  Mo  Mo0_4  1  0.66664350  0.33329450  0.04693950  1
  Mo  Mo0_5  1  0.66664350  0.33329450  0.54693950  1
  Mo  Mo0_6  1  0.66664350  0.83329450  0.04693950  1
  Mo  Mo0_7  1  0.66664350  0.83329450  0.54693950  1
  Mo  Mo1_0  1  0.16665200  0.33331300  0.23474850  1
  Mo  Mo1_1  1  0.16665200  0.33331300  0.73474850  1
  Mo  Mo1_2  1  0.16665200  0.83331300  0.23474850  1
  Mo  Mo1_3  1  0.16665200  0.83331300  0.73474850  1
  Mo  Mo1_4  1  0.66665200  0.33331300  0.23474850  1
  Mo  Mo1_5  1  0.66665200  0.33331300  0.73474850  1
  Mo  Mo1_6  1  0.66665200  0.83331300  0.23474850  1
  Mo  Mo1_7  1  0.66665200  0.83331300  0.73474850  1
  Mo  Mo2_0  1  0.33333550  0.16665950  0.14089750  1
  Mo  Mo2_1  1  0.33333550  0.16665950  0.64089750  1
  Mo  Mo2_2  1  0.33333550  0.66665950  0.14089750  1
  Mo  Mo2_3  1  0.33333550  0.66665950  0.64089750  1
  Mo  Mo2_4  1  0.83333550  0.16665950  0.14089750  1
  Mo  Mo2_5  1  0.83333550  0.16665950  0.64089750  1
  Mo  Mo2_6  1  0.83333550  0.66665950  0.14089750  1
  Mo  Mo2_7  1  0.83333550  0.66665950  0.64089750  1
  Mo  Mo3_0  1  0.33334050  0.16668300  0.32888800  1
  Mo  Mo3_1  1  0.33334050  0.16668300  0.82888800  1
  Mo  Mo3_2  1  0.33334050  0.66668300  0.32888800  1
  Mo  Mo3_3  1  0.33334050  0.66668300  0.82888800  1
  Mo  Mo3_4  1  0.83334050  0.16668300  0.32888800  1
  Mo  Mo3_5  1  0.83334050  0.16668300  0.82888800  1
  Mo  Mo3_6  1  0.83334050  0.66668300  0.32888800  1
  Mo  Mo3_7  1  0.83334050  0.66668300  0.82888800  1
  Se  Se0_0  1  0.33332050  0.16663500  0.02560900  1
  Se  Se0_1  1  0.33332050  0.16663500  0.52560900  1
  Se  Se0_2  1  0.33332050  0.66663500  0.02560900  1
  Se  Se0_3  1  0.33332050  0.66663500  0.52560900  1
  Se  Se0_4  1  0.83332050  0.16663500  0.02560900  1
  Se  Se0_5  1  0.83332050  0.16663500  0.52560900  1
  Se  Se0_6  1  0.83332050  0.66663500  0.02560900  1
  Se  Se0_7  1  0.83332050  0.66663500  0.52560900  1
  Se  Se1_0  1  0.33330600  0.16662750  0.06831600  1
  Se  Se1_1  1  0.33330600  0.16662750  0.56831600  1
  Se  Se1_2  1  0.33330600  0.66662750  0.06831600  1
  Se  Se1_3  1  0.33330600  0.66662750  0.56831600  1
  Se  Se1_4  1  0.83330600  0.16662750  0.06831600  1
  Se  Se1_5  1  0.83330600  0.16662750  0.56831600  1
  Se  Se1_6  1  0.83330600  0.66662750  0.06831600  1
  Se  Se1_7  1  0.83330600  0.66662750  0.56831600  1
  S  S0_0  1  0.16666800  0.33336200  0.16036750  1
  S  S0_1  1  0.16666800  0.33336200  0.66036750  1
  S  S0_2  1  0.16666800  0.83336200  0.16036750  1
  S  S0_3  1  0.16666800  0.83336200  0.66036750  1
  S  S0_4  1  0.66666800  0.33336200  0.16036750  1
  S  S0_5  1  0.66666800  0.33336200  0.66036750  1
  S  S0_6  1  0.66666800  0.83336200  0.16036750  1
  S  S0_7  1  0.66666800  0.83336200  0.66036750  1
  S  S1_0  1  0.16667950  0.33336250  0.12145250  1
  S  S1_1  1  0.16667950  0.33336250  0.62145250  1
  S  S1_2  1  0.16667950  0.83336250  0.12145250  1
  S  S1_3  1  0.16667950  0.83336250  0.62145250  1
  S  S1_4  1  0.66667950  0.33336250  0.12145250  1
  S  S1_5  1  0.66667950  0.33336250  0.62145250  1
  S  S1_6  1  0.66667950  0.83336250  0.12145250  1
  S  S1_7  1  0.66667950  0.83336250  0.62145250  1
loop_
_geom_bond_atom_site_label_1
_geom_bond_atom_site_label_2
_geom_bond_distance
_geom_bond_site_symmetry_2
Mg0_0 Mg0_4 3.389115 1_555
Mg0_0 Mg0_4 3.389115 1_455
Mg0_0 Mg0_2 3.389179 1_545
Mg0_0 Mg0_2 3.389179 1_555
Mg0_0 Mg0_6 3.389215 1_555
Mg0_0 Mg0_6 3.389215 1_445
Mg0_1 Mg0_5 3.389115 1_555
Mg0_1 Mg0_5 3.389115 1_455
Mg0_1 Mg0_3 3.389179 1_545
Mg0_1 Mg0_3 3.389179 1_555
Mg0_1 Mg0_7 3.389215 1_555
Mg0_1 Mg0_7 3.389215 1_445
Mg0_2 Mg0_6 3.389115 1_455
Mg0_2 Mg0_6 3.389115 1_555
Mg0_2 Mg0_4 3.389215 1_565
Mg0_2 Mg0_4 3.389215 1_455
Mg0_3 Mg0_7 3.389115 1_555
Mg0_3 Mg0_7 3.389115 1_455
Mg0_3 Mg0_5 3.389215 1_565
Mg0_3 Mg0_5 3.389215 1_455
Mg0_4 Mg0_6 3.389179 1_555
Mg0_4 Mg0_6 3.389179 1_545
Mg0_5 Mg0_7 3.389179 1_555
Mg0_5 Mg0_7 3.389179 1_545
Mo0_0 Se0_0 2.559481 1_555
Mo0_0 Se0_4 2.559525 1_455
Mo0_0 Se0_2 2.559580 1_555
Mo0_0 Se1_4 2.561791 1_455
Mo0_0 Se1_0 2.561829 1_555
Mo0_0 Se1_2 2.561851 1_555
Mo0_1 Se0_1 2.559481 1_555
Mo0_1 Se0_5 2.559525 1_455
Mo0_1 Se0_3 2.559580 1_555
Mo0_1 Se1_5 2.561791 1_455
Mo0_1 Se1_1 2.561829 1_555
Mo0_1 Se1_3 2.561851 1_555
Mo0_2 Se0_2 2.559481 1_555
Mo0_2 Se0_6 2.559525 1_455
Mo0_2 Se0_0 2.559580 1_565
Mo0_2 Se1_6 2.561791 1_455
Mo0_2 Se1_2 2.561829 1_555
Mo0_2 Se1_0 2.561851 1_565
Mo0_3 Se0_3 2.559481 1_555
Mo0_3 Se0_7 2.559525 1_455
Mo0_3 Se0_1 2.559580 1_565
Mo0_3 Se1_7 2.561791 1_455
Mo0_3 Se1_3 2.561829 1_555
Mo0_3 Se1_1 2.561851 1_565
Mo0_4 Se0_4 2.559481 1_555
Mo0_4 Se0_0 2.559525 1_555
Mo0_4 Se0_6 2.559580 1_555
Mo0_4 Se1_0 2.561791 1_555
Mo0_4 Se1_4 2.561829 1_555
Mo0_4 Se1_6 2.561851 1_555
Mo0_5 Se0_5 2.559481 1_555
Mo0_5 Se0_1 2.559525 1_555
Mo0_5 Se0_7 2.559580 1_555
Mo0_5 Se1_1 2.561791 1_555
Mo0_5 Se1_5 2.561829 1_555
Mo0_5 Se1_7 2.561851 1_555
Mo0_6 Se0_6 2.559481 1_555
Mo0_6 Se0_2 2.559525 1_555
Mo0_6 Se0_4 2.559580 1_565
Mo0_6 Se1_2 2.561791 1_555
Mo0_6 Se1_6 2.561829 1_555
Mo0_6 Se1_4 2.561851 1_565
Mo0_7 Se0_7 2.559481 1_555
Mo0_7 Se0_3 2.559525 1_555
Mo0_7 Se0_5 2.559580 1_565
Mo0_7 Se1_3 2.561791 1_555
Mo0_7 Se1_7 2.561829 1_555
Mo0_7 Se1_5 2.561851 1_565
Mo1_0 Te2_2 2.709191 1_555
Mo1_0 Te2_0 2.709224 1_555
Mo1_0 Te2_4 2.709239 1_455
Mo1_0 Te1_0 2.709676 1_555
Mo1_0 Te1_2 2.709710 1_555
Mo1_0 Te1_4 2.709712 1_455
Mo1_1 Te2_3 2.709191 1_555
Mo1_1 Te2_1 2.709224 1_555
Mo1_1 Te2_5 2.709239 1_455
Mo1_1 Te1_1 2.709676 1_555
Mo1_1 Te1_3 2.709710 1_555
Mo1_1 Te1_5 2.709712 1_455
Mo1_2 Te2_0 2.709191 1_565
Mo1_2 Te2_2 2.709224 1_555
Mo1_2 Te2_6 2.709239 1_455
Mo1_2 Te1_2 2.709676 1_555
Mo1_2 Te1_0 2.709710 1_565
Mo1_2 Te1_6 2.709712 1_455
Mo1_3 Te2_1 2.709191 1_565
Mo1_3 Te2_3 2.709224 1_555
Mo1_3 Te2_7 2.709239 1_455
Mo1_3 Te1_3 2.709676 1_555
Mo1_3 Te1_1 2.709710 1_565
Mo1_3 Te1_7 2.709712 1_455
Mo1_4 Te2_6 2.709191 1_555
Mo1_4 Te2_4 2.709224 1_555
Mo1_4 Te2_0 2.709239 1_555
Mo1_4 Te1_4 2.709676 1_555
Mo1_4 Te1_6 2.709710 1_555
Mo1_4 Te1_0 2.709712 1_555
Mo1_5 Te2_7 2.709191 1_555
Mo1_5 Te2_5 2.709224 1_555
Mo1_5 Te2_1 2.709239 1_555
Mo1_5 Te1_5 2.709676 1_555
Mo1_5 Te1_7 2.709710 1_555
Mo1_5 Te1_1 2.709712 1_555
Mo1_6 Te2_4 2.709191 1_565
Mo1_6 Te2_6 2.709224 1_555
Mo1_6 Te2_2 2.709239 1_555
Mo1_6 Te1_6 2.709676 1_555
Mo1_6 Te1_4 2.709710 1_565
Mo1_6 Te1_2 2.709712 1_555
Mo1_7 Te2_5 2.709191 1_565
Mo1_7 Te2_7 2.709224 1_555
Mo1_7 Te2_3 2.709239 1_555
Mo1_7 Te1_7 2.709676 1_555
Mo1_7 Te1_5 2.709710 1_565
Mo1_7 Te1_3 2.709712 1_555
Mo2_0 S1_2 2.467891 1_545
Mo2_0 S1_4 2.468031 1_555
Mo2_0 S1_0 2.468169 1_555
Mo2_0 S0_2 2.469063 1_545
Mo2_0 S0_4 2.469245 1_555
Mo2_0 S0_0 2.469319 1_555
Mo2_1 S1_3 2.467891 1_545
Mo2_1 S1_5 2.468031 1_555
Mo2_1 S1_1 2.468169 1_555
Mo2_1 S0_3 2.469063 1_545
Mo2_1 S0_5 2.469245 1_555
Mo2_1 S0_1 2.469319 1_555
Mo2_2 S1_0 2.467891 1_555
Mo2_2 S1_6 2.468031 1_555
Mo2_2 S1_2 2.468169 1_555
Mo2_2 S0_0 2.469063 1_555
Mo2_2 S0_6 2.469245 1_555
Mo2_2 S0_2 2.469319 1_555
Mo2_3 S1_1 2.467891 1_555
Mo2_3 S1_7 2.468031 1_555
Mo2_3 S1_3 2.468169 1_555
Mo2_3 S0_1 2.469063 1_555
Mo2_3 S0_7 2.469245 1_555
Mo2_3 S0_3 2.469319 1_555
Mo2_4 S1_6 2.467891 1_545
Mo2_4 S1_0 2.468031 1_655
Mo2_4 S1_4 2.468169 1_555
Mo2_4 S0_6 2.469063 1_545
Mo2_4 S0_0 2.469245 1_655
Mo2_4 S0_4 2.469319 1_555
Mo2_5 S1_7 2.467891 1_545
Mo2_5 S1_1 2.468031 1_655
Mo2_5 S1_5 2.468169 1_555
Mo2_5 S0_7 2.469063 1_545
Mo2_5 S0_1 2.469245 1_655
Mo2_5 S0_5 2.469319 1_555
Mo2_6 S1_4 2.467891 1_555
Mo2_6 S1_2 2.468031 1_655
Mo2_6 S1_6 2.468169 1_555
Mo2_6 S0_4 2.469063 1_555
Mo2_6 S0_2 2.469245 1_655
Mo2_6 S0_6 2.469319 1_555
Mo2_7 S1_5 2.467891 1_555
Mo2_7 S1_3 2.468031 1_655
Mo2_7 S1_7 2.468169 1_555
Mo2_7 S0_5 2.469063 1_555
Mo2_7 S0_3 2.469245 1_655
Mo2_7 S0_7 2.469319 1_555
Mo3_0 Te0_2 2.707869 1_545
Mo3_0 Te0_0 2.707921 1_555
Mo3_0 Te0_4 2.707933 1_555
Mo3_0 Te3_2 2.712661 1_545
Mo3_0 Te3_4 2.712673 1_555
Mo3_0 Te3_0 2.712679 1_555
Mo3_1 Te0_3 2.707869 1_545
Mo3_1 Te0_1 2.707921 1_555
Mo3_1 Te0_5 2.707933 1_555
Mo3_1 Te3_3 2.712661 1_545
Mo3_1 Te3_5 2.712673 1_555
Mo3_1 Te3_1 2.712679 1_555
Mo3_2 Te0_0 2.707869 1_555
Mo3_2 Te0_2 2.707921 1_555
Mo3_2 Te0_6 2.707933 1_555
Mo3_2 Te3_0 2.712661 1_555
Mo3_2 Te3_6 2.712673 1_555
Mo3_2 Te3_2 2.712679 1_555
Mo3_3 Te0_1 2.707869 1_555
Mo3_3 Te0_3 2.707921 1_555
Mo3_3 Te0_7 2.707933 1_555
Mo3_3 Te3_1 2.712661 1_555
Mo3_3 Te3_7 2.712673 1_555
Mo3_3 Te3_3 2.712679 1_555
Mo3_4 Te0_6 2.707869 1_545
Mo3_4 Te0_4 2.707921 1_555
Mo3_4 Te0_0 2.707933 1_655
Mo3_4 Te3_6 2.712661 1_545
Mo3_4 Te3_0 2.712673 1_655
Mo3_4 Te3_4 2.712679 1_555
Mo3_5 Te0_7 2.707869 1_545
Mo3_5 Te0_5 2.707921 1_555
Mo3_5 Te0_1 2.707933 1_655
Mo3_5 Te3_7 2.712661 1_545
Mo3_5 Te3_1 2.712673 1_655
Mo3_5 Te3_5 2.712679 1_555
Mo3_6 Te0_4 2.707869 1_555
Mo3_6 Te0_6 2.707921 1_555
Mo3_6 Te0_2 2.707933 1_655
Mo3_6 Te3_4 2.712661 1_555
Mo3_6 Te3_2 2.712673 1_655
Mo3_6 Te3_6 2.712679 1_555
Mo3_7 Te0_5 2.707869 1_555
Mo3_7 Te0_7 2.707921 1_555
Mo3_7 Te0_3 2.707933 1_655
Mo3_7 Te3_5 2.712661 1_555
Mo3_7 Te3_3 2.712673 1_655
Mo3_7 Te3_7 2.712679 1_555
