# generated using pymatgen
data_Na6Hf7Zn(PO4)12
_symmetry_space_group_name_H-M   'P 1'
_cell_length_a   17.78880983
_cell_length_b   8.90794548
_cell_length_c   22.94825544
_cell_angle_alpha   90.01163642
_cell_angle_beta   90.00374441
_cell_angle_gamma   120.02093255
_symmetry_Int_Tables_number   1
_chemical_formula_structural   Na6Hf7Zn(PO4)12
_chemical_formula_sum   'Na18 Hf21 Zn3 P36 O144'
_cell_volume   3148.56808046
_cell_formula_units_Z   3
loop_
 _symmetry_equiv_pos_site_id
 _symmetry_equiv_pos_as_xyz
  1  'x, y, z'
loop_
 _atom_site_type_symbol
 _atom_site_label
 _atom_site_symmetry_multiplicity
 _atom_site_fract_x
 _atom_site_fract_y
 _atom_site_fract_z
 _atom_site_occupancy
  Na  Na0  1  0.69023529  0.36763954  0.24261291  1
  Na  Na1  1  0.99221586  0.62003659  0.24246777  1
  Na  Na2  1  0.99224246  0.36202309  0.73960212  1
  Na  Na3  1  0.49249335  0.36210501  0.73966402  1
  Na  Na4  1  0.18839290  0.01097292  0.73970931  1
  Na  Na5  1  0.68852514  0.01140800  0.73991414  1
  Na  Na6  1  0.99995477  0.99908895  0.50038318  1
  Na  Na7  1  0.49998344  0.00016408  0.50064113  1
  Na  Na8  1  0.99780498  0.99635526  0.00195578  1
  Na  Na9  1  0.50234666  0.00452837  0.00115341  1
  Na  Na10  1  0.33289284  0.34952346  0.82749541  1
  Na  Na11  1  0.83258177  0.34896195  0.82922415  1
  Na  Na12  1  0.33310631  0.33380097  0.33607237  1
  Na  Na13  1  0.83299691  0.31478535  0.32939374  1
  Na  Na14  1  0.17109324  0.66374729  0.16540262  1
  Na  Na15  1  0.67044847  0.68766184  0.16452132  1
  Na  Na16  1  0.17471505  0.66455802  0.65945845  1
  Na  Na17  1  0.67480875  0.66488763  0.65971476  1
  Hf  Hf0  1  0.00053932  0.00370405  0.35448478  1
  Hf  Hf1  1  0.49902006  0.99788186  0.35463626  1
  Hf  Hf2  1  0.99943386  0.99793839  0.85516779  1
  Hf  Hf3  1  0.49963722  0.99773626  0.85515143  1
  Hf  Hf4  1  0.99834340  0.99696762  0.64419889  1
  Hf  Hf5  1  0.49862255  0.99674073  0.64419014  1
  Hf  Hf6  1  0.99755223  0.00138082  0.14558911  1
  Hf  Hf7  1  0.50117330  0.99923623  0.14524175  1
  Hf  Hf8  1  0.33344931  0.33427771  0.18686346  1
  Hf  Hf9  1  0.33331883  0.33213281  0.97937743  1
  Hf  Hf10  1  0.83357311  0.33303526  0.98251860  1
  Hf  Hf11  1  0.33332122  0.33288040  0.48289846  1
  Hf  Hf12  1  0.83346943  0.33459253  0.48175486  1
  Hf  Hf13  1  0.16584205  0.66671432  0.02089795  1
  Hf  Hf14  1  0.66681520  0.66518069  0.02057551  1
  Hf  Hf15  1  0.16601112  0.66696303  0.51967968  1
  Hf  Hf16  1  0.66632222  0.66670080  0.51968834  1
  Hf  Hf17  1  0.16923189  0.66550192  0.31379214  1
  Hf  Hf18  1  0.66614832  0.67259509  0.31429735  1
  Hf  Hf19  1  0.16857531  0.66538895  0.81489602  1
  Hf  Hf20  1  0.66896567  0.66618713  0.81501425  1
  Zn  Zn0  1  0.33296570  0.34285814  0.67764373  1
  Zn  Zn1  1  0.83291259  0.34244612  0.67763824  1
  Zn  Zn2  1  0.83308074  0.32151365  0.18000674  1
  P  P0  1  0.14464530  -0.00016073  0.25006582  1
  P  P1  1  0.64602917  0.00106625  0.24997941  1
  P  P2  1  0.35547119  0.71052966  0.24946011  1
  P  P3  1  0.85388082  0.70972285  0.25051716  1
  P  P4  1  0.99889077  0.29149772  0.25030000  1
  P  P5  1  0.49971734  0.28889997  0.25038854  1
  P  P6  1  0.14548428  0.28988863  0.75031731  1
  P  P7  1  0.64538681  0.29012251  0.75032051  1
  P  P8  1  0.99858937  0.70722897  0.75091971  1
  P  P9  1  0.49859262  0.70708008  0.75094803  1
  P  P10  1  0.35434164  0.99857977  0.75044394  1
  P  P11  1  0.85421535  0.99858723  0.75037694  1
  P  P12  1  0.47994299  0.33450343  0.58667960  1
  P  P13  1  0.97958248  0.33475626  0.58638525  1
  P  P14  1  0.18790660  0.04042407  0.58686835  1
  P  P15  1  0.68830397  0.04096205  0.58649851  1
  P  P16  1  0.33199432  0.62324805  0.58451708  1
  P  P17  1  0.83208361  0.62306709  0.58448409  1
  P  P18  1  0.47822686  0.62293352  0.08293192  1
  P  P19  1  0.97913880  0.62574609  0.08668065  1
  P  P20  1  0.33348730  0.04350886  0.08340284  1
  P  P21  1  0.83237410  0.04138051  0.08425071  1
  P  P22  1  0.18817487  0.33323339  0.08318862  1
  P  P23  1  0.68802013  0.33425905  0.08649697  1
  P  P24  1  0.31272122  0.66620546  0.91830045  1
  P  P25  1  0.81281098  0.66441141  0.91791472  1
  P  P26  1  0.02013395  0.37533534  0.91631824  1
  P  P27  1  0.52036599  0.37502515  0.91578924  1
  P  P28  1  0.16753869  0.95876987  0.91603012  1
  P  P29  1  0.66780592  0.95951655  0.91654363  1
  P  P30  1  0.31198871  0.95948109  0.41696371  1
  P  P31  1  0.81250017  0.95993668  0.41729673  1
  P  P32  1  0.16782070  0.37547018  0.41744332  1
  P  P33  1  0.66752977  0.37636978  0.41509573  1
  P  P34  1  0.02040783  0.66513261  0.41497592  1
  P  P35  1  0.51959068  0.66454724  0.41719378  1
  O  O0  1  0.10199606  0.02306571  0.30504477  1
  O  O1  1  0.59698362  0.01848774  0.30337869  1
  O  O2  1  0.40939158  0.79696631  0.30445387  1
  O  O3  1  0.91139730  0.80626650  0.30375909  1
  O  O4  1  0.48747887  0.17842386  0.30494235  1
  O  O5  1  0.99322477  0.18403930  0.30473354  1
  O  O6  1  0.09813779  0.17715646  0.80451150  1
  O  O7  1  0.59804652  0.17721015  0.80446412  1
  O  O8  1  0.49160498  0.80038088  0.80564293  1
  O  O9  1  0.99177883  0.80082882  0.80561967  1
  O  O10  1  0.41029411  0.01574209  0.80437301  1
  O  O11  1  0.91026656  0.01584002  0.80429306  1
  O  O12  1  0.39806505  0.97634936  0.69567356  1
  O  O13  1  0.89789875  0.97609462  0.69565694  1
  O  O14  1  0.08671701  0.20327369  0.69652164  1
  O  O15  1  0.58666178  0.20337329  0.69651375  1
  O  O16  1  0.01457486  0.82462984  0.69717709  1
  O  O17  1  0.51436455  0.82431342  0.69718743  1
  O  O18  1  0.39943916  0.82118895  0.19515829  1
  O  O19  1  0.89748839  0.81918590  0.19544206  1
  O  O20  1  0.01047099  0.20350910  0.19564416  1
  O  O21  1  0.51404976  0.20218717  0.19652780  1
  O  O22  1  0.08661293  0.97174410  0.19647301  1
  O  O23  1  0.59045490  0.97789342  0.19504468  1
  O  O24  1  0.44511518  0.36084521  0.64439206  1
  O  O25  1  0.94500987  0.36086126  0.64434671  1
  O  O26  1  0.23658943  0.10898287  0.64443955  1
  O  O27  1  0.73665838  0.10910998  0.64431624  1
  O  O28  1  0.31582510  0.52057433  0.64026410  1
  O  O29  1  0.81596786  0.52054086  0.64034196  1
  O  O30  1  0.43404187  0.51281859  0.13754014  1
  O  O31  1  0.94456583  0.52913650  0.14417146  1
  O  O32  1  0.32246521  0.13254372  0.13779316  1
  O  O33  1  0.81614076  0.11233120  0.13974688  1
  O  O34  1  0.24378675  0.35628438  0.13774766  1
  O  O35  1  0.73653065  0.36269351  0.14397586  1
  O  O36  1  0.23250576  0.31117844  0.02882065  1
  O  O37  1  0.73520633  0.31198827  0.03329219  1
  O  O38  1  0.42318204  0.53394895  0.02856204  1
  O  O39  1  0.92118571  0.53030948  0.03342792  1
  O  O40  1  0.34460501  0.15353889  0.02881884  1
  O  O41  1  0.84441429  0.15314278  0.02953097  1
  O  O42  1  0.23558233  0.15784183  0.53397962  1
  O  O43  1  0.73597044  0.15868969  0.53370766  1
  O  O44  1  0.34389309  0.53434034  0.53005636  1
  O  O45  1  0.84402842  0.53484105  0.52991916  1
  O  O46  1  0.42144501  0.31389200  0.53381643  1
  O  O47  1  0.92123070  0.31462318  0.53357221  1
  O  O48  1  0.26795770  0.68849227  0.97204941  1
  O  O49  1  0.76787049  0.68729774  0.97143726  1
  O  O50  1  0.07858766  0.46864852  0.96908262  1
  O  O51  1  0.57784828  0.46823027  0.96866338  1
  O  O52  1  0.15737644  0.84449727  0.96898634  1
  O  O53  1  0.65628833  0.84321612  0.96919417  1
  O  O54  1  0.26761595  0.84728691  0.47075063  1
  O  O55  1  0.76796051  0.84776790  0.47102347  1
  O  O56  1  0.15637768  0.46494355  0.47110061  1
  O  O57  1  0.65585353  0.46914274  0.46794804  1
  O  O58  1  0.07837830  0.68869205  0.46797207  1
  O  O59  1  0.57592494  0.68881566  0.47095103  1
  O  O60  1  0.06314763  0.64406826  0.35877549  1
  O  O61  1  0.56421028  0.64328180  0.36232806  1
  O  O62  1  0.25699193  0.87051492  0.36191142  1
  O  O63  1  0.75688741  0.87054658  0.36244107  1
  O  O64  1  0.17858028  0.48606569  0.36247159  1
  O  O65  1  0.67788399  0.48207313  0.35880975  1
  O  O66  1  0.06292227  0.48145731  0.85992242  1
  O  O67  1  0.56283987  0.48106350  0.85946684  1
  O  O68  1  0.17784627  0.87348819  0.85975346  1
  O  O69  1  0.67798989  0.87380171  0.86010210  1
  O  O70  1  0.25742303  0.64445323  0.86317475  1
  O  O71  1  0.75768443  0.64343621  0.86274066  1
  O  O72  1  0.01152468  0.82861253  0.40994662  1
  O  O73  1  0.51074386  0.82786174  0.41107473  1
  O  O74  1  0.40261178  0.97710378  0.41103824  1
  O  O75  1  0.90315305  0.97821993  0.41097928  1
  O  O76  1  0.08605615  0.19467575  0.41160332  1
  O  O77  1  0.58555939  0.19457100  0.41005568  1
  O  O78  1  0.01133993  0.19439621  0.91111886  1
  O  O79  1  0.51141971  0.19407629  0.91115334  1
  O  O80  1  0.08585719  0.97659572  0.91162217  1
  O  O81  1  0.58594524  0.97712728  0.91168776  1
  O  O82  1  0.40301103  0.82893770  0.91235169  1
  O  O83  1  0.90310578  0.82782416  0.91190920  1
  O  O84  1  0.48851074  0.16892010  0.58846738  1
  O  O85  1  0.98857202  0.16951887  0.58839612  1
  O  O86  1  0.09640654  0.02297378  0.58926680  1
  O  O87  1  0.59663105  0.02314988  0.58911954  1
  O  O88  1  0.41510521  0.80567823  0.58831387  1
  O  O89  1  0.91505641  0.80562761  0.58837292  1
  O  O90  1  0.48685687  0.80394990  0.08846905  1
  O  O91  1  0.98909482  0.80963029  0.08859339  1
  O  O92  1  0.41497901  0.02522538  0.08949245  1
  O  O93  1  0.91525623  0.02395513  0.08763342  1
  O  O94  1  0.09743838  0.17089615  0.08941963  1
  O  O95  1  0.59598655  0.16876459  0.08819655  1
  O  O96  1  0.34458070  0.16011379  0.74841292  1
  O  O97  1  0.84445540  0.16011456  0.74828588  1
  O  O98  1  0.23443703  0.30520641  0.74676814  1
  O  O99  1  0.73446105  0.30535167  0.74678710  1
  O  O100  1  0.42151786  0.52352457  0.74734929  1
  O  O101  1  0.92154510  0.52358475  0.74738919  1
  O  O102  1  0.34550599  0.52835044  0.24371299  1
  O  O103  1  0.84493816  0.52952068  0.24838790  1
  O  O104  1  0.42016012  0.31254644  0.24374735  1
  O  O105  1  0.92004019  0.31661461  0.24796588  1
  O  O106  1  0.23606646  0.15936136  0.24339510  1
  O  O107  1  0.73464821  0.16611236  0.24766037  1
  O  O108  1  0.32161664  0.50327594  0.92274862  1
  O  O109  1  0.82192584  0.50213483  0.92294001  1
  O  O110  1  0.43006402  0.35735220  0.92170310  1
  O  O111  1  0.93022193  0.35861977  0.92272266  1
  O  O112  1  0.24874288  0.13958974  0.92172465  1
  O  O113  1  0.74881440  0.14036237  0.92281169  1
  O  O114  1  0.32135108  0.14056129  0.42284168  1
  O  O115  1  0.82154472  0.14055131  0.42300836  1
  O  O116  1  0.24890746  0.35609040  0.42295670  1
  O  O117  1  0.74846405  0.35705403  0.42222536  1
  O  O118  1  0.42935492  0.50140059  0.42291490  1
  O  O119  1  0.93030349  0.50210267  0.42216374  1
  O  O120  1  0.17886420  0.49632515  0.07739968  1
  O  O121  1  0.67472379  0.49175254  0.07560531  1
  O  O122  1  0.07104076  0.64913348  0.07574240  1
  O  O123  1  0.56948890  0.64368553  0.07748338  1
  O  O124  1  0.25196579  0.86190580  0.07770661  1
  O  O125  1  0.75339055  0.85638698  0.07463714  1
  O  O126  1  0.17519804  0.85703278  0.57608234  1
  O  O127  1  0.67560753  0.85742049  0.57588450  1
  O  O128  1  0.25364623  0.65167272  0.57476229  1
  O  O129  1  0.75346194  0.65079692  0.57482000  1
  O  O130  1  0.07141153  0.49388967  0.57613425  1
  O  O131  1  0.57183660  0.49304904  0.57627885  1
  O  O132  1  0.15012223  0.83117877  0.25561729  1
  O  O133  1  0.65308030  0.83505922  0.25579248  1
  O  O134  1  0.26422729  0.69175448  0.25484439  1
  O  O135  1  0.76150624  0.68743754  0.25588619  1
  O  O136  1  0.08239752  0.47597622  0.25515739  1
  O  O137  1  0.58410858  0.46796929  0.25631316  1
  O  O138  1  0.14917028  0.46836863  0.75648217  1
  O  O139  1  0.64909318  0.46851066  0.75647620  1
  O  O140  1  0.08466965  0.69709799  0.75645378  1
  O  O141  1  0.58466040  0.69710216  0.75642463  1
  O  O142  1  0.26189470  0.83530590  0.75572086  1
  O  O143  1  0.76184409  0.83544026  0.75563850  1
loop_
_geom_bond_atom_site_label_1
_geom_bond_atom_site_label_2
_geom_bond_distance
_geom_bond_site_symmetry_2
Na0 O107 2.297735 1_555
Na0 O103 2.387328 1_555
Na0 O35 2.416675 1_555
Na0 O137 2.479904 1_555
Na0 O135 2.490201 1_555
Na1 O103 2.327821 1_555
Na1 O105 2.344687 1_555
Na1 O31 2.403057 1_555
Na1 O132 2.496400 1_655
Na1 O136 2.522938 1_655
Na2 O97 2.335563 1_555
Na2 O25 2.339972 1_555
Na2 O101 2.344314 1_555
Na2 O138 2.488736 1_655
Na2 O140 2.617408 1_655
Na2 O14 2.859939 1_655
Na3 O96 2.337498 1_555
Na3 O24 2.341099 1_555
Na3 O100 2.347197 1_555
Na3 O139 2.482965 1_555
Na3 O141 2.616265 1_555
Na3 O15 2.855824 1_555
Na3 O67 2.986436 1_555
Na4 O98 2.327766 1_555
Na4 O26 2.351409 1_555
Na4 O96 2.414677 1_555
Na4 O140 2.491579 1_545
Na4 O142 2.518092 1_545
Na5 O99 2.325429 1_555
Na5 O27 2.357696 1_555
Na5 O97 2.410149 1_555
Na5 O141 2.494093 1_545
Na5 O143 2.516801 1_545
Na6 O89 2.593348 1_555
Na6 O85 2.594542 1_565
Na6 O86 2.604547 1_665
Na6 O76 2.619893 1_665
Na6 O75 2.624535 1_555
Na6 O72 2.639533 1_655
Na7 O84 2.582510 1_555
Na7 O88 2.591026 1_545
Na7 O87 2.601439 1_555
Na7 O73 2.628655 1_545
Na7 O74 2.629423 1_545
Na7 O77 2.646065 1_555
Na8 O93 2.538497 1_565
Na8 O91 2.546971 1_555
Na8 O94 2.613072 1_665
Na8 O83 2.613305 1_554
Na8 O80 2.656670 1_654
Na8 O78 2.663088 1_664
Na9 O95 2.542615 1_555
Na9 O90 2.606193 1_545
Na9 O92 2.616496 1_555
Na9 O81 2.617184 1_544
Na9 O79 2.621343 1_554
Na9 O82 2.637124 1_544
Na10 O100 2.413922 1_555
Na10 O98 2.441856 1_555
Na10 O96 2.556050 1_555
Na10 O108 2.639692 1_555
Na10 O110 2.746895 1_555
Na10 O112 2.759505 1_555
Na11 O101 2.447289 1_555
Na11 O99 2.469239 1_555
Na11 O97 2.584334 1_555
Na11 O109 2.603936 1_555
Na11 O111 2.734568 1_555
Na11 O113 2.741749 1_555
Na12 O116 2.560477 1_555
Na12 O118 2.563697 1_555
Na12 O114 2.571574 1_555
Na12 O102 2.676441 1_555
Na12 O104 2.686353 1_555
Na12 O106 2.689192 1_555
Na13 O105 2.421716 1_555
Na13 O107 2.452111 1_555
Na13 O115 2.598191 1_555
Na13 O103 2.598980 1_555
Na13 O119 2.724098 1_555
Na13 O117 2.740061 1_555
Na14 O120 2.554778 1_555
Na14 O134 2.570153 1_555
Na14 O124 2.587728 1_555
Na14 O136 2.625011 1_555
Na14 O122 2.680625 1_555
Na14 O132 2.684261 1_555
Na15 O125 2.544261 1_555
Na15 O133 2.571249 1_555
Na15 O123 2.581396 1_555
Na15 O135 2.650016 1_555
Na15 O121 2.710391 1_555
Na15 O137 2.760519 1_555
Na16 O128 2.433901 1_555
Na16 O130 2.558785 1_555
Na16 O126 2.566558 1_555
Na16 O142 2.690042 1_555
Na16 O138 2.724927 1_555
Na16 O140 2.840616 1_555
Na17 O129 2.438193 1_555
Na17 O131 2.560706 1_555
Na17 O127 2.572835 1_555
Na17 O143 2.682427 1_555
Na17 O139 2.720477 1_555
Na17 O141 2.835500 1_555
Hf0 O5 2.027529 1_455
Hf0 O3 2.042321 1_445
Hf0 O0 2.064736 1_555
Hf0 O76 2.082204 1_555
Hf0 O75 2.083356 1_445
Hf0 O72 2.096790 1_545
Hf1 O1 2.033331 1_565
Hf1 O2 2.053047 1_555
Hf1 O4 2.064034 1_565
Hf1 O73 2.081242 1_555
Hf1 O74 2.081703 1_555
Hf1 O77 2.087346 1_565
Hf2 O9 2.038212 1_555
Hf2 O11 2.038960 1_565
Hf2 O6 2.044285 1_665
Hf2 O83 2.081085 1_555
Hf2 O80 2.090538 1_655
Hf2 O78 2.093861 1_665
Hf3 O8 2.037082 1_555
Hf3 O10 2.040688 1_565
Hf3 O7 2.043047 1_565
Hf3 O82 2.086477 1_555
Hf3 O81 2.087115 1_555
Hf3 O79 2.094450 1_565
Hf4 O89 2.052668 1_555
Hf4 O86 2.069257 1_665
Hf4 O13 2.071130 1_555
Hf4 O85 2.073840 1_565
Hf4 O16 2.088649 1_655
Hf4 O14 2.097241 1_665
Hf5 O88 2.053492 1_555
Hf5 O87 2.069324 1_565
Hf5 O84 2.072871 1_565
Hf5 O12 2.074575 1_555
Hf5 O17 2.085154 1_555
Hf5 O15 2.096874 1_565
Hf6 O20 2.049225 1_655
Hf6 O19 2.054656 1_545
Hf6 O93 2.060791 1_555
Hf6 O22 2.088437 1_645
Hf6 O91 2.095928 1_545
Hf6 O94 2.101237 1_655
Hf7 O23 2.041264 1_555
Hf7 O18 2.057107 1_555
Hf7 O21 2.071417 1_565
Hf7 O95 2.071563 1_565
Hf7 O90 2.084268 1_555
Hf7 O92 2.096755 1_565
Hf8 O34 2.040968 1_555
Hf8 O30 2.041056 1_555
Hf8 O32 2.045327 1_555
Hf8 O102 2.089191 1_555
Hf8 O106 2.100465 1_555
Hf8 O104 2.102232 1_555
Hf9 O40 2.044235 1_556
Hf9 O38 2.045632 1_556
Hf9 O36 2.050297 1_556
Hf9 O112 2.091039 1_555
Hf9 O108 2.091567 1_555
Hf9 O110 2.092252 1_555
Hf10 O41 2.019639 1_556
Hf10 O37 2.031438 1_556
Hf10 O39 2.034796 1_556
Hf10 O109 2.119990 1_555
Hf10 O111 2.121119 1_555
Hf10 O113 2.122685 1_555
Hf11 O44 2.022017 1_555
Hf11 O46 2.028927 1_555
Hf11 O42 2.028933 1_555
Hf11 O116 2.121386 1_555
Hf11 O118 2.121727 1_555
Hf11 O114 2.124546 1_555
Hf12 O45 2.025536 1_555
Hf12 O47 2.039760 1_555
Hf12 O43 2.041183 1_555
Hf12 O115 2.117148 1_555
Hf12 O119 2.119679 1_555
Hf12 O117 2.120243 1_555
Hf13 O122 2.046606 1_555
Hf13 O52 2.046768 1_554
Hf13 O50 2.048085 1_554
Hf13 O48 2.059542 1_554
Hf13 O120 2.095525 1_555
Hf13 O124 2.098388 1_555
Hf14 O125 2.046005 1_555
Hf14 O49 2.046436 1_554
Hf14 O121 2.054137 1_555
Hf14 O51 2.054853 1_554
Hf14 O53 2.058749 1_554
Hf14 O123 2.099590 1_555
Hf15 O58 2.043865 1_555
Hf15 O56 2.049687 1_555
Hf15 O54 2.050285 1_555
Hf15 O128 2.063710 1_555
Hf15 O126 2.071456 1_555
Hf15 O130 2.071765 1_555
Hf16 O59 2.047536 1_555
Hf16 O55 2.049542 1_555
Hf16 O57 2.052484 1_555
Hf16 O129 2.059890 1_555
Hf16 O127 2.072433 1_555
Hf16 O131 2.074576 1_555
Hf17 O64 2.024148 1_555
Hf17 O62 2.034168 1_555
Hf17 O60 2.074384 1_555
Hf17 O134 2.084519 1_555
Hf17 O136 2.106225 1_555
Hf17 O132 2.139783 1_555
Hf18 O63 2.021467 1_555
Hf18 O61 2.024329 1_555
Hf18 O133 2.070848 1_555
Hf18 O65 2.079077 1_555
Hf18 O135 2.113680 1_555
Hf18 O137 2.135393 1_555
Hf19 O70 2.013706 1_555
Hf19 O66 2.050392 1_555
Hf19 O68 2.053410 1_555
Hf19 O142 2.092298 1_555
Hf19 O138 2.095005 1_555
Hf19 O140 2.127914 1_555
Hf20 O71 2.012771 1_555
Hf20 O67 2.051781 1_555
Hf20 O69 2.053978 1_555
Hf20 O143 2.089986 1_555
Hf20 O139 2.099138 1_555
Hf20 O141 2.132092 1_555
O0 P0 1.538605 1_555
O1 P1 1.556430 1_555
O2 P2 1.538178 1_555
O3 P3 1.548613 1_555
O4 P5 1.539260 1_555
O5 P4 1.546222 1_555
O6 P6 1.555257 1_555
O7 P7 1.554908 1_555
O8 P9 1.544211 1_555
O9 P8 1.544747 1_555
O10 P10 1.546981 1_545
O11 P11 1.547607 1_545
O12 P10 1.542101 1_555
O13 P11 1.541644 1_555
O14 P6 1.550659 1_555
O15 P7 1.550735 1_555
O16 P8 1.548736 1_455
O17 P9 1.548783 1_555
O18 P2 1.537996 1_555
O19 P3 1.547154 1_555
O20 P4 1.546328 1_455
O21 P5 1.544698 1_555
O22 P0 1.543398 1_565
O23 P1 1.550718 1_565
O24 P12 1.529177 1_555
O24 Zn0 2.066007 1_555
O25 P13 1.531208 1_555
O25 Zn1 2.063942 1_555
O26 P14 1.529284 1_555
O26 Zn0 2.070115 1_555
O27 P15 1.531623 1_555
O27 Zn1 2.067566 1_555
O28 P16 1.514309 1_555
O28 Zn0 1.954091 1_555
O29 P17 1.515898 1_555
O29 Zn1 1.954295 1_555
O30 P18 1.542572 1_555
O31 P19 1.526567 1_555
O31 Zn2 2.088192 1_555
O32 P20 1.542927 1_555
O33 P21 1.512315 1_555
O33 Zn2 1.963157 1_555
O34 P22 1.544305 1_555
O35 P23 1.526335 1_555
O35 Zn2 2.097248 1_555
O36 P22 1.540184 1_555
O37 P23 1.549621 1_555
O38 P18 1.538389 1_555
O39 P19 1.549642 1_555
O40 P20 1.541227 1_555
O41 P21 1.549533 1_555
O42 P14 1.548993 1_555
O43 P15 1.548310 1_555
O44 P16 1.549633 1_555
O45 P17 1.548377 1_555
O46 P12 1.548159 1_555
O47 P13 1.546596 1_555
O48 P24 1.533980 1_555
O49 P25 1.533744 1_555
O50 P26 1.540415 1_555
O51 P27 1.535288 1_555
O52 P28 1.536915 1_555
O53 P29 1.537288 1_555
O54 P30 1.535148 1_555
O55 P31 1.534512 1_555
O56 P32 1.534556 1_555
O57 P33 1.539007 1_555
O58 P34 1.539387 1_555
O59 P35 1.534857 1_555
O60 P34 1.555430 1_555
O61 P35 1.549723 1_555
O62 P30 1.550762 1_555
O63 P31 1.551971 1_555
O64 P32 1.552566 1_555
O65 P33 1.554322 1_555
O66 P26 1.558380 1_555
O67 P27 1.555683 1_555
O68 P28 1.554864 1_555
O69 P29 1.559324 1_555
O70 P24 1.553873 1_555
O71 P25 1.554377 1_555
O72 P34 1.545751 1_555
O73 P35 1.545992 1_555
O74 P30 1.545553 1_555
O75 P31 1.544435 1_555
O76 P32 1.543755 1_555
O77 P33 1.548941 1_555
O78 P26 1.544090 1_555
O79 P27 1.542094 1_555
O80 P28 1.541935 1_555
O81 P29 1.544711 1_555
O82 P24 1.539501 1_555
O83 P25 1.542222 1_555
O84 P12 1.557411 1_555
O85 P13 1.558789 1_555
O86 P14 1.556716 1_555
O87 P15 1.558605 1_555
O88 P16 1.558873 1_555
O89 P17 1.558606 1_555
O90 P18 1.546619 1_555
O91 P19 1.557600 1_555
O92 P20 1.543938 1_555
O93 P21 1.559774 1_555
O94 P22 1.543190 1_555
O95 P23 1.562088 1_555
O96 P10 1.533915 1_545
O96 Zn0 2.380700 1_555
O97 P11 1.533888 1_545
O97 Zn1 2.375572 1_555
O98 P6 1.520887 1_555
O98 Zn0 2.261222 1_555
O99 P7 1.523360 1_555
O99 Zn1 2.261847 1_555
O100 P9 1.522131 1_555
O100 Zn0 2.256570 1_555
O101 P8 1.522344 1_555
O101 Zn1 2.259328 1_555
O102 P2 1.547412 1_555
O103 P3 1.532615 1_555
O103 Zn2 2.355410 1_555
O104 P5 1.539073 1_555
O105 P4 1.527875 1_555
O105 Zn2 2.212297 1_555
O106 P0 1.541162 1_555
O107 P1 1.526560 1_555
O107 Zn2 2.228998 1_555
O108 P24 1.540063 1_555
O109 P25 1.537467 1_555
O110 P27 1.539674 1_555
O111 P26 1.537424 1_655
O112 P28 1.539437 1_545
O113 P29 1.539300 1_545
O114 P30 1.542389 1_545
O115 P31 1.540302 1_545
O116 P32 1.541295 1_555
O117 P33 1.541766 1_555
O118 P35 1.540050 1_555
O119 P34 1.541525 1_655
O120 P22 1.548094 1_555
O121 P23 1.555263 1_555
O122 P19 1.561518 1_455
O123 P18 1.544381 1_555
O124 P20 1.545806 1_565
O125 P21 1.556075 1_565
O126 P14 1.552878 1_565
O127 P15 1.553648 1_565
O128 P16 1.552347 1_555
O129 P17 1.553035 1_555
O130 P13 1.554451 1_455
O131 P12 1.553648 1_555
O132 P0 1.558695 1_565
O133 P1 1.551130 1_565
O134 P2 1.551179 1_555
O135 P3 1.558341 1_555
O136 P4 1.573796 1_455
O137 P5 1.555741 1_555
O138 P6 1.564499 1_555
O139 P7 1.563497 1_555
O140 P8 1.583447 1_455
O141 P9 1.582384 1_555
O142 P10 1.562444 1_555
O143 P11 1.561169 1_555
