# generated using pymatgen
data_ErBH4
_symmetry_space_group_name_H-M   'P 1'
_cell_length_a   4.01831914
_cell_length_b   5.62524500
_cell_length_c   6.84549778
_cell_angle_alpha   114.25967225
_cell_angle_beta   107.06783964
_cell_angle_gamma   89.99967756
_symmetry_Int_Tables_number   1
_chemical_formula_structural   ErBH4
_chemical_formula_sum   'Er3 B3 H12'
_cell_volume   133.56135910
_cell_formula_units_Z   3
loop_
 _symmetry_equiv_pos_site_id
 _symmetry_equiv_pos_as_xyz
  1  'x, y, z'
loop_
 _atom_site_type_symbol
 _atom_site_label
 _atom_site_symmetry_multiplicity
 _atom_site_fract_x
 _atom_site_fract_y
 _atom_site_fract_z
 _atom_site_occupancy
  Er  Er0  1  0.00000300  0.54391800  0.99999800  1
  Er  Er1  1  0.33586400  0.88915400  0.67172500  1
  Er  Er2  1  0.66411300  0.21741600  0.32827000  1
  B  B0  1  0.99997500  0.05469500  0.00000000  1
  B  B1  1  0.33447600  0.38625000  0.66927700  1
  B  B2  1  0.66549400  0.71694000  0.33073400  1
  H  H0  1  0.90841300  0.09362900  0.81676200  1
  H  H1  1  0.09158500  0.27685400  0.18322700  1
  H  H2  1  0.74493900  0.91827800  0.00000100  1
  H  H3  1  0.25506500  0.91827500  0.99998400  1
  H  H4  1  0.07975100  0.51839000  0.67279200  1
  H  H5  1  0.92027500  0.84560600  0.32721400  1
  H  H6  1  0.42007900  0.33382300  0.84012400  1
  H  H7  1  0.57995100  0.49371400  0.15989200  1
  H  H8  1  0.59305800  0.51843200  0.67282100  1
  H  H9  1  0.40694400  0.84561600  0.32717700  1
  H  H10  1  0.24167200  0.17638300  0.48336300  1
  H  H11  1  0.75834300  0.69302400  0.51663900  1
loop_
_geom_bond_atom_site_label_1
_geom_bond_atom_site_label_2
_geom_bond_distance
_geom_bond_site_symmetry_2
Er0 H0 2.289758 1_455
Er0 H1 2.289773 1_556
Er0 H8 2.301529 1_455
Er0 H9 2.301546 1_556
Er0 H4 2.301616 1_555
Er0 H5 2.301647 1_456
Er0 H6 2.337728 1_455
Er0 H7 2.337804 1_556
Er0 H7 2.337806 1_456
Er0 H6 2.337812 1_555
Er0 H2 2.342030 1_456
Er0 H3 2.342075 1_555
Er1 H6 2.258709 1_565
Er1 H3 2.303795 1_555
Er1 H2 2.303900 1_556
Er1 H11 2.306751 1_455
Er1 H0 2.306866 1_465
Er1 H11 2.306899 1_555
Er1 H0 2.307086 1_565
Er1 H8 2.329235 1_555
Er1 H4 2.329385 1_555
Er1 H5 2.371504 1_455
Er1 H9 2.371779 1_555
Er1 H10 2.417023 1_565
Er2 H7 2.258741 1_555
Er2 H3 2.303869 1_544
Er2 H2 2.303888 1_545
Er2 H10 2.306789 1_555
Er2 H10 2.306869 1_655
Er2 H1 2.306976 1_655
Er2 H1 2.307013 1_555
Er2 H9 2.329120 1_545
Er2 H5 2.329373 1_545
Er2 H4 2.371645 1_655
Er2 H8 2.371761 1_555
Er2 H11 2.417111 1_555
B0 H2 1.280287 1_545
B0 H3 1.280460 1_644
B0 H1 1.308198 1_655
B0 H0 1.308275 1_554
B1 H4 1.265126 1_555
B1 H8 1.266297 1_555
B1 H6 1.272942 1_555
B1 H10 1.280329 1_555
B2 H5 1.265466 1_555
B2 H9 1.266311 1_555
B2 H7 1.272764 1_555
B2 H11 1.280163 1_555
