# generated using pymatgen
data_Ba3MgMn3O9
_symmetry_space_group_name_H-M   'P 1'
_cell_length_a   8.94108800
_cell_length_b   8.08680223
_cell_length_c   8.08680104
_cell_angle_alpha   41.54271941
_cell_angle_beta   40.64495079
_cell_angle_gamma   40.64497640
_symmetry_Int_Tables_number   1
_chemical_formula_structural   Ba3MgMn3O9
_chemical_formula_sum   'Ba3 Mg1 Mn3 O9'
_cell_volume   226.59125766
_cell_formula_units_Z   1
loop_
 _symmetry_equiv_pos_site_id
 _symmetry_equiv_pos_as_xyz
  1  'x, y, z'
loop_
 _atom_site_type_symbol
 _atom_site_label
 _atom_site_symmetry_multiplicity
 _atom_site_fract_x
 _atom_site_fract_y
 _atom_site_fract_z
 _atom_site_occupancy
  Ba  Ba0  1  0.75974862  0.79804324  0.79804224  1
  Ba  Ba1  1  0.09131860  0.23686303  0.23686203  1
  Ba  Ba2  1  0.12900693  0.94853890  0.94854090  1
  Mg  Mg0  1  0.53335628  0.14886820  0.14886820  1
  Mn  Mn0  1  0.73572843  0.57164921  0.57164921  1
  Mn  Mn1  1  0.44231688  0.36280972  0.36281172  1
  Mn  Mn2  1  0.42110021  0.54874056  0.54873856  1
  O  O0  1  0.62439926  0.97115563  0.43843381  1
  O  O1  1  0.16529305  0.39037821  0.39037921  1
  O  O2  1  0.62439926  0.43843280  0.97115762  1
  O  O3  1  0.28224343  0.29715471  0.74414219  1
  O  O4  1  0.28224443  0.74414219  0.29715371  1
  O  O5  1  0.70828234  0.32012927  0.32012727  1
  O  O6  1  0.59546614  0.29821102  0.76814266  1
  O  O7  1  0.59546614  0.76814266  0.29821102  1
  O  O8  1  0.12629701  0.75674066  0.75674166  1
loop_
_geom_bond_atom_site_label_1
_geom_bond_atom_site_label_2
_geom_bond_distance
_geom_bond_site_symmetry_2
Ba0 O8 2.794429 1_655
Ba0 O5 2.880746 1_556
Ba0 O5 2.880752 1_565
Ba0 O0 2.925200 1_555
Ba0 O2 2.925201 1_555
Ba0 O6 2.938569 1_565
Ba0 O7 2.938570 1_556
Ba0 O4 2.957881 1_556
Ba0 O3 2.957886 1_565
Ba0 O3 3.042781 1_655
Ba0 O4 3.042783 1_655
Ba1 O5 2.513061 1_455
Ba1 O3 2.657296 1_554
Ba1 O4 2.657301 1_545
Ba1 O1 2.884280 1_555
Ba2 O4 2.829561 1_556
Ba2 O3 2.829568 1_565
Ba2 O8 2.920148 1_555
Ba2 O1 2.939481 1_556
Ba2 O1 2.939486 1_565
Ba2 O0 2.965177 1_456
Ba2 O2 2.965180 1_465
Ba2 O0 3.006935 1_555
Ba2 O2 3.006935 1_555
Mg0 O6 2.025668 1_554
Mg0 O7 2.025669 1_545
Mg0 O2 2.071513 1_554
Mg0 O0 2.071513 1_545
Mg0 O1 2.159070 1_555
Mn0 O0 2.031303 1_555
Mn0 O2 2.031313 1_555
Mn0 O6 2.216253 1_555
Mn0 O7 2.216253 1_555
Mn0 O1 2.275543 1_655
Mn1 O5 1.892198 1_555
Mn1 O2 1.960210 1_554
Mn1 O0 1.960213 1_545
Mn1 O3 1.960718 1_555
Mn1 O4 1.960726 1_555
Mn1 O1 2.152413 1_555
Mn2 O8 1.839928 1_555
Mn2 O7 1.925296 1_555
Mn2 O6 1.925304 1_555
Mn2 O5 2.034108 1_555
Mn2 O4 2.054541 1_555
Mn2 O3 2.054548 1_555
