# generated using pymatgen
data_Li6(CoO2)5
_symmetry_space_group_name_H-M   'P 1'
_cell_length_a   5.26662130
_cell_length_b   5.23783549
_cell_length_c   8.23427345
_cell_angle_alpha   89.31796811
_cell_angle_beta   78.45078649
_cell_angle_gamma   74.40421417
_symmetry_Int_Tables_number   1
_chemical_formula_structural   Li6(CoO2)5
_chemical_formula_sum   'Li6 Co5 O10'
_cell_volume   214.14375505
_cell_formula_units_Z   1
loop_
 _symmetry_equiv_pos_site_id
 _symmetry_equiv_pos_as_xyz
  1  'x, y, z'
loop_
 _atom_site_type_symbol
 _atom_site_label
 _atom_site_symmetry_multiplicity
 _atom_site_fract_x
 _atom_site_fract_y
 _atom_site_fract_z
 _atom_site_occupancy
  Li  Li0  1  0.54808087  0.66930110  0.72378314  1
  Li  Li1  1  0.55288469  0.63488610  0.34988668  1
  Li  Li2  1  0.57107805  0.18322757  0.54692885  1
  Li  Li3  1  0.42875175  0.61863259  0.05291541  1
  Li  Li4  1  0.45173781  0.13225116  0.87600164  1
  Li  Li5  1  0.44703153  0.16655846  0.25020427  1
  Co  Co0  1  0.00030207  0.89935993  0.79994009  1
  Co  Co1  1  0.02035638  0.69031271  0.39747704  1
  Co  Co2  1  0.03584457  0.29008705  0.59950100  1
  Co  Co3  1  0.96445814  0.50924926  0.00058829  1
  Co  Co4  1  0.97920106  0.10943420  0.20267007  1
  O  O0  1  0.72463823  0.75834973  0.90260879  1
  O  O1  1  0.74924075  0.95458530  0.34160729  1
  O  O2  1  0.78218918  0.52610504  0.51265432  1
  O  O3  1  0.76876223  0.18409843  0.73256315  1
  O  O4  1  0.71512781  0.38651837  0.14858272  1
  O  O5  1  0.23197123  0.61437623  0.86718401  1
  O  O6  1  0.25007161  0.84503670  0.25839728  1
  O  O7  1  0.28469462  0.41376983  0.45165295  1
  O  O8  1  0.27580901  0.04082460  0.69735133  1
  O  O9  1  0.21775539  0.27304464  0.08751867  1
loop_
_geom_bond_atom_site_label_1
_geom_bond_atom_site_label_2
_geom_bond_distance
_geom_bond_site_symmetry_2
Li0 O5 1.926396 1_555
Li0 O2 1.944378 1_555
Li0 O0 2.012029 1_555
Li0 O8 2.122474 1_565
Li0 O3 2.501173 1_555
Li1 O2 1.959431 1_555
Li1 O6 1.959586 1_555
Li1 O4 2.014099 1_555
Li1 O7 2.102652 1_555
Li1 O1 2.185935 1_555
Li2 O7 1.954603 1_555
Li2 O1 1.995445 1_545
Li2 O3 2.015052 1_555
Li2 O8 2.083071 1_555
Li2 O2 2.340340 1_555
Li3 O4 1.959697 1_555
Li3 O6 1.991192 1_555
Li3 O5 2.015292 1_554
Li3 O0 2.077279 1_554
Li3 O9 2.352685 1_555
Li4 O3 1.924324 1_555
Li4 O9 1.943811 1_556
Li4 O8 2.013193 1_555
Li4 O0 2.133438 1_545
Li4 O5 2.485898 1_555
Li5 O9 1.957417 1_555
Li5 O1 1.960109 1_545
Li5 O7 2.011758 1_555
Li5 O4 2.097582 1_555
Li5 O6 2.196651 1_545
Co0 O3 1.814507 1_465
Co0 O5 1.815204 1_555
Co0 O0 1.854247 1_455
Co0 O8 1.854831 1_565
Co1 O2 1.815741 1_455
Co1 O1 1.830742 1_455
Co1 O6 1.839101 1_555
Co1 O7 1.839636 1_555
Co2 O3 1.809847 1_455
Co2 O2 1.815979 1_455
Co2 O7 1.848873 1_555
Co2 O8 1.856463 1_555
Co3 O5 1.810492 1_654
Co3 O9 1.815625 1_655
Co3 O4 1.848537 1_555
Co3 O0 1.856184 1_554
Co4 O9 1.815074 1_655
Co4 O6 1.829821 1_645
Co4 O1 1.839772 1_545
Co4 O4 1.840177 1_555
