# generated using pymatgen
data_MgSiP2
_symmetry_space_group_name_H-M   'P 1'
_cell_length_a   5.71725605
_cell_length_b   5.71725588
_cell_length_c   6.50172776
_cell_angle_alpha   116.08295842
_cell_angle_beta   116.08296576
_cell_angle_gamma   89.99999468
_symmetry_Int_Tables_number   1
_chemical_formula_structural   MgSiP2
_chemical_formula_sum   'Mg2 Si2 P4'
_cell_volume   166.44385513
_cell_formula_units_Z   2
loop_
 _symmetry_equiv_pos_site_id
 _symmetry_equiv_pos_as_xyz
  1  'x, y, z'
loop_
 _atom_site_type_symbol
 _atom_site_label
 _atom_site_symmetry_multiplicity
 _atom_site_fract_x
 _atom_site_fract_y
 _atom_site_fract_z
 _atom_site_occupancy
  Mg  Mg0  1  0.50000000  0.50000000  -0.00000000  1
  Mg  Mg1  1  0.75000000  0.25000000  0.50000000  1
  Si  Si0  1  0.00000000  -0.00000000  -0.00000000  1
  Si  Si1  1  0.25000000  0.75000000  0.50000000  1
  P  P0  1  0.12500000  0.66795933  0.75000000  1
  P  P1  1  0.91795933  0.87500000  0.25000000  1
  P  P2  1  0.33204067  0.37500000  0.25000000  1
  P  P3  1  0.62500000  0.08204067  0.75000000  1
loop_
_geom_bond_atom_site_label_1
_geom_bond_atom_site_label_2
_geom_bond_distance
_geom_bond_site_symmetry_2
Mg0 P0 2.543397 1_554
Mg0 P3 2.543397 1_554
Mg0 P1 2.543397 1_555
Mg0 P2 2.543397 1_555
Mg1 P2 2.543397 1_555
Mg1 P1 2.543397 1_545
Mg1 P0 2.543397 1_655
Mg1 P3 2.543397 1_555
P0 Si0 2.250479 1_566
P0 Si1 2.250479 1_555
P1 Si1 2.250479 1_655
P1 Si0 2.250479 1_665
P2 Si1 2.250479 1_555
P2 Si0 2.250479 1_555
P3 Si0 2.250479 1_656
P3 Si1 2.250479 1_545
