# generated using pymatgen
data_Na3Sc2Sn2P5SO24
_symmetry_space_group_name_H-M   'P 1'
_cell_length_a   8.84314793
_cell_length_b   8.82802673
_cell_length_c   22.89263041
_cell_angle_alpha   90.15161491
_cell_angle_beta   89.97345277
_cell_angle_gamma   119.89874275
_symmetry_Int_Tables_number   1
_chemical_formula_structural   Na3Sc2Sn2P5SO24
_chemical_formula_sum   'Na9 Sc6 Sn6 P15 S3 O72'
_cell_volume   1549.30651913
_cell_formula_units_Z   3
loop_
 _symmetry_equiv_pos_site_id
 _symmetry_equiv_pos_as_xyz
  1  'x, y, z'
loop_
 _atom_site_type_symbol
 _atom_site_label
 _atom_site_symmetry_multiplicity
 _atom_site_fract_x
 _atom_site_fract_y
 _atom_site_fract_z
 _atom_site_occupancy
  Na  Na0  1  0.00338822  0.36438917  0.75074563  1
  Na  Na1  1  0.66814504  0.96573175  0.58323418  1
  Na  Na2  1  0.03570391  0.33327140  0.08333604  1
  Na  Na3  1  0.00498848  0.99513743  0.50127452  1
  Na  Na4  1  0.00517010  0.99521036  0.00077299  1
  Na  Na5  1  0.65847901  0.32813626  0.83393818  1
  Na  Na6  1  0.67636724  0.33694659  0.33329620  1
  Na  Na7  1  0.34319065  0.66991284  0.16712973  1
  Na  Na8  1  0.33406725  0.66622516  0.66652502  1
  Sc  Sc0  1  0.00584752  0.99810490  0.64718888  1
  Sc  Sc1  1  0.99341852  0.99491801  0.14691469  1
  Sc  Sc2  1  0.33130973  0.67138799  0.01877726  1
  Sc  Sc3  1  0.32685907  0.66894071  0.51869241  1
  Sc  Sc4  1  0.33164494  0.66694166  0.31465897  1
  Sc  Sc5  1  0.33363443  0.67510592  0.81480612  1
  Sn  Sn0  1  0.98652523  0.99214759  0.35101783  1
  Sn  Sn1  1  0.00629770  0.00425211  0.85062839  1
  Sn  Sn2  1  0.66246362  0.33553225  0.68507054  1
  Sn  Sn3  1  0.67076531  0.33793537  0.18516170  1
  Sn  Sn4  1  0.66525690  0.32847730  0.98152832  1
  Sn  Sn5  1  0.67263663  0.33538808  0.48125932  1
  P  P0  1  0.70485032  0.70443574  0.24911239  1
  P  P1  1  -0.00083964  0.29236196  0.24897233  1
  P  P2  1  0.29475546  0.29289421  0.74956468  1
  P  P3  1  0.99788561  0.70821963  0.74976116  1
  P  P4  1  0.70747925  0.99859549  0.74830196  1
  P  P5  1  0.96089683  0.33488435  0.58458022  1
  P  P6  1  0.37584904  0.04559178  0.58207795  1
  P  P7  1  0.66500973  0.62431206  0.58246322  1
  P  P8  1  0.95663706  0.62557460  0.08207524  1
  P  P9  1  0.66347760  0.04024882  0.08427590  1
  P  P10  1  0.37668815  0.33369160  0.08336437  1
  P  P11  1  0.03757375  0.37111952  0.91665300  1
  P  P12  1  0.33230868  0.96183472  0.91699166  1
  P  P13  1  0.62571880  0.96090455  0.41760652  1
  P  P14  1  0.03947420  0.66847036  0.41598442  1
  S  S0  1  0.29266749  0.00289325  0.24993916  1
  S  S1  1  0.62860866  0.66746747  0.91677181  1
  S  S2  1  0.33234725  0.37018284  0.41646264  1
  O  O0  1  0.21552830  0.03373976  0.30377932  1
  O  O1  1  0.81968716  0.77926866  0.30514591  1
  O  O2  1  0.96861226  0.17772870  0.30447489  1
  O  O3  1  0.21818404  0.18067023  0.80568010  1
  O  O4  1  0.96259515  0.78513649  0.80598801  1
  O  O5  1  0.82835745  0.04000300  0.80328344  1
  O  O6  1  0.79015859  0.97549455  0.69310091  1
  O  O7  1  0.17777282  0.20899307  0.69668688  1
  O  O8  1  0.02474473  0.81816655  0.69632418  1
  O  O9  1  0.79402072  0.81658187  0.19575113  1
  O  O10  1  0.02455158  0.20955799  0.19362864  1
  O  O11  1  0.18651193  0.97831326  0.19798292  1
  O  O12  1  0.88008561  0.36602050  0.64126071  1
  O  O13  1  0.49627218  0.12424541  0.63705736  1
  O  O14  1  0.63282103  0.51116252  0.63786589  1
  O  O15  1  0.87897603  0.50543188  0.13671347  1
  O  O16  1  0.63159324  0.12355376  0.13937436  1
  O  O17  1  0.49020756  0.36502151  0.13860955  1
  O  O18  1  0.45861252  0.30176104  0.02808650  1
  O  O19  1  0.84128436  0.54191965  0.02725588  1
  O  O20  1  0.70582932  0.16088501  0.02987147  1
  O  O21  1  0.46045044  0.15976480  0.52728803  1
  O  O22  1  0.69712864  0.54153424  0.52754250  1
  O  O23  1  0.83851793  0.29520147  0.53084652  1
  O  O24  1  0.54951441  0.69307012  0.96924714  1
  O  O25  1  0.14611548  0.45187422  0.97207941  1
  O  O26  1  0.30785865  0.85279710  0.97143460  1
  O  O27  1  0.54823626  0.85493496  0.47361635  1
  O  O28  1  0.30544808  0.44892322  0.46902461  1
  O  O29  1  0.14747937  0.69412474  0.47094986  1
  O  O30  1  0.12231943  0.63857510  0.36142066  1
  O  O31  1  0.51482116  0.87331407  0.36320351  1
  O  O32  1  0.35902967  0.47693804  0.36360563  1
  O  O33  1  0.12095523  0.47868423  0.86098628  1
  O  O34  1  0.36227581  0.88019143  0.86208620  1
  O  O35  1  0.52257962  0.64078776  0.86371232  1
  O  O36  1  0.02365106  0.83744522  0.41010273  1
  O  O37  1  0.81363595  0.98469822  0.41233342  1
  O  O38  1  0.17509161  0.19240037  0.41001288  1
  O  O39  1  0.01422137  0.18309621  0.91129572  1
  O  O40  1  0.16466439  0.97849557  0.91145255  1
  O  O41  1  0.80579235  0.82558883  0.91114770  1
  O  O42  1  0.96969059  0.16646089  0.58996254  1
  O  O43  1  0.19751319  0.02726329  0.58830303  1
  O  O44  1  0.82637866  0.80687747  0.58817366  1
  O  O45  1  0.97606974  0.80516078  0.08896518  1
  O  O46  1  0.83259515  0.03133060  0.09009617  1
  O  O47  1  0.19358857  0.17195704  0.08939637  1
  O  O48  1  0.69714301  0.17211396  0.74452947  1
  O  O49  1  0.47815587  0.31045955  0.74454579  1
  O  O50  1  0.83401984  0.51927816  0.74511287  1
  O  O51  1  0.68619724  0.51831343  0.24471338  1
  O  O52  1  0.82875537  0.30577639  0.24518846  1
  O  O53  1  0.46937497  0.16204936  0.24548388  1
  O  O54  1  0.64789049  0.50851666  0.92144498  1
  O  O55  1  0.85254557  0.35399983  0.92166523  1
  O  O56  1  0.49677398  0.14916032  0.92181629  1
  O  O57  1  0.64466958  0.14709646  0.42172216  1
  O  O58  1  0.49085302  0.35144276  0.42135409  1
  O  O59  1  0.85202376  0.50444323  0.42127755  1
  O  O60  1  0.35476250  0.49564129  0.07720080  1
  O  O61  1  0.13485089  0.63443210  0.07609543  1
  O  O62  1  0.50325442  0.86069443  0.07721670  1
  O  O63  1  0.36657971  0.86639222  0.57660786  1
  O  O64  1  0.50323860  0.64585526  0.57641747  1
  O  O65  1  0.13936431  0.49724845  0.57743729  1
  O  O66  1  0.31165024  0.84657503  0.25596140  1
  O  O67  1  0.52425536  0.68701760  0.25662754  1
  O  O68  1  0.16016854  0.47465839  0.25668675  1
  O  O69  1  0.30931507  0.47357505  0.75735557  1
  O  O70  1  0.15630294  0.67998497  0.75643051  1
  O  O71  1  0.52691154  0.83901990  0.75665190  1
loop_
_geom_bond_atom_site_label_1
_geom_bond_atom_site_label_2
_geom_bond_distance
_geom_bond_site_symmetry_2
Na0 O48 2.377378 1_455
Na0 O69 2.381356 1_555
Na0 O70 2.418698 1_555
Na0 O50 2.484427 1_455
Na0 O33 2.722348 1_555
Na0 O12 2.736704 1_455
Na0 O5 2.764168 1_455
Na0 O7 2.808890 1_555
Na1 O42 2.358545 1_565
Na1 O63 2.360504 1_555
Na1 O44 2.427902 1_555
Na1 O64 2.453102 1_555
Na1 O27 2.708113 1_555
Na1 O6 2.721436 1_555
Na1 O23 2.795724 1_565
Na1 O13 2.809986 1_565
Na2 O61 2.354348 1_555
Na2 O46 2.363063 1_455
Na2 O47 2.445421 1_555
Na2 O60 2.450285 1_555
Na2 O10 2.735790 1_555
Na2 O25 2.743943 1_554
Na2 O15 2.795097 1_455
Na2 O20 2.809150 1_455
Na3 O43 2.543051 1_565
Na3 O36 2.556326 1_555
Na3 O44 2.571375 1_455
Na3 O37 2.619983 1_455
Na3 O42 2.638348 1_465
Na3 O38 2.658011 1_565
Na4 O40 2.528919 1_554
Na4 O45 2.558181 1_455
Na4 O47 2.592587 1_565
Na4 O39 2.615121 1_564
Na4 O41 2.629760 1_454
Na4 O46 2.662866 1_465
Na5 O56 2.519949 1_555
Na5 O49 2.551136 1_555
Na5 O55 2.576964 1_555
Na5 O48 2.580188 1_555
Na5 O54 2.586341 1_555
Na5 O50 2.606879 1_555
Na6 O52 2.514818 1_555
Na6 O59 2.520584 1_555
Na6 O57 2.556253 1_555
Na6 O51 2.561588 1_555
Na6 O53 2.635348 1_555
Na6 O58 2.641277 1_555
Na7 O67 2.558260 1_555
Na7 O62 2.591512 1_555
Na7 O60 2.599164 1_555
Na7 O68 2.651105 1_555
Na7 O66 2.657427 1_555
Na7 O61 2.694509 1_555
Na8 O65 2.603028 1_555
Na8 O64 2.605550 1_555
Na8 O71 2.623987 1_555
Na8 O70 2.628317 1_555
Na8 O69 2.628921 1_555
Na8 O63 2.637160 1_555
O0 S0 1.497092 1_555
O0 Sn0 2.159656 1_445
O1 P0 1.562391 1_555
O1 Sn0 2.009498 1_555
O2 P1 1.563796 1_655
O2 Sn0 2.027945 1_545
O3 P2 1.558024 1_555
O3 Sn1 2.023045 1_555
O4 P3 1.556137 1_555
O4 Sn1 2.044524 1_665
O5 P4 1.571552 1_545
O5 Sn1 2.061287 1_655
O6 P4 1.522998 1_555
O6 Sc0 2.098165 1_655
O7 P2 1.522057 1_555
O7 Sc0 2.056728 1_545
O8 P3 1.507045 1_455
O8 Sc0 2.022570 1_555
O9 P0 1.523626 1_555
O9 Sc1 2.019325 1_555
O10 P1 1.532461 1_555
O10 Sc1 2.068657 1_445
O11 S0 1.462749 1_565
O11 Sc1 2.134546 1_455
O12 P5 1.569395 1_555
O12 Sn2 2.065214 1_555
O13 P6 1.568364 1_555
O13 Sn2 2.026062 1_555
O14 P7 1.552523 1_555
O14 Sn2 2.013644 1_555
O15 P8 1.562421 1_555
O15 Sn3 2.024667 1_555
O16 P9 1.553327 1_555
O16 Sn3 2.033904 1_555
O17 P10 1.551212 1_555
O17 Sn3 2.031231 1_555
O18 P10 1.551305 1_555
O18 Sn4 2.025052 1_554
O19 P8 1.551171 1_555
O19 Sn4 2.033807 1_554
O20 P9 1.560311 1_555
O20 Sn4 2.020075 1_554
O21 P6 1.550135 1_555
O21 Sn5 2.035064 1_555
O22 P7 1.548282 1_555
O22 Sn5 2.019531 1_555
O23 P5 1.558225 1_555
O23 Sn5 2.022085 1_555
O24 S1 1.462468 1_555
O24 Sc2 2.162552 1_556
O25 P11 1.534176 1_555
O25 Sc2 2.099280 1_556
O26 P12 1.524894 1_555
O26 Sc2 2.030486 1_556
O27 P13 1.534672 1_555
O27 Sc3 2.096633 1_555
O28 S2 1.465544 1_555
O28 Sc3 2.173284 1_555
O29 P14 1.526697 1_555
O29 Sc3 2.028483 1_555
O30 P14 1.535190 1_555
O30 Sc4 2.042715 1_555
O31 P13 1.533229 1_555
O31 Sc4 2.055958 1_555
O32 S2 1.480584 1_555
O32 Sc4 2.131405 1_555
O33 P11 1.541716 1_555
O33 Sc5 2.101970 1_555
O34 P12 1.534566 1_555
O34 Sc5 2.011542 1_555
O35 S1 1.479672 1_555
O35 Sc5 2.155288 1_555
O36 P14 1.572289 1_555
O36 Sn0 2.063907 1_455
O37 P13 1.572311 1_555
O37 Sn0 2.051922 1_555
O38 S2 1.497327 1_555
O38 Sn0 2.186421 1_445
O39 P11 1.571652 1_555
O39 Sn1 2.074778 1_555
O40 P12 1.566264 1_555
O40 Sn1 2.067070 1_565
O41 S1 1.496813 1_555
O41 Sn1 2.184555 1_665
O42 P5 1.532381 1_555
O42 Sc0 2.124121 1_645
O43 P6 1.509668 1_555
O43 Sc0 2.078713 1_545
O44 P7 1.535317 1_555
O44 Sc0 2.124337 1_655
O45 P8 1.514915 1_555
O45 Sc1 2.078917 1_555
O46 P9 1.542138 1_555
O46 Sc1 2.068216 1_545
O47 P10 1.541255 1_555
O47 Sc1 2.135537 1_445
O48 P4 1.581960 1_545
O48 Sn2 2.116592 1_555
O49 P2 1.554606 1_555
O49 Sn2 2.049178 1_555
O50 P3 1.575720 1_555
O50 Sn2 2.087804 1_555
O51 P0 1.570364 1_555
O51 Sn3 2.045707 1_555
O52 P1 1.571753 1_655
O52 Sn3 2.078506 1_555
O53 S0 1.496047 1_555
O53 Sn3 2.177585 1_555
O54 S1 1.499632 1_555
O54 Sn4 2.167202 1_555
O55 P11 1.570556 1_655
O55 Sn4 2.073500 1_555
O56 P12 1.569594 1_545
O56 Sn4 2.057543 1_555
O57 P13 1.569495 1_545
O57 Sn5 2.064065 1_555
O58 S2 1.495349 1_555
O58 Sn5 2.171448 1_555
O59 P14 1.570686 1_655
O59 Sn5 2.068312 1_555
O60 P10 1.542396 1_555
O60 Sc2 2.137991 1_555
O61 P8 1.544520 1_455
O61 Sc2 2.069195 1_555
O62 P9 1.518572 1_565
O62 Sc2 2.086013 1_555
O63 P6 1.547495 1_565
O63 Sc3 2.073028 1_555
O64 P7 1.540586 1_555
O64 Sc3 2.130938 1_555
O65 P5 1.522430 1_455
O65 Sc3 2.087663 1_555
O66 S0 1.477670 1_565
O66 Sc4 2.154699 1_555
O67 P0 1.535841 1_555
O67 Sc4 2.096586 1_555
O68 P1 1.537115 1_555
O68 Sc4 2.089487 1_555
O69 P2 1.544787 1_555
O69 Sc5 2.132531 1_555
O70 P3 1.548063 1_455
O70 Sc5 2.077614 1_555
O71 P4 1.526233 1_555
O71 Sc5 2.080863 1_555
