# generated using pymatgen
data_MgZn2Bi3O8
_symmetry_space_group_name_H-M   'P 1'
_cell_length_a   5.96749704
_cell_length_b   6.93370932
_cell_length_c   8.24350583
_cell_angle_alpha   114.92369942
_cell_angle_beta   126.35662230
_cell_angle_gamma   89.97908972
_symmetry_Int_Tables_number   1
_chemical_formula_structural   MgZn2Bi3O8
_chemical_formula_sum   'Mg1 Zn2 Bi3 O8'
_cell_volume   234.13135166
_cell_formula_units_Z   1
loop_
 _symmetry_equiv_pos_site_id
 _symmetry_equiv_pos_as_xyz
  1  'x, y, z'
loop_
 _atom_site_type_symbol
 _atom_site_label
 _atom_site_symmetry_multiplicity
 _atom_site_fract_x
 _atom_site_fract_y
 _atom_site_fract_z
 _atom_site_occupancy
  Mg  Mg0  1  0.49940206  0.48483251  0.99969731  1
  Zn  Zn0  1  0.70177229  0.71528764  0.44156752  1
  Zn  Zn1  1  0.29927283  0.27217794  0.55852123  1
  Bi  Bi0  1  0.49993510  0.97381857  0.00003444  1
  Bi  Bi1  1  0.99918622  0.71956568  0.99923553  1
  Bi  Bi2  1  0.00055695  0.25800263  0.00074501  1
  O  O0  1  0.01076760  0.38871500  0.80359685  1
  O  O1  1  0.98875022  0.58627136  0.19628272  1
  O  O2  1  -0.01660585  0.89020556  0.77114858  1
  O  O3  1  0.01741304  0.11861254  0.22907858  1
  O  O4  1  0.50498585  0.38759923  0.21063786  1
  O  O5  1  0.51779513  0.80940807  0.20404778  1
  O  O6  1  0.49574206  0.17662741  0.78990144  1
  O  O7  1  0.48102350  0.60467487  0.79550316  1
loop_
_geom_bond_atom_site_label_1
_geom_bond_atom_site_label_2
_geom_bond_distance
_geom_bond_site_symmetry_2
Mg0 O6 2.097279 1_555
Mg0 O4 2.097316 1_556
Mg0 O7 2.120343 1_555
Mg0 O5 2.121396 1_556
Mg0 O0 2.250491 1_555
Mg0 O1 2.253549 1_556
Bi0 O5 2.354262 1_555
Bi0 O7 2.354599 1_554
Bi0 O2 2.362517 1_554
Bi0 O3 2.366581 1_665
Bi0 O6 2.642029 1_564
Bi0 O4 2.643163 1_565
Bi1 O1 2.209502 1_556
Bi1 O0 2.209555 1_655
Bi1 O7 2.394497 1_555
Bi1 O5 2.395064 1_656
Bi1 O3 2.568036 1_666
Bi1 O2 2.570770 1_655
Bi2 O0 2.196647 1_554
Bi2 O1 2.196873 1_455
Bi2 O4 2.319231 1_555
Bi2 O6 2.319741 1_454
Bi2 O3 2.407461 1_555
Bi2 O2 2.408016 1_544
O2 Zn0 1.867521 1_455
O3 Zn1 1.867236 1_555
O4 Zn0 1.967590 1_555
O5 Zn0 1.998187 1_555
O6 Zn1 1.965899 1_555
O7 Zn1 2.000396 1_555
