# generated using pymatgen
data_Na6Sc2Nb2Si5SO24
_symmetry_space_group_name_H-M   'P 1'
_cell_length_a   9.14164382
_cell_length_b   9.12735969
_cell_length_c   22.68834946
_cell_angle_alpha   89.74635639
_cell_angle_beta   90.31275853
_cell_angle_gamma   120.08460114
_symmetry_Int_Tables_number   1
_chemical_formula_structural   Na6Sc2Nb2Si5SO24
_chemical_formula_sum   'Na18 Sc6 Nb6 Si15 S3 O72'
_cell_volume   1638.04123523
_cell_formula_units_Z   3
loop_
 _symmetry_equiv_pos_site_id
 _symmetry_equiv_pos_as_xyz
  1  'x, y, z'
loop_
 _atom_site_type_symbol
 _atom_site_label
 _atom_site_symmetry_multiplicity
 _atom_site_fract_x
 _atom_site_fract_y
 _atom_site_fract_z
 _atom_site_occupancy
  Na  Na0  1  0.64248278  0.01496020  0.24799934  1
  Na  Na1  1  0.36658091  0.35306483  0.25222771  1
  Na  Na2  1  0.99099537  0.62845336  0.24843430  1
  Na  Na3  1  0.99282166  0.35707359  0.74948812  1
  Na  Na4  1  0.29764834  0.34236397  0.58067558  1
  Na  Na5  1  0.66115408  0.95941748  0.58039292  1
  Na  Na6  1  0.66687363  0.69993088  0.07647343  1
  Na  Na7  1  0.02094688  0.33655811  0.08054603  1
  Na  Na8  1  0.95573653  0.66396434  0.91262279  1
  Na  Na9  1  0.71341291  0.03618893  0.91840878  1
  Na  Na10  1  0.32935844  0.30487457  0.91314632  1
  Na  Na11  1  0.69940090  0.67452404  0.41679600  1
  Na  Na12  1  0.00883513  0.01229970  0.49461720  1
  Na  Na13  1  0.99208027  0.99624603  0.99704899  1
  Na  Na14  1  0.66402779  0.34139967  0.83117629  1
  Na  Na15  1  0.66170624  0.32072114  0.33240100  1
  Na  Na16  1  0.32928728  0.68752822  0.16139179  1
  Na  Na17  1  0.33033314  0.67634999  0.66075057  1
  Sc  Sc0  1  0.00542887  0.01394009  0.35308444  1
  Sc  Sc1  1  0.99212072  0.99909635  0.84832912  1
  Sc  Sc2  1  0.67406995  0.32852670  0.18472540  1
  Sc  Sc3  1  0.68849380  0.34580769  0.98183323  1
  Sc  Sc4  1  0.33554194  0.67160786  0.01853238  1
  Sc  Sc5  1  0.33531876  0.66390766  0.52162451  1
  Nb  Nb0  1  0.99482613  0.99202595  0.64673952  1
  Nb  Nb1  1  0.99236490  0.99200081  0.15066129  1
  Nb  Nb2  1  0.66597337  0.33533814  0.68706727  1
  Nb  Nb3  1  0.65442234  0.32002847  0.48104140  1
  Nb  Nb4  1  0.34528289  0.67163506  0.31323263  1
  Nb  Nb5  1  0.33490115  0.65285416  0.80731036  1
  Si  Si0  1  0.29047758  0.00041419  0.25205941  1
  Si  Si1  1  0.70803754  0.70444866  0.25360118  1
  Si  Si2  1  0.00200161  0.29433256  0.25029854  1
  Si  Si3  1  0.29151627  0.28119340  0.75079730  1
  Si  Si4  1  0.00088037  0.70954441  0.75240274  1
  Si  Si5  1  0.70456576  0.99897546  0.75034487  1
  Si  Si6  1  0.95680056  0.33481587  0.58454752  1
  Si  Si7  1  0.37197794  0.04054788  0.58560682  1
  Si  Si8  1  0.67113977  0.62351525  0.58171457  1
  Si  Si9  1  0.96663116  0.63339240  0.08452908  1
  Si  Si10  1  0.66448068  0.03527257  0.08397270  1
  Si  Si11  1  0.62605838  0.66562850  0.91837070  1
  Si  Si12  1  0.04388248  0.37349435  0.91728433  1
  Si  Si13  1  0.62850850  0.96071334  0.41981786  1
  Si  Si14  1  0.33235159  0.37106295  0.42007349  1
  S  S0  1  0.37047750  0.32834636  0.08297162  1
  S  S1  1  0.33298968  0.95654219  0.91567399  1
  S  S2  1  0.04220072  0.66387789  0.41634553  1
  O  O0  1  0.20249030  0.03402499  0.30647460  1
  O  O1  1  0.82397914  0.78475379  0.31025589  1
  O  O2  1  0.96138932  0.16658301  0.30405756  1
  O  O3  1  0.21428348  0.18177629  0.81136359  1
  O  O4  1  0.97027262  0.78424098  0.81197153  1
  O  O5  1  0.82144438  0.04235935  0.80874413  1
  O  O6  1  0.79803689  0.97106066  0.69232508  1
  O  O7  1  0.16517616  0.19527789  0.69342603  1
  O  O8  1  0.02462645  0.83527376  0.69541717  1
  O  O9  1  0.79736300  0.83278031  0.19456338  1
  O  O10  1  0.03866974  0.20820333  0.19086248  1
  O  O11  1  0.16193137  0.96565931  0.19380839  1
  O  O12  1  0.86177081  0.35272534  0.64272201  1
  O  O13  1  0.50016655  0.14334884  0.64018469  1
  O  O14  1  0.64852613  0.49931694  0.63755172  1
  O  O15  1  0.87573806  0.51923428  0.14257710  1
  O  O16  1  0.64430984  0.12184018  0.14319059  1
  O  O17  1  0.47234104  0.35039105  0.13625720  1
  O  O18  1  0.44984320  0.30764274  0.02959709  1
  O  O19  1  0.84599713  0.55716883  0.02509540  1
  O  O20  1  0.70113599  0.15464831  0.02513119  1
  O  O21  1  0.46461076  0.16843122  0.52643806  1
  O  O22  1  0.69712672  0.53335326  0.52295301  1
  O  O23  1  0.82520131  0.30236988  0.52823510  1
  O  O24  1  0.54338736  0.69890036  0.97641817  1
  O  O25  1  0.15806706  0.46435876  0.97524702  1
  O  O26  1  0.30744493  0.85362429  0.96920482  1
  O  O27  1  0.53488000  0.84678596  0.47676426  1
  O  O28  1  0.31490248  0.46285786  0.47785812  1
  O  O29  1  0.14473447  0.68256761  0.46855767  1
  O  O30  1  0.12401664  0.64439431  0.36144789  1
  O  O31  1  0.50385982  0.86380206  0.35917113  1
  O  O32  1  0.35952189  0.50047158  0.36023480  1
  O  O33  1  0.14181128  0.49712224  0.85868561  1
  O  O34  1  0.35878677  0.87680826  0.86312472  1
  O  O35  1  0.49831425  0.64783310  0.86111041  1
  O  O36  1  0.01806108  0.81136830  0.41162245  1
  O  O37  1  0.80666102  0.96577553  0.41278061  1
  O  O38  1  0.17468435  0.18321962  0.41382843  1
  O  O39  1  0.02784149  0.18717482  0.91291535  1
  O  O40  1  0.18039563  0.97431229  0.91104441  1
  O  O41  1  0.81596494  0.83008993  0.91265392  1
  O  O42  1  0.96431783  0.15619348  0.58985851  1
  O  O43  1  0.19233152  0.03918190  0.59094293  1
  O  O44  1  0.83963890  0.81289062  0.58924917  1
  O  O45  1  0.97933766  0.82297818  0.09175778  1
  O  O46  1  0.84758062  0.02731773  0.09051256  1
  O  O47  1  0.19671767  0.17816279  0.08767706  1
  O  O48  1  0.68976015  0.16915496  0.74039674  1
  O  O49  1  0.48207136  0.31475562  0.74125167  1
  O  O50  1  0.84062436  0.51666707  0.74169297  1
  O  O51  1  0.67030506  0.51475944  0.24215648  1
  O  O52  1  0.84092958  0.32301971  0.24426508  1
  O  O53  1  0.47858898  0.16081893  0.24323594  1
  O  O54  1  0.62730290  0.48610147  0.91862482  1
  O  O55  1  0.85597530  0.35870170  0.91773857  1
  O  O56  1  0.48588715  0.12772737  0.92155152  1
  O  O57  1  0.64296433  0.14975415  0.42278836  1
  O  O58  1  0.51937195  0.37498644  0.42100677  1
  O  O59  1  0.87087348  0.50758873  0.41908571  1
  O  O60  1  0.35254857  0.48223204  0.07919036  1
  O  O61  1  0.14788267  0.64168358  0.07916834  1
  O  O62  1  0.51253918  0.83873150  0.08092436  1
  O  O63  1  0.36485486  0.86254900  0.58059259  1
  O  O64  1  0.50367948  0.64231603  0.58070236  1
  O  O65  1  0.14569107  0.49361633  0.58101355  1
  O  O66  1  0.30104178  0.82332490  0.25682622  1
  O  O67  1  0.52207238  0.69980939  0.25676143  1
  O  O68  1  0.17616628  0.48176183  0.25736509  1
  O  O69  1  0.30297398  0.47245573  0.75502415  1
  O  O70  1  0.16821736  0.68335947  0.75631469  1
  O  O71  1  0.51588252  0.82996231  0.75726051  1
loop_
_geom_bond_atom_site_label_1
_geom_bond_atom_site_label_2
_geom_bond_distance
_geom_bond_site_symmetry_2
Na0 O53 2.454695 1_555
Na0 O52 2.467774 1_555
Na0 O67 2.519588 1_545
Na0 O16 2.563218 1_555
Na0 O66 2.715221 1_545
Na0 O2 2.821744 1_555
Na0 O31 2.850028 1_545
Na0 O9 2.938778 1_545
Na1 O51 2.415620 1_555
Na1 O53 2.444540 1_555
Na1 O68 2.544968 1_555
Na1 O67 2.745641 1_555
Na1 O0 2.802458 1_555
Na1 O17 2.812551 1_555
Na1 O32 2.817318 1_555
Na1 O10 2.944426 1_555
Na2 O52 2.414427 1_555
Na2 O66 2.485203 1_655
Na2 O51 2.576508 1_555
Na2 O15 2.610124 1_555
Na2 O68 2.639183 1_655
Na2 O30 2.804702 1_655
Na2 O1 2.925497 1_555
Na2 O11 2.935357 1_655
Na3 O48 2.427517 1_555
Na3 O50 2.473033 1_555
Na3 O69 2.483446 1_655
Na3 O70 2.584215 1_655
Na3 O12 2.688139 1_555
Na3 O33 2.805859 1_655
Na3 O5 2.826705 1_555
Na3 O7 2.941513 1_655
Na4 O65 2.399690 1_555
Na4 O64 2.423458 1_555
Na4 O43 2.442249 1_555
Na4 O28 2.546285 1_555
Na4 O42 2.651196 1_455
Na4 O7 2.861176 1_555
Na5 O63 2.391171 1_555
Na5 O42 2.441157 1_565
Na5 O64 2.504418 1_555
Na5 O44 2.583229 1_555
Na5 O27 2.592175 1_555
Na5 O6 2.803721 1_555
Na6 O62 2.323879 1_555
Na6 O45 2.513404 1_555
Na6 O24 2.527706 1_554
Na6 O60 2.546645 1_555
Na6 O46 2.610239 1_565
Na6 O19 2.812744 1_555
Na6 O9 2.935214 1_555
Na7 O61 2.421432 1_555
Na7 O46 2.458286 1_455
Na7 O60 2.630188 1_555
Na7 O47 2.649964 1_555
Na7 O25 2.679861 1_554
Na7 O10 2.796991 1_555
Na7 O20 2.827838 1_455
Na7 O15 2.963622 1_455
Na8 O41 2.423665 1_555
Na8 O55 2.461528 1_555
Na8 O4 2.504512 1_555
Na8 O40 2.531914 1_655
Na8 O54 2.604695 1_555
Na8 O19 2.737497 1_556
Na9 O41 2.491226 1_545
Na9 O39 2.491565 1_655
Na9 O55 2.552969 1_555
Na9 O56 2.602650 1_555
Na9 O5 2.671893 1_555
Na9 O20 2.681865 1_556
Na10 O54 2.377266 1_555
Na10 O39 2.404754 1_555
Na10 O3 2.552116 1_555
Na10 O40 2.615595 1_545
Na10 O56 2.648038 1_555
Na10 O18 2.852239 1_556
Na10 O35 2.952660 1_555
Na10 O25 2.980541 1_555
Na11 O37 2.328555 1_555
Na11 O58 2.383433 1_555
Na11 O36 2.532684 1_655
Na11 O1 2.648012 1_555
Na11 O59 2.678512 1_555
Na11 O22 2.721750 1_555
Na12 O38 2.392886 1_555
Na12 O37 2.495263 1_445
Na12 O36 2.665276 1_545
Na12 O42 2.670299 1_455
Na12 O43 2.683737 1_555
Na12 O44 2.737544 1_445
Na13 O41 2.470342 1_555
Na13 O39 2.488716 1_665
Na13 O46 2.594905 1_566
Na13 O45 2.630565 1_556
Na13 O40 2.682707 1_655
Na13 O47 2.712687 1_666
Na14 O54 2.503717 1_555
Na14 O49 2.559366 1_555
Na14 O55 2.578448 1_555
Na14 O50 2.589410 1_555
Na14 O48 2.678394 1_555
Na14 O56 2.734387 1_555
Na15 O57 2.525359 1_555
Na15 O53 2.562161 1_555
Na15 O58 2.581324 1_555
Na15 O52 2.585411 1_555
Na15 O59 2.674387 1_555
Na15 O51 2.676780 1_555
Na16 O61 2.383855 1_555
Na16 O62 2.395269 1_555
Na16 O66 2.577204 1_555
Na16 O60 2.733024 1_555
Na16 O67 2.750077 1_555
Na16 O68 2.754900 1_555
Na17 O63 2.395120 1_555
Na17 O65 2.464689 1_555
Na17 O64 2.536939 1_555
Na17 O70 2.651953 1_555
Na17 O71 2.690704 1_555
Na17 O69 2.757686 1_555
Nb0 O8 1.927287 1_655
Nb0 O6 2.004012 1_555
Nb0 O44 2.015065 1_555
Nb0 O7 2.022799 1_665
Nb0 O43 2.070938 1_665
Nb0 O42 2.094382 1_565
Nb1 O9 1.921255 1_555
Nb1 O11 1.942673 1_655
Nb1 O45 2.003135 1_555
Nb1 O10 2.019780 1_665
Nb1 O46 2.030321 1_565
Nb1 O47 2.290063 1_665
Nb2 O14 1.936518 1_555
Nb2 O13 1.958483 1_555
Nb2 O12 1.993667 1_555
Nb2 O49 2.019111 1_555
Nb2 O48 2.030655 1_555
Nb2 O50 2.042475 1_555
Nb3 O21 1.893704 1_555
Nb3 O23 1.960183 1_555
Nb3 O57 2.006648 1_555
Nb3 O22 2.024368 1_555
Nb3 O58 2.056105 1_555
Nb3 O59 2.331292 1_555
Nb4 O31 1.927378 1_555
Nb4 O32 1.944854 1_555
Nb4 O67 1.980569 1_555
Nb4 O66 2.063574 1_555
Nb4 O68 2.076570 1_555
Nb4 O30 2.206240 1_555
Nb5 O69 1.932702 1_555
Nb5 O35 1.942142 1_555
Nb5 O71 1.990685 1_555
Nb5 O33 1.996807 1_555
Nb5 O70 2.035018 1_555
Nb5 O34 2.324239 1_555
O0 Si0 1.589618 1_555
O0 Sc0 2.021183 1_555
O1 Si1 1.589810 1_555
O1 Sc0 2.143180 1_665
O2 Si2 1.594821 1_655
O2 Sc0 1.970835 1_655
O3 Si3 1.602317 1_555
O3 Sc1 2.054134 1_445
O4 Si4 1.604138 1_655
O4 Sc1 2.045959 1_555
O5 Si5 1.618336 1_545
O5 Sc1 1.999052 1_545
O6 Si5 1.661749 1_555
O7 Si3 1.651604 1_555
O8 Si4 1.666087 1_555
O9 Si1 1.694732 1_555
O10 Si2 1.681472 1_555
O11 Si0 1.685602 1_565
O12 Si6 1.637162 1_555
O13 Si7 1.636788 1_555
O14 Si8 1.639484 1_555
O15 Si9 1.625555 1_555
O15 Sc2 2.032338 1_555
O16 Si10 1.619144 1_555
O16 Sc2 2.004828 1_555
O17 S0 1.473508 1_555
O17 Sc2 2.234904 1_555
O18 S0 1.475687 1_555
O18 Sc3 2.305624 1_554
O19 Si9 1.655710 1_555
O19 Sc3 1.993692 1_554
O20 Si10 1.645513 1_555
O20 Sc3 2.051436 1_554
O21 Si7 1.699784 1_555
O22 Si8 1.649324 1_555
O23 Si6 1.672343 1_555
O24 Si11 1.625539 1_555
O24 Sc4 2.031849 1_556
O25 Si12 1.622836 1_555
O25 Sc4 2.024147 1_556
O26 S1 1.478205 1_555
O26 Sc4 2.118187 1_556
O27 Si13 1.609684 1_555
O27 Sc5 2.025482 1_555
O28 Si14 1.610046 1_555
O28 Sc5 2.014702 1_555
O29 S2 1.462989 1_555
O29 Sc5 2.187886 1_555
O30 S2 1.512570 1_555
O31 Si13 1.719686 1_555
O32 Si14 1.730715 1_555
O33 Si12 1.682041 1_555
O34 S1 1.479710 1_555
O35 Si11 1.695001 1_555
O36 S2 1.472660 1_555
O36 Sc0 2.320886 1_565
O37 Si13 1.614720 1_555
O37 Sc0 2.133108 1_665
O38 Si14 1.599843 1_555
O38 Sc0 2.068696 1_555
O39 Si12 1.635453 1_555
O39 Sc1 2.157745 1_445
O40 S1 1.486047 1_555
O40 Sc1 2.323557 1_455
O41 Si11 1.634655 1_555
O41 Sc1 2.148950 1_555
O42 Si6 1.669665 1_555
O43 Si7 1.641180 1_555
O44 Si8 1.649260 1_555
O45 Si9 1.683902 1_555
O46 Si10 1.716987 1_555
O47 S0 1.493714 1_555
O48 Si5 1.639910 1_545
O49 Si3 1.625977 1_555
O50 Si4 1.648856 1_655
O51 Si1 1.608815 1_555
O51 Sc2 2.160360 1_555
O52 Si2 1.624641 1_655
O52 Sc2 2.051309 1_555
O53 Si0 1.617965 1_555
O53 Sc2 2.136426 1_555
O54 Si11 1.644325 1_555
O54 Sc3 2.168493 1_555
O55 Si12 1.654316 1_655
O55 Sc3 2.077217 1_555
O56 S1 1.490994 1_545
O56 Sc3 2.358699 1_555
O57 Si13 1.664780 1_545
O58 Si14 1.692024 1_555
O59 S2 1.500721 1_655
O60 S0 1.495532 1_555
O60 Sc4 2.269782 1_555
O61 Si9 1.625536 1_455
O61 Sc4 2.112559 1_555
O62 Si10 1.629151 1_565
O62 Sc4 2.113857 1_555
O63 Si7 1.597559 1_565
O63 Sc5 2.162594 1_555
O64 Si8 1.623720 1_555
O64 Sc5 2.117426 1_555
O65 Si6 1.606319 1_455
O65 Sc5 2.131240 1_555
O66 Si0 1.669872 1_565
O67 Si1 1.681119 1_555
O68 Si2 1.660179 1_555
O69 Si3 1.698753 1_555
O70 Si4 1.664319 1_555
O71 Si5 1.647029 1_555
