# generated using pymatgen
data_MgFe6O11F
_symmetry_space_group_name_H-M   'P 1'
_cell_length_a   5.17152353
_cell_length_b   5.17152241
_cell_length_c   8.77441174
_cell_angle_alpha   89.73310808
_cell_angle_beta   90.26689467
_cell_angle_gamma   104.54781443
_symmetry_Int_Tables_number   1
_chemical_formula_structural   MgFe6O11F
_chemical_formula_sum   'Mg1 Fe6 O11 F1'
_cell_volume   227.14077011
_cell_formula_units_Z   1
loop_
 _symmetry_equiv_pos_site_id
 _symmetry_equiv_pos_as_xyz
  1  'x, y, z'
loop_
 _atom_site_type_symbol
 _atom_site_label
 _atom_site_symmetry_multiplicity
 _atom_site_fract_x
 _atom_site_fract_y
 _atom_site_fract_z
 _atom_site_occupancy
  Mg  Mg0  1  0.69595144  0.30404817  0.00852285  1
  Fe  Fe0  1  0.04126958  0.95873028  0.00671938  1
  Fe  Fe1  1  0.99641853  0.00358145  0.33588657  1
  Fe  Fe2  1  0.00058594  -0.00058577  0.65660753  1
  Fe  Fe3  1  0.41730302  0.58269695  0.18580179  1
  Fe  Fe4  1  0.41235773  0.58764228  0.81667115  1
  Fe  Fe5  1  0.58507235  0.41492800  0.50166044  1
  O  O0  1  0.19036815  0.80963131  0.17250841  1
  O  O1  1  0.14763100  0.85236886  0.49167856  1
  O  O2  1  0.17795244  0.82204760  0.82945866  1
  O  O3  1  0.31314109  0.31520769  0.99654978  1
  O  O4  1  0.31945718  0.29897472  0.33490148  1
  O  O5  1  0.30976238  0.30910243  0.66693875  1
  O  O6  1  0.68479214  0.68685876  0.99654970  1
  O  O7  1  0.70102508  0.68054325  0.33490154  1
  O  O8  1  0.69089760  0.69023785  0.66693880  1
  O  O9  1  0.86592491  0.13407498  0.15834849  1
  O  O10  1  0.82097052  0.17902986  0.50175856  1
  F  F0  1  0.83744992  0.16255034  0.83759555  1
loop_
_geom_bond_atom_site_label_1
_geom_bond_atom_site_label_2
_geom_bond_distance
_geom_bond_site_symmetry_2
Mg0 O9 1.907945 1_555
Mg0 O3 1.997257 1_554
Mg0 O6 1.997257 1_554
Fe0 O0 1.892890 1_555
Fe0 O2 1.920920 1_554
Fe0 O9 1.962207 1_465
Fe0 O3 2.020114 1_564
Fe0 O6 2.020115 1_454
Fe1 O1 1.838201 1_645
Fe1 O9 1.883287 1_555
Fe1 O7 1.960245 1_545
Fe1 O4 1.960246 1_655
Fe1 O10 2.050116 1_555
Fe1 O0 2.144608 1_645
Fe2 O1 1.887283 1_545
Fe2 O5 1.960427 1_555
Fe2 O8 1.960428 1_445
Fe2 O10 1.995419 1_455
Fe2 O2 2.092785 1_545
Fe3 O0 1.859477 1_555
Fe3 O4 1.932818 1_555
Fe3 O7 1.932818 1_555
Fe3 O3 2.144758 1_554
Fe3 O6 2.144759 1_554
Fe4 O2 1.921558 1_555
Fe4 O5 1.926075 1_555
Fe4 O8 1.926075 1_555
Fe4 O6 2.088792 1_555
Fe4 O3 2.088793 1_555
Fe5 O10 1.929826 1_555
Fe5 O7 1.990750 1_555
Fe5 O4 1.990750 1_555
Fe5 O8 2.012503 1_555
Fe5 O5 2.012503 1_555
F0 Mg0 1.899938 1_556
F0 Fe2 2.080388 1_655
F0 Fe0 2.225587 1_646
