# generated using pymatgen
data_EuScO3
_symmetry_space_group_name_H-M   'P 1'
_cell_length_a   5.60066800
_cell_length_b   5.81582500
_cell_length_c   8.02309500
_cell_angle_alpha   90.00000000
_cell_angle_beta   90.00000000
_cell_angle_gamma   90.00000000
_symmetry_Int_Tables_number   1
_chemical_formula_structural   EuScO3
_chemical_formula_sum   'Eu4 Sc4 O12'
_cell_volume   261.33230177
_cell_formula_units_Z   4
loop_
 _symmetry_equiv_pos_site_id
 _symmetry_equiv_pos_as_xyz
  1  'x, y, z'
loop_
 _atom_site_type_symbol
 _atom_site_label
 _atom_site_symmetry_multiplicity
 _atom_site_fract_x
 _atom_site_fract_y
 _atom_site_fract_z
 _atom_site_occupancy
  Eu  Eu0  1  0.98551500  0.05552300  0.75000000  1
  Eu  Eu1  1  0.48551500  0.44447700  0.25000000  1
  Eu  Eu2  1  0.51448500  0.55552300  0.75000000  1
  Eu  Eu3  1  0.01448500  0.94447700  0.25000000  1
  Sc  Sc0  1  0.00000000  0.50000000  0.50000000  1
  Sc  Sc1  1  0.50000000  0.00000000  0.50000000  1
  Sc  Sc2  1  0.50000000  0.00000000  0.00000000  1
  Sc  Sc3  1  0.00000000  0.50000000  0.00000000  1
  O  O0  1  0.69635500  0.30205300  0.55964000  1
  O  O1  1  0.19635500  0.19794700  0.44036000  1
  O  O2  1  0.80364500  0.80205300  0.94036000  1
  O  O3  1  0.30364500  0.69794700  0.05964000  1
  O  O4  1  0.30364500  0.69794700  0.44036000  1
  O  O5  1  0.80364500  0.80205300  0.55964000  1
  O  O6  1  0.19635500  0.19794700  0.05964000  1
  O  O7  1  0.69635500  0.30205300  0.94036000  1
  O  O8  1  0.88650100  0.54630900  0.25000000  1
  O  O9  1  0.38650100  0.95369100  0.75000000  1
  O  O10  1  0.61349900  0.04630900  0.25000000  1
  O  O11  1  0.11349900  0.45369100  0.75000000  1
loop_
_geom_bond_atom_site_label_1
_geom_bond_atom_site_label_2
_geom_bond_distance
_geom_bond_site_symmetry_2
Eu0 O9 2.322566 1_645
Eu0 O5 2.354397 1_545
Eu0 O2 2.354397 1_545
Eu0 O11 2.424077 1_655
Eu0 O0 2.647835 1_555
Eu0 O7 2.647835 1_555
Eu0 O6 2.872647 1_656
Eu0 O1 2.872647 1_655
Eu1 O8 2.322566 1_555
Eu1 O4 2.354397 1_555
Eu1 O3 2.354397 1_555
Eu1 O10 2.424077 1_555
Eu1 O6 2.647835 1_555
Eu1 O1 2.647835 1_555
Eu1 O7 2.872647 1_554
Eu1 O0 2.872647 1_555
Eu2 O11 2.322566 1_555
Eu2 O0 2.354397 1_555
Eu2 O7 2.354397 1_555
Eu2 O9 2.424077 1_555
Eu2 O5 2.647835 1_555
Eu2 O2 2.647835 1_555
Eu2 O3 2.872647 1_556
Eu2 O4 2.872647 1_555
Eu3 O10 2.322566 1_465
Eu3 O6 2.354397 1_565
Eu3 O1 2.354397 1_565
Eu3 O8 2.424077 1_455
Eu3 O3 2.647835 1_555
Eu3 O4 2.647835 1_555
Eu3 O2 2.872647 1_454
Eu3 O5 2.872647 1_455
O0 Sc0 2.108642 1_655
O0 Sc1 2.127038 1_555
O1 Sc1 2.108642 1_555
O1 Sc0 2.127038 1_555
O2 Sc2 2.108642 1_566
O2 Sc3 2.127038 1_656
O3 Sc3 2.108642 1_555
O3 Sc2 2.127038 1_565
O4 Sc0 2.108642 1_555
O4 Sc1 2.127038 1_565
O5 Sc1 2.108642 1_565
O5 Sc0 2.127038 1_655
O6 Sc2 2.108642 1_555
O6 Sc3 2.127038 1_555
O7 Sc3 2.108642 1_656
O7 Sc2 2.127038 1_556
O8 Sc0 2.121259 1_655
O8 Sc3 2.121259 1_655
O9 Sc1 2.121259 1_565
O9 Sc2 2.121259 1_566
O10 Sc1 2.121259 1_555
O10 Sc2 2.121259 1_555
O11 Sc3 2.121259 1_556
O11 Sc0 2.121259 1_555
