# generated using pymatgen
data_Na6Hf4Ga4Si5S7O48
_symmetry_space_group_name_H-M   'P 1'
_cell_length_a   17.68263801
_cell_length_b   8.86386806
_cell_length_c   22.75376214
_cell_angle_alpha   90.00153337
_cell_angle_beta   89.79031139
_cell_angle_gamma   120.21828244
_symmetry_Int_Tables_number   1
_chemical_formula_structural   Na6Hf4Ga4Si5S7O48
_chemical_formula_sum   'Na18 Hf12 Ga12 Si15 S21 O144'
_cell_volume   3081.70351368
_cell_formula_units_Z   3
loop_
 _symmetry_equiv_pos_site_id
 _symmetry_equiv_pos_as_xyz
  1  'x, y, z'
loop_
 _atom_site_type_symbol
 _atom_site_label
 _atom_site_symmetry_multiplicity
 _atom_site_fract_x
 _atom_site_fract_y
 _atom_site_fract_z
 _atom_site_occupancy
  Na  Na0  1  0.00036556  0.62823724  0.25469644  1
  Na  Na1  1  0.49542212  0.63704895  0.25129470  1
  Na  Na2  1  0.99552783  0.35853202  0.74966678  1
  Na  Na3  1  0.50157950  0.36549448  0.75240645  1
  Na  Na4  1  0.66503786  0.29902021  0.91648577  1
  Na  Na5  1  0.16606748  0.02884442  0.42527924  1
  Na  Na6  1  0.00186389  0.99589996  0.50213029  1
  Na  Na7  1  0.50586028  0.99615398  0.50285397  1
  Na  Na8  1  0.00655490  0.01312191  0.99764779  1
  Na  Na9  1  0.50297222  0.01048895  0.99689787  1
  Na  Na10  1  0.33083888  0.32337491  0.83395205  1
  Na  Na11  1  0.82997425  0.32830975  0.82511701  1
  Na  Na12  1  0.33722644  0.34288157  0.32938596  1
  Na  Na13  1  0.82774256  0.33556989  0.33615353  1
  Na  Na14  1  0.18118620  0.66081152  0.16930563  1
  Na  Na15  1  0.67449605  0.65954629  0.16511415  1
  Na  Na16  1  0.17496875  0.68964543  0.66733016  1
  Na  Na17  1  0.67986242  0.68911963  0.67459775  1
  Hf  Hf0  1  0.49835511  0.01175574  0.35044497  1
  Hf  Hf1  1  0.99870021  0.98402237  0.85014550  1
  Hf  Hf2  1  -0.00008644  0.98926486  0.64974928  1
  Hf  Hf3  1  0.50484556  0.99858818  0.64486164  1
  Hf  Hf4  1  0.99984796  0.00960661  0.14197647  1
  Hf  Hf5  1  0.49927801  0.01051623  0.14903741  1
  Hf  Hf6  1  0.32934261  0.32525205  0.97472175  1
  Hf  Hf7  1  0.83094806  0.33658970  0.47595545  1
  Hf  Hf8  1  0.16629717  0.66308165  0.01939768  1
  Hf  Hf9  1  0.66592259  0.65690473  0.02192978  1
  Hf  Hf10  1  0.16510326  0.67450907  0.52368988  1
  Hf  Hf11  1  0.66607481  0.66748249  0.52070178  1
  Ga  Ga0  1  0.99677244  0.98804727  0.35234359  1
  Ga  Ga1  1  0.50387350  0.02116436  0.84970752  1
  Ga  Ga2  1  0.31995330  0.33227607  0.67617382  1
  Ga  Ga3  1  0.81910807  0.30417293  0.69785122  1
  Ga  Ga4  1  0.33168035  0.35242427  0.19088041  1
  Ga  Ga5  1  0.81741149  0.30756413  0.17275997  1
  Ga  Ga6  1  0.82503964  0.30628765  0.98794232  1
  Ga  Ga7  1  0.33015060  0.34498996  0.49552844  1
  Ga  Ga8  1  0.17155101  0.66454466  0.31835447  1
  Ga  Ga9  1  0.65970857  0.63120513  0.31571297  1
  Ga  Ga10  1  0.16415305  0.69476737  0.81380735  1
  Ga  Ga11  1  0.66831391  0.65451994  0.81065989  1
  Si  Si0  1  0.34704639  0.70549650  0.25237554  1
  Si  Si1  1  0.49804204  0.30408782  0.24791458  1
  Si  Si2  1  0.64493070  0.29341865  0.75219451  1
  Si  Si3  1  0.00015741  0.69364927  0.74766519  1
  Si  Si4  1  0.84882009  0.99022083  0.75253325  1
  Si  Si5  1  0.18745188  0.04848928  0.58261558  1
  Si  Si6  1  0.69505691  0.05070607  0.58540846  1
  Si  Si7  1  0.33360563  0.62538256  0.58303499  1
  Si  Si8  1  0.83170075  0.04449803  0.08261391  1
  Si  Si9  1  0.19503931  0.34024848  0.08618406  1
  Si  Si10  1  0.68731886  0.32885323  0.08189729  1
  Si  Si11  1  0.52302352  0.37791035  0.91114857  1
  Si  Si12  1  0.16304388  0.95416339  0.91677805  1
  Si  Si13  1  0.66436394  0.37244909  0.41618756  1
  Si  Si14  1  0.02454522  0.66939121  0.40934289  1
  S  S0  1  0.14484371  0.00063461  0.25162071  1
  S  S1  1  0.65146355  0.00446732  0.25130104  1
  S  S2  1  0.85376564  0.70743364  0.25113600  1
  S  S3  1  0.99761801  0.28649615  0.25301340  1
  S  S4  1  0.15168232  0.29901087  0.75150109  1
  S  S5  1  0.49548227  0.70491701  0.75277004  1
  S  S6  1  0.35248182  0.99896567  0.75066361  1
  S  S7  1  0.47552991  0.33309880  0.58439116  1
  S  S8  1  0.97594845  0.32965053  0.58426730  1
  S  S9  1  0.83338603  0.62176572  0.58418870  1
  S  S10  1  0.47693551  0.62304890  0.08443525  1
  S  S11  1  0.97608145  0.61670360  0.08528959  1
  S  S12  1  0.33241879  0.04600468  0.08487949  1
  S  S13  1  0.31266183  0.67342364  0.91155472  1
  S  S14  1  0.81346937  0.66168829  0.91784777  1
  S  S15  1  0.01642962  0.37562580  0.91587623  1
  S  S16  1  0.66703856  0.95723363  0.91504694  1
  S  S17  1  0.31266286  0.96265503  0.41701912  1
  S  S18  1  0.81196322  0.95195762  0.41166473  1
  S  S19  1  0.16660806  0.37191439  0.41401536  1
  S  S20  1  0.51696924  0.65803784  0.41563267  1
  O  O0  1  0.10458826  0.02735362  0.30590558  1
  O  O1  1  0.60824968  0.02875040  0.30380574  1
  O  O2  1  0.41380412  0.79655313  0.30792508  1
  O  O3  1  0.91080066  0.79129273  0.30371430  1
  O  O4  1  0.48533436  0.18445187  0.30587884  1
  O  O5  1  0.98662728  0.17797574  0.30595215  1
  O  O6  1  0.10860877  0.18790440  0.80413992  1
  O  O7  1  0.60483627  0.17471941  0.81237601  1
  O  O8  1  0.48061159  0.78551223  0.80521636  1
  O  O9  1  0.98799081  0.78873793  0.80582141  1
  O  O10  1  0.40741376  0.02698762  0.80385743  1
  O  O11  1  0.91600864  0.03075758  0.80807468  1
  O  O12  1  0.39238586  0.97477584  0.69717793  1
  O  O13  1  0.89820741  0.96559789  0.69451263  1
  O  O14  1  0.09567315  0.21845368  0.69865175  1
  O  O15  1  0.57675942  0.19651748  0.69780725  1
  O  O16  1  0.02281898  0.82863726  0.69269654  1
  O  O17  1  0.50364133  0.80851483  0.69891608  1
  O  O18  1  0.39632507  0.82544824  0.19416019  1
  O  O19  1  0.89748974  0.81339339  0.19814254  1
  O  O20  1  0.00668539  0.19916879  0.19978882  1
  O  O21  1  0.52033319  0.21609901  0.19253709  1
  O  O22  1  0.08595247  0.97248323  0.20088299  1
  O  O23  1  0.59522349  0.97269093  0.19867276  1
  O  O24  1  0.43789091  0.35894707  0.63886842  1
  O  O25  1  0.94145540  0.36048259  0.63801709  1
  O  O26  1  0.24929775  0.12875806  0.64006539  1
  O  O27  1  0.75469524  0.14171790  0.64180532  1
  O  O28  1  0.31983303  0.51352403  0.64258250  1
  O  O29  1  0.82242292  0.52236729  0.63662561  1
  O  O30  1  0.44210356  0.52188195  0.13961342  1
  O  O31  1  0.93864417  0.51596391  0.14068938  1
  O  O32  1  0.32144930  0.12391627  0.13779981  1
  O  O33  1  0.82115408  0.12499444  0.14443742  1
  O  O34  1  0.25141638  0.36129073  0.14395199  1
  O  O35  1  0.74726692  0.37459924  0.14115862  1
  O  O36  1  0.23717237  0.31394756  0.02664095  1
  O  O37  1  0.73073200  0.31015645  0.02044346  1
  O  O38  1  0.42363350  0.53663795  0.03227861  1
  O  O39  1  0.92337362  0.53904348  0.03266004  1
  O  O40  1  0.34522421  0.14948210  0.03063782  1
  O  O41  1  0.85759775  0.16963345  0.02525701  1
  O  O42  1  0.23019930  0.14971717  0.51935143  1
  O  O43  1  0.73727285  0.16071755  0.52497494  1
  O  O44  1  0.35834300  0.55314160  0.52384700  1
  O  O45  1  0.84610099  0.54428500  0.52931194  1
  O  O46  1  0.42336885  0.30941780  0.53066438  1
  O  O47  1  0.92427646  0.31118275  0.53062345  1
  O  O48  1  0.27156337  0.69573512  0.96656145  1
  O  O49  1  0.77361767  0.68955252  0.97132499  1
  O  O50  1  0.07345518  0.46290746  0.96863101  1
  O  O51  1  0.58740401  0.46551006  0.96813451  1
  O  O52  1  0.15309721  0.83785176  0.97518090  1
  O  O53  1  0.65961760  0.85781360  0.96926069  1
  O  O54  1  0.27218647  0.85448004  0.46991837  1
  O  O55  1  0.77202058  0.84725039  0.46580689  1
  O  O56  1  0.15531151  0.45369483  0.46686011  1
  O  O57  1  0.65333960  0.46921172  0.47355808  1
  O  O58  1  0.08968081  0.71141032  0.46520335  1
  O  O59  1  0.57392260  0.68436349  0.46752552  1
  O  O60  1  0.07041186  0.64615289  0.34934304  1
  O  O61  1  0.55928154  0.64352397  0.36032770  1
  O  O62  1  0.25734725  0.88230874  0.36414534  1
  O  O63  1  0.75710373  0.87169837  0.35938662  1
  O  O64  1  0.18079042  0.47923973  0.36057870  1
  O  O65  1  0.68503685  0.49428451  0.35823858  1
  O  O66  1  0.05915010  0.47556972  0.86150784  1
  O  O67  1  0.56825067  0.49600737  0.85288918  1
  O  O68  1  0.18361613  0.87237026  0.85986883  1
  O  O69  1  0.68019824  0.87831792  0.86254691  1
  O  O70  1  0.25621301  0.64087047  0.86009325  1
  O  O71  1  0.75876209  0.63150853  0.86546196  1
  O  O72  1  0.01660605  0.84970859  0.40485236  1
  O  O73  1  0.50846947  0.81609686  0.41218752  1
  O  O74  1  0.39921346  0.97457614  0.41141964  1
  O  O75  1  0.90106478  0.97147080  0.40666379  1
  O  O76  1  0.08526996  0.19484420  0.40780395  1
  O  O77  1  0.57886471  0.17683087  0.41188601  1
  O  O78  1  0.00763248  0.19997025  0.91342480  1
  O  O79  1  0.51235505  0.18013507  0.90869134  1
  O  O80  1  0.07851303  0.98040659  0.91346151  1
  O  O81  1  0.58615496  0.97220544  0.91247522  1
  O  O82  1  0.40082602  0.83044511  0.90641040  1
  O  O83  1  0.90048329  0.82289632  0.91278835  1
  O  O84  1  0.48518809  0.17682409  0.58819140  1
  O  O85  1  0.98591230  0.17291879  0.58762227  1
  O  O86  1  0.09259383  0.03714462  0.58663534  1
  O  O87  1  0.59712250  0.02803538  0.59025475  1
  O  O88  1  0.41575566  0.82294135  0.58978098  1
  O  O89  1  0.91211442  0.80227717  0.58631832  1
  O  O90  1  0.48583960  0.79804381  0.08936458  1
  O  O91  1  0.98829576  0.79545865  0.09204482  1
  O  O92  1  0.41100478  0.02316045  0.08768512  1
  O  O93  1  0.91582775  0.01369944  0.08929859  1
  O  O94  1  0.09687006  0.16477414  0.09226920  1
  O  O95  1  0.59222118  0.14919924  0.08791145  1
  O  O96  1  0.34673165  0.16174877  0.74595758  1
  O  O97  1  0.84822119  0.17179975  0.74785382  1
  O  O98  1  0.23862112  0.31254067  0.74587922  1
  O  O99  1  0.74198406  0.32021084  0.74798190  1
  O  O100  1  0.41888143  0.52141516  0.74657993  1
  O  O101  1  0.91555672  0.50380007  0.73801289  1
  O  O102  1  0.34230534  0.51672001  0.24814828  1
  O  O103  1  0.84804941  0.53408490  0.24675712  1
  O  O104  1  0.41134039  0.32077056  0.23896891  1
  O  O105  1  0.92059736  0.31089966  0.24836665  1
  O  O106  1  0.23232278  0.15319831  0.24586631  1
  O  O107  1  0.73875667  0.16556497  0.24543929  1
  O  O108  1  0.32252598  0.51705104  0.91977261  1
  O  O109  1  0.82386193  0.50614587  0.92436469  1
  O  O110  1  0.42810281  0.36244898  0.92085315  1
  O  O111  1  0.93091181  0.36683799  0.92282418  1
  O  O112  1  0.25011828  0.14925942  0.91984089  1
  O  O113  1  0.74512834  0.14238153  0.91989304  1
  O  O114  1  0.32311986  0.13832537  0.42258718  1
  O  O115  1  0.82363075  0.12888854  0.41902594  1
  O  O116  1  0.24313950  0.34478353  0.41836366  1
  O  O117  1  0.75119638  0.35194180  0.41980627  1
  O  O118  1  0.43133851  0.49564984  0.42181107  1
  O  O119  1  0.92972598  0.49568557  0.41804341  1
  O  O120  1  0.18016420  0.50864198  0.07958934  1
  O  O121  1  0.67471728  0.49957697  0.07866991  1
  O  O122  1  0.06547003  0.63819018  0.07934705  1
  O  O123  1  0.56574256  0.64562594  0.07678363  1
  O  O124  1  0.25392999  0.86699223  0.07790197  1
  O  O125  1  0.74338822  0.85668164  0.07556530  1
  O  O126  1  0.17512128  0.85198397  0.57869846  1
  O  O127  1  0.67997968  0.85172508  0.57745072  1
  O  O128  1  0.24363575  0.63139900  0.57388948  1
  O  O129  1  0.75489830  0.64338119  0.57640218  1
  O  O130  1  0.06580351  0.48568649  0.57519274  1
  O  O131  1  0.56462313  0.49157165  0.57775409  1
  O  O132  1  0.14961851  0.83828798  0.25482783  1
  O  O133  1  0.65952579  0.84735084  0.25867639  1
  O  O134  1  0.25076577  0.68875296  0.26087708  1
  O  O135  1  0.76786150  0.69533309  0.25634154  1
  O  O136  1  0.07779190  0.46093551  0.25518344  1
  O  O137  1  0.58196202  0.50620007  0.25529360  1
  O  O138  1  0.15966626  0.47218366  0.75876211  1
  O  O139  1  0.64801196  0.48139208  0.75396549  1
  O  O140  1  0.08512125  0.66281745  0.75480739  1
  O  O141  1  0.57590121  0.69430574  0.75530311  1
  O  O142  1  0.26503982  0.83980924  0.75633925  1
  O  O143  1  0.75207508  0.82273819  0.76133983  1
loop_
_geom_bond_atom_site_label_1
_geom_bond_atom_site_label_2
_geom_bond_distance
_geom_bond_site_symmetry_2
Na0 O132 2.342159 1_555
Na0 O103 2.392540 1_455
Na0 O105 2.435184 1_455
Na0 O60 2.453308 1_555
Na0 O136 2.473351 1_555
Na0 O31 2.799664 1_455
Na0 O3 2.851699 1_455
Na0 O22 2.904945 1_555
Na1 O137 2.341518 1_555
Na1 O102 2.359646 1_555
Na1 O104 2.440477 1_555
Na1 O133 2.545999 1_555
Na1 O61 2.718193 1_555
Na1 O30 2.727110 1_555
Na1 O2 2.789688 1_555
Na1 O23 2.845866 1_555
Na2 O97 2.277530 1_555
Na2 O140 2.344855 1_655
Na2 O101 2.358732 1_555
Na2 O138 2.557900 1_655
Na2 O25 2.720812 1_555
Na2 O66 2.768379 1_655
Na2 O11 2.838803 1_555
Na2 O14 2.867583 1_655
Na3 O139 2.254834 1_555
Na3 O96 2.409508 1_555
Na3 O100 2.470185 1_555
Na3 O141 2.524103 1_555
Na3 O67 2.569506 1_555
Na3 O15 2.747015 1_555
Na3 O24 2.810907 1_555
Na3 O10 2.846555 1_555
Na4 O79 2.360238 1_555
Na4 O113 2.432994 1_555
Na4 O109 2.470558 1_555
Na4 O81 2.505844 1_545
Na4 O7 2.607007 1_555
Na4 O37 2.618987 1_556
Na4 O51 2.733265 1_555
Na4 O71 2.801738 1_555
Na5 O72 2.346672 1_545
Na5 O42 2.410450 1_555
Na5 O116 2.425142 1_555
Na5 O114 2.437989 1_555
Na5 O76 2.546488 1_555
Na5 O58 2.594638 1_545
Na5 O62 2.884613 1_545
Na5 O0 2.926924 1_555
Na6 O86 2.415971 1_565
Na6 O89 2.523861 1_455
Na6 O85 2.601330 1_465
Na6 O72 2.642359 1_555
Na6 O76 2.692663 1_565
Na6 O75 2.753576 1_455
Na7 O87 2.490663 1_565
Na7 O88 2.514500 1_555
Na7 O77 2.532820 1_565
Na7 O73 2.622705 1_555
Na7 O84 2.655651 1_565
Na7 O74 2.754419 1_555
Na8 O80 2.392908 1_545
Na8 O78 2.526667 1_555
Na8 O94 2.618565 1_556
Na8 O93 2.628015 1_456
Na8 O83 2.632910 1_445
Na8 O91 2.794303 1_446
Na9 O79 2.462411 1_555
Na9 O95 2.522210 1_556
Na9 O81 2.539756 1_545
Na9 O92 2.661544 1_556
Na9 O82 2.678430 1_545
Na9 O90 2.736013 1_546
Na10 O112 2.449659 1_555
Na10 O110 2.532396 1_555
Na10 O96 2.557582 1_555
Na10 O98 2.559395 1_555
Na10 O100 2.585368 1_555
Na10 O108 2.652105 1_555
Na11 O99 2.326790 1_555
Na11 O97 2.359154 1_555
Na11 O101 2.499319 1_555
Na11 O113 2.665547 1_555
Na11 O111 2.767739 1_555
Na11 O109 2.786701 1_555
Na12 O102 2.378831 1_555
Na12 O104 2.495453 1_555
Na12 O106 2.601060 1_555
Na12 O118 2.604395 1_555
Na12 O116 2.621200 1_555
Na12 O114 2.718110 1_555
Na13 O117 2.378016 1_555
Na13 O119 2.487244 1_555
Na13 O107 2.577596 1_555
Na13 O103 2.592603 1_555
Na13 O115 2.604287 1_555
Na13 O105 2.659140 1_555
Na14 O134 2.372441 1_555
Na14 O120 2.441813 1_555
Na14 O124 2.633316 1_555
Na14 O136 2.648264 1_555
Na14 O132 2.729256 1_555
Na14 O122 2.834508 1_555
Na15 O121 2.425858 1_555
Na15 O137 2.544029 1_555
Na15 O125 2.555071 1_555
Na15 O135 2.575453 1_555
Na15 O123 2.746320 1_555
Na15 O133 2.795112 1_555
Na16 O126 2.476668 1_555
Na16 O140 2.477714 1_555
Na16 O142 2.509919 1_555
Na16 O128 2.621707 1_555
Na16 O138 2.754616 1_555
Na16 O130 2.811830 1_555
Na17 O143 2.329117 1_555
Na17 O139 2.432630 1_555
Na17 O141 2.610368 1_555
Na17 O127 2.638305 1_555
Na17 O129 2.727041 1_555
Na17 O131 2.918074 1_555
Hf0 O4 1.944498 1_555
Hf0 O2 1.987397 1_545
Hf0 O77 2.009923 1_555
Hf0 O74 2.123083 1_545
Hf0 O1 2.148316 1_555
Hf0 O73 2.308166 1_545
Hf1 O9 1.928896 1_555
Hf1 O11 1.961122 1_565
Hf1 O80 2.031936 1_655
Hf1 O83 2.138432 1_555
Hf1 O6 2.142111 1_665
Hf1 O78 2.336492 1_665
Hf2 O16 1.931215 1_555
Hf2 O13 1.980561 1_455
Hf2 O86 2.052050 1_565
Hf2 O89 2.160235 1_455
Hf2 O14 2.187104 1_565
Hf2 O85 2.262301 1_465
Hf3 O87 1.957264 1_565
Hf3 O15 1.977822 1_565
Hf3 O88 2.005475 1_555
Hf3 O17 2.077383 1_555
Hf3 O84 2.199011 1_565
Hf3 O12 2.230749 1_555
Hf4 O93 1.926810 1_555
Hf4 O94 1.930005 1_655
Hf4 O20 2.089219 1_655
Hf4 O91 2.132344 1_545
Hf4 O22 2.177670 1_645
Hf4 O19 2.179129 1_545
Hf5 O21 1.938709 1_555
Hf5 O18 2.009884 1_545
Hf5 O95 2.023943 1_555
Hf5 O92 2.142390 1_555
Hf5 O23 2.202930 1_545
Hf5 O90 2.235778 1_545
Hf6 O112 1.941219 1_555
Hf6 O36 1.970650 1_556
Hf6 O110 2.016324 1_555
Hf6 O40 2.137316 1_556
Hf6 O108 2.162300 1_555
Hf6 O38 2.208401 1_556
Hf7 O43 1.950728 1_555
Hf7 O117 1.961091 1_555
Hf7 O119 2.068752 1_555
Hf7 O45 2.107294 1_555
Hf7 O47 2.170396 1_555
Hf7 O115 2.201234 1_555
Hf8 O52 1.957630 1_554
Hf8 O120 2.037231 1_555
Hf8 O50 2.063825 1_554
Hf8 O48 2.105992 1_554
Hf8 O124 2.153100 1_555
Hf8 O122 2.162019 1_555
Hf9 O121 1.963564 1_555
Hf9 O51 1.986315 1_554
Hf9 O125 2.017911 1_555
Hf9 O49 2.113129 1_554
Hf9 O123 2.124008 1_555
Hf9 O53 2.195663 1_554
Hf10 O126 1.947746 1_555
Hf10 O128 1.981125 1_555
Hf10 O58 2.027010 1_555
Hf10 O130 2.069917 1_555
Hf10 O54 2.137703 1_555
Hf10 O56 2.278891 1_555
Hf11 O57 1.973145 1_555
Hf11 O127 1.998208 1_555
Hf11 O59 2.097979 1_555
Hf11 O129 2.114509 1_555
Hf11 O131 2.121815 1_555
Hf11 O55 2.141727 1_555
Ga0 O72 1.868184 1_655
Ga0 O3 1.980003 1_555
Ga0 O75 2.036603 1_555
Ga0 O0 2.046745 1_665
Ga0 O5 2.070287 1_565
Ga0 O76 2.127966 1_665
Ga1 O7 1.817791 1_555
Ga1 O79 1.896822 1_555
Ga1 O10 2.025338 1_555
Ga1 O8 2.166831 1_545
Ga1 O82 2.173689 1_545
Ga1 O81 2.235124 1_545
Ga2 O28 1.780098 1_555
Ga2 O26 1.796939 1_555
Ga2 O98 2.084369 1_555
Ga2 O24 2.148557 1_555
Ga2 O100 2.346376 1_555
Ga2 O96 2.399222 1_555
Ga3 O27 1.832134 1_555
Ga3 O99 1.834366 1_555
Ga3 O97 1.883767 1_555
Ga3 O101 1.961729 1_555
Ga3 O29 2.360120 1_555
Ga3 O25 2.382147 1_555
Ga4 O34 1.812208 1_555
Ga4 O102 1.892179 1_555
Ga4 O104 1.915530 1_555
Ga4 O30 2.112034 1_555
Ga4 O106 2.152101 1_555
Ga4 O32 2.286176 1_555
Ga5 O33 1.773677 1_555
Ga5 O35 1.776780 1_555
Ga5 O107 2.115325 1_555
Ga5 O31 2.131397 1_555
Ga5 O103 2.464023 1_555
Ga5 O105 2.501652 1_555
Ga6 O41 1.795863 1_556
Ga6 O37 1.837804 1_556
Ga6 O113 2.110532 1_555
Ga6 O39 2.171871 1_556
Ga6 O111 2.226329 1_555
Ga6 O109 2.295417 1_555
Ga7 O44 1.773214 1_555
Ga7 O42 1.824058 1_555
Ga7 O46 1.997107 1_555
Ga7 O118 2.317609 1_555
Ga7 O116 2.338158 1_555
Ga7 O114 2.428537 1_555
Ga8 O134 1.844599 1_555
Ga8 O60 1.849177 1_555
Ga8 O64 1.979639 1_555
Ga8 O62 2.043718 1_555
Ga8 O136 2.253295 1_555
Ga8 O132 2.284060 1_555
Ga9 O65 1.777691 1_555
Ga9 O137 1.867652 1_555
Ga9 O61 2.092357 1_555
Ga9 O135 2.166191 1_555
Ga9 O63 2.194229 1_555
Ga9 O133 2.315450 1_555
Ga10 O68 1.775485 1_555
Ga10 O140 1.857618 1_555
Ga10 O142 2.054159 1_555
Ga10 O66 2.180492 1_555
Ga10 O70 2.186948 1_555
Ga10 O138 2.304472 1_555
Ga11 O143 1.855069 1_555
Ga11 O67 1.874384 1_555
Ga11 O139 1.896496 1_555
Ga11 O71 2.120717 1_555
Ga11 O69 2.226036 1_555
Ga11 O141 2.230772 1_555
O0 S0 1.500569 1_555
O1 S1 1.488742 1_555
O2 Si0 1.641440 1_555
O3 S2 1.501699 1_555
O4 Si1 1.634802 1_555
O5 S3 1.491365 1_555
O6 S4 1.490944 1_555
O7 Si2 1.651328 1_555
O8 S5 1.479974 1_555
O9 Si3 1.639548 1_655
O10 S6 1.495294 1_545
O11 Si4 1.648943 1_545
O12 S6 1.473411 1_555
O13 Si4 1.654262 1_555
O14 S4 1.494529 1_555
O15 Si2 1.640410 1_555
O16 Si3 1.634127 1_555
O17 S5 1.493658 1_555
O18 Si0 1.644209 1_555
O19 S2 1.481938 1_555
O20 S3 1.488286 1_455
O21 Si1 1.630067 1_555
O22 S0 1.492218 1_565
O23 S1 1.492998 1_565
O24 S7 1.476285 1_555
O25 S8 1.450780 1_555
O26 Si5 1.624237 1_555
O27 Si6 1.600972 1_555
O28 Si7 1.622595 1_555
O29 S9 1.436611 1_555
O30 S10 1.482645 1_555
O31 S11 1.491144 1_555
O32 S12 1.448302 1_555
O33 Si8 1.629324 1_555
O34 Si9 1.605849 1_555
O35 Si10 1.638323 1_555
O36 Si9 1.616291 1_555
O37 Si10 1.640797 1_555
O38 S10 1.471350 1_555
O39 S11 1.462492 1_555
O40 S12 1.484844 1_555
O41 Si8 1.621007 1_555
O42 Si5 1.660726 1_555
O43 Si6 1.630592 1_555
O44 Si7 1.640940 1_555
O45 S9 1.494884 1_555
O46 S7 1.484120 1_555
O47 S8 1.486304 1_555
O48 S13 1.507240 1_555
O49 S14 1.485632 1_555
O50 S15 1.509889 1_555
O51 Si11 1.643522 1_555
O52 Si12 1.635728 1_555
O53 S16 1.482556 1_555
O54 S17 1.477635 1_555
O55 S18 1.487200 1_555
O56 S19 1.468034 1_555
O57 Si13 1.626059 1_555
O58 Si14 1.630861 1_555
O59 S20 1.494992 1_555
O60 Si14 1.650483 1_555
O61 S20 1.499964 1_555
O62 S17 1.489530 1_555
O63 S18 1.475069 1_555
O64 S19 1.484573 1_555
O65 Si13 1.624085 1_555
O66 S15 1.485067 1_555
O67 Si11 1.625505 1_555
O68 Si12 1.611428 1_555
O69 S16 1.460211 1_555
O70 S13 1.472860 1_555
O71 S14 1.475162 1_555
O72 Si14 1.676518 1_555
O73 S20 1.484461 1_555
O74 S17 1.485074 1_555
O75 S18 1.499869 1_555
O76 S19 1.510366 1_555
O77 Si13 1.632221 1_555
O78 S15 1.485861 1_555
O79 Si11 1.667062 1_555
O80 Si12 1.626295 1_555
O81 S16 1.502756 1_555
O82 S13 1.481831 1_555
O83 S14 1.485970 1_555
O84 S7 1.481101 1_555
O85 S8 1.487740 1_555
O86 Si5 1.631271 1_555
O87 Si6 1.643100 1_555
O88 Si7 1.625198 1_555
O89 S9 1.502938 1_555
O90 S10 1.482453 1_555
O91 S11 1.495510 1_555
O92 S12 1.503320 1_555
O93 Si8 1.649550 1_555
O94 Si9 1.652932 1_555
O95 Si10 1.638641 1_555
O96 S6 1.500498 1_545
O97 Si4 1.618359 1_545
O98 S4 1.485612 1_555
O99 Si2 1.612247 1_555
O100 S5 1.511242 1_555
O101 Si3 1.608210 1_655
O102 Si0 1.635551 1_555
O103 S2 1.491587 1_555
O104 Si1 1.626107 1_555
O105 S3 1.486746 1_555
O106 S0 1.459987 1_555
O107 S1 1.489723 1_555
O108 S13 1.493378 1_555
O109 S14 1.487224 1_555
O110 Si11 1.628028 1_555
O111 S15 1.482375 1_655
O112 Si12 1.639102 1_545
O113 S16 1.527155 1_545
O114 S17 1.478243 1_545
O115 S18 1.484826 1_545
O116 S19 1.492498 1_555
O117 Si13 1.636833 1_555
O118 S20 1.479503 1_555
O119 Si14 1.618663 1_655
O120 Si9 1.647757 1_555
O121 Si10 1.638472 1_555
O122 S11 1.499450 1_455
O123 S10 1.489298 1_555
O124 S12 1.501351 1_565
O125 Si8 1.618879 1_565
O126 Si5 1.645356 1_565
O127 Si6 1.655796 1_565
O128 Si7 1.632467 1_555
O129 S9 1.504576 1_555
O130 S8 1.505210 1_455
O131 S7 1.499526 1_555
O132 S0 1.485119 1_565
O133 S1 1.479197 1_565
O134 Si0 1.643530 1_555
O135 S2 1.472282 1_555
O136 S3 1.482246 1_455
O137 Si1 1.662986 1_555
O138 S4 1.478316 1_555
O139 Si2 1.639925 1_555
O140 Si3 1.665334 1_555
O141 S5 1.472936 1_555
O142 S6 1.483406 1_555
O143 Si4 1.616072 1_555
