# generated using pymatgen
data_Ca2Fe2O5
_symmetry_space_group_name_H-M   'P 1'
_cell_length_a   5.41874890
_cell_length_b   5.58304769
_cell_length_c   14.71208948
_cell_angle_alpha   90.00048390
_cell_angle_beta   90.00281206
_cell_angle_gamma   89.99994979
_symmetry_Int_Tables_number   1
_chemical_formula_structural   Ca2Fe2O5
_chemical_formula_sum   'Ca8 Fe8 O20'
_cell_volume   445.08680725
_cell_formula_units_Z   4
loop_
 _symmetry_equiv_pos_site_id
 _symmetry_equiv_pos_as_xyz
  1  'x, y, z'
loop_
 _atom_site_type_symbol
 _atom_site_label
 _atom_site_symmetry_multiplicity
 _atom_site_fract_x
 _atom_site_fract_y
 _atom_site_fract_z
 _atom_site_occupancy
  Ca  Ca0  1  0.52299265  0.97823817  0.89189489  1
  Ca  Ca1  1  0.02295772  0.52177051  0.60809269  1
  Ca  Ca2  1  0.97701163  0.47823604  0.10810502  1
  Ca  Ca3  1  0.47703567  0.02177066  0.39190561  1
  Ca  Ca4  1  0.47701678  0.02176389  0.10810464  1
  Ca  Ca5  1  0.97703407  0.47823106  0.39190622  1
  Ca  Ca6  1  0.02299166  0.52176297  0.89189479  1
  Ca  Ca7  1  0.52295888  0.97822843  0.60809352  1
  Fe  Fe0  1  0.49999452  0.49999851  0.50000054  1
  Fe  Fe1  1  0.50000227  0.50000021  0.00000065  1
  Fe  Fe2  1  0.05386527  0.06541973  0.74996694  1
  Fe  Fe3  1  0.94613377  0.93458069  0.25003283  1
  Fe  Fe4  1  0.00000312  -0.00000085  0.00000031  1
  Fe  Fe5  1  -0.00000627  -0.00000034  0.50000107  1
  Fe  Fe6  1  0.55386467  0.43457992  0.74996806  1
  Fe  Fe7  1  0.44613116  0.56542122  0.25003115  1
  O  O0  1  0.60086298  0.87207636  0.25000097  1
  O  O1  1  0.10085780  0.62792336  0.25000067  1
  O  O2  1  0.89914348  0.37207625  0.74999919  1
  O  O3  1  0.39914844  0.12792767  0.74999860  1
  O  O4  1  0.97412065  0.92714170  0.64034167  1
  O  O5  1  0.47409401  0.57293966  0.85967181  1
  O  O6  1  0.52588005  0.42714319  0.35966054  1
  O  O7  1  0.02590965  0.07294567  0.14032627  1
  O  O8  1  0.02587625  0.07285589  0.35965716  1
  O  O9  1  0.52591080  0.42705930  0.14032731  1
  O  O10  1  0.47411907  0.57285658  0.64034296  1
  O  O11  1  0.97409405  0.92705370  0.85967548  1
  O  O12  1  0.73358754  0.76608232  0.48341144  1
  O  O13  1  0.23360732  0.73392898  0.01659798  1
  O  O14  1  0.76641186  0.26607857  0.51659192  1
  O  O15  1  0.26640623  0.23393655  0.98340293  1
  O  O16  1  0.73359967  0.76606451  0.01659649  1
  O  O17  1  0.23357735  0.73392241  0.48340992  1
  O  O18  1  0.76639642  0.26607104  0.98340255  1
  O  O19  1  0.26640981  0.23391345  0.51658920  1
loop_
_geom_bond_atom_site_label_1
_geom_bond_atom_site_label_2
_geom_bond_distance
_geom_bond_site_symmetry_2
Ca0 O5 2.327056 1_555
Ca0 O3 2.346638 1_565
Ca0 O15 2.404938 1_565
Ca0 O16 2.463997 1_556
Ca0 O18 2.476741 1_565
Ca0 O11 2.506308 1_555
Ca0 O13 2.772304 1_556
Ca1 O4 2.327495 1_455
Ca1 O2 2.346794 1_455
Ca1 O14 2.404655 1_455
Ca1 O17 2.463848 1_555
Ca1 O19 2.477003 1_555
Ca1 O10 2.506603 1_555
Ca1 O12 2.771949 1_455
Ca2 O7 2.327013 1_655
Ca2 O1 2.346616 1_655
Ca2 O13 2.404956 1_655
Ca2 O18 2.463990 1_554
Ca2 O16 2.476769 1_555
Ca2 O9 2.506309 1_555
Ca2 O15 2.772279 1_654
Ca3 O6 2.327503 1_555
Ca3 O0 2.346777 1_545
Ca3 O12 2.404715 1_545
Ca3 O19 2.463833 1_555
Ca3 O17 2.477012 1_545
Ca3 O8 2.506588 1_555
Ca3 O14 2.771992 1_555
Ca4 O9 2.327035 1_555
Ca4 O0 2.346638 1_545
Ca4 O16 2.404931 1_545
Ca4 O15 2.464004 1_554
Ca4 O13 2.476757 1_545
Ca4 O7 2.506343 1_555
Ca4 O18 2.772271 1_554
Ca5 O8 2.327520 1_655
Ca5 O1 2.346792 1_655
Ca5 O17 2.404669 1_655
Ca5 O14 2.463888 1_555
Ca5 O12 2.476980 1_555
Ca5 O6 2.506553 1_555
Ca5 O19 2.771999 1_655
Ca6 O11 2.327009 1_455
Ca6 O2 2.346617 1_455
Ca6 O18 2.404957 1_455
Ca6 O13 2.464002 1_556
Ca6 O15 2.476766 1_555
Ca6 O5 2.506319 1_555
Ca6 O16 2.772273 1_456
Ca7 O10 2.327510 1_555
Ca7 O3 2.346766 1_565
Ca7 O19 2.404683 1_565
Ca7 O12 2.463832 1_555
Ca7 O14 2.476982 1_565
Ca7 O4 2.506600 1_555
Ca7 O17 2.771977 1_555
Fe0 O14 1.961956 1_555
Fe0 O17 1.961968 1_555
Fe0 O19 1.966875 1_555
Fe0 O12 1.966899 1_555
Fe0 O6 2.109052 1_555
Fe0 O10 2.109087 1_555
Fe1 O18 1.961925 1_554
Fe1 O13 1.961925 1_555
Fe1 O15 1.966822 1_554
Fe1 O16 1.966826 1_555
Fe1 O9 2.108954 1_555
Fe1 O5 2.108984 1_554
Fe2 O4 1.839515 1_445
Fe2 O11 1.840878 1_445
Fe2 O3 1.903272 1_555
Fe2 O2 1.906337 1_455
Fe3 O8 1.839494 1_665
Fe3 O7 1.840856 1_665
Fe3 O0 1.903202 1_555
Fe3 O1 1.906346 1_655
Fe4 O16 1.961983 1_445
Fe4 O15 1.961994 1_554
Fe4 O13 1.966879 1_545
Fe4 O18 1.966896 1_454
Fe4 O11 2.108926 1_444
Fe4 O7 2.108943 1_555
Fe5 O12 1.961897 1_445
Fe5 O19 1.961921 1_555
Fe5 O17 1.966838 1_545
Fe5 O14 1.966838 1_455
Fe5 O4 2.109066 1_445
Fe5 O8 2.109115 1_555
Fe6 O10 1.839522 1_555
Fe6 O5 1.840789 1_555
Fe6 O2 1.903243 1_555
Fe6 O3 1.906304 1_555
Fe7 O6 1.839585 1_555
Fe7 O9 1.840807 1_555
Fe7 O1 1.903213 1_555
Fe7 O0 1.906355 1_555
