# generated using pymatgen
data_Na4MgSi3Ge3(SO8)3
_symmetry_space_group_name_H-M   'P 1'
_cell_length_a   8.70561871
_cell_length_b   8.69978058
_cell_length_c   22.02485976
_cell_angle_alpha   89.26751680
_cell_angle_beta   91.42987903
_cell_angle_gamma   119.91611635
_symmetry_Int_Tables_number   1
_chemical_formula_structural   Na4MgSi3Ge3(SO8)3
_chemical_formula_sum   'Na12 Mg3 Si9 Ge9 S9 O72'
_cell_volume   1445.38289671
_cell_formula_units_Z   3
loop_
 _symmetry_equiv_pos_site_id
 _symmetry_equiv_pos_as_xyz
  1  'x, y, z'
loop_
 _atom_site_type_symbol
 _atom_site_label
 _atom_site_symmetry_multiplicity
 _atom_site_fract_x
 _atom_site_fract_y
 _atom_site_fract_z
 _atom_site_occupancy
  Na  Na0  1  0.63352675  0.00395536  0.24316650  1
  Na  Na1  1  0.37310435  0.35832335  0.25065517  1
  Na  Na2  1  0.99138684  0.63753985  0.24910797  1
  Na  Na3  1  0.99405763  0.36052614  0.75445933  1
  Na  Na4  1  0.37830214  0.00991945  0.75534062  1
  Na  Na5  1  0.70463407  0.67651567  0.40889400  1
  Na  Na6  1  0.00789430  0.01798037  0.49502570  1
  Na  Na7  1  0.00331592  0.00636407  0.00044407  1
  Na  Na8  1  0.65945005  0.33212606  0.83477194  1
  Na  Na9  1  0.65224500  0.32088971  0.32937965  1
  Na  Na10  1  0.34312334  0.67727949  0.16172910  1
  Na  Na11  1  0.34811260  0.66478861  0.66842720  1
  Mg  Mg0  1  0.00440698  0.00632494  0.35544729  1
  Mg  Mg1  1  0.66063190  0.32867536  0.68792692  1
  Mg  Mg2  1  0.65525701  0.32078280  0.18229784  1
  Si  Si0  1  0.28415287  0.99755585  0.25117497  1
  Si  Si1  1  0.71123095  0.70566542  0.25282925  1
  Si  Si2  1  0.29496732  0.29832048  0.75198237  1
  Si  Si3  1  0.70955756  0.98858985  0.75423170  1
  Si  Si4  1  0.66757744  0.03071573  0.08510860  1
  Si  Si5  1  0.05090665  0.39245438  0.91839450  1
  Si  Si6  1  0.32656257  0.95337012  0.91489851  1
  Si  Si7  1  0.62558817  0.96143373  0.41904251  1
  Si  Si8  1  0.32529078  0.37654313  0.41776665  1
  Ge  Ge0  1  0.02598742  0.04217378  0.85888126  1
  Ge  Ge1  1  0.98733302  0.00915995  0.65700285  1
  Ge  Ge2  1  0.97874541  0.97706076  0.14898431  1
  Ge  Ge3  1  0.67211270  0.30258106  0.97697144  1
  Ge  Ge4  1  0.64822918  0.31740777  0.47603032  1
  Ge  Ge5  1  0.33072590  0.67737658  0.01736571  1
  Ge  Ge6  1  0.34211070  0.66390513  0.51243729  1
  Ge  Ge7  1  0.36480110  0.68872649  0.31249932  1
  Ge  Ge8  1  0.34485471  0.66780187  0.81856700  1
  S  S0  1  0.00296926  0.29112354  0.25008392  1
  S  S1  1  0.99672949  0.71488070  0.74993688  1
  S  S2  1  0.96126294  0.33761748  0.58293922  1
  S  S3  1  0.36760787  0.03305911  0.58279097  1
  S  S4  1  0.66967496  0.62925520  0.58290406  1
  S  S5  1  0.95634544  0.62123990  0.08189886  1
  S  S6  1  0.37404496  0.33380046  0.08097618  1
  S  S7  1  0.62654086  0.66587120  0.91897710  1
  S  S8  1  0.04593022  0.66236904  0.41869522  1
  O  O0  1  0.20187204  0.04192793  0.30746357  1
  O  O1  1  0.82328570  0.78601580  0.31412358  1
  O  O2  1  0.96600318  0.18146035  0.30417962  1
  O  O3  1  0.20499914  0.15896393  0.80783211  1
  O  O4  1  0.96906120  0.79216119  0.80333815  1
  O  O5  1  0.84840016  0.02726120  0.81067928  1
  O  O6  1  0.78253150  0.94544837  0.69026171  1
  O  O7  1  0.15688486  0.21040470  0.69029546  1
  O  O8  1  0.03795034  0.83470596  0.69252070  1
  O  O9  1  0.78826025  0.83993557  0.19308666  1
  O  O10  1  0.04149140  0.21606994  0.19522269  1
  O  O11  1  0.15184694  0.95427891  0.18809648  1
  O  O12  1  0.88438539  0.36105185  0.63802696  1
  O  O13  1  0.47760408  0.11078039  0.63755080  1
  O  O14  1  0.64504968  0.51901095  0.63590538  1
  O  O15  1  0.88239783  0.52322763  0.13824423  1
  O  O16  1  0.63201415  0.10483121  0.14524699  1
  O  O17  1  0.47742204  0.36423586  0.13789790  1
  O  O18  1  0.46067120  0.30792391  0.02690170  1
  O  O19  1  0.84143841  0.53843504  0.02687491  1
  O  O20  1  0.70838920  0.16013770  0.02451013  1
  O  O21  1  0.45002865  0.14937476  0.52758253  1
  O  O22  1  0.69575541  0.55122828  0.52608664  1
  O  O23  1  0.84611798  0.30870083  0.52738348  1
  O  O24  1  0.54460306  0.69979718  0.97128663  1
  O  O25  1  0.18108631  0.47848170  0.97705498  1
  O  O26  1  0.29386472  0.83251184  0.97445893  1
  O  O27  1  0.53021443  0.83355789  0.47853267  1
  O  O28  1  0.29538858  0.46452843  0.47939995  1
  O  O29  1  0.15839730  0.69214064  0.47593888  1
  O  O30  1  0.11920985  0.62778173  0.36435068  1
  O  O31  1  0.50065405  0.88367177  0.35718169  1
  O  O32  1  0.37471872  0.51261254  0.35818806  1
  O  O33  1  0.13512372  0.50442318  0.85467479  1
  O  O34  1  0.36921349  0.87128653  0.85390340  1
  O  O35  1  0.51260715  0.62760618  0.86084044  1
  O  O36  1  0.02619244  0.81826688  0.41591872  1
  O  O37  1  0.81025539  0.96851766  0.41643833  1
  O  O38  1  0.16506033  0.18332997  0.41563770  1
  O  O39  1  0.02512951  0.19143460  0.91391434  1
  O  O40  1  0.14199067  0.96285004  0.90730206  1
  O  O41  1  0.80073195  0.82428790  0.91083322  1
  O  O42  1  0.97820897  0.17195982  0.58616914  1
  O  O43  1  0.18898590  0.01552183  0.58711343  1
  O  O44  1  0.83287294  0.81086853  0.58720983  1
  O  O45  1  0.97864955  0.80414249  0.08441936  1
  O  O46  1  0.85517834  0.01883662  0.08947268  1
  O  O47  1  0.19574752  0.17278272  0.08553696  1
  O  O48  1  0.69827445  0.16752516  0.74566414  1
  O  O49  1  0.48143921  0.31063964  0.74391404  1
  O  O50  1  0.84493718  0.53676092  0.73997791  1
  O  O51  1  0.68738033  0.51229871  0.24263891  1
  O  O52  1  0.85020588  0.31972847  0.24116383  1
  O  O53  1  0.48357432  0.15892218  0.24450806  1
  O  O54  1  0.63956805  0.50340472  0.92522836  1
  O  O55  1  0.85277906  0.37349770  0.92324169  1
  O  O56  1  0.50084852  0.15599130  0.92245676  1
  O  O57  1  0.64126188  0.15767088  0.42615908  1
  O  O58  1  0.52251184  0.38145053  0.42654202  1
  O  O59  1  0.86464229  0.49956222  0.42616793  1
  O  O60  1  0.35604419  0.49690129  0.07478898  1
  O  O61  1  0.13648817  0.63736407  0.07699137  1
  O  O62  1  0.48940310  0.83102176  0.07210558  1
  O  O63  1  0.35012849  0.85267193  0.57550801  1
  O  O64  1  0.50388751  0.64628446  0.57843973  1
  O  O65  1  0.14091761  0.50038421  0.57712138  1
  O  O66  1  0.29068248  0.80512745  0.25743159  1
  O  O67  1  0.50888094  0.68789512  0.25409804  1
  O  O68  1  0.16612873  0.47150021  0.25657972  1
  O  O69  1  0.29595784  0.48662051  0.75908395  1
  O  O70  1  0.16131724  0.70021644  0.75189595  1
  O  O71  1  0.50743870  0.81770621  0.75942717  1
loop_
_geom_bond_atom_site_label_1
_geom_bond_atom_site_label_2
_geom_bond_distance
_geom_bond_site_symmetry_2
Na0 O53 2.298049 1_555
Na0 O16 2.320187 1_555
Na0 O67 2.411645 1_545
Na0 O52 2.437049 1_555
Na0 O66 2.623411 1_545
Na0 O9 2.664391 1_545
Na0 O31 2.758522 1_545
Na0 O2 2.822895 1_555
Na1 O53 2.372584 1_555
Na1 O51 2.381906 1_555
Na1 O68 2.453121 1_555
Na1 O67 2.498872 1_555
Na1 O17 2.656627 1_555
Na1 O0 2.697499 1_555
Na1 O32 2.733501 1_555
Na1 O10 2.766836 1_555
Na2 O66 2.267600 1_655
Na2 O51 2.306646 1_555
Na2 O52 2.407874 1_555
Na2 O68 2.569268 1_655
Na2 O15 2.618533 1_555
Na2 O11 2.740381 1_655
Na2 O30 2.763281 1_655
Na2 O1 2.810343 1_555
Na3 O48 2.271150 1_555
Na3 O69 2.288015 1_655
Na3 O50 2.467772 1_555
Na3 O33 2.519740 1_655
Na3 O70 2.562118 1_655
Na3 O12 2.714708 1_555
Na3 O7 2.775958 1_655
Na3 O5 2.804766 1_555
Na4 O49 2.316334 1_555
Na4 O70 2.398945 1_545
Na4 O48 2.428422 1_555
Na4 O71 2.436085 1_545
Na4 O34 2.453535 1_545
Na4 O3 2.714925 1_555
Na4 O13 2.746778 1_555
Na4 O8 2.891604 1_545
Na5 O37 2.236006 1_555
Na5 O58 2.280345 1_555
Na5 O1 2.325200 1_555
Na5 O36 2.433311 1_655
Na5 O59 2.559803 1_555
Na5 O32 2.706500 1_555
Na5 O22 2.776751 1_555
Na6 O38 2.256215 1_555
Na6 O37 2.296381 1_445
Na6 O42 2.516143 1_455
Na6 O36 2.539125 1_545
Na6 O43 2.544106 1_555
Na6 O44 2.648183 1_445
Na7 O46 2.406459 1_455
Na7 O39 2.427987 1_554
Na7 O47 2.430731 1_555
Na7 O45 2.474228 1_445
Na7 O40 2.531498 1_544
Na7 O41 2.575758 1_444
Na8 O56 2.435407 1_555
Na8 O49 2.450893 1_555
Na8 O55 2.451329 1_555
Na8 O54 2.563183 1_555
Na8 O48 2.569887 1_555
Na8 O50 2.709553 1_555
Na9 O53 2.345724 1_555
Na9 O51 2.440513 1_555
Na9 O57 2.523159 1_555
Na9 O58 2.622152 1_555
Na9 O52 2.632510 1_555
Na9 O59 2.720412 1_555
Na10 O62 2.380360 1_555
Na10 O67 2.440295 1_555
Na10 O61 2.462868 1_555
Na10 O60 2.530904 1_555
Na10 O66 2.550086 1_555
Na10 O68 2.693866 1_555
Na11 O71 2.408242 1_555
Na11 O69 2.420676 1_555
Na11 O64 2.480563 1_555
Na11 O65 2.581190 1_555
Na11 O63 2.597689 1_555
Na11 O70 2.604364 1_555
Mg0 O0 1.928518 1_555
Mg0 O38 1.973887 1_555
Mg0 O1 1.986614 1_445
Mg0 O2 2.038023 1_455
Mg0 O37 2.077737 1_445
Mg0 O36 2.174338 1_545
Mg1 O49 1.955921 1_555
Mg1 O48 2.020371 1_555
Mg1 O50 2.056664 1_555
Mg1 O14 2.059346 1_555
Mg1 O13 2.077517 1_555
Mg1 O12 2.152497 1_555
Mg2 O16 1.971869 1_555
Mg2 O17 1.998693 1_555
Mg2 O53 2.011886 1_555
Mg2 O51 2.047878 1_555
Mg2 O52 2.113472 1_555
Mg2 O15 2.128781 1_555
Ge0 O3 1.789969 1_555
Ge0 O39 1.790474 1_555
Ge0 O5 1.804327 1_455
Ge0 O40 1.804444 1_545
Ge0 O41 2.257583 1_445
Ge0 O4 2.331436 1_445
Ge1 O6 1.758323 1_545
Ge1 O7 1.784032 1_655
Ge1 O8 1.931091 1_645
Ge1 O42 2.120315 1_555
Ge1 O44 2.190401 1_545
Ge1 O43 2.343100 1_655
Ge2 O9 1.787206 1_555
Ge2 O11 1.811365 1_655
Ge2 O46 1.820640 1_565
Ge2 O45 2.082940 1_555
Ge2 O10 2.133671 1_665
Ge2 O47 2.298544 1_665
Ge3 O20 1.752822 1_556
Ge3 O56 1.828713 1_555
Ge3 O55 1.833334 1_555
Ge3 O19 2.133312 1_556
Ge3 O18 2.188030 1_556
Ge3 O54 2.204130 1_555
Ge4 O57 1.758693 1_555
Ge4 O58 1.797068 1_555
Ge4 O21 1.985645 1_555
Ge4 O23 2.069681 1_555
Ge4 O59 2.085087 1_555
Ge4 O22 2.172475 1_555
Ge5 O26 1.789364 1_554
Ge5 O25 1.792353 1_554
Ge5 O62 1.806875 1_555
Ge5 O61 2.053568 1_555
Ge5 O24 2.064418 1_554
Ge5 O60 2.096152 1_555
Ge6 O28 1.737034 1_555
Ge6 O27 1.743465 1_555
Ge6 O29 1.893962 1_555
Ge6 O64 2.056137 1_555
Ge6 O63 2.137898 1_555
Ge6 O65 2.169922 1_555
Ge7 O31 1.796512 1_555
Ge7 O67 1.821443 1_555
Ge7 O32 1.858966 1_555
Ge7 O66 1.869267 1_555
Ge7 O68 2.184636 1_555
Ge7 O30 2.265420 1_555
Ge8 O34 1.853939 1_555
Ge8 O33 1.855095 1_555
Ge8 O35 1.885501 1_555
Ge8 O71 1.899508 1_555
Ge8 O69 1.933340 1_555
Ge8 O70 2.260647 1_555
O0 Si0 1.591055 1_545
O1 Si1 1.594045 1_555
O2 S0 1.455042 1_655
O3 Si2 1.630703 1_555
O4 S1 1.445430 1_555
O5 Si3 1.627857 1_545
O6 Si3 1.680939 1_555
O7 Si2 1.704087 1_555
O8 S1 1.558993 1_455
O9 Si1 1.664025 1_555
O10 S0 1.502543 1_555
O11 Si0 1.702793 1_555
O12 S2 1.464421 1_555
O13 S3 1.464977 1_555
O14 S4 1.451656 1_555
O15 S5 1.465217 1_555
O16 Si4 1.583487 1_555
O17 S6 1.471827 1_555
O18 S6 1.502950 1_555
O19 S5 1.493766 1_555
O20 Si4 1.661791 1_555
O21 S3 1.518297 1_555
O22 S4 1.505976 1_555
O23 S2 1.503478 1_555
O24 S7 1.477499 1_555
O25 Si5 1.618439 1_555
O26 Si6 1.610041 1_555
O27 Si7 1.655138 1_555
O28 Si8 1.655099 1_555
O29 S8 1.519566 1_555
O30 S8 1.472734 1_555
O31 Si7 1.647006 1_555
O32 Si8 1.669956 1_555
O33 Si5 1.661331 1_555
O34 Si6 1.663269 1_555
O35 S7 1.533732 1_555
O36 S8 1.450022 1_555
O37 Si7 1.580281 1_555
O38 Si8 1.559939 1_555
O39 Si5 1.652377 1_555
O40 Si6 1.653800 1_555
O41 S7 1.467579 1_555
O42 S2 1.520778 1_555
O43 S3 1.490229 1_555
O44 S4 1.510603 1_555
O45 S5 1.505416 1_555
O46 Si4 1.687444 1_555
O47 S6 1.488973 1_555
O48 Si3 1.616369 1_545
O49 Si2 1.587045 1_555
O50 S1 1.465368 1_555
O51 Si1 1.606974 1_555
O52 S0 1.478170 1_655
O53 Si0 1.607105 1_545
O54 S7 1.477740 1_555
O55 Si5 1.654876 1_655
O56 Si6 1.662600 1_545
O57 Si7 1.652635 1_545
O58 Si8 1.702224 1_555
O59 S8 1.517012 1_655
O60 S6 1.507418 1_555
O61 S5 1.509775 1_455
O62 Si4 1.675952 1_565
O63 S3 1.509536 1_565
O64 S4 1.523321 1_555
O65 S2 1.504653 1_455
O66 Si0 1.706872 1_555
O67 Si1 1.690726 1_555
O68 S0 1.507589 1_555
O69 Si2 1.643329 1_555
O70 S1 1.500089 1_455
O71 Si3 1.647962 1_555
