# generated using pymatgen
data_Na2TiZnSi(SO6)2
_symmetry_space_group_name_H-M   'P 1'
_cell_length_a   8.83519475
_cell_length_b   8.90354694
_cell_length_c   22.16655392
_cell_angle_alpha   89.92844700
_cell_angle_beta   90.00000000
_cell_angle_gamma   119.74637140
_symmetry_Int_Tables_number   1
_chemical_formula_structural   Na2TiZnSi(SO6)2
_chemical_formula_sum   'Na12 Ti6 Zn6 Si6 S12 O72'
_cell_volume   1513.95099978
_cell_formula_units_Z   6
loop_
 _symmetry_equiv_pos_site_id
 _symmetry_equiv_pos_as_xyz
  1  'x, y, z'
loop_
 _atom_site_type_symbol
 _atom_site_label
 _atom_site_symmetry_multiplicity
 _atom_site_fract_x
 _atom_site_fract_y
 _atom_site_fract_z
 _atom_site_occupancy
  Na  Na0  1  0.99402952  0.62939357  0.24208388  1
  Na  Na1  1  0.63536405  0.62939357  0.74208388  1
  Na  Na2  1  0.65171382  0.96073925  0.57610601  1
  Na  Na3  1  0.30902643  0.96073925  0.07610601  1
  Na  Na4  1  0.69740141  0.02736567  0.91031536  1
  Na  Na5  1  0.32996327  0.02736567  0.41031536  1
  Na  Na6  1  0.98668157  0.99682838  0.49308045  1
  Na  Na7  1  0.01014681  0.99682838  0.99308045  1
  Na  Na8  1  0.65942050  0.31589657  0.82699764  1
  Na  Na9  1  0.65647707  0.31589657  0.32699764  1
  Na  Na10  1  0.33177863  0.64813981  0.16027297  1
  Na  Na11  1  0.31636018  0.64813981  0.66027297  1
  Ti  Ti0  1  0.98467352  0.98590465  0.64737300  1
  Ti  Ti1  1  0.00123112  0.98590465  0.14737300  1
  Ti  Ti2  1  0.67085095  0.34315505  0.98003113  1
  Ti  Ti3  1  0.67230510  0.34315505  0.48003113  1
  Ti  Ti4  1  0.34937334  0.69449974  0.31406425  1
  Ti  Ti5  1  0.34512540  0.69449974  0.81406425  1
  Zn  Zn0  1  0.99817319  0.00960535  0.34937908  1
  Zn  Zn1  1  0.01143217  0.00960535  0.84937908  1
  Zn  Zn2  1  0.66124231  0.32162230  0.68329336  1
  Zn  Zn3  1  0.66038099  0.32162230  0.18329336  1
  Zn  Zn4  1  0.30632040  0.66648007  0.01619844  1
  Zn  Zn5  1  0.36015866  0.66648007  0.51619844  1
  Si  Si0  1  0.29902146  0.01033007  0.25439374  1
  Si  Si1  1  0.71130861  0.01033007  0.75439374  1
  Si  Si2  1  0.66362784  0.61843567  0.58946410  1
  Si  Si3  1  0.95480883  0.61843567  0.08946410  1
  Si  Si4  1  0.33037125  0.97294361  0.92069761  1
  Si  Si5  1  0.64257136  0.97294361  0.42069761  1
  S  S0  1  0.70410990  0.71130947  0.25115631  1
  S  S1  1  0.00789679  0.29547143  0.25012277  1
  S  S2  1  0.28757464  0.29547143  0.75012277  1
  S  S3  1  0.00719957  0.71130947  0.75115631  1
  S  S4  1  0.96076465  0.33296598  0.58286946  1
  S  S5  1  0.36565403  0.04210136  0.58194825  1
  S  S6  1  0.67644833  0.04210136  0.08194825  1
  S  S7  1  0.37220233  0.33296598  0.08286946  1
  S  S8  1  0.61532304  0.65753461  0.91809381  1
  S  S9  1  0.04104570  0.38020473  0.91776452  1
  S  S10  1  0.33915803  0.38020473  0.41776452  1
  S  S11  1  0.04221057  0.65753461  0.41809381  1
  O  O0  1  0.20693339  0.01734865  0.31553574  1
  O  O1  1  0.80973618  0.79236110  0.30455488  1
  O  O2  1  0.98581437  0.19936827  0.30556139  1
  O  O3  1  0.21355390  0.19936827  0.80556139  1
  O  O4  1  0.98262492  0.79236110  0.80455488  1
  O  O5  1  0.81041525  0.01734865  0.81553574  1
  O  O6  1  0.80963456  0.97091922  0.69478989  1
  O  O7  1  0.18206911  0.20199618  0.69584241  1
  O  O8  1  0.03279603  0.82022370  0.69560446  1
  O  O9  1  0.78742767  0.82022370  0.19560446  1
  O  O10  1  0.01992707  0.20199618  0.19584241  1
  O  O11  1  0.16128466  0.97091922  0.19478989  1
  O  O12  1  0.88422531  0.35424399  0.63816895  1
  O  O13  1  0.47974499  0.11684226  0.63437425  1
  O  O14  1  0.65246511  0.51917202  0.65041047  1
  O  O15  1  0.86670791  0.51917202  0.15041047  1
  O  O16  1  0.63709827  0.11684226  0.13437425  1
  O  O17  1  0.47001968  0.35424399  0.13816895  1
  O  O18  1  0.45844848  0.29909855  0.02914591  1
  O  O19  1  0.82655152  0.51307241  0.02997852  1
  O  O20  1  0.69294151  0.14627077  0.02572894  1
  O  O21  1  0.45333025  0.14627077  0.52572894  1
  O  O22  1  0.68652190  0.51307241  0.52997852  1
  O  O23  1  0.84065107  0.29909855  0.52914591  1
  O  O24  1  0.52494978  0.67488892  0.97029212  1
  O  O25  1  0.13869344  0.45154571  0.97320684  1
  O  O26  1  0.31662988  0.86982711  0.98129511  1
  O  O27  1  0.55319623  0.86982711  0.48129511  1
  O  O28  1  0.31285128  0.45154571  0.47320684  1
  O  O29  1  0.14993814  0.67488892  0.47029212  1
  O  O30  1  0.12219192  0.63614712  0.36050884  1
  O  O31  1  0.49783011  0.86269659  0.36237458  1
  O  O32  1  0.35595961  0.48522064  0.36350230  1
  O  O33  1  0.12926003  0.48522064  0.86350230  1
  O  O34  1  0.36486548  0.86269659  0.86237458  1
  O  O35  1  0.51395421  0.63614712  0.86050884  1
  O  O36  1  0.01980338  0.81032701  0.41412726  1
  O  O37  1  0.83048548  0.99474985  0.40993944  1
  O  O38  1  0.19623480  0.19951746  0.41347482  1
  O  O39  1  0.00328266  0.19951746  0.91347482  1
  O  O40  1  0.16426437  0.99474985  0.90993944  1
  O  O41  1  0.79052363  0.81032701  0.91412726  1
  O  O42  1  0.96953759  0.16652373  0.58632733  1
  O  O43  1  0.19755501  0.04218885  0.58778558  1
  O  O44  1  0.84862982  0.81930472  0.59193683  1
  O  O45  1  0.97067490  0.81930472  0.09193683  1
  O  O46  1  0.84463384  0.04218885  0.08778558  1
  O  O47  1  0.19698614  0.16652373  0.08632733  1
  O  O48  1  0.67746673  0.16787279  0.74374555  1
  O  O49  1  0.46860240  0.32685953  0.74621733  1
  O  O50  1  0.85608004  0.53780352  0.74541627  1
  O  O51  1  0.68172448  0.53780352  0.24541627  1
  O  O52  1  0.85825813  0.32685953  0.24621733  1
  O  O53  1  0.49040705  0.16787279  0.24374555  1
  O  O54  1  0.63150443  0.49702956  0.92144632  1
  O  O55  1  0.86291311  0.36982846  0.92098516  1
  O  O56  1  0.52116948  0.15881183  0.92355077  1
  O  O57  1  0.63764335  0.15881183  0.42355077  1
  O  O58  1  0.50691635  0.36982846  0.42098516  1
  O  O59  1  0.86552613  0.49702956  0.42144632  1
  O  O60  1  0.34889883  0.48193169  0.07314868  1
  O  O61  1  0.15475379  0.66110800  0.08432892  1
  O  O62  1  0.53152528  0.86309573  0.07597262  1
  O  O63  1  0.33156944  0.86309573  0.57597262  1
  O  O64  1  0.50635322  0.66110800  0.58432892  1
  O  O65  1  0.13303186  0.48193169  0.57314868  1
  O  O66  1  0.30058234  0.81831423  0.25812154  1
  O  O67  1  0.52711586  0.69704503  0.25497409  1
  O  O68  1  0.17179480  0.47021746  0.25191973  1
  O  O69  1  0.29842167  0.47021746  0.75191973  1
  O  O70  1  0.16992817  0.69704503  0.75497409  1
  O  O71  1  0.51773089  0.81831423  0.75812154  1
loop_
_geom_bond_atom_site_label_1
_geom_bond_atom_site_label_2
_geom_bond_distance
_geom_bond_site_symmetry_2
Na0 O15 2.295076 1_555
Na0 O52 2.344351 1_555
Na0 O66 2.402523 1_655
Na0 O51 2.459890 1_555
Na0 O68 2.594392 1_655
Na0 O11 2.839398 1_655
Na0 O30 2.847744 1_655
Na1 O14 2.295078 1_555
Na1 O49 2.344350 1_555
Na1 O71 2.402530 1_555
Na1 O50 2.459899 1_555
Na1 O69 2.594400 1_555
Na1 O6 2.839398 1_555
Na1 O35 2.847748 1_555
Na2 O27 2.266006 1_555
Na2 O64 2.323481 1_555
Na2 O42 2.487773 1_565
Na2 O63 2.513220 1_555
Na2 O44 2.628443 1_555
Na2 O23 2.819169 1_565
Na2 O13 2.829931 1_565
Na2 O6 2.958250 1_555
Na3 O26 2.266003 1_554
Na3 O61 2.323481 1_555
Na3 O47 2.487780 1_565
Na3 O62 2.513203 1_555
Na3 O45 2.628451 1_455
Na3 O18 2.819169 1_565
Na3 O16 2.829931 1_565
Na3 O11 2.958254 1_555
Na4 O5 2.346856 1_555
Na4 O39 2.355340 1_655
Na4 O56 2.385221 1_555
Na4 O41 2.448586 1_545
Na4 O55 2.658713 1_555
Na4 O34 2.764097 1_545
Na4 O20 2.777682 1_556
Na5 O0 2.346852 1_555
Na5 O38 2.355333 1_555
Na5 O57 2.385237 1_555
Na5 O36 2.448579 1_545
Na5 O58 2.658713 1_555
Na5 O31 2.764097 1_545
Na5 O21 2.777686 1_555
Na6 O37 2.296957 1_555
Na6 O36 2.528904 1_655
Na6 O38 2.544572 1_665
Na6 O42 2.610165 1_565
Na6 O44 2.620318 1_555
Na6 O43 2.701245 1_665
Na7 O40 2.296957 1_555
Na7 O41 2.528904 1_455
Na7 O39 2.544572 1_565
Na7 O47 2.610165 1_566
Na7 O45 2.620318 1_456
Na7 O46 2.701245 1_466
Na8 O48 2.320026 1_555
Na8 O49 2.494198 1_555
Na8 O56 2.515165 1_555
Na8 O50 2.603334 1_555
Na8 O55 2.636149 1_555
Na8 O54 2.729109 1_555
Na9 O53 2.320026 1_555
Na9 O52 2.494198 1_555
Na9 O57 2.515165 1_555
Na9 O51 2.603334 1_555
Na9 O58 2.636149 1_555
Na9 O59 2.729109 1_555
Na10 O61 2.339272 1_555
Na10 O60 2.484307 1_555
Na10 O68 2.530692 1_555
Na10 O67 2.613681 1_555
Na10 O62 2.628434 1_555
Na10 O66 2.738375 1_555
Na11 O64 2.339272 1_555
Na11 O65 2.484307 1_555
Na11 O69 2.530692 1_555
Na11 O70 2.613681 1_555
Na11 O63 2.628434 1_555
Na11 O71 2.738375 1_555
O0 Si0 1.597936 1_555
O0 Zn0 1.960401 1_455
O1 S0 1.458283 1_555
O1 Zn0 2.075957 1_565
O2 S1 1.453301 1_655
O2 Zn0 1.997228 1_555
O3 S2 1.453301 1_555
O3 Zn1 1.997227 1_555
O4 S3 1.458283 1_655
O4 Zn1 2.075957 1_665
O5 Si1 1.597936 1_555
O5 Zn1 1.960401 1_655
O6 Si1 1.710868 1_565
O6 Ti0 1.819097 1_555
O7 S2 1.497314 1_555
O7 Ti0 2.138485 1_445
O8 S3 1.512360 1_555
O8 Ti0 2.029359 1_455
O9 S0 1.512360 1_555
O9 Ti1 2.029359 1_655
O10 S1 1.497314 1_555
O10 Ti1 2.138485 1_545
O11 Si0 1.710868 1_565
O11 Ti1 1.819097 1_555
O12 S4 1.457218 1_555
O12 Zn2 2.097047 1_555
O13 S5 1.464822 1_555
O13 Zn2 2.043339 1_555
O14 Si2 1.589488 1_555
O14 Zn2 1.939888 1_555
O15 Si3 1.589488 1_555
O15 Zn3 1.939888 1_555
O16 S6 1.464822 1_555
O16 Zn3 2.043339 1_555
O17 S7 1.457218 1_555
O17 Zn3 2.097047 1_555
O18 S7 1.522709 1_555
O18 Ti2 2.032069 1_554
O19 Si3 1.688498 1_555
O19 Ti2 1.829198 1_554
O20 S6 1.515728 1_555
O20 Ti2 2.114748 1_554
O21 S5 1.515728 1_555
O21 Ti3 2.114748 1_555
O22 Si2 1.688498 1_555
O22 Ti3 1.829198 1_555
O23 S4 1.522709 1_555
O23 Ti3 2.032069 1_555
O24 S8 1.457078 1_555
O24 Zn4 2.151416 1_556
O25 S9 1.454748 1_555
O25 Zn4 1.988935 1_556
O26 Si4 1.596324 1_555
O26 Zn4 1.928131 1_556
O27 Si5 1.596324 1_555
O27 Zn5 1.928131 1_555
O28 S10 1.454748 1_555
O28 Zn5 1.988935 1_555
O29 S11 1.457078 1_555
O29 Zn5 2.151416 1_555
O30 S11 1.516280 1_555
O30 Ti4 2.079061 1_555
O31 Si5 1.740060 1_555
O31 Ti4 1.778951 1_555
O32 S10 1.484078 1_555
O32 Ti4 2.186047 1_555
O33 S9 1.484078 1_555
O33 Ti5 2.186047 1_555
O34 Si4 1.740060 1_555
O34 Ti5 1.778951 1_555
O35 S8 1.516280 1_555
O35 Ti5 2.079061 1_555
O36 S11 1.471241 1_555
O36 Zn0 2.361069 1_465
O37 Si5 1.590923 1_555
O37 Zn0 1.954398 1_565
O38 S10 1.475196 1_555
O38 Zn0 2.238243 1_455
O39 S9 1.475199 1_555
O39 Zn1 2.238243 1_555
O40 Si4 1.590914 1_555
O40 Zn1 1.954398 1_565
O41 S8 1.471246 1_555
O41 Zn1 2.361069 1_665
O42 S4 1.523709 1_555
O42 Ti0 2.154780 1_545
O43 S5 1.491199 1_555
O43 Ti0 2.143921 1_445
O44 Si2 1.724137 1_555
O44 Ti0 1.841289 1_555
O45 Si3 1.724141 1_555
O45 Ti1 1.841289 1_655
O46 S6 1.491190 1_555
O46 Ti1 2.143921 1_645
O47 S7 1.523713 1_555
O47 Ti1 2.154780 1_545
O48 Si1 1.589970 1_555
O48 Zn2 1.969839 1_555
O49 S2 1.483278 1_555
O49 Zn2 2.218879 1_555
O50 S3 1.462554 1_655
O50 Zn2 2.298488 1_555
O51 S0 1.462557 1_555
O51 Zn3 2.298488 1_555
O52 S1 1.483270 1_655
O52 Zn3 2.218879 1_555
O53 Si0 1.589976 1_555
O53 Zn3 1.969839 1_555
O54 S8 1.506871 1_555
O54 Ti2 2.037749 1_555
O55 S9 1.531761 1_655
O55 Ti2 2.061139 1_555
O56 Si4 1.678195 1_545
O56 Ti2 1.965063 1_555
O57 Si5 1.678186 1_545
O57 Ti3 1.965063 1_555
O58 S10 1.531779 1_555
O58 Ti3 2.061139 1_555
O59 S11 1.506861 1_655
O59 Ti3 2.037749 1_555
O60 S7 1.455411 1_555
O60 Zn4 2.245717 1_555
O61 Si3 1.616133 1_455
O61 Zn4 2.003135 1_555
O62 S6 1.473993 1_565
O62 Zn4 2.308353 1_555
O63 S5 1.473987 1_565
O63 Zn5 2.308353 1_555
O64 Si2 1.616150 1_555
O64 Zn5 2.003135 1_555
O65 S4 1.455401 1_455
O65 Zn5 2.245717 1_555
O66 Si0 1.718391 1_565
O66 Ti4 1.845801 1_555
O67 S0 1.507177 1_555
O67 Ti4 2.036392 1_555
O68 S1 1.511175 1_555
O68 Ti4 2.290130 1_555
O69 S2 1.511179 1_555
O69 Ti5 2.290130 1_555
O70 S3 1.507168 1_555
O70 Ti5 2.036392 1_555
O71 Si1 1.718396 1_565
O71 Ti5 1.845801 1_555
