# generated using pymatgen
data_Na15MgNb11(SiO4)18
_symmetry_space_group_name_H-M   'P 1'
_cell_length_a   9.05677027
_cell_length_b   9.05624359
_cell_length_c   22.55497571
_cell_angle_alpha   90.12426648
_cell_angle_beta   89.88017706
_cell_angle_gamma   120.12550187
_symmetry_Int_Tables_number   1
_chemical_formula_structural   Na15MgNb11(SiO4)18
_chemical_formula_sum   'Na15 Mg1 Nb11 Si18 O72'
_cell_volume   1600.08300665
_cell_formula_units_Z   1
loop_
 _symmetry_equiv_pos_site_id
 _symmetry_equiv_pos_as_xyz
  1  'x, y, z'
loop_
 _atom_site_type_symbol
 _atom_site_label
 _atom_site_symmetry_multiplicity
 _atom_site_fract_x
 _atom_site_fract_y
 _atom_site_fract_z
 _atom_site_occupancy
  Na  Na0  1  0.36695598  0.36588130  0.25164859  1
  Na  Na1  1  0.63070609  0.61300706  0.74161378  1
  Na  Na2  1  0.98116130  0.36995290  0.74192603  1
  Na  Na3  1  0.38956190  0.01848538  0.74148985  1
  Na  Na4  1  0.31261695  0.33655799  0.58366236  1
  Na  Na5  1  0.02324912  0.68629715  0.58373413  1
  Na  Na6  1  0.66269056  0.97615892  0.58361685  1
  Na  Na7  1  0.30032432  0.96714795  0.08525091  1
  Na  Na8  1  0.70156275  0.03568315  0.91825139  1
  Na  Na9  1  0.00075054  0.00039847  0.49294835  1
  Na  Na10  1  0.00071362  0.00092208  0.00222275  1
  Na  Na11  1  0.66537000  0.34121372  0.82858536  1
  Na  Na12  1  0.67737548  0.33171011  0.33519938  1
  Na  Na13  1  0.33423014  0.66726426  0.16881309  1
  Na  Na14  1  0.33354960  0.66707443  0.66464438  1
  Mg  Mg0  1  0.66689434  0.33356205  0.68594252  1
  Nb  Nb0  1  0.99903936  0.99973898  0.35536083  1
  Nb  Nb1  1  0.00480113  0.99982006  0.85692796  1
  Nb  Nb2  1  0.99970567  0.99994371  0.64553042  1
  Nb  Nb3  1  0.99405418  0.99885967  0.14503830  1
  Nb  Nb4  1  0.67120873  0.33414865  0.18933864  1
  Nb  Nb5  1  0.66750328  0.33849424  0.97795971  1
  Nb  Nb6  1  0.66576521  0.33328689  0.47787974  1
  Nb  Nb7  1  0.33232141  0.66157593  0.02320864  1
  Nb  Nb8  1  0.33300471  0.66650895  0.51658257  1
  Nb  Nb9  1  0.33319618  0.67188072  0.31159646  1
  Nb  Nb10  1  0.33282928  0.66549501  0.81333799  1
  Si  Si0  1  0.28601454  0.99689986  0.24864222  1
  Si  Si1  1  0.71180694  0.71148017  0.25075646  1
  Si  Si2  1  0.99794388  0.28712802  0.25080075  1
  Si  Si3  1  0.28947639  0.29110919  0.75059263  1
  Si  Si4  1  0.00116754  0.71072628  0.75073361  1
  Si  Si5  1  0.71013740  -0.00087246  0.75230094  1
  Si  Si6  1  0.95597885  0.33559698  0.58589646  1
  Si  Si7  1  0.37928970  0.04327781  0.58611204  1
  Si  Si8  1  0.66340829  0.62043374  0.58600393  1
  Si  Si9  1  0.95464477  0.62184934  0.08344286  1
  Si  Si10  1  0.66967038  0.04735616  0.08180345  1
  Si  Si11  1  0.37971506  0.33496604  0.08489858  1
  Si  Si12  1  0.62062190  0.66358973  0.91677541  1
  Si  Si13  1  0.04365784  0.37835946  0.91691750  1
  Si  Si14  1  0.33146740  0.95465010  0.91877000  1
  Si  Si15  1  0.62590366  0.95941559  0.41605717  1
  Si  Si16  1  0.33449508  0.37565879  0.41435474  1
  Si  Si17  1  0.04097563  0.66614071  0.41574304  1
  O  O0  1  0.19124191  0.02927152  0.30494959  1
  O  O1  1  0.83104802  0.80673851  0.30809686  1
  O  O2  1  0.97400257  0.16851851  0.30838163  1
  O  O3  1  0.18204701  0.16951891  0.80691413  1
  O  O4  1  0.98405312  0.81642173  0.80702876  1
  O  O5  1  0.82560275  0.01456700  0.81028540  1
  O  O6  1  0.80380268  0.97006713  0.69288445  1
  O  O7  1  0.16938530  0.19986747  0.69081588  1
  O  O8  1  0.03123727  0.83166477  0.69109290  1
  O  O9  1  0.80918783  0.83073596  0.19234412  1
  O  O10  1  0.02845799  0.19210625  0.19312998  1
  O  O11  1  0.17442806  0.97435680  0.18835803  1
  O  O12  1  0.88974827  0.38008692  0.64539103  1
  O  O13  1  0.49051373  0.11068482  0.64539062  1
  O  O14  1  0.61943901  0.50952061  0.64532724  1
  O  O15  1  0.85767338  0.50294964  0.14099861  1
  O  O16  1  0.63778686  0.14324375  0.13820847  1
  O  O17  1  0.49154410  0.35903809  0.14448048  1
  O  O18  1  0.47757462  0.30573374  0.02784740  1
  O  O19  1  0.83638842  0.52420465  0.02519724  1
  O  O20  1  0.69259334  0.15861965  0.02157318  1
  O  O21  1  0.47212095  0.17150999  0.52949678  1
  O  O22  1  0.69932396  0.52783711  0.52943425  1
  O  O23  1  0.82774463  0.30050777  0.52947993  1
  O  O24  1  0.52420699  0.69559922  0.97248901  1
  O  O25  1  0.16569577  0.47804148  0.97336665  1
  O  O26  1  0.30876381  0.84011976  0.97719115  1
  O  O27  1  0.53109552  0.84485177  0.47594926  1
  O  O28  1  0.31415511  0.47300484  0.47374664  1
  O  O29  1  0.15650627  0.68728407  0.47552314  1
  O  O30  1  0.14210261  0.64287011  0.35937809  1
  O  O31  1  0.50261373  0.85665503  0.35963128  1
  O  O32  1  0.35711454  0.49216378  0.35612102  1
  O  O33  1  0.13650300  0.49326789  0.85696096  1
  O  O34  1  0.35931644  0.85939294  0.85990279  1
  O  O35  1  0.50497044  0.64052482  0.85677781  1
  O  O36  1  0.02730430  0.83769163  0.41046253  1
  O  O37  1  0.81207990  0.97489909  0.41151850  1
  O  O38  1  0.16374706  0.18784002  0.41105731  1
  O  O39  1  0.01862400  0.18653960  0.91234851  1
  O  O40  1  0.16369569  0.97524203  0.91173171  1
  O  O41  1  0.80568829  0.83903568  0.91169307  1
  O  O42  1  0.97417974  0.16124991  0.58893924  1
  O  O43  1  0.18666910  0.02481619  0.58892155  1
  O  O44  1  0.83778475  0.81332586  0.58900849  1
  O  O45  1  0.98060342  0.81399205  0.08738370  1
  O  O46  1  0.83768106  0.02676130  0.08894877  1
  O  O47  1  0.19323824  0.15971917  0.08792428  1
  O  O48  1  0.69155653  0.16526283  0.74968910  1
  O  O49  1  0.47340903  0.30843236  0.74921818  1
  O  O50  1  0.83445710  0.52647407  0.74889839  1
  O  O51  1  0.68637895  0.51908654  0.24500844  1
  O  O52  1  0.82876843  0.30571273  0.24363147  1
  O  O53  1  0.47355019  0.17222811  0.24385953  1
  O  O54  1  0.63854235  0.49459700  0.92235356  1
  O  O55  1  0.85244194  0.35360809  0.92114297  1
  O  O56  1  0.50720578  0.14000467  0.92166329  1
  O  O57  1  0.63941978  0.14494916  0.42332557  1
  O  O58  1  0.50560852  0.36076156  0.42382962  1
  O  O59  1  0.85512522  0.49445898  0.42360862  1
  O  O60  1  0.36019318  0.50380866  0.07666429  1
  O  O61  1  0.14691390  0.64647290  0.07844908  1
  O  O62  1  0.49380922  0.86010095  0.07760379  1
  O  O63  1  0.34448306  0.84715773  0.57548628  1
  O  O64  1  0.50191525  0.65465956  0.57526467  1
  O  O65  1  0.15261536  0.49691946  0.57503575  1
  O  O66  1  0.30740276  0.82876082  0.25536003  1
  O  O67  1  0.51929304  0.68566094  0.25465620  1
  O  O68  1  0.17350330  0.47298431  0.25514641  1
  O  O69  1  0.29687428  0.47706897  0.75390407  1
  O  O70  1  0.18027208  0.70446995  0.75482346  1
  O  O71  1  0.52275907  0.82016391  0.75438107  1
loop_
_geom_bond_atom_site_label_1
_geom_bond_atom_site_label_2
_geom_bond_distance
_geom_bond_site_symmetry_2
Na0 O68 2.392002 1_555
Na0 O53 2.395002 1_555
Na0 O67 2.506747 1_555
Na0 O51 2.507312 1_555
Na0 O32 2.637824 1_555
Na0 O17 2.679164 1_555
Na0 O0 2.899820 1_555
Na0 O10 2.963490 1_555
Na1 O50 2.345161 1_555
Na1 O14 2.345488 1_555
Na1 O49 2.392444 1_555
Na1 O71 2.529013 1_555
Na1 O69 2.644871 1_555
Na1 O35 2.894077 1_555
Na1 O6 3.006931 1_555
Na2 O48 2.337824 1_555
Na2 O12 2.349332 1_555
Na2 O50 2.384963 1_555
Na2 O69 2.531337 1_655
Na2 O70 2.651190 1_655
Na2 O33 2.895530 1_655
Na3 O13 2.337628 1_555
Na3 O49 2.345001 1_555
Na3 O48 2.373498 1_555
Na3 O70 2.522106 1_545
Na3 O71 2.635177 1_545
Na4 O43 2.460494 1_555
Na4 O64 2.513470 1_555
Na4 O65 2.522242 1_555
Na4 O42 2.654127 1_455
Na4 O7 2.728417 1_555
Na4 O28 2.769327 1_555
Na4 O14 2.783409 1_555
Na4 O21 2.822359 1_555
Na5 O44 2.469258 1_455
Na5 O63 2.523025 1_555
Na5 O65 2.523341 1_555
Na5 O43 2.654690 1_565
Na5 O29 2.718563 1_555
Na5 O8 2.737372 1_555
Na5 O12 2.780299 1_455
Na5 O22 2.819120 1_455
Na6 O42 2.456931 1_565
Na6 O63 2.515087 1_555
Na6 O64 2.525102 1_555
Na6 O44 2.655761 1_555
Na6 O27 2.703478 1_555
Na6 O13 2.783470 1_565
Na6 O6 2.791920 1_555
Na6 O23 2.820301 1_565
Na7 O47 2.383863 1_565
Na7 O62 2.396570 1_555
Na7 O45 2.505800 1_455
Na7 O61 2.517244 1_555
Na7 O11 2.603005 1_555
Na7 O26 2.710155 1_554
Na7 O16 2.902673 1_565
Na7 O18 2.953494 1_565
Na8 O56 2.380210 1_555
Na8 O41 2.401429 1_545
Na8 O39 2.488220 1_655
Na8 O55 2.492310 1_555
Na8 O20 2.599178 1_556
Na8 O5 2.725957 1_555
Na8 O24 2.933353 1_545
Na8 O34 2.988179 1_545
Na9 O38 2.441142 1_555
Na9 O37 2.441641 1_445
Na9 O36 2.456086 1_545
Na9 O42 2.683928 1_455
Na9 O43 2.685028 1_555
Na9 O44 2.689889 1_445
Na10 O45 2.508317 1_445
Na10 O47 2.515933 1_555
Na10 O46 2.528648 1_455
Na10 O39 2.588618 1_554
Na10 O40 2.593961 1_544
Na10 O41 2.615585 1_444
Na11 O49 2.409948 1_555
Na11 O50 2.411011 1_555
Na11 O48 2.475329 1_555
Na11 O54 2.604886 1_555
Na11 O55 2.657864 1_555
Na11 O56 2.676489 1_555
Na12 O57 2.521475 1_555
Na12 O59 2.521746 1_555
Na12 O52 2.551673 1_555
Na12 O58 2.623174 1_555
Na12 O51 2.626744 1_555
Na12 O53 2.657956 1_555
Na13 O67 2.513499 1_555
Na13 O66 2.520116 1_555
Na13 O68 2.537422 1_555
Na13 O61 2.599950 1_555
Na13 O62 2.615415 1_555
Na13 O60 2.626856 1_555
Na14 O64 2.561277 1_555
Na14 O69 2.561824 1_555
Na14 O63 2.562189 1_555
Na14 O71 2.563748 1_555
Na14 O65 2.571068 1_555
Na14 O70 2.576045 1_555
Mg0 O13 2.055240 1_555
Mg0 O12 2.056233 1_555
Mg0 O14 2.063660 1_555
Mg0 O50 2.169900 1_555
Mg0 O49 2.179452 1_555
Mg0 O48 2.189247 1_555
Nb0 O1 1.958471 1_555
Nb0 O2 1.966336 1_565
Nb0 O0 1.979955 1_665
Nb0 O37 2.032726 1_555
Nb0 O36 2.037189 1_655
Nb0 O38 2.037895 1_665
Nb1 O3 1.932573 1_565
Nb1 O4 1.933930 1_455
Nb1 O40 1.994635 1_555
Nb1 O5 1.995972 1_465
Nb1 O39 2.053434 1_565
Nb1 O41 2.064144 1_455
Nb2 O6 1.968092 1_555
Nb2 O7 1.971959 1_665
Nb2 O8 1.976112 1_655
Nb2 O44 2.035373 1_555
Nb2 O43 2.039006 1_665
Nb2 O42 2.040837 1_565
Nb3 O9 1.923696 1_555
Nb3 O10 1.944811 1_665
Nb3 O46 2.009513 1_565
Nb3 O11 2.010989 1_655
Nb3 O45 2.072519 1_555
Nb3 O47 2.096771 1_665
Nb4 O15 1.945702 1_555
Nb4 O16 1.969295 1_555
Nb4 O52 1.994925 1_555
Nb4 O17 2.024415 1_555
Nb4 O51 2.039902 1_555
Nb4 O53 2.056877 1_555
Nb5 O19 1.928758 1_556
Nb5 O18 1.947842 1_556
Nb5 O54 2.005403 1_555
Nb5 O20 2.013047 1_556
Nb5 O55 2.056230 1_555
Nb5 O56 2.080736 1_555
Nb6 O21 1.999335 1_555
Nb6 O22 2.000959 1_555
Nb6 O58 2.005757 1_555
Nb6 O23 2.010112 1_555
Nb6 O59 2.014026 1_555
Nb6 O57 2.015881 1_555
Nb7 O25 1.945508 1_554
Nb7 O24 1.969647 1_554
Nb7 O60 1.982321 1_555
Nb7 O26 2.022816 1_554
Nb7 O61 2.037701 1_555
Nb7 O62 2.057954 1_555
Nb8 O28 1.930450 1_555
Nb8 O29 1.938326 1_555
Nb8 O27 1.938592 1_555
Nb8 O65 2.060880 1_555
Nb8 O63 2.067084 1_555
Nb8 O64 2.068205 1_555
Nb9 O31 1.936503 1_555
Nb9 O30 1.939790 1_555
Nb9 O66 2.006031 1_555
Nb9 O32 2.016507 1_555
Nb9 O67 2.070306 1_555
Nb9 O68 2.083300 1_555
Nb10 O33 1.943687 1_555
Nb10 O35 1.950121 1_555
Nb10 O34 1.953027 1_555
Nb10 O69 2.061333 1_555
Nb10 O71 2.066193 1_555
Nb10 O70 2.067523 1_555
O0 Si0 1.637689 1_545
O1 Si1 1.627565 1_555
O2 Si2 1.630528 1_555
O3 Si3 1.642677 1_555
O4 Si4 1.641746 1_655
O5 Si5 1.637597 1_555
O6 Si5 1.674118 1_565
O7 Si3 1.668150 1_555
O8 Si4 1.669951 1_555
O9 Si1 1.650825 1_555
O10 Si2 1.655672 1_455
O11 Si0 1.645984 1_555
O12 Si6 1.599912 1_555
O13 Si7 1.599951 1_555
O14 Si8 1.599982 1_555
O15 Si9 1.633417 1_555
O16 Si10 1.643586 1_555
O17 Si11 1.631588 1_555
O18 Si11 1.655504 1_555
O19 Si9 1.644719 1_555
O20 Si10 1.642770 1_555
O21 Si7 1.645593 1_555
O22 Si8 1.644518 1_555
O23 Si6 1.644068 1_555
O24 Si12 1.635095 1_555
O25 Si13 1.630022 1_555
O26 Si14 1.626379 1_555
O27 Si15 1.656969 1_555
O28 Si16 1.662071 1_555
O29 Si17 1.659267 1_555
O30 Si17 1.639269 1_555
O31 Si15 1.640221 1_555
O32 Si16 1.633492 1_555
O33 Si13 1.655823 1_555
O34 Si14 1.668166 1_555
O35 Si12 1.660450 1_555
O36 Si17 1.623936 1_555
O37 Si15 1.623351 1_555
O38 Si16 1.627799 1_555
O39 Si13 1.638213 1_555
O40 Si14 1.629214 1_555
O41 Si12 1.635166 1_555
O42 Si6 1.669335 1_555
O43 Si7 1.667971 1_555
O44 Si8 1.667626 1_555
O45 Si9 1.637027 1_555
O46 Si10 1.631614 1_555
O47 Si11 1.638666 1_555
O48 Si5 1.596895 1_555
O49 Si3 1.593127 1_555
O50 Si4 1.592712 1_655
O51 Si1 1.643788 1_555
O52 Si2 1.631585 1_555
O53 Si0 1.646355 1_545
O54 Si12 1.623167 1_555
O55 Si13 1.633461 1_655
O56 Si14 1.635047 1_545
O57 Si15 1.630179 1_545
O58 Si16 1.636134 1_555
O59 Si17 1.629423 1_655
O60 Si11 1.636026 1_555
O61 Si9 1.644437 1_455
O62 Si10 1.646298 1_565
O63 Si7 1.657660 1_565
O64 Si8 1.658563 1_555
O65 Si6 1.659535 1_455
O66 Si0 1.635947 1_555
O67 Si1 1.640917 1_555
O68 Si2 1.638384 1_455
O69 Si3 1.653016 1_555
O70 Si4 1.654044 1_555
O71 Si5 1.657725 1_565
