# generated using pymatgen
data_K4Zr5O12
_symmetry_space_group_name_H-M   'P 1'
_cell_length_a   5.83090513
_cell_length_b   5.83090437
_cell_length_c   10.46357598
_cell_angle_alpha   89.99997939
_cell_angle_beta   90.00004411
_cell_angle_gamma   119.99999999
_symmetry_Int_Tables_number   1
_chemical_formula_structural   K4Zr5O12
_chemical_formula_sum   'K4 Zr5 O12'
_cell_volume   308.09358671
_cell_formula_units_Z   1
loop_
 _symmetry_equiv_pos_site_id
 _symmetry_equiv_pos_as_xyz
  1  'x, y, z'
loop_
 _atom_site_type_symbol
 _atom_site_label
 _atom_site_symmetry_multiplicity
 _atom_site_fract_x
 _atom_site_fract_y
 _atom_site_fract_z
 _atom_site_occupancy
  K  K0  1  0.66666728  0.33333281  0.61265507  1
  K  K1  1  0.33333272  0.66666610  0.38734342  1
  K  K2  1  -0.00000033  0.00000165  0.82128374  1
  K  K3  1  0.99999881  0.99999878  0.17871630  1
  Zr  Zr0  1  0.66666594  0.33333363  0.28343699  1
  Zr  Zr1  1  0.33333337  0.66666673  0.71656248  1
  Zr  Zr2  1  0.66666713  0.33333369  0.97585615  1
  Zr  Zr3  1  0.33333336  0.66666604  0.02414464  1
  Zr  Zr4  1  -0.00000037  -0.00000083  0.49999934  1
  O  O0  1  0.98087418  0.49043753  0.12259345  1
  O  O1  1  0.50956295  0.49043744  0.12259355  1
  O  O2  1  0.50956256  0.01912637  0.12259385  1
  O  O3  1  0.49043709  0.50956272  0.87740727  1
  O  O4  1  0.01912684  0.50956215  0.87740716  1
  O  O5  1  0.49043729  0.98087314  0.87740732  1
  O  O6  1  0.32989336  0.16494733  0.37853389  1
  O  O7  1  0.83505305  0.16494699  0.37853376  1
  O  O8  1  0.83505441  0.67010887  0.37853274  1
  O  O9  1  0.16494665  0.32989342  0.62146582  1
  O  O10  1  0.67010579  0.83505213  0.62146560  1
  O  O11  1  0.16494693  0.83505231  0.62146544  1
loop_
_geom_bond_atom_site_label_1
_geom_bond_atom_site_label_2
_geom_bond_distance
_geom_bond_site_symmetry_2
K0 O9 2.916956 1_655
K0 O11 2.916959 1_655
K0 O10 2.916961 1_545
K0 O10 2.916961 1_555
K0 O11 2.916964 1_545
K0 O9 2.916967 1_555
K0 O7 2.982164 1_555
K0 O6 2.982167 1_555
K0 O8 2.982184 1_555
K0 O4 3.292728 1_655
K0 O5 3.292730 1_545
K0 O3 3.292732 1_555
K1 O6 2.916955 1_555
K1 O7 2.916957 1_455
K1 O8 2.916960 1_455
K1 O8 2.916963 1_555
K1 O7 2.916965 1_565
K1 O6 2.916966 1_565
K1 O11 2.982171 1_555
K1 O10 2.982174 1_555
K1 O9 2.982175 1_555
K1 O0 3.292706 1_455
K1 O1 3.292708 1_555
K1 O2 3.292708 1_565
K2 O9 2.673307 1_555
K2 O10 2.673315 1_445
K2 O11 2.673326 1_545
K2 O4 2.975559 1_555
K2 O5 2.975567 1_445
K2 O3 2.975572 1_555
K2 O3 2.975581 1_445
K2 O5 2.975588 1_545
K2 O4 2.975594 1_545
K3 O8 2.673289 1_555
K3 O7 2.673311 1_565
K3 O6 2.673312 1_665
K3 O1 2.975567 1_555
K3 O0 2.975569 1_555
K3 O2 2.975575 1_565
K3 O2 2.975575 1_665
K3 O0 2.975581 1_565
K3 O1 2.975583 1_665
O0 Zr3 2.056432 1_655
O0 Zr2 2.207921 1_554
O0 Zr0 2.313003 1_555
O1 Zr3 2.056427 1_555
O1 Zr2 2.207926 1_554
O1 Zr0 2.312995 1_555
O2 Zr3 2.056438 1_545
O2 Zr2 2.207925 1_554
O2 Zr0 2.312995 1_555
O3 Zr2 2.056431 1_555
O3 Zr3 2.207923 1_556
O3 Zr1 2.313009 1_555
O4 Zr2 2.056435 1_455
O4 Zr3 2.207920 1_556
O4 Zr1 2.313005 1_555
O5 Zr2 2.056437 1_565
O5 Zr3 2.207922 1_556
O5 Zr1 2.313005 1_555
O6 Zr0 1.970327 1_555
O6 Zr4 2.095344 1_555
O7 Zr0 1.970331 1_555
O7 Zr4 2.095346 1_655
O8 Zr0 1.970332 1_555
O8 Zr4 2.095337 1_665
O9 Zr1 1.970328 1_555
O9 Zr4 2.095352 1_555
O10 Zr1 1.970327 1_555
O10 Zr4 2.095350 1_665
O11 Zr1 1.970324 1_555
O11 Zr4 2.095349 1_565
