# generated using pymatgen
data_Na6MgZr3Si2(PO6)4
_symmetry_space_group_name_H-M   'P 1'
_cell_length_a   9.14689618
_cell_length_b   9.13395876
_cell_length_c   22.57951377
_cell_angle_alpha   89.86470434
_cell_angle_beta   90.09985108
_cell_angle_gamma   119.88974750
_symmetry_Int_Tables_number   1
_chemical_formula_structural   Na6MgZr3Si2(PO6)4
_chemical_formula_sum   'Na18 Mg3 Zr9 Si6 P12 O72'
_cell_volume   1635.52855107
_cell_formula_units_Z   3
loop_
 _symmetry_equiv_pos_site_id
 _symmetry_equiv_pos_as_xyz
  1  'x, y, z'
loop_
 _atom_site_type_symbol
 _atom_site_label
 _atom_site_symmetry_multiplicity
 _atom_site_fract_x
 _atom_site_fract_y
 _atom_site_fract_z
 _atom_site_occupancy
  Na  Na0  1  0.00040058  0.99310026  0.49735631  1
  Na  Na1  1  0.99913485  0.99585253  0.99808281  1
  Na  Na2  1  0.64563257  0.29740782  0.82951612  1
  Na  Na3  1  0.64919358  0.33086772  0.32170358  1
  Na  Na4  1  0.32668777  0.66496572  0.16268477  1
  Na  Na5  1  0.32222505  0.66328920  0.66515941  1
  Na  Na6  1  0.64400323  0.01405089  0.24193119  1
  Na  Na7  1  0.98481215  0.61965718  0.23759815  1
  Na  Na8  1  0.63281859  0.61683211  0.73891973  1
  Na  Na9  1  0.98935839  0.36542883  0.74397299  1
  Na  Na10  1  0.66710519  0.97356162  0.58803082  1
  Na  Na11  1  0.66616084  0.68483017  0.08004492  1
  Na  Na12  1  0.02325695  0.33908503  0.08724458  1
  Na  Na13  1  0.96962559  0.66712603  0.91910721  1
  Na  Na14  1  0.33620386  0.30722629  0.91760791  1
  Na  Na15  1  0.96249564  0.28219638  0.40745026  1
  Na  Na16  1  0.32828395  0.02991400  0.40819435  1
  Na  Na17  1  0.71542481  0.68770996  0.41360711  1
  Mg  Mg0  1  0.99981104  0.00035049  0.34975626  1
  Mg  Mg1  1  0.65836386  0.33148383  0.68310669  1
  Mg  Mg2  1  0.66147352  0.33328386  0.18332062  1
  Zr  Zr0  1  0.99528394  0.00061148  0.85342787  1
  Zr  Zr1  1  0.00689658  0.99546804  0.64440981  1
  Zr  Zr2  1  0.01013942  0.00220723  0.14933628  1
  Zr  Zr3  1  0.66796203  0.33073993  0.98122630  1
  Zr  Zr4  1  0.66836059  0.33874110  0.48434882  1
  Zr  Zr5  1  0.33288499  0.67538447  0.01844278  1
  Zr  Zr6  1  0.33696450  0.66450933  0.52189823  1
  Zr  Zr7  1  0.33785977  0.66682787  0.31250410  1
  Zr  Zr8  1  0.33749884  0.67526265  0.81427600  1
  Si  Si0  1  0.66765556  0.63094568  0.58763288  1
  Si  Si1  1  0.96232743  0.62711671  0.08786572  1
  Si  Si2  1  0.62810401  0.66706277  0.91779473  1
  Si  Si3  1  0.03995956  0.37394938  0.91653811  1
  Si  Si4  1  0.33525397  0.96580528  0.91503243  1
  Si  Si5  1  0.63332621  0.96655215  0.41648747  1
  P  P0  1  0.29924428  0.00334955  0.25583944  1
  P  P1  1  0.70728273  0.70357635  0.25252074  1
  P  P2  1  0.99633822  0.29527433  0.25318762  1
  P  P3  1  0.29742796  0.29466869  0.75079451  1
  P  P4  1  0.99827199  0.69888259  0.75054068  1
  P  P5  1  0.70440051  0.00120645  0.74545190  1
  P  P6  1  0.96121152  0.33504994  0.58768292  1
  P  P7  1  0.37737281  0.04273620  0.58291769  1
  P  P8  1  0.66683551  0.03833268  0.09032277  1
  P  P9  1  0.37456174  0.33516618  0.08434914  1
  P  P10  1  0.33278469  0.37052317  0.41678370  1
  P  P11  1  0.04047334  0.66577901  0.41548907  1
  O  O0  1  0.21716371  0.01291215  0.31374675  1
  O  O1  1  0.80814077  0.78932267  0.30911448  1
  O  O2  1  0.98764954  0.19454276  0.30892832  1
  O  O3  1  0.20755474  0.20116283  0.80884474  1
  O  O4  1  0.99211237  0.79253834  0.80721234  1
  O  O5  1  0.81759715  0.01316690  0.79930903  1
  O  O6  1  0.79415803  0.98414785  0.68904439  1
  O  O7  1  0.17998683  0.19405716  0.69805851  1
  O  O8  1  0.00759748  0.81003386  0.69630680  1
  O  O9  1  0.79905512  0.81971485  0.19753678  1
  O  O10  1  0.01084280  0.20598758  0.19633961  1
  O  O11  1  0.18021189  0.98445536  0.20278074  1
  O  O12  1  0.87816545  0.35030303  0.64379880  1
  O  O13  1  0.49718253  0.12804091  0.63441580  1
  O  O14  1  0.65070964  0.52651477  0.64645696  1
  O  O15  1  0.87614255  0.51337569  0.14579437  1
  O  O16  1  0.64816990  0.11405624  0.14799357  1
  O  O17  1  0.48728731  0.35233255  0.13626019  1
  O  O18  1  0.44575655  0.31377846  0.02473234  1
  O  O19  1  0.84471164  0.53704263  0.02855144  1
  O  O20  1  0.68260580  0.15129632  0.03652709  1
  O  O21  1  0.45646349  0.14006552  0.52347176  1
  O  O22  1  0.67998351  0.53750556  0.52602897  1
  O  O23  1  0.84647131  0.31087118  0.53171690  1
  O  O24  1  0.54160534  0.68984007  0.97759836  1
  O  O25  1  0.15847833  0.46436857  0.97487203  1
  O  O26  1  0.30080614  0.84228735  0.97201217  1
  O  O27  1  0.53181579  0.84611549  0.47367863  1
  O  O28  1  0.30966464  0.45863920  0.47141245  1
  O  O29  1  0.15263672  0.68173166  0.46868120  1
  O  O30  1  0.12098440  0.63714997  0.35872697  1
  O  O31  1  0.50925026  0.87013897  0.35839015  1
  O  O32  1  0.35564130  0.48418245  0.36175163  1
  O  O33  1  0.13125857  0.49270874  0.85810266  1
  O  O34  1  0.36018965  0.87533512  0.85662730  1
  O  O35  1  0.51051469  0.64167075  0.85919658  1
  O  O36  1  0.02251627  0.82427357  0.41226289  1
  O  O37  1  0.81862375  0.98391250  0.41315564  1
  O  O38  1  0.17983625  0.19283507  0.41191984  1
  O  O39  1  0.02641862  0.18942587  0.91154714  1
  O  O40  1  0.16399630  0.98041208  0.91057031  1
  O  O41  1  0.82025241  0.82658831  0.91182514  1
  O  O42  1  0.97760222  0.17241472  0.58730480  1
  O  O43  1  0.20134977  0.02692300  0.58735007  1
  O  O44  1  0.83376349  0.82620648  0.58504802  1
  O  O45  1  0.97630844  0.81600050  0.09075198  1
  O  O46  1  0.83531211  0.02929807  0.08993687  1
  O  O47  1  0.18864253  0.18349624  0.09020351  1
  O  O48  1  0.68987366  0.16057063  0.74486608  1
  O  O49  1  0.47445117  0.31761313  0.74809460  1
  O  O50  1  0.83951055  0.52313402  0.74919484  1
  O  O51  1  0.68541081  0.52761118  0.24616199  1
  O  O52  1  0.83712219  0.31359243  0.25067496  1
  O  O53  1  0.47861985  0.14910422  0.24809887  1
  O  O54  1  0.64318324  0.49586438  0.92192556  1
  O  O55  1  0.85622300  0.35959349  0.92298985  1
  O  O56  1  0.49471838  0.15443778  0.92159182  1
  O  O57  1  0.64760149  0.15400434  0.41969422  1
  O  O58  1  0.49929022  0.36272938  0.42022913  1
  O  O59  1  0.86194103  0.50476217  0.42108218  1
  O  O60  1  0.35660520  0.49734678  0.08227080  1
  O  O61  1  0.15007830  0.64540686  0.08140230  1
  O  O62  1  0.52009977  0.85362931  0.08317361  1
  O  O63  1  0.35123879  0.86123125  0.57687301  1
  O  O64  1  0.50396851  0.66343003  0.58217554  1
  O  O65  1  0.13698531  0.49129705  0.57879325  1
  O  O66  1  0.30306096  0.83072091  0.25299709  1
  O  O67  1  0.53100439  0.69714600  0.25324031  1
  O  O68  1  0.15485397  0.47888327  0.25308986  1
  O  O69  1  0.30706980  0.47203532  0.74965157  1
  O  O70  1  0.15759279  0.67858832  0.74872075  1
  O  O71  1  0.53321980  0.83287272  0.74894729  1
loop_
_geom_bond_atom_site_label_1
_geom_bond_atom_site_label_2
_geom_bond_distance
_geom_bond_site_symmetry_2
Na0 O37 2.497371 1_455
Na0 O44 2.499613 1_455
Na0 O36 2.537078 1_555
Na0 O38 2.598789 1_565
Na0 O43 2.650848 1_565
Na0 O42 2.684878 1_465
Na1 O41 2.518477 1_555
Na1 O40 2.534180 1_655
Na1 O39 2.559666 1_665
Na1 O45 2.600757 1_556
Na1 O46 2.666526 1_566
Na1 O47 2.704083 1_666
Na2 O48 2.428431 1_555
Na2 O56 2.476635 1_555
Na2 O49 2.478311 1_555
Na2 O50 2.652249 1_555
Na2 O55 2.718213 1_555
Na2 O54 2.774634 1_555
Na3 O53 2.318415 1_555
Na3 O51 2.375430 1_555
Na3 O52 2.415164 1_555
Na3 O58 2.706520 1_555
Na3 O57 2.732258 1_555
Na3 O59 2.875045 1_555
Na4 O61 2.390293 1_555
Na4 O60 2.479546 1_555
Na4 O62 2.506101 1_555
Na4 O66 2.615243 1_555
Na4 O68 2.618862 1_555
Na4 O67 2.683631 1_555
Na5 O70 2.463327 1_555
Na5 O64 2.506618 1_555
Na5 O69 2.540549 1_555
Na5 O65 2.547895 1_555
Na5 O71 2.593241 1_555
Na5 O63 2.611471 1_555
Na6 O16 2.300258 1_555
Na6 O53 2.385559 1_555
Na6 O52 2.414427 1_555
Na6 O67 2.554953 1_545
Na6 O66 2.718078 1_545
Na6 O31 2.922672 1_545
Na6 O9 2.947793 1_545
Na7 O15 2.295183 1_555
Na7 O51 2.439351 1_555
Na7 O52 2.441502 1_555
Na7 O68 2.486775 1_655
Na7 O66 2.591864 1_655
Na8 O14 2.282535 1_555
Na8 O49 2.379792 1_555
Na8 O50 2.443518 1_555
Na8 O71 2.563145 1_555
Na8 O69 2.599865 1_555
Na9 O48 2.428386 1_555
Na9 O50 2.436530 1_555
Na9 O12 2.454190 1_555
Na9 O70 2.484995 1_655
Na9 O69 2.566874 1_655
Na9 O33 2.859317 1_655
Na10 O64 2.461031 1_555
Na10 O44 2.487085 1_555
Na10 O42 2.494811 1_565
Na10 O6 2.538098 1_555
Na10 O63 2.551048 1_555
Na10 O13 2.775256 1_565
Na10 O27 2.849665 1_555
Na10 O23 2.958338 1_565
Na11 O60 2.473816 1_555
Na11 O45 2.480576 1_555
Na11 O62 2.494172 1_555
Na11 O24 2.587128 1_554
Na11 O46 2.737440 1_565
Na11 O19 2.837718 1_555
Na11 O9 2.923185 1_555
Na11 O17 2.923733 1_555
Na12 O61 2.440374 1_555
Na12 O46 2.473253 1_455
Na12 O47 2.540560 1_555
Na12 O60 2.647026 1_555
Na12 O10 2.721763 1_555
Na12 O25 2.804258 1_554
Na12 O15 2.871246 1_455
Na12 O20 2.938105 1_455
Na13 O41 2.448830 1_555
Na13 O55 2.463578 1_555
Na13 O40 2.512871 1_655
Na13 O54 2.590706 1_555
Na13 O19 2.732577 1_556
Na13 O4 2.737002 1_555
Na13 O26 2.886038 1_655
Na13 O33 2.997688 1_655
Na14 O54 2.457751 1_555
Na14 O56 2.464468 1_555
Na14 O39 2.483191 1_555
Na14 O40 2.594663 1_545
Na14 O18 2.605928 1_556
Na14 O3 2.686869 1_555
Na14 O25 2.952346 1_555
Na14 O35 2.957599 1_555
Na15 O37 2.365767 1_545
Na15 O2 2.415879 1_555
Na15 O38 2.498932 1_655
Na15 O57 2.526566 1_555
Na15 O59 2.634561 1_555
Na16 O0 2.332765 1_555
Na16 O38 2.465795 1_555
Na16 O36 2.474473 1_545
Na16 O57 2.565590 1_555
Na16 O58 2.650456 1_555
Na16 O21 2.826319 1_555
Na16 O31 2.925102 1_545
Na17 O37 2.380220 1_555
Na17 O36 2.440284 1_655
Na17 O1 2.521807 1_555
Na17 O59 2.616637 1_555
Na17 O58 2.625274 1_555
Na17 O22 2.823853 1_555
Mg0 O2 2.048651 1_555
Mg0 O1 2.065389 1_545
Mg0 O0 2.098727 1_655
Mg0 O37 2.139559 1_545
Mg0 O38 2.211544 1_655
Mg0 O36 2.223244 1_645
Mg1 O14 1.995058 1_555
Mg1 O13 2.027036 1_555
Mg1 O12 2.126141 1_555
Mg1 O49 2.189636 1_555
Mg1 O48 2.213939 1_555
Mg1 O50 2.269234 1_555
Mg2 O17 1.991832 1_555
Mg2 O15 2.014797 1_555
Mg2 O16 2.103592 1_555
Mg2 O51 2.198935 1_555
Mg2 O53 2.226985 1_555
Mg2 O52 2.281394 1_555
O0 P0 1.533045 1_555
O1 P1 1.542044 1_555
O2 P2 1.535881 1_555
O3 P3 1.556276 1_555
O3 Zr0 2.142920 1_455
O4 P4 1.557513 1_555
O4 Zr0 2.157803 1_565
O5 P5 1.564068 1_555
O5 Zr0 2.079929 1_555
O6 P5 1.566077 1_565
O6 Zr1 2.149124 1_655
O7 P3 1.559867 1_555
O7 Zr1 2.098980 1_545
O8 P4 1.563897 1_455
O8 Zr1 2.059947 1_555
O9 P1 1.575186 1_555
O9 Zr2 2.117066 1_665
O10 P2 1.563239 1_455
O10 Zr2 2.142035 1_555
O11 P0 1.568335 1_565
O11 Zr2 2.036288 1_565
O12 P6 1.520379 1_555
O13 P7 1.519535 1_555
O14 Si0 1.595441 1_555
O15 Si1 1.610143 1_555
O16 P8 1.525100 1_555
O17 P9 1.515630 1_555
O18 P9 1.550924 1_555
O18 Zr3 2.193725 1_554
O19 Si1 1.657103 1_555
O19 Zr3 2.067271 1_554
O20 P8 1.551525 1_555
O20 Zr3 2.114731 1_554
O21 P7 1.572292 1_555
O21 Zr4 2.079177 1_555
O22 Si0 1.666750 1_555
O22 Zr4 2.002104 1_555
O23 P6 1.585196 1_555
O23 Zr4 2.066127 1_555
O24 Si2 1.631499 1_555
O24 Zr5 2.065703 1_556
O25 Si3 1.643175 1_555
O25 Zr5 2.041246 1_556
O26 Si4 1.633299 1_555
O26 Zr5 1.986569 1_556
O27 Si5 1.649031 1_555
O27 Zr6 2.040882 1_555
O28 P10 1.545716 1_555
O28 Zr6 2.106872 1_555
O29 P11 1.537486 1_555
O29 Zr6 2.137217 1_555
O30 P11 1.565299 1_555
O30 Zr7 2.137267 1_555
O31 Si5 1.669892 1_555
O31 Zr7 2.020293 1_555
O32 P10 1.563337 1_555
O32 Zr7 2.075368 1_555
O33 Si3 1.645973 1_555
O33 Zr8 2.044995 1_555
O34 Si4 1.633416 1_555
O34 Zr8 1.981579 1_555
O35 Si2 1.645953 1_555
O35 Zr8 2.025906 1_555
O36 P11 1.537700 1_555
O37 Si5 1.623579 1_555
O38 P10 1.529931 1_555
O39 Si3 1.631412 1_555
O39 Zr0 2.073028 1_455
O40 Si4 1.639965 1_555
O40 Zr0 2.087088 1_465
O41 Si2 1.636407 1_555
O41 Zr0 2.071123 1_565
O42 P6 1.565664 1_555
O42 Zr1 2.183373 1_645
O43 P7 1.546577 1_555
O43 Zr1 2.098325 1_545
O44 Si0 1.670878 1_555
O44 Zr1 2.063218 1_655
O45 Si1 1.666649 1_555
O45 Zr2 2.054982 1_665
O46 P8 1.583818 1_555
O46 Zr2 2.191488 1_655
O47 P9 1.574967 1_555
O47 Zr2 2.119690 1_555
O48 P5 1.526222 1_555
O49 P3 1.526944 1_555
O50 P4 1.537323 1_555
O51 P1 1.524609 1_555
O52 P2 1.547463 1_555
O53 P0 1.522432 1_555
O54 Si2 1.639259 1_555
O54 Zr3 2.109297 1_555
O55 Si3 1.626045 1_655
O55 Zr3 2.077929 1_555
O56 Si4 1.616717 1_545
O56 Zr3 2.092102 1_555
O57 Si5 1.652751 1_545
O57 Zr4 2.169298 1_555
O58 P10 1.561504 1_555
O58 Zr4 2.205467 1_555
O59 P11 1.565839 1_655
O59 Zr4 2.190423 1_555
O60 P9 1.570261 1_555
O60 Zr5 2.260118 1_555
O61 Si1 1.647201 1_455
O61 Zr5 2.107605 1_555
O62 P8 1.554813 1_565
O62 Zr5 2.223321 1_555
O63 P7 1.558923 1_565
O63 Zr6 2.136047 1_555
O64 Si0 1.669389 1_555
O64 Zr6 2.047845 1_555
O65 P6 1.541071 1_455
O65 Zr6 2.147936 1_555
O66 P0 1.595911 1_565
O66 Zr7 2.147460 1_555
O67 P1 1.584060 1_555
O67 Zr7 2.123052 1_555
O68 P2 1.578399 1_455
O68 Zr7 2.165135 1_555
O69 P3 1.578115 1_555
O69 Zr8 2.269114 1_555
O70 P4 1.558597 1_455
O70 Zr8 2.222834 1_555
O71 P5 1.556396 1_565
O71 Zr8 2.209942 1_555
