# generated using pymatgen
data_MgCr3CuO8
_symmetry_space_group_name_H-M   'P 1'
_cell_length_a   5.10697800
_cell_length_b   5.10720125
_cell_length_c   6.40700665
_cell_angle_alpha   88.35479485
_cell_angle_beta   88.35972658
_cell_angle_gamma   67.65090166
_symmetry_Int_Tables_number   1
_chemical_formula_structural   MgCr3CuO8
_chemical_formula_sum   'Mg1 Cr3 Cu1 O8'
_cell_volume   154.46523913
_cell_formula_units_Z   1
loop_
 _symmetry_equiv_pos_site_id
 _symmetry_equiv_pos_as_xyz
  1  'x, y, z'
loop_
 _atom_site_type_symbol
 _atom_site_label
 _atom_site_symmetry_multiplicity
 _atom_site_fract_x
 _atom_site_fract_y
 _atom_site_fract_z
 _atom_site_occupancy
  Mg  Mg0  1  0.66529000  0.66525800  0.76493700  1
  Cr  Cr0  1  0.33853500  0.33852100  0.73427100  1
  Cr  Cr1  1  0.64259200  0.64260500  0.26434500  1
  Cr  Cr2  1  0.00177100  0.00182400  0.49711400  1
  Cu  Cu0  1  0.99788100  0.99770000  0.01469700  1
  O  O0  1  0.78630400  0.26834100  0.27286200  1
  O  O1  1  0.22675400  0.22663500  0.95364600  1
  O  O2  1  0.26827600  0.78638000  0.27286200  1
  O  O3  1  0.77056400  0.77067500  0.48814600  1
  O  O4  1  0.72372000  0.24557100  0.73317700  1
  O  O5  1  0.23775800  0.23785800  0.51548900  1
  O  O6  1  0.24556000  0.72369400  0.73319700  1
  O  O7  1  0.76999500  0.76993500  0.03526000  1
loop_
_geom_bond_atom_site_label_1
_geom_bond_atom_site_label_2
_geom_bond_distance
_geom_bond_site_symmetry_2
Mg0 O3 1.958209 1_555
Mg0 O7 1.973579 1_556
Mg0 O4 2.063947 1_555
Mg0 O6 2.064024 1_555
Cr0 O5 1.666721 1_555
Cr0 O1 1.668524 1_555
Cr0 O4 1.839630 1_555
Cr0 O6 1.839640 1_555
Cr1 O0 1.767673 1_555
Cr1 O2 1.767850 1_555
Cr1 O7 1.792433 1_555
Cr1 O3 1.828550 1_555
Cr2 O3 1.964437 1_445
Cr2 O0 1.991754 1_455
Cr2 O2 1.991831 1_545
Cr2 O5 2.010129 1_555
Cr2 O4 2.120009 1_455
Cr2 O6 2.120191 1_545
Cu0 O7 1.933111 1_555
Cu0 O1 1.968037 1_664
Cu0 O2 2.168516 1_655
Cu0 O0 2.169592 1_565
Cu0 O6 2.340796 1_654
Cu0 O4 2.341322 1_564
