# generated using pymatgen
data_LiNiAsO4
_symmetry_space_group_name_H-M   'P 1'
_cell_length_a   4.93003300
_cell_length_b   5.98432800
_cell_length_c   10.44696000
_cell_angle_alpha   90.00000000
_cell_angle_beta   90.00000000
_cell_angle_gamma   90.00000000
_symmetry_Int_Tables_number   1
_chemical_formula_structural   LiNiAsO4
_chemical_formula_sum   'Li4 Ni4 As4 O16'
_cell_volume   308.21597684
_cell_formula_units_Z   4
loop_
 _symmetry_equiv_pos_site_id
 _symmetry_equiv_pos_as_xyz
  1  'x, y, z'
loop_
 _atom_site_type_symbol
 _atom_site_label
 _atom_site_symmetry_multiplicity
 _atom_site_fract_x
 _atom_site_fract_y
 _atom_site_fract_z
 _atom_site_occupancy
  Li  Li0  1  0.00000000  0.00000000  0.00000000  1
  Li  Li1  1  0.50000000  0.00000000  0.50000000  1
  Li  Li2  1  0.00000000  0.50000000  0.00000000  1
  Li  Li3  1  0.50000000  0.50000000  0.50000000  1
  Ni  Ni0  1  0.99367300  0.24999900  0.27199300  1
  Ni  Ni1  1  0.50632700  0.24999900  0.77199300  1
  Ni  Ni2  1  0.00632700  0.75000000  0.72800600  1
  Ni  Ni3  1  0.49367300  0.75000000  0.22800700  1
  As  As0  1  0.06439300  0.24999900  0.59379700  1
  As  As1  1  0.43560700  0.24999900  0.09379600  1
  As  As2  1  0.93560600  0.75000000  0.40620300  1
  As  As3  1  0.56439300  0.75000000  0.90620400  1
  O  O0  1  0.78190700  0.24999900  0.09636900  1
  O  O1  1  0.21809200  0.75000000  0.90363100  1
  O  O2  1  0.71809400  0.24999900  0.59636900  1
  O  O3  1  0.28190800  0.75000000  0.40363100  1
  O  O4  1  0.70486000  0.75000000  0.05745600  1
  O  O5  1  0.29514000  0.24999900  0.94254400  1
  O  O6  1  0.20486000  0.24999900  0.44254400  1
  O  O7  1  0.79513900  0.75000000  0.55745600  1
  O  O8  1  0.22715400  0.47213200  0.66987400  1
  O  O9  1  0.72715400  0.52786700  0.83012600  1
  O  O10  1  0.77284600  0.97213300  0.33012600  1
  O  O11  1  0.27284600  0.02786700  0.16987400  1
  O  O12  1  0.77284600  0.52786700  0.33012600  1
  O  O13  1  0.27284600  0.47213200  0.16987400  1
  O  O14  1  0.22715400  0.02786700  0.66987400  1
  O  O15  1  0.72715400  0.97213300  0.83012600  1
loop_
_geom_bond_atom_site_label_1
_geom_bond_atom_site_label_2
_geom_bond_distance
_geom_bond_site_symmetry_2
Li0 O0 2.099496 1_455
Li0 O1 2.099498 1_544
Li0 O5 2.171567 1_554
Li0 O4 2.171571 1_445
Li0 O15 2.233082 1_444
Li0 O11 2.233082 1_555
Li1 O3 2.099498 1_545
Li1 O2 2.099498 1_555
Li1 O6 2.171567 1_555
Li1 O7 2.171568 1_545
Li1 O14 2.233082 1_555
Li1 O10 2.233082 1_545
Li2 O1 2.099498 1_554
Li2 O0 2.099504 1_455
Li2 O4 2.171571 1_455
Li2 O5 2.171575 1_554
Li2 O9 2.233082 1_454
Li2 O13 2.233082 1_555
Li3 O3 2.099498 1_555
Li3 O2 2.099507 1_555
Li3 O7 2.171568 1_555
Li3 O6 2.171575 1_555
Li3 O12 2.233082 1_555
Li3 O8 2.233082 1_555
Ni0 O6 2.063639 1_655
Ni0 O10 2.078245 1_545
Ni0 O12 2.078255 1_555
Ni0 O0 2.110977 1_555
Ni0 O11 2.190774 1_655
Ni0 O13 2.190777 1_655
Ni1 O5 2.063639 1_555
Ni1 O15 2.078245 1_545
Ni1 O9 2.078255 1_555
Ni1 O2 2.110979 1_555
Ni1 O14 2.190774 1_555
Ni1 O8 2.190777 1_555
Ni2 O7 2.063633 1_455
Ni2 O14 2.078247 1_565
Ni2 O8 2.078252 1_555
Ni2 O1 2.110984 1_555
Ni2 O15 2.190783 1_455
Ni2 O9 2.190783 1_455
Ni3 O4 2.063639 1_555
Ni3 O11 2.078250 1_565
Ni3 O13 2.078255 1_555
Ni3 O3 2.110974 1_555
Ni3 O12 2.190777 1_555
Ni3 O10 2.190777 1_555
As0 O2 1.707477 1_455
As0 O6 1.725222 1_555
As0 O14 1.744306 1_555
As0 O8 1.744311 1_555
As1 O0 1.707482 1_555
As1 O5 1.725212 1_554
As1 O11 1.744311 1_555
As1 O13 1.744316 1_555
As2 O3 1.707492 1_655
As2 O7 1.725222 1_555
As2 O10 1.744309 1_555
As2 O12 1.744309 1_555
As3 O1 1.707487 1_555
As3 O4 1.725212 1_556
As3 O9 1.744316 1_555
As3 O15 1.744316 1_555
