# generated using pymatgen
data_Na5Ti2Zn2P5SO24
_symmetry_space_group_name_H-M   'P 1'
_cell_length_a   8.82812916
_cell_length_b   8.83936253
_cell_length_c   22.10734787
_cell_angle_alpha   90.23876996
_cell_angle_beta   89.78651686
_cell_angle_gamma   120.06794444
_symmetry_Int_Tables_number   1
_chemical_formula_structural   Na5Ti2Zn2P5SO24
_chemical_formula_sum   'Na15 Ti6 Zn6 P15 S3 O72'
_cell_volume   1492.98211057
_cell_formula_units_Z   3
loop_
 _symmetry_equiv_pos_site_id
 _symmetry_equiv_pos_as_xyz
  1  'x, y, z'
loop_
 _atom_site_type_symbol
 _atom_site_label
 _atom_site_symmetry_multiplicity
 _atom_site_fract_x
 _atom_site_fract_y
 _atom_site_fract_z
 _atom_site_occupancy
  Na  Na0  1  0.63623336  0.00194858  0.25216999  1
  Na  Na1  1  0.37083847  0.37256862  0.24780378  1
  Na  Na2  1  0.99504667  0.62430224  0.25180700  1
  Na  Na3  1  0.63839847  0.63011829  0.74759981  1
  Na  Na4  1  0.99020961  0.35876144  0.74765160  1
  Na  Na5  1  0.37012909  0.01129157  0.74759087  1
  Na  Na6  1  0.30260551  0.96405801  0.07822114  1
  Na  Na7  1  0.03831308  0.34555818  0.07897248  1
  Na  Na8  1  0.70515230  0.67339486  0.41716826  1
  Na  Na9  1  0.00553636  0.00507763  0.49949760  1
  Na  Na10  1  0.99707072  0.99592221  0.99113063  1
  Na  Na11  1  0.66611138  0.33205525  0.83309969  1
  Na  Na12  1  0.67461890  0.32756484  0.33543212  1
  Na  Na13  1  0.34270481  0.66347165  0.16228834  1
  Na  Na14  1  0.33513781  0.66537127  0.66293479  1
  Ti  Ti0  1  0.99761413  0.99840217  0.64574996  1
  Ti  Ti1  1  0.98664526  0.99790673  0.14424805  1
  Ti  Ti2  1  0.66834615  0.32960033  0.97968208  1
  Ti  Ti3  1  0.67552667  0.32837645  0.48542026  1
  Ti  Ti4  1  0.33325290  0.67775448  0.52070468  1
  Ti  Ti5  1  0.32541735  0.66893734  0.81795730  1
  Zn  Zn0  1  0.99187814  0.99948330  0.35431265  1
  Zn  Zn1  1  0.00649255  0.00662971  0.85104471  1
  Zn  Zn2  1  0.66657411  0.33468906  0.67832867  1
  Zn  Zn3  1  0.67111727  0.33967218  0.17827512  1
  Zn  Zn4  1  0.33413048  0.66549287  0.01544134  1
  Zn  Zn5  1  0.32998181  0.66575005  0.32152283  1
  P  P0  1  0.70820830  0.70647297  0.25129364  1
  P  P1  1  0.99925371  0.29034568  0.25036298  1
  P  P2  1  0.29118431  0.29209907  0.75012161  1
  P  P3  1  0.99930770  0.71087889  0.75098069  1
  P  P4  1  0.70884904  0.99857440  0.75127445  1
  P  P5  1  0.96507770  0.33415742  0.58500007  1
  P  P6  1  0.37292373  0.04273622  0.58422643  1
  P  P7  1  0.66480962  0.62704010  0.58308837  1
  P  P8  1  0.95699058  0.62748693  0.08398119  1
  P  P9  1  0.66369549  0.03966109  0.08435331  1
  P  P10  1  0.37609495  0.33445957  0.08491572  1
  P  P11  1  0.03779443  0.37107524  0.91936208  1
  P  P12  1  0.33260577  0.96195373  0.91969957  1
  P  P13  1  0.62288656  0.96275497  0.41661621  1
  P  P14  1  0.03985744  0.66460060  0.41675932  1
  S  S0  1  0.28919863  0.00052198  0.24951956  1
  S  S1  1  0.62430160  0.66354602  0.91706133  1
  S  S2  1  0.33531030  0.37294523  0.41781522  1
  O  O0  1  0.20829462  0.02713130  0.30327371  1
  O  O1  1  0.81862680  0.78318359  0.30815186  1
  O  O2  1  0.97123218  0.17511785  0.30469686  1
  O  O3  1  0.21499731  0.17889919  0.80552566  1
  O  O4  1  0.96484130  0.78919050  0.80651764  1
  O  O5  1  0.82251555  0.03249402  0.80629177  1
  O  O6  1  0.79841048  0.96582548  0.69431074  1
  O  O7  1  0.16769848  0.20233879  0.69395963  1
  O  O8  1  0.03514167  0.83192220  0.69442952  1
  O  O9  1  0.81016496  0.83148989  0.19550352  1
  O  O10  1  0.02342146  0.19712598  0.19169917  1
  O  O11  1  0.18216819  0.97721964  0.19371675  1
  O  O12  1  0.89521347  0.37043794  0.64284604  1
  O  O13  1  0.47630539  0.10748804  0.64265924  1
  O  O14  1  0.63008970  0.52304424  0.64129265  1
  O  O15  1  0.88810333  0.52180491  0.14249716  1
  O  O16  1  0.63316578  0.11414542  0.14272621  1
  O  O17  1  0.47341067  0.35718832  0.14422243  1
  O  O18  1  0.46881952  0.30055196  0.03050216  1
  O  O19  1  0.83575008  0.53249652  0.02936237  1
  O  O20  1  0.70048414  0.16671573  0.02994108  1
  O  O21  1  0.47096310  0.16360314  0.52971569  1
  O  O22  1  0.69266201  0.53486568  0.52717440  1
  O  O23  1  0.83987769  0.30661954  0.53019649  1
  O  O24  1  0.54390866  0.68848327  0.97126083  1
  O  O25  1  0.14328550  0.45247746  0.97632825  1
  O  O26  1  0.31217279  0.85764914  0.97635855  1
  O  O27  1  0.52006144  0.83533988  0.46968954  1
  O  O28  1  0.31413000  0.46600622  0.46972973  1
  O  O29  1  0.16147378  0.68162453  0.47032873  1
  O  O30  1  0.10606202  0.62899263  0.35694353  1
  O  O31  1  0.52218859  0.89248315  0.35692548  1
  O  O32  1  0.37058977  0.47621787  0.36068211  1
  O  O33  1  0.13495436  0.49520309  0.86197831  1
  O  O34  1  0.36128607  0.86689041  0.86169337  1
  O  O35  1  0.51356032  0.63855339  0.86109083  1
  O  O36  1  0.01805976  0.82602927  0.41661419  1
  O  O37  1  0.80208218  0.97386599  0.41721424  1
  O  O38  1  0.17973756  0.19839791  0.41391444  1
  O  O39  1  0.01095041  0.18972838  0.91106485  1
  O  O40  1  0.17433555  0.98281261  0.91134265  1
  O  O41  1  0.80014594  0.81654586  0.91031731  1
  O  O42  1  0.97796372  0.16627179  0.58865824  1
  O  O43  1  0.18918973  0.02344593  0.58856387  1
  O  O44  1  0.83296204  0.81106830  0.58879944  1
  O  O45  1  0.97582289  0.81351753  0.08989566  1
  O  O46  1  0.83879815  0.03245008  0.08861969  1
  O  O47  1  0.18950843  0.15953292  0.08907186  1
  O  O48  1  0.68119001  0.15580218  0.74368031  1
  O  O49  1  0.47702786  0.32059421  0.74259557  1
  O  O50  1  0.84421564  0.52455735  0.74345319  1
  O  O51  1  0.68432207  0.52224190  0.24464201  1
  O  O52  1  0.83506834  0.30917654  0.24503056  1
  O  O53  1  0.46747912  0.15640284  0.24494746  1
  O  O54  1  0.63467967  0.49966885  0.92094082  1
  O  O55  1  0.85596499  0.36500663  0.92325477  1
  O  O56  1  0.50691828  0.14508691  0.92362006  1
  O  O57  1  0.64180093  0.14609820  0.42731999  1
  O  O58  1  0.49828856  0.36067913  0.42494770  1
  O  O59  1  0.85150451  0.49988589  0.42688832  1
  O  O60  1  0.34335698  0.48720582  0.07787825  1
  O  O61  1  0.14268711  0.65490868  0.07756953  1
  O  O62  1  0.50575066  0.85852640  0.07644294  1
  O  O63  1  0.34949272  0.85620655  0.57285334  1
  O  O64  1  0.50355721  0.65068227  0.57154597  1
  O  O65  1  0.14762439  0.49489934  0.57199689  1
  O  O66  1  0.30472208  0.84029737  0.25156712  1
  O  O67  1  0.52869574  0.69712639  0.25165945  1
  O  O68  1  0.16766904  0.47228556  0.25103978  1
  O  O69  1  0.30466839  0.47685876  0.75595127  1
  O  O70  1  0.17242646  0.69722013  0.75661311  1
  O  O71  1  0.52383546  0.82665818  0.75610863  1
loop_
_geom_bond_atom_site_label_1
_geom_bond_atom_site_label_2
_geom_bond_distance
_geom_bond_site_symmetry_2
Na0 O67 2.366004 1_545
Na0 O52 2.388702 1_555
Na0 O53 2.480054 1_555
Na0 O31 2.517590 1_545
Na0 O66 2.533132 1_545
Na0 O16 2.624069 1_555
Na0 O2 2.812892 1_555
Na0 O9 2.913016 1_545
Na1 O68 2.362578 1_555
Na1 O51 2.396783 1_555
Na1 O53 2.452554 1_555
Na1 O67 2.484440 1_555
Na1 O17 2.487458 1_555
Na1 O32 2.655100 1_555
Na1 O0 2.917869 1_555
Na1 O10 2.931947 1_555
Na2 O52 2.414984 1_555
Na2 O51 2.426091 1_555
Na2 O66 2.426702 1_655
Na2 O68 2.485930 1_655
Na2 O30 2.517938 1_655
Na2 O15 2.587188 1_555
Na2 O1 2.848229 1_555
Na3 O49 2.370727 1_555
Na3 O71 2.415151 1_555
Na3 O50 2.424339 1_555
Na3 O14 2.517470 1_555
Na3 O69 2.558919 1_555
Na3 O35 2.752334 1_555
Na3 O4 2.816216 1_555
Na3 O6 2.829368 1_555
Na4 O50 2.390041 1_555
Na4 O48 2.400996 1_555
Na4 O69 2.434815 1_655
Na4 O12 2.487075 1_555
Na4 O70 2.598554 1_655
Na4 O7 2.814127 1_655
Na4 O5 2.815713 1_555
Na4 O33 2.815996 1_655
Na5 O48 2.379982 1_555
Na5 O49 2.407083 1_555
Na5 O70 2.437193 1_545
Na5 O13 2.486864 1_555
Na5 O71 2.600749 1_545
Na5 O3 2.777637 1_555
Na5 O34 2.814937 1_545
Na5 O8 2.820046 1_545
Na6 O61 2.365342 1_555
Na6 O47 2.400716 1_565
Na6 O62 2.400732 1_555
Na6 O26 2.454278 1_554
Na6 O45 2.512057 1_455
Na6 O18 2.784637 1_565
Na6 O11 2.786503 1_555
Na6 O16 2.906107 1_565
Na7 O60 2.332680 1_555
Na7 O61 2.408938 1_555
Na7 O46 2.434159 1_455
Na7 O25 2.454752 1_554
Na7 O47 2.596141 1_555
Na7 O10 2.793066 1_555
Na7 O20 2.802525 1_455
Na7 O15 2.862831 1_455
Na8 O37 2.347128 1_555
Na8 O36 2.390919 1_655
Na8 O58 2.438997 1_555
Na8 O59 2.461342 1_555
Na8 O1 2.604049 1_555
Na8 O22 2.704340 1_555
Na8 O32 2.858609 1_555
Na8 O27 2.895373 1_555
Na9 O36 2.454420 1_545
Na9 O37 2.476849 1_445
Na9 O38 2.497354 1_555
Na9 O43 2.507868 1_555
Na9 O42 2.509038 1_455
Na9 O44 2.558778 1_445
Na10 O40 2.394406 1_655
Na10 O39 2.428202 1_665
Na10 O41 2.442450 1_555
Na10 O46 2.669343 1_566
Na10 O45 2.669351 1_556
Na10 O47 2.684251 1_666
Na11 O56 2.527904 1_555
Na11 O55 2.529282 1_555
Na11 O54 2.535193 1_555
Na11 O48 2.555973 1_555
Na11 O50 2.572797 1_555
Na11 O49 2.579465 1_555
Na12 O52 2.496771 1_555
Na12 O57 2.518050 1_555
Na12 O59 2.541837 1_555
Na12 O58 2.618004 1_555
Na12 O53 2.619964 1_555
Na12 O51 2.622389 1_555
Na13 O60 2.427876 1_555
Na13 O62 2.483214 1_555
Na13 O67 2.493580 1_555
Na13 O68 2.545918 1_555
Na13 O61 2.553632 1_555
Na13 O66 2.635449 1_555
Na14 O64 2.545244 1_555
Na14 O65 2.559811 1_555
Na14 O63 2.576702 1_555
Na14 O69 2.579316 1_555
Na14 O71 2.582971 1_555
Na14 O70 2.609551 1_555
O0 S0 1.461963 1_555
O0 Zn0 2.121658 1_445
O1 P0 1.526335 1_555
O1 Zn0 2.025180 1_555
O2 P1 1.515569 1_555
O2 Zn0 1.986411 1_545
O3 P2 1.511133 1_555
O3 Zn1 1.977347 1_555
O4 P3 1.510092 1_555
O4 Zn1 2.019188 1_665
O5 P4 1.510219 1_545
O5 Zn1 2.013704 1_655
O6 P4 1.585469 1_555
O6 Ti0 1.951706 1_555
O7 P2 1.579445 1_555
O7 Ti0 1.980834 1_445
O8 P3 1.573812 1_455
O8 Ti0 1.984399 1_455
O9 P0 1.599665 1_555
O9 Ti1 1.891929 1_555
O10 P1 1.603637 1_455
O10 Ti1 1.929017 1_445
O11 S0 1.506209 1_565
O11 Ti1 2.130937 1_455
O12 P5 1.519060 1_555
O12 Zn2 2.034817 1_555
O13 P6 1.519364 1_555
O13 Zn2 2.023101 1_555
O14 P7 1.522914 1_555
O14 Zn2 2.024064 1_555
O15 P8 1.533272 1_555
O15 Zn3 1.948329 1_555
O16 P9 1.529568 1_555
O16 Zn3 2.005891 1_555
O17 P10 1.526665 1_555
O17 Zn3 1.979548 1_555
O18 P10 1.562845 1_555
O18 Ti2 1.991310 1_554
O19 P8 1.552176 1_555
O19 Ti2 1.986609 1_554
O20 P9 1.567366 1_555
O20 Ti2 1.952704 1_554
O21 P6 1.555362 1_555
O21 Ti3 1.924744 1_555
O22 P7 1.562804 1_555
O22 Ti3 1.979077 1_555
O23 P5 1.576929 1_555
O23 Ti3 1.847674 1_555
O24 S1 1.461580 1_555
O24 Zn4 2.008988 1_556
O25 P11 1.516827 1_555
O25 Zn4 1.987475 1_556
O26 P12 1.514213 1_555
O26 Zn4 2.003134 1_556
O27 P13 1.564531 1_555
O27 Ti4 1.905082 1_555
O28 S2 1.474276 1_555
O28 Ti4 2.113999 1_555
O29 P14 1.556909 1_555
O29 Ti4 1.898966 1_555
O30 P14 1.537671 1_555
O30 Zn5 1.993349 1_555
O31 P13 1.538197 1_555
O31 Zn5 2.024252 1_555
O32 S2 1.499143 1_555
O32 Zn5 2.073879 1_555
O33 P11 1.615358 1_555
O33 Ti5 1.882941 1_555
O34 P12 1.617547 1_555
O34 Ti5 1.878786 1_555
O35 S1 1.525108 1_555
O35 Ti5 2.049664 1_555
O36 P14 1.532434 1_555
O36 Zn0 2.162474 1_455
O37 P13 1.535213 1_555
O37 Zn0 2.097028 1_555
O38 S2 1.466494 1_555
O38 Zn0 2.157112 1_445
O39 P11 1.508840 1_555
O39 Zn1 2.073717 1_555
O40 P12 1.510211 1_555
O40 Zn1 2.084822 1_565
O41 S1 1.468783 1_555
O41 Zn1 2.189088 1_665
O42 P5 1.546602 1_555
O42 Ti0 2.024879 1_545
O43 P6 1.546310 1_555
O43 Ti0 2.029499 1_445
O44 P7 1.563864 1_555
O44 Ti0 2.006088 1_555
O45 P8 1.572636 1_555
O45 Ti1 1.984427 1_555
O46 P9 1.581903 1_555
O46 Ti1 1.929678 1_545
O47 P10 1.600139 1_555
O47 Ti1 2.042235 1_445
O48 P4 1.536762 1_545
O48 Zn2 2.197538 1_555
O49 P2 1.538532 1_555
O49 Zn2 2.146864 1_555
O50 P3 1.534478 1_555
O50 Zn2 2.169845 1_555
O51 P0 1.540190 1_555
O51 Zn3 2.136266 1_555
O52 P1 1.544573 1_555
O52 Zn3 2.180760 1_555
O53 S0 1.487544 1_555
O53 Zn3 2.260667 1_555
O54 S1 1.499396 1_555
O54 Ti2 2.121673 1_555
O55 P11 1.581050 1_655
O55 Ti2 1.966195 1_555
O56 P12 1.581036 1_545
O56 Ti2 1.973402 1_555
O57 P13 1.560856 1_545
O57 Ti3 1.959433 1_555
O58 S2 1.504958 1_555
O58 Ti3 2.187118 1_555
O59 P14 1.583948 1_655
O59 Ti3 2.006884 1_555
O60 P10 1.524411 1_555
O60 Zn4 2.131455 1_555
O61 P8 1.538408 1_455
O61 Zn4 2.139380 1_555
O62 P9 1.516825 1_565
O62 Zn4 2.105031 1_555
O63 P6 1.574716 1_565
O63 Ti4 1.896661 1_555
O64 P7 1.560949 1_555
O64 Ti4 1.989054 1_555
O65 P5 1.550492 1_455
O65 Ti4 1.982689 1_555
O66 S0 1.490557 1_565
O66 Zn5 2.277986 1_555
O67 P0 1.545014 1_555
O67 Zn5 2.244035 1_555
O68 P1 1.549560 1_455
O68 Zn5 2.223653 1_555
O69 P2 1.581624 1_555
O69 Ti5 2.113326 1_555
O70 P3 1.597583 1_455
O70 Ti5 2.020068 1_555
O71 P4 1.581566 1_555
O71 Ti5 2.105340 1_555
