# generated using pymatgen
data_Na6Y3NbSi2(PO6)4
_symmetry_space_group_name_H-M   'P 1'
_cell_length_a   9.32016409
_cell_length_b   9.33781275
_cell_length_c   22.75663255
_cell_angle_alpha   90.16684012
_cell_angle_beta   90.08084637
_cell_angle_gamma   120.13610578
_symmetry_Int_Tables_number   1
_chemical_formula_structural   Na6Y3NbSi2(PO6)4
_chemical_formula_sum   'Na18 Y9 Nb3 Si6 P12 O72'
_cell_volume   1712.79680275
_cell_formula_units_Z   3
loop_
 _symmetry_equiv_pos_site_id
 _symmetry_equiv_pos_as_xyz
  1  'x, y, z'
loop_
 _atom_site_type_symbol
 _atom_site_label
 _atom_site_symmetry_multiplicity
 _atom_site_fract_x
 _atom_site_fract_y
 _atom_site_fract_z
 _atom_site_occupancy
  Na  Na0  1  0.99065633  0.98337127  0.50509458  1
  Na  Na1  1  0.95681435  0.98084884  0.99487565  1
  Na  Na2  1  0.66250033  0.34083558  0.82896121  1
  Na  Na3  1  0.65528463  0.33289684  0.32836142  1
  Na  Na4  1  0.32904261  0.64009407  0.16691481  1
  Na  Na5  1  0.33515958  0.66457026  0.67083145  1
  Na  Na6  1  0.66006568  0.01215664  0.24302729  1
  Na  Na7  1  0.00393559  0.34084158  0.74512700  1
  Na  Na8  1  0.35796971  0.00998600  0.75412439  1
  Na  Na9  1  0.30464880  0.33280532  0.59353755  1
  Na  Na10  1  0.66335773  0.96881212  0.58510888  1
  Na  Na11  1  0.29095088  0.95550026  0.07851919  1
  Na  Na12  1  0.03795260  0.33928877  0.07560976  1
  Na  Na13  1  0.99712568  0.68288158  0.91664121  1
  Na  Na14  1  0.31347440  0.28976389  0.91271358  1
  Na  Na15  1  0.96099261  0.28720389  0.41212955  1
  Na  Na16  1  0.33785247  0.03808006  0.40576696  1
  Na  Na17  1  0.69966664  0.68130885  0.41685148  1
  Y  Y0  1  0.00306425  0.99964771  0.34549961  1
  Y  Y1  1  0.99265188  0.99580495  0.85026470  1
  Y  Y2  1  0.99511440  0.99087597  0.65395457  1
  Y  Y3  1  0.00036717  0.99335006  0.14860561  1
  Y  Y4  1  0.67289885  0.34837017  0.68389711  1
  Y  Y5  1  0.66385537  0.34282350  0.18683462  1
  Y  Y6  1  0.66870285  0.33606515  0.48178889  1
  Y  Y7  1  0.34636837  0.66977865  0.01822080  1
  Y  Y8  1  0.32613143  0.66787888  0.51938630  1
  Nb  Nb0  1  0.66588046  0.33258747  0.97575927  1
  Nb  Nb1  1  0.33213545  0.67371237  0.31253485  1
  Nb  Nb2  1  0.34178536  0.66505897  0.82124809  1
  Si  Si0  1  0.30804166  0.99858814  0.25162320  1
  Si  Si1  1  0.30491682  0.31140650  0.75198697  1
  Si  Si2  1  0.63510898  0.65987865  0.92047169  1
  Si  Si3  1  0.03200521  0.37045645  0.92083727  1
  Si  Si4  1  0.33858933  0.96389378  0.92041774  1
  Si  Si5  1  0.63121261  0.96567133  0.41823650  1
  P  P0  1  0.68731032  0.69985388  0.25656006  1
  P  P1  1  0.00923020  0.31019198  0.24974846  1
  P  P2  1  0.01645780  0.69499740  0.75732880  1
  P  P3  1  0.68438674  0.99182681  0.74698839  1
  P  P4  1  0.96917046  0.32356146  0.58387630  1
  P  P5  1  0.36200185  0.03612734  0.58370894  1
  P  P6  1  0.66896799  0.64146379  0.57707358  1
  P  P7  1  0.95584835  0.62864987  0.07920206  1
  P  P8  1  0.67476414  0.05399806  0.08404536  1
  P  P9  1  0.36771418  0.32331624  0.07913200  1
  P  P10  1  0.33381714  0.37677541  0.41565891  1
  P  P11  1  0.03583101  0.66325331  0.41285324  1
  O  O0  1  0.22552479  0.01179596  0.31259418  1
  O  O1  1  0.76973013  0.77276964  0.31621917  1
  O  O2  1  0.98075610  0.20190415  0.30495166  1
  O  O3  1  0.21478069  0.19562215  0.80854156  1
  O  O4  1  0.99415975  0.76373210  0.81553505  1
  O  O5  1  0.81003823  0.01959011  0.79546293  1
  O  O6  1  0.74906110  0.96794710  0.68717741  1
  O  O7  1  0.18648493  0.23096108  0.69307178  1
  O  O8  1  0.03047710  0.81009668  0.70603068  1
  O  O9  1  0.78283360  0.82483313  0.20663189  1
  O  O10  1  0.02673210  0.22437973  0.19396153  1
  O  O11  1  0.19563782  0.97592144  0.19352187  1
  O  O12  1  0.87695501  0.32606284  0.63972115  1
  O  O13  1  0.46531225  0.13318657  0.63798109  1
  O  O14  1  0.66586285  0.52749373  0.62617008  1
  O  O15  1  0.86051022  0.52869562  0.13232274  1
  O  O16  1  0.67606734  0.13512712  0.14260355  1
  O  O17  1  0.46324874  0.32510357  0.13340775  1
  O  O18  1  0.47140073  0.32650610  0.02317894  1
  O  O19  1  0.85281022  0.53219679  0.02209233  1
  O  O20  1  0.67709420  0.17203734  0.03241785  1
  O  O21  1  0.44936673  0.13446073  0.52669252  1
  O  O22  1  0.67653252  0.56792461  0.51647587  1
  O  O23  1  0.87340940  0.32468386  0.52760529  1
  O  O24  1  0.55693714  0.68444808  0.97858715  1
  O  O25  1  0.13230768  0.44924765  0.98056948  1
  O  O26  1  0.30149291  0.85684345  0.97928310  1
  O  O27  1  0.54825510  0.86343557  0.47800639  1
  O  O28  1  0.31611074  0.44939603  0.47422579  1
  O  O29  1  0.13342617  0.67894840  0.46877099  1
  O  O30  1  0.14246197  0.65936288  0.35971355  1
  O  O31  1  0.50298430  0.84453268  0.36222477  1
  O  O32  1  0.33195437  0.48901114  0.36473473  1
  O  O33  1  0.14559930  0.50599419  0.86631085  1
  O  O34  1  0.36211765  0.86002658  0.86427400  1
  O  O35  1  0.50603830  0.64449932  0.86457121  1
  O  O36  1  0.00991107  0.81358600  0.41020130  1
  O  O37  1  0.81750168  0.99179134  0.41319888  1
  O  O38  1  0.18504644  0.19756643  0.41104746  1
  O  O39  1  0.00667024  0.18920528  0.91109066  1
  O  O40  1  0.18892053  0.00054329  0.91007474  1
  O  O41  1  0.82517914  0.79952797  0.91261654  1
  O  O42  1  0.97472886  0.15976543  0.58174095  1
  O  O43  1  0.19002863  0.02344128  0.58531295  1
  O  O44  1  0.81924939  0.81782207  0.58231951  1
  O  O45  1  0.97897225  0.80524636  0.07822430  1
  O  O46  1  0.83652548  0.04671511  0.07739115  1
  O  O47  1  0.19680063  0.15878607  0.07549715  1
  O  O48  1  0.65917455  0.14438285  0.74685017  1
  O  O49  1  0.48953290  0.33438324  0.74803639  1
  O  O50  1  0.87627613  0.51256346  0.74925205  1
  O  O51  1  0.66538936  0.52783844  0.24933075  1
  O  O52  1  0.85866083  0.33529067  0.24600222  1
  O  O53  1  0.50251614  0.14274413  0.24996509  1
  O  O54  1  0.62418732  0.47448094  0.91950133  1
  O  O55  1  0.85120531  0.36922897  0.92172723  1
  O  O56  1  0.51334093  0.14814979  0.92553600  1
  O  O57  1  0.63564293  0.14366245  0.41333754  1
  O  O58  1  0.49867227  0.37339442  0.41223849  1
  O  O59  1  0.86653192  0.49930548  0.41069216  1
  O  O60  1  0.33524660  0.47051146  0.08185339  1
  O  O61  1  0.13017463  0.64372333  0.08084917  1
  O  O62  1  0.51442956  0.88404654  0.08152277  1
  O  O63  1  0.35130951  0.86500329  0.58501122  1
  O  O64  1  0.50662459  0.65005348  0.58407002  1
  O  O65  1  0.14884867  0.47262567  0.58579207  1
  O  O66  1  0.32038286  0.82154050  0.25716764  1
  O  O67  1  0.51001903  0.68463331  0.25634471  1
  O  O68  1  0.17234799  0.48148544  0.25742942  1
  O  O69  1  0.31102554  0.49322071  0.76147244  1
  O  O70  1  0.18501457  0.69464364  0.75776350  1
  O  O71  1  0.51039103  0.83526998  0.75862492  1
loop_
_geom_bond_atom_site_label_1
_geom_bond_atom_site_label_2
_geom_bond_distance
_geom_bond_site_symmetry_2
Na0 O44 2.360980 1_555
Na0 O42 2.450895 1_565
Na0 O43 2.492712 1_665
Na0 O37 2.665097 1_555
Na0 O36 2.734199 1_655
Na0 O38 2.874125 1_665
Na1 O41 2.401113 1_555
Na1 O46 2.419256 1_566
Na1 O45 2.585738 1_556
Na1 O39 2.598645 1_665
Na1 O47 2.714521 1_666
Na1 O40 2.837603 1_665
Na2 O49 2.426376 1_555
Na2 O54 2.522828 1_555
Na2 O50 2.578851 1_555
Na2 O48 2.603932 1_555
Na2 O55 2.671718 1_555
Na2 O56 2.742259 1_555
Na3 O53 2.408047 1_555
Na3 O51 2.530686 1_555
Na3 O58 2.544575 1_555
Na3 O57 2.567388 1_555
Na3 O59 2.588806 1_555
Na3 O52 2.659669 1_555
Na4 O60 2.516405 1_555
Na4 O68 2.534475 1_555
Na4 O67 2.537863 1_555
Na4 O66 2.685707 1_555
Na4 O61 2.706609 1_555
Na4 O62 2.834410 1_555
Na5 O70 2.519895 1_555
Na5 O69 2.554311 1_555
Na5 O71 2.560831 1_555
Na5 O64 2.587538 1_555
Na5 O65 2.611128 1_555
Na5 O63 2.660628 1_555
Na6 O53 2.337836 1_555
Na6 O16 2.531342 1_555
Na6 O52 2.631651 1_555
Na6 O9 2.656841 1_545
Na6 O67 2.667035 1_545
Na6 O66 2.764522 1_545
Na6 O2 2.952057 1_555
Na7 O50 2.431221 1_455
Na7 O69 2.501885 1_555
Na7 O12 2.645640 1_455
Na7 O7 2.665007 1_555
Na7 O48 2.788124 1_455
Na7 O5 2.856419 1_455
Na7 O70 2.870568 1_555
Na8 O48 2.438883 1_555
Na8 O70 2.551800 1_545
Na8 O49 2.640431 1_555
Na8 O71 2.649149 1_545
Na8 O13 2.859979 1_555
Na8 O8 2.873372 1_545
Na8 O34 2.884451 1_545
Na8 O3 2.938426 1_555
Na9 O65 2.397608 1_555
Na9 O7 2.493136 1_555
Na9 O43 2.533553 1_555
Na9 O64 2.602158 1_555
Na9 O42 2.672867 1_455
Na9 O28 2.910307 1_555
Na10 O6 2.456533 1_555
Na10 O44 2.481854 1_555
Na10 O42 2.532316 1_565
Na10 O63 2.562668 1_555
Na10 O64 2.574419 1_555
Na10 O27 2.641626 1_555
Na11 O26 2.457144 1_554
Na11 O47 2.459919 1_565
Na11 O62 2.486656 1_555
Na11 O45 2.515303 1_455
Na11 O61 2.518858 1_555
Na11 O11 2.801485 1_555
Na12 O25 2.370010 1_554
Na12 O60 2.405795 1_555
Na12 O46 2.416762 1_455
Na12 O61 2.525573 1_555
Na12 O47 2.745611 1_555
Na12 O10 2.884617 1_555
Na13 O41 2.348600 1_555
Na13 O4 2.428060 1_555
Na13 O55 2.538478 1_555
Na13 O40 2.587583 1_665
Na13 O19 2.770564 1_556
Na13 O26 2.840086 1_655
Na13 O33 2.871150 1_655
Na14 O40 2.344304 1_555
Na14 O39 2.522509 1_555
Na14 O54 2.523260 1_555
Na14 O3 2.531487 1_555
Na14 O56 2.788890 1_555
Na14 O18 2.842701 1_556
Na15 O37 2.386353 1_545
Na15 O59 2.539670 1_555
Na15 O2 2.598922 1_555
Na15 O38 2.610929 1_655
Na15 O57 2.628990 1_555
Na15 O23 2.825228 1_555
Na16 O0 2.320480 1_555
Na16 O57 2.440270 1_555
Na16 O38 2.527790 1_555
Na16 O36 2.704647 1_545
Na16 O58 2.712265 1_555
Na16 O21 2.915679 1_555
Na17 O1 2.419870 1_555
Na17 O22 2.468484 1_555
Na17 O36 2.515073 1_655
Na17 O58 2.525205 1_555
Na17 O37 2.534380 1_555
Na17 O59 2.824867 1_555
Nb0 O56 1.954218 1_555
Nb0 O55 2.006839 1_555
Nb0 O54 2.017681 1_555
Nb0 O20 2.022162 1_556
Nb0 O19 2.084202 1_556
Nb0 O18 2.087028 1_556
Nb1 O66 1.914829 1_555
Nb1 O31 1.947448 1_555
Nb1 O30 2.015950 1_555
Nb1 O67 2.056962 1_555
Nb1 O68 2.076010 1_555
Nb1 O32 2.096358 1_555
Nb2 O35 1.909012 1_555
Nb2 O33 1.971863 1_555
Nb2 O34 1.987902 1_555
Nb2 O69 2.007881 1_555
Nb2 O71 2.130278 1_555
Nb2 O70 2.167956 1_555
O0 Si0 1.621443 1_545
O0 Y0 2.154336 1_545
O1 P0 1.537321 1_555
O1 Y0 2.241231 1_655
O2 P1 1.552392 1_655
O2 Y0 2.205788 1_645
O3 Si1 1.621779 1_555
O3 Y1 2.192286 1_445
O4 P2 1.529512 1_655
O4 Y1 2.311185 1_555
O5 P3 1.531461 1_545
O5 Y1 2.208292 1_545
O6 P3 1.549566 1_555
O6 Y2 2.321483 1_555
O7 Si1 1.654557 1_555
O7 Y2 2.229010 1_445
O8 P2 1.549742 1_555
O8 Y2 2.220780 1_455
O9 P0 1.553330 1_555
O9 Y3 2.268604 1_655
O10 P1 1.551219 1_555
O10 Y3 2.287736 1_545
O11 Si0 1.631659 1_555
O11 Y3 2.162550 1_555
O12 P4 1.541858 1_555
O12 Y4 2.252322 1_555
O13 P5 1.545236 1_555
O13 Y4 2.225087 1_555
O14 P6 1.535516 1_555
O14 Y4 2.156477 1_555
O15 P7 1.516199 1_555
O15 Y5 2.176088 1_555
O16 P8 1.527966 1_555
O16 Y5 2.235641 1_555
O17 P9 1.516739 1_555
O17 Y5 2.164044 1_555
O18 P9 1.590868 1_555
O19 P7 1.594874 1_555
O20 P8 1.606012 1_555
O21 P5 1.564874 1_555
O21 Y6 2.218107 1_555
O22 P6 1.556128 1_555
O22 Y6 2.268731 1_555
O23 P4 1.562916 1_555
O23 Y6 2.221952 1_555
O24 Si2 1.581546 1_555
O24 Y7 2.102276 1_556
O25 Si3 1.600907 1_555
O25 Y7 2.194240 1_556
O26 Si4 1.604778 1_555
O26 Y7 2.180108 1_556
O27 Si5 1.621293 1_555
O27 Y8 2.174100 1_555
O28 P10 1.539843 1_555
O28 Y8 2.241274 1_555
O29 P11 1.526402 1_555
O29 Y8 2.178176 1_555
O30 P11 1.578208 1_555
O31 Si5 1.721165 1_555
O32 P10 1.570647 1_555
O33 Si3 1.711658 1_555
O34 Si4 1.681750 1_555
O35 Si2 1.705034 1_555
O36 P11 1.540638 1_555
O36 Y0 2.305767 1_555
O37 Si5 1.631773 1_555
O37 Y0 2.291443 1_655
O38 P10 1.550043 1_555
O38 Y0 2.312285 1_545
O39 Si3 1.601828 1_555
O39 Y1 2.223168 1_445
O40 Si4 1.611602 1_545
O40 Y1 2.260976 1_445
O41 Si2 1.597899 1_555
O41 Y1 2.226582 1_555
O42 P4 1.556773 1_555
O42 Y2 2.353477 1_545
O43 P5 1.547234 1_555
O43 Y2 2.299721 1_445
O44 P6 1.539587 1_555
O44 Y2 2.296281 1_555
O45 P7 1.552288 1_555
O45 Y3 2.306785 1_655
O46 P8 1.550508 1_555
O46 Y3 2.443006 1_645
O47 P9 1.564030 1_555
O47 Y3 2.385341 1_545
O48 P3 1.555854 1_545
O48 Y4 2.338527 1_555
O49 Si1 1.626229 1_555
O49 Y4 2.202767 1_555
O50 P2 1.550951 1_655
O50 Y4 2.283905 1_555
O51 P0 1.522396 1_555
O51 Y5 2.228994 1_555
O52 P1 1.536737 1_655
O52 Y5 2.288285 1_555
O53 Si0 1.627666 1_545
O53 Y5 2.239736 1_555
O54 Si2 1.682486 1_555
O55 Si3 1.679511 1_655
O56 Si4 1.676620 1_545
O57 Si5 1.645818 1_545
O57 Y6 2.275032 1_555
O58 P10 1.554621 1_555
O58 Y6 2.385091 1_555
O59 P11 1.552307 1_655
O59 Y6 2.354037 1_555
O60 P9 1.549772 1_555
O60 Y7 2.322145 1_555
O61 P7 1.559229 1_455
O61 Y7 2.380831 1_555
O62 P8 1.540403 1_565
O62 Y7 2.315558 1_555
O63 P5 1.550665 1_565
O63 Y8 2.285347 1_555
O64 P6 1.563209 1_555
O64 Y8 2.302156 1_555
O65 P4 1.550048 1_455
O65 Y8 2.310002 1_555
O66 Si0 1.718854 1_555
O67 P0 1.585798 1_555
O68 P1 1.567213 1_555
O69 Si1 1.683138 1_555
O70 P2 1.572655 1_555
O71 P3 1.568465 1_555
