# generated using pymatgen
data_PrFePO
_symmetry_space_group_name_H-M   'P 1'
_cell_length_a   3.94954600
_cell_length_b   3.94954600
_cell_length_c   8.85431800
_cell_angle_alpha   90.00000000
_cell_angle_beta   90.00000000
_cell_angle_gamma   90.00000000
_symmetry_Int_Tables_number   1
_chemical_formula_structural   PrFePO
_chemical_formula_sum   'Pr2 Fe2 P2 O2'
_cell_volume   138.11774152
_cell_formula_units_Z   2
loop_
 _symmetry_equiv_pos_site_id
 _symmetry_equiv_pos_as_xyz
  1  'x, y, z'
loop_
 _atom_site_type_symbol
 _atom_site_label
 _atom_site_symmetry_multiplicity
 _atom_site_fract_x
 _atom_site_fract_y
 _atom_site_fract_z
 _atom_site_occupancy
  Pr  Pr0  1  0.00000000  0.50000000  0.85837500  1
  Pr  Pr1  1  0.50000000  0.00000000  0.14162500  1
  Fe  Fe0  1  0.50000000  0.50000000  0.50000000  1
  Fe  Fe1  1  0.00000000  0.00000000  0.50000000  1
  P  P0  1  0.00000000  0.50000000  0.34686500  1
  P  P1  1  0.50000000  0.00000000  0.65313500  1
  O  O0  1  0.50000000  0.50000000  0.00000000  1
  O  O1  1  0.00000000  0.00000000  0.00000000  1
loop_
_geom_bond_atom_site_label_1
_geom_bond_atom_site_label_2
_geom_bond_distance
_geom_bond_site_symmetry_2
Fe0 P0 2.395456 1_655
Fe0 P1 2.395456 1_565
Fe0 P0 2.395456 1_555
Fe0 P1 2.395456 1_555
Fe1 P0 2.395456 1_545
Fe1 P1 2.395456 1_455
Fe1 P0 2.395456 1_555
Fe1 P1 2.395456 1_555
P0 Pr1 3.331950 1_565
P0 Pr1 3.331950 1_555
P0 Pr1 3.331950 1_465
P0 Pr1 3.331950 1_455
P1 Pr0 3.331950 1_545
P1 Pr0 3.331950 1_645
P1 Pr0 3.331950 1_555
P1 Pr0 3.331950 1_655
O0 Pr1 2.339279 1_555
O0 Pr0 2.339279 1_654
O0 Pr1 2.339279 1_565
O0 Pr0 2.339279 1_554
O1 Pr1 2.339279 1_555
O1 Pr0 2.339279 1_544
O1 Pr1 2.339279 1_455
O1 Pr0 2.339279 1_554
