# generated using pymatgen
data_Na15Nb4Zn8P15(SO24)3
_symmetry_space_group_name_H-M   'P 1'
_cell_length_a   8.97979987
_cell_length_b   8.97161990
_cell_length_c   22.22415008
_cell_angle_alpha   90.19732667
_cell_angle_beta   90.01979542
_cell_angle_gamma   120.09423973
_symmetry_Int_Tables_number   1
_chemical_formula_structural   Na15Nb4Zn8P15(SO24)3
_chemical_formula_sum   'Na15 Nb4 Zn8 P15 S3 O72'
_cell_volume   1549.08873394
_cell_formula_units_Z   1
loop_
 _symmetry_equiv_pos_site_id
 _symmetry_equiv_pos_as_xyz
  1  'x, y, z'
loop_
 _atom_site_type_symbol
 _atom_site_label
 _atom_site_symmetry_multiplicity
 _atom_site_fract_x
 _atom_site_fract_y
 _atom_site_fract_z
 _atom_site_occupancy
  Na  Na0  1  0.99256437  0.63750840  0.24561590  1
  Na  Na1  1  0.64724483  0.63661512  0.74771323  1
  Na  Na2  1  0.36438078  0.01256445  0.74745949  1
  Na  Na3  1  0.29902323  0.33311495  0.58503945  1
  Na  Na4  1  0.03928069  0.71106466  0.58320440  1
  Na  Na5  1  0.66286633  0.95767225  0.58455222  1
  Na  Na6  1  0.29651716  0.95800183  0.08490732  1
  Na  Na7  1  0.67061112  0.70953527  0.08090104  1
  Na  Na8  1  0.03415072  0.33385848  0.08528318  1
  Na  Na9  1  0.99940174  0.99579048  0.49172280  1
  Na  Na10  1  0.99644668  0.99564444  0.99105325  1
  Na  Na11  1  0.67768069  0.33411673  0.82682513  1
  Na  Na12  1  0.65577344  0.31449974  0.32610673  1
  Na  Na13  1  0.33949210  0.67216754  0.16450833  1
  Na  Na14  1  0.32929051  0.66279552  0.66363684  1
  Nb  Nb0  1  0.67563569  0.33454958  0.97523561  1
  Nb  Nb1  1  0.65932847  0.33474882  0.47497774  1
  Nb  Nb2  1  0.33092801  0.66812811  0.31565089  1
  Nb  Nb3  1  0.33115163  0.66392561  0.81580429  1
  Zn  Zn0  1  0.00896637  0.01268521  0.35145109  1
  Zn  Zn1  1  0.99891209  0.00063730  0.85026785  1
  Zn  Zn2  1  0.99978696  0.99548553  0.65866510  1
  Zn  Zn3  1  0.00365154  0.00456030  0.15711192  1
  Zn  Zn4  1  0.66596743  0.33211977  0.68518279  1
  Zn  Zn5  1  0.66794400  0.31571090  0.18605400  1
  Zn  Zn6  1  0.33357116  0.67379655  0.01011889  1
  Zn  Zn7  1  0.34092019  0.67495866  0.50991293  1
  P  P0  1  0.29544288  0.00570813  0.25018392  1
  P  P1  1  0.99814210  0.29122699  0.25015646  1
  P  P2  1  0.29059374  0.29179036  0.74950091  1
  P  P3  1  0.99819452  0.70335473  0.74987016  1
  P  P4  1  0.70888635  0.00391135  0.75036582  1
  P  P5  1  0.37412358  0.03916972  0.58424317  1
  P  P6  1  0.66566642  0.62674915  0.58486413  1
  P  P7  1  0.95927271  0.62643948  0.08588011  1
  P  P8  1  0.66452425  0.03746403  0.08321437  1
  P  P9  1  0.62954668  0.67028591  0.91996397  1
  P  P10  1  0.04606214  0.37026084  0.92031520  1
  P  P11  1  0.32783800  0.96072835  0.91912228  1
  P  P12  1  0.63334715  0.96010524  0.41919623  1
  P  P13  1  0.32568971  0.37313786  0.41983713  1
  P  P14  1  0.04015775  0.67118679  0.41963078  1
  S  S0  1  0.70279839  0.70502086  0.24995904  1
  S  S1  1  0.95673961  0.33369147  0.58293889  1
  S  S2  1  0.37901885  0.33437576  0.08373570  1
  O  O0  1  0.20218743  0.01752191  0.30497552  1
  O  O1  1  0.81350403  0.78980248  0.30216040  1
  O  O2  1  0.97297950  0.17957867  0.30395919  1
  O  O3  1  0.20578871  0.17444478  0.80269151  1
  O  O4  1  0.96836563  0.79069445  0.80331287  1
  O  O5  1  0.81672782  0.02407124  0.80505556  1
  O  O6  1  0.77021866  0.95734389  0.69129635  1
  O  O7  1  0.19065018  0.22776216  0.68946951  1
  O  O8  1  0.04779630  0.81264693  0.69114477  1
  O  O9  1  0.76966713  0.80454096  0.19301502  1
  O  O10  1  0.03355442  0.22793060  0.18983966  1
  O  O11  1  0.18469382  0.95442044  0.19138056  1
  O  O12  1  0.87805354  0.36051209  0.63680813  1
  O  O13  1  0.48415109  0.11908899  0.64072358  1
  O  O14  1  0.63970083  0.51814840  0.64106937  1
  O  O15  1  0.87476391  0.51842553  0.14207186  1
  O  O16  1  0.62818799  0.11827096  0.13722748  1
  O  O17  1  0.48543764  0.36190091  0.13722487  1
  O  O18  1  0.46591251  0.31179388  0.02864764  1
  O  O19  1  0.83693733  0.52388281  0.02948355  1
  O  O20  1  0.68633322  0.16001353  0.02686776  1
  O  O21  1  0.47920590  0.16195309  0.52868966  1
  O  O22  1  0.68648770  0.52396534  0.52887847  1
  O  O23  1  0.84707710  0.31244946  0.52823541  1
  O  O24  1  0.54656400  0.68657345  0.97729609  1
  O  O25  1  0.14178093  0.45128040  0.97833533  1
  O  O26  1  0.30875595  0.86243692  0.97679283  1
  O  O27  1  0.55669369  0.86444018  0.47776427  1
  O  O28  1  0.31049434  0.45326825  0.47820413  1
  O  O29  1  0.14146657  0.68986129  0.47679112  1
  O  O30  1  0.13158847  0.63997169  0.36313176  1
  O  O31  1  0.50470958  0.86360918  0.36498644  1
  O  O32  1  0.35723302  0.49657978  0.36517401  1
  O  O33  1  0.13929439  0.49519104  0.86551574  1
  O  O34  1  0.35974313  0.86867208  0.86321510  1
  O  O35  1  0.50778478  0.64006701  0.86356794  1
  O  O36  1  0.01054458  0.82006803  0.40941509  1
  O  O37  1  0.81012192  0.98534121  0.40893554  1
  O  O38  1  0.17800304  0.19262536  0.41189899  1
  O  O39  1  0.01492036  0.19083922  0.91083924  1
  O  O40  1  0.17697235  0.98805379  0.90977814  1
  O  O41  1  0.80822393  0.82133765  0.91100840  1
  O  O42  1  0.96917062  0.17467218  0.58490877  1
  O  O43  1  0.19924961  0.03281304  0.58340985  1
  O  O44  1  0.83217766  0.80450689  0.58442322  1
  O  O45  1  0.97083827  0.80451007  0.08523743  1
  O  O46  1  0.83339755  0.03114856  0.08454762  1
  O  O47  1  0.20648078  0.17462830  0.08551571  1
  O  O48  1  0.66862096  0.15070219  0.74533162  1
  O  O49  1  0.47770254  0.32528318  0.74597097  1
  O  O50  1  0.84128823  0.52235101  0.74341086  1
  O  O51  1  0.68096627  0.53083145  0.24453882  1
  O  O52  1  0.85306053  0.33641774  0.24704254  1
  O  O53  1  0.47649299  0.15980179  0.24497087  1
  O  O54  1  0.63775571  0.49624353  0.92374649  1
  O  O55  1  0.86330863  0.36381711  0.92224562  1
  O  O56  1  0.50231852  0.14269928  0.92319890  1
  O  O57  1  0.64043527  0.14189983  0.42304366  1
  O  O58  1  0.50098990  0.36389954  0.42256636  1
  O  O59  1  0.85910477  0.49624549  0.42363621  1
  O  O60  1  0.35672895  0.48716808  0.07787869  1
  O  O61  1  0.13819131  0.64278416  0.07906498  1
  O  O62  1  0.50605865  0.85504980  0.07650068  1
  O  O63  1  0.35205552  0.85754399  0.57752850  1
  O  O64  1  0.50299869  0.64276854  0.57816812  1
  O  O65  1  0.13147260  0.48781044  0.57758061  1
  O  O66  1  0.31189346  0.83215307  0.25986946  1
  O  O67  1  0.52536739  0.68652241  0.25784231  1
  O  O68  1  0.16936711  0.48235801  0.25984218  1
  O  O69  1  0.31523188  0.48115059  0.75937872  1
  O  O70  1  0.16774590  0.68864265  0.76054254  1
  O  O71  1  0.51872152  0.83073183  0.75923616  1
loop_
_geom_bond_atom_site_label_1
_geom_bond_atom_site_label_2
_geom_bond_distance
_geom_bond_site_symmetry_2
Na0 O52 2.339706 1_555
Na0 O51 2.461720 1_555
Na0 O66 2.519183 1_655
Na0 O15 2.530581 1_555
Na0 O68 2.603275 1_655
Na0 O11 2.760258 1_655
Na0 O1 2.867790 1_555
Na0 O30 2.889571 1_655
Na1 O49 2.419860 1_555
Na1 O50 2.426322 1_555
Na1 O71 2.538369 1_555
Na1 O14 2.581041 1_555
Na1 O69 2.595035 1_555
Na1 O4 2.782295 1_555
Na1 O6 2.812559 1_555
Na1 O35 2.870418 1_555
Na2 O48 2.367926 1_555
Na2 O49 2.458763 1_555
Na2 O70 2.551070 1_545
Na2 O13 2.585266 1_555
Na2 O71 2.630718 1_545
Na2 O3 2.776189 1_555
Na2 O8 2.780978 1_545
Na2 O34 2.873227 1_545
Na3 O43 2.375141 1_555
Na3 O64 2.448715 1_555
Na3 O65 2.512548 1_555
Na3 O7 2.514178 1_555
Na3 O42 2.563524 1_455
Na3 O28 2.591619 1_555
Na3 O14 2.924954 1_555
Na4 O44 2.392816 1_455
Na4 O63 2.435432 1_555
Na4 O43 2.497504 1_565
Na4 O65 2.524686 1_555
Na4 O8 2.550683 1_555
Na4 O29 2.577714 1_555
Na5 O42 2.446534 1_565
Na5 O64 2.447960 1_555
Na5 O63 2.470932 1_555
Na5 O44 2.508980 1_555
Na5 O27 2.534968 1_555
Na5 O6 2.560941 1_555
Na6 O61 2.449705 1_555
Na6 O47 2.450848 1_565
Na6 O62 2.484064 1_555
Na6 O45 2.531915 1_455
Na6 O11 2.564845 1_555
Na6 O26 2.569217 1_554
Na6 O16 2.825143 1_565
Na7 O45 2.387291 1_555
Na7 O62 2.415095 1_555
Na7 O46 2.497468 1_565
Na7 O60 2.507760 1_555
Na7 O24 2.519869 1_554
Na7 O9 2.636189 1_555
Na8 O46 2.390719 1_455
Na8 O61 2.445301 1_555
Na8 O10 2.512525 1_555
Na8 O60 2.513173 1_555
Na8 O47 2.579249 1_555
Na8 O25 2.586690 1_554
Na9 O36 2.445386 1_655
Na9 O38 2.453793 1_665
Na9 O37 2.473813 1_555
Na9 O43 2.622597 1_665
Na9 O44 2.624220 1_555
Na9 O42 2.711573 1_565
Na10 O41 2.407272 1_555
Na10 O39 2.450024 1_665
Na10 O40 2.450929 1_655
Na10 O45 2.646565 1_556
Na10 O46 2.651005 1_566
Na10 O47 2.734929 1_666
Na11 O48 2.416539 1_555
Na11 O50 2.445873 1_555
Na11 O49 2.512771 1_555
Na11 O55 2.625816 1_555
Na11 O56 2.707770 1_555
Na11 O54 2.717689 1_555
Na12 O53 2.347231 1_555
Na12 O52 2.433089 1_555
Na12 O51 2.586198 1_555
Na12 O57 2.620554 1_555
Na12 O58 2.708724 1_555
Na12 O59 2.770899 1_555
Na13 O62 2.513527 1_555
Na13 O61 2.541496 1_555
Na13 O60 2.592529 1_555
Na13 O67 2.623993 1_555
Na13 O66 2.636143 1_555
Na13 O68 2.672232 1_555
Na14 O64 2.520755 1_555
Na14 O63 2.534133 1_555
Na14 O65 2.541285 1_555
Na14 O69 2.648943 1_555
Na14 O71 2.661360 1_555
Na14 O70 2.670653 1_555
Nb0 O55 1.963587 1_555
Nb0 O20 1.985205 1_556
Nb0 O19 1.988506 1_556
Nb0 O56 2.005201 1_555
Nb0 O54 2.008869 1_555
Nb0 O18 2.148276 1_556
Nb1 O58 1.954654 1_555
Nb1 O21 1.985917 1_555
Nb1 O22 1.986658 1_555
Nb1 O59 2.006398 1_555
Nb1 O57 2.011507 1_555
Nb1 O23 2.149852 1_555
Nb2 O30 1.982722 1_555
Nb2 O31 1.988499 1_555
Nb2 O68 1.995130 1_555
Nb2 O66 1.999060 1_555
Nb2 O32 2.002981 1_555
Nb2 O67 2.107241 1_555
Nb3 O33 1.969198 1_555
Nb3 O35 2.007312 1_555
Nb3 O69 2.008111 1_555
Nb3 O70 2.009373 1_555
Nb3 O34 2.015906 1_555
Nb3 O71 2.035601 1_555
O0 P0 1.511327 1_555
O0 Zn0 2.001322 1_555
O1 S0 1.465450 1_555
O1 Zn0 2.177861 1_665
O2 P1 1.505190 1_555
O2 Zn0 1.989032 1_655
O3 P2 1.513559 1_555
O3 Zn1 2.026885 1_455
O4 P3 1.516810 1_555
O4 Zn1 2.044510 1_565
O5 P4 1.506586 1_555
O5 Zn1 2.018788 1_555
O6 P4 1.558431 1_565
O6 Zn2 2.046464 1_555
O7 P2 1.546696 1_555
O7 Zn2 2.038720 1_445
O8 P3 1.560258 1_455
O8 Zn2 2.028501 1_455
O9 S0 1.493311 1_555
O9 Zn3 2.121664 1_665
O10 P1 1.548114 1_455
O10 Zn3 2.016756 1_555
O11 P0 1.563548 1_565
O11 Zn3 2.039668 1_565
O12 S1 1.469541 1_555
O12 Zn4 2.089157 1_555
O13 P5 1.532448 1_555
O13 Zn4 2.037470 1_555
O14 P6 1.531247 1_555
O14 Zn4 2.051381 1_555
O15 P7 1.531667 1_555
O15 Zn5 2.082896 1_555
O16 P8 1.518057 1_555
O16 Zn5 1.948068 1_555
O17 S2 1.465556 1_555
O17 Zn5 2.172142 1_555
O18 S2 1.518635 1_555
O19 P7 1.613000 1_555
O20 P8 1.615254 1_555
O21 P5 1.611188 1_555
O22 P6 1.612009 1_555
O23 S1 1.514411 1_555
O24 P9 1.519433 1_555
O24 Zn6 1.996268 1_556
O25 P10 1.515272 1_555
O25 Zn6 1.997971 1_556
O26 P11 1.518583 1_555
O26 Zn6 1.961933 1_556
O27 P12 1.523323 1_555
O27 Zn7 1.964876 1_555
O28 P13 1.519909 1_555
O28 Zn7 1.993068 1_555
O29 P14 1.521293 1_555
O29 Zn7 2.001877 1_555
O30 P14 1.599384 1_555
O31 P12 1.588793 1_555
O32 P13 1.574003 1_555
O33 P10 1.584124 1_555
O34 P11 1.593247 1_555
O35 P9 1.593534 1_555
O36 P14 1.504865 1_555
O36 Zn0 2.164678 1_565
O37 P12 1.504423 1_555
O37 Zn0 2.108330 1_665
O38 P13 1.502219 1_555
O38 Zn0 2.059408 1_555
O39 P10 1.503293 1_555
O39 Zn1 2.117237 1_455
O40 P11 1.507241 1_555
O40 Zn1 2.121119 1_465
O41 P9 1.507322 1_555
O41 Zn1 2.143877 1_565
O42 S1 1.486564 1_555
O42 Zn2 2.409959 1_545
O43 P5 1.542629 1_555
O43 Zn2 2.349874 1_445
O44 P6 1.545283 1_555
O44 Zn2 2.305655 1_555
O45 P7 1.548233 1_555
O45 Zn3 2.304158 1_665
O46 P8 1.545914 1_555
O46 Zn3 2.315531 1_655
O47 S2 1.493217 1_555
O47 Zn3 2.325726 1_555
O48 P4 1.534971 1_555
O48 Zn4 2.119070 1_555
O49 P2 1.553531 1_555
O49 Zn4 2.141284 1_555
O50 P3 1.531856 1_555
O50 Zn4 2.086807 1_555
O51 S0 1.478718 1_555
O51 Zn5 2.276884 1_555
O52 P1 1.547998 1_555
O52 Zn5 2.078932 1_555
O53 P0 1.521536 1_555
O53 Zn5 2.056503 1_555
O54 P9 1.602165 1_555
O55 P10 1.613469 1_655
O56 P11 1.600641 1_545
O57 P12 1.602007 1_545
O58 P13 1.618438 1_555
O59 P14 1.598945 1_655
O60 S2 1.487432 1_555
O60 Zn6 2.341111 1_555
O61 P7 1.545908 1_455
O61 Zn6 2.240242 1_555
O62 P8 1.545382 1_565
O62 Zn6 2.162374 1_555
O63 P5 1.546354 1_565
O63 Zn7 2.184057 1_555
O64 P6 1.545006 1_555
O64 Zn7 2.219398 1_555
O65 S1 1.487799 1_455
O65 Zn7 2.338922 1_555
O66 P0 1.650933 1_565
O67 S0 1.527102 1_555
O68 P1 1.644385 1_455
O69 P2 1.613615 1_555
O70 P3 1.610372 1_455
O71 P4 1.646364 1_565
