# generated using pymatgen
data_Na2Nb5Al3(PO4)12
_symmetry_space_group_name_H-M   'P 1'
_cell_length_a   17.27167343
_cell_length_b   8.63869121
_cell_length_c   22.32919761
_cell_angle_alpha   89.96271932
_cell_angle_beta   89.97725182
_cell_angle_gamma   119.99795658
_symmetry_Int_Tables_number   1
_chemical_formula_structural   Na2Nb5Al3(PO4)12
_chemical_formula_sum   'Na6 Nb15 Al9 P36 O144'
_cell_volume   2885.32551532
_cell_formula_units_Z   3
loop_
 _symmetry_equiv_pos_site_id
 _symmetry_equiv_pos_as_xyz
  1  'x, y, z'
loop_
 _atom_site_type_symbol
 _atom_site_label
 _atom_site_symmetry_multiplicity
 _atom_site_fract_x
 _atom_site_fract_y
 _atom_site_fract_z
 _atom_site_occupancy
  Na  Na0  1  0.33204409  0.33087917  0.82786515  1
  Na  Na1  1  0.83468583  0.33602933  0.82871970  1
  Na  Na2  1  0.33134786  0.32973136  0.32826786  1
  Na  Na3  1  0.83497307  0.33703841  0.32727978  1
  Na  Na4  1  0.66844122  0.66707378  0.16836927  1
  Na  Na5  1  0.16639595  0.66639283  0.66582474  1
  Nb  Nb0  1  0.50003335  0.00199068  0.35601858  1
  Nb  Nb1  1  0.00089688  0.99857475  0.85570612  1
  Nb  Nb2  1  0.49926358  0.00151755  0.85662618  1
  Nb  Nb3  1  0.00358777  0.00362802  0.64157556  1
  Nb  Nb4  1  0.49634281  0.99661990  0.64109795  1
  Nb  Nb5  1  0.99580577  0.99584839  0.14651253  1
  Nb  Nb6  1  0.50374264  0.00260401  0.14375769  1
  Nb  Nb7  1  0.33401524  0.33660254  0.97919610  1
  Nb  Nb8  1  0.83260333  0.32987099  0.97986902  1
  Nb  Nb9  1  0.33004336  0.33404601  0.47705236  1
  Nb  Nb10  1  0.83667803  0.33232338  0.47582404  1
  Nb  Nb11  1  0.16604093  0.66536993  0.02621026  1
  Nb  Nb12  1  0.66943565  0.67171739  0.52386537  1
  Nb  Nb13  1  0.16322503  0.66278260  0.30785248  1
  Nb  Nb14  1  0.66728164  0.66697007  0.80716284  1
  Al  Al0  1  0.99975243  0.99812039  0.35490334  1
  Al  Al1  1  0.33057807  0.33005456  0.68629888  1
  Al  Al2  1  0.83630446  0.33691163  0.68665042  1
  Al  Al3  1  0.33391825  0.33269797  0.18850292  1
  Al  Al4  1  0.83239882  0.33414362  0.18866554  1
  Al  Al5  1  0.66717453  0.66778505  0.02267929  1
  Al  Al6  1  0.16473672  0.66275968  0.51931848  1
  Al  Al7  1  0.66951750  0.66969783  0.31091369  1
  Al  Al8  1  0.16615311  0.66630384  0.81052519  1
  P  P0  1  0.14545042  0.01330436  0.25206189  1
  P  P1  1  0.64964081  0.00006085  0.25045561  1
  P  P2  1  0.35677741  0.70309156  0.24857082  1
  P  P3  1  0.85346918  0.70481663  0.25446434  1
  P  P4  1  0.99231142  0.27663338  0.25235351  1
  P  P5  1  0.50040674  0.29916379  0.24966699  1
  P  P6  1  0.14912876  0.29872798  0.74974515  1
  P  P7  1  0.64834853  0.28391907  0.74797951  1
  P  P8  1  0.00035475  0.70240079  0.74926219  1
  P  P9  1  0.49354062  0.70272937  0.74856588  1
  P  P10  1  0.35052051  0.99998632  0.74971158  1
  P  P11  1  0.85838619  0.01299180  0.74814275  1
  P  P12  1  0.47303606  0.33796060  0.58601989  1
  P  P13  1  0.98001324  0.34666749  0.58573081  1
  P  P14  1  0.19447504  0.03940486  0.58535277  1
  P  P15  1  0.69484862  0.05615268  0.58673453  1
  P  P16  1  0.32516404  0.60983134  0.58559587  1
  P  P17  1  0.83322931  0.61089409  0.58638503  1
  P  P18  1  0.48013391  0.61440446  0.08645431  1
  P  P19  1  0.97254949  0.61332526  0.08713667  1
  P  P20  1  0.33373860  0.05385179  0.08702768  1
  P  P21  1  0.82710071  0.03982181  0.08671958  1
  P  P22  1  0.19228492  0.33053810  0.08763907  1
  P  P23  1  0.69377097  0.34734968  0.08597870  1
  P  P24  1  0.30481836  0.66462600  0.91339725  1
  P  P25  1  0.80639423  0.66666671  0.91938393  1
  P  P26  1  0.02679052  0.38847147  0.91331415  1
  P  P27  1  0.52776347  0.38906707  0.91931948  1
  P  P28  1  0.16840278  0.94641466  0.91362639  1
  P  P29  1  0.66600518  0.94466171  0.91904757  1
  P  P30  1  0.30550488  0.94401755  0.41898639  1
  P  P31  1  0.81239490  0.94583783  0.41134603  1
  P  P32  1  0.15851488  0.37476056  0.41746479  1
  P  P33  1  0.66809578  0.38959944  0.41372111  1
  P  P34  1  0.02812220  0.68242740  0.41813516  1
  P  P35  1  0.52722780  0.66500678  0.41316252  1
  O  O0  1  0.10033068  0.03655048  0.30640555  1
  O  O1  1  0.60203077  0.03072220  0.30506678  1
  O  O2  1  0.41488964  0.79407567  0.30477860  1
  O  O3  1  0.91549697  0.79867146  0.30662421  1
  O  O4  1  0.48462163  0.17373541  0.30490756  1
  O  O5  1  0.98173955  0.16427870  0.30662898  1
  O  O6  1  0.10199285  0.17353021  0.80508463  1
  O  O7  1  0.60286130  0.16996481  0.80490532  1
  O  O8  1  0.48257393  0.79490921  0.80512841  1
  O  O9  1  0.98474217  0.79565332  0.80501945  1
  O  O10  1  0.41340536  0.03013993  0.80508181  1
  O  O11  1  0.91457399  0.03567694  0.80504400  1
  O  O12  1  0.39764026  0.96964881  0.69501714  1
  O  O13  1  0.89969239  0.97243463  0.69402022  1
  O  O14  1  0.08743289  0.20521872  0.69495280  1
  O  O15  1  0.58642638  0.19995658  0.69399907  1
  O  O16  1  0.01529769  0.82642105  0.69480940  1
  O  O17  1  0.51371030  0.82646688  0.69422212  1
  O  O18  1  0.40033469  0.82670982  0.19412089  1
  O  O19  1  0.89824091  0.82608755  0.19570187  1
  O  O20  1  0.01284643  0.19972415  0.19486287  1
  O  O21  1  0.51499209  0.20361256  0.19468452  1
  O  O22  1  0.08642061  0.97400665  0.19473693  1
  O  O23  1  0.58775157  0.97059125  0.19494932  1
  O  O24  1  0.43057322  0.36516433  0.64076671  1
  O  O25  1  0.93425845  0.36963139  0.64016797  1
  O  O26  1  0.25081664  0.13152226  0.64002251  1
  O  O27  1  0.75196709  0.13938184  0.64119182  1
  O  O28  1  0.31525101  0.49762683  0.64033016  1
  O  O29  1  0.81744245  0.49648248  0.64087982  1
  O  O30  1  0.43326971  0.49708749  0.13983192  1
  O  O31  1  0.93018190  0.49564173  0.14051575  1
  O  O32  1  0.31740096  0.13867727  0.14041817  1
  O  O33  1  0.81515863  0.13373323  0.13999367  1
  O  O34  1  0.25238070  0.36544784  0.14059588  1
  O  O35  1  0.75126727  0.36926714  0.13973646  1
  O  O36  1  0.23371502  0.30379954  0.02865773  1
  O  O37  1  0.73411976  0.30812372  0.02816542  1
  O  O38  1  0.41978683  0.53180694  0.02843219  1
  O  O39  1  0.91842375  0.53301134  0.02821750  1
  O  O40  1  0.34803576  0.16355204  0.02832002  1
  O  O41  1  0.84570151  0.15975523  0.02845051  1
  O  O42  1  0.23397003  0.16062729  0.52847496  1
  O  O43  1  0.73348199  0.16508292  0.52859816  1
  O  O44  1  0.34676035  0.53307185  0.52856340  1
  O  O45  1  0.84834399  0.53140030  0.52849200  1
  O  O46  1  0.41761220  0.30350088  0.52825153  1
  O  O47  1  0.91975533  0.30607017  0.52876315  1
  O  O48  1  0.26631419  0.69436564  0.97178529  1
  O  O49  1  0.76382862  0.69414754  0.97406340  1
  O  O50  1  0.08100362  0.46768350  0.97161790  1
  O  O51  1  0.58331153  0.47266708  0.97429780  1
  O  O52  1  0.15326597  0.83791623  0.97185785  1
  O  O53  1  0.65240277  0.83335680  0.97404110  1
  O  O54  1  0.26429491  0.83390891  0.47430356  1
  O  O55  1  0.76711530  0.83691048  0.47076861  1
  O  O56  1  0.15087318  0.46721507  0.47330737  1
  O  O57  1  0.65285445  0.46741996  0.47191875  1
  O  O58  1  0.08287983  0.69847067  0.47337701  1
  O  O59  1  0.58093541  0.69444780  0.47165817  1
  O  O60  1  0.06655114  0.63535559  0.36169358  1
  O  O61  1  0.56926549  0.63434673  0.35890594  1
  O  O62  1  0.25114300  0.86875241  0.36120524  1
  O  O63  1  0.74815126  0.86312325  0.35928926  1
  O  O64  1  0.18260544  0.49921735  0.36139044  1
  O  O65  1  0.68263850  0.50276790  0.35918123  1
  O  O66  1  0.06907388  0.50338840  0.85910825  1
  O  O67  1  0.56646128  0.49824376  0.86130086  1
  O  O68  1  0.18316780  0.86266928  0.85912800  1
  O  O69  1  0.68221823  0.86597925  0.86126717  1
  O  O70  1  0.24834651  0.63483663  0.85886208  1
  O  O71  1  0.75070661  0.63506936  0.86146732  1
  O  O72  1  0.01428866  0.83714991  0.40600483  1
  O  O73  1  0.51462740  0.82981326  0.40688885  1
  O  O74  1  0.40035919  0.96954915  0.40828061  1
  O  O75  1  0.90417324  0.97166593  0.40490950  1
  O  O76  1  0.08142074  0.19149715  0.40566042  1
  O  O77  1  0.58510411  0.19959928  0.40726510  1
  O  O78  1  0.01455580  0.19913016  0.90684613  1
  O  O79  1  0.51520018  0.20013662  0.90861410  1
  O  O80  1  0.08555964  0.97064851  0.90728729  1
  O  O81  1  0.58440571  0.97003194  0.90801390  1
  O  O82  1  0.40008804  0.82930098  0.90709250  1
  O  O83  1  0.90019689  0.83073410  0.90810124  1
  O  O84  1  0.48557377  0.17245105  0.59292386  1
  O  O85  1  0.98734594  0.17383215  0.59353791  1
  O  O86  1  0.10089613  0.02644079  0.59283965  1
  O  O87  1  0.59937383  0.02891960  0.59359854  1
  O  O88  1  0.41230149  0.79880496  0.59307440  1
  O  O89  1  0.91504752  0.80071546  0.59344012  1
  O  O90  1  0.48724550  0.80093409  0.09273828  1
  O  O91  1  0.98618627  0.80208966  0.09187176  1
  O  O92  1  0.41555268  0.02871051  0.09254362  1
  O  O93  1  0.91294827  0.02578513  0.09239627  1
  O  O94  1  0.09832549  0.16868754  0.09254302  1
  O  O95  1  0.60035466  0.17464553  0.09230901  1
  O  O96  1  0.34528127  0.16986284  0.74186092  1
  O  O97  1  0.84640474  0.17404860  0.74125358  1
  O  O98  1  0.23956028  0.30967453  0.74171138  1
  O  O99  1  0.74087303  0.30784565  0.74137380  1
  O  O100  1  0.41285756  0.51865003  0.74132438  1
  O  O101  1  0.91543311  0.52107128  0.74181903  1
  O  O102  1  0.34700922  0.51999100  0.24103892  1
  O  O103  1  0.84563824  0.52269936  0.24186936  1
  O  O104  1  0.41523131  0.30901350  0.24147124  1
  O  O105  1  0.91285998  0.30481132  0.24170383  1
  O  O106  1  0.23926196  0.17307021  0.24168784  1
  O  O107  1  0.73950801  0.16955118  0.24159095  1
  O  O108  1  0.31874057  0.50076218  0.92179750  1
  O  O109  1  0.81939920  0.50138743  0.92360551  1
  O  O110  1  0.43158285  0.36123639  0.92368082  1
  O  O111  1  0.93143952  0.36255595  0.92208054  1
  O  O112  1  0.25015940  0.13776758  0.92230406  1
  O  O113  1  0.74882428  0.13647640  0.92326313  1
  O  O114  1  0.32023193  0.13727973  0.42434317  1
  O  O115  1  0.81995278  0.13492871  0.42326846  1
  O  O116  1  0.24694525  0.35915024  0.42464137  1
  O  O117  1  0.74969924  0.36163268  0.42244606  1
  O  O118  1  0.43157294  0.50090694  0.42223932  1
  O  O119  1  0.93247265  0.50572560  0.42480049  1
  O  O120  1  0.18240175  0.49732865  0.07520652  1
  O  O121  1  0.68084680  0.50667683  0.07515124  1
  O  O122  1  0.06654648  0.63523715  0.07527001  1
  O  O123  1  0.57225161  0.63831958  0.07523699  1
  O  O124  1  0.25141917  0.86637964  0.07522132  1
  O  O125  1  0.74661220  0.85531349  0.07532900  1
  O  O126  1  0.18075299  0.85390971  0.57524512  1
  O  O127  1  0.68195344  0.86718744  0.57599980  1
  O  O128  1  0.24629291  0.63795866  0.57542947  1
  O  O129  1  0.75148797  0.63638910  0.57574566  1
  O  O130  1  0.07254336  0.50621969  0.57535194  1
  O  O131  1  0.56758640  0.49931559  0.57512891  1
  O  O132  1  0.15414641  0.84185551  0.25938224  1
  O  O133  1  0.65462904  0.83028246  0.25813364  1
  O  O134  1  0.26533881  0.69060676  0.25801600  1
  O  O135  1  0.76146216  0.69110054  0.25870523  1
  O  O136  1  0.07866938  0.46610254  0.25886132  1
  O  O137  1  0.58467872  0.47928752  0.25814262  1
  O  O138  1  0.15498911  0.47911938  0.75848902  1
  O  O139  1  0.65456720  0.46778706  0.75850289  1
  O  O140  1  0.08451330  0.69012621  0.75839130  1
  O  O141  1  0.57936358  0.68995730  0.75867053  1
  O  O142  1  0.26049124  0.83083902  0.75849604  1
  O  O143  1  0.76578987  0.84180981  0.75844539  1
loop_
_geom_bond_atom_site_label_1
_geom_bond_atom_site_label_2
_geom_bond_distance
_geom_bond_site_symmetry_2
Na0 O96 2.448704 1_555
Na0 O98 2.448712 1_555
Na0 O100 2.458321 1_555
Na0 O112 2.619895 1_555
Na0 O108 2.635638 1_555
Na0 O110 2.674819 1_555
Na1 O101 2.455630 1_555
Na1 O99 2.469259 1_555
Na1 O97 2.469790 1_555
Na1 O111 2.609868 1_555
Na1 O109 2.641945 1_555
Na1 O113 2.657835 1_555
Na2 O106 2.439709 1_555
Na2 O102 2.473694 1_555
Na2 O104 2.478873 1_555
Na2 O118 2.652057 1_555
Na2 O114 2.660634 1_555
Na2 O116 2.681274 1_555
Na3 O105 2.431384 1_555
Na3 O103 2.438001 1_555
Na3 O107 2.468535 1_555
Na3 O117 2.653472 1_555
Na3 O115 2.692844 1_555
Na3 O119 2.693386 1_555
Na4 O135 2.522461 1_555
Na4 O137 2.527768 1_555
Na4 O133 2.530190 1_555
Na4 O125 2.565401 1_555
Na4 O121 2.568793 1_555
Na4 O123 2.595607 1_555
Na5 O126 2.523892 1_555
Na5 O128 2.525102 1_555
Na5 O130 2.527208 1_555
Na5 O140 2.569540 1_555
Na5 O138 2.571759 1_555
Na5 O142 2.576651 1_555
Nb0 O77 1.969317 1_555
Nb0 O74 1.979798 1_545
Nb0 O73 1.984699 1_545
Nb0 O4 1.991860 1_555
Nb0 O1 2.005064 1_555
Nb0 O2 2.015079 1_545
Nb1 O80 1.968937 1_555
Nb1 O9 1.986323 1_455
Nb1 O78 1.988817 1_565
Nb1 O6 1.992022 1_565
Nb1 O83 1.992636 1_455
Nb1 O11 2.020904 1_465
Nb2 O82 1.966054 1_545
Nb2 O79 1.974317 1_555
Nb2 O10 1.988083 1_555
Nb2 O81 1.988470 1_545
Nb2 O7 2.011337 1_555
Nb2 O8 2.019765 1_545
Nb3 O86 1.927393 1_555
Nb3 O85 1.949816 1_455
Nb3 O89 1.972257 1_445
Nb3 O14 2.008170 1_555
Nb3 O16 2.026009 1_545
Nb3 O13 2.044115 1_445
Nb4 O88 1.923629 1_555
Nb4 O84 1.944082 1_565
Nb4 O87 1.967505 1_565
Nb4 O12 2.002715 1_555
Nb4 O17 2.024008 1_555
Nb4 O15 2.042780 1_565
Nb5 O19 1.929247 1_555
Nb5 O20 1.959210 1_665
Nb5 O22 1.985177 1_655
Nb5 O93 1.986480 1_565
Nb5 O91 2.010629 1_555
Nb5 O94 2.041876 1_665
Nb6 O95 1.956891 1_555
Nb6 O23 1.972449 1_545
Nb6 O90 1.980056 1_545
Nb6 O21 2.002876 1_555
Nb6 O92 2.005806 1_555
Nb6 O18 2.011444 1_545
Nb7 O38 1.937178 1_556
Nb7 O36 1.951494 1_556
Nb7 O40 1.963849 1_556
Nb7 O110 2.015213 1_555
Nb7 O108 2.023697 1_555
Nb7 O112 2.044152 1_555
Nb8 O41 1.928252 1_556
Nb8 O37 1.941737 1_556
Nb8 O39 1.960837 1_556
Nb8 O113 2.017290 1_555
Nb8 O109 2.039953 1_555
Nb8 O111 2.043199 1_555
Nb9 O116 1.946481 1_555
Nb9 O42 1.956197 1_555
Nb9 O44 1.966938 1_555
Nb9 O114 2.004495 1_555
Nb9 O46 2.015987 1_555
Nb9 O118 2.029608 1_555
Nb10 O119 1.948698 1_555
Nb10 O47 1.958075 1_555
Nb10 O115 1.969449 1_555
Nb10 O45 2.009370 1_555
Nb10 O43 2.018406 1_555
Nb10 O117 2.030489 1_555
Nb11 O122 1.942077 1_555
Nb11 O120 1.947423 1_555
Nb11 O124 1.957233 1_555
Nb11 O50 2.013857 1_554
Nb11 O52 2.017463 1_554
Nb11 O48 2.025634 1_554
Nb12 O129 1.968976 1_555
Nb12 O55 1.969064 1_555
Nb12 O127 1.972563 1_555
Nb12 O131 1.999822 1_555
Nb12 O59 2.008786 1_555
Nb12 O57 2.009904 1_555
Nb13 O136 1.933601 1_555
Nb13 O132 1.956922 1_555
Nb13 O60 1.972791 1_555
Nb13 O134 1.995211 1_555
Nb13 O64 2.002192 1_555
Nb13 O62 2.047805 1_555
Nb14 O143 1.945808 1_555
Nb14 O139 1.953027 1_555
Nb14 O141 1.954544 1_555
Nb14 O71 2.005107 1_555
Nb14 O69 2.010252 1_555
Nb14 O67 2.018955 1_555
Al0 O75 1.909231 1_555
Al0 O72 1.909451 1_655
Al0 O76 1.926742 1_665
Al0 O0 1.929247 1_665
Al0 O3 1.935199 1_555
Al0 O5 1.940066 1_565
Al1 O26 1.883581 1_555
Al1 O24 1.892852 1_555
Al1 O28 1.897552 1_555
Al1 O98 1.937691 1_555
Al1 O96 1.966766 1_555
Al1 O100 1.967836 1_555
Al2 O29 1.870390 1_555
Al2 O25 1.881355 1_555
Al2 O27 1.892594 1_555
Al2 O97 1.933851 1_555
Al2 O101 1.935473 1_555
Al2 O99 1.963946 1_555
Al3 O32 1.888895 1_555
Al3 O34 1.899168 1_555
Al3 O102 1.918840 1_555
Al3 O104 1.923914 1_555
Al3 O30 1.924098 1_555
Al3 O106 1.930476 1_555
Al4 O31 1.896097 1_555
Al4 O35 1.917091 1_555
Al4 O107 1.925507 1_555
Al4 O103 1.935756 1_555
Al4 O105 1.936770 1_555
Al4 O33 1.937619 1_555
Al5 O49 1.906619 1_554
Al5 O53 1.911419 1_554
Al5 O51 1.915343 1_554
Al5 O125 1.915766 1_555
Al5 O121 1.921531 1_555
Al5 O123 1.926328 1_555
Al6 O56 1.887968 1_555
Al6 O58 1.892940 1_555
Al6 O54 1.899371 1_555
Al6 O130 1.942353 1_555
Al6 O128 1.975527 1_555
Al6 O126 1.977108 1_555
Al7 O63 1.880871 1_555
Al7 O65 1.901956 1_555
Al7 O135 1.902559 1_555
Al7 O61 1.925918 1_555
Al7 O133 1.932441 1_555
Al7 O137 1.958328 1_555
Al8 O66 1.898914 1_555
Al8 O70 1.908104 1_555
Al8 O68 1.909423 1_555
Al8 O140 1.917528 1_555
Al8 O138 1.921686 1_555
Al8 O142 1.924945 1_555
O0 P0 1.508688 1_555
O1 P1 1.565489 1_555
O2 P2 1.553651 1_555
O3 P3 1.515013 1_555
O4 P5 1.572403 1_555
O5 P4 1.505074 1_555
O6 P6 1.573677 1_555
O7 P7 1.557642 1_555
O8 P9 1.554700 1_555
O9 P8 1.577970 1_655
O10 P10 1.579469 1_545
O11 P11 1.551015 1_555
O12 P10 1.560592 1_555
O13 P11 1.530373 1_565
O14 P6 1.557720 1_555
O15 P7 1.532724 1_555
O16 P8 1.553832 1_555
O17 P9 1.536899 1_555
O18 P2 1.542351 1_555
O19 P3 1.613841 1_555
O20 P4 1.565736 1_455
O21 P5 1.568786 1_555
O22 P0 1.564825 1_565
O23 P1 1.572550 1_565
O24 P12 1.503165 1_555
O25 P13 1.515821 1_555
O26 P14 1.516004 1_555
O27 P15 1.503877 1_555
O28 P16 1.514895 1_555
O29 P17 1.503520 1_555
O30 P18 1.510048 1_555
O31 P19 1.497836 1_555
O32 P20 1.498495 1_555
O33 P21 1.511344 1_555
O34 P22 1.501666 1_555
O35 P23 1.508683 1_555
O36 P22 1.569974 1_555
O37 P23 1.582074 1_555
O38 P18 1.591435 1_555
O39 P19 1.561971 1_555
O40 P20 1.562569 1_555
O41 P21 1.592041 1_555
O42 P14 1.567874 1_555
O43 P15 1.544594 1_555
O44 P16 1.564819 1_555
O45 P17 1.546277 1_555
O46 P12 1.544474 1_555
O47 P13 1.568729 1_555
O48 P24 1.542286 1_555
O49 P25 1.503910 1_555
O50 P26 1.549618 1_555
O51 P27 1.502776 1_555
O52 P28 1.546173 1_555
O53 P29 1.503320 1_555
O54 P30 1.502617 1_555
O55 P31 1.587235 1_555
O56 P32 1.522072 1_555
O57 P33 1.545245 1_555
O58 P34 1.518315 1_555
O59 P35 1.548130 1_555
O60 P34 1.569753 1_555
O61 P35 1.502357 1_555
O62 P30 1.536414 1_555
O63 P31 1.517305 1_555
O64 P32 1.564389 1_555
O65 P33 1.501541 1_555
O66 P26 1.502215 1_555
O67 P27 1.543366 1_555
O68 P28 1.501550 1_555
O69 P29 1.547965 1_555
O70 P24 1.500260 1_555
O71 P25 1.552731 1_555
O72 P34 1.495281 1_555
O73 P35 1.550333 1_555
O74 P30 1.558235 1_555
O75 P31 1.493086 1_555
O76 P32 1.497257 1_555
O77 P33 1.554788 1_555
O78 P26 1.547777 1_555
O79 P27 1.553845 1_555
O80 P28 1.552679 1_555
O81 P29 1.550515 1_555
O82 P24 1.552418 1_555
O83 P25 1.549260 1_555
O84 P12 1.557011 1_555
O85 P13 1.569857 1_555
O86 P14 1.572121 1_555
O87 P15 1.552386 1_555
O88 P16 1.581691 1_555
O89 P17 1.547297 1_555
O90 P18 1.560029 1_555
O91 P19 1.530345 1_555
O92 P20 1.538207 1_555
O93 P21 1.552151 1_555
O94 P22 1.526851 1_555
O95 P23 1.562567 1_555
O96 P10 1.524786 1_545
O97 P11 1.513244 1_555
O98 P6 1.527328 1_555
O99 P7 1.512527 1_555
O100 P9 1.510456 1_555
O101 P8 1.528336 1_655
O102 P2 1.514002 1_555
O103 P3 1.536343 1_555
O104 P5 1.526530 1_555
O105 P4 1.527448 1_555
O106 P0 1.531992 1_555
O107 P1 1.522849 1_555
O108 P24 1.561056 1_555
O109 P25 1.555144 1_555
O110 P27 1.557996 1_555
O111 P26 1.559371 1_655
O112 P28 1.559038 1_545
O113 P29 1.559140 1_545
O114 P30 1.562687 1_545
O115 P31 1.594867 1_545
O116 P32 1.607095 1_555
O117 P33 1.556747 1_555
O118 P35 1.561293 1_555
O119 P34 1.599798 1_655
O120 P22 1.558112 1_555
O121 P23 1.519712 1_555
O122 P19 1.560144 1_455
O123 P18 1.519119 1_555
O124 P20 1.553127 1_565
O125 P21 1.524124 1_565
O126 P14 1.515144 1_565
O127 P15 1.552041 1_565
O128 P16 1.515723 1_555
O129 P17 1.552184 1_555
O130 P13 1.517967 1_455
O131 P12 1.546611 1_555
O132 P0 1.570050 1_565
O133 P1 1.521169 1_565
O134 P2 1.542621 1_555
O135 P3 1.536190 1_555
O136 P4 1.576118 1_455
O137 P5 1.520361 1_555
O138 P6 1.522989 1_555
O139 P7 1.555510 1_555
O140 P8 1.523141 1_555
O141 P9 1.556947 1_555
O142 P10 1.522796 1_555
O143 P11 1.559446 1_565
