# generated using pymatgen
data_Na3InSi2SnSO12
_symmetry_space_group_name_H-M   'P 1'
_cell_length_a   9.14389571
_cell_length_b   9.14389539
_cell_length_c   22.82141062
_cell_angle_alpha   89.69294295
_cell_angle_beta   90.30705705
_cell_angle_gamma   120.00360295
_symmetry_Int_Tables_number   1
_chemical_formula_structural   Na3InSi2SnSO12
_chemical_formula_sum   'Na18 In6 Si12 Sn6 S6 O72'
_cell_volume   1652.38614981
_cell_formula_units_Z   6
loop_
 _symmetry_equiv_pos_site_id
 _symmetry_equiv_pos_as_xyz
  1  'x, y, z'
loop_
 _atom_site_type_symbol
 _atom_site_label
 _atom_site_symmetry_multiplicity
 _atom_site_fract_x
 _atom_site_fract_y
 _atom_site_fract_z
 _atom_site_occupancy
  Na  Na0  1  0.63280179  0.99497832  0.24172697  1
  Na  Na1  1  0.99262948  0.64159197  0.24322365  1
  Na  Na2  1  0.00502168  0.36719821  0.74172697  1
  Na  Na3  1  0.35840803  0.00737052  0.74322365  1
  Na  Na4  1  0.29946879  0.32831132  0.57505997  1
  Na  Na5  1  0.65929648  0.97492497  0.57655665  1
  Na  Na6  1  0.67168868  0.70053121  0.07505997  1
  Na  Na7  1  0.02507503  0.34070352  0.07655665  1
  Na  Na8  1  0.96613479  0.66164532  0.90839397  1
  Na  Na9  1  0.32596248  0.30825897  0.90989065  1
  Na  Na10  1  0.33835468  0.03386521  0.40839397  1
  Na  Na11  1  0.69174103  0.67403752  0.40989065  1
  Na  Na12  1  0.00706831  0.03249650  0.49608806  1
  Na  Na13  1  0.96750350  0.99293169  0.99608806  1
  Na  Na14  1  0.67373531  0.36582950  0.82942106  1
  Na  Na15  1  0.63417050  0.32626469  0.32942106  1
  Na  Na16  1  0.34040131  0.69916350  0.16275506  1
  Na  Na17  1  0.30083650  0.65959869  0.66275506  1
  In  In0  1  0.00456373  0.00715844  0.35196837  1
  In  In1  1  0.99284156  0.99543627  0.85196837  1
  In  In2  1  0.67123073  0.34049144  0.68530137  1
  In  In3  1  0.65950856  0.32876927  0.18530137  1
  In  In4  1  0.33789673  0.67382544  0.01863537  1
  In  In5  1  0.32617456  0.66210327  0.51863537  1
  Si  Si0  1  0.29412788  0.99718111  0.25429168  1
  Si  Si1  1  0.70165333  0.70143045  0.25138156  1
  Si  Si2  1  0.29856955  0.29834667  0.75138156  1
  Si  Si3  1  0.00281889  0.70587212  0.75429168  1
  Si  Si4  1  0.96079488  0.33051411  0.58762468  1
  Si  Si5  1  0.36832033  0.03476345  0.58471456  1
  Si  Si6  1  0.96523655  0.63167967  0.08471456  1
  Si  Si7  1  0.66948589  0.03920512  0.08762468  1
  Si  Si8  1  0.62746088  0.66384811  0.92095868  1
  Si  Si9  1  0.03498633  0.36809745  0.91804856  1
  Si  Si10  1  0.63190255  0.96501367  0.41804856  1
  Si  Si11  1  0.33615189  0.37253912  0.42095868  1
  Sn  Sn0  1  0.01691090  0.00573054  0.64820120  1
  Sn  Sn1  1  0.99426946  0.98308910  0.14820120  1
  Sn  Sn2  1  0.68357790  0.33906354  0.98153420  1
  Sn  Sn3  1  0.66093646  0.31642210  0.48153420  1
  Sn  Sn4  1  0.35024390  0.67239754  0.31486820  1
  Sn  Sn5  1  0.32760246  0.64975610  0.81486820  1
  S  S0  1  0.01032236  0.30196028  0.24899647  1
  S  S1  1  0.69803972  0.98967764  0.74899647  1
  S  S2  1  0.67698936  0.63529328  0.58232947  1
  S  S3  1  0.36470672  0.32301064  0.08232947  1
  S  S4  1  0.34365536  0.96862728  0.91566347  1
  S  S5  1  0.03137272  0.65634464  0.41566347  1
  O  O0  1  0.21793950  0.01826669  0.31547666  1
  O  O1  1  0.81347863  0.78699204  0.31026137  1
  O  O2  1  0.98977469  0.19827093  0.30081000  1
  O  O3  1  0.21300796  0.18652137  0.81026137  1
  O  O4  1  0.98173331  0.78206050  0.81547666  1
  O  O5  1  0.80172907  0.01022531  0.80081000  1
  O  O6  1  0.77257346  0.96826242  0.69389265  1
  O  O7  1  0.17470957  0.21607595  0.69270391  1
  O  O8  1  0.03337728  0.83298317  0.69761912  1
  O  O9  1  0.78392405  0.82529043  0.19270391  1
  O  O10  1  0.03173758  0.22742654  0.19389265  1
  O  O11  1  0.16701683  0.96662272  0.19761912  1
  O  O12  1  0.88460650  0.35159969  0.64880966  1
  O  O13  1  0.48014563  0.12032504  0.64359437  1
  O  O14  1  0.65644169  0.53160393  0.63414300  1
  O  O15  1  0.87967496  0.51985437  0.14359437  1
  O  O16  1  0.64840031  0.11539350  0.14880966  1
  O  O17  1  0.46839607  0.34355831  0.13414300  1
  O  O18  1  0.43924046  0.30159542  0.02722565  1
  O  O19  1  0.84137657  0.54940895  0.02603691  1
  O  O20  1  0.70004428  0.16631617  0.03095212  1
  O  O21  1  0.45059105  0.15862343  0.52603691  1
  O  O22  1  0.69840458  0.56075954  0.52722565  1
  O  O23  1  0.83368383  0.29995572  0.53095212  1
  O  O24  1  0.55127250  0.68493369  0.98214366  1
  O  O25  1  0.14681163  0.45365904  0.97692837  1
  O  O26  1  0.32310769  0.86493793  0.96747700  1
  O  O27  1  0.54634096  0.85318837  0.47692837  1
  O  O28  1  0.31506631  0.44872750  0.48214366  1
  O  O29  1  0.13506207  0.67689231  0.46747700  1
  O  O30  1  0.10590646  0.63492942  0.36055965  1
  O  O31  1  0.50804257  0.88274295  0.35937091  1
  O  O32  1  0.36671028  0.49965017  0.36428612  1
  O  O33  1  0.11725705  0.49195743  0.85937091  1
  O  O34  1  0.36507058  0.89409354  0.86055965  1
  O  O35  1  0.50034983  0.63328972  0.86428612  1
  O  O36  1  0.01392952  0.80930900  0.41398399  1
  O  O37  1  0.81525517  0.97636138  0.41318798  1
  O  O38  1  0.18312358  0.17792761  0.41515358  1
  O  O39  1  0.02363862  0.18474483  0.91318798  1
  O  O40  1  0.19069100  0.98607048  0.91398399  1
  O  O41  1  0.82207239  0.81687642  0.91515358  1
  O  O42  1  0.96028079  0.14446295  0.58852836  1
  O  O43  1  0.18209322  0.02502281  0.58554845  1
  O  O44  1  0.82819472  0.80834534  0.58695599  1
  O  O45  1  0.97497719  0.81790678  0.08554845  1
  O  O46  1  0.85553705  0.03971921  0.08852836  1
  O  O47  1  0.19165466  0.17180528  0.08695599  1
  O  O48  1  0.68059652  0.14264200  0.74731699  1
  O  O49  1  0.48192217  0.30969438  0.74652098  1
  O  O50  1  0.84979058  0.51126061  0.74848658  1
  O  O51  1  0.69030562  0.51807783  0.24652098  1
  O  O52  1  0.85735800  0.31940348  0.24731699  1
  O  O53  1  0.48873939  0.15020942  0.24848658  1
  O  O54  1  0.62694779  0.47779595  0.92186136  1
  O  O55  1  0.84876022  0.35835581  0.91888145  1
  O  O56  1  0.49486172  0.14167834  0.92028899  1
  O  O57  1  0.64164419  0.15123978  0.41888145  1
  O  O58  1  0.52220405  0.37305221  0.42186136  1
  O  O59  1  0.85832166  0.50513828  0.42028899  1
  O  O60  1  0.34726252  0.47597600  0.08065099  1
  O  O61  1  0.14858817  0.64302838  0.07985498  1
  O  O62  1  0.51645658  0.84459461  0.08182058  1
  O  O63  1  0.35697162  0.85141183  0.57985498  1
  O  O64  1  0.52402400  0.65273748  0.58065099  1
  O  O65  1  0.15540539  0.48354342  0.58182058  1
  O  O66  1  0.29361379  0.81112995  0.25519536  1
  O  O67  1  0.51542622  0.69168981  0.25221545  1
  O  O68  1  0.16152772  0.47501234  0.25362299  1
  O  O69  1  0.30831019  0.48457378  0.75221545  1
  O  O70  1  0.18887005  0.70638621  0.75519536  1
  O  O71  1  0.52498766  0.83847228  0.75362299  1
loop_
_geom_bond_atom_site_label_1
_geom_bond_atom_site_label_2
_geom_bond_distance
_geom_bond_site_symmetry_2
Na0 O16 2.355924 1_565
Na0 O53 2.376618 1_565
Na0 O67 2.432886 1_555
Na0 O52 2.634761 1_565
Na0 O66 2.707407 1_555
Na0 O9 2.783548 1_555
Na0 O31 2.897445 1_555
Na1 O66 2.404541 1_655
Na1 O51 2.408746 1_555
Na1 O15 2.515477 1_555
Na1 O52 2.563555 1_555
Na1 O68 2.665783 1_655
Na1 O11 2.775587 1_655
Na1 O30 2.877269 1_655
Na2 O12 2.355924 1_455
Na2 O50 2.376618 1_455
Na2 O69 2.432886 1_555
Na2 O48 2.634761 1_455
Na2 O70 2.707406 1_555
Na2 O7 2.783548 1_555
Na2 O33 2.897445 1_555
Na3 O70 2.404541 1_545
Na3 O49 2.408746 1_555
Na3 O13 2.515477 1_555
Na3 O48 2.563555 1_555
Na3 O71 2.665783 1_545
Na3 O8 2.775587 1_545
Na3 O34 2.877269 1_545
Na4 O28 2.355909 1_555
Na4 O65 2.376635 1_555
Na4 O43 2.432886 1_555
Na4 O64 2.634767 1_555
Na4 O42 2.707407 1_455
Na4 O21 2.783548 1_555
Na4 O7 2.897445 1_555
Na5 O42 2.404541 1_565
Na5 O63 2.408756 1_555
Na5 O27 2.515455 1_555
Na5 O64 2.563547 1_555
Na5 O44 2.665783 1_555
Na5 O23 2.775587 1_565
Na5 O6 2.877269 1_555
Na6 O24 2.355909 1_554
Na6 O62 2.376635 1_555
Na6 O45 2.432886 1_555
Na6 O60 2.634767 1_555
Na6 O46 2.707406 1_565
Na6 O19 2.783548 1_555
Na6 O9 2.897445 1_555
Na7 O46 2.404541 1_455
Na7 O61 2.408756 1_555
Na7 O25 2.515455 1_554
Na7 O60 2.563547 1_555
Na7 O47 2.665783 1_555
Na7 O20 2.775587 1_455
Na7 O10 2.877269 1_555
Na8 O4 2.355924 1_555
Na8 O41 2.376618 1_555
Na8 O55 2.432894 1_555
Na8 O40 2.634761 1_655
Na8 O54 2.707397 1_555
Na8 O33 2.783548 1_655
Na8 O19 2.897423 1_556
Na9 O54 2.404545 1_555
Na9 O39 2.408746 1_555
Na9 O3 2.515477 1_555
Na9 O40 2.563555 1_545
Na9 O56 2.665797 1_555
Na9 O35 2.775587 1_555
Na9 O18 2.877253 1_556
Na10 O0 2.355924 1_555
Na10 O38 2.376618 1_555
Na10 O57 2.432894 1_555
Na10 O36 2.634761 1_545
Na10 O58 2.707397 1_555
Na10 O31 2.783548 1_545
Na10 O21 2.897423 1_555
Na11 O58 2.404545 1_555
Na11 O37 2.408746 1_555
Na11 O1 2.515477 1_555
Na11 O36 2.563555 1_655
Na11 O59 2.665797 1_555
Na11 O32 2.775587 1_555
Na11 O22 2.877253 1_555
Na12 O38 2.374035 1_555
Na12 O37 2.448152 1_445
Na12 O42 2.480440 1_455
Na12 O43 2.609028 1_555
Na12 O44 2.795455 1_445
Na12 O36 2.801781 1_545
Na13 O41 2.374035 1_555
Na13 O39 2.448151 1_665
Na13 O46 2.480440 1_566
Na13 O45 2.609028 1_556
Na13 O47 2.795455 1_666
Na13 O40 2.801781 1_655
Na14 O50 2.374035 1_555
Na14 O49 2.448152 1_555
Na14 O54 2.480440 1_555
Na14 O55 2.609028 1_555
Na14 O56 2.795455 1_555
Na14 O48 2.801781 1_555
Na15 O53 2.374035 1_555
Na15 O51 2.448151 1_555
Na15 O58 2.480440 1_555
Na15 O57 2.609028 1_555
Na15 O59 2.795455 1_555
Na15 O52 2.801781 1_555
Na16 O62 2.374035 1_555
Na16 O61 2.448152 1_555
Na16 O66 2.480440 1_555
Na16 O67 2.609028 1_555
Na16 O68 2.795455 1_555
Na16 O60 2.801781 1_555
Na17 O65 2.374035 1_555
Na17 O63 2.448151 1_555
Na17 O70 2.480440 1_555
Na17 O69 2.609028 1_555
Na17 O71 2.795455 1_555
Na17 O64 2.801781 1_555
In0 O0 2.080602 1_555
In0 O1 2.120504 1_445
In0 O37 2.135849 1_445
In0 O38 2.152323 1_555
In0 O2 2.155908 1_455
In0 O36 2.325826 1_545
In1 O4 2.080602 1_555
In1 O3 2.120504 1_665
In1 O39 2.135849 1_665
In1 O41 2.152323 1_555
In1 O5 2.155908 1_565
In1 O40 2.325826 1_655
In2 O12 2.080602 1_555
In2 O13 2.120504 1_555
In2 O49 2.135849 1_555
In2 O50 2.152323 1_555
In2 O14 2.155908 1_555
In2 O48 2.325826 1_555
In3 O16 2.080602 1_555
In3 O15 2.120504 1_555
In3 O51 2.135849 1_555
In3 O53 2.152323 1_555
In3 O17 2.155908 1_555
In3 O52 2.325826 1_555
In4 O24 2.080602 1_554
In4 O25 2.120504 1_554
In4 O61 2.135849 1_555
In4 O62 2.152323 1_555
In4 O26 2.155908 1_554
In4 O60 2.325826 1_555
In5 O28 2.080602 1_555
In5 O27 2.120504 1_555
In5 O63 2.135849 1_555
In5 O65 2.152323 1_555
In5 O29 2.155908 1_555
In5 O64 2.325826 1_555
O0 Si0 1.618605 1_545
O1 Si1 1.630857 1_555
O2 S0 1.464464 1_655
O3 Si2 1.630857 1_555
O4 Si3 1.618605 1_655
O5 S1 1.464464 1_545
O6 S1 1.493167 1_555
O6 Sn0 2.334938 1_665
O7 Si2 1.668614 1_555
O7 Sn0 2.010595 1_555
O8 Si3 1.662739 1_555
O8 Sn0 2.001650 1_565
O9 Si1 1.668614 1_555
O9 Sn1 2.010595 1_555
O10 S0 1.493167 1_555
O10 Sn1 2.334938 1_445
O11 Si0 1.662739 1_555
O11 Sn1 2.001650 1_455
O12 Si4 1.618605 1_555
O13 Si5 1.630857 1_555
O14 S2 1.464464 1_555
O15 Si6 1.630857 1_555
O16 Si7 1.618605 1_555
O17 S3 1.464464 1_555
O18 S3 1.493167 1_555
O18 Sn2 2.334938 1_554
O19 Si6 1.668614 1_555
O19 Sn2 2.010595 1_554
O20 Si7 1.662739 1_555
O20 Sn2 2.001650 1_554
O21 Si5 1.668614 1_555
O21 Sn3 2.010595 1_555
O22 S2 1.493167 1_555
O22 Sn3 2.334938 1_555
O23 Si4 1.662739 1_555
O23 Sn3 2.001650 1_555
O24 Si8 1.618605 1_555
O25 Si9 1.630857 1_555
O26 S4 1.464464 1_555
O27 Si10 1.630857 1_555
O28 Si11 1.618605 1_555
O29 S5 1.464464 1_555
O30 S5 1.493167 1_555
O30 Sn4 2.334938 1_555
O31 Si10 1.668614 1_555
O31 Sn4 2.010595 1_555
O32 Si11 1.662739 1_555
O32 Sn4 2.001650 1_555
O33 Si9 1.668614 1_555
O33 Sn5 2.010595 1_555
O34 S4 1.493167 1_555
O34 Sn5 2.334938 1_555
O35 Si8 1.662739 1_555
O35 Sn5 2.001650 1_555
O36 S5 1.485165 1_555
O37 Si10 1.631503 1_555
O38 Si11 1.628624 1_555
O39 Si9 1.631503 1_555
O40 S4 1.485166 1_555
O41 Si8 1.628624 1_555
O42 Si4 1.698901 1_555
O42 Sn0 2.088731 1_655
O43 Si5 1.660304 1_555
O43 Sn0 2.027517 1_555
O44 S2 1.496274 1_555
O44 Sn0 2.252818 1_665
O45 Si6 1.660304 1_555
O45 Sn1 2.027516 1_555
O46 Si7 1.698901 1_555
O46 Sn1 2.088731 1_545
O47 S3 1.496274 1_555
O47 Sn1 2.252818 1_445
O48 S1 1.485165 1_545
O49 Si2 1.631503 1_555
O50 Si3 1.628624 1_655
O51 Si1 1.631503 1_555
O52 S0 1.485166 1_655
O53 Si0 1.628624 1_545
O54 Si8 1.698915 1_555
O54 Sn2 2.088731 1_555
O55 Si9 1.660290 1_655
O55 Sn2 2.027517 1_555
O56 S4 1.496270 1_545
O56 Sn2 2.252818 1_555
O57 Si10 1.660290 1_545
O57 Sn3 2.027516 1_555
O58 Si11 1.698915 1_555
O58 Sn3 2.088731 1_555
O59 S5 1.496270 1_655
O59 Sn3 2.252818 1_555
O60 S3 1.485179 1_555
O61 Si6 1.631488 1_455
O62 Si7 1.628619 1_565
O63 Si5 1.631488 1_565
O64 S2 1.485179 1_555
O65 Si4 1.628619 1_455
O66 Si0 1.698901 1_555
O66 Sn4 2.088731 1_555
O67 Si1 1.660304 1_555
O67 Sn4 2.027517 1_555
O68 S0 1.496274 1_555
O68 Sn4 2.252818 1_555
O69 Si2 1.660304 1_555
O69 Sn5 2.027516 1_555
O70 Si3 1.698901 1_555
O70 Sn5 2.088731 1_555
O71 S1 1.496274 1_555
O71 Sn5 2.252818 1_555
