# generated using pymatgen
data_Ba2SrMgWO6
_symmetry_space_group_name_H-M   'P 1'
_cell_length_a   6.01134825
_cell_length_b   6.06526472
_cell_length_c   6.60262161
_cell_angle_alpha   68.13251213
_cell_angle_beta   62.92062812
_cell_angle_gamma   60.29362306
_symmetry_Int_Tables_number   1
_chemical_formula_structural   Ba2SrMgWO6
_chemical_formula_sum   'Ba2 Sr1 Mg1 W1 O6'
_cell_volume   182.78610686
_cell_formula_units_Z   1
loop_
 _symmetry_equiv_pos_site_id
 _symmetry_equiv_pos_as_xyz
  1  'x, y, z'
loop_
 _atom_site_type_symbol
 _atom_site_label
 _atom_site_symmetry_multiplicity
 _atom_site_fract_x
 _atom_site_fract_y
 _atom_site_fract_z
 _atom_site_occupancy
  Ba  Ba0  1  0.20536928  0.83241142  0.75684902  1
  Ba  Ba1  1  0.66195928  0.24721745  0.42886500  1
  Sr  Sr0  1  0.03242504  0.55197976  0.38317015  1
  Mg  Mg0  1  0.80304965  0.48435841  0.90954229  1
  W  W0  1  0.49426233  0.00429416  0.00718118  1
  O  O0  1  0.21576308  0.26746952  0.81349084  1
  O  O1  1  0.37877333  0.69007180  0.11972407  1
  O  O2  1  0.81143079  0.69007180  0.11972407  1
  O  O3  1  0.70327655  0.26746952  0.81349084  1
  O  O4  1  0.74476333  0.81960300  0.69087133  1
  O  O5  1  0.28226032  0.12422015  0.31125821  1
loop_
_geom_bond_atom_site_label_1
_geom_bond_atom_site_label_2
_geom_bond_distance
_geom_bond_site_symmetry_2
Ba0 O2 2.722761 1_456
Ba0 O1 2.722764 1_556
Ba0 O5 2.774117 1_565
Ba0 O3 2.833111 1_465
Ba0 O0 2.833114 1_565
Ba0 O4 3.032982 1_455
Ba0 O4 3.032994 1_555
Ba0 O0 3.277089 1_555
Ba0 O3 3.277092 1_555
Ba1 O4 2.475752 1_545
Ba1 O3 2.713469 1_555
Ba1 O0 2.713472 1_555
Ba1 O2 2.970943 1_555
Ba1 O1 2.970946 1_555
Ba1 O5 3.178378 1_655
Ba1 O5 3.178389 1_555
Mg0 O4 1.977218 1_555
Mg0 O0 2.059657 1_655
Mg0 O3 2.059657 1_555
Mg0 O1 2.213811 1_556
Mg0 O2 2.213811 1_556
O0 W0 2.183183 1_556
O0 Sr0 3.094967 1_555
O1 W0 2.110237 1_565
O1 Sr0 2.325465 1_555
O2 W0 2.110237 1_565
O2 Sr0 2.325465 1_655
O3 W0 2.183183 1_556
O3 Sr0 3.094967 1_655
O4 W0 2.256492 1_566
O4 Sr0 2.495726 1_655
O5 W0 2.005915 1_555
O5 Sr0 2.370410 1_555
