# generated using pymatgen
data_Pr2Mg(NiO3)2
_symmetry_space_group_name_H-M   'P 1'
_cell_length_a   6.23417950
_cell_length_b   6.29410250
_cell_length_c   6.25256120
_cell_angle_alpha   54.94269853
_cell_angle_beta   55.19643747
_cell_angle_gamma   54.86925712
_symmetry_Int_Tables_number   1
_chemical_formula_structural   Pr2Mg(NiO3)2
_chemical_formula_sum   'Pr2 Mg1 Ni2 O6'
_cell_volume   153.30885122
_cell_formula_units_Z   1
loop_
 _symmetry_equiv_pos_site_id
 _symmetry_equiv_pos_as_xyz
  1  'x, y, z'
loop_
 _atom_site_type_symbol
 _atom_site_label
 _atom_site_symmetry_multiplicity
 _atom_site_fract_x
 _atom_site_fract_y
 _atom_site_fract_z
 _atom_site_occupancy
  Pr  Pr0  1  0.68924875  0.68588426  0.68855888  1
  Pr  Pr1  1  0.28478435  0.28539406  0.28373706  1
  Mg  Mg0  1  0.91302604  0.91608704  0.91437937  1
  Ni  Ni0  1  0.48883045  0.48903886  0.48822993  1
  Ni  Ni1  1  0.09231518  0.08484316  0.08817992  1
  O  O0  1  0.13419573  0.71455304  0.34827073  1
  O  O1  1  0.71941040  0.34637673  0.13327298  1
  O  O2  1  0.35276299  0.13121962  0.71672932  1
  O  O3  1  0.84122309  0.26888468  0.60827641  1
  O  O4  1  0.60606821  0.84259462  0.26537807  1
  O  O5  1  0.26563480  0.61012391  0.83998732  1
loop_
_geom_bond_atom_site_label_1
_geom_bond_atom_site_label_2
_geom_bond_distance
_geom_bond_site_symmetry_2
Mg0 O3 1.935463 1_565
Mg0 O5 1.935701 1_655
Mg0 O4 1.936701 1_556
Ni0 O3 2.119857 1_555
Ni0 O5 2.136805 1_555
Ni0 O4 2.138919 1_555
Ni0 O0 2.199637 1_555
Ni0 O2 2.225256 1_555
Ni0 O1 2.227179 1_555
Ni1 O1 1.890607 1_455
Ni1 O0 1.890754 1_545
Ni1 O2 1.891440 1_554
O0 Pr0 2.377343 1_455
O0 Pr1 2.498334 1_555
O1 Pr0 2.375265 1_554
O1 Pr1 2.499245 1_555
O2 Pr0 2.380438 1_545
O2 Pr1 2.503830 1_555
O3 Pr1 2.336256 1_655
O3 Pr0 2.479330 1_555
O4 Pr1 2.339441 1_565
O4 Pr0 2.494469 1_555
O5 Pr1 2.339354 1_556
O5 Pr0 2.484842 1_555
