# generated using pymatgen
data_Mn8Cl3O10
_symmetry_space_group_name_H-M   'P 1'
_cell_length_a   9.36650199
_cell_length_b   9.36650222
_cell_length_c   9.36650189
_cell_angle_alpha   90.01715714
_cell_angle_beta   119.99009177
_cell_angle_gamma   119.99009646
_symmetry_Int_Tables_number   1
_chemical_formula_structural   Mn8Cl3O10
_chemical_formula_sum   'Mn16 Cl6 O20'
_cell_volume   581.14205129
_cell_formula_units_Z   2
loop_
 _symmetry_equiv_pos_site_id
 _symmetry_equiv_pos_as_xyz
  1  'x, y, z'
loop_
 _atom_site_type_symbol
 _atom_site_label
 _atom_site_symmetry_multiplicity
 _atom_site_fract_x
 _atom_site_fract_y
 _atom_site_fract_z
 _atom_site_occupancy
  Mn  Mn0  1  0.00000000  0.50000000  0.50000000  1
  Mn  Mn1  1  0.00000000  0.00000000  0.00000000  1
  Mn  Mn2  1  0.50000000  0.75000000  0.25000000  1
  Mn  Mn3  1  0.50000000  0.25000000  0.75000000  1
  Mn  Mn4  1  0.64850200  0.00000000  0.64850200  1
  Mn  Mn5  1  0.64850200  0.64850200  0.00000000  1
  Mn  Mn6  1  0.35149800  0.35149800  0.00000000  1
  Mn  Mn7  1  0.35149800  0.00000000  0.35149800  1
  Mn  Mn8  1  0.35155900  0.00000700  0.00000700  1
  Mn  Mn9  1  0.64844100  0.64844700  0.64844700  1
  Mn  Mn10  1  0.64844100  0.99999300  0.99999300  1
  Mn  Mn11  1  0.00000000  0.64844700  0.00000700  1
  Mn  Mn12  1  0.00000000  0.00000700  0.64844700  1
  Mn  Mn13  1  0.00000000  0.99999300  0.35155300  1
  Mn  Mn14  1  0.00000000  0.35155300  0.99999300  1
  Mn  Mn15  1  0.35155900  0.35155300  0.35155300  1
  Cl  Cl0  1  0.00000000  0.30401200  0.30401200  1
  Cl  Cl1  1  0.00000000  0.69598800  0.69598800  1
  Cl  Cl2  1  0.00000000  0.69607900  0.30392100  1
  Cl  Cl3  1  0.00000000  0.30392100  0.69607900  1
  Cl  Cl4  1  0.60784100  0.30392100  0.30392100  1
  Cl  Cl5  1  0.39215900  0.69607900  0.69607900  1
  O  O0  1  0.19905300  0.09954500  0.90049100  1
  O  O1  1  0.80094700  0.70143800  0.90049100  1
  O  O2  1  0.80094700  0.09950900  0.90045500  1
  O  O3  1  0.19905300  0.90049100  0.09954500  1
  O  O4  1  0.80094700  0.90049100  0.70143800  1
  O  O5  1  0.80094700  0.90045500  0.09950900  1
  O  O6  1  0.19905300  0.29856200  0.09950900  1
  O  O7  1  0.19905300  0.09950900  0.29856200  1
  O  O8  1  0.50000000  0.40369900  0.90369900  1
  O  O9  1  0.50000000  0.90369900  0.40369900  1
  O  O10  1  0.50000000  0.59630100  0.09630100  1
  O  O11  1  0.50000000  0.09630100  0.59630100  1
  O  O12  1  0.80749800  0.40374900  0.90374900  1
  O  O13  1  0.50000000  0.90374900  0.09625100  1
  O  O14  1  0.50000000  0.59625100  0.40374900  1
  O  O15  1  0.19250200  0.09625100  0.59625100  1
  O  O16  1  0.50000000  0.09625100  0.90374900  1
  O  O17  1  0.50000000  0.40374900  0.59625100  1
  O  O18  1  0.80749800  0.90374900  0.40374900  1
  O  O19  1  0.19250200  0.59625100  0.09625100  1
loop_
_geom_bond_atom_site_label_1
_geom_bond_atom_site_label_2
_geom_bond_distance
_geom_bond_site_symmetry_2
Mn1 O0 2.283432 1_554
Mn1 O5 2.283432 1_445
Mn1 O6 2.283432 1_555
Mn1 O1 2.283432 1_444
Mn1 O4 2.283432 1_444
Mn1 O7 2.283432 1_555
Mn1 O3 2.283432 1_545
Mn1 O2 2.283432 1_454
Mn2 O9 2.035628 1_555
Mn2 O10 2.035628 1_555
Mn2 O13 2.036900 1_555
Mn2 O14 2.036900 1_555
Mn2 O19 2.036900 1_555
Mn2 O18 2.036900 1_555
Mn3 O8 2.035628 1_555
Mn3 O11 2.035628 1_555
Mn3 O16 2.036900 1_555
Mn3 O17 2.036900 1_555
Mn3 O15 2.036900 1_555
Mn3 O12 2.036900 1_555
Mn4 O9 1.887336 1_545
Mn4 O11 1.887336 1_555
Mn4 O2 1.943278 1_555
Mn4 O4 1.943286 1_545
Mn5 O10 1.887336 1_555
Mn5 O8 1.887336 1_554
Mn5 O5 1.943278 1_555
Mn5 O1 1.943286 1_554
Mn6 O8 1.887336 1_554
Mn6 O10 1.887336 1_555
Mn6 O0 1.943278 1_554
Mn6 O6 1.943286 1_555
Mn7 O11 1.887336 1_555
Mn7 O9 1.887336 1_545
Mn7 O3 1.943278 1_545
Mn7 O7 1.943286 1_555
Mn8 O16 1.886621 1_554
Mn8 O13 1.886621 1_545
Mn8 O3 1.944054 1_545
Mn8 O0 1.944054 1_554
Mn9 O17 1.886614 1_555
Mn9 O14 1.886614 1_555
Mn9 O4 1.944053 1_555
Mn9 O1 1.944053 1_555
Mn10 O13 1.886621 1_556
Mn10 O16 1.886621 1_565
Mn10 O2 1.944054 1_565
Mn10 O5 1.944054 1_556
Mn11 O12 1.886614 1_454
Mn11 O19 1.886614 1_555
Mn11 O3 1.944053 1_555
Mn11 O1 1.944053 1_454
Mn12 O15 1.886614 1_555
Mn12 O18 1.886614 1_445
Mn12 O4 1.944053 1_445
Mn12 O0 1.944053 1_555
Mn13 O18 1.886614 1_455
Mn13 O15 1.886614 1_565
Mn13 O7 1.944053 1_565
Mn13 O5 1.944053 1_455
Mn14 O19 1.886614 1_556
Mn14 O12 1.886614 1_455
Mn14 O2 1.944053 1_455
Mn14 O6 1.944053 1_556
Mn15 O14 1.886614 1_555
Mn15 O17 1.886614 1_555
Mn15 O7 1.944053 1_555
Mn15 O6 1.944053 1_555
Cl0 Mn0 2.595714 1_555
Cl0 Mn15 2.882323 1_555
Cl0 Mn10 2.882331 1_444
Cl0 Mn14 2.882332 1_554
Cl0 Mn13 2.882332 1_545
Cl1 Mn0 2.595714 1_555
Cl1 Mn9 2.882323 1_455
Cl1 Mn8 2.882331 1_566
Cl1 Mn11 2.882332 1_556
Cl1 Mn12 2.882332 1_565
Cl2 Mn0 2.597697 1_555
Cl2 Mn11 2.881229 1_555
Cl2 Mn13 2.881229 1_555
Cl2 Mn7 2.881777 1_565
Cl2 Mn5 2.881777 1_455
Cl3 Mn0 2.597697 1_555
Cl3 Mn14 2.881229 1_555
Cl3 Mn12 2.881229 1_555
Cl3 Mn4 2.881777 1_455
Cl3 Mn6 2.881777 1_556
Cl4 Mn0 2.597704 1_655
Cl4 Mn15 2.881229 1_555
Cl4 Mn8 2.881229 1_555
Cl4 Mn7 2.881773 1_555
Cl4 Mn6 2.881773 1_555
Cl5 Mn0 2.597704 1_555
Cl5 Mn9 2.881229 1_555
Cl5 Mn10 2.881229 1_555
Cl5 Mn4 2.881773 1_565
Cl5 Mn5 2.881773 1_556
