# generated using pymatgen
data_Na3Ta5ZnSi6(SO12)3
_symmetry_space_group_name_H-M   'P 1'
_cell_length_a   8.84363849
_cell_length_b   8.84363819
_cell_length_c   22.93312959
_cell_angle_alpha   89.51316187
_cell_angle_beta   90.48683812
_cell_angle_gamma   119.74463721
_symmetry_Int_Tables_number   1
_chemical_formula_structural   Na3Ta5ZnSi6(SO12)3
_chemical_formula_sum   'Na6 Ta10 Zn2 Si12 S6 O72'
_cell_volume   1557.20838537
_cell_formula_units_Z   2
loop_
 _symmetry_equiv_pos_site_id
 _symmetry_equiv_pos_as_xyz
  1  'x, y, z'
loop_
 _atom_site_type_symbol
 _atom_site_label
 _atom_site_symmetry_multiplicity
 _atom_site_fract_x
 _atom_site_fract_y
 _atom_site_fract_z
 _atom_site_occupancy
  Na  Na0  1  0.00349754  0.99523709  0.49967118  1
  Na  Na1  1  0.00476291  0.99650246  0.99967118  1
  Na  Na2  1  0.66712245  0.32299318  0.82873124  1
  Na  Na3  1  0.67700682  0.33287755  0.32873124  1
  Na  Na4  1  0.32213474  0.65287289  0.16442670  1
  Na  Na5  1  0.34712711  0.67786526  0.66442670  1
  Ta  Ta0  1  0.99520434  0.00774581  0.35764186  1
  Ta  Ta1  1  0.99225419  0.00479566  0.85764186  1
  Ta  Ta2  1  0.98687291  0.98789369  0.64255135  1
  Ta  Ta3  1  0.01210631  0.01312709  0.14255135  1
  Ta  Ta4  1  0.66421390  0.34465299  0.97713881  1
  Ta  Ta5  1  0.65534701  0.33578610  0.47713881  1
  Ta  Ta6  1  0.32240207  0.65631388  0.01970752  1
  Ta  Ta7  1  0.34368612  0.67759793  0.51970752  1
  Ta  Ta8  1  0.32344800  0.65730513  0.31417985  1
  Ta  Ta9  1  0.34269487  0.67655200  0.81417985  1
  Zn  Zn0  1  0.65038730  0.31455130  0.68310144  1
  Zn  Zn1  1  0.68544870  0.34961270  0.18310144  1
  Si  Si0  1  0.99062991  0.29128003  0.24872664  1
  Si  Si1  1  0.70871997  0.00937009  0.74872664  1
  Si  Si2  1  0.37899790  0.04511893  0.58558870  1
  Si  Si3  1  0.65913506  0.60794889  0.58678457  1
  Si  Si4  1  0.95488107  0.62100210  0.08558870  1
  Si  Si5  1  0.39205111  0.34086494  0.08678457  1
  Si  Si6  1  0.61851405  0.66926551  0.91798587  1
  Si  Si7  1  0.04350184  0.38340320  0.91466244  1
  Si  Si8  1  0.33630204  0.95716258  0.91719599  1
  Si  Si9  1  0.61659680  0.95649816  0.41466244  1
  Si  Si10  1  0.33073449  0.38148595  0.41798587  1
  Si  Si11  1  0.04283742  0.66369796  0.41719599  1
  S  S0  1  0.28635708  -0.00000180  0.25070015  1
  S  S1  1  0.71271080  0.71597360  0.25084226  1
  S  S2  1  0.28402640  0.28728920  0.75084226  1
  S  S3  1  0.00000180  0.71364292  0.75070015  1
  S  S4  1  0.95828286  0.33621203  0.58374393  1
  S  S5  1  0.66378797  0.04171714  0.08374393  1
  O  O0  1  0.19343336  0.01226028  0.30247979  1
  O  O1  1  0.82120308  0.80515285  0.30360438  1
  O  O2  1  0.98545217  0.16911245  0.30526828  1
  O  O3  1  0.19484715  0.17879692  0.80360438  1
  O  O4  1  0.98773972  0.80656664  0.80247979  1
  O  O5  1  0.83088755  0.01454783  0.80526828  1
  O  O6  1  0.81218043  0.97750123  0.69361608  1
  O  O7  1  0.17725674  0.20287869  0.69808198  1
  O  O8  1  0.02941507  0.82552013  0.69675772  1
  O  O9  1  0.79712131  0.82274326  0.19808198  1
  O  O10  1  0.02249877  0.18781957  0.19361608  1
  O  O11  1  0.17447987  0.97058493  0.19675772  1
  O  O12  1  0.88896958  0.36568048  0.63699878  1
  O  O13  1  0.49061058  0.10618337  0.64307520  1
  O  O14  1  0.63783322  0.50746890  0.64574747  1
  O  O15  1  0.89381663  0.50938942  0.14307520  1
  O  O16  1  0.63431952  0.11103042  0.13699878  1
  O  O17  1  0.49253110  0.36216678  0.14574747  1
  O  O18  1  0.47096399  0.30255611  0.02685824  1
  O  O19  1  0.83405318  0.52827228  0.02647194  1
  O  O20  1  0.69763007  0.15017852  0.03104875  1
  O  O21  1  0.47172772  0.16594682  0.52647194  1
  O  O22  1  0.69744389  0.52903601  0.52685824  1
  O  O23  1  0.84982148  0.30236993  0.53104875  1
  O  O24  1  0.53310034  0.70241767  0.97438868  1
  O  O25  1  0.16607720  0.46714368  0.97239931  1
  O  O26  1  0.30264660  0.83299753  0.97328228  1
  O  O27  1  0.53285632  0.83392280  0.47239931  1
  O  O28  1  0.29758233  0.46689966  0.47438868  1
  O  O29  1  0.16700247  0.69735340  0.47328228  1
  O  O30  1  0.13733752  0.63568169  0.35916783  1
  O  O31  1  0.49779479  0.86269334  0.35717896  1
  O  O32  1  0.36310410  0.50069876  0.35916957  1
  O  O33  1  0.13730666  0.50220521  0.85717896  1
  O  O34  1  0.36431831  0.86266248  0.85916783  1
  O  O35  1  0.49930124  0.63689590  0.85916957  1
  O  O36  1  0.02413193  0.83524873  0.40422187  1
  O  O37  1  0.80877259  0.97093910  0.40752289  1
  O  O38  1  0.16482941  0.18599481  0.40762596  1
  O  O39  1  0.02906090  0.19122741  0.90752289  1
  O  O40  1  0.16475127  0.97586807  0.90422187  1
  O  O41  1  0.81400519  0.83517059  0.90762596  1
  O  O42  1  0.97892799  0.17455652  0.59038564  1
  O  O43  1  0.18275804  0.02781927  0.59313273  1
  O  O44  1  0.83434010  0.81285770  0.59113049  1
  O  O45  1  0.97218073  0.81724196  0.09313273  1
  O  O46  1  0.82544348  0.02107201  0.09038564  1
  O  O47  1  0.18714230  0.16565990  0.09113049  1
  O  O48  1  0.69732595  0.18292125  0.74809402  1
  O  O49  1  0.45735008  0.30903604  0.74950078  1
  O  O50  1  0.84739225  0.54489292  0.74617949  1
  O  O51  1  0.69096396  0.54264992  0.24950078  1
  O  O52  1  0.81707875  0.30267405  0.24809402  1
  O  O53  1  0.45510708  0.15260775  0.24617949  1
  O  O54  1  0.63929449  0.49649164  0.92262679  1
  O  O55  1  0.85074000  0.35365327  0.92550407  1
  O  O56  1  0.50861959  0.14552360  0.92557431  1
  O  O57  1  0.64634673  0.14926000  0.42550407  1
  O  O58  1  0.50350836  0.36070551  0.42262679  1
  O  O59  1  0.85447640  0.49138041  0.42557431  1
  O  O60  1  0.35768994  0.50521180  0.07458128  1
  O  O61  1  0.15530879  0.65921222  0.07276733  1
  O  O62  1  0.51378992  0.86356247  0.07509852  1
  O  O63  1  0.34078778  0.84469121  0.57276733  1
  O  O64  1  0.49478820  0.64231006  0.57458128  1
  O  O65  1  0.13643753  0.48621008  0.57509852  1
  O  O66  1  0.29853095  0.83651897  0.25493766  1
  O  O67  1  0.53899588  0.70814615  0.25600795  1
  O  O68  1  0.17651380  0.48117516  0.25613247  1
  O  O69  1  0.29185385  0.46100412  0.75600795  1
  O  O70  1  0.16348103  0.70146905  0.75493766  1
  O  O71  1  0.51882484  0.82348620  0.75613247  1
loop_
_geom_bond_atom_site_label_1
_geom_bond_atom_site_label_2
_geom_bond_distance
_geom_bond_site_symmetry_2
Na0 O43 2.586455 1_565
Na0 O44 2.615394 1_455
Na0 O38 2.634342 1_565
Na0 O37 2.656357 1_455
Na0 O36 2.672509 1_555
Na0 O42 2.701050 1_465
Na1 O45 2.586455 1_456
Na1 O47 2.615394 1_566
Na1 O41 2.634342 1_455
Na1 O39 2.656357 1_565
Na1 O40 2.672509 1_555
Na1 O46 2.701050 1_466
Na2 O48 2.324061 1_555
Na2 O49 2.545119 1_555
Na2 O50 2.619258 1_555
Na2 O55 2.673536 1_555
Na2 O56 2.677923 1_555
Na2 O54 2.737049 1_555
Na3 O52 2.324061 1_555
Na3 O51 2.545119 1_555
Na3 O53 2.619258 1_555
Na3 O57 2.673536 1_555
Na3 O59 2.677923 1_555
Na3 O58 2.737049 1_555
Na4 O68 2.537430 1_555
Na4 O60 2.552198 1_555
Na4 O61 2.574048 1_555
Na4 O67 2.710508 1_555
Na4 O66 2.718612 1_555
Na4 O62 2.720596 1_555
Na5 O71 2.537430 1_555
Na5 O64 2.552198 1_555
Na5 O63 2.574048 1_555
Na5 O69 2.710508 1_555
Na5 O70 2.718612 1_555
Na5 O65 2.720596 1_555
O0 S0 1.484712 1_555
O0 Ta0 2.154655 1_455
O1 S1 1.500770 1_555
O1 Ta0 2.093638 1_565
O2 Si0 1.666990 1_555
O2 Ta0 1.891512 1_555
O3 S2 1.500770 1_555
O3 Ta1 2.093638 1_455
O4 S3 1.484712 1_655
O4 Ta1 2.154655 1_565
O5 Si1 1.666990 1_555
O5 Ta1 1.891512 1_555
O6 Si1 1.671979 1_565
O6 Ta2 1.911715 1_555
O7 S2 1.486387 1_555
O7 Ta2 2.213520 1_445
O8 S3 1.518622 1_555
O8 Ta2 2.060755 1_455
O9 S1 1.486387 1_555
O9 Ta3 2.213520 1_665
O10 Si0 1.671979 1_455
O10 Ta3 1.911715 1_555
O11 S0 1.518622 1_565
O11 Ta3 2.060755 1_565
O12 S4 1.453232 1_555
O12 Zn0 2.203914 1_555
O13 Si2 1.570038 1_555
O13 Zn0 1.912557 1_555
O14 Si3 1.572060 1_555
O14 Zn0 1.954078 1_555
O15 Si4 1.570038 1_555
O15 Zn1 1.912557 1_555
O16 S5 1.453232 1_555
O16 Zn1 2.203913 1_555
O17 Si5 1.572060 1_555
O17 Zn1 1.954078 1_555
O18 Si5 1.658108 1_555
O18 Ta4 1.937540 1_554
O19 Si4 1.666462 1_555
O19 Ta4 1.937799 1_554
O20 S5 1.473637 1_555
O20 Ta4 2.244045 1_554
O21 Si2 1.666462 1_555
O21 Ta5 1.937799 1_555
O22 Si3 1.658108 1_555
O22 Ta5 1.937540 1_555
O23 S4 1.473637 1_555
O23 Ta5 2.244045 1_555
O24 Si6 1.603890 1_555
O24 Ta6 1.997567 1_556
O25 Si7 1.634755 1_555
O25 Ta6 1.896706 1_556
O26 Si8 1.614605 1_555
O26 Ta6 1.960866 1_556
O27 Si9 1.634755 1_555
O27 Ta7 1.896706 1_555
O28 Si10 1.603890 1_555
O28 Ta7 1.997567 1_555
O29 Si11 1.614605 1_555
O29 Ta7 1.960866 1_555
O30 Si11 1.661545 1_555
O30 Ta8 1.877009 1_555
O31 Si9 1.630979 1_555
O31 Ta8 1.968403 1_555
O32 Si10 1.641872 1_555
O32 Ta8 1.886049 1_555
O33 Si7 1.630979 1_555
O33 Ta9 1.968403 1_555
O34 Si8 1.661545 1_555
O34 Ta9 1.877009 1_555
O35 Si6 1.641872 1_555
O35 Ta9 1.886049 1_555
O36 Si11 1.630371 1_555
O36 Ta0 1.971957 1_465
O37 Si9 1.649404 1_555
O37 Ta0 1.904219 1_565
O38 Si10 1.637727 1_555
O38 Ta0 1.924651 1_455
O39 Si7 1.649404 1_555
O39 Ta1 1.904219 1_455
O40 Si8 1.630371 1_555
O40 Ta1 1.971958 1_465
O41 Si6 1.637727 1_555
O41 Ta1 1.924651 1_565
O42 S4 1.534661 1_555
O42 Ta2 2.059441 1_545
O43 Si2 1.675232 1_555
O43 Ta2 1.956965 1_445
O44 Si3 1.705552 1_555
O44 Ta2 1.881077 1_555
O45 Si4 1.675232 1_555
O45 Ta3 1.956965 1_665
O46 S5 1.534661 1_555
O46 Ta3 2.059441 1_655
O47 Si5 1.705552 1_555
O47 Ta3 1.881077 1_555
O48 Si1 1.587169 1_555
O48 Zn0 2.046569 1_555
O49 S2 1.447630 1_555
O49 Zn0 2.279427 1_555
O50 S3 1.435644 1_655
O50 Zn0 2.400672 1_555
O51 S1 1.447630 1_555
O51 Zn1 2.279427 1_555
O52 Si0 1.587169 1_555
O52 Zn1 2.046569 1_555
O53 S0 1.435644 1_555
O53 Zn1 2.400672 1_555
O54 Si6 1.629498 1_555
O54 Ta4 1.917016 1_555
O55 Si7 1.611877 1_655
O55 Ta4 2.007717 1_555
O56 Si8 1.617302 1_545
O56 Ta4 1.999074 1_555
O57 Si9 1.611877 1_545
O57 Ta5 2.007717 1_555
O58 Si10 1.629498 1_555
O58 Ta5 1.917016 1_555
O59 Si11 1.617302 1_655
O59 Ta5 1.999074 1_555
O60 Si5 1.647118 1_555
O60 Ta6 1.960931 1_555
O61 Si4 1.659902 1_455
O61 Ta6 1.932261 1_555
O62 S5 1.486035 1_565
O62 Ta6 2.182316 1_555
O63 Si2 1.659902 1_565
O63 Ta7 1.932261 1_555
O64 Si3 1.647118 1_555
O64 Ta7 1.960931 1_555
O65 S4 1.486035 1_455
O65 Ta7 2.182316 1_555
O66 S0 1.504365 1_565
O66 Ta8 2.170520 1_555
O67 S1 1.508770 1_555
O67 Ta8 2.190470 1_555
O68 Si0 1.676972 1_455
O68 Ta8 1.970863 1_555
O69 S2 1.508770 1_555
O69 Ta9 2.190470 1_555
O70 S3 1.504365 1_555
O70 Ta9 2.170520 1_555
O71 Si1 1.676972 1_565
O71 Ta9 1.970863 1_555
