# generated using pymatgen
data_Na3AlIn(PO4)3
_symmetry_space_group_name_H-M   'P 1'
_cell_length_a   15.37750226
_cell_length_b   8.85646871
_cell_length_c   8.86058934
_cell_angle_alpha   90.18948212
_cell_angle_beta   124.86701449
_cell_angle_gamma   89.86516721
_symmetry_Int_Tables_number   1
_chemical_formula_structural   Na3AlIn(PO4)3
_chemical_formula_sum   'Na12 Al4 In4 P12 O48'
_cell_volume   990.09109101
_cell_formula_units_Z   4
loop_
 _symmetry_equiv_pos_site_id
 _symmetry_equiv_pos_as_xyz
  1  'x, y, z'
loop_
 _atom_site_type_symbol
 _atom_site_label
 _atom_site_symmetry_multiplicity
 _atom_site_fract_x
 _atom_site_fract_y
 _atom_site_fract_z
 _atom_site_occupancy
  Na  Na0  1  0.24129839  0.76969911  0.99054074  1
  Na  Na1  1  0.74855175  0.72405535  0.50249890  1
  Na  Na2  1  0.75021236  0.27190969  0.00387362  1
  Na  Na3  1  0.24144627  0.22319056  0.49228207  1
  Na  Na4  1  0.50209141  0.09962425  0.75241095  1
  Na  Na5  1  0.50319323  0.90086169  0.24559988  1
  Na  Na6  1  0.00421153  0.61290614  0.74987604  1
  Na  Na7  1  0.00056597  0.38472257  0.24402521  1
  Na  Na8  1  0.81694178  0.93323220  0.22348560  1
  Na  Na9  1  0.81450782  0.07221467  0.71764945  1
  Na  Na10  1  0.30260865  0.43254602  0.19968931  1
  Na  Na11  1  0.30987897  0.56289419  0.72247304  1
  Al  Al0  1  0.89926241  0.74988921  0.94398432  1
  Al  Al1  1  0.89879709  0.25115197  0.44249954  1
  Al  Al2  1  0.10008078  0.24564559  0.04937936  1
  Al  Al3  1  0.39557585  0.25062178  0.94092792  1
  In  In0  1  0.10187827  0.76071502  0.54928933  1
  In  In1  1  0.60117177  0.25785006  0.55321897  1
  In  In2  1  0.39621262  0.74906894  0.43849761  1
  In  In3  1  0.60402097  0.74177779  0.05280018  1
  P  P0  1  0.99789543  0.96457153  0.75075246  1
  P  P1  1  -0.00008905  0.05034208  0.24098117  1
  P  P2  1  0.49330269  0.43839494  0.74891925  1
  P  P3  1  0.49607281  0.54562489  0.23896324  1
  P  P4  1  0.35415371  0.90755758  0.76357799  1
  P  P5  1  0.65894678  0.89083269  0.74788017  1
  P  P6  1  0.65318641  0.11282184  0.24575495  1
  P  P7  1  0.34799424  0.10824898  0.24300260  1
  P  P8  1  0.86322206  0.40134926  0.75539478  1
  P  P9  1  0.14598453  0.38318320  0.74742769  1
  P  P10  1  0.14297674  0.59917095  0.23456489  1
  P  P11  1  0.85855362  0.59681709  0.25597867  1
  O  O0  1  0.15581695  0.55988843  0.74643140  1
  O  O1  1  0.85824170  0.57694902  0.76497475  1
  O  O2  1  0.85644537  0.42175012  0.26520437  1
  O  O3  1  0.14927009  0.42399618  0.21825070  1
  O  O4  1  0.67060303  0.06565050  0.74572339  1
  O  O5  1  0.34908112  0.08047555  0.77648032  1
  O  O6  1  0.34403034  0.93348410  0.23577679  1
  O  O7  1  0.66545009  0.93754782  0.24148100  1
  O  O8  1  0.42261326  0.53016907  0.56949341  1
  O  O9  1  0.55876483  0.53901413  0.91721581  1
  O  O10  1  0.55693894  0.46245239  0.42331209  1
  O  O11  1  0.43747705  0.43960560  0.06985276  1
  O  O12  1  0.92815025  0.05847732  0.57016185  1
  O  O13  1  0.05833596  0.07061978  0.91649309  1
  O  O14  1  0.07720892  0.96665670  0.42087431  1
  O  O15  1  0.92975448  0.93926377  0.07907299  1
  O  O16  1  0.26217563  0.82383396  0.75083888  1
  O  O17  1  0.75585872  0.81575833  0.76749827  1
  O  O18  1  0.75066319  0.18465939  0.26252929  1
  O  O19  1  0.24774499  0.17831822  0.21808107  1
  O  O20  1  0.76993182  0.32727811  0.74896174  1
  O  O21  1  0.24518483  0.31932873  0.76438798  1
  O  O22  1  0.23434249  0.66893238  0.23354406  1
  O  O23  1  0.76422782  0.67078719  0.24472063  1
  O  O24  1  0.35698500  0.87611622  0.59459595  1
  O  O25  1  0.65747300  0.86487591  0.91838624  1
  O  O26  1  0.65800838  0.13616447  0.42377542  1
  O  O27  1  0.36439927  0.16322523  0.09573543  1
  O  O28  1  0.86366502  0.35984849  0.58525019  1
  O  O29  1  0.14392243  0.34908396  0.91646817  1
  O  O30  1  0.15690340  0.62123666  0.42135168  1
  O  O31  1  0.86585571  0.64221759  0.09492003  1
  O  O32  1  0.45499773  0.84695407  0.94030792  1
  O  O33  1  0.55636401  0.83692003  0.56756284  1
  O  O34  1  0.54686097  0.16928394  0.07527913  1
  O  O35  1  0.44416495  0.16030871  0.43546903  1
  O  O36  1  0.96572393  0.34070144  0.93017295  1
  O  O37  1  0.04297265  0.32501804  0.56836322  1
  O  O38  1  0.03769076  0.66795574  0.07413235  1
  O  O39  1  0.95562571  0.65726176  0.44088788  1
  O  O40  1  0.07611999  0.85572414  0.74871286  1
  O  O41  1  0.92107241  0.86121956  0.76826544  1
  O  O42  1  0.92049822  0.14774335  0.25932581  1
  O  O43  1  0.06863245  0.16135872  0.21528261  1
  O  O44  1  0.57328765  0.32815841  0.75270552  1
  O  O45  1  0.41289781  0.34078364  0.76094122  1
  O  O46  1  0.40689485  0.64282596  0.22607465  1
  O  O47  1  0.57596398  0.65662531  0.24647261  1
loop_
_geom_bond_atom_site_label_1
_geom_bond_atom_site_label_2
_geom_bond_distance
_geom_bond_site_symmetry_2
Na0 O6 2.320896 1_556
Na0 O40 2.324312 1_555
Na0 O16 2.372960 1_555
Na0 O22 2.391743 1_556
Na0 O46 2.455268 1_556
Na0 O0 2.567734 1_555
Na1 O1 2.340059 1_555
Na1 O47 2.379347 1_555
Na1 O17 2.423168 1_555
Na1 O23 2.473762 1_555
Na1 O41 2.629174 1_555
Na1 O7 2.682429 1_555
Na2 O2 2.335903 1_555
Na2 O44 2.383524 1_554
Na2 O18 2.417275 1_555
Na2 O20 2.495018 1_554
Na2 O42 2.532924 1_555
Na2 O4 2.617046 1_554
Na3 O5 2.433937 1_555
Na3 O43 2.434437 1_555
Na3 O19 2.516482 1_555
Na3 O21 2.523777 1_555
Na3 O45 2.554049 1_555
Na3 O3 2.673799 1_555
Na4 O44 2.302686 1_555
Na4 O35 2.473143 1_555
Na4 O5 2.487230 1_555
Na4 O45 2.559753 1_555
Na4 O34 2.603317 1_556
Na4 O4 2.642080 1_555
Na4 O24 2.699585 1_545
Na4 O25 2.858942 1_545
Na5 O32 2.407393 1_554
Na5 O6 2.415515 1_555
Na5 O47 2.431049 1_555
Na5 O7 2.537805 1_555
Na5 O33 2.543461 1_555
Na5 O46 2.676884 1_555
Na5 O26 2.864827 1_565
Na5 O27 2.911084 1_565
Na6 O1 2.346223 1_455
Na6 O0 2.394271 1_555
Na6 O40 2.423201 1_555
Na6 O39 2.423876 1_455
Na6 O41 2.592298 1_455
Na6 O38 2.656727 1_556
Na6 O28 2.866778 1_455
Na6 O29 2.937216 1_555
Na7 O43 2.316347 1_555
Na7 O2 2.350755 1_455
Na7 O3 2.450201 1_555
Na7 O42 2.478747 1_455
Na7 O36 2.542207 1_454
Na7 O37 2.613324 1_555
Na7 O31 2.847079 1_455
Na7 O30 2.884291 1_555
Na8 O42 2.382865 1_565
Na8 O7 2.424456 1_555
Na8 O25 2.470771 1_554
Na8 O23 2.506226 1_555
Na8 O18 2.550344 1_565
Na8 O15 2.681140 1_555
Na8 O12 2.751526 1_565
Na9 O41 2.351435 1_545
Na9 O4 2.364791 1_555
Na9 O26 2.393999 1_555
Na9 O20 2.419867 1_555
Na9 O17 2.576624 1_545
Na9 O12 2.717632 1_555
Na9 O15 2.882517 1_546
Na10 O46 2.382688 1_555
Na10 O29 2.406925 1_554
Na10 O22 2.433203 1_555
Na10 O19 2.444671 1_555
Na10 O3 2.457049 1_555
Na10 O8 2.822209 1_555
Na10 O11 2.890958 1_555
Na10 O27 2.901045 1_555
Na11 O30 2.397245 1_555
Na11 O45 2.422338 1_555
Na11 O16 2.478104 1_555
Na11 O21 2.493726 1_555
Na11 O0 2.496739 1_555
Na11 O8 2.758322 1_555
Na11 O11 2.761018 1_556
Al0 O38 1.891903 1_656
Al0 O17 1.925048 1_555
Al0 O31 1.938574 1_556
Al0 O15 1.953017 1_556
Al0 O1 2.025874 1_555
Al0 O41 2.029181 1_555
Al1 O28 1.894527 1_555
Al1 O37 1.939613 1_655
Al1 O12 1.954610 1_555
Al1 O18 1.981300 1_555
Al1 O2 2.004026 1_555
Al1 O42 2.047516 1_555
Al2 O13 1.824755 1_554
Al2 O36 1.896215 1_454
Al2 O29 1.896963 1_554
Al2 O43 1.942615 1_555
Al2 O19 1.965910 1_555
Al2 O3 2.000500 1_555
Al3 O27 1.863095 1_556
Al3 O11 1.916341 1_556
Al3 O5 1.924705 1_555
Al3 O45 1.935729 1_555
Al3 O21 2.007239 1_555
Al3 O34 2.044389 1_556
In0 O14 2.069347 1_555
In0 O39 2.086647 1_455
In0 O16 2.131814 1_555
In0 O30 2.146967 1_555
In0 O40 2.185425 1_555
In0 O0 2.293422 1_555
In1 O10 2.045470 1_555
In1 O26 2.091493 1_555
In1 O44 2.133990 1_555
In1 O35 2.188100 1_555
In1 O4 2.208015 1_555
In1 O20 2.230497 1_555
In2 O24 2.117405 1_555
In2 O8 2.177828 1_555
In2 O33 2.182030 1_555
In2 O46 2.189990 1_555
In2 O22 2.197496 1_555
In2 O6 2.214308 1_555
In3 O9 2.046478 1_554
In3 O25 2.101121 1_554
In3 O32 2.120649 1_554
In3 O47 2.134556 1_555
In3 O23 2.136862 1_555
In3 O7 2.208255 1_555
O0 P9 1.573164 1_555
O1 P8 1.561313 1_555
O2 P11 1.554288 1_555
O3 P10 1.565567 1_555
O4 P5 1.560464 1_545
O5 P4 1.540437 1_545
O6 P7 1.548814 1_565
O7 P6 1.566225 1_565
O8 P2 1.548635 1_555
O9 P2 1.519961 1_555
O10 P3 1.530840 1_555
O11 P3 1.545890 1_555
O12 P0 1.563597 1_545
O13 P0 1.528735 1_445
O14 P1 1.529811 1_565
O15 P1 1.554302 1_665
O16 P4 1.544316 1_555
O17 P5 1.546966 1_555
O18 P6 1.556555 1_555
O19 P7 1.554843 1_555
O20 P8 1.549929 1_555
O21 P9 1.550422 1_555
O22 P10 1.540916 1_555
O23 P11 1.540646 1_555
O24 P4 1.546933 1_555
O25 P5 1.541849 1_555
O26 P6 1.549358 1_555
O27 P7 1.544198 1_555
O28 P8 1.554350 1_555
O29 P9 1.546916 1_555
O30 P10 1.554357 1_555
O31 P11 1.548563 1_555
O32 P4 1.539544 1_555
O33 P5 1.544654 1_555
O34 P6 1.543502 1_555
O35 P7 1.556399 1_555
O36 P8 1.543331 1_555
O37 P9 1.554618 1_555
O38 P10 1.543631 1_555
O39 P11 1.549472 1_555
O40 P0 1.547862 1_455
O41 P0 1.572614 1_555
O42 P1 1.575713 1_655
O43 P1 1.554609 1_555
O44 P2 1.553869 1_555
O45 P2 1.563224 1_555
O46 P3 1.565476 1_555
O47 P3 1.546585 1_555
