# generated using pymatgen
data_MgCo6(OF)6
_symmetry_space_group_name_H-M   'P 1'
_cell_length_a   4.87591765
_cell_length_b   4.88431576
_cell_length_c   9.09780753
_cell_angle_alpha   91.22530460
_cell_angle_beta   91.66834437
_cell_angle_gamma   86.95838494
_symmetry_Int_Tables_number   1
_chemical_formula_structural   MgCo6(OF)6
_chemical_formula_sum   'Mg1 Co6 O6 F6'
_cell_volume   216.22936067
_cell_formula_units_Z   1
loop_
 _symmetry_equiv_pos_site_id
 _symmetry_equiv_pos_as_xyz
  1  'x, y, z'
loop_
 _atom_site_type_symbol
 _atom_site_label
 _atom_site_symmetry_multiplicity
 _atom_site_fract_x
 _atom_site_fract_y
 _atom_site_fract_z
 _atom_site_occupancy
  Mg  Mg0  1  0.55946237  0.99851751  0.47586319  1
  Co  Co0  1  0.94670050  0.91782470  0.99715677  1
  Co  Co1  1  0.05294242  0.02075772  0.30825879  1
  Co  Co2  1  0.06518908  0.02026875  0.68654000  1
  Co  Co3  1  0.54078042  0.45297070  0.16522842  1
  Co  Co4  1  0.47282932  0.49812835  0.83801177  1
  Co  Co5  1  0.17127380  0.47811393  0.49463564  1
  O  O0  1  0.19732274  0.78952268  0.83580234  1
  O  O1  1  0.19162017  0.85875005  0.49036216  1
  O  O2  1  0.33731882  0.26427737  0.33289365  1
  O  O3  1  0.30801272  0.30177924  0.67578047  1
  O  O4  1  0.68401291  0.67737485  0.98744106  1
  O  O5  1  0.85880201  0.17183784  0.15707468  1
  F  F0  1  0.20900624  0.74503588  0.15486533  1
  F  F1  1  0.33767581  0.26683890  0.99522945  1
  F  F2  1  0.73128136  0.80589207  0.64566043  1
  F  F3  1  0.73851923  0.75208129  0.32690590  1
  F  F4  1  0.81185851  0.20693858  0.84100179  1
  F  F5  1  0.82705957  0.27308660  0.50557315  1
loop_
_geom_bond_atom_site_label_1
_geom_bond_atom_site_label_2
_geom_bond_distance
_geom_bond_site_symmetry_2
Mg0 O1 1.961603 1_555
Mg0 O2 2.095466 1_565
Co0 O4 1.782209 1_555
Co0 O5 1.934527 1_566
Co0 O0 2.006193 1_655
Co0 F0 2.058421 1_656
Co0 F4 2.092260 1_565
Co1 O5 1.796084 1_455
Co1 O2 1.879665 1_555
Co1 O1 1.939644 1_545
Co1 F0 2.052543 1_545
Co1 F3 2.083143 1_445
Co1 F5 2.414732 1_455
Co2 O0 1.861937 1_545
Co2 O3 1.867422 1_555
Co2 F2 2.003606 1_445
Co2 O1 2.034727 1_545
Co2 F4 2.063634 1_455
Co2 F5 2.325319 1_455
Co3 O5 2.017897 1_555
Co3 F1 2.036050 1_554
Co3 O2 2.098970 1_555
Co3 F0 2.100675 1_555
Co3 O4 2.127946 1_554
Co3 F3 2.280911 1_555
Co4 O0 1.904577 1_555
Co4 O4 1.907418 1_555
Co4 O3 1.922545 1_555
Co4 F1 1.989808 1_555
Co4 F4 2.122680 1_555
Co5 O1 1.868334 1_555
Co5 O2 1.955904 1_555
Co5 O3 1.959101 1_555
Co5 F5 2.005488 1_455
F2 Mg0 1.968898 1_555
F3 Mg0 1.983735 1_555
F5 Mg0 1.929682 1_545
