# generated using pymatgen
data_MgFe6(O5F)2
_symmetry_space_group_name_H-M   'P 1'
_cell_length_a   10.82825951
_cell_length_b   6.87290227
_cell_length_c   3.00408920
_cell_angle_alpha   89.82565767
_cell_angle_beta   90.10553724
_cell_angle_gamma   70.04513933
_symmetry_Int_Tables_number   1
_chemical_formula_structural   MgFe6(O5F)2
_chemical_formula_sum   'Mg1 Fe6 O10 F2'
_cell_volume   210.14438698
_cell_formula_units_Z   1
loop_
 _symmetry_equiv_pos_site_id
 _symmetry_equiv_pos_as_xyz
  1  'x, y, z'
loop_
 _atom_site_type_symbol
 _atom_site_label
 _atom_site_symmetry_multiplicity
 _atom_site_fract_x
 _atom_site_fract_y
 _atom_site_fract_z
 _atom_site_occupancy
  Mg  Mg0  1  0.49731700  0.00434200  0.01638700  1
  Fe  Fe0  1  0.01773600  0.98935900  0.01111100  1
  Fe  Fe1  1  0.99739100  0.50128900  0.50971600  1
  Fe  Fe2  1  0.30736300  0.37423700  0.01355800  1
  Fe  Fe3  1  0.66806600  0.18449400  0.51264000  1
  Fe  Fe4  1  0.33006800  0.79636400  0.51466200  1
  Fe  Fe5  1  0.68587000  0.63695100  0.00461200  1
  O  O0  1  0.00493600  0.30667600  0.00722500  1
  O  O1  1  0.99558000  0.69335000  0.01279400  1
  O  O2  1  0.18937300  0.41322600  0.51234600  1
  O  O3  1  0.44708100  0.22914000  0.51369600  1
  O  O4  1  0.13509700  0.91951600  0.51233700  1
  O  O5  1  0.34930900  0.62160400  0.01564500  1
  O  O6  1  0.65973800  0.37084900  0.01104900  1
  O  O7  1  0.53351300  0.77974500  0.51691700  1
  O  O8  1  0.80456100  0.58958800  0.50669600  1
  O  O9  1  0.67952000  0.99080900  0.01314800  1
  F  F0  1  0.31383600  0.02269000  0.01394500  1
  F  F1  1  0.87739100  0.07577100  0.51068400  1
loop_
_geom_bond_atom_site_label_1
_geom_bond_atom_site_label_2
_geom_bond_distance
_geom_bond_site_symmetry_2
Mg0 O9 1.943210 1_545
Mg0 O3 2.087650 1_555
Mg0 O7 2.089998 1_545
Mg0 O3 2.091073 1_554
Mg0 O7 2.095491 1_544
Fe0 O4 1.919580 1_555
Fe0 O4 1.919765 1_554
Fe0 O1 2.128291 1_455
Fe0 O0 2.137555 1_565
Fe1 O2 1.956792 1_655
Fe1 O8 1.965493 1_555
Fe1 O1 1.985323 1_555
Fe1 O0 1.985508 1_656
Fe1 O0 2.003137 1_655
Fe1 O1 2.005345 1_556
Fe2 O5 1.903656 1_555
Fe2 O2 1.930068 1_555
Fe2 O2 1.930803 1_554
Fe2 O3 2.119777 1_555
Fe2 O3 2.127425 1_554
Fe3 O6 1.955432 1_556
Fe3 O6 1.956532 1_555
Fe3 O9 1.980551 1_546
Fe3 O9 1.984722 1_545
Fe3 O3 2.306278 1_555
Fe4 O5 1.888948 1_556
Fe4 O5 1.890673 1_555
Fe4 O4 1.988424 1_555
Fe4 O7 2.166633 1_555
Fe5 O8 1.928627 1_554
Fe5 O8 1.933143 1_555
Fe5 O6 1.943793 1_555
Fe5 O7 2.169920 1_554
Fe5 O7 2.228642 1_555
Fe5 O9 2.409649 1_555
F0 Mg0 1.947353 1_555
F0 Fe4 2.123984 1_545
F0 Fe4 2.128086 1_544
F0 Fe2 2.393131 1_555
F1 Fe0 2.071783 1_646
F1 Fe0 2.076596 1_645
F1 Fe3 2.130730 1_555
