# generated using pymatgen
data_Na7CaGa3(PO4)6
_symmetry_space_group_name_H-M   'P 1'
_cell_length_a   8.93855075
_cell_length_b   8.95991130
_cell_length_c   22.03998624
_cell_angle_alpha   90.01079509
_cell_angle_beta   90.02402762
_cell_angle_gamma   119.90974301
_symmetry_Int_Tables_number   1
_chemical_formula_structural   Na7CaGa3(PO4)6
_chemical_formula_sum   'Na21 Ca3 Ga9 P18 O72'
_cell_volume   1530.05469425
_cell_formula_units_Z   3
loop_
 _symmetry_equiv_pos_site_id
 _symmetry_equiv_pos_as_xyz
  1  'x, y, z'
loop_
 _atom_site_type_symbol
 _atom_site_label
 _atom_site_symmetry_multiplicity
 _atom_site_fract_x
 _atom_site_fract_y
 _atom_site_fract_z
 _atom_site_occupancy
  Na  Na0  1  0.63881835  0.00514105  0.24700508  1
  Na  Na1  1  0.36596777  0.36019596  0.24705972  1
  Na  Na2  1  0.99447420  0.63349551  0.24637945  1
  Na  Na3  1  0.63077017  0.62654182  0.74903111  1
  Na  Na4  1  0.99573604  0.36921530  0.74958586  1
  Na  Na5  1  0.37408973  0.00392267  0.74939266  1
  Na  Na6  1  0.02712352  0.69404860  0.58388771  1
  Na  Na7  1  0.66480623  0.97182705  0.58347143  1
  Na  Na8  1  0.30721932  0.97167190  0.08325289  1
  Na  Na9  1  0.66678460  0.69335927  0.08357353  1
  Na  Na10  1  0.69957311  0.03476125  0.91921483  1
  Na  Na11  1  0.33223673  0.29888561  0.91869257  1
  Na  Na12  1  0.96503374  0.29392854  0.41543874  1
  Na  Na13  1  0.32890271  0.03542971  0.41561654  1
  Na  Na14  1  0.70673351  0.67144761  0.41537085  1
  Na  Na15  1  0.00963632  0.01065410  0.50253331  1
  Na  Na16  1  0.99984948  0.99920948  0.00112930  1
  Na  Na17  1  0.67693432  0.34497823  0.83685404  1
  Na  Na18  1  0.66684767  0.33335431  0.33062085  1
  Na  Na19  1  0.32150696  0.65430018  0.16308112  1
  Na  Na20  1  0.33234845  0.65425706  0.66423622  1
  Ca  Ca0  1  0.99982508  0.99994126  0.35296740  1
  Ca  Ca1  1  0.66418265  0.33347236  0.68164025  1
  Ca  Ca2  1  0.67021432  0.33443303  0.17476230  1
  Ga  Ga0  1  0.99955857  0.99399285  0.85358722  1
  Ga  Ga1  1  0.00701138  0.00695102  0.64903842  1
  Ga  Ga2  1  0.00082879  0.00818083  0.14892243  1
  Ga  Ga3  1  0.67638318  0.34100921  0.98518552  1
  Ga  Ga4  1  0.66385734  0.33263468  0.48634828  1
  Ga  Ga5  1  0.32701521  0.66259835  0.01338511  1
  Ga  Ga6  1  0.33311574  0.66237520  0.51745564  1
  Ga  Ga7  1  0.33348276  0.66603474  0.31628321  1
  Ga  Ga8  1  0.32985163  0.66484122  0.81944537  1
  P  P0  1  0.29519150  0.99174121  0.25034164  1
  P  P1  1  0.69627197  0.70478775  0.25044055  1
  P  P2  1  0.00823748  0.30261611  0.25160839  1
  P  P3  1  0.27994239  0.28973155  0.75426894  1
  P  P4  1  0.00969846  0.71935313  0.75219378  1
  P  P5  1  0.71033915  0.99050341  0.75313501  1
  P  P6  1  0.97260008  0.33395885  0.58175582  1
  P  P7  1  0.36180905  0.02892251  0.58127772  1
  P  P8  1  0.66494678  0.63725108  0.58195474  1
  P  P9  1  0.97414016  0.63852586  0.08146726  1
  P  P10  1  0.66568733  0.02654803  0.07950115  1
  P  P11  1  0.36035598  0.33523783  0.07977741  1
  P  P12  1  0.62656596  0.66551679  0.91625831  1
  P  P13  1  0.03891157  0.37566199  0.91548317  1
  P  P14  1  0.33225904  0.95899785  0.91622622  1
  P  P15  1  0.61409637  0.95922551  0.41976475  1
  P  P16  1  0.34503464  0.38581210  0.41901035  1
  P  P17  1  0.04090382  0.65514462  0.41981077  1
  O  O0  1  0.22444036  0.02257170  0.30889161  1
  O  O1  1  0.79824415  0.77583160  0.30891321  1
  O  O2  1  0.97672606  0.20421951  0.31092865  1
  O  O3  1  0.19699837  0.17924481  0.81156428  1
  O  O4  1  0.97997419  0.80829127  0.80647506  1
  O  O5  1  0.82408999  0.01878757  0.80960586  1
  O  O6  1  0.79140780  0.96342103  0.69410677  1
  O  O7  1  0.16684109  0.20638209  0.69712884  1
  O  O8  1  0.03777822  0.82529773  0.69244230  1
  O  O9  1  0.78743117  0.82272009  0.19381994  1
  O  O10  1  0.03797881  0.20869107  0.19701369  1
  O  O11  1  0.17730982  0.96538031  0.19361133  1
  O  O12  1  0.90574693  0.37407800  0.63982380  1
  O  O13  1  0.46889039  0.09352499  0.63923609  1
  O  O14  1  0.63335434  0.53951901  0.64110717  1
  O  O15  1  0.91599674  0.54671134  0.14195096  1
  O  O16  1  0.62258115  0.08765726  0.13797935  1
  O  O17  1  0.46449159  0.37656670  0.13850527  1
  O  O18  1  0.45349195  0.29906185  0.02539230  1
  O  O19  1  0.84030135  0.54314909  0.02954775  1
  O  O20  1  0.69356429  0.14749019  0.02426683  1
  O  O21  1  0.45244744  0.14726380  0.52541458  1
  O  O22  1  0.69996603  0.54639724  0.52700573  1
  O  O23  1  0.84612663  0.29826705  0.52658302  1
  O  O24  1  0.54256286  0.70040284  0.97169366  1
  O  O25  1  0.16356497  0.46213640  0.96864269  1
  O  O26  1  0.30684217  0.84850803  0.97263120  1
  O  O27  1  0.52628513  0.84652145  0.47541773  1
  O  O28  1  0.31605730  0.47619170  0.47249545  1
  O  O29  1  0.15478121  0.68228210  0.47546727  1
  O  O30  1  0.12191790  0.62819647  0.36095717  1
  O  O31  1  0.50624961  0.87778044  0.36091806  1
  O  O32  1  0.37325926  0.49128062  0.35925535  1
  O  O33  1  0.11565618  0.48169438  0.85626716  1
  O  O34  1  0.36703764  0.87757556  0.85893219  1
  O  O35  1  0.50989176  0.62964501  0.85875698  1
  O  O36  1  0.01839870  0.81445458  0.41913302  1
  O  O37  1  0.79591334  0.98111764  0.41935987  1
  O  O38  1  0.18653491  0.20392505  0.41862044  1
  O  O39  1  0.01954141  0.19116114  0.91138368  1
  O  O40  1  0.17291191  0.98542870  0.91100705  1
  O  O41  1  0.80586352  0.83248433  0.91032667  1
  O  O42  1  0.97862716  0.16322439  0.58730546  1
  O  O43  1  0.17842725  0.00844170  0.58667287  1
  O  O44  1  0.83411821  0.81882847  0.58543182  1
  O  O45  1  0.98665571  0.82036941  0.08514642  1
  O  O46  1  0.82892184  0.00639065  0.08560589  1
  O  O47  1  0.18400092  0.16403069  0.08590845  1
  O  O48  1  0.68834999  0.15042589  0.75088309  1
  O  O49  1  0.46161162  0.31090607  0.75128948  1
  O  O50  1  0.85034815  0.53750285  0.75031268  1
  O  O51  1  0.66930299  0.52217318  0.24468004  1
  O  O52  1  0.85192707  0.32850374  0.24468145  1
  O  O53  1  0.47794202  0.14750339  0.24436711  1
  O  O54  1  0.63927414  0.49889908  0.92342203  1
  O  O55  1  0.85396784  0.35019518  0.92336193  1
  O  O56  1  0.49809971  0.14229354  0.92144944  1
  O  O57  1  0.63054919  0.14215576  0.42378968  1
  O  O58  1  0.51230787  0.37034699  0.42429822  1
  O  O59  1  0.85804458  0.48869346  0.42429601  1
  O  O60  1  0.34588808  0.49830161  0.06887152  1
  O  O61  1  0.15753845  0.66596007  0.07012372  1
  O  O62  1  0.50415342  0.84360768  0.06987308  1
  O  O63  1  0.33875902  0.84485637  0.57304457  1
  O  O64  1  0.50996607  0.66757140  0.57306634  1
  O  O65  1  0.15143017  0.49620001  0.57243559  1
  O  O66  1  0.30366610  0.82067942  0.25400725  1
  O  O67  1  0.51651281  0.69656162  0.25395524  1
  O  O68  1  0.17884625  0.48279257  0.25447774  1
  O  O69  1  0.29773483  0.47349209  0.75773207  1
  O  O70  1  0.17700206  0.70380378  0.75730866  1
  O  O71  1  0.52749952  0.82401807  0.75756418  1
loop_
_geom_bond_atom_site_label_1
_geom_bond_atom_site_label_2
_geom_bond_distance
_geom_bond_site_symmetry_2
Na0 O53 2.351056 1_555
Na0 O67 2.418454 1_545
Na0 O16 2.539513 1_555
Na0 O52 2.553770 1_555
Na0 O66 2.606301 1_545
Na0 O31 2.768523 1_545
Na0 O9 2.824187 1_545
Na0 O2 2.985309 1_555
Na1 O51 2.352968 1_555
Na1 O68 2.421430 1_555
Na1 O17 2.528714 1_555
Na1 O53 2.557189 1_555
Na1 O67 2.621468 1_555
Na1 O32 2.724121 1_555
Na1 O10 2.771701 1_555
Na1 O0 2.965670 1_555
Na2 O52 2.370666 1_555
Na2 O15 2.418280 1_555
Na2 O66 2.419970 1_655
Na2 O51 2.559896 1_555
Na2 O68 2.605793 1_655
Na2 O30 2.780038 1_655
Na2 O11 2.832398 1_655
Na2 O1 2.972328 1_555
Na3 O71 2.376338 1_555
Na3 O49 2.454047 1_555
Na3 O50 2.459874 1_555
Na3 O14 2.506739 1_555
Na3 O69 2.590068 1_555
Na3 O35 2.654954 1_555
Na3 O6 2.884184 1_555
Na3 O4 2.987398 1_555
Na4 O69 2.382522 1_655
Na4 O50 2.432463 1_555
Na4 O48 2.453886 1_555
Na4 O12 2.556282 1_555
Na4 O33 2.571522 1_655
Na4 O70 2.607106 1_655
Na4 O7 2.833831 1_655
Na5 O70 2.375084 1_545
Na5 O48 2.436695 1_555
Na5 O49 2.456270 1_555
Na5 O13 2.565357 1_555
Na5 O71 2.591400 1_545
Na5 O34 2.654077 1_545
Na5 O8 2.893412 1_545
Na6 O63 2.426797 1_555
Na6 O43 2.443054 1_565
Na6 O44 2.480111 1_455
Na6 O65 2.530843 1_555
Na6 O8 2.646377 1_555
Na6 O29 2.673097 1_555
Na6 O12 2.795828 1_455
Na6 O22 2.830487 1_455
Na7 O64 2.374144 1_555
Na7 O42 2.453373 1_565
Na7 O44 2.498091 1_555
Na7 O63 2.556084 1_555
Na7 O27 2.659949 1_555
Na7 O6 2.704593 1_555
Na7 O13 2.769814 1_565
Na7 O23 2.833604 1_565
Na8 O61 2.391929 1_555
Na8 O47 2.465789 1_565
Na8 O45 2.485192 1_455
Na8 O62 2.552824 1_555
Na8 O26 2.675334 1_554
Na8 O11 2.684173 1_555
Na8 O16 2.748843 1_565
Na8 O18 2.849288 1_565
Na9 O46 2.432097 1_565
Na9 O62 2.442967 1_555
Na9 O45 2.495238 1_555
Na9 O60 2.527164 1_555
Na9 O9 2.675942 1_555
Na9 O24 2.717509 1_554
Na9 O17 2.770697 1_555
Na9 O19 2.778028 1_555
Na10 O56 2.429881 1_555
Na10 O41 2.437827 1_545
Na10 O55 2.451673 1_555
Na10 O39 2.485354 1_655
Na10 O20 2.537166 1_556
Na10 O5 2.693740 1_555
Na10 O24 2.844658 1_545
Na10 O34 2.899142 1_545
Na11 O54 2.418544 1_555
Na11 O40 2.440404 1_545
Na11 O39 2.465558 1_555
Na11 O56 2.498935 1_555
Na11 O18 2.588665 1_556
Na11 O3 2.624801 1_555
Na11 O25 2.797263 1_555
Na11 O35 2.891267 1_555
Na12 O59 2.379559 1_555
Na12 O37 2.433720 1_545
Na12 O2 2.458847 1_555
Na12 O38 2.483429 1_655
Na12 O57 2.601533 1_555
Na12 O23 2.678649 1_555
Na12 O30 2.862292 1_655
Na12 O28 2.996499 1_655
Na13 O57 2.375930 1_555
Na13 O38 2.412256 1_555
Na13 O36 2.479778 1_545
Na13 O0 2.511741 1_555
Na13 O58 2.612011 1_555
Na13 O21 2.640647 1_555
Na13 O31 2.862784 1_545
Na14 O58 2.379502 1_555
Na14 O36 2.418573 1_655
Na14 O37 2.477052 1_555
Na14 O1 2.507698 1_555
Na14 O59 2.599568 1_555
Na14 O22 2.691902 1_555
Na14 O32 2.866714 1_555
Na15 O43 2.396483 1_555
Na15 O42 2.411169 1_455
Na15 O44 2.463357 1_445
Na15 O38 2.488449 1_555
Na15 O37 2.563721 1_445
Na15 O36 2.571270 1_545
Na16 O45 2.413159 1_555
Na16 O46 2.430095 1_565
Na16 O47 2.440068 1_665
Na16 O40 2.558625 1_654
Na16 O39 2.569253 1_664
Na16 O41 2.579941 1_554
Na17 O55 2.462756 1_555
Na17 O54 2.473482 1_555
Na17 O50 2.520626 1_555
Na17 O56 2.537376 1_555
Na17 O49 2.600910 1_555
Na17 O48 2.610675 1_555
Na18 O52 2.529953 1_555
Na18 O51 2.532712 1_555
Na18 O53 2.535750 1_555
Na18 O57 2.589255 1_555
Na18 O58 2.596060 1_555
Na18 O59 2.596978 1_555
Na19 O68 2.468673 1_555
Na19 O66 2.549516 1_555
Na19 O61 2.550839 1_555
Na19 O67 2.555719 1_555
Na19 O60 2.572074 1_555
Na19 O62 2.646708 1_555
Na20 O64 2.527123 1_555
Na20 O65 2.535087 1_555
Na20 O69 2.543083 1_555
Na20 O63 2.619743 1_555
Na20 O71 2.633860 1_555
Na20 O70 2.636266 1_555
Ca0 O1 2.147331 1_555
Ca0 O0 2.147443 1_665
Ca0 O2 2.151396 1_565
Ca0 O38 2.274760 1_665
Ca0 O37 2.277623 1_555
Ca0 O36 2.278619 1_655
Ca1 O14 2.188622 1_555
Ca1 O13 2.190423 1_555
Ca1 O12 2.205092 1_555
Ca1 O49 2.305051 1_555
Ca1 O50 2.316226 1_555
Ca1 O48 2.327989 1_555
Ca2 O16 2.188061 1_555
Ca2 O15 2.191296 1_555
Ca2 O17 2.203108 1_555
Ca2 O52 2.258257 1_555
Ca2 O51 2.284071 1_555
Ca2 O53 2.290170 1_555
Ga0 O4 1.893674 1_555
Ga0 O5 1.948146 1_565
Ga0 O3 1.951440 1_665
Ga0 O40 2.031124 1_655
Ga0 O41 2.039466 1_555
Ga0 O39 2.111810 1_665
Ga1 O7 1.951809 1_555
Ga1 O8 2.021529 1_545
Ga1 O6 2.026072 1_445
Ga1 O43 2.053913 1_555
Ga1 O42 2.056901 1_455
Ga1 O44 2.143415 1_445
Ga2 O10 1.966054 1_555
Ga2 O11 2.051285 1_545
Ga2 O9 2.054288 1_445
Ga2 O47 2.069316 1_555
Ga2 O46 2.069400 1_455
Ga2 O45 2.147069 1_445
Ga3 O19 1.932547 1_556
Ga3 O20 2.009472 1_556
Ga3 O18 2.037336 1_556
Ga3 O55 2.062686 1_555
Ga3 O54 2.105399 1_555
Ga3 O56 2.202387 1_555
Ga4 O21 1.985645 1_555
Ga4 O22 1.989502 1_555
Ga4 O23 2.008673 1_555
Ga4 O58 2.067507 1_555
Ga4 O57 2.096300 1_555
Ga4 O59 2.102546 1_555
Ga5 O25 1.927219 1_554
Ga5 O61 1.976521 1_555
Ga5 O26 1.978369 1_554
Ga5 O60 1.984738 1_555
Ga5 O24 2.005480 1_554
Ga5 O62 2.030768 1_555
Ga6 O28 1.879790 1_555
Ga6 O29 1.926550 1_555
Ga6 O27 1.929476 1_555
Ga6 O65 1.978268 1_555
Ga6 O64 1.981981 1_555
Ga6 O63 2.023321 1_555
Ga7 O30 2.005719 1_555
Ga7 O31 2.007039 1_555
Ga7 O32 2.007624 1_555
Ga7 O67 2.047980 1_555
Ga7 O68 2.048443 1_555
Ga7 O66 2.059986 1_555
Ga8 O34 1.966807 1_555
Ga8 O33 1.971212 1_555
Ga8 O35 1.986211 1_555
Ga8 O70 2.082858 1_555
Ga8 O69 2.092800 1_555
Ga8 O71 2.122578 1_555
O0 P0 1.521926 1_545
O1 P1 1.522144 1_555
O2 P2 1.522838 1_655
O3 P3 1.547133 1_555
O4 P4 1.532297 1_655
O5 P5 1.545626 1_545
O6 P5 1.566066 1_555
O7 P3 1.552873 1_555
O8 P4 1.568919 1_555
O9 P1 1.574955 1_555
O10 P2 1.565167 1_555
O11 P0 1.574795 1_555
O12 P6 1.529354 1_555
O13 P7 1.526145 1_555
O14 P8 1.516693 1_555
O15 P9 1.516088 1_555
O16 P10 1.523139 1_555
O17 P11 1.527739 1_555
O18 P11 1.582615 1_555
O19 P9 1.565199 1_555
O20 P10 1.565181 1_555
O21 P7 1.562437 1_555
O22 P8 1.575251 1_555
O23 P6 1.580225 1_555
O24 P12 1.545630 1_555
O25 P13 1.533673 1_555
O26 P14 1.534123 1_555
O27 P15 1.533350 1_555
O28 P16 1.523654 1_555
O29 P17 1.533613 1_555
O30 P17 1.562141 1_555
O31 P15 1.562374 1_555
O32 P16 1.566566 1_555
O33 P13 1.558132 1_555
O34 P14 1.565113 1_555
O35 P12 1.568923 1_555
O36 P17 1.537703 1_555
O37 P15 1.536837 1_555
O38 P16 1.536418 1_555
O39 P13 1.576518 1_555
O40 P14 1.560223 1_555
O41 P12 1.559763 1_555
O42 P6 1.562146 1_555
O43 P7 1.560410 1_555
O44 P8 1.576628 1_555
O45 P9 1.578570 1_555
O46 P10 1.562781 1_555
O47 P11 1.563665 1_555
O48 P5 1.541155 1_545
O49 P3 1.539506 1_555
O50 P4 1.539742 1_655
O51 P1 1.535564 1_555
O52 P2 1.533712 1_655
O53 P0 1.536289 1_545
O54 P12 1.560677 1_555
O55 P13 1.561771 1_655
O56 P14 1.574734 1_545
O57 P15 1.573370 1_545
O58 P16 1.573157 1_555
O59 P17 1.573139 1_655
O60 P11 1.548439 1_555
O61 P9 1.552028 1_455
O62 P10 1.567141 1_565
O63 P7 1.567253 1_565
O64 P8 1.551242 1_555
O65 P6 1.547113 1_455
O66 P0 1.573931 1_555
O67 P1 1.573276 1_555
O68 P2 1.574956 1_555
O69 P3 1.575060 1_555
O70 P4 1.573575 1_555
O71 P5 1.573093 1_555
