# generated using pymatgen
data_Na3Hf2Zr2SiP5O24
_symmetry_space_group_name_H-M   'P 1'
_cell_length_a   9.00588957
_cell_length_b   8.98060044
_cell_length_c   22.93666817
_cell_angle_alpha   89.98251874
_cell_angle_beta   90.04986243
_cell_angle_gamma   119.91959930
_symmetry_Int_Tables_number   1
_chemical_formula_structural   Na3Hf2Zr2SiP5O24
_chemical_formula_sum   'Na9 Hf6 Zr6 Si3 P15 O72'
_cell_volume   1607.84458993
_cell_formula_units_Z   3
loop_
 _symmetry_equiv_pos_site_id
 _symmetry_equiv_pos_as_xyz
  1  'x, y, z'
loop_
 _atom_site_type_symbol
 _atom_site_label
 _atom_site_symmetry_multiplicity
 _atom_site_fract_x
 _atom_site_fract_y
 _atom_site_fract_z
 _atom_site_occupancy
  Na  Na0  1  0.36634031  0.00015696  0.74895829  1
  Na  Na1  1  0.66190677  0.96952415  0.58789270  1
  Na  Na2  1  0.67091843  0.69790800  0.08074677  1
  Na  Na3  1  0.02733358  0.00143977  0.49982650  1
  Na  Na4  1  0.02006344  0.01170316  0.99812763  1
  Na  Na5  1  0.68666157  0.34503387  0.83440232  1
  Na  Na6  1  0.66666473  0.33339215  0.33346387  1
  Na  Na7  1  0.30838376  0.66480137  0.16788732  1
  Na  Na8  1  0.32253528  0.64247730  0.66671087  1
  Hf  Hf0  1  0.99240621  -0.00076933  0.85356192  1
  Hf  Hf1  1  -0.00031728  -0.00209936  0.64601516  1
  Hf  Hf2  1  0.66832103  0.33482098  0.68719939  1
  Hf  Hf3  1  0.67097794  0.33380008  0.18778700  1
  Hf  Hf4  1  0.66924655  0.33377143  0.97914932  1
  Hf  Hf5  1  0.66134050  0.33141152  0.47955773  1
  Zr  Zr0  1  -0.00089293  -0.00063271  0.35366838  1
  Zr  Zr1  1  0.00707744  0.00461631  0.14642751  1
  Zr  Zr2  1  0.32522869  0.66812952  0.01973612  1
  Zr  Zr3  1  0.32768960  0.66485085  0.52029122  1
  Zr  Zr4  1  0.33431912  0.66725012  0.31314060  1
  Zr  Zr5  1  0.33785895  0.66517327  0.81381478  1
  Si  Si0  1  0.70813896  0.00221137  0.74764323  1
  Si  Si1  1  0.37217655  0.04363173  0.58460695  1
  Si  Si2  1  0.95743616  0.62253011  0.08403260  1
  P  P0  1  0.29478860  0.00257882  0.25065003  1
  P  P1  1  0.70687596  0.70654322  0.24814812  1
  P  P2  1  0.99771616  0.29244907  0.25079592  1
  P  P3  1  0.28644831  0.28687665  0.74986733  1
  P  P4  1  0.99736418  0.71021409  0.75148420  1
  P  P5  1  0.95463293  0.33311060  0.58327747  1
  P  P6  1  0.66833055  0.62335700  0.58262477  1
  P  P7  1  0.66683011  0.04503257  0.08355654  1
  P  P8  1  0.38123277  0.33291159  0.08234657  1
  P  P9  1  0.62947734  0.66601500  0.91942617  1
  P  P10  1  0.03930190  0.37164100  0.91639986  1
  P  P11  1  0.33327786  0.96404166  0.91411214  1
  P  P12  1  0.62658993  0.96052692  0.41839506  1
  P  P13  1  0.33541466  0.37431553  0.41631144  1
  P  P14  1  0.03833157  0.66368235  0.41616063  1
  O  O0  1  0.20249750  0.01920206  0.30464753  1
  O  O1  1  0.82096292  0.80220985  0.30108412  1
  O  O2  1  0.98314848  0.18515610  0.30507940  1
  O  O3  1  0.20326310  0.17164827  0.80360806  1
  O  O4  1  0.98099707  0.79863538  0.80652683  1
  O  O5  1  0.82597875  0.01679308  0.80332621  1
  O  O6  1  0.79086108  0.98129109  0.68706287  1
  O  O7  1  0.17885892  0.19850550  0.69504563  1
  O  O8  1  0.02671055  0.82590000  0.69749582  1
  O  O9  1  0.79098124  0.80890331  0.19157185  1
  O  O10  1  0.01641910  0.20400578  0.19598716  1
  O  O11  1  0.18610377  0.98287758  0.19572819  1
  O  O12  1  0.86895120  0.35556267  0.63826620  1
  O  O13  1  0.48727152  0.13117660  0.64344612  1
  O  O14  1  0.65116956  0.51894980  0.63778968  1
  O  O15  1  0.86271921  0.50967419  0.14170064  1
  O  O16  1  0.64210789  0.12735879  0.13865132  1
  O  O17  1  0.49143113  0.35424877  0.13675242  1
  O  O18  1  0.46375060  0.30742517  0.02742312  1
  O  O19  1  0.83597122  0.52845620  0.02740087  1
  O  O20  1  0.68292537  0.14952048  0.02849069  1
  O  O21  1  0.47512056  0.16075630  0.52856080  1
  O  O22  1  0.69104408  0.53834871  0.52787576  1
  O  O23  1  0.84428571  0.31271347  0.52918649  1
  O  O24  1  0.54808355  0.68504951  0.97620257  1
  O  O25  1  0.14836108  0.46314423  0.97082824  1
  O  O26  1  0.31584223  0.84777389  0.96710708  1
  O  O27  1  0.54261667  0.85829674  0.47494830  1
  O  O28  1  0.31725093  0.46388828  0.47081089  1
  O  O29  1  0.14764326  0.68430388  0.47100117  1
  O  O30  1  0.13021483  0.64660910  0.36209513  1
  O  O31  1  0.51240952  0.86498019  0.36538716  1
  O  O32  1  0.35108778  0.48186142  0.36173718  1
  O  O33  1  0.12749865  0.48093028  0.86206340  1
  O  O34  1  0.35042190  0.87742395  0.85773795  1
  O  O35  1  0.51430112  0.65182521  0.86677058  1
  O  O36  1  0.02017760  0.82597762  0.41173224  1
  O  O37  1  0.80510643  0.97708105  0.41198460  1
  O  O38  1  0.17546636  0.19262784  0.41196026  1
  O  O39  1  0.02412539  0.19297564  0.91181114  1
  O  O40  1  0.17179457  0.98160079  0.91170240  1
  O  O41  1  0.80941538  0.82618682  0.91231101  1
  O  O42  1  0.96374767  0.16548655  0.58794849  1
  O  O43  1  0.18130721  0.01934104  0.58829978  1
  O  O44  1  0.82564383  0.80771230  0.58745362  1
  O  O45  1  0.97042045  0.81277043  0.08815716  1
  O  O46  1  0.82896321  0.02607306  0.08815601  1
  O  O47  1  0.19804631  0.17895426  0.08817844  1
  O  O48  1  0.68224474  0.17150370  0.74651706  1
  O  O49  1  0.46658324  0.30727743  0.74353450  1
  O  O50  1  0.83614442  0.53317462  0.74504116  1
  O  O51  1  0.68562254  0.52504798  0.24516483  1
  O  O52  1  0.83397334  0.30688773  0.24678787  1
  O  O53  1  0.47291604  0.16366740  0.24574722  1
  O  O54  1  0.64423473  0.50218529  0.92067063  1
  O  O55  1  0.85862731  0.35044502  0.92180474  1
  O  O56  1  0.49559791  0.14087172  0.92044062  1
  O  O57  1  0.64661618  0.14173682  0.42162516  1
  O  O58  1  0.49875301  0.35862961  0.42056587  1
  O  O59  1  0.85995805  0.50239392  0.42134087  1
  O  O60  1  0.37335150  0.50145203  0.07729954  1
  O  O61  1  0.14913335  0.64733281  0.07866337  1
  O  O62  1  0.51222046  0.85902270  0.07819167  1
  O  O63  1  0.36236980  0.85447177  0.57904496  1
  O  O64  1  0.50740473  0.64454081  0.57835971  1
  O  O65  1  0.13690152  0.48822561  0.57852886  1
  O  O66  1  0.31258940  0.83998288  0.25492736  1
  O  O67  1  0.52829247  0.69026580  0.25448997  1
  O  O68  1  0.15794405  0.47445144  0.25485325  1
  O  O69  1  0.30340668  0.46569819  0.75562035  1
  O  O70  1  0.15998870  0.69271811  0.75590096  1
  O  O71  1  0.51185518  0.83406068  0.75424850  1
loop_
_geom_bond_atom_site_label_1
_geom_bond_atom_site_label_2
_geom_bond_distance
_geom_bond_site_symmetry_2
Na0 O71 2.430382 1_545
Na0 O49 2.440043 1_555
Na0 O70 2.446168 1_545
Na0 O48 2.469423 1_555
Na0 O13 2.674316 1_555
Na0 O34 2.702219 1_545
Na0 O3 2.891507 1_555
Na0 O8 2.901315 1_545
Na1 O63 2.367379 1_555
Na1 O42 2.390446 1_565
Na1 O6 2.531201 1_555
Na1 O44 2.534541 1_555
Na1 O64 2.539799 1_555
Na1 O27 2.790913 1_555
Na1 O13 2.913238 1_565
Na1 O23 2.993544 1_565
Na2 O60 2.363000 1_555
Na2 O45 2.364745 1_555
Na2 O62 2.490452 1_555
Na2 O46 2.560395 1_565
Na2 O24 2.618228 1_554
Na2 O9 2.746978 1_555
Na2 O19 2.878076 1_555
Na2 O17 2.968608 1_555
Na3 O43 2.416527 1_555
Na3 O36 2.543688 1_545
Na3 O38 2.550883 1_555
Na3 O44 2.686543 1_445
Na3 O42 2.725644 1_455
Na3 O37 2.769332 1_445
Na4 O40 2.498685 1_545
Na4 O39 2.551455 1_555
Na4 O47 2.585707 1_556
Na4 O45 2.618835 1_446
Na4 O41 2.662999 1_445
Na4 O46 2.733225 1_456
Na5 O55 2.517802 1_555
Na5 O48 2.536450 1_555
Na5 O54 2.567887 1_555
Na5 O50 2.569396 1_555
Na5 O56 2.659592 1_555
Na5 O49 2.776696 1_555
Na6 O52 2.577333 1_555
Na6 O58 2.583962 1_555
Na6 O59 2.599354 1_555
Na6 O53 2.599685 1_555
Na6 O57 2.602413 1_555
Na6 O51 2.607439 1_555
Na7 O61 2.457706 1_555
Na7 O66 2.530710 1_555
Na7 O68 2.535530 1_555
Na7 O62 2.730390 1_555
Na7 O67 2.731646 1_555
Na7 O60 2.769789 1_555
Na8 O69 2.536650 1_555
Na8 O65 2.547619 1_555
Na8 O64 2.618010 1_555
Na8 O71 2.639767 1_555
Na8 O63 2.667219 1_555
Na8 O70 2.682565 1_555
Hf0 O5 1.957478 1_555
Hf0 O4 2.058167 1_545
Hf0 O3 2.094254 1_655
Hf0 O41 2.096299 1_545
Hf0 O39 2.097369 1_655
Hf0 O40 2.159794 1_645
Hf1 O43 2.038242 1_555
Hf1 O6 2.041709 1_445
Hf1 O7 2.052372 1_555
Hf1 O8 2.052556 1_545
Hf1 O44 2.122572 1_445
Hf1 O42 2.151180 1_455
Hf2 O13 2.008467 1_555
Hf2 O48 2.049377 1_555
Hf2 O12 2.055911 1_555
Hf2 O14 2.072659 1_555
Hf2 O50 2.128332 1_555
Hf2 O49 2.141787 1_555
Hf3 O15 1.968577 1_555
Hf3 O16 2.072401 1_555
Hf3 O17 2.076381 1_555
Hf3 O52 2.096386 1_555
Hf3 O51 2.115274 1_555
Hf3 O53 2.137205 1_555
Hf4 O19 1.978808 1_556
Hf4 O20 2.058135 1_556
Hf4 O18 2.067256 1_556
Hf4 O55 2.100074 1_555
Hf4 O54 2.115529 1_555
Hf4 O56 2.134287 1_555
Hf5 O21 1.965432 1_555
Hf5 O22 2.063570 1_555
Hf5 O23 2.076321 1_555
Hf5 O58 2.094748 1_555
Hf5 O57 2.111997 1_555
Hf5 O59 2.145544 1_555
O0 P0 1.540371 1_555
O0 Zr0 2.080647 1_555
O1 P1 1.544634 1_555
O1 Zr0 2.080341 1_665
O2 P2 1.539262 1_555
O2 Zr0 2.069873 1_655
O3 P3 1.542383 1_555
O4 P4 1.537490 1_555
O5 Si0 1.622870 1_555
O6 Si0 1.631757 1_565
O7 P3 1.543110 1_555
O8 P4 1.551940 1_455
O9 P1 1.552125 1_555
O9 Zr1 2.130494 1_665
O10 P2 1.540797 1_455
O10 Zr1 2.087203 1_555
O11 P0 1.549676 1_565
O11 Zr1 2.055962 1_565
O12 P5 1.543993 1_555
O13 Si1 1.642905 1_555
O14 P6 1.535934 1_555
O15 Si2 1.625766 1_555
O16 P7 1.535701 1_555
O17 P8 1.545041 1_555
O18 P8 1.537250 1_555
O19 Si2 1.635206 1_555
O20 P7 1.536452 1_555
O21 Si1 1.626928 1_555
O22 P6 1.535711 1_555
O23 P5 1.541686 1_555
O24 P9 1.545712 1_555
O24 Zr2 2.178845 1_556
O25 P10 1.546548 1_555
O25 Zr2 2.063363 1_556
O26 P11 1.558339 1_555
O26 Zr2 2.049826 1_556
O27 P12 1.551047 1_555
O27 Zr3 2.119955 1_555
O28 P13 1.539049 1_555
O28 Zr3 2.094243 1_555
O29 P14 1.549762 1_555
O29 Zr3 2.053564 1_555
O30 P14 1.540950 1_555
O30 Zr4 2.082663 1_555
O31 P12 1.546014 1_555
O31 Zr4 2.078106 1_555
O32 P13 1.543762 1_555
O32 Zr4 2.070393 1_555
O33 P10 1.539725 1_555
O33 Zr5 2.104050 1_555
O34 P11 1.556165 1_555
O34 Zr5 2.108781 1_555
O35 P9 1.554624 1_555
O35 Zr5 2.049694 1_555
O36 P14 1.548862 1_555
O36 Zr0 2.127776 1_565
O37 P12 1.546088 1_555
O37 Zr0 2.129971 1_665
O38 P13 1.549985 1_555
O38 Zr0 2.137838 1_555
O39 P10 1.544525 1_555
O40 P11 1.539981 1_555
O41 P9 1.548147 1_555
O42 P5 1.551610 1_555
O43 Si1 1.623490 1_555
O44 P6 1.555785 1_555
O45 Si2 1.655985 1_555
O45 Zr1 2.072894 1_665
O46 P7 1.555603 1_555
O46 Zr1 2.168185 1_655
O47 P8 1.541451 1_555
O47 Zr1 2.123849 1_555
O48 Si0 1.649289 1_555
O49 P3 1.546072 1_555
O50 P4 1.534508 1_555
O51 P1 1.544938 1_555
O52 P2 1.546080 1_555
O53 P0 1.537551 1_555
O54 P9 1.542142 1_555
O55 P10 1.546135 1_655
O56 P11 1.537488 1_545
O57 P12 1.547134 1_545
O58 P13 1.549092 1_555
O59 P14 1.540060 1_655
O60 P8 1.554495 1_555
O60 Zr2 2.194675 1_555
O61 Si2 1.631562 1_455
O61 Zr2 2.021103 1_555
O62 P7 1.556897 1_565
O62 Zr2 2.165659 1_555
O63 Si1 1.661427 1_565
O63 Zr3 2.069689 1_555
O64 P6 1.555944 1_555
O64 Zr3 2.171942 1_555
O65 P5 1.538186 1_455
O65 Zr3 2.129905 1_555
O66 P0 1.549497 1_565
O66 Zr4 2.128045 1_555
O67 P1 1.547588 1_555
O67 Zr4 2.132560 1_555
O68 P2 1.552252 1_455
O68 Zr4 2.135993 1_555
O69 P3 1.541154 1_555
O69 Zr5 2.129160 1_555
O70 P4 1.552171 1_455
O70 Zr5 2.187033 1_555
O71 Si0 1.662993 1_565
O71 Zr5 2.062543 1_555
