# generated using pymatgen
data_KPH3O4F
_symmetry_space_group_name_H-M   'P 1'
_cell_length_a   6.37680425
_cell_length_b   7.49830130
_cell_length_c   9.37190606
_cell_angle_alpha   90.00000000
_cell_angle_beta   101.21069077
_cell_angle_gamma   90.00000000
_symmetry_Int_Tables_number   1
_chemical_formula_structural   KPH3O4F
_chemical_formula_sum   'K4 P4 H12 O16 F4'
_cell_volume   439.56894255
_cell_formula_units_Z   4
loop_
 _symmetry_equiv_pos_site_id
 _symmetry_equiv_pos_as_xyz
  1  'x, y, z'
loop_
 _atom_site_type_symbol
 _atom_site_label
 _atom_site_symmetry_multiplicity
 _atom_site_fract_x
 _atom_site_fract_y
 _atom_site_fract_z
 _atom_site_occupancy
  K  K0  1  0.84565682  0.27502939  0.95332573  1
  K  K1  1  0.15434318  0.77502939  0.54667427  1
  K  K2  1  0.15434318  0.72497061  0.04667427  1
  K  K3  1  0.84565682  0.22497061  0.45332573  1
  P  P0  1  0.61678214  0.79437606  0.83066273  1
  P  P1  1  0.38321786  0.29437606  0.66933727  1
  P  P2  1  0.38321786  0.20562394  0.16933727  1
  P  P3  1  0.61678214  0.70562394  0.33066273  1
  H  H0  1  0.89903923  0.97948084  0.76604335  1
  H  H1  1  0.10096077  0.47948084  0.73395665  1
  H  H2  1  0.10096077  0.02051916  0.23395665  1
  H  H3  1  0.89903923  0.52051916  0.26604335  1
  H  H4  1  0.39512441  0.01784066  0.83871844  1
  H  H5  1  0.60487559  0.51784066  0.66128156  1
  H  H6  1  0.60487559  0.98215934  0.16128156  1
  H  H7  1  0.39512441  0.48215934  0.33871844  1
  H  H8  1  0.37085689  0.17282293  0.46082500  1
  H  H9  1  0.62914311  0.67282293  0.03917500  1
  H  H10  1  0.62914311  0.82717707  0.53917500  1
  H  H11  1  0.37085689  0.32717707  0.96082500  1
  O  O0  1  0.64090069  0.63226538  0.93832000  1
  O  O1  1  0.40126561  0.61705417  0.35014561  1
  O  O2  1  0.59873439  0.38294583  0.64985439  1
  O  O3  1  0.40126561  0.88294583  0.85014561  1
  O  O4  1  0.59437867  0.78007421  0.17864940  1
  O  O5  1  0.40562133  0.28007421  0.32135060  1
  O  O6  1  0.40562133  0.21992579  0.82135060  1
  O  O7  1  0.59437867  0.71992579  0.67864940  1
  O  O8  1  0.80057364  0.57681655  0.37243812  1
  O  O9  1  0.19942636  0.07681655  0.12756188  1
  O  O10  1  0.19942636  0.42318345  0.62756188  1
  O  O11  1  0.80057364  0.92318345  0.87243812  1
  O  O12  1  0.35909931  0.36773462  0.06168000  1
  O  O13  1  0.64090069  0.86773462  0.43832000  1
  O  O14  1  0.59873439  0.11705417  0.14985439  1
  O  O15  1  0.35909931  0.13226538  0.56168000  1
  F  F0  1  0.97162382  0.02996517  0.68579766  1
  F  F1  1  0.02837618  0.52996517  0.81420234  1
  F  F2  1  0.02837618  0.97003483  0.31420234  1
  F  F3  1  0.97162382  0.47003483  0.18579766  1
loop_
_geom_bond_atom_site_label_1
_geom_bond_atom_site_label_2
_geom_bond_distance
_geom_bond_site_symmetry_2
K0 O11 2.744618 1_545
K0 O6 2.867888 1_555
K0 O14 2.898709 1_556
K0 O9 2.920995 1_656
K0 O0 2.971269 1_555
K0 O2 3.079238 1_555
K1 O10 2.744618 1_555
K1 O7 2.867888 1_555
K1 O1 2.898709 1_555
K1 O8 2.920995 1_455
K1 O15 2.971269 1_565
K1 O3 3.079238 1_555
K2 O9 2.744618 1_565
K2 O4 2.867888 1_555
K2 O3 2.898709 1_554
K2 O11 2.920995 1_454
K2 O12 2.971269 1_555
K2 O1 3.079238 1_555
K3 O8 2.744618 1_555
K3 O5 2.867888 1_555
K3 O2 2.898709 1_555
K3 O10 2.920995 1_655
K3 O13 2.971269 1_545
K3 O14 3.079238 1_555
H0 O11 1.345417 1_555
H0 K0 2.887915 1_565
H1 O10 1.345417 1_555
H1 K1 2.887915 1_555
H2 O9 1.345417 1_555
H2 K2 2.887915 1_545
H3 O8 1.345417 1_555
H3 K3 2.887915 1_555
H4 O3 1.017088 1_545
H4 O6 1.526870 1_555
H5 O2 1.017088 1_555
H5 O7 1.526870 1_555
H6 O14 1.017088 1_565
H6 O4 1.526870 1_555
H7 O1 1.017088 1_555
H7 O5 1.526870 1_555
H8 O15 1.009491 1_555
H8 O5 1.586562 1_555
H9 O0 1.009491 1_554
H9 O4 1.586562 1_555
H10 O13 1.009491 1_555
H10 O7 1.586562 1_555
H11 O12 1.009491 1_556
H11 O6 1.586562 1_555
O0 P0 1.568081 1_555
O1 P3 1.568659 1_555
O2 P1 1.568659 1_555
O3 P0 1.568659 1_555
O4 P3 1.510813 1_555
O5 P2 1.510813 1_555
O6 P1 1.510813 1_555
O7 P0 1.510813 1_555
O8 P3 1.510396 1_555
O9 P2 1.510396 1_555
O10 P1 1.510396 1_555
O11 P0 1.510396 1_555
O12 P2 1.568081 1_555
O13 P3 1.568081 1_555
O14 P2 1.568659 1_555
O15 P1 1.568081 1_555
F0 H0 1.028821 1_545
F0 K3 2.617166 1_555
F0 K1 2.702317 1_645
F1 H1 1.028821 1_555
F1 K2 2.617166 1_556
F1 K0 2.702317 1_455
F2 H2 1.028821 1_565
F2 K1 2.617166 1_555
F2 K3 2.702317 1_465
F3 H3 1.028821 1_555
F3 K0 2.617166 1_554
F3 K2 2.702317 1_655
