# generated using pymatgen
data_Rb2ZnH12(SO7)2
_symmetry_space_group_name_H-M   'P 1'
_cell_length_a   12.61509400
_cell_length_b   6.32416200
_cell_length_c   9.22651064
_cell_angle_alpha   74.49134335
_cell_angle_beta   90.00000000
_cell_angle_gamma   90.00000000
_symmetry_Int_Tables_number   1
_chemical_formula_structural   Rb2ZnH12(SO7)2
_chemical_formula_sum   'Rb4 Zn2 H24 S4 O28'
_cell_volume   709.28908778
_cell_formula_units_Z   2
loop_
 _symmetry_equiv_pos_site_id
 _symmetry_equiv_pos_as_xyz
  1  'x, y, z'
loop_
 _atom_site_type_symbol
 _atom_site_label
 _atom_site_symmetry_multiplicity
 _atom_site_fract_x
 _atom_site_fract_y
 _atom_site_fract_z
 _atom_site_occupancy
  Rb  Rb0  1  0.35160600  0.65201200  0.13065800  1
  Rb  Rb1  1  0.85160600  0.34798800  0.36934200  1
  Rb  Rb2  1  0.64839400  0.34798800  0.86934200  1
  Rb  Rb3  1  0.14839400  0.65201200  0.63065800  1
  Zn  Zn0  1  0.50000000  0.00000000  0.50000000  1
  Zn  Zn1  1  0.00000000  0.00000000  0.00000000  1
  H  H0  1  0.64282600  0.67982100  0.52720200  1
  H  H1  1  0.14282600  0.32017900  0.97279800  1
  H  H2  1  0.35717400  0.32017900  0.47279800  1
  H  H3  1  0.85717400  0.67982100  0.02720200  1
  H  H4  1  0.56110000  0.66368200  0.40059500  1
  H  H5  1  0.06110000  0.33631800  0.09940500  1
  H  H6  1  0.40074500  0.07238300  0.22363400  1
  H  H7  1  0.90074500  0.92761700  0.27636600  1
  H  H8  1  0.59925500  0.92761700  0.77636600  1
  H  H9  1  0.09925500  0.07238300  0.72363400  1
  H  H10  1  0.37124400  0.91280000  0.74333500  1
  H  H11  1  0.87124400  0.08720000  0.75666500  1
  H  H12  1  0.62875600  0.08720000  0.25666500  1
  H  H13  1  0.12875600  0.91280000  0.24333500  1
  H  H14  1  0.40444100  0.68026000  0.71496200  1
  H  H15  1  0.90444100  0.31974000  0.78503800  1
  H  H16  1  0.59555900  0.31974000  0.28503800  1
  H  H17  1  0.09555900  0.68026000  0.21496200  1
  H  H18  1  0.81306100  0.99297500  0.14904700  1
  H  H19  1  0.31306100  0.00702500  0.35095300  1
  H  H20  1  0.93890000  0.66368200  0.90059500  1
  H  H21  1  0.43890000  0.33631800  0.59940500  1
  H  H22  1  0.68693900  0.99297500  0.64904700  1
  H  H23  1  0.18693900  0.00702500  0.85095300  1
  S  S0  1  0.85851800  0.73199600  0.59782600  1
  S  S1  1  0.35851800  0.26800400  0.90217400  1
  S  S2  1  0.14148200  0.26800400  0.40217400  1
  S  S3  1  0.64148200  0.73199600  0.09782600  1
  O  O0  1  0.61482300  0.16476000  0.33505900  1
  O  O1  1  0.88517700  0.16476000  0.83505900  1
  O  O2  1  0.11297600  0.97432000  0.82617100  1
  O  O3  1  0.61297600  0.02568000  0.67382900  1
  O  O4  1  0.88702400  0.02568000  0.17382900  1
  O  O5  1  0.38702400  0.97432000  0.32617100  1
  O  O6  1  0.93344800  0.70179500  0.99809300  1
  O  O7  1  0.11482300  0.83524000  0.16494100  1
  O  O8  1  0.06655200  0.29820500  0.00190700  1
  O  O9  1  0.56655200  0.70179500  0.49809300  1
  O  O10  1  0.32237100  0.05590300  0.87448900  1
  O  O11  1  0.82237100  0.94409700  0.62551100  1
  O  O12  1  0.67762900  0.94409700  0.12551100  1
  O  O13  1  0.17762900  0.05590300  0.37448900  1
  O  O14  1  0.42619500  0.39203800  0.77360300  1
  O  O15  1  0.92619500  0.60796200  0.72639700  1
  O  O16  1  0.57380500  0.60796200  0.22639700  1
  O  O17  1  0.07380500  0.39203800  0.27360300  1
  O  O18  1  0.42226100  0.22496500  0.04264200  1
  O  O19  1  0.92226100  0.77503500  0.45735800  1
  O  O20  1  0.57773900  0.77503500  0.95735800  1
  O  O21  1  0.07773900  0.22496500  0.54264200  1
  O  O22  1  0.43344800  0.29820500  0.50190700  1
  O  O23  1  0.76435600  0.59354500  0.58715400  1
  O  O24  1  0.73564400  0.59354500  0.08715400  1
  O  O25  1  0.23564400  0.40645500  0.41284600  1
  O  O26  1  0.38517700  0.83524000  0.66494100  1
  O  O27  1  0.26435600  0.40645500  0.91284600  1
loop_
_geom_bond_atom_site_label_1
_geom_bond_atom_site_label_2
_geom_bond_distance
_geom_bond_site_symmetry_2
H0 O9 0.998660 1_555
H0 O23 1.671141 1_555
H1 O8 0.998660 1_556
H1 O27 1.671141 1_555
H2 O22 0.998660 1_555
H2 O25 1.671141 1_555
H3 O6 0.998660 1_554
H3 O24 1.671141 1_555
H4 O9 0.993981 1_555
H5 O8 0.993981 1_555
H6 O5 0.997917 1_545
H6 Rb0 3.067138 1_545
H7 O4 0.997917 1_565
H7 Rb1 3.067138 1_565
H8 O3 0.997917 1_565
H8 Rb2 3.067138 1_565
H9 O2 0.997917 1_545
H9 Rb3 3.067138 1_545
H10 O26 0.992159 1_555
H11 O1 0.992159 1_555
H12 O0 0.992159 1_555
H13 O7 0.992159 1_555
H14 O26 0.995385 1_555
H15 O1 0.995385 1_555
H16 O0 0.995385 1_555
H17 O7 0.995385 1_555
H18 O4 0.995457 1_565
H19 O5 0.995457 1_545
H20 O6 0.993981 1_555
H21 O22 0.993981 1_555
H22 O3 0.995457 1_565
H23 O2 0.995457 1_545
O0 Zn0 2.156814 1_555
O0 Rb1 3.249800 1_555
O1 Zn1 2.156814 1_656
O1 Rb2 3.249800 1_555
O2 Zn1 2.183840 1_566
O2 Rb3 3.094316 1_555
O3 Zn0 2.183840 1_555
O3 Rb2 3.094316 1_555
O4 Zn1 2.183840 1_655
O4 Rb1 3.094316 1_555
O5 Zn0 2.183840 1_565
O5 Rb0 3.094316 1_555
O6 Zn1 2.068700 1_666
O7 Zn1 2.156814 1_565
O7 Rb0 3.249800 1_555
O8 Zn1 2.068700 1_555
O9 Zn0 2.068700 1_565
O10 S1 1.501885 1_555
O10 Rb0 3.003032 1_546
O11 S0 1.501885 1_555
O11 Rb1 3.003032 1_565
O12 S3 1.501885 1_555
O12 Rb2 3.003032 1_564
O13 S2 1.501885 1_555
O13 Rb3 3.003032 1_545
O14 S1 1.501266 1_555
O14 Rb2 2.929752 1_555
O15 S0 1.501266 1_555
O15 Rb3 2.929752 1_655
O16 S3 1.501266 1_555
O16 Rb0 2.929752 1_555
O17 S2 1.501266 1_555
O17 Rb1 2.929752 1_455
O18 S1 1.487195 1_554
O18 Rb0 3.149704 1_555
O18 Rb2 3.261065 1_554
O19 S0 1.487195 1_555
O19 Rb1 3.149704 1_555
O19 Rb3 3.261065 1_655
O20 S3 1.487195 1_556
O20 Rb2 3.149704 1_555
O20 Rb0 3.261065 1_556
O21 S2 1.487195 1_555
O21 Rb3 3.149704 1_555
O21 Rb1 3.261065 1_455
O22 Zn0 2.068700 1_555
O23 S0 1.494480 1_555
O23 Rb2 3.027905 1_555
O23 Rb1 3.054620 1_555
O24 S3 1.494480 1_555
O24 Rb1 3.027905 1_555
O24 Rb2 3.054620 1_554
O25 S2 1.494480 1_555
O25 Rb0 3.027905 1_555
O25 Rb3 3.054620 1_555
O26 Zn0 2.156814 1_565
O26 Rb3 3.249800 1_555
O27 S1 1.494480 1_555
O27 Rb3 3.027905 1_555
O27 Rb0 3.054620 1_556
