# generated using pymatgen
data_Co(BW)3
_symmetry_space_group_name_H-M   'P 1'
_cell_length_a   4.49934621
_cell_length_b   4.49934621
_cell_length_c   10.73894280
_cell_angle_alpha   90.00000000
_cell_angle_beta   90.00000000
_cell_angle_gamma   138.77222592
_symmetry_Int_Tables_number   1
_chemical_formula_structural   Co(BW)3
_chemical_formula_sum   'Co2 B6 W6'
_cell_volume   143.27863315
_cell_formula_units_Z   2
loop_
 _symmetry_equiv_pos_site_id
 _symmetry_equiv_pos_as_xyz
  1  'x, y, z'
loop_
 _atom_site_type_symbol
 _atom_site_label
 _atom_site_symmetry_multiplicity
 _atom_site_fract_x
 _atom_site_fract_y
 _atom_site_fract_z
 _atom_site_occupancy
  Co  Co0  1  0.50000000  0.50000000  0.00000000  1
  Co  Co1  1  0.50000000  0.50000000  0.50000000  1
  B  B0  1  0.79111508  0.20888492  0.25000000  1
  B  B1  1  0.20888492  0.79111508  0.75000000  1
  B  B2  1  0.08500581  0.91499419  0.60221369  1
  B  B3  1  0.91499419  0.08500581  0.39778631  1
  B  B4  1  0.91499419  0.08500581  0.10221369  1
  B  B5  1  0.08500581  0.91499419  0.89778631  1
  W  W0  1  0.49834286  0.50165714  0.25000000  1
  W  W1  1  0.50165714  0.49834286  0.75000000  1
  W  W2  1  0.78853559  0.21146441  0.60646931  1
  W  W3  1  0.21146441  0.78853559  0.39353069  1
  W  W4  1  0.21146441  0.78853559  0.10646931  1
  W  W5  1  0.78853559  0.21146441  0.89353069  1
loop_
_geom_bond_atom_site_label_1
_geom_bond_atom_site_label_2
_geom_bond_distance
_geom_bond_site_symmetry_2
Co0 W4 2.643633 1_545
Co0 W5 2.643633 1_564
Co0 W4 2.643633 1_655
Co0 W5 2.643633 1_454
Co0 W4 2.685736 1_555
Co0 W5 2.685736 1_554
Co1 W3 2.643633 1_545
Co1 W2 2.643633 1_455
Co1 W2 2.643633 1_565
Co1 W3 2.643633 1_655
Co1 W3 2.685736 1_555
Co1 W2 2.685736 1_555
B0 B3 1.899322 1_555
B0 B4 1.899322 1_555
B0 W3 2.309799 1_655
B0 W4 2.309799 1_545
B0 W4 2.309799 1_655
B0 W3 2.309799 1_545
B0 W0 2.357047 1_655
B0 W0 2.357047 1_545
B0 W0 2.465887 1_555
B1 B5 1.899322 1_555
B1 B2 1.899322 1_555
B1 W5 2.309799 1_455
B1 W2 2.309799 1_455
B1 W5 2.309799 1_565
B1 W2 2.309799 1_565
B1 W1 2.357047 1_565
B1 W1 2.357047 1_455
B1 W1 2.465887 1_555
B2 Co1 2.055914 1_455
B2 Co1 2.055914 1_565
B2 W2 2.334525 1_455
B2 W2 2.334525 1_565
B2 W1 2.349661 1_565
B2 W1 2.349661 1_455
B2 W3 2.481266 1_555
B2 W2 2.497452 1_465
B3 Co1 2.055914 1_545
B3 Co1 2.055914 1_655
B3 W3 2.334525 1_545
B3 W3 2.334525 1_655
B3 W0 2.349661 1_655
B3 W0 2.349661 1_545
B3 W2 2.481266 1_555
B3 W3 2.497452 1_645
B4 Co0 2.055914 1_545
B4 Co0 2.055914 1_655
B4 W4 2.334525 1_655
B4 W4 2.334525 1_545
B4 W0 2.349661 1_655
B4 W0 2.349661 1_545
B4 W5 2.481266 1_554
B4 W4 2.497452 1_645
B5 Co0 2.055914 1_566
B5 Co0 2.055914 1_456
B5 W5 2.334525 1_455
B5 W5 2.334525 1_565
B5 W1 2.349661 1_565
B5 W1 2.349661 1_455
B5 W4 2.481266 1_556
B5 W5 2.497452 1_465
