# generated using pymatgen
data_MgMn4ZnS8
_symmetry_space_group_name_H-M   'P 1'
_cell_length_a   7.21857370
_cell_length_b   7.23690510
_cell_length_c   7.23690571
_cell_angle_alpha   59.76607038
_cell_angle_beta   60.15069919
_cell_angle_gamma   60.15069443
_symmetry_Int_Tables_number   1
_chemical_formula_structural   MgMn4ZnS8
_chemical_formula_sum   'Mg1 Mn4 Zn1 S8'
_cell_volume   267.45487870
_cell_formula_units_Z   1
loop_
 _symmetry_equiv_pos_site_id
 _symmetry_equiv_pos_as_xyz
  1  'x, y, z'
loop_
 _atom_site_type_symbol
 _atom_site_label
 _atom_site_symmetry_multiplicity
 _atom_site_fract_x
 _atom_site_fract_y
 _atom_site_fract_z
 _atom_site_occupancy
  Mg  Mg0  1  0.90787134  0.86391828  0.86391828  1
  Mn  Mn0  1  0.02602058  0.49093174  0.49093174  1
  Mn  Mn1  1  0.52954017  0.48966933  0.99058309  1
  Mn  Mn2  1  0.52924944  0.48991970  0.48991970  1
  Mn  Mn3  1  0.52954017  0.99058309  0.48966933  1
  Zn  Zn0  1  0.15490639  0.11452120  0.11452120  1
  S  S0  1  0.28587514  0.25046396  0.25046396  1
  S  S1  1  0.28713082  0.24973530  0.71179272  1
  S  S2  1  0.28713082  0.71179272  0.24973530  1
  S  S3  1  0.75165831  0.24939266  0.24939266  1
  S  S4  1  0.31735241  0.72751304  0.72751304  1
  S  S5  1  0.76638455  0.72992457  0.27435645  1
  S  S6  1  0.76638455  0.27435645  0.72992457  1
  S  S7  1  0.76836231  0.72838896  0.72838896  1
loop_
_geom_bond_atom_site_label_1
_geom_bond_atom_site_label_2
_geom_bond_distance
_geom_bond_site_symmetry_2
Mg0 S4 2.420387 1_655
Mg0 S6 2.423122 1_565
Mg0 S5 2.423123 1_556
Mg0 S7 2.423510 1_555
Mn0 S5 2.434737 1_455
Mn0 S6 2.434737 1_455
Mn0 S7 2.444625 1_455
Mn0 S1 2.463415 1_555
Mn0 S2 2.463415 1_555
Mn0 S0 2.475159 1_555
Mn1 S4 2.431370 1_555
Mn1 S7 2.442182 1_555
Mn1 S6 2.450957 1_555
Mn1 S3 2.456973 1_556
Mn1 S0 2.467172 1_556
Mn1 S2 2.476400 1_556
Mn2 S6 2.439939 1_555
Mn2 S5 2.439939 1_555
Mn2 S4 2.448235 1_555
Mn2 S2 2.464549 1_555
Mn2 S1 2.464549 1_555
Mn2 S3 2.474881 1_555
Mn3 S4 2.431370 1_555
Mn3 S7 2.442182 1_555
Mn3 S5 2.450957 1_555
Mn3 S3 2.456973 1_565
Mn3 S0 2.467172 1_565
Mn3 S1 2.476400 1_565
S0 Zn0 2.378226 1_555
S1 Zn0 2.377268 1_556
S2 Zn0 2.377268 1_565
S3 Zn0 2.383597 1_655
