# generated using pymatgen
data_Nd4Bi3
_symmetry_space_group_name_H-M   'P 1'
_cell_length_a   8.38222800
_cell_length_b   8.38222881
_cell_length_c   8.38223985
_cell_angle_alpha   109.47124642
_cell_angle_beta   109.47124880
_cell_angle_gamma   109.47117979
_symmetry_Int_Tables_number   1
_chemical_formula_structural   Nd4Bi3
_chemical_formula_sum   'Nd8 Bi6'
_cell_volume   453.37451476
_cell_formula_units_Z   2
loop_
 _symmetry_equiv_pos_site_id
 _symmetry_equiv_pos_as_xyz
  1  'x, y, z'
loop_
 _atom_site_type_symbol
 _atom_site_label
 _atom_site_symmetry_multiplicity
 _atom_site_fract_x
 _atom_site_fract_y
 _atom_site_fract_z
 _atom_site_occupancy
  Nd  Nd0  1  0.14195264  0.14195335  0.14195391  1
  Nd  Nd1  1  0.85804592  0.50000096  0.00000040  1
  Nd  Nd2  1  0.99999963  0.85804511  0.49999984  1
  Nd  Nd3  1  0.50000007  -0.00000032  0.85804550  1
  Nd  Nd4  1  0.00000014  0.35804656  0.49999974  1
  Nd  Nd5  1  0.49999998  0.00000017  0.35804707  1
  Nd  Nd6  1  0.35804602  0.49999904  -0.00000024  1
  Nd  Nd7  1  0.64195536  0.64195451  0.64195419  1
  Bi  Bi0  1  0.25000039  0.62499944  0.37500043  1
  Bi  Bi1  1  0.37499939  0.25000002  0.62499955  1
  Bi  Bi2  1  0.12500034  0.75000036  0.87500008  1
  Bi  Bi3  1  0.87500040  0.12500006  0.74999972  1
  Bi  Bi4  1  0.62500010  0.37499987  0.25000051  1
  Bi  Bi5  1  0.74999961  0.87499986  0.12500030  1
loop_
_geom_bond_atom_site_label_1
_geom_bond_atom_site_label_2
_geom_bond_distance
_geom_bond_site_symmetry_2
Nd0 Nd4 3.727941 1_555
Nd0 Nd6 3.727951 1_555
Nd0 Nd5 3.727951 1_555
Nd1 Nd2 3.727940 1_555
Nd1 Nd7 3.727942 1_554
Nd1 Nd3 3.727951 1_554
Nd2 Nd7 3.727936 1_555
Nd2 Nd3 3.727946 1_665
Nd3 Nd7 3.727946 1_545
Nd4 Nd5 3.727952 1_455
Nd4 Nd6 3.727952 1_556
Nd5 Nd6 3.727957 1_545
Bi0 Nd4 3.224447 1_555
Bi0 Nd7 3.224454 1_555
Bi0 Nd5 3.224455 1_565
Bi0 Nd1 3.224460 1_455
Bi0 Nd0 3.483307 1_555
Bi0 Nd3 3.483308 1_565
Bi0 Nd2 3.483312 1_455
Bi0 Nd6 3.483317 1_555
Bi1 Nd5 3.224450 1_555
Bi1 Nd6 3.224451 1_556
Bi1 Nd2 3.224458 1_445
Bi1 Nd7 3.224460 1_555
Bi1 Nd4 3.483307 1_555
Bi1 Nd0 3.483310 1_555
Bi1 Nd1 3.483315 1_556
Bi1 Nd3 3.483316 1_555
Bi2 Nd3 3.224453 1_565
Bi2 Nd0 3.224453 1_566
Bi2 Nd4 3.224454 1_555
Bi2 Nd1 3.224457 1_456
Bi2 Nd7 3.483303 1_455
Bi2 Nd2 3.483309 1_455
Bi2 Nd5 3.483317 1_566
Bi2 Nd6 3.483317 1_556
Bi3 Nd5 3.224450 1_555
Bi3 Nd2 3.224453 1_545
Bi3 Nd0 3.224455 1_656
Bi3 Nd1 3.224463 1_556
Bi3 Nd6 3.483306 1_656
Bi3 Nd7 3.483308 1_545
Bi3 Nd3 3.483314 1_555
Bi3 Nd4 3.483316 1_655
Bi4 Nd4 3.224447 1_655
Bi4 Nd7 3.224449 1_555
Bi4 Nd6 3.224452 1_555
Bi4 Nd3 3.224460 1_554
Bi4 Nd2 3.483306 1_555
Bi4 Nd5 3.483313 1_555
Bi4 Nd1 3.483317 1_555
Bi4 Nd0 3.483320 1_555
Bi5 Nd0 3.224448 1_665
Bi5 Nd6 3.224454 1_555
Bi5 Nd3 3.224454 1_564
Bi5 Nd2 3.224456 1_555
Bi5 Nd1 3.483303 1_555
Bi5 Nd4 3.483313 1_665
Bi5 Nd5 3.483314 1_565
Bi5 Nd7 3.483319 1_554
