# generated using pymatgen
data_Co10Ge3O16
_symmetry_space_group_name_H-M   'P 1'
_cell_length_a   10.22824545
_cell_length_b   10.23133451
_cell_length_c   10.22050435
_cell_angle_alpha   33.77063131
_cell_angle_beta   33.77543852
_cell_angle_gamma   33.72340699
_symmetry_Int_Tables_number   1
_chemical_formula_structural   Co10Ge3O16
_chemical_formula_sum   'Co10 Ge3 O16'
_cell_volume   294.24960807
_cell_formula_units_Z   1
loop_
 _symmetry_equiv_pos_site_id
 _symmetry_equiv_pos_as_xyz
  1  'x, y, z'
loop_
 _atom_site_type_symbol
 _atom_site_label
 _atom_site_symmetry_multiplicity
 _atom_site_fract_x
 _atom_site_fract_y
 _atom_site_fract_z
 _atom_site_occupancy
  Co  Co0  1  0.75141597  0.75140971  0.24123548  1
  Co  Co1  1  0.75069093  0.24144581  0.75139068  1
  Co  Co2  1  0.24145426  0.75061405  0.75163276  1
  Co  Co3  1  0.75851331  0.24938796  0.24841946  1
  Co  Co4  1  0.24874873  0.24841562  0.75877577  1
  Co  Co5  1  0.24929154  0.75859813  0.24855963  1
  Co  Co6  1  0.49997594  0.50002472  0.50000223  1
  Co  Co7  1  0.99998535  0.50002545  0.50001318  1
  Co  Co8  1  0.50002568  0.49998925  -0.00001383  1
  Co  Co9  1  0.49998151  0.00004246  0.49996750  1
  Ge  Ge0  1  0.81154215  0.81155633  0.80959388  1
  Ge  Ge1  1  0.18845802  0.18842188  0.19043010  1
  Ge  Ge2  1  -0.00000114  0.00000681  0.99999003  1
  O  O0  1  0.37261001  0.87622269  0.37446571  1
  O  O1  1  0.87660935  0.37228918  0.37470920  1
  O  O2  1  0.37165168  0.37161930  0.88058180  1
  O  O3  1  0.62731255  0.12377284  0.62559101  1
  O  O4  1  0.12338498  0.62776438  0.62527045  1
  O  O5  1  0.62834130  0.62835737  0.11946047  1
  O  O6  1  0.66222994  0.11261443  0.11184540  1
  O  O7  1  0.11136404  0.11105245  0.66296993  1
  O  O8  1  0.11198519  0.66244404  0.11232016  1
  O  O9  1  0.88863584  0.88895973  0.33701036  1
  O  O10  1  0.88807796  0.33757347  0.88758824  1
  O  O11  1  0.33775766  0.88735082  0.88820632  1
  O  O12  1  0.62398340  0.62444952  0.62241235  1
  O  O13  1  0.12718587  0.12773903  0.12549032  1
  O  O14  1  0.37605072  0.37554473  0.37755755  1
  O  O15  1  0.87273827  0.87230483  0.87453388  1
loop_
_geom_bond_atom_site_label_1
_geom_bond_atom_site_label_2
_geom_bond_distance
_geom_bond_site_symmetry_2
Co0 O15 2.056877 1_554
Co0 O0 2.094405 1_555
Co0 O1 2.095462 1_555
Co0 O8 2.120708 1_655
Co0 O6 2.123908 1_565
Co0 O12 2.127197 1_555
Co1 O15 2.067144 1_545
Co1 O1 2.080628 1_555
Co1 O2 2.090942 1_555
Co1 O7 2.116824 1_655
Co1 O6 2.120695 1_556
Co1 O12 2.139437 1_555
Co2 O15 2.065144 1_455
Co2 O0 2.084618 1_555
Co2 O2 2.092363 1_555
Co2 O7 2.116008 1_565
Co2 O8 2.121280 1_556
Co2 O12 2.135762 1_555
Co3 O13 2.064839 1_655
Co3 O3 2.084454 1_555
Co3 O5 2.092216 1_555
Co3 O9 2.116131 1_545
Co3 O10 2.122016 1_554
Co3 O14 2.135577 1_555
Co4 O13 2.056895 1_556
Co4 O3 2.093271 1_555
Co4 O4 2.096536 1_555
Co4 O10 2.121114 1_455
Co4 O11 2.123383 1_545
Co4 O14 2.127383 1_555
Co5 O13 2.067207 1_565
Co5 O4 2.080952 1_555
Co5 O5 2.091124 1_555
Co5 O9 2.116669 1_455
Co5 O11 2.120148 1_554
Co5 O14 2.139557 1_555
Co6 O0 2.094180 1_555
Co6 O3 2.094534 1_555
Co6 O4 2.096062 1_555
Co6 O1 2.096330 1_555
Co6 O5 2.112570 1_555
Co6 O2 2.112756 1_555
Co7 O10 2.108295 1_555
Co7 O8 2.108993 1_655
Co7 O12 2.116956 1_555
Co7 O14 2.117007 1_655
Co7 O9 2.121615 1_555
Co7 O7 2.121966 1_655
Co8 O11 2.109432 1_554
Co8 O6 2.109452 1_555
Co8 O10 2.111152 1_554
Co8 O8 2.111168 1_555
Co8 O14 2.121978 1_555
Co8 O12 2.122005 1_554
Co9 O6 2.110897 1_555
Co9 O11 2.111455 1_545
Co9 O14 2.115782 1_555
Co9 O12 2.116093 1_545
Co9 O7 2.119515 1_555
Co9 O9 2.119683 1_545
Ge0 O5 1.778244 1_556
Ge0 O4 1.783728 1_655
Ge0 O3 1.783922 1_565
Ge0 O15 1.800628 1_555
Ge1 O2 1.778198 1_554
Ge1 O0 1.783712 1_545
Ge1 O1 1.783871 1_455
Ge1 O13 1.800726 1_555
Ge2 O8 1.889883 1_546
Ge2 O10 1.889891 1_455
Ge2 O6 1.890127 1_456
Ge2 O11 1.890139 1_545
Ge2 O7 1.891236 1_555
Ge2 O9 1.891241 1_446
