# generated using pymatgen
data_Cd(W3Br7)2
_symmetry_space_group_name_H-M   'P 1'
_cell_length_a   13.70908200
_cell_length_b   13.70908200
_cell_length_c   13.70908200
_cell_angle_alpha   90.00000000
_cell_angle_beta   90.00000000
_cell_angle_gamma   90.00000000
_symmetry_Int_Tables_number   1
_chemical_formula_structural   Cd(W3Br7)2
_chemical_formula_sum   'Cd4 W24 Br56'
_cell_volume   2576.47019253
_cell_formula_units_Z   4
loop_
 _symmetry_equiv_pos_site_id
 _symmetry_equiv_pos_as_xyz
  1  'x, y, z'
loop_
 _atom_site_type_symbol
 _atom_site_label
 _atom_site_symmetry_multiplicity
 _atom_site_fract_x
 _atom_site_fract_y
 _atom_site_fract_z
 _atom_site_occupancy
  Cd  Cd0  1  0.75000000  0.75000000  0.75000000  1
  Cd  Cd1  1  0.25000000  0.25000000  0.75000000  1
  Cd  Cd2  1  0.75000000  0.25000000  0.25000000  1
  Cd  Cd3  1  0.25000000  0.75000000  0.25000000  1
  W  W0  1  0.27348500  0.88191000  0.77875900  1
  W  W1  1  0.77875900  0.27348500  0.88191000  1
  W  W2  1  0.88191000  0.77875900  0.27348500  1
  W  W3  1  0.11809000  0.22124100  0.27348500  1
  W  W4  1  0.77875900  0.72651500  0.11809000  1
  W  W5  1  0.11809000  0.77875900  0.72651500  1
  W  W6  1  0.22124100  0.72651500  0.88191000  1
  W  W7  1  0.22124100  0.27348500  0.11809000  1
  W  W8  1  0.88191000  0.22124100  0.72651500  1
  W  W9  1  0.27348500  0.11809000  0.22124100  1
  W  W10  1  0.72651500  0.88191000  0.22124100  1
  W  W11  1  0.72651500  0.11809000  0.77875900  1
  W  W12  1  0.22651500  0.61809000  0.72124100  1
  W  W13  1  0.72124100  0.22651500  0.61809000  1
  W  W14  1  0.61809000  0.72124100  0.22651500  1
  W  W15  1  0.38191000  0.27875900  0.22651500  1
  W  W16  1  0.72124100  0.77348500  0.38191000  1
  W  W17  1  0.38191000  0.72124100  0.77348500  1
  W  W18  1  0.27875900  0.77348500  0.61809000  1
  W  W19  1  0.27875900  0.22651500  0.38191000  1
  W  W20  1  0.61809000  0.27875900  0.77348500  1
  W  W21  1  0.22651500  0.38191000  0.27875900  1
  W  W22  1  0.77348500  0.61809000  0.27875900  1
  W  W23  1  0.77348500  0.38191000  0.72124100  1
  Br  Br0  1  0.17146200  0.93357700  0.62395100  1
  Br  Br1  1  0.62395100  0.17146200  0.93357700  1
  Br  Br2  1  0.93357700  0.62395100  0.17146200  1
  Br  Br3  1  0.06642300  0.37604900  0.17146200  1
  Br  Br4  1  0.62395100  0.82853800  0.06642300  1
  Br  Br5  1  0.06642300  0.62395100  0.82853800  1
  Br  Br6  1  0.37604900  0.82853800  0.93357700  1
  Br  Br7  1  0.37604900  0.17146200  0.06642300  1
  Br  Br8  1  0.93357700  0.37604900  0.82853800  1
  Br  Br9  1  0.17146200  0.06642300  0.37604900  1
  Br  Br10  1  0.82853800  0.93357700  0.37604900  1
  Br  Br11  1  0.82853800  0.06642300  0.62395100  1
  Br  Br12  1  0.32853800  0.56642300  0.87604900  1
  Br  Br13  1  0.87604900  0.32853800  0.56642300  1
  Br  Br14  1  0.56642300  0.87604900  0.32853800  1
  Br  Br15  1  0.43357700  0.12395100  0.32853800  1
  Br  Br16  1  0.87604900  0.67146200  0.43357700  1
  Br  Br17  1  0.43357700  0.87604900  0.67146200  1
  Br  Br18  1  0.12395100  0.67146200  0.56642300  1
  Br  Br19  1  0.12395100  0.32853800  0.43357700  1
  Br  Br20  1  0.56642300  0.12395100  0.67146200  1
  Br  Br21  1  0.32853800  0.43357700  0.12395100  1
  Br  Br22  1  0.67146200  0.56642300  0.12395100  1
  Br  Br23  1  0.67146200  0.43357700  0.87604900  1
  Br  Br24  1  0.56613100  0.67434200  0.81206800  1
  Br  Br25  1  0.81206800  0.56613100  0.67434200  1
  Br  Br26  1  0.67434200  0.81206800  0.56613100  1
  Br  Br27  1  0.32565800  0.18793200  0.56613100  1
  Br  Br28  1  0.81206800  0.43386900  0.32565800  1
  Br  Br29  1  0.32565800  0.81206800  0.43386900  1
  Br  Br30  1  0.18793200  0.43386900  0.67434200  1
  Br  Br31  1  0.18793200  0.56613100  0.32565800  1
  Br  Br32  1  0.67434200  0.18793200  0.43386900  1
  Br  Br33  1  0.56613100  0.32565800  0.18793200  1
  Br  Br34  1  0.43386900  0.67434200  0.18793200  1
  Br  Br35  1  0.43386900  0.32565800  0.81206800  1
  Br  Br36  1  0.93386900  0.82565800  0.68793200  1
  Br  Br37  1  0.68793200  0.93386900  0.82565800  1
  Br  Br38  1  0.82565800  0.68793200  0.93386900  1
  Br  Br39  1  0.17434200  0.31206800  0.93386900  1
  Br  Br40  1  0.68793200  0.06613100  0.17434200  1
  Br  Br41  1  0.17434200  0.68793200  0.06613100  1
  Br  Br42  1  0.31206800  0.06613100  0.82565800  1
  Br  Br43  1  0.31206800  0.93386900  0.17434200  1
  Br  Br44  1  0.82565800  0.31206800  0.06613100  1
  Br  Br45  1  0.93386900  0.17434200  0.31206800  1
  Br  Br46  1  0.06613100  0.82565800  0.31206800  1
  Br  Br47  1  0.06613100  0.17434200  0.68793200  1
  Br  Br48  1  0.38703700  0.38703700  0.38703700  1
  Br  Br49  1  0.61296300  0.61296300  0.38703700  1
  Br  Br50  1  0.38703700  0.61296300  0.61296300  1
  Br  Br51  1  0.61296300  0.38703700  0.61296300  1
  Br  Br52  1  0.11296300  0.11296300  0.11296300  1
  Br  Br53  1  0.88703700  0.88703700  0.11296300  1
  Br  Br54  1  0.11296300  0.88703700  0.88703700  1
  Br  Br55  1  0.88703700  0.11296300  0.88703700  1
loop_
_geom_bond_atom_site_label_1
_geom_bond_atom_site_label_2
_geom_bond_distance
_geom_bond_site_symmetry_2
Br0 W0 2.638551 1_555
Br0 W18 2.643275 1_555
Br0 W5 2.648961 1_555
Br1 W1 2.638551 1_555
Br1 W20 2.643275 1_555
Br1 W11 2.648961 1_555
Br2 W2 2.638551 1_555
Br2 W22 2.643275 1_555
Br2 W4 2.648961 1_555
Br3 W3 2.638551 1_555
Br3 W21 2.643275 1_555
Br3 W7 2.648961 1_555
Br4 W4 2.638551 1_555
Br4 W14 2.643275 1_555
Br4 W10 2.648961 1_555
Br5 W5 2.638551 1_555
Br5 W12 2.643275 1_555
Br5 W6 2.648961 1_555
Br6 W6 2.638551 1_555
Br6 W17 2.643275 1_555
Br6 W0 2.648961 1_555
Br7 W7 2.638551 1_555
Br7 W15 2.643275 1_555
Br7 W9 2.648961 1_555
Br8 W8 2.638551 1_555
Br8 W23 2.643275 1_555
Br8 W1 2.648961 1_555
Br9 W9 2.638551 1_555
Br9 W19 2.643275 1_555
Br9 W3 2.648961 1_555
Br10 W10 2.638551 1_555
Br10 W16 2.643275 1_555
Br10 W2 2.648961 1_555
Br11 W11 2.638551 1_555
Br11 W13 2.643275 1_555
Br11 W8 2.648961 1_555
Br12 W12 2.638551 1_555
Br12 W6 2.643275 1_555
Br12 W17 2.648961 1_555
Br13 W13 2.638551 1_555
Br13 W8 2.643275 1_555
Br13 W23 2.648961 1_555
Br14 W14 2.638551 1_555
Br14 W10 2.643275 1_555
Br14 W16 2.648961 1_555
Br15 W15 2.638551 1_555
Br15 W9 2.643275 1_555
Br15 W19 2.648961 1_555
Br16 W16 2.638551 1_555
Br16 W2 2.643275 1_555
Br16 W22 2.648961 1_555
Br17 W17 2.638551 1_555
Br17 W0 2.643275 1_555
Br17 W18 2.648961 1_555
Br18 W18 2.638551 1_555
Br18 W5 2.643275 1_555
Br18 W12 2.648961 1_555
Br19 W19 2.638551 1_555
Br19 W3 2.643275 1_555
Br19 W21 2.648961 1_555
Br20 W20 2.638551 1_555
Br20 W11 2.643275 1_555
Br20 W13 2.648961 1_555
Br21 W21 2.638551 1_555
Br21 W7 2.643275 1_555
Br21 W15 2.648961 1_555
Br22 W22 2.638551 1_555
Br22 W4 2.643275 1_555
Br22 W14 2.648961 1_555
Br23 W23 2.638551 1_555
Br23 W1 2.643275 1_555
Br23 W20 2.648961 1_555
Br24 W17 2.659192 1_555
Br24 Cd0 2.855453 1_555
Br25 W23 2.659192 1_555
Br25 Cd0 2.855453 1_555
Br26 W16 2.659192 1_555
Br26 Cd0 2.855453 1_555
Br27 W19 2.659192 1_555
Br27 Cd1 2.855453 1_555
Br28 W22 2.659192 1_555
Br28 Cd2 2.855453 1_555
Br29 W18 2.659192 1_555
Br29 Cd3 2.855453 1_555
Br30 W12 2.659192 1_555
Br30 Cd1 2.855453 1_555
Br31 W21 2.659192 1_555
Br31 Cd3 2.855453 1_555
Br32 W13 2.659192 1_555
Br32 Cd2 2.855453 1_555
Br33 W15 2.659192 1_555
Br33 Cd2 2.855453 1_555
Br34 W14 2.659192 1_555
Br34 Cd3 2.855453 1_555
Br35 W20 2.659192 1_555
Br35 Cd1 2.855453 1_555
Br36 W5 2.659192 1_655
Br36 Cd0 2.855453 1_555
Br37 W11 2.659192 1_565
Br37 Cd0 2.855453 1_555
Br38 W4 2.659192 1_556
Br38 Cd0 2.855453 1_555
Br39 W7 2.659192 1_556
Br39 Cd1 2.855453 1_555
Br40 W10 2.659192 1_545
Br40 Cd2 2.855453 1_555
Br41 W6 2.659192 1_554
Br41 Cd3 2.855453 1_555
Br42 W0 2.659192 1_545
Br42 Cd1 2.855453 1_555
Br43 W9 2.659192 1_565
Br43 Cd3 2.855453 1_555
Br44 W1 2.659192 1_554
Br44 Cd2 2.855453 1_555
Br45 W3 2.659192 1_655
Br45 Cd2 2.855453 1_555
Br46 W2 2.659192 1_455
Br46 Cd3 2.855453 1_555
Br47 W8 2.659192 1_455
Br47 Cd1 2.855453 1_555
Br48 W19 2.655380 1_555
Br48 W15 2.655380 1_555
Br48 W21 2.655380 1_555
Br49 W16 2.655380 1_555
Br49 W14 2.655380 1_555
Br49 W22 2.655380 1_555
Br50 W17 2.655380 1_555
Br50 W12 2.655380 1_555
Br50 W18 2.655380 1_555
Br51 W23 2.655380 1_555
Br51 W20 2.655380 1_555
Br51 W13 2.655380 1_555
Br52 W7 2.655380 1_555
Br52 W9 2.655380 1_555
Br52 W3 2.655380 1_555
Br53 W10 2.655380 1_555
Br53 W4 2.655380 1_555
Br53 W2 2.655380 1_555
Br54 W6 2.655380 1_555
Br54 W5 2.655380 1_555
Br54 W0 2.655380 1_555
Br55 W8 2.655380 1_555
Br55 W11 2.655380 1_555
Br55 W1 2.655380 1_555
