# generated using pymatgen
data_Na4GaSi2SnPO12
_symmetry_space_group_name_H-M   'P 1'
_cell_length_a   9.01226491
_cell_length_b   9.01226461
_cell_length_c   22.32065627
_cell_angle_alpha   90.00700536
_cell_angle_beta   89.99299465
_cell_angle_gamma   119.74430645
_symmetry_Int_Tables_number   1
_chemical_formula_structural   Na4GaSi2SnPO12
_chemical_formula_sum   'Na24 Ga6 Si12 Sn6 P6 O72'
_cell_volume   1574.05060378
_cell_formula_units_Z   6
loop_
 _symmetry_equiv_pos_site_id
 _symmetry_equiv_pos_as_xyz
  1  'x, y, z'
loop_
 _atom_site_type_symbol
 _atom_site_label
 _atom_site_symmetry_multiplicity
 _atom_site_fract_x
 _atom_site_fract_y
 _atom_site_fract_z
 _atom_site_occupancy
  Na  Na0  1  0.63815755  0.00382028  0.25014275  1
  Na  Na1  1  0.36891777  0.36652548  0.24745592  1
  Na  Na2  1  0.99315723  0.62781806  0.24986730  1
  Na  Na3  1  0.63347452  0.63108223  0.74745592  1
  Na  Na4  1  0.99617972  0.36184245  0.75014275  1
  Na  Na5  1  0.37218194  0.00684277  0.74986730  1
  Na  Na6  1  0.30482455  0.33715328  0.58347575  1
  Na  Na7  1  0.03558477  0.69985848  0.58078892  1
  Na  Na8  1  0.65982423  0.96115106  0.58320030  1
  Na  Na9  1  0.30014152  0.96441523  0.08078892  1
  Na  Na10  1  0.66284672  0.69517545  0.08347575  1
  Na  Na11  1  0.03884894  0.34017577  0.08320030  1
  Na  Na12  1  0.97149055  0.67048728  0.91680975  1
  Na  Na13  1  0.70225077  0.03319248  0.91412292  1
  Na  Na14  1  0.32649023  0.29448506  0.91653430  1
  Na  Na15  1  0.96680752  0.29774923  0.41412292  1
  Na  Na16  1  0.32951272  0.02850945  0.41680975  1
  Na  Na17  1  0.70551494  0.67350977  0.41653430  1
  Na  Na18  1  0.99818428  0.99550190  0.49781450  1
  Na  Na19  1  0.00449810  0.00181572  0.99781450  1
  Na  Na20  1  0.66485128  0.32883490  0.83114750  1
  Na  Na21  1  0.67116510  0.33514872  0.33114750  1
  Na  Na22  1  0.33151728  0.66216890  0.16448150  1
  Na  Na23  1  0.33783110  0.66848272  0.66448150  1
  Ga  Ga0  1  0.98688149  0.99135038  0.35098941  1
  Ga  Ga1  1  0.00864962  0.01311851  0.85098941  1
  Ga  Ga2  1  0.65354849  0.32468338  0.68432241  1
  Ga  Ga3  1  0.67531662  0.34645151  0.18432241  1
  Ga  Ga4  1  0.32021449  0.65801738  0.01765641  1
  Ga  Ga5  1  0.34198262  0.67978551  0.51765641  1
  Si  Si0  1  0.70817736  0.70533017  0.25101369  1
  Si  Si1  1  0.99595522  0.28989826  0.25151064  1
  Si  Si2  1  0.29466983  0.29182264  0.75101369  1
  Si  Si3  1  0.71010174  0.00404478  0.75151064  1
  Si  Si4  1  0.37484436  0.03866317  0.58434669  1
  Si  Si5  1  0.66262222  0.62323126  0.58484364  1
  Si  Si6  1  0.96133683  0.62515564  0.08434669  1
  Si  Si7  1  0.37676874  0.33737778  0.08484364  1
  Si  Si8  1  0.04151036  0.37199717  0.91768069  1
  Si  Si9  1  0.32928822  0.95656526  0.91817764  1
  Si  Si10  1  0.62800283  0.95848964  0.41768069  1
  Si  Si11  1  0.04343474  0.67071178  0.41817764  1
  Sn  Sn0  1  0.99897700  0.99939860  0.64923546  1
  Sn  Sn1  1  0.00060140  0.00102300  0.14923546  1
  Sn  Sn2  1  0.66564400  0.33273160  0.98256846  1
  Sn  Sn3  1  0.66726840  0.33435600  0.48256846  1
  Sn  Sn4  1  0.33231000  0.66606560  0.31590246  1
  Sn  Sn5  1  0.33393440  0.66769000  0.81590246  1
  P  P0  1  0.29317402  0.00306480  0.25152083  1
  P  P1  1  0.99693520  0.70682598  0.75152083  1
  P  P2  1  0.95984102  0.33639780  0.58485383  1
  P  P3  1  0.66360220  0.04015898  0.08485383  1
  P  P4  1  0.62650702  0.66973180  0.91818783  1
  P  P5  1  0.33026820  0.37349298  0.41818783  1
  O  O0  1  0.21002132  0.03526963  0.30674581  1
  O  O1  1  0.83106927  0.78976463  0.30889819  1
  O  O2  1  0.96592872  0.16939572  0.30984563  1
  O  O3  1  0.21023537  0.16893073  0.80889819  1
  O  O4  1  0.96473037  0.78997868  0.80674581  1
  O  O5  1  0.83060428  0.03407128  0.80984563  1
  O  O6  1  0.78401649  0.95677214  0.69102589  1
  O  O7  1  0.17292001  0.21586411  0.69086054  1
  O  O8  1  0.03822939  0.82057119  0.69415223  1
  O  O9  1  0.78413589  0.82707999  0.19086054  1
  O  O10  1  0.04322786  0.21598351  0.19102589  1
  O  O11  1  0.17942881  0.96177061  0.19415223  1
  O  O12  1  0.87668832  0.36860263  0.64007881  1
  O  O13  1  0.49773627  0.12309763  0.64223119  1
  O  O14  1  0.63259572  0.50272872  0.64317863  1
  O  O15  1  0.87690237  0.50226373  0.14223119  1
  O  O16  1  0.63139737  0.12331168  0.14007881  1
  O  O17  1  0.49727128  0.36740428  0.14317863  1
  O  O18  1  0.45068349  0.29010514  0.02435889  1
  O  O19  1  0.83958701  0.54919711  0.02419354  1
  O  O20  1  0.70489639  0.15390419  0.02748523  1
  O  O21  1  0.45080289  0.16041299  0.52419354  1
  O  O22  1  0.70989486  0.54931651  0.52435889  1
  O  O23  1  0.84609581  0.29510361  0.52748523  1
  O  O24  1  0.54335432  0.70193663  0.97341281  1
  O  O25  1  0.16440227  0.45643163  0.97556519  1
  O  O26  1  0.29926172  0.83606272  0.97651263  1
  O  O27  1  0.54356837  0.83559773  0.47556519  1
  O  O28  1  0.29806337  0.45664568  0.47341281  1
  O  O29  1  0.16393728  0.70073828  0.47651263  1
  O  O30  1  0.11734949  0.62343914  0.35769289  1
  O  O31  1  0.50625301  0.88253111  0.35752754  1
  O  O32  1  0.37156239  0.48723819  0.36081923  1
  O  O33  1  0.11746889  0.49374699  0.85752754  1
  O  O34  1  0.37656086  0.88265051  0.85769289  1
  O  O35  1  0.51276181  0.62843761  0.86081923  1
  O  O36  1  0.02820957  0.84408879  0.41066445  1
  O  O37  1  0.81908789  0.98048986  0.41172849  1
  O  O38  1  0.17252892  0.19476165  0.41087373  1
  O  O39  1  0.01951014  0.18091211  0.91172849  1
  O  O40  1  0.15591121  0.97179043  0.91066445  1
  O  O41  1  0.80523835  0.82747108  0.91087373  1
  O  O42  1  0.97526761  0.17084648  0.58839923  1
  O  O43  1  0.18365058  0.02345207  0.58885560  1
  O  O44  1  0.83705370  0.81558114  0.58839971  1
  O  O45  1  0.97654793  0.81634942  0.08885560  1
  O  O46  1  0.82915352  0.02473239  0.08839923  1
  O  O47  1  0.18441886  0.16294630  0.08839971  1
  O  O48  1  0.69487657  0.17742179  0.74399745  1
  O  O49  1  0.48575489  0.31382286  0.74506149  1
  O  O50  1  0.83919592  0.52809465  0.74420673  1
  O  O51  1  0.68617714  0.51424511  0.24506149  1
  O  O52  1  0.82257821  0.30512343  0.24399745  1
  O  O53  1  0.47190535  0.16080408  0.24420673  1
  O  O54  1  0.64193461  0.50417948  0.92173223  1
  O  O55  1  0.85031758  0.35678507  0.92218860  1
  O  O56  1  0.50372070  0.14891414  0.92173271  1
  O  O57  1  0.64321493  0.14968242  0.42218860  1
  O  O58  1  0.49582052  0.35806539  0.42173223  1
  O  O59  1  0.85108586  0.49627930  0.42173271  1
  O  O60  1  0.36154257  0.51075579  0.07733145  1
  O  O61  1  0.15242089  0.64715686  0.07839549  1
  O  O62  1  0.50586192  0.86142865  0.07754073  1
  O  O63  1  0.35284314  0.84757911  0.57839549  1
  O  O64  1  0.48924421  0.63845743  0.57733145  1
  O  O65  1  0.13857135  0.49413808  0.57754073  1
  O  O66  1  0.30860061  0.83751348  0.25506623  1
  O  O67  1  0.51698358  0.69011907  0.25552260  1
  O  O68  1  0.17038670  0.48224814  0.25506671  1
  O  O69  1  0.30988093  0.48301642  0.75552260  1
  O  O70  1  0.16248652  0.69139939  0.75506623  1
  O  O71  1  0.51775186  0.82961330  0.75506671  1
loop_
_geom_bond_atom_site_label_1
_geom_bond_atom_site_label_2
_geom_bond_distance
_geom_bond_site_symmetry_2
Na0 O52 2.382550 1_555
Na0 O67 2.477168 1_545
Na0 O53 2.523401 1_555
Na0 O66 2.581201 1_545
Na0 O31 2.657762 1_545
Na0 O16 2.695284 1_555
Na0 O9 2.845552 1_545
Na0 O2 2.890515 1_555
Na1 O53 2.451844 1_555
Na1 O68 2.483806 1_555
Na1 O51 2.484621 1_555
Na1 O67 2.540951 1_555
Na1 O17 2.597274 1_555
Na1 O32 2.749606 1_555
Na1 O10 2.844582 1_555
Na1 O0 2.910831 1_555
Na2 O51 2.429688 1_555
Na2 O66 2.517113 1_655
Na2 O68 2.522908 1_655
Na2 O52 2.530199 1_555
Na2 O15 2.640781 1_555
Na2 O30 2.662928 1_655
Na2 O1 2.848631 1_555
Na2 O11 2.899976 1_655
Na3 O50 2.451844 1_555
Na3 O71 2.483806 1_555
Na3 O49 2.484621 1_555
Na3 O69 2.540952 1_555
Na3 O14 2.597274 1_555
Na3 O35 2.749606 1_555
Na3 O6 2.844582 1_555
Na3 O4 2.910831 1_555
Na4 O48 2.382550 1_555
Na4 O69 2.477169 1_655
Na4 O50 2.523401 1_555
Na4 O70 2.581201 1_655
Na4 O33 2.657762 1_655
Na4 O12 2.695284 1_555
Na4 O7 2.845552 1_655
Na4 O5 2.890515 1_555
Na5 O49 2.429688 1_555
Na5 O70 2.517113 1_545
Na5 O71 2.522908 1_545
Na5 O48 2.530199 1_555
Na5 O13 2.640781 1_555
Na5 O34 2.662928 1_545
Na5 O3 2.848631 1_555
Na5 O8 2.899976 1_545
Na6 O64 2.382555 1_555
Na6 O43 2.477168 1_555
Na6 O65 2.523415 1_555
Na6 O42 2.581201 1_455
Na6 O7 2.657762 1_555
Na6 O28 2.695269 1_555
Na6 O21 2.845552 1_555
Na6 O14 2.890515 1_555
Na7 O65 2.451828 1_555
Na7 O44 2.483806 1_455
Na7 O63 2.484612 1_555
Na7 O43 2.540951 1_565
Na7 O29 2.597248 1_555
Na7 O8 2.749606 1_555
Na7 O22 2.844582 1_455
Na7 O12 2.910831 1_455
Na8 O63 2.429696 1_555
Na8 O42 2.517113 1_565
Na8 O44 2.522908 1_555
Na8 O64 2.530191 1_555
Na8 O27 2.640760 1_555
Na8 O6 2.662928 1_555
Na8 O13 2.848631 1_565
Na8 O23 2.899976 1_565
Na9 O62 2.451828 1_555
Na9 O47 2.483806 1_565
Na9 O61 2.484612 1_555
Na9 O45 2.540952 1_455
Na9 O26 2.597248 1_554
Na9 O11 2.749606 1_555
Na9 O18 2.844582 1_565
Na9 O16 2.910831 1_565
Na10 O60 2.382555 1_555
Na10 O45 2.477169 1_555
Na10 O62 2.523415 1_555
Na10 O46 2.581201 1_565
Na10 O9 2.657762 1_555
Na10 O24 2.695269 1_554
Na10 O19 2.845552 1_555
Na10 O17 2.890515 1_555
Na11 O61 2.429696 1_555
Na11 O46 2.517113 1_455
Na11 O47 2.522908 1_555
Na11 O60 2.530191 1_555
Na11 O25 2.640760 1_554
Na11 O10 2.662928 1_555
Na11 O15 2.848631 1_455
Na11 O20 2.899976 1_455
Na12 O40 2.382550 1_655
Na12 O55 2.477177 1_555
Na12 O41 2.523401 1_555
Na12 O54 2.581192 1_555
Na12 O19 2.657741 1_556
Na12 O4 2.695284 1_555
Na12 O33 2.845552 1_655
Na12 O26 2.890515 1_655
Na13 O41 2.451844 1_545
Na13 O56 2.483789 1_555
Na13 O39 2.484621 1_655
Na13 O55 2.540942 1_555
Na13 O5 2.597274 1_555
Na13 O20 2.749581 1_556
Na13 O34 2.844582 1_545
Na13 O24 2.910831 1_545
Na14 O39 2.429688 1_555
Na14 O54 2.517118 1_555
Na14 O56 2.522923 1_555
Na14 O40 2.530199 1_545
Na14 O3 2.640781 1_555
Na14 O18 2.662913 1_556
Na14 O25 2.848631 1_555
Na14 O35 2.899976 1_555
Na15 O38 2.451844 1_655
Na15 O59 2.483789 1_555
Na15 O37 2.484621 1_545
Na15 O57 2.540942 1_555
Na15 O2 2.597274 1_555
Na15 O23 2.749581 1_555
Na15 O30 2.844582 1_655
Na15 O28 2.910831 1_655
Na16 O36 2.382550 1_545
Na16 O57 2.477177 1_555
Na16 O38 2.523401 1_555
Na16 O58 2.581192 1_555
Na16 O21 2.657741 1_555
Na16 O0 2.695284 1_555
Na16 O31 2.845552 1_545
Na16 O29 2.890515 1_545
Na17 O37 2.429688 1_555
Na17 O58 2.517117 1_555
Na17 O59 2.522923 1_555
Na17 O36 2.530199 1_655
Na17 O1 2.640781 1_555
Na17 O22 2.662913 1_555
Na17 O27 2.848631 1_555
Na17 O32 2.899976 1_555
Na18 O36 2.466756 1_655
Na18 O37 2.469751 1_555
Na18 O44 2.547509 1_555
Na18 O43 2.563126 1_665
Na18 O38 2.580659 1_665
Na18 O42 2.636463 1_565
Na19 O40 2.466756 1_545
Na19 O39 2.469751 1_555
Na19 O47 2.547509 1_556
Na19 O45 2.563126 1_446
Na19 O41 2.580659 1_445
Na19 O46 2.636463 1_456
Na20 O48 2.466756 1_555
Na20 O49 2.469751 1_555
Na20 O56 2.547509 1_555
Na20 O55 2.563126 1_555
Na20 O50 2.580659 1_555
Na20 O54 2.636463 1_555
Na21 O52 2.466756 1_555
Na21 O51 2.469751 1_555
Na21 O59 2.547509 1_555
Na21 O57 2.563126 1_555
Na21 O53 2.580659 1_555
Na21 O58 2.636463 1_555
Na22 O60 2.466756 1_555
Na22 O61 2.469751 1_555
Na22 O68 2.547509 1_555
Na22 O67 2.563126 1_555
Na22 O62 2.580659 1_555
Na22 O66 2.636463 1_555
Na23 O64 2.466756 1_555
Na23 O63 2.469751 1_555
Na23 O71 2.547509 1_555
Na23 O69 2.563126 1_555
Na23 O65 2.580659 1_555
Na23 O70 2.636463 1_555
Ga0 O1 1.903576 1_555
Ga0 O2 1.937732 1_565
Ga0 O37 1.996751 1_555
Ga0 O36 2.040909 1_655
Ga0 O0 2.094233 1_665
Ga0 O38 2.214294 1_665
Ga1 O3 1.903576 1_555
Ga1 O5 1.937732 1_455
Ga1 O39 1.996751 1_555
Ga1 O40 2.040909 1_545
Ga1 O4 2.094233 1_445
Ga1 O41 2.214294 1_445
Ga2 O13 1.903576 1_555
Ga2 O14 1.937732 1_555
Ga2 O49 1.996751 1_555
Ga2 O48 2.040909 1_555
Ga2 O12 2.094233 1_555
Ga2 O50 2.214294 1_555
Ga3 O15 1.903576 1_555
Ga3 O17 1.937732 1_555
Ga3 O51 1.996751 1_555
Ga3 O52 2.040909 1_555
Ga3 O16 2.094233 1_555
Ga3 O53 2.214294 1_555
Ga4 O25 1.903576 1_554
Ga4 O26 1.937732 1_554
Ga4 O61 1.996751 1_555
Ga4 O60 2.040909 1_555
Ga4 O24 2.094233 1_554
Ga4 O62 2.214294 1_555
Ga5 O27 1.903576 1_555
Ga5 O29 1.937732 1_555
Ga5 O63 1.996751 1_555
Ga5 O64 2.040909 1_555
Ga5 O28 2.094233 1_555
Ga5 O65 2.214294 1_555
O0 P0 1.542978 1_555
O1 Si0 1.624452 1_555
O2 Si1 1.629933 1_555
O3 Si2 1.624452 1_555
O4 P1 1.542978 1_555
O5 Si3 1.629933 1_555
O6 Si3 1.652013 1_565
O6 Sn0 2.007962 1_555
O7 Si2 1.652305 1_555
O7 Sn0 2.022833 1_445
O8 P1 1.565467 1_455
O8 Sn0 2.072165 1_455
O9 Si0 1.652305 1_555
O9 Sn1 2.022833 1_665
O10 Si1 1.652013 1_455
O10 Sn1 2.007962 1_555
O11 P0 1.565467 1_565
O11 Sn1 2.072165 1_565
O12 P2 1.542978 1_555
O13 Si4 1.624452 1_555
O14 Si5 1.629933 1_555
O15 Si6 1.624452 1_555
O16 P3 1.542978 1_555
O17 Si7 1.629933 1_555
O18 Si7 1.652013 1_555
O18 Sn2 2.007962 1_554
O19 Si6 1.652305 1_555
O19 Sn2 2.022833 1_554
O20 P3 1.565467 1_555
O20 Sn2 2.072165 1_554
O21 Si4 1.652305 1_555
O21 Sn3 2.022833 1_555
O22 Si5 1.652013 1_555
O22 Sn3 2.007962 1_555
O23 P2 1.565467 1_555
O23 Sn3 2.072165 1_555
O24 P4 1.542978 1_555
O25 Si8 1.624452 1_555
O26 Si9 1.629933 1_555
O27 Si10 1.624452 1_555
O28 P5 1.542978 1_555
O29 Si11 1.629933 1_555
O30 Si11 1.652013 1_555
O30 Sn4 2.007962 1_555
O31 Si10 1.652305 1_555
O31 Sn4 2.022833 1_555
O32 P5 1.565467 1_555
O32 Sn4 2.072165 1_555
O33 Si8 1.652305 1_555
O33 Sn5 2.022833 1_555
O34 Si9 1.652013 1_555
O34 Sn5 2.007962 1_555
O35 P4 1.565467 1_555
O35 Sn5 2.072165 1_555
O36 Si11 1.643541 1_555
O37 Si10 1.638222 1_555
O38 P5 1.539486 1_555
O39 Si8 1.638222 1_555
O40 Si9 1.643541 1_555
O41 P4 1.539486 1_555
O42 P2 1.567638 1_555
O42 Sn0 2.145970 1_545
O43 Si4 1.662388 1_555
O43 Sn0 2.067571 1_445
O44 Si5 1.666907 1_555
O44 Sn0 2.078206 1_555
O45 Si6 1.662388 1_555
O45 Sn1 2.067571 1_665
O46 P3 1.567638 1_555
O46 Sn1 2.145970 1_655
O47 Si7 1.666907 1_555
O47 Sn1 2.078206 1_555
O48 Si3 1.643541 1_555
O49 Si2 1.638222 1_555
O50 P1 1.539486 1_555
O51 Si0 1.638222 1_555
O52 Si1 1.643541 1_555
O53 P0 1.539486 1_555
O54 P4 1.567651 1_555
O54 Sn2 2.145970 1_555
O55 Si8 1.662374 1_655
O55 Sn2 2.067571 1_555
O56 Si9 1.666905 1_545
O56 Sn2 2.078206 1_555
O57 Si10 1.662374 1_545
O57 Sn3 2.067571 1_555
O58 P5 1.567651 1_555
O58 Sn3 2.145970 1_555
O59 Si11 1.666905 1_655
O59 Sn3 2.078206 1_555
O60 Si7 1.643552 1_555
O61 Si6 1.638207 1_455
O62 P3 1.539482 1_565
O63 Si4 1.638207 1_565
O64 Si5 1.643553 1_555
O65 P2 1.539482 1_455
O66 P0 1.567638 1_565
O66 Sn4 2.145970 1_555
O67 Si0 1.662388 1_555
O67 Sn4 2.067571 1_555
O68 Si1 1.666907 1_455
O68 Sn4 2.078206 1_555
O69 Si2 1.662388 1_555
O69 Sn5 2.067571 1_555
O70 P1 1.567638 1_455
O70 Sn5 2.145970 1_555
O71 Si3 1.666907 1_565
O71 Sn5 2.078206 1_555
