# generated using pymatgen
data_NaNb10O18
_symmetry_space_group_name_H-M   'P 1'
_cell_length_a   9.41229886
_cell_length_b   7.91976122
_cell_length_c   10.39415442
_cell_angle_alpha   69.48239958
_cell_angle_beta   90.00012182
_cell_angle_gamma   90.00013363
_symmetry_Int_Tables_number   1
_chemical_formula_structural   NaNb10O18
_chemical_formula_sum   'Na2 Nb20 O36'
_cell_volume   725.66250491
_cell_formula_units_Z   2
loop_
 _symmetry_equiv_pos_site_id
 _symmetry_equiv_pos_as_xyz
  1  'x, y, z'
loop_
 _atom_site_type_symbol
 _atom_site_label
 _atom_site_symmetry_multiplicity
 _atom_site_fract_x
 _atom_site_fract_y
 _atom_site_fract_z
 _atom_site_occupancy
  Na  Na0  1  0.00000035  0.00000038  0.00000102  1
  Na  Na1  1  0.49999930  0.00000001  0.50000047  1
  Nb  Nb0  1  0.38378115  0.00400918  0.83163137  1
  Nb  Nb1  1  0.37037529  0.82043915  0.12239183  1
  Nb  Nb2  1  0.37315919  0.19612723  0.01831266  1
  Nb  Nb3  1  0.37134682  0.60267859  0.43966479  1
  Nb  Nb4  1  0.11621954  0.00400941  0.33162942  1
  Nb  Nb5  1  0.88378651  0.99599415  0.66836941  1
  Nb  Nb6  1  0.12962558  0.82043840  0.62238960  1
  Nb  Nb7  1  0.87038775  0.17956552  0.37760694  1
  Nb  Nb8  1  0.12865165  0.60268592  0.93966192  1
  Nb  Nb9  1  0.11335992  0.39531401  0.72819834  1
  Nb  Nb10  1  0.38663758  0.39531429  0.22819322  1
  Nb  Nb11  1  0.62682840  0.80386692  0.98168927  1
  Nb  Nb12  1  0.87135446  0.39731751  0.06033322  1
  Nb  Nb13  1  0.62864458  0.39731600  0.56033339  1
  Nb  Nb14  1  0.62961012  0.17956529  0.87760676  1
  Nb  Nb15  1  0.61621322  0.99599544  0.16837079  1
  Nb  Nb16  1  0.87317239  0.80386599  0.48168858  1
  Nb  Nb17  1  0.12684375  0.19612206  0.51831398  1
  Nb  Nb18  1  0.61335148  0.60468944  0.77180687  1
  Nb  Nb19  1  0.88665088  0.60469137  0.27180328  1
  O  O0  1  0.98776592  0.20112813  0.19595166  1
  O  O1  1  0.23455088  0.58766336  0.77420629  1
  O  O2  1  0.00591655  0.19888807  0.69792553  1
  O  O3  1  0.48775933  0.79887955  0.30404842  1
  O  O4  1  0.49629504  0.59968628  0.10720028  1
  O  O5  1  0.99409149  0.80110964  0.30207320  1
  O  O6  1  0.49152197  0.39453459  0.40096049  1
  O  O7  1  0.25324917  0.20272213  0.35371317  1
  O  O8  1  0.50370168  0.40031490  0.89279955  1
  O  O9  1  0.73853472  0.99057077  0.34900272  1
  O  O10  1  0.74445674  0.58381397  0.93132012  1
  O  O11  1  0.00370456  0.59968460  0.60720091  1
  O  O12  1  0.23853111  0.00943163  0.15099465  1
  O  O13  1  0.25553914  0.41618098  0.06868236  1
  O  O14  1  0.99152652  0.60546243  0.09903936  1
  O  O15  1  0.75312822  0.19654921  0.03914223  1
  O  O16  1  0.75554560  0.58381299  0.43132016  1
  O  O17  1  0.26146841  0.00943236  0.65099206  1
  O  O18  1  0.74675401  0.79727508  0.64628692  1
  O  O19  1  0.49408452  0.19888919  0.19792812  1
  O  O20  1  0.26544963  0.58766326  0.27420502  1
  O  O21  1  0.25313153  0.80345326  0.46085714  1
  O  O22  1  0.74687050  0.19654968  0.53914045  1
  O  O23  1  0.51223689  0.20112805  0.69595248  1
  O  O24  1  0.99629949  0.40031532  0.39279607  1
  O  O25  1  0.00847711  0.39453214  0.90096157  1
  O  O26  1  0.24675325  0.20272160  0.85371550  1
  O  O27  1  0.50590907  0.80110868  0.80207597  1
  O  O28  1  0.76546232  0.41233465  0.22579361  1
  O  O29  1  0.76146486  0.99056992  0.84900427  1
  O  O30  1  0.50847507  0.60546219  0.59903969  1
  O  O31  1  0.24445796  0.41618425  0.56868142  1
  O  O32  1  0.75324434  0.79727538  0.14628861  1
  O  O33  1  0.73453664  0.41233405  0.72579403  1
  O  O34  1  0.24686654  0.80345427  0.96086119  1
  O  O35  1  0.01223928  0.79887716  0.80404761  1
loop_
_geom_bond_atom_site_label_1
_geom_bond_atom_site_label_2
_geom_bond_distance
_geom_bond_site_symmetry_2
Na0 O12 2.755266 1_555
Na0 O29 2.755320 1_444
Na0 O34 2.903697 1_544
Na0 O15 2.903759 1_455
Na0 O26 2.927869 1_554
Na0 O32 2.927910 1_445
Na0 O25 2.928212 1_554
Na0 O14 2.928258 1_445
Na0 O5 2.979197 1_445
Na0 O2 2.979225 1_554
Na0 O35 2.995508 1_544
Na0 O0 2.995509 1_455
Na1 O17 2.755263 1_555
Na1 O9 2.755329 1_545
Na1 O21 2.903716 1_545
Na1 O22 2.903744 1_555
Na1 O7 2.927857 1_555
Na1 O18 2.927897 1_545
Na1 O6 2.928234 1_555
Na1 O30 2.928258 1_545
Na1 O19 2.979198 1_555
Na1 O27 2.979228 1_545
Na1 O3 2.995478 1_545
Na1 O23 2.995523 1_555
Nb0 O27 2.084225 1_545
Nb0 O23 2.084350 1_555
Nb0 O26 2.108575 1_555
Nb0 O34 2.119491 1_545
Nb0 O17 2.189983 1_555
Nb1 O12 2.044663 1_565
Nb1 O34 2.084890 1_554
Nb1 O3 2.142201 1_555
Nb1 O4 2.163270 1_555
Nb1 O20 2.196525 1_555
Nb2 O12 2.065055 1_555
Nb2 O26 2.069454 1_554
Nb2 O8 2.085161 1_554
Nb2 O19 2.193187 1_555
Nb2 O13 2.275213 1_555
Nb3 O31 2.004443 1_555
Nb3 O21 2.015065 1_555
Nb3 O3 2.016600 1_555
Nb3 O20 2.027003 1_555
Nb3 O30 2.106224 1_555
Nb3 O6 2.150247 1_555
Nb4 O5 2.084219 1_445
Nb4 O0 2.084334 1_455
Nb4 O7 2.108580 1_555
Nb4 O21 2.119475 1_545
Nb4 O12 2.189943 1_555
Nb5 O2 2.084191 1_665
Nb5 O35 2.084324 1_655
Nb5 O18 2.108631 1_555
Nb5 O22 2.119500 1_565
Nb5 O29 2.189989 1_555
Nb6 O17 2.044658 1_565
Nb6 O21 2.084896 1_555
Nb6 O35 2.142225 1_555
Nb6 O11 2.163267 1_555
Nb6 O1 2.196535 1_555
Nb7 O9 2.044728 1_545
Nb7 O22 2.084962 1_555
Nb7 O0 2.142159 1_555
Nb7 O24 2.163194 1_555
Nb7 O28 2.196494 1_555
Nb8 O13 2.004494 1_556
Nb8 O34 2.015045 1_555
Nb8 O35 2.016551 1_555
Nb8 O1 2.026999 1_555
Nb8 O14 2.106215 1_456
Nb8 O25 2.150285 1_555
Nb9 O11 1.959537 1_555
Nb9 O2 1.971010 1_555
Nb9 O31 2.026554 1_555
Nb9 O25 2.047298 1_555
Nb9 O26 2.051836 1_555
Nb9 O1 2.088333 1_555
Nb10 O4 1.959536 1_555
Nb10 O19 1.970991 1_555
Nb10 O13 2.026508 1_555
Nb10 O6 2.047344 1_555
Nb10 O7 2.051817 1_555
Nb10 O20 2.088340 1_555
Nb11 O29 2.065144 1_555
Nb11 O32 2.069533 1_556
Nb11 O4 2.085071 1_556
Nb11 O27 2.193129 1_555
Nb11 O10 2.275243 1_555
Nb12 O10 2.004486 1_554
Nb12 O15 2.015071 1_555
Nb12 O0 2.016557 1_555
Nb12 O28 2.026994 1_555
Nb12 O25 2.106173 1_654
Nb12 O14 2.150242 1_555
Nb13 O16 2.004507 1_555
Nb13 O22 2.015068 1_555
Nb13 O23 2.016534 1_555
Nb13 O33 2.026995 1_555
Nb13 O6 2.106170 1_555
Nb13 O30 2.150243 1_555
Nb14 O29 2.044740 1_545
Nb14 O15 2.084978 1_556
Nb14 O23 2.142122 1_555
Nb14 O8 2.163194 1_555
Nb14 O33 2.196493 1_555
Nb15 O19 2.084193 1_565
Nb15 O3 2.084323 1_555
Nb15 O32 2.108633 1_555
Nb15 O15 2.119484 1_565
Nb15 O9 2.189957 1_555
Nb16 O9 2.065162 1_555
Nb16 O18 2.069543 1_555
Nb16 O11 2.085074 1_655
Nb16 O5 2.193146 1_555
Nb16 O16 2.275227 1_555
Nb17 O17 2.064996 1_555
Nb17 O7 2.069475 1_555
Nb17 O24 2.085214 1_455
Nb17 O2 2.193175 1_555
Nb17 O31 2.275226 1_555
Nb18 O8 1.959510 1_555
Nb18 O27 1.970948 1_555
Nb18 O10 2.026553 1_555
Nb18 O30 2.047323 1_555
Nb18 O18 2.051871 1_555
Nb18 O33 2.088372 1_555
Nb19 O24 1.959513 1_555
Nb19 O5 1.970932 1_555
Nb19 O16 2.026582 1_555
Nb19 O14 2.047298 1_555
Nb19 O32 2.051868 1_555
Nb19 O28 2.088377 1_555
