# generated using pymatgen
data_NaMgSc3(SO4)6
_symmetry_space_group_name_H-M   'P 1'
_cell_length_a   8.78758518
_cell_length_b   8.78758490
_cell_length_c   22.92909244
_cell_angle_alpha   90.00000000
_cell_angle_beta   90.00000000
_cell_angle_gamma   120.00000106
_symmetry_Int_Tables_number   1
_chemical_formula_structural   NaMgSc3(SO4)6
_chemical_formula_sum   'Na3 Mg3 Sc9 S18 O72'
_cell_volume   1533.40393687
_cell_formula_units_Z   3
loop_
 _symmetry_equiv_pos_site_id
 _symmetry_equiv_pos_as_xyz
  1  'x, y, z'
loop_
 _atom_site_type_symbol
 _atom_site_label
 _atom_site_symmetry_multiplicity
 _atom_site_fract_x
 _atom_site_fract_y
 _atom_site_fract_z
 _atom_site_occupancy
  Na  Na0  1  -0.00000000  -0.00000000  0.99774152  1
  Na  Na1  1  0.66666700  0.33333300  0.83559084  1
  Na  Na2  1  0.66666700  0.33333300  0.33336960  1
  Mg  Mg0  1  -0.00000000  -0.00000000  0.35496579  1
  Mg  Mg1  1  -0.00000000  -0.00000000  0.85191641  1
  Mg  Mg2  1  0.66666700  0.33333300  0.98119458  1
  Sc  Sc0  1  -0.00000000  -0.00000000  0.64605290  1
  Sc  Sc1  1  -0.00000000  -0.00000000  0.14856765  1
  Sc  Sc2  1  0.66666700  0.33333300  0.68609862  1
  Sc  Sc3  1  0.66666700  0.33333300  0.18456138  1
  Sc  Sc4  1  0.66666700  0.33333300  0.48044456  1
  Sc  Sc5  1  0.33333300  0.66666700  0.02055867  1
  Sc  Sc6  1  0.33333300  0.66666700  0.52031987  1
  Sc  Sc7  1  0.33333300  0.66666700  0.31174037  1
  Sc  Sc8  1  0.33333300  0.66666700  0.81250692  1
  S  S0  1  0.28916190  0.00108522  0.25146087  1
  S  S1  1  0.71192332  0.71083810  0.25146087  1
  S  S2  1  0.99891478  0.28807668  0.25146087  1
  S  S3  1  0.28864158  0.28808377  0.75106480  1
  S  S4  1  0.99944219  0.71135842  0.75106480  1
  S  S5  1  0.71191623  0.00055781  0.75106480  1
  S  S6  1  0.95705311  0.33325302  0.58333061  1
  S  S7  1  0.37620091  0.04294689  0.58333061  1
  S  S8  1  0.66674698  0.62379909  0.58333061  1
  S  S9  1  0.95532216  0.62284795  0.08200631  1
  S  S10  1  0.66752679  0.04467784  0.08200631  1
  S  S11  1  0.37715205  0.33247321  0.08200631  1
  S  S12  1  0.62723069  0.66667874  0.91665490  1
  S  S13  1  0.03944704  0.37276931  0.91665490  1
  S  S14  1  0.33332126  0.96055296  0.91665490  1
  S  S15  1  0.62674096  0.95685683  0.41603258  1
  S  S16  1  0.33011487  0.37325904  0.41603258  1
  S  S17  1  0.04314317  0.66988513  0.41603258  1
  O  O0  1  0.20948706  0.03071515  0.30297187  1
  O  O1  1  0.82122809  0.79051294  0.30297187  1
  O  O2  1  0.96928485  0.17877191  0.30297187  1
  O  O3  1  0.20997114  0.17903618  0.80284229  1
  O  O4  1  0.96906503  0.79002886  0.80284229  1
  O  O5  1  0.82096382  0.03093497  0.80284229  1
  O  O6  1  0.79134411  0.97428488  0.69772235  1
  O  O7  1  0.18294077  0.20865589  0.69772235  1
  O  O8  1  0.02571512  0.81705923  0.69772235  1
  O  O9  1  0.79069035  0.81647342  0.19791418  1
  O  O10  1  0.02578308  0.20930965  0.19791418  1
  O  O11  1  0.18352658  0.97421692  0.19791418  1
  O  O12  1  0.87554613  0.36237874  0.63546701  1
  O  O13  1  0.48683361  0.12445387  0.63546701  1
  O  O14  1  0.63762126  0.51316639  0.63546701  1
  O  O15  1  0.87584708  0.51672475  0.13542883  1
  O  O16  1  0.64087867  0.12415292  0.13542883  1
  O  O17  1  0.48327525  0.35912133  0.13542883  1
  O  O18  1  0.45691324  0.30248416  0.03046459  1
  O  O19  1  0.84557193  0.54308676  0.03046459  1
  O  O20  1  0.69751584  0.15442807  0.03046459  1
  O  O21  1  0.45777217  0.15368197  0.53122520  1
  O  O22  1  0.69591080  0.54222783  0.53122520  1
  O  O23  1  0.84631803  0.30408920  0.53122520  1
  O  O24  1  0.54316767  0.69342860  0.96917598  1
  O  O25  1  0.15025993  0.45683233  0.96917598  1
  O  O26  1  0.30657140  0.84974007  0.96917598  1
  O  O27  1  0.54239488  0.85004165  0.46882980  1
  O  O28  1  0.30764576  0.45760512  0.46882980  1
  O  O29  1  0.14995835  0.69235424  0.46882980  1
  O  O30  1  0.12353057  0.63620161  0.36415065  1
  O  O31  1  0.51267004  0.87646943  0.36415065  1
  O  O32  1  0.36379839  0.48732996  0.36415065  1
  O  O33  1  0.12347915  0.48357015  0.86417610  1
  O  O34  1  0.36009000  0.87652085  0.86417610  1
  O  O35  1  0.51642985  0.63991000  0.86417610  1
  O  O36  1  0.02402482  0.82345642  0.40755275  1
  O  O37  1  0.79943160  0.97597518  0.40755275  1
  O  O38  1  0.17654358  0.20056840  0.40755275  1
  O  O39  1  0.02400061  0.19833808  0.90978180  1
  O  O40  1  0.17433747  0.97599939  0.90978180  1
  O  O41  1  0.80166192  0.82566253  0.90978180  1
  O  O42  1  0.97511621  0.17701644  0.59216828  1
  O  O43  1  0.20190024  0.02488379  0.59216828  1
  O  O44  1  0.82298356  0.79809976  0.59216828  1
  O  O45  1  0.97598463  0.80129977  0.09034553  1
  O  O46  1  0.82531514  0.02401537  0.09034553  1
  O  O47  1  0.19870023  0.17468486  0.09034553  1
  O  O48  1  0.69076747  0.15845871  0.74290831  1
  O  O49  1  0.46769224  0.30923253  0.74290831  1
  O  O50  1  0.84154129  0.53230776  0.74290831  1
  O  O51  1  0.69052393  0.53191489  0.24309858  1
  O  O52  1  0.84139196  0.30947607  0.24309858  1
  O  O53  1  0.46808511  0.15860804  0.24309858  1
  O  O54  1  0.64270946  0.50774917  0.92359748  1
  O  O55  1  0.86504071  0.35729054  0.92359748  1
  O  O56  1  0.49225083  0.13495929  0.92359748  1
  O  O57  1  0.64216074  0.13398591  0.42357709  1
  O  O58  1  0.49182616  0.35783926  0.42357709  1
  O  O59  1  0.86601409  0.50817384  0.42357709  1
  O  O60  1  0.35736915  0.48857120  0.07477782  1
  O  O61  1  0.13120105  0.64263085  0.07477782  1
  O  O62  1  0.51142880  0.86879895  0.07477782  1
  O  O63  1  0.35812474  0.86854647  0.57453120  1
  O  O64  1  0.51042073  0.64187526  0.57453120  1
  O  O65  1  0.13145353  0.48957927  0.57453120  1
  O  O66  1  0.30923624  0.84485691  0.25859539  1
  O  O67  1  0.53561967  0.69076376  0.25859539  1
  O  O68  1  0.15514309  0.46438033  0.25859539  1
  O  O69  1  0.30929638  0.46434310  0.75849228  1
  O  O70  1  0.15504572  0.69070362  0.75849228  1
  O  O71  1  0.53565690  0.84495428  0.75849228  1
loop_
_geom_bond_atom_site_label_1
_geom_bond_atom_site_label_2
_geom_bond_distance
_geom_bond_site_symmetry_2
Na0 O39 2.604278 1_555
Na0 O41 2.604278 1_445
Na0 O40 2.604278 1_545
Na0 O45 2.689499 1_446
Na0 O47 2.689499 1_556
Na0 O46 2.689499 1_456
Na1 O56 2.605404 1_555
Na1 O54 2.605404 1_555
Na1 O55 2.605404 1_555
Na1 O50 2.692208 1_555
Na1 O48 2.692208 1_555
Na1 O49 2.692208 1_555
Na2 O51 2.647175 1_555
Na2 O53 2.647175 1_555
Na2 O52 2.647175 1_555
Na2 O57 2.648781 1_555
Na2 O59 2.648781 1_555
Na2 O58 2.648781 1_555
Mg0 O38 2.057378 1_555
Mg0 O36 2.057378 1_545
Mg0 O37 2.057378 1_445
Mg0 O1 2.094305 1_445
Mg0 O2 2.094305 1_455
Mg0 O0 2.094305 1_555
Mg1 O4 2.059849 1_445
Mg1 O3 2.059849 1_555
Mg1 O5 2.059850 1_455
Mg1 O39 2.115428 1_555
Mg1 O41 2.115428 1_445
Mg1 O40 2.115428 1_545
Mg2 O19 2.060962 1_556
Mg2 O18 2.060962 1_556
Mg2 O20 2.060962 1_556
Mg2 O56 2.111936 1_555
Mg2 O54 2.111936 1_555
Mg2 O55 2.111936 1_555
O0 S0 1.461268 1_555
O1 S1 1.461268 1_555
O2 S2 1.461268 1_555
O3 S3 1.463967 1_555
O4 S4 1.463967 1_555
O5 S5 1.463967 1_555
O6 S5 1.482425 1_565
O6 Sc0 2.098175 1_665
O7 S3 1.482425 1_555
O7 Sc0 2.098175 1_555
O8 S4 1.482425 1_455
O8 Sc0 2.098175 1_565
O9 S1 1.485164 1_555
O9 Sc1 2.073149 1_665
O10 S2 1.485164 1_455
O10 Sc1 2.073148 1_555
O11 S0 1.485164 1_565
O11 Sc1 2.073149 1_565
O12 S6 1.480175 1_555
O12 Sc2 2.076929 1_555
O13 S7 1.480175 1_555
O13 Sc2 2.076929 1_555
O14 S8 1.480175 1_555
O14 Sc2 2.076929 1_555
O15 S9 1.485459 1_555
O15 Sc3 2.069510 1_555
O16 S10 1.485459 1_555
O16 Sc3 2.069510 1_555
O17 S11 1.485459 1_555
O17 Sc3 2.069510 1_555
O18 S11 1.463590 1_555
O19 S9 1.463590 1_555
O20 S10 1.463590 1_555
O21 S7 1.480063 1_555
O21 Sc4 2.078400 1_555
O22 S8 1.480063 1_555
O22 Sc4 2.078400 1_555
O23 S6 1.480063 1_555
O23 Sc4 2.078400 1_555
O24 S12 1.491590 1_555
O24 Sc5 2.099961 1_556
O25 S13 1.491590 1_555
O25 Sc5 2.099961 1_556
O26 S14 1.491590 1_555
O26 Sc5 2.099961 1_556
O27 S15 1.483322 1_555
O27 Sc6 2.098866 1_555
O28 S16 1.483322 1_555
O28 Sc6 2.098866 1_555
O29 S17 1.483322 1_555
O29 Sc6 2.098866 1_555
O30 S17 1.486905 1_555
O30 Sc7 2.102688 1_555
O31 S15 1.486905 1_555
O31 Sc7 2.102688 1_555
O32 S16 1.486905 1_555
O32 Sc7 2.102688 1_555
O33 S13 1.490719 1_555
O33 Sc8 2.103805 1_555
O34 S14 1.490719 1_555
O34 Sc8 2.103805 1_555
O35 S12 1.490719 1_555
O35 Sc8 2.103805 1_555
O36 S17 1.453947 1_555
O37 S15 1.453956 1_555
O38 S16 1.453952 1_555
O39 S13 1.478095 1_555
O40 S14 1.478086 1_555
O41 S12 1.478091 1_555
O42 S6 1.472806 1_555
O42 Sc0 2.081878 1_655
O43 S7 1.472815 1_555
O43 Sc0 2.081878 1_555
O44 S8 1.472811 1_555
O44 Sc0 2.081878 1_665
O45 S9 1.497973 1_555
O45 Sc1 2.122985 1_665
O46 S10 1.497964 1_555
O46 Sc1 2.122985 1_655
O47 S11 1.497969 1_555
O47 Sc1 2.122985 1_555
O48 S5 1.500911 1_555
O48 Sc2 2.104418 1_555
O49 S3 1.500920 1_555
O49 Sc2 2.104418 1_555
O50 S4 1.500916 1_555
O50 Sc2 2.104418 1_555
O51 S1 1.499531 1_555
O51 Sc3 2.127167 1_555
O52 S2 1.499522 1_555
O52 Sc3 2.127167 1_555
O53 S0 1.499527 1_555
O53 Sc3 2.127167 1_555
O54 S12 1.477945 1_555
O55 S13 1.477928 1_655
O56 S14 1.477935 1_545
O57 S15 1.503389 1_545
O57 Sc4 2.106672 1_555
O58 S16 1.503406 1_555
O58 Sc4 2.106672 1_555
O59 S17 1.503396 1_655
O59 Sc4 2.106672 1_555
O60 S11 1.475732 1_555
O60 Sc5 2.090464 1_555
O61 S9 1.475715 1_455
O61 Sc5 2.090464 1_555
O62 S10 1.475722 1_565
O62 Sc5 2.090464 1_555
O63 S7 1.473511 1_565
O63 Sc6 2.086446 1_555
O64 S8 1.473529 1_555
O64 Sc6 2.086446 1_555
O65 S6 1.473518 1_455
O65 Sc6 2.086446 1_555
O66 S0 1.478118 1_565
O66 Sc7 2.076832 1_555
O67 S1 1.478126 1_555
O67 Sc7 2.076832 1_555
O68 S2 1.478123 1_455
O68 Sc7 2.076832 1_555
O69 S3 1.476444 1_555
O69 Sc8 2.089028 1_555
O70 S4 1.476435 1_455
O70 Sc8 2.089028 1_555
O71 S5 1.476441 1_565
O71 Sc8 2.089028 1_555
