# generated using pymatgen
data_VInO4
_symmetry_space_group_name_H-M   'P 1'
_cell_length_a   5.14938625
_cell_length_b   5.14938670
_cell_length_c   6.64975999
_cell_angle_alpha   90.00000000
_cell_angle_beta   90.00000000
_cell_angle_gamma   111.96116977
_symmetry_Int_Tables_number   1
_chemical_formula_structural   VInO4
_chemical_formula_sum   'V2 In2 O8'
_cell_volume   163.53157049
_cell_formula_units_Z   2
loop_
 _symmetry_equiv_pos_site_id
 _symmetry_equiv_pos_as_xyz
  1  'x, y, z'
loop_
 _atom_site_type_symbol
 _atom_site_label
 _atom_site_symmetry_multiplicity
 _atom_site_fract_x
 _atom_site_fract_y
 _atom_site_fract_z
 _atom_site_occupancy
  V  V0  1  0.63953077  0.36046923  0.25000000  1
  V  V1  1  0.36046923  0.63953077  0.75000000  1
  In  In0  1  0.00000000  0.00000000  0.50000000  1
  In  In1  1  0.00000000  0.00000000  0.00000000  1
  O  O0  1  0.24793280  0.75206720  0.54432938  1
  O  O1  1  0.75206720  0.24793280  0.04432938  1
  O  O2  1  0.75206720  0.24793280  0.45567062  1
  O  O3  1  0.24793280  0.75206720  0.95567062  1
  O  O4  1  0.73293643  0.78142047  0.75000000  1
  O  O5  1  0.26706357  0.21857953  0.25000000  1
  O  O6  1  0.78142047  0.73293643  0.25000000  1
  O  O7  1  0.21857953  0.26706357  0.75000000  1
loop_
_geom_bond_atom_site_label_1
_geom_bond_atom_site_label_2
_geom_bond_distance
_geom_bond_site_symmetry_2
In0 O2 2.136814 1_455
In0 O0 2.136814 1_545
In0 O4 2.182669 1_445
In0 O5 2.182669 1_555
In0 O6 2.182669 1_445
In0 O7 2.182669 1_555
In1 O3 2.136814 1_544
In1 O1 2.136814 1_455
In1 O5 2.182669 1_555
In1 O4 2.182669 1_444
In1 O7 2.182669 1_554
In1 O6 2.182669 1_445
O0 V1 1.671315 1_555
O1 V0 1.671315 1_555
O2 V0 1.671315 1_555
O3 V1 1.671315 1_555
O4 V1 1.778854 1_555
O5 V0 1.778854 1_555
O6 V0 1.778855 1_555
O7 V1 1.778855 1_555
