# generated using pymatgen
data_LaInCu2
_symmetry_space_group_name_H-M   'P 1'
_cell_length_a   4.86653514
_cell_length_b   4.86653514
_cell_length_c   4.86653514
_cell_angle_alpha   60.00000000
_cell_angle_beta   60.00000000
_cell_angle_gamma   60.00000000
_symmetry_Int_Tables_number   1
_chemical_formula_structural   LaInCu2
_chemical_formula_sum   'La1 In1 Cu2'
_cell_volume   81.49755763
_cell_formula_units_Z   1
loop_
 _symmetry_equiv_pos_site_id
 _symmetry_equiv_pos_as_xyz
  1  'x, y, z'
loop_
 _atom_site_type_symbol
 _atom_site_label
 _atom_site_symmetry_multiplicity
 _atom_site_fract_x
 _atom_site_fract_y
 _atom_site_fract_z
 _atom_site_occupancy
  La  La0  1  0.50000000  0.50000000  0.50000000  1
  In  In0  1  0.00000000  0.00000000  0.00000000  1
  Cu  Cu0  1  0.25000000  0.25000000  0.25000000  1
  Cu  Cu1  1  0.75000000  0.75000000  0.75000000  1
loop_
_geom_bond_atom_site_label_1
_geom_bond_atom_site_label_2
_geom_bond_distance
_geom_bond_site_symmetry_2
In0 La0 3.441160 1_544
In0 La0 3.441160 1_445
In0 La0 3.441160 1_455
In0 La0 3.441160 1_545
In0 La0 3.441160 1_454
In0 La0 3.441160 1_554
Cu0 In0 2.980132 1_655
Cu0 La0 2.980132 1_545
Cu0 La0 2.980132 1_554
Cu0 La0 2.980132 1_555
Cu0 In0 2.980132 1_556
Cu0 In0 2.980132 1_555
Cu0 In0 2.980132 1_565
Cu0 La0 2.980132 1_455
Cu1 In0 2.980132 1_566
Cu1 La0 2.980132 1_556
Cu1 In0 2.980132 1_665
Cu1 In0 2.980132 1_656
Cu1 In0 2.980132 1_666
Cu1 La0 2.980132 1_555
Cu1 La0 2.980132 1_565
Cu1 La0 2.980132 1_655
