# generated using pymatgen
data_YbMnGe
_symmetry_space_group_name_H-M   'P 1'
_cell_length_a   6.85303130
_cell_length_b   6.85303130
_cell_length_c   4.38650800
_cell_angle_alpha   90.00000000
_cell_angle_beta   90.00000000
_cell_angle_gamma   119.99999327
_symmetry_Int_Tables_number   1
_chemical_formula_structural   YbMnGe
_chemical_formula_sum   'Yb3 Mn3 Ge3'
_cell_volume   178.40828482
_cell_formula_units_Z   3
loop_
 _symmetry_equiv_pos_site_id
 _symmetry_equiv_pos_as_xyz
  1  'x, y, z'
loop_
 _atom_site_type_symbol
 _atom_site_label
 _atom_site_symmetry_multiplicity
 _atom_site_fract_x
 _atom_site_fract_y
 _atom_site_fract_z
 _atom_site_occupancy
  Yb  Yb0  1  0.00000000  0.56859600  0.00000000  1
  Yb  Yb1  1  0.43140400  0.43140400  0.00000000  1
  Yb  Yb2  1  0.56859600  0.00000000  0.00000000  1
  Mn  Mn0  1  0.76775200  0.76775200  0.50000000  1
  Mn  Mn1  1  0.23224800  0.00000000  0.50000000  1
  Mn  Mn2  1  0.00000000  0.23224800  0.50000000  1
  Ge  Ge0  1  0.66666700  0.33333300  0.50000000  1
  Ge  Ge1  1  0.00000000  0.00000000  0.00000000  1
  Ge  Ge2  1  0.33333300  0.66666700  0.50000000  1
loop_
_geom_bond_atom_site_label_1
_geom_bond_atom_site_label_2
_geom_bond_distance
_geom_bond_site_symmetry_2
Ge0 Mn2 2.698250 1_655
Ge0 Mn1 2.698255 1_555
Ge0 Mn0 2.698257 1_555
Ge0 Yb2 2.990821 1_556
Ge0 Yb2 2.990821 1_555
Ge0 Yb0 2.990822 1_655
Ge0 Yb0 2.990822 1_656
Ge0 Yb1 2.990825 1_556
Ge0 Yb1 2.990825 1_555
Ge1 Mn1 2.709901 1_554
Ge1 Mn1 2.709901 1_555
Ge1 Mn2 2.709901 1_554
Ge1 Mn2 2.709901 1_555
Ge1 Mn0 2.709901 1_444
Ge1 Mn0 2.709901 1_445
Ge1 Yb2 2.956425 1_455
Ge1 Yb0 2.956425 1_545
Ge1 Yb1 2.956425 1_555
Ge2 Mn1 2.698250 1_565
Ge2 Mn2 2.698255 1_555
Ge2 Mn0 2.698257 1_555
Ge2 Yb0 2.990821 1_555
Ge2 Yb0 2.990821 1_556
Ge2 Yb2 2.990822 1_565
Ge2 Yb2 2.990822 1_566
Ge2 Yb1 2.990825 1_556
Ge2 Yb1 2.990825 1_555
