# generated using pymatgen
data_Li7SbO6
_symmetry_space_group_name_H-M   'P 1'
_cell_length_a   5.88613624
_cell_length_b   5.88613624
_cell_length_c   5.88613705
_cell_angle_alpha   57.13307666
_cell_angle_beta   57.13307666
_cell_angle_gamma   57.13307982
_symmetry_Int_Tables_number   1
_chemical_formula_structural   Li7SbO6
_chemical_formula_sum   'Li7 Sb1 O6'
_cell_volume   134.67734956
_cell_formula_units_Z   1
loop_
 _symmetry_equiv_pos_site_id
 _symmetry_equiv_pos_as_xyz
  1  'x, y, z'
loop_
 _atom_site_type_symbol
 _atom_site_label
 _atom_site_symmetry_multiplicity
 _atom_site_fract_x
 _atom_site_fract_y
 _atom_site_fract_z
 _atom_site_occupancy
  Li  Li0  1  0.65540600  0.65540600  0.65540600  1
  Li  Li1  1  0.72427600  0.12079800  0.49876200  1
  Li  Li2  1  0.49876200  0.72427600  0.12079800  1
  Li  Li3  1  0.12079800  0.49876200  0.72427600  1
  Li  Li4  1  0.23608600  0.93610900  0.48712000  1
  Li  Li5  1  0.48712000  0.23608600  0.93610900  1
  Li  Li6  1  0.93610900  0.48712000  0.23608600  1
  Sb  Sb0  1  0.00143300  0.00143300  0.00143300  1
  O  O0  1  0.07581500  0.79900900  0.37502900  1
  O  O1  1  0.88299400  0.23254600  0.64461800  1
  O  O2  1  0.64461800  0.88299400  0.23254600  1
  O  O3  1  0.79900900  0.37502900  0.07581500  1
  O  O4  1  0.37502900  0.07581500  0.79900900  1
  O  O5  1  0.23254600  0.64461800  0.88299400  1
loop_
_geom_bond_atom_site_label_1
_geom_bond_atom_site_label_2
_geom_bond_distance
_geom_bond_site_symmetry_2
Li0 O5 2.110450 1_555
Li0 O1 2.110450 1_555
Li0 O2 2.110450 1_555
Li0 O0 2.425958 1_655
Li0 O4 2.425958 1_565
Li0 O3 2.425958 1_556
Li1 O4 1.886544 1_555
Li1 O0 2.001829 1_645
Li1 O3 2.028034 1_555
Li1 O1 2.047673 1_555
Li2 O3 1.886544 1_555
Li2 O4 2.001829 1_564
Li2 O0 2.028034 1_555
Li2 O2 2.047673 1_555
Li3 O0 1.886544 1_555
Li3 O3 2.001829 1_456
Li3 O4 2.028034 1_555
Li3 O5 2.047673 1_555
Li4 O2 1.976643 1_555
Li4 O1 1.987941 1_465
Li4 O5 2.005167 1_555
Li4 O0 2.014016 1_555
Li5 O5 1.976644 1_555
Li5 O2 1.987941 1_546
Li5 O1 2.005167 1_555
Li5 O4 2.014016 1_555
Li6 O1 1.976644 1_555
Li6 O5 1.987941 1_654
Li6 O2 2.005167 1_555
Li6 O3 2.014017 1_555
O0 Sb0 2.020409 1_565
O1 Sb0 2.050977 1_656
O2 Sb0 2.050976 1_665
O3 Sb0 2.020409 1_655
O4 Sb0 2.020409 1_556
O5 Sb0 2.050977 1_566
