# generated using pymatgen
data_Na5Hf2In2SiP5O24
_symmetry_space_group_name_H-M   'P 1'
_cell_length_a   9.05525790
_cell_length_b   9.04847792
_cell_length_c   22.85160771
_cell_angle_alpha   89.98893113
_cell_angle_beta   89.97023104
_cell_angle_gamma   120.10920158
_symmetry_Int_Tables_number   1
_chemical_formula_structural   Na5Hf2In2SiP5O24
_chemical_formula_sum   'Na15 Hf6 In6 Si3 P15 O72'
_cell_volume   1619.73767300
_cell_formula_units_Z   3
loop_
 _symmetry_equiv_pos_site_id
 _symmetry_equiv_pos_as_xyz
  1  'x, y, z'
loop_
 _atom_site_type_symbol
 _atom_site_label
 _atom_site_symmetry_multiplicity
 _atom_site_fract_x
 _atom_site_fract_y
 _atom_site_fract_z
 _atom_site_occupancy
  Na  Na0  1  0.00364833  0.64035963  0.25169667  1
  Na  Na1  1  0.63115455  0.64077485  0.75200430  1
  Na  Na2  1  0.36843562  0.99630728  0.75262223  1
  Na  Na3  1  0.66512832  0.97198968  0.58570496  1
  Na  Na4  1  0.29650738  0.97045175  0.08354849  1
  Na  Na5  1  0.67898349  0.69902375  0.08201842  1
  Na  Na6  1  0.02621511  0.33091268  0.08456340  1
  Na  Na7  1  0.96613202  0.29974457  0.41638903  1
  Na  Na8  1  0.33812583  0.03639785  0.41915947  1
  Na  Na9  1  0.00564283  0.99022505  0.50068804  1
  Na  Na10  1  0.99997994  0.99334729  0.99701772  1
  Na  Na11  1  0.67883889  0.33143118  0.83964181  1
  Na  Na12  1  0.65506947  0.33449985  0.33524350  1
  Na  Na13  1  0.34095184  0.66703760  0.17241327  1
  Na  Na14  1  0.31874133  0.65558617  0.66881549  1
  Hf  Hf0  1  0.99587059  0.00263763  0.85468893  1
  Hf  Hf1  1  0.00401687  0.00127636  0.64771747  1
  Hf  Hf2  1  0.66890116  0.32830338  0.68492729  1
  Hf  Hf3  1  0.66656484  0.33122888  0.18577381  1
  Hf  Hf4  1  0.33015036  0.66676828  0.01484725  1
  Hf  Hf5  1  0.33245363  0.66560727  0.52066814  1
  In  In0  1  0.99412923  0.99552189  0.35001334  1
  In  In1  1  -0.00012883  0.99957354  0.15362891  1
  In  In2  1  0.66931996  0.33809649  0.98005731  1
  In  In3  1  0.66303327  0.33958191  0.48535051  1
  In  In4  1  0.34054098  0.66668211  0.31621505  1
  In  In5  1  0.33100999  0.66558801  0.81670042  1
  Si  Si0  1  0.70783022  0.00173359  0.74959009  1
  Si  Si1  1  0.36853445  0.03764155  0.58156179  1
  Si  Si2  1  0.96177265  0.62919106  0.08379999  1
  P  P0  1  0.29935058  0.00059531  0.25127295  1
  P  P1  1  0.70073954  0.70116704  0.24818171  1
  P  P2  1  0.99947987  0.29846638  0.25014537  1
  P  P3  1  0.28971713  0.29038197  0.75014215  1
  P  P4  1  0.99847990  0.71020367  0.75078564  1
  P  P5  1  0.96084124  0.33350817  0.58205211  1
  P  P6  1  0.66795152  0.62871290  0.58456820  1
  P  P7  1  0.66584286  0.04063121  0.08251661  1
  P  P8  1  0.37516110  0.33423265  0.08284549  1
  P  P9  1  0.62937229  0.66629764  0.91521192  1
  P  P10  1  0.03827762  0.37083912  0.91597058  1
  P  P11  1  0.33374171  0.96526951  0.91524474  1
  P  P12  1  0.62844697  0.96095289  0.41791894  1
  P  P13  1  0.33446023  0.37327066  0.41608754  1
  P  P14  1  0.03982780  0.66533237  0.41574977  1
  O  O0  1  0.22039054  0.02899240  0.30691399  1
  O  O1  1  0.82112587  0.78012735  0.30081231  1
  O  O2  1  0.97240882  0.19295658  0.30586977  1
  O  O3  1  0.20827339  0.17472223  0.80411607  1
  O  O4  1  0.97190666  0.79649952  0.80503699  1
  O  O5  1  0.82903044  0.02355046  0.80552728  1
  O  O6  1  0.79492015  0.97350192  0.69112091  1
  O  O7  1  0.18148263  0.20111191  0.69592295  1
  O  O8  1  0.02579499  0.82477510  0.69670238  1
  O  O9  1  0.77507421  0.80052849  0.19081915  1
  O  O10  1  0.02352356  0.22015968  0.19367873  1
  O  O11  1  0.19011168  0.96930088  0.19540597  1
  O  O12  1  0.87050159  0.36120712  0.63489164  1
  O  O13  1  0.49576296  0.13220708  0.63820188  1
  O  O14  1  0.64336132  0.52001128  0.63993623  1
  O  O15  1  0.87579326  0.50712144  0.14217741  1
  O  O16  1  0.63106058  0.12327870  0.13646857  1
  O  O17  1  0.49086970  0.36319478  0.13677898  1
  O  O18  1  0.44549342  0.29031172  0.02922155  1
  O  O19  1  0.83489965  0.54719396  0.02947333  1
  O  O20  1  0.70032217  0.15154468  0.02862897  1
  O  O21  1  0.44485429  0.14129322  0.52130263  1
  O  O22  1  0.70463822  0.55787014  0.52991416  1
  O  O23  1  0.85527946  0.29722938  0.52573326  1
  O  O24  1  0.53781537  0.68712044  0.97062147  1
  O  O25  1  0.14778608  0.45929219  0.97257462  1
  O  O26  1  0.31236577  0.84965367  0.97029262  1
  O  O27  1  0.53939065  0.85261004  0.47350382  1
  O  O28  1  0.31254412  0.46599178  0.46992807  1
  O  O29  1  0.16003654  0.68730808  0.46826228  1
  O  O30  1  0.11261461  0.63565772  0.35863801  1
  O  O31  1  0.51558355  0.88218685  0.36410662  1
  O  O32  1  0.35537117  0.47351513  0.36029806  1
  O  O33  1  0.12193390  0.47904208  0.86221512  1
  O  O34  1  0.35690185  0.88635537  0.85900898  1
  O  O35  1  0.52829754  0.64617319  0.85902549  1
  O  O36  1  0.03357315  0.83388386  0.41405587  1
  O  O37  1  0.80938503  0.98199105  0.41449456  1
  O  O38  1  0.16578770  0.19310848  0.41455804  1
  O  O39  1  0.03027473  0.19463697  0.91255034  1
  O  O40  1  0.16724523  0.97535185  0.91248072  1
  O  O41  1  0.80810041  0.83220024  0.91265290  1
  O  O42  1  0.97452577  0.17084393  0.59183552  1
  O  O43  1  0.17875022  0.01123715  0.59038287  1
  O  O44  1  0.82034348  0.81439300  0.59149843  1
  O  O45  1  0.99201564  0.82351215  0.08935791  1
  O  O46  1  0.82428254  0.01905710  0.09024144  1
  O  O47  1  0.19040545  0.18269215  0.09101156  1
  O  O48  1  0.68338623  0.17035320  0.74471320  1
  O  O49  1  0.47181109  0.30858653  0.74268961  1
  O  O50  1  0.83158077  0.53545319  0.74317435  1
  O  O51  1  0.68815570  0.52106306  0.24224741  1
  O  O52  1  0.83511199  0.31648699  0.24414509  1
  O  O53  1  0.47828016  0.16028173  0.24339615  1
  O  O54  1  0.64768959  0.50705562  0.91969306  1
  O  O55  1  0.85810075  0.34587158  0.92115206  1
  O  O56  1  0.49238316  0.14255172  0.92200573  1
  O  O57  1  0.65076708  0.14405068  0.42191935  1
  O  O58  1  0.48899546  0.34480901  0.41996964  1
  O  O59  1  0.86337917  0.50196960  0.42291756  1
  O  O60  1  0.36542523  0.50222980  0.07620942  1
  O  O61  1  0.15214230  0.64409948  0.07656625  1
  O  O62  1  0.50332864  0.85827873  0.07635473  1
  O  O63  1  0.36170213  0.85083044  0.57760951  1
  O  O64  1  0.50553681  0.64684167  0.57776441  1
  O  O65  1  0.14123864  0.49268239  0.57692342  1
  O  O66  1  0.31047771  0.83467431  0.25520128  1
  O  O67  1  0.52230717  0.67922689  0.25392878  1
  O  O68  1  0.15280891  0.48321416  0.25332140  1
  O  O69  1  0.31627984  0.47145462  0.75377132  1
  O  O70  1  0.15895134  0.69380619  0.75417247  1
  O  O71  1  0.51673937  0.83100733  0.75280855  1
loop_
_geom_bond_atom_site_label_1
_geom_bond_atom_site_label_2
_geom_bond_distance
_geom_bond_site_symmetry_2
Na0 O68 2.403031 1_555
Na0 O66 2.432382 1_555
Na0 O51 2.506040 1_455
Na0 O52 2.541714 1_455
Na0 O30 2.644253 1_555
Na0 O15 2.767873 1_455
Na0 O1 2.772477 1_455
Na0 O11 2.884222 1_555
Na1 O71 2.413698 1_555
Na1 O50 2.444962 1_555
Na1 O69 2.468951 1_555
Na1 O49 2.609844 1_555
Na1 O35 2.625681 1_555
Na1 O14 2.808315 1_555
Na1 O4 2.935546 1_555
Na1 O6 2.952252 1_555
Na2 O70 2.425337 1_555
Na2 O71 2.460874 1_555
Na2 O48 2.477825 1_565
Na2 O49 2.501565 1_565
Na2 O34 2.608748 1_555
Na2 O13 2.872496 1_565
Na2 O3 2.905571 1_565
Na2 O8 2.973546 1_555
Na3 O63 2.400809 1_555
Na3 O44 2.457134 1_555
Na3 O42 2.459538 1_565
Na3 O64 2.551860 1_555
Na3 O6 2.677919 1_555
Na3 O27 2.794161 1_555
Na3 O13 2.849976 1_565
Na3 O23 2.900984 1_565
Na4 O45 2.389416 1_455
Na4 O62 2.543936 1_555
Na4 O47 2.547842 1_565
Na4 O61 2.565517 1_555
Na4 O11 2.729369 1_555
Na4 O18 2.795945 1_565
Na4 O26 2.841073 1_554
Na4 O16 2.890276 1_565
Na5 O45 2.475667 1_555
Na5 O60 2.485596 1_555
Na5 O46 2.515946 1_565
Na5 O62 2.631172 1_555
Na5 O9 2.642642 1_555
Na5 O19 2.695823 1_555
Na5 O24 2.826856 1_554
Na5 O17 2.916246 1_555
Na6 O47 2.455961 1_555
Na6 O61 2.474253 1_555
Na6 O46 2.479081 1_455
Na6 O60 2.663911 1_555
Na6 O10 2.682667 1_555
Na6 O25 2.797018 1_554
Na6 O20 2.859361 1_455
Na6 O15 2.882494 1_455
Na7 O59 2.438119 1_555
Na7 O38 2.439581 1_655
Na7 O57 2.473647 1_555
Na7 O37 2.487745 1_545
Na7 O23 2.688129 1_555
Na7 O2 2.714989 1_555
Na8 O58 2.414428 1_555
Na8 O36 2.430464 1_545
Na8 O57 2.490195 1_555
Na8 O21 2.523086 1_555
Na8 O38 2.584069 1_555
Na8 O0 2.766137 1_555
Na8 O31 2.891401 1_545
Na8 O29 2.953523 1_545
Na9 O36 2.518706 1_555
Na9 O43 2.529611 1_565
Na9 O38 2.582941 1_565
Na9 O37 2.629501 1_455
Na9 O44 2.640032 1_455
Na9 O42 2.747996 1_465
Na10 O40 2.509386 1_655
Na10 O41 2.514854 1_555
Na10 O39 2.571994 1_665
Na10 O45 2.589751 1_556
Na10 O46 2.737077 1_566
Na10 O47 2.750176 1_666
Na11 O55 2.431443 1_555
Na11 O54 2.530128 1_555
Na11 O56 2.532676 1_555
Na11 O48 2.625474 1_555
Na11 O50 2.759361 1_555
Na11 O49 2.842779 1_555
Na12 O58 2.481255 1_555
Na12 O57 2.612573 1_555
Na12 O53 2.631707 1_555
Na12 O51 2.635545 1_555
Na12 O59 2.646820 1_555
Na12 O52 2.698410 1_555
Na13 O67 2.449583 1_555
Na13 O68 2.497990 1_555
Na13 O66 2.525190 1_555
Na13 O61 2.722404 1_555
Na13 O62 2.723459 1_555
Na13 O60 2.727328 1_555
Na14 O69 2.550845 1_555
Na14 O70 2.552888 1_555
Na14 O71 2.562723 1_555
Na14 O65 2.606418 1_555
Na14 O63 2.631452 1_555
Na14 O64 2.706883 1_555
Hf0 O5 1.966940 1_555
Hf0 O39 2.078906 1_655
Hf0 O41 2.095212 1_545
Hf0 O4 2.099656 1_545
Hf0 O3 2.109907 1_655
Hf0 O40 2.144681 1_645
Hf1 O43 2.020636 1_555
Hf1 O6 2.037767 1_445
Hf1 O7 2.037831 1_555
Hf1 O8 2.039134 1_545
Hf1 O44 2.111279 1_445
Hf1 O42 2.113499 1_455
Hf2 O13 1.989456 1_555
Hf2 O48 2.028268 1_555
Hf2 O12 2.044748 1_555
Hf2 O14 2.126413 1_555
Hf2 O49 2.153438 1_555
Hf2 O50 2.165124 1_555
Hf3 O15 2.021689 1_555
Hf3 O16 2.075481 1_555
Hf3 O51 2.078065 1_555
Hf3 O17 2.081292 1_555
Hf3 O52 2.081521 1_555
Hf3 O53 2.093876 1_555
Hf4 O26 2.016911 1_554
Hf4 O25 2.019037 1_554
Hf4 O24 2.059595 1_554
Hf4 O61 2.072509 1_555
Hf4 O62 2.171268 1_555
Hf4 O60 2.182120 1_555
Hf5 O63 2.031761 1_555
Hf5 O29 2.054200 1_555
Hf5 O28 2.076935 1_555
Hf5 O27 2.086179 1_555
Hf5 O65 2.092284 1_555
Hf5 O64 2.111090 1_555
In0 O1 2.110973 1_555
In0 O2 2.144721 1_565
In0 O0 2.152850 1_665
In0 O37 2.185562 1_555
In0 O36 2.220879 1_655
In0 O38 2.236800 1_665
In1 O9 2.104518 1_455
In1 O11 2.104541 1_555
In1 O10 2.106980 1_565
In1 O45 2.141815 1_455
In1 O47 2.213153 1_565
In1 O46 2.222809 1_465
In2 O19 2.063830 1_556
In2 O54 2.139712 1_555
In2 O55 2.148497 1_555
In2 O56 2.148586 1_555
In2 O20 2.152951 1_556
In2 O18 2.162248 1_556
In3 O21 2.058811 1_555
In3 O22 2.082038 1_555
In3 O23 2.167909 1_555
In3 O58 2.189815 1_555
In3 O59 2.192659 1_555
In3 O57 2.246702 1_555
In4 O32 2.079140 1_555
In4 O31 2.100990 1_555
In4 O67 2.134937 1_555
In4 O30 2.166779 1_555
In4 O66 2.177947 1_555
In4 O68 2.209855 1_555
In5 O33 2.075175 1_555
In5 O35 2.115297 1_555
In5 O34 2.123966 1_555
In5 O71 2.161383 1_555
In5 O70 2.221626 1_555
In5 O69 2.222050 1_555
O0 P0 1.541895 1_555
O1 P1 1.538045 1_555
O2 P2 1.535408 1_555
O3 P3 1.544213 1_555
O4 P4 1.546975 1_555
O5 Si0 1.631439 1_555
O6 Si0 1.635097 1_565
O7 P3 1.534771 1_555
O8 P4 1.550891 1_455
O9 P1 1.539848 1_555
O10 P2 1.539255 1_455
O11 P0 1.552074 1_565
O12 P5 1.547513 1_555
O13 Si1 1.657605 1_555
O14 P6 1.548342 1_555
O15 Si2 1.655699 1_555
O16 P7 1.553944 1_555
O17 P8 1.552886 1_555
O18 P8 1.522649 1_555
O19 Si2 1.599441 1_555
O20 P7 1.518496 1_555
O21 Si1 1.612958 1_555
O22 P6 1.514804 1_555
O23 P5 1.537664 1_555
O24 P9 1.575386 1_555
O25 P10 1.581924 1_555
O26 P11 1.584411 1_555
O27 P12 1.558872 1_555
O28 P13 1.556991 1_555
O29 P14 1.564830 1_555
O30 P14 1.544860 1_555
O31 P12 1.528221 1_555
O32 P13 1.520168 1_555
O33 P10 1.515203 1_555
O34 P11 1.534796 1_555
O35 P9 1.534106 1_555
O36 P14 1.554794 1_555
O37 P12 1.553635 1_555
O38 P13 1.579104 1_555
O39 P10 1.561243 1_555
O40 P11 1.556750 1_555
O41 P9 1.561587 1_555
O42 P5 1.553902 1_555
O43 Si1 1.624434 1_555
O44 P6 1.557674 1_555
O45 Si2 1.643104 1_555
O46 P7 1.552068 1_555
O47 P8 1.553049 1_555
O48 Si0 1.651703 1_555
O49 P3 1.581841 1_555
O50 P4 1.554787 1_555
O51 P1 1.581448 1_555
O52 P2 1.582531 1_555
O53 P0 1.547950 1_555
O54 P9 1.534253 1_555
O55 P10 1.535247 1_655
O56 P11 1.532672 1_545
O57 P12 1.567854 1_545
O58 P13 1.547283 1_555
O59 P14 1.547514 1_655
O60 P8 1.573503 1_555
O61 Si2 1.668398 1_455
O62 P7 1.572298 1_565
O63 Si1 1.662657 1_565
O64 P6 1.567270 1_555
O65 P5 1.547846 1_455
O66 P0 1.556901 1_565
O67 P1 1.531423 1_555
O68 P2 1.548877 1_455
O69 P3 1.534233 1_555
O70 P4 1.534913 1_455
O71 Si0 1.644371 1_565
