# generated using pymatgen
data_Na10La4Sc4Si5S7O48
_symmetry_space_group_name_H-M   'P 1'
_cell_length_a   18.75332624
_cell_length_b   9.36200692
_cell_length_c   23.71929079
_cell_angle_alpha   89.94825220
_cell_angle_beta   89.52118530
_cell_angle_gamma   120.04243043
_symmetry_Int_Tables_number   1
_chemical_formula_structural   Na10La4Sc4Si5S7O48
_chemical_formula_sum   'Na30 La12 Sc12 Si15 S21 O144'
_cell_volume   3604.71628837
_cell_formula_units_Z   3
loop_
 _symmetry_equiv_pos_site_id
 _symmetry_equiv_pos_as_xyz
  1  'x, y, z'
loop_
 _atom_site_type_symbol
 _atom_site_label
 _atom_site_symmetry_multiplicity
 _atom_site_fract_x
 _atom_site_fract_y
 _atom_site_fract_z
 _atom_site_occupancy
  Na  Na0  1  0.33069229  0.00131764  0.24976146  1
  Na  Na1  1  0.82441242  0.99255060  0.25441004  1
  Na  Na2  1  0.18561183  0.38665610  0.24261910  1
  Na  Na3  1  0.67464709  0.37040018  0.24608706  1
  Na  Na4  1  0.99211779  0.62962480  0.26301863  1
  Na  Na5  1  0.49520769  0.62075664  0.25883713  1
  Na  Na6  1  0.83199517  0.65381857  0.74006826  1
  Na  Na7  1  0.98831704  0.35797239  0.75198494  1
  Na  Na8  1  0.49246507  0.34753620  0.75680688  1
  Na  Na9  1  0.17747649  0.99257728  0.73767710  1
  Na  Na10  1  0.02005851  0.71520386  0.58738988  1
  Na  Na11  1  0.32936535  0.97990344  0.59449601  1
  Na  Na12  1  0.02436267  0.32974541  0.08522169  1
  Na  Na13  1  0.51572632  0.32873719  0.08909649  1
  Na  Na14  1  0.15888717  0.30068239  0.92917728  1
  Na  Na15  1  0.66238406  0.30324720  0.93187023  1
  Na  Na16  1  0.16163670  0.01539190  0.42734539  1
  Na  Na17  1  0.66039477  0.02519914  0.42501773  1
  Na  Na18  1  0.99768482  0.99362792  0.50597193  1
  Na  Na19  1  0.51358503  0.98969502  0.49355777  1
  Na  Na20  1  0.00476964  0.01169298  0.00046093  1
  Na  Na21  1  0.50874344  0.00907469  0.00631803  1
  Na  Na22  1  0.34870477  0.33134658  0.83639235  1
  Na  Na23  1  0.85284076  0.32453359  0.82873483  1
  Na  Na24  1  0.35613410  0.36896478  0.33816130  1
  Na  Na25  1  0.85056971  0.36949403  0.33926336  1
  Na  Na26  1  0.17857901  0.65545520  0.17014527  1
  Na  Na27  1  0.67844622  0.65455504  0.16532112  1
  Na  Na28  1  0.17203681  0.68144152  0.67102440  1
  Na  Na29  1  0.68647595  0.72654335  0.65695679  1
  La  La0  1  0.98725487  0.98645143  0.35340330  1
  La  La1  1  0.98741373  0.98986261  0.84634280  1
  La  La2  1  0.49401472  0.01183801  0.84837129  1
  La  La3  1  0.50974381  0.00244704  0.64249554  1
  La  La4  1  0.99940415  0.00278093  0.15780617  1
  La  La5  1  0.82391079  0.33290531  0.17922591  1
  La  La6  1  0.33870555  0.33501532  0.98808549  1
  La  La7  1  0.83494440  0.33325131  0.98505129  1
  La  La8  1  0.17148078  0.65935583  0.01940673  1
  La  La9  1  0.16495601  0.66408940  0.51803450  1
  La  La10  1  0.16240391  0.66590468  0.81371811  1
  La  La11  1  0.66938993  0.68759293  0.81523740  1
  Sc  Sc0  1  0.48780923  0.97842521  0.34810176  1
  Sc  Sc1  1  0.99955579  0.99048139  0.64754605  1
  Sc  Sc2  1  0.50095261  0.01230771  0.15541847  1
  Sc  Sc3  1  0.32974145  0.32286639  0.67884222  1
  Sc  Sc4  1  0.82540731  0.30805964  0.68065916  1
  Sc  Sc5  1  0.33457450  0.34956927  0.18562116  1
  Sc  Sc6  1  0.33643608  0.34355832  0.48071404  1
  Sc  Sc7  1  0.83504537  0.34216872  0.48252880  1
  Sc  Sc8  1  0.65845238  0.64635820  0.01827382  1
  Sc  Sc9  1  0.65687296  0.68233393  0.51690674  1
  Sc  Sc10  1  0.16146174  0.65452618  0.31842621  1
  Sc  Sc11  1  0.65278095  0.63700884  0.31958007  1
  Si  Si0  1  0.35335021  0.70908169  0.24991750  1
  Si  Si1  1  0.83830888  0.69000470  0.25233017  1
  Si  Si2  1  0.00224657  0.31737176  0.24932220  1
  Si  Si3  1  0.49691977  0.28852155  0.25096984  1
  Si  Si4  1  0.99322406  0.68905901  0.74093424  1
  Si  Si5  1  0.34902881  0.01351676  0.73957873  1
  Si  Si6  1  0.85202393  0.00317834  0.74128143  1
  Si  Si7  1  0.18603154  0.04991026  0.58027386  1
  Si  Si8  1  0.69182337  0.04360228  0.57588158  1
  Si  Si9  1  0.18352241  0.33018299  0.08623537  1
  Si  Si10  1  0.66965490  0.32505149  0.08165478  1
  Si  Si11  1  0.01242504  0.35292207  0.91666073  1
  Si  Si12  1  0.51914471  0.37027783  0.91558963  1
  Si  Si13  1  0.01461722  0.65731865  0.41780324  1
  Si  Si14  1  0.51669589  0.66981605  0.41566369  1
  S  S0  1  0.15941968  0.00128438  0.25337265  1
  S  S1  1  0.63937697  0.98707394  0.25403764  1
  S  S2  1  0.15122616  0.29033569  0.74348219  1
  S  S3  1  0.65807049  0.30723160  0.74999154  1
  S  S4  1  0.49242370  0.68031354  0.74752641  1
  S  S5  1  0.47788507  0.34437943  0.58042874  1
  S  S6  1  0.97282246  0.32375453  0.58462915  1
  S  S7  1  0.33401396  0.61646381  0.58304293  1
  S  S8  1  0.83230430  0.62335536  0.58317791  1
  S  S9  1  0.48739082  0.64375814  0.08909838  1
  S  S10  1  0.98937120  0.64629349  0.08549652  1
  S  S11  1  0.33821494  0.03747297  0.09369139  1
  S  S12  1  0.82788122  0.00901327  0.08379851  1
  S  S13  1  0.32069556  0.66204553  0.91436324  1
  S  S14  1  0.81117570  0.66683547  0.92039700  1
  S  S15  1  0.16751333  0.97872280  0.91595331  1
  S  S16  1  0.66265023  0.96451290  0.92235437  1
  S  S17  1  0.31826507  0.97280607  0.41404635  1
  S  S18  1  0.80385051  0.95873320  0.41866571  1
  S  S19  1  0.17546100  0.36983787  0.41383241  1
  S  S20  1  0.66689427  0.37252955  0.41795271  1
  O  O0  1  0.12325598  0.03628245  0.30368963  1
  O  O1  1  0.60141039  0.01383804  0.30504046  1
  O  O2  1  0.41337979  0.78357428  0.30528055  1
  O  O3  1  0.90905187  0.76818171  0.30111655  1
  O  O4  1  0.48153345  0.15616716  0.30154543  1
  O  O5  1  0.98661639  0.18349088  0.29875592  1
  O  O6  1  0.12118379  0.20251689  0.79845209  1
  O  O7  1  0.62473885  0.21445158  0.80353690  1
  O  O8  1  0.48962513  0.76193239  0.80011584  1
  O  O9  1  0.97898972  0.77192889  0.79753641  1
  O  O10  1  0.41020730  0.04948237  0.79411361  1
  O  O11  1  0.90063648  0.04276658  0.80161914  1
  O  O12  1  0.39311421  0.99441289  0.68253570  1
  O  O13  1  0.91074064  0.98697780  0.69285990  1
  O  O14  1  0.09479115  0.19210862  0.69755640  1
  O  O15  1  0.60059050  0.21817539  0.70335946  1
  O  O16  1  0.00973840  0.81486633  0.68671495  1
  O  O17  1  0.50358041  0.78566055  0.69792752  1
  O  O18  1  0.40021330  0.83680321  0.19738560  1
  O  O19  1  0.87665929  0.80766170  0.19631909  1
  O  O20  1  0.02191657  0.25338932  0.18972420  1
  O  O21  1  0.51736327  0.21682111  0.19287197  1
  O  O22  1  0.10361873  0.95937712  0.20463690  1
  O  O23  1  0.59088876  0.97319400  0.20311667  1
  O  O24  1  0.44191039  0.36110713  0.63451984  1
  O  O25  1  0.93247297  0.34234671  0.63599594  1
  O  O26  1  0.24428916  0.14439170  0.63575850  1
  O  O27  1  0.74126535  0.13557047  0.63326797  1
  O  O28  1  0.33563611  0.52939328  0.63389705  1
  O  O29  1  0.82280338  0.53057543  0.63621716  1
  O  O30  1  0.44400457  0.52718321  0.13745933  1
  O  O31  1  0.94847424  0.55410376  0.13853123  1
  O  O32  1  0.33422423  0.13480009  0.14144545  1
  O  O33  1  0.81777613  0.07485771  0.13875421  1
  O  O34  1  0.24173401  0.33339103  0.13959196  1
  O  O35  1  0.72210486  0.35427028  0.13971959  1
  O  O36  1  0.22564962  0.33165857  0.02473036  1
  O  O37  1  0.71541356  0.30777746  0.02521518  1
  O  O38  1  0.43932290  0.57487276  0.03691115  1
  O  O39  1  0.94060620  0.55227373  0.03632852  1
  O  O40  1  0.35044582  0.12995134  0.03965362  1
  O  O41  1  0.83868193  0.12578883  0.03808260  1
  O  O42  1  0.23587816  0.15311548  0.52262005  1
  O  O43  1  0.74144524  0.15584796  0.52031316  1
  O  O44  1  0.33478023  0.52881015  0.53123404  1
  O  O45  1  0.84578071  0.53713607  0.53454218  1
  O  O46  1  0.42401994  0.33156391  0.53291868  1
  O  O47  1  0.92608534  0.31604681  0.53346088  1
  O  O48  1  0.28175068  0.67892733  0.96642678  1
  O  O49  1  0.75927020  0.67109464  0.96754981  1
  O  O50  1  0.06832566  0.45685553  0.97235261  1
  O  O51  1  0.57572440  0.48245232  0.96948696  1
  O  O52  1  0.16883105  0.88496120  0.96558882  1
  O  O53  1  0.66437909  0.86496851  0.97047037  1
  O  O54  1  0.28438111  0.87973439  0.46796503  1
  O  O55  1  0.75860304  0.85259131  0.46754144  1
  O  O56  1  0.16768176  0.45011311  0.46506872  1
  O  O57  1  0.65821695  0.46106399  0.46670385  1
  O  O58  1  0.06864960  0.68101997  0.47515049  1
  O  O59  1  0.58059154  0.70170821  0.46835238  1
  O  O60  1  0.06765694  0.64779704  0.36218408  1
  O  O61  1  0.55822624  0.63942379  0.35822805  1
  O  O62  1  0.26292545  0.88174222  0.36653809  1
  O  O63  1  0.76142791  0.87899056  0.36504241  1
  O  O64  1  0.18011229  0.46599794  0.36272200  1
  O  O65  1  0.67568902  0.46611659  0.36435082  1
  O  O66  1  0.05873862  0.44971912  0.85747493  1
  O  O67  1  0.56219764  0.45737011  0.85486877  1
  O  O68  1  0.17211820  0.90030348  0.86277484  1
  O  O69  1  0.66860537  0.89380149  0.86799515  1
  O  O70  1  0.27495653  0.66312332  0.86431502  1
  O  O71  1  0.77470261  0.66863139  0.86512418  1
  O  O72  1  0.01599843  0.83488438  0.41590190  1
  O  O73  1  0.51500142  0.84525856  0.40927047  1
  O  O74  1  0.40179047  0.99642843  0.40621332  1
  O  O75  1  0.88889569  0.98525870  0.42075821  1
  O  O76  1  0.10345023  0.19938979  0.41222842  1
  O  O77  1  0.59444421  0.20164945  0.41360523  1
  O  O78  1  0.01449920  0.17937771  0.91992966  1
  O  O79  1  0.52063012  0.19428301  0.92050547  1
  O  O80  1  0.09206673  0.99213796  0.91781898  1
  O  O81  1  0.58590171  0.97447153  0.92408319  1
  O  O82  1  0.40660749  0.80192707  0.91394670  1
  O  O83  1  0.89505656  0.80846587  0.92526475  1
  O  O84  1  0.48033208  0.18696906  0.58075115  1
  O  O85  1  0.98427848  0.17888230  0.58741891  1
  O  O86  1  0.09091704  0.01630450  0.58496469  1
  O  O87  1  0.59874700  0.02302320  0.57534185  1
  O  O88  1  0.40694038  0.78760443  0.58018135  1
  O  O89  1  0.91072661  0.78987994  0.58596097  1
  O  O90  1  0.49936809  0.80835362  0.09869785  1
  O  O91  1  0.99849522  0.81046343  0.08417250  1
  O  O92  1  0.41265763  0.01968429  0.09748896  1
  O  O93  1  0.90432990  0.99918705  0.08344099  1
  O  O94  1  0.08892067  0.17079749  0.08629363  1
  O  O95  1  0.57679666  0.16156126  0.08818131  1
  O  O96  1  0.34279814  0.18509995  0.73798509  1
  O  O97  1  0.84106098  0.16526082  0.73441452  1
  O  O98  1  0.23476256  0.31287108  0.73447017  1
  O  O99  1  0.74111712  0.33079505  0.74048038  1
  O  O100  1  0.41657544  0.51658513  0.74329798  1
  O  O101  1  0.91084039  0.50697385  0.73389220  1
  O  O102  1  0.34147499  0.52152183  0.24007945  1
  O  O103  1  0.82002449  0.49923991  0.24738765  1
  O  O104  1  0.41623181  0.31443282  0.24344919  1
  O  O105  1  0.91987443  0.33704598  0.24726375  1
  O  O106  1  0.24143132  0.14966748  0.24194760  1
  O  O107  1  0.72490973  0.13117616  0.24919356  1
  O  O108  1  0.31940886  0.50208856  0.91471053  1
  O  O109  1  0.81143161  0.50861963  0.92172271  1
  O  O110  1  0.42593891  0.34188269  0.91837376  1
  O  O111  1  0.92044583  0.33273506  0.91677886  1
  O  O112  1  0.24021893  0.15020562  0.91578807  1
  O  O113  1  0.73358403  0.13535361  0.92251304  1
  O  O114  1  0.32120824  0.13616062  0.41830982  1
  O  O115  1  0.80814148  0.12287384  0.42120403  1
  O  O116  1  0.25150133  0.35503173  0.41626224  1
  O  O117  1  0.74259742  0.35580897  0.42248417  1
  O  O118  1  0.42519544  0.50539415  0.42735725  1
  O  O119  1  0.92271192  0.49225494  0.42262842  1
  O  O120  1  0.17200323  0.49516095  0.09163628  1
  O  O121  1  0.65791480  0.49106487  0.07552605  1
  O  O122  1  0.07090068  0.65497338  0.08424768  1
  O  O123  1  0.56869929  0.64906415  0.08244515  1
  O  O124  1  0.26253018  0.87492774  0.09209522  1
  O  O125  1  0.75338599  0.84504560  0.07450578  1
  O  O126  1  0.18183811  0.86617604  0.58275751  1
  O  O127  1  0.68080748  0.85535915  0.57351542  1
  O  O128  1  0.25904982  0.63424277  0.58533004  1
  O  O129  1  0.75999404  0.64406101  0.57484116  1
  O  O130  1  0.05607819  0.47954930  0.58309922  1
  O  O131  1  0.56254889  0.48715712  0.57404300  1
  O  O132  1  0.17223009  0.85804345  0.26258900  1
  O  O133  1  0.64565992  0.83451801  0.25826458  1
  O  O134  1  0.26108306  0.68789615  0.26012380  1
  O  O135  1  0.75067108  0.68722583  0.26493402  1
  O  O136  1  0.08634778  0.50040431  0.25985687  1
  O  O137  1  0.57980754  0.47302967  0.26062347  1
  O  O138  1  0.15569358  0.45365878  0.74453823  1
  O  O139  1  0.66511303  0.47250107  0.75251574  1
  O  O140  1  0.07588541  0.66905580  0.74401559  1
  O  O141  1  0.56412390  0.65046604  0.74728819  1
  O  O142  1  0.25510108  0.85836091  0.74660761  1
  O  O143  1  0.76476841  0.82515945  0.74250397  1
loop_
_geom_bond_atom_site_label_1
_geom_bond_atom_site_label_2
_geom_bond_distance
_geom_bond_site_symmetry_2
Na0 O104 2.544704 1_555
Na0 O134 2.555851 1_545
Na0 O132 2.591470 1_545
Na0 O106 2.664187 1_555
Na0 O4 2.750894 1_555
Na0 O18 2.757221 1_545
Na0 O32 2.841690 1_555
Na0 O62 3.008564 1_545
Na1 O135 2.486040 1_555
Na1 O19 2.744917 1_555
Na1 O107 2.758625 1_565
Na1 O105 2.801448 1_565
Na1 O63 2.845566 1_555
Na1 O5 2.857814 1_565
Na1 O33 2.869271 1_565
Na1 O133 2.909164 1_555
Na2 O134 2.478796 1_555
Na2 O102 2.538326 1_555
Na2 O136 2.596051 1_555
Na2 O34 2.795161 1_555
Na2 O106 2.888584 1_555
Na2 O64 2.958617 1_555
Na2 O20 2.964254 1_555
Na3 O103 2.365886 1_555
Na3 O137 2.430376 1_555
Na3 O135 2.609439 1_555
Na3 O35 2.697767 1_555
Na3 O107 2.832738 1_555
Na3 O21 2.860022 1_555
Na3 O65 2.942799 1_555
Na4 O105 2.402607 1_555
Na4 O136 2.594297 1_655
Na4 O3 2.632059 1_555
Na4 O60 2.717234 1_655
Na4 O103 2.849452 1_555
Na4 O132 2.957877 1_655
Na5 O104 2.511803 1_555
Na5 O133 2.512270 1_555
Na5 O137 2.574810 1_555
Na5 O102 2.590962 1_555
Na5 O61 2.612555 1_555
Na5 O2 2.865090 1_555
Na6 O101 2.475844 1_555
Na6 O143 2.487921 1_555
Na6 O99 2.624728 1_555
Na6 O29 2.691056 1_555
Na6 O139 2.725324 1_555
Na6 O9 2.773670 1_555
Na6 O13 2.918414 1_555
Na7 O97 2.467131 1_555
Na7 O101 2.505960 1_555
Na7 O140 2.533657 1_655
Na7 O66 2.768738 1_655
Na7 O138 2.803777 1_655
Na7 O11 2.810832 1_555
Na7 O25 2.929610 1_555
Na8 O141 2.465292 1_555
Na8 O96 2.477533 1_555
Na8 O10 2.571311 1_555
Na8 O67 2.624174 1_555
Na8 O100 2.625802 1_555
Na8 O139 2.839624 1_555
Na9 O142 2.362001 1_555
Na9 O98 2.631381 1_565
Na9 O140 2.653782 1_555
Na9 O96 2.695543 1_565
Na9 O26 2.755728 1_565
Na10 O86 2.441948 1_565
Na10 O89 2.475920 1_455
Na10 O16 2.575954 1_555
Na10 O130 2.612545 1_555
Na10 O126 2.629616 1_555
Na10 O58 2.876333 1_555
Na11 O12 2.384965 1_555
Na11 O126 2.435021 1_555
Na11 O84 2.523423 1_565
Na11 O128 2.826949 1_555
Na11 O88 2.843952 1_555
Na11 O26 2.882966 1_565
Na12 O94 2.342023 1_555
Na12 O120 2.408648 1_555
Na12 O20 2.572791 1_555
Na12 O122 2.715097 1_555
Na12 O93 2.769956 1_445
Na12 O50 2.870208 1_554
Na13 O121 2.334661 1_555
Na13 O95 2.357133 1_555
Na13 O92 2.557343 1_555
Na13 O123 2.649288 1_555
Na13 O21 2.680753 1_555
Na14 O78 2.366668 1_555
Na14 O80 2.523793 1_545
Na14 O36 2.544310 1_556
Na14 O112 2.560471 1_555
Na14 O108 2.652026 1_555
Na14 O50 2.920742 1_555
Na15 O79 2.340369 1_555
Na15 O37 2.426450 1_556
Na15 O109 2.484817 1_555
Na15 O113 2.529794 1_555
Na15 O81 2.674030 1_545
Na16 O72 2.404319 1_545
Na16 O76 2.484770 1_555
Na16 O114 2.623049 1_555
Na16 O42 2.639735 1_555
Na16 O116 2.765021 1_555
Na16 O58 2.936103 1_545
Na17 O73 2.414707 1_545
Na17 O115 2.445432 1_555
Na17 O77 2.526322 1_555
Na17 O43 2.667658 1_555
Na17 O117 2.679685 1_555
Na17 O59 2.810453 1_545
Na18 O86 2.509264 1_665
Na18 O89 2.593198 1_555
Na18 O85 2.690320 1_565
Na18 O72 2.719438 1_655
Na18 O75 2.857065 1_555
Na18 O76 2.946491 1_665
Na19 O73 2.422001 1_555
Na19 O87 2.442328 1_565
Na19 O77 2.601082 1_565
Na19 O88 2.817184 1_555
Na19 O74 2.982650 1_555
Na19 O84 3.035737 1_565
Na20 O78 2.418341 1_554
Na20 O94 2.561155 1_555
Na20 O80 2.608290 1_544
Na20 O93 2.674380 1_445
Na20 O83 2.679973 1_444
Na20 O91 2.696827 1_445
Na21 O95 2.378920 1_555
Na21 O81 2.535086 1_544
Na21 O79 2.607319 1_554
Na21 O90 2.831734 1_545
Na21 O92 2.836852 1_555
Na21 O82 2.930627 1_544
Na22 O110 2.406905 1_555
Na22 O112 2.652746 1_555
Na22 O108 2.678713 1_555
Na22 O96 2.682046 1_555
Na22 O100 2.690598 1_555
Na23 O111 2.433414 1_555
Na23 O97 2.638521 1_555
Na23 O101 2.693150 1_555
Na24 O118 2.485784 1_555
Na24 O116 2.642267 1_555
Na24 O104 2.667114 1_555
Na24 O114 2.708445 1_555
Na24 O102 2.815236 1_555
Na25 O119 2.356505 1_555
Na25 O105 2.625348 1_555
Na25 O103 2.695437 1_555
Na25 O117 2.772329 1_555
Na25 O115 2.804997 1_555
Na26 O120 2.357653 1_555
Na26 O134 2.574280 1_555
Na26 O124 2.614025 1_555
Na26 O136 2.654368 1_555
Na26 O122 2.878972 1_555
Na26 O132 2.940847 1_555
Na27 O121 2.541034 1_555
Na27 O135 2.674072 1_555
Na27 O125 2.688583 1_555
Na27 O123 2.839820 1_555
Na27 O137 2.862737 1_555
Na27 O133 3.016288 1_555
Na28 O142 2.419218 1_555
Na28 O140 2.449557 1_555
Na28 O138 2.648000 1_555
Na28 O126 2.660247 1_555
Na28 O128 2.767242 1_555
Na28 O130 2.935687 1_555
Na29 O127 2.347415 1_555
Na29 O143 2.412744 1_555
Na29 O129 2.704552 1_555
Na29 O141 2.939646 1_555
Na29 O131 3.026679 1_555
La0 O3 2.213340 1_555
La0 O5 2.258581 1_565
La0 O72 2.297180 1_655
La0 O75 2.425899 1_555
La0 O76 2.524980 1_665
La0 O0 2.621140 1_665
La1 O11 2.203155 1_565
La1 O9 2.283094 1_555
La1 O78 2.360191 1_665
La1 O83 2.526474 1_555
La1 O6 2.548465 1_665
La1 O80 2.596208 1_655
La2 O10 2.199588 1_555
La2 O79 2.293450 1_555
La2 O82 2.386333 1_545
La2 O7 2.456736 1_555
La2 O8 2.569870 1_545
La2 O81 2.640253 1_545
La3 O87 2.234553 1_555
La3 O12 2.343475 1_545
La3 O17 2.370429 1_545
La3 O15 2.380495 1_555
La3 O88 2.473323 1_545
La3 O84 2.529093 1_555
La4 O19 2.285074 1_545
La4 O20 2.296257 1_655
La4 O94 2.339481 1_655
La4 O22 2.459507 1_645
La4 O91 2.503569 1_545
La4 O93 2.506787 1_545
La5 O35 2.230485 1_555
La5 O103 2.271641 1_555
La5 O31 2.406654 1_555
La5 O105 2.413168 1_555
La5 O107 2.489967 1_555
La5 O33 2.549275 1_555
La6 O36 2.270255 1_556
La6 O110 2.294285 1_555
La6 O40 2.377762 1_556
La6 O38 2.396408 1_556
La6 O108 2.485730 1_555
La6 O112 2.490802 1_555
La7 O111 2.271074 1_555
La7 O37 2.327623 1_556
La7 O41 2.343694 1_556
La7 O39 2.363617 1_556
La7 O113 2.402496 1_555
La7 O109 2.424407 1_555
La8 O50 2.224816 1_554
La8 O120 2.304091 1_555
La8 O48 2.337909 1_554
La8 O122 2.408065 1_555
La8 O52 2.488836 1_554
La8 O124 2.562461 1_555
La9 O58 2.153763 1_555
La9 O126 2.334538 1_555
La9 O56 2.387453 1_555
La9 O54 2.434351 1_555
La9 O130 2.438445 1_555
La9 O128 2.505917 1_555
La10 O66 2.230621 1_555
La10 O140 2.336549 1_555
La10 O142 2.369518 1_555
La10 O68 2.410515 1_555
La10 O70 2.448161 1_555
La10 O138 2.532925 1_555
La11 O67 2.279610 1_555
La11 O69 2.307723 1_555
La11 O143 2.339253 1_555
La11 O71 2.392041 1_555
La11 O141 2.445933 1_555
La11 O139 2.473937 1_555
O0 S0 1.483702 1_555
O1 S1 1.482567 1_545
O1 Sc0 2.224310 1_545
O2 Si0 1.648747 1_555
O2 Sc0 1.945542 1_555
O3 Si1 1.640042 1_555
O4 Si3 1.640503 1_555
O4 Sc0 2.048708 1_545
O5 Si2 1.629566 1_655
O6 S2 1.488412 1_555
O7 S3 1.483018 1_555
O8 S4 1.477625 1_555
O9 Si4 1.636735 1_555
O10 Si5 1.655801 1_555
O11 Si6 1.643519 1_555
O12 Si5 1.635836 1_565
O13 Si6 1.643474 1_565
O13 Sc1 1.961063 1_555
O14 S2 1.482892 1_555
O14 Sc1 2.196323 1_445
O15 S3 1.483985 1_555
O16 Si4 1.662055 1_455
O16 Sc1 1.979211 1_455
O17 S4 1.479085 1_555
O18 Si0 1.637528 1_555
O18 Sc2 2.029084 1_565
O19 Si1 1.638218 1_555
O20 Si2 1.645376 1_555
O21 Si3 1.657434 1_555
O21 Sc2 1.991849 1_555
O22 S0 1.481629 1_565
O23 S1 1.484207 1_555
O23 Sc2 2.215457 1_565
O24 S5 1.489111 1_555
O24 Sc3 2.206033 1_555
O25 S6 1.484649 1_555
O25 Sc4 2.138980 1_555
O26 Si7 1.663290 1_555
O26 Sc3 1.937426 1_555
O27 Si8 1.636357 1_555
O27 Sc4 1.960285 1_555
O28 S7 1.464256 1_555
O28 Sc3 2.160431 1_555
O29 S8 1.486015 1_555
O29 Sc4 2.356275 1_555
O30 S9 1.503972 1_555
O30 Sc5 2.195908 1_555
O31 S10 1.494883 1_555
O32 S11 1.479041 1_555
O32 Sc5 2.265271 1_555
O33 S12 1.493095 1_555
O34 Si9 1.668727 1_555
O34 Sc5 2.003564 1_555
O35 Si10 1.641057 1_555
O36 Si9 1.649958 1_555
O37 Si10 1.635487 1_555
O38 S9 1.482818 1_555
O39 S10 1.478133 1_555
O40 S11 1.496424 1_555
O41 S12 1.478008 1_555
O42 Si7 1.658118 1_555
O42 Sc6 2.078936 1_555
O43 Si8 1.644791 1_555
O43 Sc7 1.957586 1_555
O44 S7 1.482252 1_555
O44 Sc6 2.121753 1_555
O45 S8 1.499097 1_555
O45 Sc7 2.129446 1_555
O46 S5 1.484126 1_555
O46 Sc6 2.112362 1_555
O47 S6 1.483589 1_555
O47 Sc7 2.210459 1_555
O48 S13 1.477919 1_555
O49 S14 1.490213 1_555
O49 Sc8 2.144498 1_556
O50 Si11 1.671777 1_555
O51 Si12 1.665055 1_555
O51 Sc8 1.936538 1_556
O52 S15 1.475655 1_555
O53 S16 1.483583 1_555
O53 Sc8 2.291863 1_556
O54 S17 1.492864 1_555
O55 S18 1.479404 1_555
O55 Sc9 2.113247 1_555
O56 S19 1.473596 1_555
O57 S20 1.477923 1_555
O57 Sc9 2.401262 1_555
O58 Si13 1.650661 1_555
O59 Si14 1.659604 1_555
O59 Sc9 1.921623 1_555
O60 Si13 1.674751 1_555
O60 Sc10 2.008540 1_555
O61 Si14 1.657813 1_555
O61 Sc11 1.999540 1_555
O62 S17 1.486289 1_555
O62 Sc10 2.331466 1_555
O63 S18 1.493969 1_555
O63 Sc11 2.421938 1_555
O64 S19 1.485050 1_555
O64 Sc10 2.227639 1_555
O65 S20 1.503699 1_555
O65 Sc11 2.136509 1_555
O66 Si11 1.653963 1_555
O67 Si12 1.646301 1_555
O68 S15 1.483510 1_555
O69 S16 1.478625 1_555
O70 S13 1.473344 1_555
O71 S14 1.487748 1_555
O72 Si13 1.650126 1_555
O73 Si14 1.665438 1_555
O73 Sc0 2.136594 1_555
O74 S17 1.478235 1_555
O74 Sc0 2.183118 1_555
O75 S18 1.487465 1_555
O76 S19 1.488210 1_555
O77 S20 1.497399 1_555
O77 Sc0 2.579471 1_545
O78 Si11 1.646315 1_555
O79 Si12 1.665784 1_555
O80 S15 1.482057 1_555
O81 S16 1.488392 1_555
O82 S13 1.482545 1_555
O83 S14 1.469965 1_555
O84 S5 1.497193 1_555
O85 S6 1.477127 1_555
O85 Sc1 2.394858 1_545
O86 Si7 1.651578 1_555
O86 Sc1 2.177026 1_445
O87 Si8 1.657613 1_555
O88 S7 1.498768 1_555
O89 S8 1.517835 1_555
O89 Sc1 2.312779 1_555
O90 S9 1.460045 1_555
O90 Sc2 2.324928 1_565
O91 S10 1.459114 1_555
O92 S11 1.489854 1_555
O92 Sc2 2.187894 1_555
O93 S12 1.481820 1_565
O94 Si9 1.650242 1_555
O95 Si10 1.650889 1_555
O95 Sc2 2.118259 1_555
O96 Si5 1.668348 1_555
O96 Sc3 2.002516 1_555
O97 Si6 1.638241 1_555
O97 Sc4 1.973649 1_555
O98 S2 1.485860 1_555
O98 Sc3 2.171611 1_555
O99 S3 1.474818 1_555
O99 Sc4 2.203918 1_555
O100 S4 1.484056 1_555
O100 Sc3 2.316850 1_555
O101 Si4 1.639676 1_555
O101 Sc4 2.163273 1_555
O102 Si0 1.672550 1_555
O102 Sc5 2.018601 1_555
O103 Si1 1.645838 1_555
O104 Si3 1.659010 1_555
O104 Sc5 2.207554 1_555
O105 Si2 1.645814 1_655
O106 S0 1.490544 1_555
O106 Sc5 2.240938 1_555
O107 S1 1.495335 1_545
O108 S13 1.485599 1_555
O109 S14 1.483932 1_555
O110 Si12 1.631880 1_555
O111 Si11 1.638465 1_655
O112 S15 1.498198 1_545
O113 S16 1.482377 1_545
O114 S17 1.505977 1_545
O114 Sc6 2.345122 1_555
O115 S18 1.499312 1_545
O115 Sc7 2.359201 1_555
O116 S19 1.501771 1_555
O116 Sc6 2.257735 1_555
O117 S20 1.508842 1_555
O117 Sc7 2.305007 1_555
O118 Si14 1.654505 1_555
O118 Sc6 2.025852 1_555
O119 Si13 1.643545 1_655
O119 Sc7 2.083312 1_555
O120 Si9 1.668116 1_555
O121 Si10 1.681651 1_555
O121 Sc8 1.984804 1_555
O122 S10 1.489967 1_455
O123 S9 1.507489 1_555
O123 Sc8 2.269455 1_555
O124 S11 1.473104 1_565
O125 S12 1.488349 1_565
O125 Sc8 2.266465 1_555
O126 Si7 1.683082 1_565
O127 Si8 1.669575 1_565
O127 Sc9 1.978461 1_555
O128 S7 1.496674 1_555
O129 S8 1.477561 1_555
O129 Sc9 2.548309 1_555
O130 S6 1.511683 1_455
O131 S5 1.483628 1_555
O131 Sc9 2.241333 1_555
O132 S0 1.492236 1_565
O132 Sc10 2.242958 1_555
O133 S1 1.494059 1_555
O133 Sc11 2.407849 1_555
O134 Si0 1.655663 1_555
O134 Sc10 2.207241 1_555
O135 Si1 1.655327 1_555
O135 Sc11 2.089516 1_555
O136 Si2 1.669582 1_555
O136 Sc10 1.999336 1_555
O137 Si3 1.664517 1_555
O137 Sc11 2.029132 1_555
O138 S2 1.489102 1_555
O139 S3 1.486846 1_555
O140 Si4 1.654085 1_455
O141 S4 1.504060 1_555
O142 Si5 1.634999 1_565
O143 Si6 1.650610 1_565
