# generated using pymatgen
data_Ce2BiO2
_symmetry_space_group_name_H-M   'P 1'
_cell_length_a   4.01949986
_cell_length_b   4.01949984
_cell_length_c   7.23046912
_cell_angle_alpha   106.13821976
_cell_angle_beta   106.13822459
_cell_angle_gamma   90.00000468
_symmetry_Int_Tables_number   1
_chemical_formula_structural   Ce2BiO2
_chemical_formula_sum   'Ce2 Bi1 O2'
_cell_volume   107.41441001
_cell_formula_units_Z   1
loop_
 _symmetry_equiv_pos_site_id
 _symmetry_equiv_pos_as_xyz
  1  'x, y, z'
loop_
 _atom_site_type_symbol
 _atom_site_label
 _atom_site_symmetry_multiplicity
 _atom_site_fract_x
 _atom_site_fract_y
 _atom_site_fract_z
 _atom_site_occupancy
  Ce  Ce0  1  0.65975927  0.65975927  0.31951655  1
  Ce  Ce1  1  0.34024073  0.34024073  0.68048345  1
  Bi  Bi0  1  0.00000000  -0.00000000  -0.00000000  1
  O  O0  1  0.25000000  0.75000000  0.50000000  1
  O  O1  1  0.75000000  0.25000000  0.50000000  1
loop_
_geom_bond_atom_site_label_1
_geom_bond_atom_site_label_2
_geom_bond_distance
_geom_bond_site_symmetry_2
Ce0 O0 2.340707 1_655
Ce0 O1 2.340707 1_565
Ce0 O1 2.340714 1_555
Ce0 O0 2.340714 1_555
Ce1 O1 2.340707 1_455
Ce1 O0 2.340707 1_545
Ce1 O0 2.340714 1_555
Ce1 O1 2.340714 1_555
Bi0 Ce1 3.548341 1_554
Bi0 Ce0 3.548341 1_445
Bi0 Ce0 3.548346 1_545
Bi0 Ce1 3.548346 1_454
Bi0 Ce1 3.548346 1_544
Bi0 Ce0 3.548346 1_455
Bi0 Ce0 3.548350 1_555
Bi0 Ce1 3.548350 1_444
