# generated using pymatgen
data_In2H5(SeO4)3
_symmetry_space_group_name_H-M   'P 1'
_cell_length_a   6.40535679
_cell_length_b   10.99582938
_cell_length_c   10.05309192
_cell_angle_alpha   93.05378461
_cell_angle_beta   94.79465807
_cell_angle_gamma   105.67513112
_symmetry_Int_Tables_number   1
_chemical_formula_structural   In2H5(SeO4)3
_chemical_formula_sum   'In4 H10 Se6 O24'
_cell_volume   677.21582698
_cell_formula_units_Z   2
loop_
 _symmetry_equiv_pos_site_id
 _symmetry_equiv_pos_as_xyz
  1  'x, y, z'
loop_
 _atom_site_type_symbol
 _atom_site_label
 _atom_site_symmetry_multiplicity
 _atom_site_fract_x
 _atom_site_fract_y
 _atom_site_fract_z
 _atom_site_occupancy
  In  In0  1  0.00000000  -0.00000000  0.50000000  1
  In  In1  1  0.70822919  0.43060141  0.26397424  1
  In  In2  1  0.29177081  0.56939859  0.73602576  1
  In  In3  1  0.00000000  -0.00000000  0.00000000  1
  H  H0  1  0.24593291  0.51406557  0.03485539  1
  H  H1  1  0.75406709  0.48593443  0.96514461  1
  H  H2  1  0.31497971  0.54181547  0.37406863  1
  H  H3  1  0.68502029  0.45818453  0.62593137  1
  H  H4  1  0.48583078  0.93018610  0.18131027  1
  H  H5  1  0.51416922  0.06981390  0.81868973  1
  H  H6  1  0.86584930  0.09578531  0.56979567  1
  H  H7  1  0.13415070  0.90421469  0.43020433  1
  H  H8  1  0.97809240  0.46812082  0.24262083  1
  H  H9  1  0.02190760  0.53187918  0.75737917  1
  Se  Se0  1  0.72137331  0.12273653  0.22164316  1
  Se  Se1  1  0.27862669  0.87726347  0.77835684  1
  Se  Se2  1  0.39165484  0.32321687  0.51482251  1
  Se  Se3  1  0.60834516  0.67678313  0.48517749  1
  Se  Se4  1  0.45637196  0.32637651  0.94581903  1
  Se  Se5  1  0.54362804  0.67362349  0.05418097  1
  O  O0  1  0.76970455  0.61648910  0.40067670  1
  O  O1  1  0.23029545  0.38351090  0.59932330  1
  O  O2  1  0.69936824  0.23629247  0.32792617  1
  O  O3  1  0.30063176  0.76370753  0.67207383  1
  O  O4  1  0.76806088  0.16747777  0.07229649  1
  O  O5  1  0.23193912  0.83252223  0.92770351  1
  O  O6  1  0.46557990  0.01313284  0.21188226  1
  O  O7  1  0.53442010  0.98686716  0.78811774  1
  O  O8  1  0.90150070  0.05111427  0.27677601  1
  O  O9  1  0.09849930  0.94888573  0.72322399  1
  O  O10  1  0.38661989  0.18988865  0.86242284  1
  O  O11  1  0.61338011  0.81011135  0.13757716  1
  O  O12  1  0.41742506  0.39604016  0.37171232  1
  O  O13  1  0.58257494  0.60395984  0.62828768  1
  O  O14  1  0.69621510  0.58086558  0.10178282  1
  O  O15  1  0.30378490  0.41913442  0.89821718  1
  O  O16  1  0.32884085  0.17129806  0.49481556  1
  O  O17  1  0.67115915  0.82870194  0.50518444  1
  O  O18  1  0.28030957  0.59701654  0.08816628  1
  O  O19  1  0.71969043  0.40298346  0.91183372  1
  O  O20  1  0.65267149  0.36681349  0.59888935  1
  O  O21  1  0.34732851  0.63318651  0.40111065  1
  O  O22  1  0.45144268  0.31976177  0.10950992  1
  O  O23  1  0.54855732  0.68023823  0.89049008  1
loop_
_geom_bond_atom_site_label_1
_geom_bond_atom_site_label_2
_geom_bond_distance
_geom_bond_site_symmetry_2
In0 O9 2.416447 1_545
In0 O8 2.416447 1_455
In0 O17 2.423254 1_445
In0 O16 2.423254 1_555
In1 O12 2.187648 1_555
In1 O22 2.211395 1_555
In1 O2 2.251332 1_555
In1 O0 2.323128 1_555
In1 O14 2.393604 1_555
In2 O13 2.187648 1_555
In2 O23 2.211395 1_555
In2 O3 2.251332 1_555
In2 O1 2.323128 1_555
In2 O15 2.393604 1_555
In3 O4 2.764603 1_455
In3 O5 2.764603 1_544
H0 O18 0.993645 1_555
H1 O19 0.993645 1_555
H2 O21 0.987548 1_555
H3 O20 0.987548 1_555
H4 O6 0.991908 1_565
H5 O7 0.991908 1_545
H6 In0 1.688522 1_655
H7 In0 1.688522 1_565
H8 In1 1.700104 1_555
H9 In2 1.700104 1_555
O0 Se3 1.639051 1_555
O1 Se2 1.639051 1_555
O2 Se0 1.642784 1_555
O3 Se1 1.642784 1_555
O4 Se0 1.630923 1_555
O5 Se1 1.630923 1_555
O6 Se0 1.743591 1_555
O7 Se1 1.743591 1_555
O8 Se0 1.639892 1_555
O9 Se1 1.639892 1_555
O10 Se4 1.611177 1_555
O11 Se5 1.611177 1_555
O12 Se2 1.682062 1_555
O13 Se3 1.682062 1_555
O14 Se5 1.654405 1_555
O15 Se4 1.654405 1_555
O16 Se2 1.606333 1_555
O17 Se3 1.606333 1_555
O18 Se5 1.740789 1_555
O19 Se4 1.740789 1_555
O20 Se2 1.739786 1_555
O21 Se3 1.739786 1_555
O22 Se4 1.653627 1_554
O23 Se5 1.653627 1_556
