# generated using pymatgen
data_Sr2MgMnO4
_symmetry_space_group_name_H-M   'P 1'
_cell_length_a   3.90604751
_cell_length_b   3.90604747
_cell_length_c   9.50861843
_cell_angle_alpha   114.12495330
_cell_angle_beta   114.12496188
_cell_angle_gamma   90.01668055
_symmetry_Int_Tables_number   1
_chemical_formula_structural   Sr2MgMnO4
_chemical_formula_sum   'Sr2 Mg1 Mn1 O4'
_cell_volume   118.37489227
_cell_formula_units_Z   1
loop_
 _symmetry_equiv_pos_site_id
 _symmetry_equiv_pos_as_xyz
  1  'x, y, z'
loop_
 _atom_site_type_symbol
 _atom_site_label
 _atom_site_symmetry_multiplicity
 _atom_site_fract_x
 _atom_site_fract_y
 _atom_site_fract_z
 _atom_site_occupancy
  Sr  Sr0  1  0.68189031  0.68188931  0.32988432  1
  Sr  Sr1  1  0.51718340  0.51718440  0.66570367  1
  Mg  Mg0  1  0.24308269  0.24308269  0.89070427  1
  Mn  Mn0  1  0.92174706  0.92174706  0.07019286  1
  O  O0  1  0.98621243  0.98621243  0.63059160  1
  O  O1  1  0.19718578  0.19718578  0.34060666  1
  O  O2  1  0.80954794  0.30981939  0.95745581  1
  O  O3  1  0.30981739  0.80954694  0.95745481  1
loop_
_geom_bond_atom_site_label_1
_geom_bond_atom_site_label_2
_geom_bond_distance
_geom_bond_site_symmetry_2
Mg0 O0 2.018146 1_445
Mg0 O3 2.020413 1_545
Mg0 O2 2.020415 1_455
Mg0 O3 2.020634 1_555
Mg0 O2 2.020636 1_555
Mn0 O1 2.098327 1_665
Mn0 O2 2.138963 1_554
Mn0 O3 2.138970 1_554
Mn0 O3 2.140931 1_654
Mn0 O2 2.140931 1_564
O0 Sr0 2.333240 1_555
O0 Sr1 2.753150 1_665
O0 Sr1 2.775879 1_655
O0 Sr1 2.775885 1_565
O0 Sr1 2.796841 1_555
O1 Sr1 2.522381 1_555
O1 Sr0 2.737314 1_555
O1 Sr0 2.763762 1_455
O1 Sr0 2.763768 1_545
O1 Sr0 2.788373 1_445
O2 Sr1 2.983921 1_555
O2 Sr1 2.995466 1_545
O3 Sr1 2.983915 1_555
O3 Sr1 2.995460 1_455
