# generated using pymatgen
data_AgAsPbS3
_symmetry_space_group_name_H-M   'P 1'
_cell_length_a   12.71834500
_cell_length_b   6.11740100
_cell_length_c   7.55724849
_cell_angle_alpha   89.02263565
_cell_angle_beta   90.00000000
_cell_angle_gamma   90.00000000
_symmetry_Int_Tables_number   1
_chemical_formula_structural   AgAsPbS3
_chemical_formula_sum   'Ag4 As4 Pb4 S12'
_cell_volume   587.89269596
_cell_formula_units_Z   4
loop_
 _symmetry_equiv_pos_site_id
 _symmetry_equiv_pos_as_xyz
  1  'x, y, z'
loop_
 _atom_site_type_symbol
 _atom_site_label
 _atom_site_symmetry_multiplicity
 _atom_site_fract_x
 _atom_site_fract_y
 _atom_site_fract_z
 _atom_site_occupancy
  Ag  Ag0  1  0.76380100  0.19075700  0.38923400  1
  Ag  Ag1  1  0.73619900  0.19075700  0.88923400  1
  Ag  Ag2  1  0.26380100  0.80924300  0.11076600  1
  Ag  Ag3  1  0.23619900  0.80924300  0.61076600  1
  As  As0  1  0.90391000  0.72942300  0.65122600  1
  As  As1  1  0.09609000  0.27057700  0.34877400  1
  As  As2  1  0.59609000  0.72942300  0.15122600  1
  As  As3  1  0.40391000  0.27057700  0.84877400  1
  Pb  Pb0  1  0.58717000  0.73818200  0.65405200  1
  Pb  Pb1  1  0.08717000  0.26181800  0.84594800  1
  Pb  Pb2  1  0.41283000  0.26181800  0.34594800  1
  Pb  Pb3  1  0.91283000  0.73818200  0.15405200  1
  S  S0  1  0.45106600  0.72102300  0.33391200  1
  S  S1  1  0.95106600  0.27897700  0.16608800  1
  S  S2  1  0.54893400  0.27897700  0.66608800  1
  S  S3  1  0.04893400  0.72102300  0.83391200  1
  S  S4  1  0.12940000  0.90231200  0.34390800  1
  S  S5  1  0.62940000  0.09768800  0.15609200  1
  S  S6  1  0.87060000  0.09768800  0.65609200  1
  S  S7  1  0.78167900  0.61720200  0.85717500  1
  S  S8  1  0.71832100  0.61720200  0.35717500  1
  S  S9  1  0.21832100  0.38279800  0.14282500  1
  S  S10  1  0.28167900  0.38279800  0.64282500  1
  S  S11  1  0.37060000  0.90231200  0.84390800  1
loop_
_geom_bond_atom_site_label_1
_geom_bond_atom_site_label_2
_geom_bond_distance
_geom_bond_site_symmetry_2
Ag0 S6 2.489398 1_555
Ag0 S5 2.526779 1_555
Ag0 S8 2.679033 1_555
Ag0 S1 2.962524 1_555
Ag1 S5 2.489398 1_556
Ag1 S6 2.526779 1_555
Ag1 S7 2.679033 1_555
Ag1 S2 2.962524 1_555
Ag2 S11 2.489398 1_554
Ag2 S4 2.526779 1_555
Ag2 S9 2.679033 1_555
Ag2 S0 2.962524 1_555
Ag3 S4 2.489398 1_555
Ag3 S11 2.526779 1_555
Ag3 S10 2.679033 1_555
Ag3 S3 2.962524 1_555
As0 S6 2.293224 1_565
As0 S7 2.296507 1_555
As0 S3 2.303983 1_655
As1 S4 2.293224 1_545
As1 S9 2.296507 1_555
As1 S1 2.303983 1_455
As2 S5 2.293224 1_565
As2 S8 2.296507 1_555
As2 S0 2.303983 1_555
As3 S11 2.293224 1_545
As3 S10 2.296507 1_555
As3 S2 2.303983 1_555
Pb0 S2 2.850845 1_555
Pb0 S8 2.901774 1_555
Pb0 S0 2.978169 1_555
Pb0 S7 2.997532 1_555
Pb1 S3 2.850845 1_555
Pb1 S9 2.901774 1_556
Pb1 S1 2.978169 1_456
Pb1 S10 2.997532 1_555
Pb2 S0 2.850845 1_555
Pb2 S10 2.901774 1_555
Pb2 S2 2.978169 1_555
Pb2 S9 2.997532 1_555
Pb3 S1 2.850845 1_555
Pb3 S7 2.901774 1_554
Pb3 S3 2.978169 1_654
Pb3 S8 2.997532 1_555
