# generated using pymatgen
data_NaGa4PS5O24
_symmetry_space_group_name_H-M   'P 1'
_cell_length_a   8.46315945
_cell_length_b   8.45956892
_cell_length_c   22.06652755
_cell_angle_alpha   89.83599394
_cell_angle_beta   90.33289523
_cell_angle_gamma   119.88214150
_symmetry_Int_Tables_number   1
_chemical_formula_structural   NaGa4PS5O24
_chemical_formula_sum   'Na3 Ga12 P3 S15 O72'
_cell_volume   1369.78563412
_cell_formula_units_Z   3
loop_
 _symmetry_equiv_pos_site_id
 _symmetry_equiv_pos_as_xyz
  1  'x, y, z'
loop_
 _atom_site_type_symbol
 _atom_site_label
 _atom_site_symmetry_multiplicity
 _atom_site_fract_x
 _atom_site_fract_y
 _atom_site_fract_z
 _atom_site_occupancy
  Na  Na0  1  0.99951065  0.99639145  0.99863093  1
  Na  Na1  1  0.66302577  0.33270420  0.83572589  1
  Na  Na2  1  0.66959121  0.33272152  0.33171898  1
  Ga  Ga0  1  0.99821929  0.00508580  0.35088001  1
  Ga  Ga1  1  0.99883812  0.99205660  0.85562355  1
  Ga  Ga2  1  0.00032335  0.00056321  0.64769147  1
  Ga  Ga3  1  0.00152441  0.00725066  0.14910265  1
  Ga  Ga4  1  0.66633638  0.33302631  0.68531543  1
  Ga  Ga5  1  0.67441842  0.33305158  0.18486731  1
  Ga  Ga6  1  0.65827691  0.33276356  0.97874411  1
  Ga  Ga7  1  0.66638779  0.33296839  0.48259327  1
  Ga  Ga8  1  0.33994862  0.67467944  0.01723055  1
  Ga  Ga9  1  0.33341813  0.66711665  0.52018109  1
  Ga  Ga10  1  0.32752229  0.66008763  0.31019194  1
  Ga  Ga11  1  0.34101353  0.67277352  0.81726734  1
  P  P0  1  0.99952869  0.29017756  0.25001172  1
  P  P1  1  0.62256283  0.66655502  0.91682572  1
  P  P2  1  0.33401666  0.95620245  0.91676346  1
  S  S0  1  0.29033881  -0.00000787  0.25020171  1
  S  S1  1  0.70930603  0.70971439  0.25009902  1
  S  S2  1  0.28911643  0.29172993  0.75019574  1
  S  S3  1  0.00202372  0.70889423  0.74961542  1
  S  S4  1  0.70982222  0.99900956  0.74981088  1
  S  S5  1  0.95829952  0.33344936  0.58345611  1
  S  S6  1  0.37490704  0.04189605  0.58335196  1
  S  S7  1  0.66707006  0.62505213  0.58335598  1
  S  S8  1  0.95932205  0.62461872  0.08296215  1
  S  S9  1  0.66556120  0.04241437  0.08289065  1
  S  S10  1  0.37648683  0.33520559  0.08386146  1
  S  S11  1  0.04388516  0.37749143  0.91668990  1
  S  S12  1  0.62276809  0.95498419  0.41640652  1
  S  S13  1  0.33282220  0.37591882  0.41694952  1
  S  S14  1  0.04312946  0.66882116  0.41654090  1
  O  O0  1  0.21246323  0.03490182  0.30545085  1
  O  O1  1  0.82451513  0.78549566  0.30543431  1
  O  O2  1  0.96039178  0.17125418  0.30740287  1
  O  O3  1  0.21022821  0.17456539  0.80412794  1
  O  O4  1  0.96250797  0.78666940  0.80343424  1
  O  O5  1  0.82700296  0.03773502  0.80409096  1
  O  O6  1  0.78992849  0.96784117  0.69452368  1
  O  O7  1  0.17807243  0.21107345  0.69444874  1
  O  O8  1  0.03305601  0.82126821  0.69441523  1
  O  O9  1  0.78840645  0.82109378  0.19532819  1
  O  O10  1  0.03541807  0.20791188  0.19362077  1
  O  O11  1  0.17681245  0.96377892  0.19536037  1
  O  O12  1  0.87838953  0.36953254  0.63765668  1
  O  O13  1  0.49156020  0.12174563  0.63782179  1
  O  O14  1  0.63086624  0.50876915  0.63776732  1
  O  O15  1  0.87893722  0.51321747  0.13819664  1
  O  O16  1  0.63282834  0.12151972  0.13799146  1
  O  O17  1  0.48983232  0.36611252  0.13897119  1
  O  O18  1  0.45407965  0.29664994  0.02957998  1
  O  O19  1  0.84189811  0.54438885  0.02870067  1
  O  O20  1  0.70359347  0.15982293  0.02874979  1
  O  O21  1  0.45417665  0.15726397  0.52863062  1
  O  O22  1  0.70251111  0.54546706  0.52868993  1
  O  O23  1  0.84255896  0.29723354  0.52849603  1
  O  O24  1  0.54298478  0.70176247  0.97401258  1
  O  O25  1  0.15514933  0.45312941  0.97195007  1
  O  O26  1  0.29369932  0.83865707  0.97386022  1
  O  O27  1  0.54324126  0.84390671  0.47169635  1
  O  O28  1  0.30050853  0.45590821  0.47180556  1
  O  O29  1  0.15518836  0.70054329  0.47185876  1
  O  O30  1  0.12159085  0.63125910  0.36257145  1
  O  O31  1  0.50673405  0.87611294  0.36189784  1
  O  O32  1  0.37133030  0.49214447  0.36269197  1
  O  O33  1  0.11920097  0.48788095  0.86108847  1
  O  O34  1  0.36838782  0.87720080  0.85889590  1
  O  O35  1  0.50606064  0.62645649  0.85899578  1
  O  O36  1  0.02407198  0.83118011  0.40836649  1
  O  O37  1  0.80372553  0.97296262  0.40968414  1
  O  O38  1  0.17175419  0.19431107  0.40950403  1
  O  O39  1  0.02562344  0.19503759  0.90956437  1
  O  O40  1  0.16482287  0.97890810  0.90951260  1
  O  O41  1  0.81125665  0.83884773  0.90946481  1
  O  O42  1  0.97509733  0.16945006  0.59147768  1
  O  O43  1  0.19443817  0.02495290  0.59138869  1
  O  O44  1  0.83033201  0.80552187  0.59153736  1
  O  O45  1  0.97511809  0.80776301  0.09081181  1
  O  O46  1  0.83139034  0.02409656  0.08977414  1
  O  O47  1  0.19410969  0.16711636  0.09002854  1
  O  O48  1  0.69301052  0.16650535  0.74248740  1
  O  O49  1  0.47293110  0.30783959  0.74267252  1
  O  O50  1  0.83414530  0.52582495  0.74221660  1
  O  O51  1  0.68922294  0.52596939  0.24335854  1
  O  O52  1  0.82733743  0.30945679  0.24303385  1
  O  O53  1  0.47175483  0.16555952  0.24327258  1
  O  O54  1  0.64583811  0.49778510  0.92364854  1
  O  O55  1  0.86150341  0.35865341  0.92341891  1
  O  O56  1  0.50585956  0.14522963  0.92379222  1
  O  O57  1  0.64085036  0.13951736  0.42367557  1
  O  O58  1  0.49966781  0.35846157  0.42421238  1
  O  O59  1  0.85964700  0.50213002  0.42395988  1
  O  O60  1  0.35648742  0.49614916  0.07590366  1
  O  O61  1  0.13866438  0.64077466  0.07576092  1
  O  O62  1  0.50345622  0.86209900  0.07668382  1
  O  O63  1  0.35871361  0.86160855  0.57507738  1
  O  O64  1  0.50301509  0.64153580  0.57495966  1
  O  O65  1  0.13831307  0.49684722  0.57503798  1
  O  O66  1  0.31012792  0.83836217  0.25840215  1
  O  O67  1  0.53035042  0.69475891  0.25837909  1
  O  O68  1  0.16832074  0.47742321  0.25895497  1
  O  O69  1  0.30698644  0.47188286  0.75716481  1
  O  O70  1  0.16264706  0.68867699  0.75738782  1
  O  O71  1  0.52930990  0.83782505  0.75612153  1
loop_
_geom_bond_atom_site_label_1
_geom_bond_atom_site_label_2
_geom_bond_distance
_geom_bond_site_symmetry_2
Na0 O41 2.459425 1_555
Na0 O40 2.467048 1_655
Na0 O39 2.520244 1_665
Na0 O45 2.526775 1_556
Na0 O47 2.544368 1_666
Na0 O46 2.548056 1_566
Na1 O54 2.440653 1_555
Na1 O56 2.443637 1_555
Na1 O55 2.492291 1_555
Na1 O49 2.544737 1_555
Na1 O48 2.579223 1_555
Na1 O50 2.584950 1_555
Na2 O52 2.438270 1_555
Na2 O51 2.493346 1_555
Na2 O53 2.496160 1_555
Na2 O57 2.537443 1_555
Na2 O59 2.542786 1_555
Na2 O58 2.574861 1_555
Ga0 O2 1.853666 1_555
Ga0 O1 1.972313 1_545
Ga0 O0 1.979935 1_655
Ga0 O38 2.009989 1_655
Ga0 O37 2.011002 1_545
Ga0 O36 2.031796 1_645
Ga1 O40 1.880239 1_655
Ga1 O41 1.890637 1_555
Ga1 O4 1.978557 1_555
Ga1 O39 2.009331 1_665
Ga1 O5 2.023744 1_565
Ga1 O3 2.033937 1_665
Ga2 O7 1.954986 1_555
Ga2 O6 1.960549 1_445
Ga2 O8 1.961308 1_545
Ga2 O42 1.978938 1_455
Ga2 O44 1.988286 1_445
Ga2 O43 1.992365 1_555
Ga3 O10 1.857398 1_555
Ga3 O11 1.975292 1_545
Ga3 O9 1.988858 1_445
Ga3 O46 1.997240 1_455
Ga3 O47 2.000741 1_555
Ga3 O45 2.045890 1_445
Ga4 O14 1.957906 1_555
Ga4 O13 1.959394 1_555
Ga4 O12 1.972287 1_555
Ga4 O48 1.982518 1_555
Ga4 O50 1.984082 1_555
Ga4 O49 2.000380 1_555
Ga5 O52 1.897057 1_555
Ga5 O15 1.939732 1_555
Ga5 O16 1.942883 1_555
Ga5 O17 1.989895 1_555
Ga5 O51 2.037513 1_555
Ga5 O53 2.050394 1_555
Ga6 O54 1.890305 1_555
Ga6 O56 1.898650 1_555
Ga6 O18 1.957730 1_556
Ga6 O20 2.012463 1_556
Ga6 O19 2.013560 1_556
Ga6 O55 2.035709 1_555
Ga7 O23 1.941692 1_555
Ga7 O22 1.954206 1_555
Ga7 O21 1.954342 1_555
Ga7 O58 1.994364 1_555
Ga7 O57 2.017833 1_555
Ga7 O59 2.019594 1_555
Ga8 O26 1.876822 1_554
Ga8 O24 1.881525 1_554
Ga8 O62 1.988581 1_555
Ga8 O25 2.007205 1_554
Ga8 O60 2.043082 1_555
Ga8 O61 2.046681 1_555
Ga9 O64 1.963661 1_555
Ga9 O63 1.969198 1_555
Ga9 O29 1.974031 1_555
Ga9 O27 1.975181 1_555
Ga9 O65 1.977341 1_555
Ga9 O28 1.980176 1_555
Ga10 O68 1.843693 1_555
Ga10 O66 1.952320 1_555
Ga10 O67 1.964443 1_555
Ga10 O32 2.002119 1_555
Ga10 O30 2.007775 1_555
Ga10 O31 2.042509 1_555
Ga11 O35 1.865703 1_555
Ga11 O34 1.869654 1_555
Ga11 O33 1.998050 1_555
Ga11 O71 2.026493 1_555
Ga11 O70 2.054486 1_555
Ga11 O69 2.061750 1_555
O0 S0 1.487709 1_555
O1 S1 1.490119 1_555
O2 P0 1.546350 1_555
O3 S2 1.479045 1_555
O4 S3 1.477651 1_655
O5 S4 1.479933 1_545
O6 S4 1.485633 1_555
O7 S2 1.488095 1_555
O8 S3 1.484825 1_555
O9 S1 1.473438 1_555
O10 P0 1.531329 1_455
O11 S0 1.475390 1_565
O12 S5 1.482631 1_555
O13 S6 1.483921 1_555
O14 S7 1.483355 1_555
O15 S8 1.483483 1_555
O16 S9 1.481970 1_555
O17 S10 1.485175 1_555
O18 S10 1.482277 1_555
O19 S8 1.483463 1_555
O20 S9 1.482070 1_555
O21 S6 1.486912 1_555
O22 S7 1.486084 1_555
O23 S5 1.487773 1_555
O24 P1 1.531868 1_555
O25 S11 1.474384 1_555
O26 P2 1.533746 1_555
O27 S12 1.482327 1_555
O28 S13 1.480161 1_555
O29 S14 1.481991 1_555
O30 S14 1.477092 1_555
O31 S12 1.481313 1_555
O32 S13 1.478143 1_555
O33 S11 1.480921 1_555
O34 P2 1.537774 1_555
O35 P1 1.539563 1_555
O36 S14 1.471052 1_555
O37 S12 1.470021 1_555
O38 S13 1.468851 1_555
O39 S11 1.481335 1_555
O40 P2 1.544052 1_555
O41 P1 1.543814 1_555
O42 S5 1.473482 1_555
O43 S6 1.472963 1_555
O44 S7 1.472843 1_555
O45 S8 1.497718 1_555
O46 S9 1.493591 1_555
O47 S10 1.495736 1_555
O48 S4 1.501130 1_545
O49 S2 1.502601 1_555
O50 S3 1.499986 1_655
O51 S1 1.484910 1_555
O52 P0 1.551791 1_555
O53 S0 1.483630 1_555
O54 P1 1.542243 1_555
O55 S11 1.478967 1_655
O56 P2 1.541982 1_545
O57 S12 1.499732 1_545
O58 S13 1.498792 1_555
O59 S14 1.498773 1_655
O60 S10 1.463255 1_555
O61 S8 1.464115 1_455
O62 S9 1.463386 1_565
O63 S6 1.473515 1_565
O64 S7 1.473524 1_555
O65 S5 1.472972 1_455
O66 S0 1.468594 1_565
O67 S1 1.468109 1_555
O68 P0 1.527252 1_455
O69 S2 1.463063 1_555
O70 S3 1.461291 1_555
O71 S4 1.462277 1_555
