# generated using pymatgen
data_Hf3P3Pd4
_symmetry_space_group_name_H-M   'P 1'
_cell_length_a   3.77681078
_cell_length_b   9.99827613
_cell_length_c   16.38698741
_cell_angle_alpha   90.00000000
_cell_angle_beta   90.00000000
_cell_angle_gamma   90.00000000
_symmetry_Int_Tables_number   1
_chemical_formula_structural   Hf3P3Pd4
_chemical_formula_sum   'Hf12 P12 Pd16'
_cell_volume   618.79881575
_cell_formula_units_Z   4
loop_
 _symmetry_equiv_pos_site_id
 _symmetry_equiv_pos_as_xyz
  1  'x, y, z'
loop_
 _atom_site_type_symbol
 _atom_site_label
 _atom_site_symmetry_multiplicity
 _atom_site_fract_x
 _atom_site_fract_y
 _atom_site_fract_z
 _atom_site_occupancy
  Hf  Hf0  1  0.25000000  0.91207648  0.06093237  1
  Hf  Hf1  1  0.75000000  0.08792352  0.93906763  1
  Hf  Hf2  1  0.75000000  0.41207648  0.43906763  1
  Hf  Hf3  1  0.25000000  0.58792352  0.56093237  1
  Hf  Hf4  1  0.25000000  0.61784411  0.95207898  1
  Hf  Hf5  1  0.75000000  0.38215589  0.04792102  1
  Hf  Hf6  1  0.75000000  0.11784411  0.54792102  1
  Hf  Hf7  1  0.25000000  0.88215589  0.45207898  1
  Hf  Hf8  1  0.25000000  0.47788979  0.76051476  1
  Hf  Hf9  1  0.75000000  0.52211021  0.23948524  1
  Hf  Hf10  1  0.75000000  0.97788979  0.73948524  1
  Hf  Hf11  1  0.25000000  0.02211021  0.26051476  1
  P  P0  1  0.25000000  0.10952520  0.82306114  1
  P  P1  1  0.75000000  0.89047480  0.17693886  1
  P  P2  1  0.75000000  0.60952520  0.67693886  1
  P  P3  1  0.25000000  0.39047480  0.32306114  1
  P  P4  1  0.25000000  0.96642754  0.61386978  1
  P  P5  1  0.75000000  0.03357246  0.38613022  1
  P  P6  1  0.75000000  0.46642754  0.88613022  1
  P  P7  1  0.25000000  0.53357246  0.11386978  1
  P  P8  1  0.25000000  0.32066879  0.54311512  1
  P  P9  1  0.75000000  0.67933121  0.45688488  1
  P  P10  1  0.75000000  0.82066879  0.95688488  1
  P  P11  1  0.25000000  0.17933121  0.04311512  1
  Pd  Pd0  1  0.25000000  0.31055238  0.17538904  1
  Pd  Pd1  1  0.75000000  0.68944762  0.82461096  1
  Pd  Pd2  1  0.75000000  0.81055238  0.32461096  1
  Pd  Pd3  1  0.25000000  0.18944762  0.67538904  1
  Pd  Pd4  1  0.25000000  0.73176229  0.20618073  1
  Pd  Pd5  1  0.75000000  0.26823771  0.79381927  1
  Pd  Pd6  1  0.75000000  0.23176229  0.29381927  1
  Pd  Pd7  1  0.25000000  0.76823771  0.70618073  1
  Pd  Pd8  1  0.25000000  0.61698606  0.37155511  1
  Pd  Pd9  1  0.75000000  0.38301394  0.62844489  1
  Pd  Pd10  1  0.75000000  0.11698606  0.12844489  1
  Pd  Pd11  1  0.25000000  0.88301394  0.87155511  1
  Pd  Pd12  1  0.25000000  0.18172047  0.41977834  1
  Pd  Pd13  1  0.75000000  0.81827953  0.58022166  1
  Pd  Pd14  1  0.75000000  0.68172047  0.08022166  1
  Pd  Pd15  1  0.25000000  0.31827953  0.91977834  1
loop_
_geom_bond_atom_site_label_1
_geom_bond_atom_site_label_2
_geom_bond_distance
_geom_bond_site_symmetry_2
Hf0 P11 2.687991 1_565
Hf0 P1 2.688217 1_455
Hf0 P1 2.688217 1_555
Hf0 P10 2.703411 1_454
Hf0 P10 2.703411 1_554
Hf0 Pd4 2.985879 1_555
Hf0 Pd14 2.995088 1_555
Hf0 Pd14 2.995088 1_455
Hf0 Pd10 2.997896 1_565
Hf0 Pd10 2.997896 1_465
Hf0 Pd11 3.116897 1_554
Hf1 P10 2.687991 1_545
Hf1 P0 2.688217 1_555
Hf1 P0 2.688217 1_655
Hf1 P11 2.703411 1_556
Hf1 P11 2.703411 1_656
Hf1 Pd5 2.985879 1_555
Hf1 Pd15 2.995088 1_555
Hf1 Pd15 2.995088 1_655
Hf1 Pd11 2.997896 1_645
Hf1 Pd11 2.997896 1_545
Hf1 Pd10 3.116897 1_556
Hf2 P9 2.687991 1_555
Hf2 P3 2.688217 1_655
Hf2 P3 2.688217 1_555
Hf2 P8 2.703411 1_655
Hf2 P8 2.703411 1_555
Hf2 Pd6 2.985879 1_555
Hf2 Pd12 2.995088 1_655
Hf2 Pd12 2.995088 1_555
Hf2 Pd8 2.997896 1_555
Hf2 Pd8 2.997896 1_655
Hf2 Pd9 3.116897 1_555
Hf3 P8 2.687991 1_555
Hf3 P2 2.688217 1_455
Hf3 P2 2.688217 1_555
Hf3 P9 2.703411 1_455
Hf3 P9 2.703411 1_555
Hf3 Pd7 2.985879 1_555
Hf3 Pd13 2.995088 1_455
Hf3 Pd13 2.995088 1_555
Hf3 Pd9 2.997896 1_555
Hf3 Pd9 2.997896 1_455
Hf3 Pd8 3.116897 1_555
Hf4 P6 2.650641 1_455
Hf4 P6 2.650641 1_555
Hf4 P10 2.772119 1_555
Hf4 P10 2.772119 1_455
Hf4 P7 2.781928 1_556
Hf4 Pd14 2.895413 1_556
Hf4 Pd14 2.895413 1_456
Hf4 Pd1 2.905471 1_455
Hf4 Pd1 2.905471 1_555
Hf4 Pd11 2.961465 1_555
Hf4 Pd15 3.041541 1_555
Hf5 P7 2.650641 1_555
Hf5 P7 2.650641 1_655
Hf5 P11 2.772119 1_655
Hf5 P11 2.772119 1_555
Hf5 P6 2.781928 1_554
Hf5 Pd15 2.895413 1_654
Hf5 Pd15 2.895413 1_554
Hf5 Pd0 2.905471 1_555
Hf5 Pd0 2.905471 1_655
Hf5 Pd10 2.961465 1_555
Hf5 Pd14 3.041541 1_555
Hf6 P4 2.650641 1_545
Hf6 P4 2.650641 1_645
Hf6 P8 2.772119 1_555
Hf6 P8 2.772119 1_655
Hf6 P5 2.781928 1_555
Hf6 Pd12 2.895413 1_655
Hf6 Pd12 2.895413 1_555
Hf6 Pd3 2.905471 1_555
Hf6 Pd3 2.905471 1_655
Hf6 Pd9 2.961465 1_555
Hf6 Pd13 3.041541 1_545
Hf7 P5 2.650641 1_465
Hf7 P5 2.650641 1_565
Hf7 P9 2.772119 1_555
Hf7 P9 2.772119 1_455
Hf7 P4 2.781928 1_555
Hf7 Pd13 2.895413 1_455
Hf7 Pd13 2.895413 1_555
Hf7 Pd2 2.905471 1_455
Hf7 Pd2 2.905471 1_555
Hf7 Pd8 2.961465 1_555
Hf7 Pd12 3.041541 1_565
Hf8 P2 2.678424 1_455
Hf8 P2 2.678424 1_555
Hf8 P6 2.795794 1_555
Hf8 P6 2.795794 1_455
Hf8 Pd5 2.873641 1_455
Hf8 Pd5 2.873641 1_555
Hf8 Pd1 3.023810 1_455
Hf8 Pd1 3.023810 1_555
Hf8 Pd9 3.024861 1_555
Hf8 Pd9 3.024861 1_455
Hf8 Pd7 3.036453 1_555
Hf8 Pd15 3.059082 1_555
Hf8 Pd3 3.203579 1_555
Hf9 P3 2.678424 1_555
Hf9 P3 2.678424 1_655
Hf9 P7 2.795794 1_655
Hf9 P7 2.795794 1_555
Hf9 Pd4 2.873641 1_655
Hf9 Pd4 2.873641 1_555
Hf9 Pd0 3.023810 1_555
Hf9 Pd0 3.023810 1_655
Hf9 Pd8 3.024861 1_555
Hf9 Pd8 3.024861 1_655
Hf9 Pd6 3.036453 1_555
Hf9 Pd14 3.059082 1_555
Hf9 Pd2 3.203579 1_555
Hf10 P0 2.678424 1_565
Hf10 P0 2.678424 1_665
Hf10 P4 2.795794 1_655
Hf10 P4 2.795794 1_555
Hf10 Pd7 2.873641 1_555
Hf10 Pd7 2.873641 1_655
Hf10 Pd3 3.023810 1_665
Hf10 Pd3 3.023810 1_565
Hf10 Pd11 3.024861 1_655
Hf10 Pd11 3.024861 1_555
Hf10 Pd5 3.036453 1_565
Hf10 Pd13 3.059082 1_555
Hf10 Pd1 3.203579 1_555
Hf11 P1 2.678424 1_445
Hf11 P1 2.678424 1_545
Hf11 P5 2.795794 1_555
Hf11 P5 2.795794 1_455
Hf11 Pd6 2.873641 1_455
Hf11 Pd6 2.873641 1_555
Hf11 Pd2 3.023810 1_445
Hf11 Pd2 3.023810 1_545
Hf11 Pd10 3.024861 1_455
Hf11 Pd10 3.024861 1_555
Hf11 Pd4 3.036453 1_545
Hf11 Pd12 3.059082 1_555
Hf11 Pd0 3.203579 1_555
P0 Pd11 2.400097 1_545
P0 Pd5 2.512726 1_455
P0 Pd5 2.512726 1_555
P0 Pd3 2.548423 1_555
P0 Pd15 2.620735 1_555
P1 Pd10 2.400097 1_565
P1 Pd4 2.512726 1_555
P1 Pd4 2.512726 1_655
P1 Pd2 2.548423 1_555
P1 Pd14 2.620735 1_555
P2 Pd9 2.400097 1_555
P2 Pd7 2.512726 1_555
P2 Pd7 2.512726 1_655
P2 Pd1 2.548423 1_555
P2 Pd13 2.620735 1_555
P3 Pd8 2.400097 1_555
P3 Pd6 2.512726 1_555
P3 Pd6 2.512726 1_455
P3 Pd0 2.548423 1_555
P3 Pd12 2.620735 1_555
P4 Pd3 2.447116 1_565
P4 Pd13 2.462546 1_455
P4 Pd13 2.462546 1_555
P4 Pd7 2.492955 1_555
P5 Pd2 2.447116 1_545
P5 Pd12 2.462546 1_555
P5 Pd12 2.462546 1_655
P5 Pd6 2.492955 1_555
P6 Pd1 2.447116 1_555
P6 Pd15 2.462546 1_555
P6 Pd15 2.462546 1_655
P6 Pd5 2.492955 1_555
P7 Pd0 2.447116 1_555
P7 Pd14 2.462546 1_555
P7 Pd14 2.462546 1_455
P7 Pd4 2.492955 1_555
P8 Pd9 2.431022 1_455
P8 Pd9 2.431022 1_555
P8 Pd12 2.452533 1_555
P8 Pd3 2.533707 1_555
P9 Pd8 2.431022 1_555
P9 Pd8 2.431022 1_655
P9 Pd13 2.452533 1_555
P9 Pd2 2.533707 1_555
P10 Pd11 2.431022 1_555
P10 Pd11 2.431022 1_655
P10 Pd14 2.452533 1_556
P10 Pd1 2.533707 1_555
P11 Pd10 2.431022 1_455
P11 Pd10 2.431022 1_555
P11 Pd15 2.452533 1_554
P11 Pd0 2.533707 1_555
Pd0 Pd10 2.811291 1_555
Pd0 Pd10 2.811291 1_455
Pd0 Pd6 2.820110 1_455
Pd0 Pd6 2.820110 1_555
Pd1 Pd11 2.811291 1_555
Pd1 Pd11 2.811291 1_655
Pd1 Pd7 2.820110 1_655
Pd1 Pd7 2.820110 1_555
Pd2 Pd8 2.811291 1_555
Pd2 Pd8 2.811291 1_655
Pd2 Pd4 2.820110 1_555
Pd2 Pd4 2.820110 1_655
Pd3 Pd9 2.811291 1_455
Pd3 Pd9 2.811291 1_555
Pd3 Pd5 2.820110 1_455
Pd3 Pd5 2.820110 1_555
Pd4 Pd8 2.942947 1_555
Pd5 Pd9 2.942947 1_555
Pd10 Pd6 2.942947 1_555
Pd11 Pd7 2.942947 1_555
Pd12 Pd6 2.841984 1_455
Pd12 Pd6 2.841984 1_555
Pd13 Pd7 2.841984 1_555
Pd13 Pd7 2.841984 1_655
Pd14 Pd4 2.841984 1_655
Pd14 Pd4 2.841984 1_555
Pd15 Pd5 2.841984 1_455
Pd15 Pd5 2.841984 1_555
