# generated using pymatgen
data_Li4Mn5(P3O11)2
_symmetry_space_group_name_H-M   'P 1'
_cell_length_a   6.69011700
_cell_length_b   10.99920800
_cell_length_c   12.79008716
_cell_angle_alpha   76.75120107
_cell_angle_beta   90.00000000
_cell_angle_gamma   90.00000000
_symmetry_Int_Tables_number   1
_chemical_formula_structural   Li4Mn5(P3O11)2
_chemical_formula_sum   'Li8 Mn10 P12 O44'
_cell_volume   916.12105179
_cell_formula_units_Z   2
loop_
 _symmetry_equiv_pos_site_id
 _symmetry_equiv_pos_as_xyz
  1  'x, y, z'
loop_
 _atom_site_type_symbol
 _atom_site_label
 _atom_site_symmetry_multiplicity
 _atom_site_fract_x
 _atom_site_fract_y
 _atom_site_fract_z
 _atom_site_occupancy
  Li  Li0  1  0.84577000  0.43184000  0.18567100  1
  Li  Li1  1  0.65423000  0.93184000  0.18567100  1
  Li  Li2  1  0.47288100  0.11331700  0.33484100  1
  Li  Li3  1  0.02711900  0.61331700  0.33484100  1
  Li  Li4  1  0.97288100  0.38668300  0.66515900  1
  Li  Li5  1  0.52711900  0.88668300  0.66515900  1
  Li  Li6  1  0.34577000  0.06816000  0.81432900  1
  Li  Li7  1  0.15423000  0.56816000  0.81432900  1
  Mn  Mn0  1  0.50000000  0.50000000  0.00000000  1
  Mn  Mn1  1  0.24478300  0.21843800  0.13190400  1
  Mn  Mn2  1  0.00000000  0.00000000  0.00000000  1
  Mn  Mn3  1  0.25521700  0.71843800  0.13190400  1
  Mn  Mn4  1  0.00655700  0.19787200  0.34668400  1
  Mn  Mn5  1  0.49344300  0.69787200  0.34668400  1
  Mn  Mn6  1  0.50655700  0.30212800  0.65331600  1
  Mn  Mn7  1  0.99344300  0.80212800  0.65331600  1
  Mn  Mn8  1  0.74478300  0.28156200  0.86809600  1
  Mn  Mn9  1  0.75521700  0.78156200  0.86809600  1
  P  P0  1  0.73679300  0.22106500  0.09511500  1
  P  P1  1  0.76320700  0.72106500  0.09511500  1
  P  P2  1  0.39264200  0.43136400  0.26732600  1
  P  P3  1  0.10735800  0.93136400  0.26732600  1
  P  P4  1  0.72336400  0.42356600  0.41803400  1
  P  P5  1  0.77663600  0.92356600  0.41803400  1
  P  P6  1  0.22336400  0.07643400  0.58196600  1
  P  P7  1  0.27663600  0.57643400  0.58196600  1
  P  P8  1  0.89264200  0.06863600  0.73267400  1
  P  P9  1  0.60735800  0.56863600  0.73267400  1
  P  P10  1  0.23679300  0.27893500  0.90488500  1
  P  P11  1  0.26320700  0.77893500  0.90488500  1
  O  O0  1  0.77400900  0.13213300  0.01779100  1
  O  O1  1  0.70236700  0.34936200  0.01349900  1
  O  O2  1  0.72599100  0.63213300  0.01779100  1
  O  O3  1  0.79763300  0.84936200  0.01349900  1
  O  O4  1  0.55701500  0.17080500  0.16845900  1
  O  O5  1  0.91845600  0.24190100  0.16606800  1
  O  O6  1  0.55212500  0.45241300  0.18021500  1
  O  O7  1  0.21494800  0.05408100  0.27214000  1
  O  O8  1  0.94298500  0.67080500  0.16845900  1
  O  O9  1  0.58154400  0.74190100  0.16606800  1
  O  O10  1  0.24916500  0.32559400  0.25766400  1
  O  O11  1  0.94787500  0.95241300  0.18021500  1
  O  O12  1  0.28505200  0.55408100  0.27214000  1
  O  O13  1  0.76507900  0.06734400  0.39097400  1
  O  O14  1  0.25083500  0.82559400  0.25766400  1
  O  O15  1  0.87612100  0.37368900  0.34837100  1
  O  O16  1  0.50168300  0.38284900  0.38309500  1
  O  O17  1  0.23732100  0.13745600  0.46289700  1
  O  O18  1  0.73492100  0.56734400  0.39097400  1
  O  O19  1  0.62387900  0.87368900  0.34837100  1
  O  O20  1  0.99831700  0.88284900  0.38309500  1
  O  O21  1  0.26267900  0.63745600  0.46289700  1
  O  O22  1  0.73732100  0.36254400  0.53710300  1
  O  O23  1  0.00168300  0.11715100  0.61690500  1
  O  O24  1  0.37612100  0.12631100  0.65162900  1
  O  O25  1  0.26507900  0.43265600  0.60902600  1
  O  O26  1  0.76267900  0.86254400  0.53710300  1
  O  O27  1  0.49831700  0.61715100  0.61690500  1
  O  O28  1  0.12387900  0.62631100  0.65162900  1
  O  O29  1  0.74916500  0.17440600  0.74233600  1
  O  O30  1  0.23492100  0.93265600  0.60902600  1
  O  O31  1  0.71494800  0.44591900  0.72786000  1
  O  O32  1  0.05212500  0.04758700  0.81978500  1
  O  O33  1  0.75083500  0.67440600  0.74233600  1
  O  O34  1  0.41845600  0.25809900  0.83393200  1
  O  O35  1  0.05701500  0.32919500  0.83154100  1
  O  O36  1  0.78505200  0.94591900  0.72786000  1
  O  O37  1  0.44787500  0.54758700  0.81978500  1
  O  O38  1  0.08154400  0.75809900  0.83393200  1
  O  O39  1  0.44298500  0.82919500  0.83154100  1
  O  O40  1  0.20236700  0.15063800  0.98650100  1
  O  O41  1  0.27400900  0.36786700  0.98220900  1
  O  O42  1  0.29763300  0.65063800  0.98650100  1
  O  O43  1  0.22599100  0.86786700  0.98220900  1
loop_
_geom_bond_atom_site_label_1
_geom_bond_atom_site_label_2
_geom_bond_distance
_geom_bond_site_symmetry_2
Li0 O6 1.976910 1_555
Li0 O15 2.042204 1_555
Li0 O5 2.214518 1_555
Li1 O11 1.976910 1_555
Li1 O19 2.042204 1_555
Li1 O9 2.214518 1_555
Li2 O7 2.069986 1_555
Li2 O13 2.103838 1_555
Li2 O4 2.151379 1_555
Li2 O17 2.331502 1_555
Li3 O12 2.069986 1_555
Li3 O18 2.103838 1_455
Li3 O8 2.151379 1_455
Li3 O21 2.331502 1_555
Li4 O31 2.069986 1_555
Li4 O25 2.103838 1_655
Li4 O35 2.151379 1_655
Li4 O22 2.331502 1_555
Li5 O36 2.069986 1_555
Li5 O30 2.103838 1_555
Li5 O39 2.151379 1_555
Li5 O26 2.331502 1_555
Li6 O32 1.976910 1_555
Li6 O24 2.042204 1_555
Li6 O34 2.214518 1_555
Li7 O37 1.976910 1_555
Li7 O28 2.042204 1_555
Li7 O38 2.214518 1_555
Mn0 O42 2.115877 1_554
Mn0 O1 2.115877 1_555
Mn0 O2 2.145104 1_555
Mn0 O41 2.145104 1_554
Mn0 O6 2.270561 1_555
Mn0 O37 2.270561 1_554
Mn1 O40 2.175063 1_554
Mn1 O4 2.178115 1_555
Mn1 O10 2.201410 1_555
Mn1 O41 2.227779 1_554
Mn1 O7 2.244736 1_555
Mn1 O5 2.252873 1_455
Mn2 O40 2.115877 1_554
Mn2 O3 2.115877 1_445
Mn2 O0 2.145104 1_455
Mn2 O43 2.145104 1_544
Mn2 O32 2.270561 1_554
Mn2 O11 2.270561 1_445
Mn3 O42 2.175063 1_554
Mn3 O8 2.178115 1_455
Mn3 O14 2.201410 1_555
Mn3 O43 2.227779 1_554
Mn3 O12 2.244736 1_555
Mn3 O9 2.252873 1_555
Mn4 O15 2.126228 1_455
Mn4 O17 2.140468 1_555
Mn4 O13 2.149245 1_455
Mn4 O10 2.274016 1_555
Mn4 O5 2.325012 1_455
Mn4 O7 2.458717 1_555
Mn5 O19 2.126228 1_555
Mn5 O21 2.140468 1_555
Mn5 O18 2.149245 1_555
Mn5 O14 2.274016 1_555
Mn5 O9 2.325012 1_555
Mn5 O12 2.458717 1_555
Mn6 O24 2.126228 1_555
Mn6 O22 2.140468 1_555
Mn6 O25 2.149245 1_555
Mn6 O29 2.274016 1_555
Mn6 O34 2.325012 1_555
Mn6 O31 2.458717 1_555
Mn7 O28 2.126228 1_655
Mn7 O26 2.140468 1_555
Mn7 O30 2.149245 1_655
Mn7 O33 2.274016 1_555
Mn7 O38 2.325012 1_655
Mn7 O36 2.458717 1_555
Mn8 O1 2.175063 1_556
Mn8 O35 2.178115 1_655
Mn8 O29 2.201410 1_555
Mn8 O0 2.227779 1_556
Mn8 O31 2.244736 1_555
Mn8 O34 2.252873 1_555
Mn9 O3 2.175063 1_556
Mn9 O39 2.178115 1_555
Mn9 O33 2.201410 1_555
Mn9 O2 2.227779 1_556
Mn9 O36 2.244736 1_555
Mn9 O38 2.252873 1_655
O0 P0 1.562156 1_555
O1 P0 1.568090 1_555
O2 P1 1.562156 1_555
O3 P1 1.568090 1_555
O4 P0 1.547408 1_555
O5 P0 1.564758 1_555
O6 P2 1.521551 1_555
O7 P3 1.543345 1_545
O8 P1 1.547408 1_555
O9 P1 1.564758 1_555
O10 P2 1.534928 1_555
O11 P3 1.521551 1_655
O12 P2 1.543345 1_555
O13 P5 1.541380 1_545
O14 P3 1.534928 1_555
O15 P4 1.537303 1_555
O16 P2 1.627026 1_555
O16 P4 1.640581 1_555
O17 P6 1.519847 1_555
O18 P4 1.541380 1_555
O19 P5 1.537303 1_555
O20 P3 1.627026 1_655
O20 P5 1.640581 1_555
O21 P7 1.519847 1_555
O22 P4 1.519847 1_555
O23 P8 1.627026 1_455
O23 P6 1.640581 1_555
O24 P6 1.537303 1_555
O25 P7 1.541380 1_555
O26 P5 1.519847 1_555
O27 P9 1.627026 1_555
O27 P7 1.640581 1_555
O28 P7 1.537303 1_555
O29 P8 1.534928 1_555
O30 P6 1.541380 1_565
O31 P9 1.543345 1_555
O32 P8 1.521551 1_455
O33 P9 1.534928 1_555
O34 P10 1.564758 1_555
O35 P10 1.547408 1_555
O36 P8 1.543345 1_565
O37 P9 1.521551 1_555
O38 P11 1.564758 1_555
O39 P11 1.547408 1_555
O40 P10 1.568090 1_555
O41 P10 1.562156 1_555
O42 P11 1.568090 1_555
O43 P11 1.562156 1_555
