# generated using pymatgen
data_CePRuO
_symmetry_space_group_name_H-M   'P 1'
_cell_length_a   4.02086800
_cell_length_b   4.02086800
_cell_length_c   8.01921200
_cell_angle_alpha   90.00000000
_cell_angle_beta   90.00000000
_cell_angle_gamma   90.00000000
_symmetry_Int_Tables_number   1
_chemical_formula_structural   CePRuO
_chemical_formula_sum   'Ce2 P2 Ru2 O2'
_cell_volume   129.64964348
_cell_formula_units_Z   2
loop_
 _symmetry_equiv_pos_site_id
 _symmetry_equiv_pos_as_xyz
  1  'x, y, z'
loop_
 _atom_site_type_symbol
 _atom_site_label
 _atom_site_symmetry_multiplicity
 _atom_site_fract_x
 _atom_site_fract_y
 _atom_site_fract_z
 _atom_site_occupancy
  Ce  Ce0  1  0.00000000  0.50000000  0.84906300  1
  Ce  Ce1  1  0.50000000  0.00000000  0.15093700  1
  P  P0  1  0.50000000  0.00000000  0.64705000  1
  P  P1  1  0.00000000  0.50000000  0.35295000  1
  Ru  Ru0  1  0.00000000  0.00000000  0.50000000  1
  Ru  Ru1  1  0.50000000  0.50000000  0.50000000  1
  O  O0  1  0.50000000  0.50000000  0.00000000  1
  O  O1  1  0.00000000  0.00000000  0.00000000  1
loop_
_geom_bond_atom_site_label_1
_geom_bond_atom_site_label_2
_geom_bond_distance
_geom_bond_site_symmetry_2
Ce0 O0 2.346679 1_456
Ce0 O1 2.346679 1_566
Ce0 O0 2.346679 1_556
Ce0 O1 2.346679 1_556
Ce0 P0 3.272314 1_565
Ce0 P0 3.272314 1_455
Ce0 P0 3.272314 1_555
Ce0 P0 3.272314 1_465
Ce1 O1 2.346679 1_655
Ce1 O1 2.346679 1_555
Ce1 O0 2.346679 1_555
Ce1 O0 2.346679 1_545
Ce1 P1 3.272314 1_655
Ce1 P1 3.272314 1_555
Ce1 P1 3.272314 1_645
Ce1 P1 3.272314 1_545
P0 Ru1 2.330755 1_545
P0 Ru0 2.330755 1_655
P0 Ru1 2.330755 1_555
P0 Ru0 2.330755 1_555
P1 Ru1 2.330755 1_455
P1 Ru1 2.330755 1_555
P1 Ru0 2.330755 1_565
P1 Ru0 2.330755 1_555
