# generated using pymatgen
data_BaMnGe
_symmetry_space_group_name_H-M   'P 1'
_cell_length_a   4.73384500
_cell_length_b   4.73384500
_cell_length_c   8.14284800
_cell_angle_alpha   90.00000000
_cell_angle_beta   90.00000000
_cell_angle_gamma   90.00000000
_symmetry_Int_Tables_number   1
_chemical_formula_structural   BaMnGe
_chemical_formula_sum   'Ba2 Mn2 Ge2'
_cell_volume   182.47542991
_cell_formula_units_Z   2
loop_
 _symmetry_equiv_pos_site_id
 _symmetry_equiv_pos_as_xyz
  1  'x, y, z'
loop_
 _atom_site_type_symbol
 _atom_site_label
 _atom_site_symmetry_multiplicity
 _atom_site_fract_x
 _atom_site_fract_y
 _atom_site_fract_z
 _atom_site_occupancy
  Ba  Ba0  1  0.00000000  0.50000000  0.66959500  1
  Ba  Ba1  1  0.50000000  0.00000000  0.33040500  1
  Mn  Mn0  1  0.50000000  0.50000000  0.00000000  1
  Mn  Mn1  1  0.00000000  0.00000000  0.00000000  1
  Ge  Ge0  1  0.50000000  0.00000000  0.82323900  1
  Ge  Ge1  1  0.00000000  0.50000000  0.17676100  1
loop_
_geom_bond_atom_site_label_1
_geom_bond_atom_site_label_2
_geom_bond_distance
_geom_bond_site_symmetry_2
Ba0 Ge0 3.573499 1_555
Ba0 Ge0 3.573499 1_565
Ba0 Ge0 3.573499 1_465
Ba0 Ge0 3.573499 1_455
Ba0 Mn0 3.583403 1_456
Ba0 Mn1 3.583403 1_566
Ba0 Mn0 3.583403 1_556
Ba0 Mn1 3.583403 1_556
Ba0 Ge1 4.013072 1_555
Ba1 Ge1 3.573499 1_655
Ba1 Ge1 3.573499 1_645
Ba1 Ge1 3.573499 1_545
Ba1 Ge1 3.573499 1_555
Ba1 Mn0 3.583403 1_555
Ba1 Mn1 3.583403 1_555
Ba1 Mn0 3.583403 1_545
Ba1 Mn1 3.583403 1_655
Ba1 Ge0 4.013072 1_555
Ge0 Mn0 2.770201 1_556
Ge0 Mn1 2.770201 1_656
Ge0 Mn1 2.770201 1_556
Ge0 Mn0 2.770201 1_546
Ge1 Mn0 2.770201 1_455
Ge1 Mn1 2.770201 1_565
Ge1 Mn0 2.770201 1_555
Ge1 Mn1 2.770201 1_555
