# generated using pymatgen
data_Ti5Sn3
_symmetry_space_group_name_H-M   'P 1'
_cell_length_a   8.04403104
_cell_length_b   8.04403063
_cell_length_c   5.42585497
_cell_angle_alpha   90.00000000
_cell_angle_beta   90.00000000
_cell_angle_gamma   120.00000589
_symmetry_Int_Tables_number   1
_chemical_formula_structural   Ti5Sn3
_chemical_formula_sum   'Ti10 Sn6'
_cell_volume   304.05086298
_cell_formula_units_Z   2
loop_
 _symmetry_equiv_pos_site_id
 _symmetry_equiv_pos_as_xyz
  1  'x, y, z'
loop_
 _atom_site_type_symbol
 _atom_site_label
 _atom_site_symmetry_multiplicity
 _atom_site_fract_x
 _atom_site_fract_y
 _atom_site_fract_z
 _atom_site_occupancy
  Ti  Ti0  1  0.24338440  0.00000000  0.25000000  1
  Ti  Ti1  1  0.24338440  0.24338440  0.75000000  1
  Ti  Ti2  1  -0.00000000  0.75661560  0.75000000  1
  Ti  Ti3  1  0.00000000  0.24338440  0.25000000  1
  Ti  Ti4  1  0.75661560  0.75661560  0.25000000  1
  Ti  Ti5  1  0.75661560  -0.00000000  0.75000000  1
  Ti  Ti6  1  0.33333300  0.66666700  0.00000000  1
  Ti  Ti7  1  0.66666700  0.33333300  0.50000000  1
  Ti  Ti8  1  0.66666700  0.33333300  0.00000000  1
  Ti  Ti9  1  0.33333300  0.66666700  0.50000000  1
  Sn  Sn0  1  0.60863286  -0.00000000  0.25000000  1
  Sn  Sn1  1  0.60863286  0.60863286  0.75000000  1
  Sn  Sn2  1  0.00000000  0.39136714  0.75000000  1
  Sn  Sn3  1  -0.00000000  0.60863286  0.25000000  1
  Sn  Sn4  1  0.39136714  0.39136714  0.25000000  1
  Sn  Sn5  1  0.39136714  0.00000000  0.75000000  1
loop_
_geom_bond_atom_site_label_1
_geom_bond_atom_site_label_2
_geom_bond_distance
_geom_bond_site_symmetry_2
Ti6 Ti9 2.712927 1_555
Ti6 Ti9 2.712927 1_554
Ti7 Ti8 2.712927 1_556
Ti7 Ti8 2.712927 1_555
Sn0 Ti3 2.753263 1_655
Sn0 Ti4 2.753263 1_545
Sn0 Ti8 2.827682 1_555
Sn0 Ti7 2.827682 1_555
Sn0 Ti9 2.827684 1_545
Sn0 Ti6 2.827684 1_545
Sn0 Ti0 2.938070 1_555
Sn0 Ti5 2.962596 1_554
Sn0 Ti5 2.962596 1_555
Sn0 Sn5 3.227136 1_555
Sn0 Sn5 3.227136 1_554
Sn1 Ti5 2.753263 1_565
Sn1 Ti2 2.753263 1_655
Sn1 Ti8 2.827689 1_556
Sn1 Ti7 2.827689 1_555
Sn1 Ti6 2.827689 1_556
Sn1 Ti9 2.827689 1_555
Sn1 Ti1 2.938070 1_555
Sn1 Ti4 2.962596 1_555
Sn1 Ti4 2.962596 1_556
Sn1 Sn4 3.227135 1_555
Sn1 Sn4 3.227135 1_556
Sn2 Ti5 2.753263 1_455
Sn2 Ti1 2.753263 1_555
Sn2 Ti8 2.827682 1_456
Sn2 Ti7 2.827682 1_455
Sn2 Ti6 2.827684 1_556
Sn2 Ti9 2.827684 1_555
Sn2 Ti2 2.938070 1_555
Sn2 Ti3 2.962596 1_556
Sn2 Ti3 2.962596 1_555
Sn2 Sn3 3.227135 1_555
Sn2 Sn3 3.227135 1_556
Sn3 Ti0 2.753263 1_565
Sn3 Ti4 2.753263 1_455
Sn3 Ti9 2.827682 1_555
Sn3 Ti6 2.827682 1_555
Sn3 Ti7 2.827684 1_455
Sn3 Ti8 2.827684 1_455
Sn3 Ti3 2.938070 1_555
Sn3 Ti2 2.962596 1_554
Sn3 Ti2 2.962596 1_555
Sn4 Ti0 2.753263 1_555
Sn4 Ti3 2.753263 1_555
Sn4 Ti9 2.827689 1_555
Sn4 Ti6 2.827689 1_555
Sn4 Ti8 2.827689 1_555
Sn4 Ti7 2.827689 1_555
Sn4 Ti4 2.938070 1_555
Sn4 Ti1 2.962596 1_555
Sn4 Ti1 2.962596 1_554
Sn5 Ti2 2.753263 1_545
Sn5 Ti1 2.753263 1_555
Sn5 Ti9 2.827682 1_545
Sn5 Ti6 2.827682 1_546
Sn5 Ti7 2.827684 1_555
Sn5 Ti8 2.827684 1_556
Sn5 Ti5 2.938070 1_555
Sn5 Ti0 2.962596 1_556
Sn5 Ti0 2.962596 1_555
