# generated using pymatgen
data_Cs2Au2Se3
_symmetry_space_group_name_H-M   'P 1'
_cell_length_a   7.40490136
_cell_length_b   8.37417344
_cell_length_c   8.37417416
_cell_angle_alpha   108.05958205
_cell_angle_beta   90.70454104
_cell_angle_gamma   90.70453578
_symmetry_Int_Tables_number   1
_chemical_formula_structural   Cs2Au2Se3
_chemical_formula_sum   'Cs4 Au4 Se6'
_cell_volume   493.59114015
_cell_formula_units_Z   2
loop_
 _symmetry_equiv_pos_site_id
 _symmetry_equiv_pos_as_xyz
  1  'x, y, z'
loop_
 _atom_site_type_symbol
 _atom_site_label
 _atom_site_symmetry_multiplicity
 _atom_site_fract_x
 _atom_site_fract_y
 _atom_site_fract_z
 _atom_site_occupancy
  Cs  Cs0  1  0.36513217  0.86808498  0.65685688  1
  Cs  Cs1  1  0.86513217  0.65685688  0.86808498  1
  Cs  Cs2  1  0.63486783  0.13191502  0.34314312  1
  Cs  Cs3  1  0.13486783  0.34314312  0.13191502  1
  Au  Au0  1  0.45854243  0.35484598  0.77691948  1
  Au  Au1  1  0.95854243  0.77691948  0.35484598  1
  Au  Au2  1  0.54145757  0.64515402  0.22308052  1
  Au  Au3  1  0.04145757  0.22308052  0.64515402  1
  Se  Se0  1  0.17399892  0.95176116  0.26648041  1
  Se  Se1  1  0.75000000  0.58151380  0.41848620  1
  Se  Se2  1  0.25000000  0.41848620  0.58151380  1
  Se  Se3  1  0.67399892  0.26648041  0.95176116  1
  Se  Se4  1  0.32600108  0.73351959  0.04823884  1
  Se  Se5  1  0.82600108  0.04823884  0.73351959  1
loop_
_geom_bond_atom_site_label_1
_geom_bond_atom_site_label_2
_geom_bond_distance
_geom_bond_site_symmetry_2
Cs0 Se5 3.681521 1_565
Cs0 Se2 3.706113 1_555
Cs0 Se4 3.794872 1_556
Cs0 Se0 3.809449 1_555
Cs0 Se1 3.899187 1_555
Cs1 Se4 3.681521 1_656
Cs1 Se1 3.706114 1_555
Cs1 Se5 3.794871 1_565
Cs1 Se3 3.809449 1_555
Cs1 Se2 3.899187 1_655
Cs2 Se0 3.681521 1_545
Cs2 Se1 3.706113 1_555
Cs2 Se3 3.794872 1_554
Cs2 Se5 3.809449 1_555
Cs2 Se2 3.899187 1_555
Cs3 Se3 3.681521 1_454
Cs3 Se2 3.706114 1_555
Cs3 Se0 3.794871 1_545
Cs3 Se4 3.809449 1_555
Cs3 Se1 3.899187 1_455
Au0 Se2 2.417675 1_555
Au0 Se3 2.424889 1_555
Au0 Cs2 3.789086 1_555
Au0 Cs1 3.821373 1_555
Au0 Cs3 3.865455 1_556
Au0 Cs0 3.934138 1_545
Au1 Se1 2.417675 1_555
Au1 Se0 2.424889 1_655
Au1 Cs3 3.789086 1_655
Au1 Cs0 3.821373 1_655
Au1 Cs2 3.865454 1_565
Au1 Cs1 3.934138 1_554
Au2 Se1 2.417675 1_555
Au2 Se4 2.424889 1_555
Au2 Cs0 3.789086 1_555
Au2 Cs3 3.821373 1_555
Au2 Cs1 3.865455 1_554
Au2 Cs2 3.934138 1_565
Au3 Se2 2.417675 1_555
Au3 Se5 2.424889 1_455
Au3 Cs1 3.789086 1_455
Au3 Cs2 3.821373 1_455
Au3 Cs0 3.865454 1_545
Au3 Cs3 3.934138 1_556
Se0 Se4 2.444863 1_555
Se3 Se5 2.444863 1_555
