# generated using pymatgen
data_MgMn12O17F7
_symmetry_space_group_name_H-M   'P 1'
_cell_length_a   4.77601366
_cell_length_b   5.65536950
_cell_length_c   15.14745158
_cell_angle_alpha   91.25933606
_cell_angle_beta   90.13894288
_cell_angle_gamma   90.55195819
_symmetry_Int_Tables_number   1
_chemical_formula_structural   MgMn12O17F7
_chemical_formula_sum   'Mg1 Mn12 O17 F7'
_cell_volume   409.01529004
_cell_formula_units_Z   1
loop_
 _symmetry_equiv_pos_site_id
 _symmetry_equiv_pos_as_xyz
  1  'x, y, z'
loop_
 _atom_site_type_symbol
 _atom_site_label
 _atom_site_symmetry_multiplicity
 _atom_site_fract_x
 _atom_site_fract_y
 _atom_site_fract_z
 _atom_site_occupancy
  Mg  Mg0  1  0.00383800  0.43144500  0.59273900  1
  Mn  Mn0  1  0.04234600  0.19408500  0.40123500  1
  Mn  Mn1  1  0.02682200  0.82869600  0.24437300  1
  Mn  Mn2  1  0.99463400  0.15914200  0.08211600  1
  Mn  Mn3  1  0.03011100  0.14106700  0.75665000  1
  Mn  Mn4  1  0.05380500  0.89669500  0.57151000  1
  Mn  Mn5  1  0.97082600  0.81770300  0.91631100  1
  Mn  Mn6  1  0.47030500  0.31888100  0.92312000  1
  Mn  Mn7  1  0.50431500  0.40155600  0.58867500  1
  Mn  Mn8  1  0.49489900  0.36443800  0.25488600  1
  Mn  Mn9  1  0.48276500  0.62456400  0.09396100  1
  Mn  Mn10  1  0.50938600  0.65793000  0.41970100  1
  Mn  Mn11  1  0.48290600  0.63734100  0.76266200  1
  O  O0  1  0.24090500  0.11346700  0.29490200  1
  O  O1  1  0.24191500  0.16713400  0.63377700  1
  O  O2  1  0.17790700  0.09535200  0.97232600  1
  O  O3  1  0.21231900  0.87659200  0.13530500  1
  O  O4  1  0.24806000  0.92481300  0.46438000  1
  O  O5  1  0.20413100  0.85605800  0.81085000  1
  O  O6  1  0.27883600  0.42880000  0.48477000  1
  O  O7  1  0.26660700  0.39616600  0.15042300  1
  O  O8  1  0.28366400  0.60033000  0.31623000  1
  O  O9  1  0.29339800  0.64523600  0.64390700  1
  O  O10  1  0.25616000  0.35951200  0.81590900  1
  O  O11  1  0.69211000  0.36899300  0.03161100  1
  O  O12  1  0.71207300  0.61481300  0.19551600  1
  O  O13  1  0.72524300  0.39083800  0.35955300  1
  O  O14  1  0.75079500  0.64936000  0.52904000  1
  O  O15  1  0.69636900  0.59041600  0.86776200  1
  O  O16  1  0.73370500  0.40760600  0.69196800  1
  F  F0  1  0.23370500  0.59526800  0.98946200  1
  F  F1  1  0.75516000  0.12968800  0.19300800  1
  F  F2  1  0.77873800  0.17825900  0.52603200  1
  F  F3  1  0.77701200  0.87904700  0.35689000  1
  F  F4  1  0.72246900  0.85690900  0.02763800  1
  F  F5  1  0.73098800  0.08450000  0.85289500  1
  F  F6  1  0.80966500  0.91253800  0.68124500  1
loop_
_geom_bond_atom_site_label_1
_geom_bond_atom_site_label_2
_geom_bond_distance
_geom_bond_site_symmetry_2
Mg0 O9 1.973954 1_555
Mg0 O16 1.989185 1_455
Mg0 O1 1.995954 1_555
Mg0 O14 1.996407 1_455
Mg0 O6 2.099920 1_555
Mn0 O0 1.919612 1_555
Mn0 O13 1.997285 1_455
Mn0 O4 2.070621 1_545
Mn0 O6 2.128182 1_555
Mn1 O3 1.899958 1_555
Mn1 O0 2.033521 1_565
Mn1 O12 2.047135 1_455
Mn1 O8 2.107905 1_555
Mn2 O2 1.910181 1_654
Mn2 O11 2.036889 1_555
Mn2 O3 2.089957 1_645
Mn2 O7 2.110360 1_655
Mn3 O10 1.848873 1_555
Mn3 O5 2.010835 1_545
Mn3 O1 2.127782 1_555
Mn3 O16 2.309863 1_455
Mn4 O4 1.880197 1_555
Mn4 O1 1.985428 1_565
Mn4 O14 2.093244 1_455
Mn4 O9 2.151322 1_555
Mn5 O15 1.957696 1_555
Mn5 O5 1.964624 1_655
Mn5 O2 2.017694 1_665
Mn6 O10 1.936234 1_555
Mn6 O11 1.966842 1_556
Mn6 O2 2.028852 1_555
Mn6 O15 2.063023 1_555
Mn7 O9 1.895783 1_555
Mn7 O16 1.907383 1_555
Mn7 O6 1.914737 1_555
Mn7 O1 1.951117 1_555
Mn7 O14 2.048113 1_555
Mn8 O8 1.907071 1_555
Mn8 O13 1.929807 1_555
Mn8 O7 1.932023 1_555
Mn8 O0 1.965117 1_555
Mn8 O12 1.980338 1_555
Mn9 O7 1.868911 1_555
Mn9 O12 1.888265 1_555
Mn9 O11 1.988239 1_555
Mn9 O3 2.022928 1_555
Mn10 O8 1.920261 1_555
Mn10 O6 1.974071 1_555
Mn10 O14 2.017439 1_555
Mn10 O13 2.036811 1_555
Mn10 O4 2.071065 1_555
Mn11 O15 1.913159 1_555
Mn11 O5 1.957613 1_555
Mn11 O9 2.013308 1_555
Mn11 O16 2.060224 1_555
Mn11 O10 2.078269 1_555
F0 Mn9 1.980780 1_556
F0 Mn5 2.114589 1_455
F0 Mn6 2.168051 1_555
F1 Mn8 2.041778 1_555
F1 Mn2 2.043358 1_555
F1 Mn1 2.298302 1_645
F2 Mg0 2.031869 1_655
F2 Mn7 2.048940 1_555
F2 Mn4 2.195478 1_645
F2 Mn0 2.276694 1_655
F3 Mn10 2.032269 1_555
F3 Mn1 2.098674 1_655
F3 Mn0 2.265206 1_665
F4 Mn9 2.020176 1_555
F4 Mn5 2.073195 1_554
F4 Mn2 2.276422 1_565
F5 Mn3 2.071341 1_655
F5 Mn6 2.101150 1_555
F5 Mn5 2.145481 1_545
F6 Mn3 1.996624 1_665
F6 Mn4 2.033572 1_655
F6 Mn11 2.534861 1_555
