# generated using pymatgen
data_Ca11InSb9
_symmetry_space_group_name_H-M   'P 1'
_cell_length_a   12.08651199
_cell_length_b   12.08649832
_cell_length_c   12.08643750
_cell_angle_alpha   120.92150717
_cell_angle_beta   116.99302824
_cell_angle_gamma   91.84938767
_symmetry_Int_Tables_number   1
_chemical_formula_structural   Ca11InSb9
_chemical_formula_sum   'Ca22 In2 Sb18'
_cell_volume   1265.65049217
_cell_formula_units_Z   2
loop_
 _symmetry_equiv_pos_site_id
 _symmetry_equiv_pos_as_xyz
  1  'x, y, z'
loop_
 _atom_site_type_symbol
 _atom_site_label
 _atom_site_symmetry_multiplicity
 _atom_site_fract_x
 _atom_site_fract_y
 _atom_site_fract_z
 _atom_site_occupancy
  Ca  Ca0  1  0.43157446  0.22755855  0.35158426  1
  Ca  Ca1  1  0.87597901  0.07999089  0.64842379  1
  Ca  Ca2  1  0.93157117  0.57999269  0.20401879  1
  Ca  Ca3  1  0.37597743  0.72756045  0.79598935  1
  Ca  Ca4  1  0.57160578  0.94227419  0.26390537  1
  Ca  Ca5  1  0.67837910  0.30769354  0.73608469  1
  Ca  Ca6  1  0.07160672  0.80769271  0.62932558  1
  Ca  Ca7  1  0.17837984  0.44230637  0.37068585  1
  Ca  Ca8  1  0.10992427  0.92466457  0.36199402  1
  Ca  Ca9  1  0.56267503  0.74793206  0.63801622  1
  Ca  Ca10  1  0.60991105  0.24790759  0.18524760  1
  Ca  Ca11  1  0.06266354  0.42465711  0.81475613  1
  Ca  Ca12  1  0.31125240  0.68390759  0.26052188  1
  Ca  Ca13  1  0.42340025  0.05074910  0.73949389  1
  Ca  Ca14  1  0.81124907  0.55072258  0.62733632  1
  Ca  Ca15  1  0.92339942  0.18389832  0.37265678  1
  Ca  Ca16  1  0.81902027  0.15853833  0.98735951  1
  Ca  Ca17  1  0.17117728  0.83165056  0.01265211  1
  Ca  Ca18  1  0.31901889  0.33165494  0.66047602  1
  Ca  Ca19  1  0.67119238  0.65854148  0.33951957  1
  Ca  Ca20  1  0.67083802  0.67082998  0.00000178  1
  Ca  Ca21  1  0.17083053  0.17083009  0.00000575  1
  In  In0  1  0.38810279  0.38811574  0.00001124  1
  In  In1  1  0.88811835  0.88811332  -0.00000943  1
  Sb  Sb0  1  0.38145173  0.63565879  0.01677999  1
  Sb  Sb1  1  0.61885511  0.36468035  0.98316771  1
  Sb  Sb2  1  0.88146128  0.86468648  0.74577814  1
  Sb  Sb3  1  0.11886917  0.13566667  0.25417834  1
  Sb  Sb4  1  0.74691547  0.24690215  0.50001122  1
  Sb  Sb5  1  0.24691809  0.74693172  0.50000621  1
  Sb  Sb6  1  0.50066511  0.50275735  0.64849085  1
  Sb  Sb7  1  0.85426411  0.85218162  0.35150493  1
  Sb  Sb8  1  0.00069286  0.35219614  0.99795618  1
  Sb  Sb9  1  0.35424732  0.00274467  0.00206552  1
  Sb  Sb10  1  0.38460402  0.02839966  0.42727809  1
  Sb  Sb11  1  0.60110194  0.95730399  0.57268893  1
  Sb  Sb12  1  0.88460954  0.45730290  0.35618587  1
  Sb  Sb13  1  0.10108840  0.52839431  0.64379822  1
  Sb  Sb14  1  0.16259150  0.15471835  0.70721338  1
  Sb  Sb15  1  0.44755550  0.45542798  0.29284218  1
  Sb  Sb16  1  0.66260283  0.95539651  0.00788222  1
  Sb  Sb17  1  0.94749493  0.65470458  0.99211397  1
loop_
_geom_bond_atom_site_label_1
_geom_bond_atom_site_label_2
_geom_bond_distance
_geom_bond_site_symmetry_2
Ca0 Sb6 3.077636 1_555
Ca0 Sb10 3.098405 1_555
Ca0 Sb15 3.197882 1_555
Ca0 Sb9 3.249259 1_555
Ca0 Sb4 3.332290 1_555
Ca0 Sb3 3.354157 1_555
Ca1 Sb7 3.077679 1_545
Ca1 Sb11 3.098528 1_545
Ca1 Sb14 3.197656 1_655
Ca1 Sb8 3.249381 1_655
Ca1 Sb4 3.332103 1_555
Ca1 Sb2 3.353810 1_545
Ca2 Sb8 3.077545 1_654
Ca2 Sb12 3.098358 1_555
Ca2 Sb17 3.197687 1_554
Ca2 Sb7 3.249142 1_555
Ca2 Sb5 3.332270 1_655
Ca2 Sb1 3.354222 1_554
Ca3 Sb9 3.077563 1_566
Ca3 Sb13 3.098746 1_555
Ca3 Sb16 3.197781 1_556
Ca3 Sb6 3.249129 1_555
Ca3 Sb5 3.332340 1_555
Ca3 Sb0 3.354144 1_556
Ca4 Sb4 3.065738 1_565
Ca4 Sb0 3.127308 1_555
Ca4 Sb7 3.481328 1_555
Ca4 Sb11 3.489969 1_555
Ca4 Sb10 3.490250 1_565
Ca4 Sb9 3.522096 1_565
Ca4 Sb16 3.793774 1_555
Ca5 Sb4 3.065543 1_555
Ca5 Sb1 3.127086 1_555
Ca5 Sb6 3.481490 1_555
Ca5 Sb10 3.490117 1_555
Ca5 Sb11 3.490330 1_545
Ca5 Sb8 3.522145 1_655
Ca5 Sb17 3.793484 1_555
Ca6 Sb5 3.065816 1_555
Ca6 Sb2 3.127196 1_455
Ca6 Sb9 3.481111 1_566
Ca6 Sb13 3.490145 1_555
Ca6 Sb12 3.490319 1_455
Ca6 Sb7 3.522022 1_455
Ca6 Sb14 3.793741 1_565
Ca7 Sb5 3.065731 1_555
Ca7 Sb3 3.127470 1_555
Ca7 Sb8 3.480975 1_554
Ca7 Sb12 3.489994 1_455
Ca7 Sb13 3.490527 1_555
Ca7 Sb6 3.521852 1_555
Ca7 Sb15 3.793892 1_555
Ca8 Sb10 3.090809 1_565
Ca8 Sb7 3.112463 1_455
Ca8 Sb14 3.331282 1_565
Ca8 Sb17 3.333832 1_454
Ca8 Sb5 3.397606 1_555
Ca8 Sb3 3.426253 1_565
Ca9 Sb11 3.090865 1_555
Ca9 Sb6 3.112437 1_555
Ca9 Sb15 3.330855 1_555
Ca9 Sb16 3.333694 1_556
Ca9 Sb5 3.397788 1_555
Ca9 Sb2 3.426088 1_555
Ca10 Sb12 3.090969 1_555
Ca10 Sb9 3.112387 1_555
Ca10 Sb16 3.331058 1_545
Ca10 Sb15 3.333891 1_555
Ca10 Sb4 3.397881 1_555
Ca10 Sb1 3.426615 1_554
Ca11 Sb13 3.090845 1_555
Ca11 Sb8 3.112402 1_555
Ca11 Sb17 3.331172 1_455
Ca11 Sb14 3.333760 1_555
Ca11 Sb4 3.397637 1_455
Ca11 Sb0 3.426007 1_556
Ca12 Sb5 3.062420 1_555
Ca12 Sb0 3.205316 1_555
Ca12 Sb15 3.363141 1_555
Ca12 Sb10 3.420487 1_565
Ca12 Sb11 3.445061 1_555
Ca13 Sb5 3.062436 1_545
Ca13 Sb1 3.205085 1_555
Ca13 Sb14 3.363217 1_555
Ca13 Sb11 3.420576 1_545
Ca13 Sb10 3.445386 1_555
Ca14 Sb4 3.062528 1_555
Ca14 Sb2 3.205595 1_555
Ca14 Sb17 3.363115 1_555
Ca14 Sb12 3.420652 1_555
Ca14 Sb13 3.444988 1_655
Ca15 Sb4 3.062667 1_555
Ca15 Sb3 3.205322 1_655
Ca15 Sb16 3.363035 1_545
Ca15 Sb13 3.420405 1_655
Ca15 Sb12 3.445365 1_555
Ca16 Sb8 3.069429 1_655
Ca16 Sb16 3.227388 1_546
Ca16 In1 3.460794 1_546
Ca16 Sb1 3.531408 1_555
Ca16 Sb11 3.612122 1_545
Ca16 Sb2 3.636594 1_545
Ca16 Sb12 3.688310 1_556
Ca16 Sb3 3.739262 1_656
Ca17 Sb9 3.069569 1_565
Ca17 Sb17 3.227475 1_454
Ca17 In1 3.460705 1_455
Ca17 Sb0 3.531012 1_555
Ca17 Sb10 3.611728 1_565
Ca17 Sb3 3.636565 1_565
Ca17 Sb13 3.688476 1_554
Ca17 Sb2 3.739801 1_454
Ca18 Sb6 3.069419 1_555
Ca18 Sb14 3.227559 1_555
Ca18 In0 3.460983 1_556
Ca18 Sb3 3.531227 1_555
Ca18 Sb13 3.612195 1_555
Ca18 Sb0 3.636584 1_556
Ca18 Sb10 3.688547 1_555
Ca18 Sb1 3.739006 1_555
Ca19 Sb7 3.069361 1_555
Ca19 Sb15 3.227254 1_555
Ca19 In0 3.460847 1_555
Ca19 Sb2 3.530863 1_555
Ca19 Sb12 3.612061 1_555
Ca19 Sb1 3.636714 1_554
Ca19 Sb11 3.688517 1_555
Ca19 Sb0 3.739595 1_555
Ca20 Sb7 3.055262 1_555
Ca20 Sb6 3.055344 1_554
Ca20 Sb17 3.397137 1_554
Ca20 Sb16 3.397435 1_555
Ca20 Sb1 3.617782 1_554
Ca20 Sb0 3.618290 1_555
Ca20 In1 3.653650 1_555
Ca21 Sb9 3.055315 1_555
Ca21 Sb8 3.055324 1_554
Ca21 Sb14 3.397304 1_554
Ca21 Sb15 3.397799 1_555
Ca21 Sb3 3.617799 1_555
Ca21 Sb2 3.617965 1_444
Ca21 In0 3.653461 1_555
In0 Sb14 2.898011 1_554
In0 Sb15 2.898117 1_555
In0 Sb0 2.899360 1_555
In0 Sb1 2.899531 1_554
In1 Sb16 2.898136 1_555
In1 Sb17 2.898163 1_554
In1 Sb3 2.899230 1_665
In1 Sb2 2.899492 1_554
Sb10 Sb11 2.863019 1_545
Sb12 Sb13 2.863029 1_655
