# generated using pymatgen
data_Na8MgV2O8
_symmetry_space_group_name_H-M   'P 1'
_cell_length_a   9.31824027
_cell_length_b   5.87745742
_cell_length_c   5.82464288
_cell_angle_alpha   68.86336898
_cell_angle_beta   111.00796229
_cell_angle_gamma   94.98096245
_symmetry_Int_Tables_number   1
_chemical_formula_structural   Na8MgV2O8
_chemical_formula_sum   'Na8 Mg1 V2 O8'
_cell_volume   277.43252790
_cell_formula_units_Z   1
loop_
 _symmetry_equiv_pos_site_id
 _symmetry_equiv_pos_as_xyz
  1  'x, y, z'
loop_
 _atom_site_type_symbol
 _atom_site_label
 _atom_site_symmetry_multiplicity
 _atom_site_fract_x
 _atom_site_fract_y
 _atom_site_fract_z
 _atom_site_occupancy
  Na  Na0  1  0.20940561  0.08831272  0.65372913  1
  Na  Na1  1  0.15546553  0.52595970  0.21276422  1
  Na  Na2  1  0.45291925  0.49397438  0.79454917  1
  Na  Na3  1  0.33560224  0.02652751  0.25638250  1
  Na  Na4  1  0.57263259  0.00122974  0.75224228  1
  Na  Na5  1  0.77445323  0.55204829  0.93783328  1
  Na  Na6  1  0.75047465  0.03349527  0.35100335  1
  Na  Na7  1  0.83113723  0.47068620  0.57224214  1
  Mg  Mg0  1  0.12867699  0.64122076  0.71401564  1
  V  V0  1  0.48973133  0.55477609  0.29324316  1
  V  V1  1  0.98896817  0.01019041  0.98680935  1
  O  O0  1  0.10050790  0.28755761  0.82446391  1
  O  O1  1  0.11650925  0.83106379  0.35203286  1
  O  O2  1  0.32864741  0.71712250  0.94875369  1
  O  O3  1  0.38245451  0.30307562  0.48610606  1
  O  O4  1  0.57235594  0.75707507  0.50537153  1
  O  O5  1  0.64461067  0.43506317  0.21432340  1
  O  O6  1  0.96860786  0.77867967  0.79663247  1
  O  O7  1  0.80197464  0.14417151  0.94912887  1
loop_
_geom_bond_atom_site_label_1
_geom_bond_atom_site_label_2
_geom_bond_distance
_geom_bond_site_symmetry_2
Na0 O3 2.243505 1_555
Na0 O0 2.271516 1_555
Na0 O2 2.301168 1_545
Na0 O1 2.592604 1_545
Na0 O6 2.928647 1_445
Na1 O3 2.299393 1_555
Na1 O1 2.319212 1_555
Na1 O6 2.437133 1_454
Na1 O2 2.539621 1_554
Na1 O0 2.944725 1_554
Na2 O3 2.323292 1_555
Na2 O4 2.373547 1_555
Na2 O5 2.377844 1_556
Na2 O2 2.393090 1_555
Na3 O3 2.376835 1_555
Na3 O1 2.396836 1_545
Na3 O4 2.476823 1_545
Na3 O0 2.707476 1_554
Na3 O2 2.961094 1_544
Na4 O7 2.283391 1_555
Na4 O3 2.298640 1_555
Na4 O4 2.368911 1_545
Na5 O5 2.232538 1_556
Na5 O6 2.362653 1_555
Na5 O7 2.407893 1_555
Na5 O4 2.479387 1_555
Na6 O5 2.379825 1_555
Na6 O4 2.398119 1_545
Na6 O7 2.405358 1_554
Na6 O6 2.655958 1_545
Na7 O5 2.250460 1_555
Na7 O7 2.423772 1_555
Na7 O0 2.510374 1_655
Na7 O6 2.594078 1_555
Mg0 O1 1.963980 1_555
Mg0 O0 1.966072 1_555
Mg0 O2 2.002353 1_555
Mg0 O6 2.028129 1_455
O0 V1 1.982608 1_455
O1 V1 1.958468 1_464
O2 V0 1.974369 1_556
O3 V0 1.949242 1_555
O4 V0 1.936905 1_555
O5 V0 1.916887 1_555
O6 V1 2.001503 1_565
O7 V1 1.882509 1_555
