# generated using pymatgen
data_K2Zr2O5
_symmetry_space_group_name_H-M   'P 1'
_cell_length_a   5.85317354
_cell_length_b   8.71635253
_cell_length_c   10.81522058
_cell_angle_alpha   90.00000000
_cell_angle_beta   90.00000000
_cell_angle_gamma   90.00000000
_symmetry_Int_Tables_number   1
_chemical_formula_structural   K2Zr2O5
_chemical_formula_sum   'K8 Zr8 O20'
_cell_volume   551.77442762
_cell_formula_units_Z   4
loop_
 _symmetry_equiv_pos_site_id
 _symmetry_equiv_pos_as_xyz
  1  'x, y, z'
loop_
 _atom_site_type_symbol
 _atom_site_label
 _atom_site_symmetry_multiplicity
 _atom_site_fract_x
 _atom_site_fract_y
 _atom_site_fract_z
 _atom_site_occupancy
  K  K0  1  0.06482208  0.42389115  0.16694904  1
  K  K1  1  0.06482208  0.07610885  0.33305096  1
  K  K2  1  0.43517792  0.42389115  0.83305096  1
  K  K3  1  0.43517792  0.07610885  0.66694904  1
  K  K4  1  0.93517792  0.57610885  0.83305096  1
  K  K5  1  0.93517792  0.92389115  0.66694904  1
  K  K6  1  0.56482208  0.57610885  0.16694904  1
  K  K7  1  0.56482208  0.92389115  0.33305096  1
  Zr  Zr0  1  0.53178328  0.33957627  0.42343416  1
  Zr  Zr1  1  0.53178328  0.16042373  0.07656584  1
  Zr  Zr2  1  0.96821672  0.33957627  0.57656584  1
  Zr  Zr3  1  0.96821672  0.16042373  0.92343416  1
  Zr  Zr4  1  0.46821672  0.66042373  0.57656584  1
  Zr  Zr5  1  0.46821672  0.83957627  0.92343416  1
  Zr  Zr6  1  0.03178328  0.66042373  0.42343416  1
  Zr  Zr7  1  0.03178328  0.83957627  0.07656584  1
  O  O0  1  0.49024564  0.25000000  0.25000000  1
  O  O1  1  0.00975436  0.25000000  0.75000000  1
  O  O2  1  0.50975436  0.75000000  0.75000000  1
  O  O3  1  0.99024564  0.75000000  0.25000000  1
  O  O4  1  0.25000000  0.82546665  0.50000000  1
  O  O5  1  0.25000000  0.67453335  -0.00000000  1
  O  O6  1  0.75000000  0.17453335  0.50000000  1
  O  O7  1  0.75000000  0.32546665  -0.00000000  1
  O  O8  1  0.25000000  0.24375620  0.50000000  1
  O  O9  1  0.25000000  0.25624380  -0.00000000  1
  O  O10  1  0.75000000  0.75624380  0.50000000  1
  O  O11  1  0.75000000  0.74375620  -0.00000000  1
  O  O12  1  0.37308204  0.94872097  0.10634496  1
  O  O13  1  0.37308204  0.55127903  0.39365504  1
  O  O14  1  0.12691796  0.94872097  0.89365504  1
  O  O15  1  0.12691796  0.55127903  0.60634496  1
  O  O16  1  0.87308204  0.44872097  0.39365504  1
  O  O17  1  0.87308204  0.05127903  0.10634496  1
  O  O18  1  0.62691796  0.44872097  0.60634496  1
  O  O19  1  0.62691796  0.05127903  0.89365504  1
loop_
_geom_bond_atom_site_label_1
_geom_bond_atom_site_label_2
_geom_bond_distance
_geom_bond_site_symmetry_2
K0 O9 2.563254 1_555
K0 O16 2.705192 1_455
K0 O7 2.718773 1_455
K0 O3 3.012809 1_455
K0 O5 3.034436 1_555
K0 O0 3.050346 1_555
K0 O13 3.240383 1_555
K1 O8 2.563254 1_555
K1 O17 2.705192 1_455
K1 O6 2.718773 1_455
K1 O3 3.012809 1_445
K1 O4 3.034436 1_545
K1 O0 3.050346 1_555
K1 O12 3.240383 1_545
K2 O9 2.563254 1_556
K2 O18 2.705192 1_555
K2 O7 2.718773 1_556
K2 O2 3.012809 1_555
K2 O5 3.034436 1_556
K2 O1 3.050346 1_555
K2 O15 3.240383 1_555
K3 O8 2.563254 1_555
K3 O19 2.705192 1_555
K3 O6 2.718773 1_555
K3 O2 3.012809 1_545
K3 O4 3.034436 1_545
K3 O1 3.050346 1_555
K3 O14 3.240383 1_545
K4 O11 2.563254 1_556
K4 O15 2.705192 1_655
K4 O5 2.718773 1_656
K4 O1 3.012809 1_655
K4 O7 3.034436 1_556
K4 O2 3.050346 1_555
K4 O18 3.240383 1_555
K5 O10 2.563254 1_555
K5 O14 2.705192 1_655
K5 O4 2.718773 1_655
K5 O1 3.012809 1_665
K5 O6 3.034436 1_565
K5 O2 3.050346 1_555
K5 O19 3.240383 1_565
K6 O11 2.563254 1_555
K6 O13 2.705192 1_555
K6 O5 2.718773 1_555
K6 O0 3.012809 1_555
K6 O7 3.034436 1_555
K6 O3 3.050346 1_555
K6 O16 3.240383 1_555
K7 O10 2.563254 1_555
K7 O12 2.705192 1_555
K7 O4 2.718773 1_555
K7 O0 3.012809 1_565
K7 O6 3.034436 1_565
K7 O3 3.050346 1_555
K7 O17 3.240383 1_565
O0 Zr1 2.046236 1_555
O0 Zr0 2.046236 1_555
O1 Zr2 2.046236 1_455
O1 Zr3 2.046236 1_455
O2 Zr4 2.046236 1_555
O2 Zr5 2.046236 1_555
O3 Zr6 2.046236 1_655
O3 Zr7 2.046236 1_655
O4 Zr4 2.094420 1_555
O4 Zr6 2.094420 1_555
O5 Zr7 2.094420 1_555
O5 Zr5 2.094420 1_554
O6 Zr0 2.094420 1_555
O6 Zr2 2.094420 1_555
O7 Zr1 2.094420 1_555
O7 Zr3 2.094420 1_554
O8 Zr0 2.025722 1_555
O8 Zr2 2.025722 1_455
O9 Zr3 2.025722 1_454
O9 Zr1 2.025722 1_555
O10 Zr6 2.025722 1_655
O10 Zr4 2.025722 1_555
O11 Zr7 2.025722 1_655
O11 Zr5 2.025722 1_554
O12 Zr1 2.090846 1_565
O12 Zr7 2.235959 1_555
O12 Zr5 2.264615 1_554
O13 Zr0 2.090846 1_555
O13 Zr6 2.235959 1_555
O13 Zr4 2.264615 1_555
O14 Zr3 2.090846 1_465
O14 Zr5 2.235959 1_555
O14 Zr7 2.264615 1_556
O15 Zr2 2.090846 1_455
O15 Zr4 2.235959 1_555
O15 Zr6 2.264615 1_555
O16 Zr6 2.090846 1_655
O16 Zr0 2.235959 1_555
O16 Zr2 2.264615 1_555
O17 Zr7 2.090846 1_645
O17 Zr1 2.235959 1_555
O17 Zr3 2.264615 1_554
O18 Zr4 2.090846 1_555
O18 Zr2 2.235959 1_555
O18 Zr0 2.264615 1_555
O19 Zr5 2.090846 1_545
O19 Zr3 2.235959 1_555
O19 Zr1 2.264615 1_556
