# generated using pymatgen
data_MnCoGe
_symmetry_space_group_name_H-M   'P 1'
_cell_length_a   3.82385196
_cell_length_b   5.90370760
_cell_length_c   6.90111670
_cell_angle_alpha   89.99795725
_cell_angle_beta   90.00000000
_cell_angle_gamma   90.00000000
_symmetry_Int_Tables_number   1
_chemical_formula_structural   MnCoGe
_chemical_formula_sum   'Mn4 Co4 Ge4'
_cell_volume   155.79204610
_cell_formula_units_Z   4
loop_
 _symmetry_equiv_pos_site_id
 _symmetry_equiv_pos_as_xyz
  1  'x, y, z'
loop_
 _atom_site_type_symbol
 _atom_site_label
 _atom_site_symmetry_multiplicity
 _atom_site_fract_x
 _atom_site_fract_y
 _atom_site_fract_z
 _atom_site_occupancy
  Mn  Mn0  1  0.75000000  0.48428353  0.69317947  1
  Mn  Mn1  1  0.25000000  0.51571647  0.30681953  1
  Mn  Mn2  1  0.25000000  0.01574990  0.19322483  1
  Mn  Mn3  1  0.75000000  0.98425010  0.80677617  1
  Co  Co0  1  0.75000000  0.83907923  0.44169471  1
  Co  Co1  1  0.75000000  0.33902684  0.05831713  1
  Co  Co2  1  0.25000000  0.16092077  0.55830529  1
  Co  Co3  1  0.25000000  0.66097316  0.94168287  1
  Ge  Ge0  1  0.75000000  0.22920508  0.38173218  1
  Ge  Ge1  1  0.25000000  0.77079492  0.61826782  1
  Ge  Ge2  1  0.75000000  0.72925168  0.11829436  1
  Ge  Ge3  1  0.25000000  0.27074832  0.88170564  1
loop_
_geom_bond_atom_site_label_1
_geom_bond_atom_site_label_2
_geom_bond_distance
_geom_bond_site_symmetry_2
Co0 Ge1 2.302783 1_655
Co0 Ge1 2.302783 1_555
Co0 Ge2 2.324123 1_555
Co0 Ge0 2.340053 1_565
Co0 Mn3 2.661280 1_555
Co0 Mn0 2.720144 1_555
Co0 Mn2 2.771907 1_565
Co0 Mn2 2.771907 1_665
Co0 Mn1 2.857689 1_655
Co0 Mn1 2.857689 1_555
Co1 Ge3 2.302932 1_654
Co1 Ge3 2.302932 1_554
Co1 Ge0 2.324167 1_555
Co1 Ge2 2.340675 1_555
Co1 Mn0 2.661752 1_554
Co1 Mn3 2.720400 1_544
Co1 Mn1 2.772134 1_555
Co1 Mn1 2.772134 1_655
Co1 Mn2 2.857379 1_555
Co1 Mn2 2.857379 1_655
Co2 Ge0 2.302783 1_455
Co2 Ge0 2.302783 1_555
Co2 Ge3 2.324123 1_555
Co2 Ge1 2.340053 1_545
Co2 Mn2 2.661273 1_555
Co2 Mn1 2.720148 1_555
Co2 Mn3 2.771912 1_445
Co2 Mn3 2.771912 1_545
Co2 Mn0 2.857687 1_455
Co2 Mn0 2.857687 1_555
Co3 Ge2 2.302932 1_556
Co3 Ge2 2.302932 1_456
Co3 Ge1 2.324167 1_555
Co3 Ge3 2.340675 1_555
Co3 Mn1 2.661746 1_556
Co3 Mn2 2.720405 1_566
Co3 Mn0 2.772139 1_455
Co3 Mn0 2.772139 1_555
Co3 Mn3 2.857377 1_455
Co3 Mn3 2.857377 1_555
Ge0 Mn1 2.604567 1_555
Ge0 Mn1 2.604567 1_655
Ge0 Mn0 2.624429 1_555
Ge0 Mn2 2.633628 1_555
Ge0 Mn2 2.633628 1_655
Ge1 Mn0 2.604566 1_555
Ge1 Mn0 2.604566 1_455
Ge1 Mn1 2.624435 1_555
Ge1 Mn3 2.633631 1_455
Ge1 Mn3 2.633631 1_555
Ge2 Mn2 2.604565 1_565
Ge2 Mn2 2.604565 1_665
Ge2 Mn3 2.624471 1_554
Ge2 Mn1 2.633870 1_655
Ge2 Mn1 2.633870 1_555
Ge3 Mn3 2.604564 1_445
Ge3 Mn3 2.604564 1_545
Ge3 Mn2 2.624477 1_556
Ge3 Mn0 2.633873 1_455
Ge3 Mn0 2.633873 1_555
