# generated using pymatgen
data_Sr4MgTi3O10
_symmetry_space_group_name_H-M   'P 1'
_cell_length_a   3.92500408
_cell_length_b   3.92500354
_cell_length_c   16.11917768
_cell_angle_alpha   96.99308376
_cell_angle_beta   96.99308097
_cell_angle_gamma   89.99999831
_symmetry_Int_Tables_number   1
_chemical_formula_structural   Sr4MgTi3O10
_chemical_formula_sum   'Sr4 Mg1 Ti3 O10'
_cell_volume   244.61786655
_cell_formula_units_Z   1
loop_
 _symmetry_equiv_pos_site_id
 _symmetry_equiv_pos_as_xyz
  1  'x, y, z'
loop_
 _atom_site_type_symbol
 _atom_site_label
 _atom_site_symmetry_multiplicity
 _atom_site_fract_x
 _atom_site_fract_y
 _atom_site_fract_z
 _atom_site_occupancy
  Sr  Sr0  1  0.55851900  0.55851900  0.11703900  1
  Sr  Sr1  1  0.44148100  0.44148100  0.88296100  1
  Sr  Sr2  1  0.31882800  0.31882800  0.63765500  1
  Sr  Sr3  1  0.68117200  0.68117200  0.36234500  1
  Mg  Mg0  1  0.75000000  0.25000000  0.50000000  1
  Ti  Ti0  1  0.00000000  0.00000000  0.00000000  1
  Ti  Ti1  1  0.87658800  0.87658800  0.75317500  1
  Ti  Ti2  1  0.12341200  0.12341200  0.24682500  1
  O  O0  1  0.13159100  0.63159100  0.26318200  1
  O  O1  1  0.77915500  0.77915500  0.55831100  1
  O  O2  1  0.22084500  0.22084500  0.44168900  1
  O  O3  1  0.50017600  0.00017600  0.00035200  1
  O  O4  1  0.99982400  0.49982400  0.99964800  1
  O  O5  1  0.06514200  0.06514200  0.13028200  1
  O  O6  1  0.93485800  0.93485800  0.86971800  1
  O  O7  1  0.63339500  0.13339500  0.26679100  1
  O  O8  1  0.36840900  0.86840900  0.73681800  1
  O  O9  1  0.86660500  0.36660500  0.73320900  1
loop_
_geom_bond_atom_site_label_1
_geom_bond_atom_site_label_2
_geom_bond_distance
_geom_bond_site_symmetry_2
Mg0 O1 2.169948 1_555
Mg0 O2 2.169948 1_555
Mg0 O1 2.169952 1_545
Mg0 O2 2.169952 1_655
O0 Ti2 1.979612 1_565
O0 Ti2 1.979615 1_555
O0 Sr3 2.516074 1_555
O0 Sr3 2.516077 1_455
O0 Sr0 3.039118 1_555
O0 Sr0 3.039120 1_455
O3 Ti0 1.962510 1_655
O3 Ti0 1.962510 1_555
O3 Sr0 2.698945 1_555
O3 Sr0 2.698948 1_545
O3 Sr1 2.706631 1_544
O3 Sr1 2.706634 1_554
O4 Ti0 1.962510 1_666
O4 Ti0 1.962510 1_656
O4 Sr1 2.698945 1_555
O4 Sr1 2.698948 1_655
O4 Sr0 2.706631 1_656
O4 Sr0 2.706634 1_556
O5 Ti2 1.850522 1_555
O5 Ti0 2.068676 1_555
O5 Sr0 2.783343 1_555
O5 Sr0 2.783351 1_545
O5 Sr0 2.783351 1_455
O5 Sr0 2.783360 1_445
O6 Ti1 1.850522 1_555
O6 Ti0 2.068676 1_666
O6 Sr1 2.783343 1_555
O6 Sr1 2.783351 1_565
O6 Sr1 2.783351 1_655
O6 Sr1 2.783360 1_665
O7 Ti2 1.987944 1_655
O7 Ti2 1.987944 1_555
O7 Sr3 2.480616 1_555
O7 Sr3 2.480616 1_545
O7 Sr0 3.083097 1_545
O7 Sr0 3.083097 1_555
O8 Ti1 1.979612 1_455
O8 Ti1 1.979616 1_555
O8 Sr2 2.516074 1_555
O8 Sr2 2.516077 1_565
O8 Sr1 3.039118 1_555
O8 Sr1 3.039120 1_565
O9 Ti1 1.987944 1_555
O9 Ti1 1.987944 1_545
O9 Sr2 2.480617 1_655
O9 Sr2 2.480617 1_555
O9 Sr1 3.083097 1_555
O9 Sr1 3.083097 1_655
