# generated using pymatgen
data_LiNiPCO7
_symmetry_space_group_name_H-M   'P 1'
_cell_length_a   6.35298500
_cell_length_b   5.08903700
_cell_length_c   8.63416847
_cell_angle_alpha   86.02537849
_cell_angle_beta   90.00000000
_cell_angle_gamma   90.00000000
_symmetry_Int_Tables_number   1
_chemical_formula_structural   LiNiPCO7
_chemical_formula_sum   'Li2 Ni2 P2 C2 O14'
_cell_volume   278.47624561
_cell_formula_units_Z   2
loop_
 _symmetry_equiv_pos_site_id
 _symmetry_equiv_pos_as_xyz
  1  'x, y, z'
loop_
 _atom_site_type_symbol
 _atom_site_label
 _atom_site_symmetry_multiplicity
 _atom_site_fract_x
 _atom_site_fract_y
 _atom_site_fract_z
 _atom_site_occupancy
  Li  Li0  1  0.99372400  0.22233900  0.23147200  1
  Li  Li1  1  0.49372400  0.77766100  0.76852800  1
  Ni  Ni0  1  0.75027600  0.79127700  0.33965500  1
  Ni  Ni1  1  0.25027600  0.20872300  0.66034500  1
  P  P0  1  0.25181600  0.72027600  0.42894900  1
  P  P1  1  0.75181600  0.27972400  0.57105100  1
  C  C0  1  0.75046900  0.72243700  0.06271400  1
  C  C1  1  0.25046900  0.27756300  0.93728600  1
  O  O0  1  0.44126500  0.78286200  0.32018100  1
  O  O1  1  0.75790300  0.95348700  0.11818200  1
  O  O2  1  0.27103900  0.47033500  0.83062400  1
  O  O3  1  0.77103900  0.52966500  0.16937600  1
  O  O4  1  0.56628800  0.16786000  0.67128000  1
  O  O5  1  0.77134800  0.15063400  0.41586900  1
  O  O6  1  0.94126500  0.21713800  0.67981900  1
  O  O7  1  0.25790300  0.04651300  0.88181800  1
  O  O8  1  0.06628800  0.83214000  0.32872000  1
  O  O9  1  0.22892700  0.41757300  0.46115900  1
  O  O10  1  0.72014800  0.68828700  0.92242900  1
  O  O11  1  0.22014800  0.31171300  0.07757100  1
  O  O12  1  0.72892700  0.58242700  0.53884100  1
  O  O13  1  0.27134800  0.84936600  0.58413100  1
loop_
_geom_bond_atom_site_label_1
_geom_bond_atom_site_label_2
_geom_bond_distance
_geom_bond_site_symmetry_2
Li0 O11 1.989473 1_655
Li0 O5 2.140868 1_555
Li0 O3 2.149116 1_555
Li0 O8 2.151639 1_645
Li0 O1 2.293209 1_545
Li1 O10 1.989473 1_555
Li1 O13 2.140868 1_555
Li1 O2 2.149116 1_555
Li1 O4 2.151639 1_565
Li1 O7 2.293209 1_565
Ni0 O12 1.962745 1_555
Ni0 O0 1.971048 1_555
Ni0 O5 1.990531 1_565
Ni0 O8 2.019894 1_655
Ni0 O1 2.030172 1_555
Ni0 O3 2.054943 1_555
Ni1 O9 1.962745 1_555
Ni1 O6 1.971048 1_455
Ni1 O13 1.990531 1_545
Ni1 O4 2.019894 1_555
Ni1 O7 2.030172 1_555
Ni1 O2 2.054943 1_555
C0 O10 1.250441 1_554
C0 O1 1.300853 1_555
C0 O3 1.304747 1_555
C1 O11 1.250441 1_556
C1 O7 1.300853 1_555
C1 O2 1.304747 1_555
O0 P0 1.546124 1_555
O4 P1 1.547230 1_555
O5 P1 1.537609 1_555
O6 P1 1.546124 1_555
O8 P0 1.547230 1_555
O9 P0 1.553105 1_555
O12 P1 1.553105 1_555
O13 P0 1.537609 1_555
