# generated using pymatgen
data_LiPPbO4
_symmetry_space_group_name_H-M   'P 1'
_cell_length_a   4.93838374
_cell_length_b   7.95688848
_cell_length_c   18.61418511
_cell_angle_alpha   90.00000000
_cell_angle_beta   90.00000000
_cell_angle_gamma   90.00000000
_symmetry_Int_Tables_number   1
_chemical_formula_structural   LiPPbO4
_chemical_formula_sum   'Li8 P8 Pb8 O32'
_cell_volume   731.42892975
_cell_formula_units_Z   8
loop_
 _symmetry_equiv_pos_site_id
 _symmetry_equiv_pos_as_xyz
  1  'x, y, z'
loop_
 _atom_site_type_symbol
 _atom_site_label
 _atom_site_symmetry_multiplicity
 _atom_site_fract_x
 _atom_site_fract_y
 _atom_site_fract_z
 _atom_site_occupancy
  Li  Li0  1  0.69669102  0.32304086  0.84843245  1
  Li  Li1  1  0.19669102  0.67695914  0.15156755  1
  Li  Li2  1  0.19669102  0.17695914  0.34843245  1
  Li  Li3  1  0.69669102  0.82304086  0.65156755  1
  Li  Li4  1  0.19690683  0.48921172  0.44289491  1
  Li  Li5  1  0.69690683  0.51078828  0.55710509  1
  Li  Li6  1  0.69690683  0.01078828  0.94289491  1
  Li  Li7  1  0.19690683  0.98921172  0.05710509  1
  P  P0  1  0.19375745  0.23351740  0.92869478  1
  P  P1  1  0.69375745  0.76648260  0.07130522  1
  P  P2  1  0.69375745  0.26648260  0.42869478  1
  P  P3  1  0.19375745  0.73351740  0.57130522  1
  P  P4  1  0.69096351  0.71374628  0.82018410  1
  P  P5  1  0.19096351  0.28625372  0.17981590  1
  P  P6  1  0.19096351  0.78625372  0.32018410  1
  P  P7  1  0.69096351  0.21374628  0.67981590  1
  Pb  Pb0  1  0.23347618  0.52630202  0.72959784  1
  Pb  Pb1  1  0.73347618  0.47369798  0.27040216  1
  Pb  Pb2  1  0.73347618  0.97369798  0.22959784  1
  Pb  Pb3  1  0.23347618  0.02630202  0.77040216  1
  Pb  Pb4  1  0.24725004  0.67826235  0.94670625  1
  Pb  Pb5  1  0.74725004  0.32173765  0.05329375  1
  Pb  Pb6  1  0.74725004  0.82173765  0.44670625  1
  Pb  Pb7  1  0.24725004  0.17826235  0.55329375  1
  O  O0  1  0.07813829  0.25032395  0.85197150  1
  O  O1  1  0.57813829  0.74967605  0.14802850  1
  O  O2  1  0.57813829  0.24967605  0.35197150  1
  O  O3  1  0.07813829  0.75032395  0.64802850  1
  O  O4  1  0.11712832  0.39428081  0.97238725  1
  O  O5  1  0.61712832  0.60571919  0.02761275  1
  O  O6  1  0.61712832  0.10571919  0.47238725  1
  O  O7  1  0.11712832  0.89428081  0.52761275  1
  O  O8  1  0.57957799  0.23223220  0.75732426  1
  O  O9  1  0.07957799  0.76776780  0.24267574  1
  O  O10  1  0.07957799  0.26776780  0.25732426  1
  O  O11  1  0.57957799  0.73223220  0.74267574  1
  O  O12  1  0.55816254  0.05452011  0.64753917  1
  O  O13  1  0.05816254  0.94547989  0.35246083  1
  O  O14  1  0.05816254  0.44547989  0.14753917  1
  O  O15  1  0.55816254  0.55452011  0.85246083  1
  O  O16  1  0.00107004  0.19550304  0.68225205  1
  O  O17  1  0.50107004  0.80449696  0.31774795  1
  O  O18  1  0.50107004  0.30449696  0.18225205  1
  O  O19  1  0.00107004  0.69550304  0.81774795  1
  O  O20  1  0.60990249  0.36695797  0.63517053  1
  O  O21  1  0.10990249  0.63304203  0.36482947  1
  O  O22  1  0.10990249  0.13304203  0.13517053  1
  O  O23  1  0.60990249  0.86695797  0.86482947  1
  O  O24  1  0.50258827  0.71692886  0.57378271  1
  O  O25  1  0.00258827  0.28307114  0.42621729  1
  O  O26  1  0.00258827  0.78307114  0.07378271  1
  O  O27  1  0.50258827  0.21692886  0.92621729  1
  O  O28  1  0.06238803  0.58408031  0.53262911  1
  O  O29  1  0.56238803  0.41591969  0.46737089  1
  O  O30  1  0.56238803  0.91591969  0.03262911  1
  O  O31  1  0.06238803  0.08408031  0.96737089  1
loop_
_geom_bond_atom_site_label_1
_geom_bond_atom_site_label_2
_geom_bond_distance
_geom_bond_site_symmetry_2
Li0 O27 1.930835 1_555
Li0 O8 1.932011 1_555
Li0 O15 1.966228 1_555
Li0 O0 1.971692 1_655
Li1 O26 1.930835 1_555
Li1 O9 1.932011 1_555
Li1 O14 1.966228 1_555
Li1 O1 1.971692 1_555
Li2 O25 1.930835 1_555
Li2 O10 1.932011 1_555
Li2 O13 1.966228 1_545
Li2 O2 1.971692 1_555
Li3 O24 1.930835 1_555
Li3 O11 1.932011 1_555
Li3 O12 1.966228 1_565
Li3 O3 1.971692 1_655
Li4 O21 1.898928 1_555
Li4 O25 1.925519 1_555
Li4 O28 1.949644 1_555
Li4 O29 1.950713 1_555
Li5 O20 1.898928 1_555
Li5 O24 1.925519 1_555
Li5 O29 1.949644 1_555
Li5 O28 1.950713 1_655
Li6 O23 1.898928 1_545
Li6 O27 1.925519 1_555
Li6 O30 1.949644 1_546
Li6 O31 1.950713 1_655
Li7 O22 1.898928 1_565
Li7 O26 1.925519 1_555
Li7 O31 1.949644 1_564
Li7 O30 1.950713 1_555
O0 P0 1.543852 1_555
O0 Pb3 2.463984 1_555
O1 P1 1.543852 1_555
O1 Pb2 2.463984 1_555
O2 P2 1.543852 1_555
O2 Pb1 2.463984 1_555
O3 P3 1.543852 1_555
O3 Pb0 2.463984 1_555
O4 P0 1.562355 1_555
O4 Pb4 2.397347 1_555
O4 Pb5 2.436742 1_456
O5 P1 1.562355 1_555
O5 Pb5 2.397347 1_555
O5 Pb4 2.436742 1_554
O6 P2 1.562355 1_555
O6 Pb6 2.397347 1_545
O6 Pb7 2.436742 1_555
O7 P3 1.562355 1_555
O7 Pb7 2.397347 1_565
O7 Pb6 2.436742 1_455
O8 P7 1.551048 1_555
O8 Pb3 2.380222 1_555
O9 P6 1.551048 1_555
O9 Pb2 2.380222 1_455
O10 P5 1.551048 1_555
O10 Pb1 2.380222 1_455
O11 P4 1.551048 1_555
O11 Pb0 2.380222 1_555
O12 P7 1.547972 1_555
O12 Pb7 2.530709 1_555
O13 P6 1.547972 1_555
O13 Pb6 2.530709 1_455
O14 P5 1.547972 1_555
O14 Pb5 2.530709 1_455
O15 P4 1.547972 1_555
O15 Pb4 2.530709 1_555
O16 P7 1.538958 1_455
O16 Pb3 2.412916 1_555
O16 Pb7 2.694253 1_555
O17 P6 1.538958 1_555
O17 Pb2 2.412916 1_555
O17 Pb6 2.694253 1_555
O18 P5 1.538958 1_555
O18 Pb1 2.412916 1_555
O18 Pb5 2.694253 1_555
O19 P4 1.538958 1_455
O19 Pb0 2.412916 1_555
O19 Pb4 2.694253 1_555
O20 P7 1.528741 1_555
O20 Pb7 2.790065 1_555
O21 P6 1.528741 1_555
O21 Pb6 2.790065 1_455
O22 P5 1.528741 1_555
O22 Pb5 2.790065 1_455
O23 P4 1.528741 1_555
O23 Pb4 2.790065 1_555
O24 P3 1.531521 1_555
O24 Pb6 2.783979 1_555
O25 P2 1.531521 1_455
O25 Pb7 2.783979 1_555
O26 P1 1.531521 1_455
O26 Pb4 2.783979 1_554
O27 P0 1.531521 1_555
O27 Pb5 2.783979 1_556
O28 P3 1.533956 1_555
O29 P2 1.533956 1_555
O30 P1 1.533956 1_555
O31 P0 1.533956 1_555
