# generated using pymatgen
data_SrPb3
_symmetry_space_group_name_H-M   'P 1'
_cell_length_a   5.00469932
_cell_length_b   5.00469932
_cell_length_c   5.00506815
_cell_angle_alpha   90.00000000
_cell_angle_beta   90.00000000
_cell_angle_gamma   90.00000000
_symmetry_Int_Tables_number   1
_chemical_formula_structural   SrPb3
_chemical_formula_sum   'Sr1 Pb3'
_cell_volume   125.36201845
_cell_formula_units_Z   1
loop_
 _symmetry_equiv_pos_site_id
 _symmetry_equiv_pos_as_xyz
  1  'x, y, z'
loop_
 _atom_site_type_symbol
 _atom_site_label
 _atom_site_symmetry_multiplicity
 _atom_site_fract_x
 _atom_site_fract_y
 _atom_site_fract_z
 _atom_site_occupancy
  Sr  Sr0  1  0.00000000  0.00000000  -0.00000000  1
  Pb  Pb0  1  0.00000000  0.50000000  0.50000000  1
  Pb  Pb1  1  0.50000000  0.00000000  0.50000000  1
  Pb  Pb2  1  0.50000000  0.50000000  -0.00000000  1
loop_
_geom_bond_atom_site_label_1
_geom_bond_atom_site_label_2
_geom_bond_distance
_geom_bond_site_symmetry_2
Pb0 Sr0 3.538987 1_556
Pb0 Sr0 3.538987 1_565
Pb0 Sr0 3.538987 1_566
Pb0 Sr0 3.538987 1_555
Pb1 Sr0 3.538987 1_656
Pb1 Sr0 3.538987 1_556
Pb1 Sr0 3.538987 1_655
Pb1 Sr0 3.538987 1_555
Pb2 Sr0 3.538857 1_655
Pb2 Sr0 3.538857 1_555
Pb2 Sr0 3.538857 1_565
Pb2 Sr0 3.538857 1_665
