# generated using pymatgen
data_La3TaSiS5O24
_symmetry_space_group_name_H-M   'P 1'
_cell_length_a   9.47925169
_cell_length_b   9.49381274
_cell_length_c   24.28295603
_cell_angle_alpha   90.13139116
_cell_angle_beta   90.24489935
_cell_angle_gamma   119.98417586
_symmetry_Int_Tables_number   1
_chemical_formula_structural   La3TaSiS5O24
_chemical_formula_sum   'La9 Ta3 Si3 S15 O72'
_cell_volume   1892.80765356
_cell_formula_units_Z   3
loop_
 _symmetry_equiv_pos_site_id
 _symmetry_equiv_pos_as_xyz
  1  'x, y, z'
loop_
 _atom_site_type_symbol
 _atom_site_label
 _atom_site_symmetry_multiplicity
 _atom_site_fract_x
 _atom_site_fract_y
 _atom_site_fract_z
 _atom_site_occupancy
  La  La0  1  0.01105426  0.00256480  0.35289629  1
  La  La1  1  0.99197729  0.99738369  0.86196315  1
  La  La2  1  0.99798868  0.99835177  0.65197400  1
  La  La3  1  0.01456967  0.99619479  0.14225834  1
  La  La4  1  0.66833482  0.33357508  0.69289642  1
  La  La5  1  0.65716256  0.32284655  0.19351369  1
  La  La6  1  0.66582374  0.33152654  0.47308075  1
  La  La7  1  0.33669390  0.66278692  0.02239634  1
  La  La8  1  0.33377189  0.66675598  0.52533688  1
  Ta  Ta0  1  0.67452148  0.33848464  0.97470316  1
  Ta  Ta1  1  0.33362657  0.67280533  0.31187010  1
  Ta  Ta2  1  0.33171089  0.65580315  0.82319616  1
  Si  Si0  1  0.28929885  0.98586672  0.25154997  1
  Si  Si1  1  0.61470755  0.64716011  0.91851754  1
  Si  Si2  1  0.03600810  0.38610061  0.91794576  1
  S  S0  1  0.68479415  0.70696486  0.25400795  1
  S  S1  1  0.02187099  0.31543576  0.25414746  1
  S  S2  1  0.29377083  0.31628961  0.75483321  1
  S  S3  1  0.02425201  0.70798563  0.75397063  1
  S  S4  1  0.68261810  0.97745688  0.75365567  1
  S  S5  1  0.95468029  0.32816181  0.58348497  1
  S  S6  1  0.37374951  0.04615520  0.58339912  1
  S  S7  1  0.67147362  0.62457197  0.58349357  1
  S  S8  1  0.93536210  0.60790583  0.07837599  1
  S  S9  1  0.67517275  0.06282610  0.07853058  1
  S  S10  1  0.38930505  0.32726678  0.07870067  1
  S  S11  1  0.35615396  0.96625430  0.91590611  1
  S  S12  1  0.60821597  0.94264685  0.41189055  1
  S  S13  1  0.33759117  0.39319214  0.41309845  1
  S  S14  1  0.05533610  0.66026728  0.41208160  1
  O  O0  1  0.20376469  0.00964145  0.30535328  1
  O  O1  1  0.78800312  0.78435983  0.30245637  1
  O  O2  1  0.99026968  0.20991969  0.30208340  1
  O  O3  1  0.21993511  0.20897929  0.80085305  1
  O  O4  1  0.99064973  0.78379372  0.80038663  1
  O  O5  1  0.79484396  0.01392013  0.79992518  1
  O  O6  1  0.75304029  0.94717408  0.70286722  1
  O  O7  1  0.19398567  0.24911981  0.70363276  1
  O  O8  1  0.05085045  0.80727481  0.70293111  1
  O  O9  1  0.74583520  0.80807422  0.20474734  1
  O  O10  1  0.05850535  0.25185636  0.20467803  1
  O  O11  1  0.17207230  0.94926146  0.19771818  1
  O  O12  1  0.87625992  0.35077315  0.63251979  1
  O  O13  1  0.47499684  0.12505837  0.63271117  1
  O  O14  1  0.65066938  0.52480948  0.63270123  1
  O  O15  1  0.86176394  0.51663941  0.12907371  1
  O  O16  1  0.65765638  0.13702671  0.12978922  1
  O  O17  1  0.48020467  0.34655199  0.13034687  1
  O  O18  1  0.48120772  0.31421767  0.03043989  1
  O  O19  1  0.82756778  0.51042900  0.02928099  1
  O  O20  1  0.68435615  0.16766640  0.02974600  1
  O  O21  1  0.45419784  0.14399650  0.53327967  1
  O  O22  1  0.68877074  0.54403075  0.53322683  1
  O  O23  1  0.85559677  0.30924018  0.53313694  1
  O  O24  1  0.53487590  0.68014333  0.97053626  1
  O  O25  1  0.14331693  0.47318466  0.97055644  1
  O  O26  1  0.32391600  0.86821213  0.96582450  1
  O  O27  1  0.53534818  0.85051360  0.46273482  1
  O  O28  1  0.32068204  0.46745643  0.46415511  1
  O  O29  1  0.14907888  0.68281228  0.46304759  1
  O  O30  1  0.15142504  0.64821996  0.36413900  1
  O  O31  1  0.49798323  0.84495948  0.36372051  1
  O  O32  1  0.34981715  0.49781184  0.36477435  1
  O  O33  1  0.14687175  0.51648279  0.86363915  1
  O  O34  1  0.37963642  0.87602050  0.86720276  1
  O  O35  1  0.48419874  0.63097525  0.86422835  1
  O  O36  1  0.03328151  0.80116925  0.40488780  1
  O  O37  1  0.76866335  0.96206980  0.40337074  1
  O  O38  1  0.19298248  0.23169235  0.40703920  1
  O  O39  1  0.00142180  0.21152419  0.90003655  1
  O  O40  1  0.22456772  0.99506804  0.90302012  1
  O  O41  1  0.79125373  0.78199229  0.89998530  1
  O  O42  1  0.97263370  0.18271283  0.59004614  1
  O  O43  1  0.21023683  0.02801306  0.58989663  1
  O  O44  1  0.81723190  0.78822754  0.58993332  1
  O  O45  1  0.93971790  0.76630761  0.07932591  1
  O  O46  1  0.82468564  0.05139035  0.08193022  1
  O  O47  1  0.22736422  0.17623576  0.08116764  1
  O  O48  1  0.65883358  0.11892945  0.74343855  1
  O  O49  1  0.46137596  0.34731864  0.74474521  1
  O  O50  1  0.88319225  0.54158115  0.74367642  1
  O  O51  1  0.65659590  0.54185893  0.24629581  1
  O  O52  1  0.88940543  0.35099874  0.24642932  1
  O  O53  1  0.47348971  0.13020054  0.24376403  1
  O  O54  1  0.62728359  0.47710054  0.93337285  1
  O  O55  1  0.85010199  0.36746825  0.93179868  1
  O  O56  1  0.51033168  0.12939317  0.92528466  1
  O  O57  1  0.61403454  0.10107103  0.41374710  1
  O  O58  1  0.48703356  0.38139400  0.41567474  1
  O  O59  1  0.89707365  0.50879407  0.41380177  1
  O  O60  1  0.36767628  0.46863910  0.07376131  1
  O  O61  1  0.09681785  0.63063144  0.07128859  1
  O  O62  1  0.52998335  0.90256785  0.07198939  1
  O  O63  1  0.35647261  0.88259330  0.57726302  1
  O  O64  1  0.52550570  0.64256120  0.57769820  1
  O  O65  1  0.11833416  0.47416112  0.57750385  1
  O  O66  1  0.31031470  0.82067241  0.26991319  1
  O  O67  1  0.51536115  0.68498096  0.26831623  1
  O  O68  1  0.17333554  0.48090062  0.26900676  1
  O  O69  1  0.30836076  0.48270261  0.76679574  1
  O  O70  1  0.17240429  0.69308480  0.76568455  1
  O  O71  1  0.51889017  0.83179863  0.76599167  1
loop_
_geom_bond_atom_site_label_1
_geom_bond_atom_site_label_2
_geom_bond_distance
_geom_bond_site_symmetry_2
La0 O0 2.137775 1_555
La0 O38 2.377483 1_555
La0 O36 2.388633 1_545
La0 O2 2.415237 1_455
La0 O1 2.418771 1_445
La0 O37 2.464291 1_445
La1 O41 2.188388 1_555
La1 O39 2.191953 1_665
La1 O40 2.425961 1_655
La1 O5 2.460952 1_565
La1 O4 2.511631 1_555
La1 O3 2.570835 1_665
La2 O44 2.394313 1_555
La2 O42 2.410835 1_565
La2 O43 2.420983 1_665
La2 O8 2.446744 1_655
La2 O6 2.460565 1_555
La2 O7 2.497727 1_665
La3 O11 2.211737 1_555
La3 O47 2.404607 1_565
La3 O45 2.455551 1_455
La3 O46 2.565978 1_465
La3 O10 2.707316 1_565
La3 O9 2.734882 1_455
La4 O48 2.344361 1_555
La4 O50 2.348535 1_555
La4 O49 2.393145 1_555
La4 O13 2.398148 1_555
La4 O12 2.401054 1_555
La4 O14 2.403084 1_555
La5 O53 2.170469 1_555
La5 O16 2.345742 1_555
La5 O17 2.360957 1_555
La5 O52 2.440329 1_555
La5 O51 2.442362 1_555
La5 O15 2.463262 1_555
La6 O23 2.401461 1_555
La6 O22 2.407445 1_555
La6 O21 2.407916 1_555
La6 O58 2.413399 1_555
La6 O57 2.451475 1_555
La6 O59 2.461763 1_555
La7 O24 2.203179 1_554
La7 O25 2.203816 1_554
La7 O60 2.363869 1_555
La7 O62 2.406055 1_555
La7 O26 2.439741 1_554
La7 O61 2.450315 1_555
La8 O64 2.317669 1_555
La8 O63 2.319529 1_555
La8 O65 2.327867 1_555
La8 O28 2.356604 1_555
La8 O29 2.370949 1_555
La8 O27 2.389688 1_555
O0 Si0 1.614285 1_545
O1 S0 1.465882 1_555
O2 S1 1.468532 1_655
O3 S2 1.440759 1_555
O4 S3 1.455443 1_655
O5 S4 1.460767 1_545
O6 S4 1.498843 1_555
O7 S2 1.493507 1_555
O8 S3 1.502894 1_555
O9 S0 1.463946 1_555
O10 S1 1.462098 1_555
O11 Si0 1.632130 1_555
O12 S5 1.477282 1_555
O13 S6 1.477698 1_555
O14 S7 1.477923 1_555
O15 S8 1.470068 1_555
O16 S9 1.479114 1_555
O17 S10 1.476762 1_555
O18 S10 1.504527 1_555
O18 Ta0 2.200799 1_554
O19 S8 1.536604 1_555
O19 Ta0 2.032844 1_554
O20 S9 1.523585 1_555
O20 Ta0 2.141297 1_554
O21 S6 1.493546 1_555
O22 S7 1.491386 1_555
O23 S5 1.493225 1_555
O24 Si1 1.584146 1_555
O25 Si2 1.579184 1_555
O26 S11 1.467360 1_555
O27 S12 1.474759 1_555
O28 S13 1.473280 1_555
O29 S14 1.471865 1_555
O30 S14 1.520082 1_555
O30 Ta1 2.065336 1_555
O31 S12 1.528450 1_555
O31 Ta1 2.027929 1_555
O32 S13 1.506121 1_555
O32 Ta1 2.167255 1_555
O33 Si2 1.759195 1_555
O33 Ta2 1.867672 1_555
O34 S11 1.539581 1_555
O34 Ta2 2.180735 1_555
O35 Si1 1.757026 1_555
O35 Ta2 1.861999 1_555
O36 S14 1.464220 1_555
O37 S12 1.453461 1_555
O38 S13 1.465620 1_555
O39 Si2 1.579851 1_555
O40 S11 1.437603 1_555
O41 Si1 1.584190 1_555
O42 S5 1.482162 1_555
O43 S6 1.480665 1_555
O44 S7 1.482853 1_555
O45 S8 1.483756 1_555
O46 S9 1.476515 1_555
O47 S10 1.489011 1_555
O48 S4 1.489988 1_545
O49 S2 1.485543 1_555
O50 S3 1.493369 1_655
O51 S0 1.463888 1_555
O52 S1 1.465559 1_655
O53 Si0 1.604542 1_545
O54 Si1 1.716296 1_555
O54 Ta0 1.879045 1_555
O55 Si2 1.715733 1_655
O55 Ta0 1.868068 1_555
O56 S11 1.523049 1_545
O56 Ta0 2.165175 1_555
O57 S12 1.477833 1_545
O58 S13 1.476852 1_555
O59 S14 1.471339 1_655
O60 S10 1.460614 1_555
O61 S8 1.445998 1_455
O62 S9 1.462292 1_565
O63 S6 1.484868 1_565
O64 S7 1.482616 1_555
O65 S5 1.484094 1_455
O66 Si0 1.735770 1_555
O66 Ta1 1.836377 1_555
O67 S0 1.553668 1_555
O67 Ta1 1.979074 1_555
O68 S1 1.548530 1_555
O68 Ta1 1.980464 1_555
O69 S2 1.542313 1_555
O69 Ta2 2.061294 1_555
O70 S3 1.506165 1_555
O70 Ta2 2.207835 1_555
O71 S4 1.507137 1_555
O71 Ta2 2.222177 1_555
