# generated using pymatgen
data_Ga8BIr4
_symmetry_space_group_name_H-M   'P 1'
_cell_length_a   12.26517765
_cell_length_b   12.26517765
_cell_length_c   12.26517765
_cell_angle_alpha   138.83048374
_cell_angle_beta   138.83048374
_cell_angle_gamma   59.63342519
_symmetry_Int_Tables_number   1
_chemical_formula_structural   Ga8BIr4
_chemical_formula_sum   'Ga32 B4 Ir16'
_cell_volume   791.57271198
_cell_formula_units_Z   4
loop_
 _symmetry_equiv_pos_site_id
 _symmetry_equiv_pos_as_xyz
  1  'x, y, z'
loop_
 _atom_site_type_symbol
 _atom_site_label
 _atom_site_symmetry_multiplicity
 _atom_site_fract_x
 _atom_site_fract_y
 _atom_site_fract_z
 _atom_site_occupancy
  Ga  Ga0  1  0.15128300  0.87538700  0.15276800  1
  Ga  Ga1  1  0.50148400  0.77738100  0.15276800  1
  Ga  Ga2  1  0.62461300  0.34871700  0.84723200  1
  Ga  Ga3  1  0.09871700  0.75148400  0.22410400  1
  Ga  Ga4  1  0.52738100  0.87461300  0.77589600  1
  Ga  Ga5  1  0.62538700  0.97261900  0.22410400  1
  Ga  Ga6  1  0.74851600  0.40128300  0.77589600  1
  Ga  Ga7  1  0.72261900  0.99851600  0.84723200  1
  Ga  Ga8  1  0.59871700  0.37461300  0.34723200  1
  Ga  Ga9  1  0.24851600  0.47261900  0.34723200  1
  Ga  Ga10  1  0.12538700  0.90128300  0.65276800  1
  Ga  Ga11  1  0.65128300  0.49851600  0.27589600  1
  Ga  Ga12  1  0.25118100  0.03182400  0.65124500  1
  Ga  Ga13  1  0.78182400  0.63057900  0.28064400  1
  Ga  Ga14  1  0.34993600  0.50118100  0.71935600  1
  Ga  Ga15  1  0.99881900  0.15006400  0.28064400  1
  Ga  Ga16  1  0.86942100  0.71817600  0.71935600  1
  Ga  Ga17  1  0.90006400  0.11942100  0.65124500  1
  Ga  Ga18  1  0.46817600  0.24881900  0.34875500  1
  Ga  Ga19  1  0.38057900  0.59993600  0.34875500  1
  Ga  Ga20  1  0.49881900  0.21817600  0.84875500  1
  Ga  Ga21  1  0.96817600  0.61942100  0.21935600  1
  Ga  Ga22  1  0.40006400  0.74881900  0.78064400  1
  Ga  Ga23  1  0.75118100  0.09993600  0.21935600  1
  Ga  Ga24  1  0.88057900  0.53182400  0.78064400  1
  Ga  Ga25  1  0.84993600  0.13057900  0.84875500  1
  Ga  Ga26  1  0.28182400  0.00118100  0.15124500  1
  Ga  Ga27  1  0.36942100  0.65006400  0.15124500  1
  Ga  Ga28  1  0.02738100  0.25148400  0.65276800  1
  Ga  Ga29  1  0.00148400  0.84871700  0.72410400  1
  Ga  Ga30  1  0.12461300  0.27738100  0.27589600  1
  Ga  Ga31  1  0.22261900  0.37538700  0.72410400  1
  B  B0  1  0.50000000  0.00000000  0.50000000  1
  B  B1  1  0.75000000  0.75000000  0.00000000  1
  B  B2  1  0.25000000  0.25000000  0.00000000  1
  B  B3  1  0.00000000  0.50000000  0.50000000  1
  Ir  Ir0  1  0.64798800  0.64798800  0.00000000  1
  Ir  Ir1  1  0.39798800  0.89798800  0.50000000  1
  Ir  Ir2  1  0.60201200  0.10201200  0.50000000  1
  Ir  Ir3  1  0.85201200  0.85201200  0.00000000  1
  Ir  Ir4  1  0.10201200  0.60201200  0.50000000  1
  Ir  Ir5  1  0.35201200  0.35201200  0.00000000  1
  Ir  Ir6  1  0.14798800  0.14798800  0.00000000  1
  Ir  Ir7  1  0.89798800  0.39798800  0.50000000  1
  Ir  Ir8  1  0.07428000  0.42572000  0.00000000  1
  Ir  Ir9  1  0.17572000  0.67572000  0.85144100  1
  Ir  Ir10  1  0.82428000  0.32428000  0.14855900  1
  Ir  Ir11  1  0.42572000  0.07428000  0.00000000  1
  Ir  Ir12  1  0.67572000  0.82428000  0.50000000  1
  Ir  Ir13  1  0.57428000  0.57428000  0.64855900  1
  Ir  Ir14  1  0.92572000  0.92572000  0.35144100  1
  Ir  Ir15  1  0.32428000  0.17572000  0.50000000  1
loop_
_geom_bond_atom_site_label_1
_geom_bond_atom_site_label_2
_geom_bond_distance
_geom_bond_site_symmetry_2
Ga0 Ir15 2.624501 1_565
Ga0 Ir3 2.639518 1_455
Ga0 Ir1 2.653279 1_555
Ga0 Ir9 2.654341 1_554
Ga1 Ir12 2.624497 1_555
Ga1 Ir0 2.639529 1_555
Ga1 Ir2 2.653279 1_565
Ga1 Ir9 2.654343 1_554
Ga2 Ir15 2.624501 1_555
Ga2 Ir0 2.639518 1_556
Ga2 Ir2 2.653279 1_555
Ga2 Ir10 2.654341 1_556
Ga3 Ir14 2.624508 1_455
Ga3 Ir1 2.639523 1_555
Ga3 Ir3 2.653287 1_455
Ga3 Ir8 2.654341 1_555
Ga4 Ir13 2.624497 1_555
Ga4 Ir1 2.639518 1_555
Ga4 Ir3 2.653279 1_556
Ga4 Ir11 2.654351 1_566
Ga5 Ir14 2.624497 1_555
Ga5 Ir2 2.639518 1_565
Ga5 Ir0 2.653279 1_555
Ga5 Ir11 2.654351 1_565
Ga6 Ir13 2.624508 1_555
Ga6 Ir2 2.639523 1_555
Ga6 Ir0 2.653287 1_556
Ga6 Ir8 2.654341 1_656
Ga7 Ir12 2.624497 1_555
Ga7 Ir3 2.639529 1_556
Ga7 Ir1 2.653279 1_555
Ga7 Ir10 2.654343 1_566
Ga8 Ir11 2.624501 1_555
Ga8 Ir7 2.639518 1_555
Ga8 Ir5 2.653279 1_555
Ga8 Ir13 2.654341 1_555
Ga9 Ir8 2.624497 1_555
Ga9 Ir4 2.639529 1_555
Ga9 Ir6 2.653279 1_555
Ga9 Ir13 2.654343 1_555
Ga10 Ir11 2.624501 1_566
Ga10 Ir4 2.639518 1_555
Ga10 Ir6 2.653279 1_566
Ga10 Ir14 2.654341 1_455
Ga11 Ir10 2.624508 1_555
Ga11 Ir5 2.639523 1_555
Ga11 Ir7 2.653287 1_555
Ga11 Ir12 2.654341 1_555
Ga12 Ir1 2.614169 1_545
Ga12 Ir5 2.627684 1_556
Ga12 Ir14 2.664315 1_445
Ga12 Ir11 2.671809 1_556
Ga13 Ir0 2.614180 1_555
Ga13 Ir4 2.627684 1_655
Ga13 Ir12 2.664305 1_555
Ga13 Ir10 2.671802 1_555
Ga14 Ir0 2.614166 1_556
Ga14 Ir4 2.627677 1_555
Ga14 Ir15 2.664316 1_555
Ga14 Ir9 2.671824 1_555
Ga15 Ir3 2.614166 1_545
Ga15 Ir7 2.627677 1_555
Ga15 Ir15 2.664316 1_655
Ga15 Ir10 2.671824 1_555
Ga16 Ir3 2.614180 1_556
Ga16 Ir7 2.627684 1_555
Ga16 Ir12 2.664305 1_555
Ga16 Ir9 2.671802 1_655
Ga17 Ir2 2.614169 1_555
Ga17 Ir6 2.627684 1_656
Ga17 Ir14 2.664303 1_545
Ga17 Ir8 2.671809 1_656
Ga18 Ir2 2.614169 1_555
Ga18 Ir6 2.627684 1_555
Ga18 Ir13 2.664315 1_555
Ga18 Ir11 2.671809 1_555
Ga19 Ir1 2.614169 1_555
Ga19 Ir5 2.627684 1_555
Ga19 Ir13 2.664303 1_555
Ga19 Ir8 2.671809 1_555
Ga20 Ir5 2.614169 1_556
Ga20 Ir1 2.627684 1_545
Ga20 Ir10 2.664315 1_556
Ga20 Ir15 2.671809 1_555
Ga21 Ir4 2.614180 1_655
Ga21 Ir0 2.627684 1_555
Ga21 Ir8 2.664305 1_655
Ga21 Ir14 2.671802 1_555
Ga22 Ir4 2.614166 1_555
Ga22 Ir0 2.627677 1_556
Ga22 Ir11 2.664316 1_566
Ga22 Ir13 2.671824 1_555
Ga23 Ir7 2.614166 1_555
Ga23 Ir3 2.627677 1_545
Ga23 Ir11 2.664316 1_555
Ga23 Ir14 2.671824 1_545
Ga24 Ir7 2.614180 1_555
Ga24 Ir3 2.627684 1_556
Ga24 Ir8 2.664305 1_656
Ga24 Ir13 2.671802 1_555
Ga25 Ir6 2.614169 1_656
Ga25 Ir2 2.627684 1_555
Ga25 Ir10 2.664303 1_556
Ga25 Ir12 2.671809 1_545
Ga26 Ir6 2.614169 1_555
Ga26 Ir2 2.627684 1_555
Ga26 Ir9 2.664315 1_544
Ga26 Ir15 2.671809 1_555
Ga27 Ir5 2.614169 1_555
Ga27 Ir1 2.627684 1_555
Ga27 Ir9 2.664303 1_554
Ga27 Ir12 2.671809 1_555
Ga28 Ir8 2.624497 1_556
Ga28 Ir7 2.639529 1_455
Ga28 Ir5 2.653279 1_556
Ga28 Ir14 2.654343 1_445
Ga29 Ir9 2.624508 1_555
Ga29 Ir6 2.639523 1_566
Ga29 Ir4 2.653287 1_555
Ga29 Ir12 2.654341 1_455
Ga30 Ir10 2.624497 1_455
Ga30 Ir6 2.639518 1_555
Ga30 Ir4 2.653279 1_555
Ga30 Ir15 2.654351 1_555
Ga31 Ir9 2.624497 1_555
Ga31 Ir5 2.639518 1_556
Ga31 Ir7 2.653279 1_455
Ga31 Ir15 2.654351 1_555
B0 Ir12 2.143284 1_545
B0 Ir15 2.143284 1_555
B0 Ir2 2.171125 1_555
B0 Ir1 2.171125 1_545
B1 Ir14 2.143290 1_555
B1 Ir13 2.143290 1_554
B1 Ir3 2.171125 1_555
B1 Ir0 2.171125 1_555
B2 Ir8 2.143284 1_555
B2 Ir11 2.143284 1_555
B2 Ir6 2.171125 1_555
B2 Ir5 2.171125 1_555
B3 Ir9 2.143290 1_555
B3 Ir10 2.143290 1_455
B3 Ir4 2.171125 1_555
B3 Ir7 2.171125 1_455
