# generated using pymatgen
data_Ce
_symmetry_space_group_name_H-M   'P 1'
_cell_length_a   6.64172712
_cell_length_b   6.64172383
_cell_length_c   21.71193090
_cell_angle_alpha   90.00000000
_cell_angle_beta   90.00000000
_cell_angle_gamma   120.00000567
_symmetry_Int_Tables_number   1
_chemical_formula_structural   Ce
_chemical_formula_sum   Ce32
_cell_volume   829.45130799
_cell_formula_units_Z   32
loop_
 _symmetry_equiv_pos_site_id
 _symmetry_equiv_pos_as_xyz
  1  'x, y, z'
loop_
 _atom_site_type_symbol
 _atom_site_label
 _atom_site_symmetry_multiplicity
 _atom_site_fract_x
 _atom_site_fract_y
 _atom_site_fract_z
 _atom_site_occupancy
  Ce  Ce0_0  1  0.00000000  0.00000000  0.00000000  1
  Ce  Ce0_1  1  0.00000000  0.00000000  0.50000000  1
  Ce  Ce0_2  1  0.00000000  0.50000000  0.00000000  1
  Ce  Ce0_3  1  0.00000000  0.50000000  0.50000000  1
  Ce  Ce0_4  1  0.50000000  0.00000000  0.00000000  1
  Ce  Ce0_5  1  0.50000000  0.00000000  0.50000000  1
  Ce  Ce0_6  1  0.50000000  0.50000000  0.00000000  1
  Ce  Ce0_7  1  0.50000000  0.50000000  0.50000000  1
  Ce  Ce1_0  1  0.00000000  0.00000000  0.25000000  1
  Ce  Ce1_1  1  0.00000000  0.00000000  0.75000000  1
  Ce  Ce1_2  1  0.00000000  0.50000000  0.25000000  1
  Ce  Ce1_3  1  0.00000000  0.50000000  0.75000000  1
  Ce  Ce1_4  1  0.50000000  0.00000000  0.25000000  1
  Ce  Ce1_5  1  0.50000000  0.00000000  0.75000000  1
  Ce  Ce1_6  1  0.50000000  0.50000000  0.25000000  1
  Ce  Ce1_7  1  0.50000000  0.50000000  0.75000000  1
  Ce  Ce2_0  1  0.16666650  0.33333350  0.12493626  1
  Ce  Ce2_1  1  0.16666650  0.33333350  0.62493626  1
  Ce  Ce2_2  1  0.16666650  0.83333350  0.12493626  1
  Ce  Ce2_3  1  0.16666650  0.83333350  0.62493626  1
  Ce  Ce2_4  1  0.66666650  0.33333350  0.12493626  1
  Ce  Ce2_5  1  0.66666650  0.33333350  0.62493626  1
  Ce  Ce2_6  1  0.66666650  0.83333350  0.12493626  1
  Ce  Ce2_7  1  0.66666650  0.83333350  0.62493626  1
  Ce  Ce3_0  1  0.33333350  0.16666650  0.37506375  1
  Ce  Ce3_1  1  0.33333350  0.16666650  0.87506374  1
  Ce  Ce3_2  1  0.33333350  0.66666650  0.37506375  1
  Ce  Ce3_3  1  0.33333350  0.66666650  0.87506374  1
  Ce  Ce3_4  1  0.83333350  0.16666650  0.37506375  1
  Ce  Ce3_5  1  0.83333350  0.16666650  0.87506374  1
  Ce  Ce3_6  1  0.83333350  0.66666650  0.37506375  1
  Ce  Ce3_7  1  0.83333350  0.66666650  0.87506374  1
loop_
_geom_bond_atom_site_label_1
_geom_bond_atom_site_label_2
_geom_bond_distance
_geom_bond_site_symmetry_2
Ce0_0 Ce0_2 3.320862 1_545
Ce0_0 Ce0_2 3.320862 1_555
Ce0_0 Ce0_6 3.320862 1_445
Ce0_0 Ce0_6 3.320862 1_555
Ce0_0 Ce0_4 3.320864 1_555
Ce0_0 Ce0_4 3.320864 1_455
Ce0_0 Ce2_2 3.321788 1_545
Ce0_0 Ce3_5 3.321788 1_454
Ce0_0 Ce2_0 3.321789 1_555
Ce0_0 Ce3_7 3.321789 1_444
Ce0_0 Ce3_1 3.321790 1_554
Ce0_0 Ce2_6 3.321790 1_445
Ce0_1 Ce0_3 3.320862 1_545
Ce0_1 Ce0_3 3.320862 1_555
Ce0_1 Ce0_7 3.320862 1_445
Ce0_1 Ce0_7 3.320862 1_555
Ce0_1 Ce0_5 3.320864 1_555
Ce0_1 Ce0_5 3.320864 1_455
Ce0_1 Ce3_4 3.321788 1_455
Ce0_1 Ce2_3 3.321788 1_545
Ce0_1 Ce3_6 3.321789 1_445
Ce0_1 Ce2_1 3.321789 1_555
Ce0_1 Ce3_0 3.321790 1_555
Ce0_1 Ce2_7 3.321790 1_445
Ce0_2 Ce0_4 3.320862 1_455
Ce0_2 Ce0_4 3.320862 1_565
Ce0_2 Ce0_6 3.320864 1_555
Ce0_2 Ce0_6 3.320864 1_455
Ce0_2 Ce2_0 3.321788 1_555
Ce0_2 Ce3_7 3.321788 1_454
Ce0_2 Ce2_2 3.321789 1_555
Ce0_2 Ce3_5 3.321789 1_454
Ce0_2 Ce2_4 3.321790 1_455
Ce0_2 Ce3_3 3.321790 1_554
Ce0_3 Ce0_5 3.320862 1_455
Ce0_3 Ce0_5 3.320862 1_565
Ce0_3 Ce0_7 3.320864 1_555
Ce0_3 Ce0_7 3.320864 1_455
Ce0_3 Ce3_6 3.321788 1_455
Ce0_3 Ce2_1 3.321788 1_555
Ce0_3 Ce3_4 3.321789 1_455
Ce0_3 Ce2_3 3.321789 1_555
Ce0_3 Ce3_2 3.321790 1_555
Ce0_3 Ce2_5 3.321790 1_455
Ce0_4 Ce0_6 3.320862 1_555
Ce0_4 Ce0_6 3.320862 1_545
Ce0_4 Ce2_6 3.321788 1_545
Ce0_4 Ce3_1 3.321788 1_554
Ce0_4 Ce2_4 3.321789 1_555
Ce0_4 Ce3_3 3.321789 1_544
Ce0_4 Ce2_2 3.321790 1_545
Ce0_4 Ce3_5 3.321790 1_554
Ce0_5 Ce0_7 3.320862 1_545
Ce0_5 Ce0_7 3.320862 1_555
Ce0_5 Ce3_0 3.321788 1_555
Ce0_5 Ce2_7 3.321788 1_545
Ce0_5 Ce3_2 3.321789 1_545
Ce0_5 Ce2_5 3.321789 1_555
Ce0_5 Ce3_4 3.321790 1_555
Ce0_5 Ce2_3 3.321790 1_545
Ce0_6 Ce2_4 3.321788 1_555
Ce0_6 Ce3_3 3.321788 1_554
Ce0_6 Ce2_6 3.321789 1_555
Ce0_6 Ce3_1 3.321789 1_554
Ce0_6 Ce2_0 3.321790 1_555
Ce0_6 Ce3_7 3.321790 1_554
Ce0_7 Ce3_2 3.321788 1_555
Ce0_7 Ce2_5 3.321788 1_555
Ce0_7 Ce3_0 3.321789 1_555
Ce0_7 Ce2_7 3.321789 1_555
Ce0_7 Ce3_6 3.321790 1_555
Ce0_7 Ce2_1 3.321790 1_555
Ce1_0 Ce1_2 3.320862 1_555
Ce1_0 Ce1_2 3.320862 1_545
Ce1_0 Ce1_6 3.320862 1_555
Ce1_0 Ce1_6 3.320862 1_445
Ce1_0 Ce1_4 3.320864 1_555
Ce1_0 Ce1_4 3.320864 1_455
Ce1_0 Ce2_2 3.324049 1_545
Ce1_0 Ce3_4 3.324049 1_455
Ce1_0 Ce3_6 3.324050 1_445
Ce1_0 Ce2_0 3.324050 1_555
Ce1_0 Ce3_0 3.324050 1_555
Ce1_0 Ce2_6 3.324050 1_445
Ce1_1 Ce1_3 3.320862 1_545
Ce1_1 Ce1_3 3.320862 1_555
Ce1_1 Ce1_7 3.320862 1_445
Ce1_1 Ce1_7 3.320862 1_555
Ce1_1 Ce1_5 3.320864 1_555
Ce1_1 Ce1_5 3.320864 1_455
Ce1_1 Ce2_3 3.324049 1_545
Ce1_1 Ce3_5 3.324049 1_455
Ce1_1 Ce2_1 3.324050 1_555
Ce1_1 Ce3_7 3.324050 1_445
Ce1_1 Ce3_1 3.324050 1_555
Ce1_1 Ce2_7 3.324050 1_445
Ce1_2 Ce1_4 3.320862 1_455
Ce1_2 Ce1_4 3.320862 1_565
Ce1_2 Ce1_6 3.320864 1_555
Ce1_2 Ce1_6 3.320864 1_455
Ce1_2 Ce2_0 3.324049 1_555
Ce1_2 Ce3_6 3.324049 1_455
Ce1_2 Ce3_4 3.324050 1_455
Ce1_2 Ce2_2 3.324050 1_555
Ce1_2 Ce3_2 3.324050 1_555
Ce1_2 Ce2_4 3.324050 1_455
Ce1_3 Ce1_5 3.320862 1_455
Ce1_3 Ce1_5 3.320862 1_565
Ce1_3 Ce1_7 3.320864 1_555
Ce1_3 Ce1_7 3.320864 1_455
Ce1_3 Ce2_1 3.324049 1_555
Ce1_3 Ce3_7 3.324049 1_455
Ce1_3 Ce3_5 3.324050 1_455
Ce1_3 Ce2_3 3.324050 1_555
Ce1_3 Ce3_3 3.324050 1_555
Ce1_3 Ce2_5 3.324050 1_455
Ce1_4 Ce1_6 3.320862 1_545
Ce1_4 Ce1_6 3.320862 1_555
Ce1_4 Ce2_6 3.324049 1_545
Ce1_4 Ce3_0 3.324049 1_555
Ce1_4 Ce3_2 3.324050 1_545
Ce1_4 Ce2_4 3.324050 1_555
Ce1_4 Ce3_4 3.324050 1_555
Ce1_4 Ce2_2 3.324050 1_545
Ce1_5 Ce1_7 3.320862 1_555
Ce1_5 Ce1_7 3.320862 1_545
Ce1_5 Ce3_1 3.324049 1_555
Ce1_5 Ce2_7 3.324049 1_545
Ce1_5 Ce3_3 3.324050 1_545
Ce1_5 Ce2_5 3.324050 1_555
Ce1_5 Ce2_3 3.324050 1_545
Ce1_5 Ce3_5 3.324050 1_555
Ce1_6 Ce3_2 3.324049 1_555
Ce1_6 Ce2_4 3.324049 1_555
Ce1_6 Ce3_0 3.324050 1_555
Ce1_6 Ce2_6 3.324050 1_555
Ce1_6 Ce2_0 3.324050 1_555
Ce1_6 Ce3_6 3.324050 1_555
Ce1_7 Ce2_5 3.324049 1_555
Ce1_7 Ce3_3 3.324049 1_555
Ce1_7 Ce3_1 3.324050 1_555
Ce1_7 Ce2_7 3.324050 1_555
Ce1_7 Ce2_1 3.324050 1_555
Ce1_7 Ce3_7 3.324050 1_555
Ce2_0 Ce2_2 3.320862 1_545
Ce2_0 Ce2_2 3.320862 1_555
Ce2_0 Ce2_6 3.320862 1_445
Ce2_0 Ce2_6 3.320862 1_555
Ce2_0 Ce2_4 3.320864 1_555
Ce2_0 Ce2_4 3.320864 1_455
Ce2_1 Ce2_3 3.320862 1_545
Ce2_1 Ce2_3 3.320862 1_555
Ce2_1 Ce2_7 3.320862 1_445
Ce2_1 Ce2_7 3.320862 1_555
Ce2_1 Ce2_5 3.320864 1_555
Ce2_1 Ce2_5 3.320864 1_455
Ce2_2 Ce2_4 3.320862 1_455
Ce2_2 Ce2_4 3.320862 1_565
Ce2_2 Ce2_6 3.320864 1_555
Ce2_2 Ce2_6 3.320864 1_455
Ce2_3 Ce2_5 3.320862 1_565
Ce2_3 Ce2_5 3.320862 1_455
Ce2_3 Ce2_7 3.320864 1_555
Ce2_3 Ce2_7 3.320864 1_455
Ce2_4 Ce2_6 3.320862 1_545
Ce2_4 Ce2_6 3.320862 1_555
Ce2_5 Ce2_7 3.320862 1_545
Ce2_5 Ce2_7 3.320862 1_555
Ce3_0 Ce3_2 3.320862 1_545
Ce3_0 Ce3_2 3.320862 1_555
Ce3_0 Ce3_6 3.320862 1_445
Ce3_0 Ce3_6 3.320862 1_555
Ce3_0 Ce3_4 3.320864 1_555
Ce3_0 Ce3_4 3.320864 1_455
Ce3_1 Ce3_3 3.320862 1_545
Ce3_1 Ce3_3 3.320862 1_555
Ce3_1 Ce3_7 3.320862 1_445
Ce3_1 Ce3_7 3.320862 1_555
Ce3_1 Ce3_5 3.320864 1_555
Ce3_1 Ce3_5 3.320864 1_455
Ce3_2 Ce3_4 3.320862 1_455
Ce3_2 Ce3_4 3.320862 1_565
Ce3_2 Ce3_6 3.320864 1_555
Ce3_2 Ce3_6 3.320864 1_455
Ce3_3 Ce3_5 3.320862 1_565
Ce3_3 Ce3_5 3.320862 1_455
Ce3_3 Ce3_7 3.320864 1_455
Ce3_3 Ce3_7 3.320864 1_555
Ce3_4 Ce3_6 3.320862 1_555
Ce3_4 Ce3_6 3.320862 1_545
Ce3_5 Ce3_7 3.320862 1_555
Ce3_5 Ce3_7 3.320862 1_545
