# generated using pymatgen
data_MgV4(O2F)4
_symmetry_space_group_name_H-M   'P 1'
_cell_length_a   5.41596840
_cell_length_b   8.98852604
_cell_length_c   5.07332217
_cell_angle_alpha   102.37698136
_cell_angle_beta   113.32220245
_cell_angle_gamma   82.16227579
_symmetry_Int_Tables_number   1
_chemical_formula_structural   MgV4(O2F)4
_chemical_formula_sum   'Mg1 V4 O8 F4'
_cell_volume   221.16083220
_cell_formula_units_Z   1
loop_
 _symmetry_equiv_pos_site_id
 _symmetry_equiv_pos_as_xyz
  1  'x, y, z'
loop_
 _atom_site_type_symbol
 _atom_site_label
 _atom_site_symmetry_multiplicity
 _atom_site_fract_x
 _atom_site_fract_y
 _atom_site_fract_z
 _atom_site_occupancy
  Mg  Mg0  1  0.02574026  0.65649110  0.81246764  1
  V  V0  1  0.01982446  0.01120174  0.03936982  1
  V  V1  1  0.60187578  0.76029561  0.14833896  1
  V  V2  1  0.49079442  0.49068211  0.47433760  1
  V  V3  1  0.37638792  0.22155822  0.81866115  1
  O  O0  1  0.37325065  0.90048387  0.20716291  1
  O  O1  1  0.51266013  0.35229212  0.12526362  1
  O  O2  1  0.85424073  0.82821734  0.08016483  1
  O  O3  1  0.36248760  0.34626472  0.56200242  1
  O  O4  1  0.69574236  0.64249090  0.42050193  1
  O  O5  1  0.14458638  0.15496022  0.95616992  1
  O  O6  1  0.41980670  0.64099857  0.82124935  1
  O  O7  1  0.62820764  0.08631612  0.84065945  1
  F  F0  1  0.18495644  0.59051830  0.22088459  1
  F  F1  1  0.06439449  0.11812672  0.42888242  1
  F  F2  1  0.99425044  0.86848829  0.68763714  1
  F  F3  1  0.86329360  0.45204306  0.73124623  1
loop_
_geom_bond_atom_site_label_1
_geom_bond_atom_site_label_2
_geom_bond_distance
_geom_bond_site_symmetry_2
Mg0 O4 2.074720 1_455
Mg0 O6 2.103026 1_555
Mg0 O2 2.190648 1_456
O0 V1 1.707608 1_555
O0 V0 1.983037 1_565
O1 V3 1.699732 1_554
O1 V2 1.969568 1_555
O2 V1 1.747260 1_555
O2 V0 2.060945 1_665
O3 V2 1.761815 1_555
O3 V3 1.866201 1_555
O4 V1 1.791751 1_555
O4 V2 1.995382 1_555
O5 V0 1.732702 1_556
O5 V3 1.870454 1_555
O6 V1 1.762335 1_556
O6 V2 2.108468 1_555
O7 V3 1.683968 1_555
O7 V0 2.044240 1_656
F0 V2 1.898734 1_555
F0 Mg0 2.088316 1_554
F1 V0 1.938667 1_555
F1 V3 2.150480 1_555
F2 V0 1.928848 1_666
F2 Mg0 2.098673 1_655
F3 V2 1.952029 1_555
F3 Mg0 2.037212 1_655
