# generated using pymatgen
data_Na14Ca2Si9Sn6(SO16)3
_symmetry_space_group_name_H-M   'P 1'
_cell_length_a   18.38909762
_cell_length_b   9.24643519
_cell_length_c   22.69567931
_cell_angle_alpha   90.24668499
_cell_angle_beta   89.80117125
_cell_angle_gamma   120.08987212
_symmetry_Int_Tables_number   1
_chemical_formula_structural   Na14Ca2Si9Sn6(SO16)3
_chemical_formula_sum   'Na42 Ca6 Si27 Sn18 S9 O144'
_cell_volume   3338.95085762
_cell_formula_units_Z   3
loop_
 _symmetry_equiv_pos_site_id
 _symmetry_equiv_pos_as_xyz
  1  'x, y, z'
loop_
 _atom_site_type_symbol
 _atom_site_label
 _atom_site_symmetry_multiplicity
 _atom_site_fract_x
 _atom_site_fract_y
 _atom_site_fract_z
 _atom_site_occupancy
  Na  Na0  1  0.30937567  0.00225082  0.24539425  1
  Na  Na1  1  0.81617179  0.01672600  0.24942059  1
  Na  Na2  1  0.18812842  0.36486301  0.25380101  1
  Na  Na3  1  0.69530226  0.36771245  0.25092219  1
  Na  Na4  1  0.99017155  0.61691382  0.25658908  1
  Na  Na5  1  0.49517146  0.63638938  0.24885278  1
  Na  Na6  1  0.31684087  0.61702370  0.74156261  1
  Na  Na7  1  0.81004569  0.61861986  0.74108330  1
  Na  Na8  1  0.99329124  0.34800161  0.74323498  1
  Na  Na9  1  0.49278230  0.36938187  0.75181899  1
  Na  Na10  1  0.19541271  0.02624058  0.74561033  1
  Na  Na11  1  0.69032891  0.01264964  0.74990847  1
  Na  Na12  1  0.15488783  0.33766476  0.58509583  1
  Na  Na13  1  0.66090220  0.35706642  0.57911052  1
  Na  Na14  1  0.01236723  0.69238216  0.57818635  1
  Na  Na15  1  0.51270900  0.69325745  0.57297561  1
  Na  Na16  1  0.32647904  0.96266703  0.58460913  1
  Na  Na17  1  0.83328729  0.95697517  0.57274142  1
  Na  Na18  1  0.15945239  0.96480593  0.08614886  1
  Na  Na19  1  0.65708161  0.97381165  0.08925112  1
  Na  Na20  1  0.33532192  0.70688527  0.08567539  1
  Na  Na21  1  0.82618312  0.69004285  0.08892623  1
  Na  Na22  1  0.01108558  0.32730405  0.07883937  1
  Na  Na23  1  0.51501626  0.33482766  0.08342376  1
  Na  Na24  1  0.98501879  0.66886332  0.91849365  1
  Na  Na25  1  0.35067337  0.03986981  0.91337670  1
  Na  Na26  1  0.16100419  0.29370338  0.91521090  1
  Na  Na27  1  0.48825429  0.30509979  0.41847422  1
  Na  Na28  1  0.66868978  0.02963097  0.41365747  1
  Na  Na29  1  0.84998442  0.67163004  0.41897354  1
  Na  Na30  1  0.99833627  0.99701289  0.49646963  1
  Na  Na31  1  0.49276501  0.98144633  0.49229430  1
  Na  Na32  1  0.98949150  0.00167041  0.99433898  1
  Na  Na33  1  0.50850772  0.01436792  0.00284903  1
  Na  Na34  1  0.33940009  0.33924044  0.82587871  1
  Na  Na35  1  0.82500627  0.31711580  0.83191779  1
  Na  Na36  1  0.32603932  0.33407173  0.33348760  1
  Na  Na37  1  0.83779754  0.33142646  0.33050141  1
  Na  Na38  1  0.17348198  0.68200776  0.17182361  1
  Na  Na39  1  0.67153228  0.67807572  0.16728724  1
  Na  Na40  1  0.16917086  0.66265281  0.66011630  1
  Na  Na41  1  0.67601969  0.66626900  0.66679899  1
  Ca  Ca0  1  0.32866449  0.33587997  0.68508215  1
  Ca  Ca1  1  0.83778954  0.33302128  0.68167418  1
  Ca  Ca2  1  0.33653854  0.33899745  0.18402988  1
  Ca  Ca3  1  0.82806120  0.32052621  0.18591951  1
  Ca  Ca4  1  0.16604420  0.67370086  0.01133729  1
  Ca  Ca5  1  0.67080789  0.66585600  0.50851110  1
  Si  Si0  1  0.14317757  0.99931736  0.24993292  1
  Si  Si1  1  0.64129903  0.98830727  0.25325045  1
  Si  Si2  1  0.35228296  0.71309916  0.25077042  1
  Si  Si3  1  0.84744215  0.70334882  0.25346490  1
  Si  Si4  1  0.00629313  0.30080253  0.25351458  1
  Si  Si5  1  0.14146708  0.29223805  0.75463951  1
  Si  Si6  1  0.64605122  0.29239901  0.74841301  1
  Si  Si7  1  0.50530295  0.71412189  0.75538873  1
  Si  Si8  1  0.34906741  0.99082138  0.75503747  1
  Si  Si9  1  0.85232252  0.99230732  0.75148318  1
  Si  Si10  1  0.98520429  0.33937208  0.58205473  1
  Si  Si11  1  0.18489038  0.03659813  0.58506976  1
  Si  Si12  1  0.33514183  0.63731521  0.58260648  1
  Si  Si13  1  0.83329886  0.63411303  0.58708030  1
  Si  Si14  1  0.48372997  0.63061025  0.08041071  1
  Si  Si15  1  0.33395001  0.02681498  0.08695874  1
  Si  Si16  1  0.83531042  0.03265791  0.08155646  1
  Si  Si17  1  0.68491687  0.33320788  0.08420966  1
  Si  Si18  1  0.81318030  0.65922091  0.91589235  1
  Si  Si19  1  0.01396910  0.36684583  0.91894168  1
  Si  Si20  1  0.52096912  0.36728207  0.91469057  1
  Si  Si21  1  0.16682834  0.97265074  0.91691279  1
  Si  Si22  1  0.31343400  0.96653228  0.41629791  1
  Si  Si23  1  0.82388766  0.98076877  0.41819920  1
  Si  Si24  1  0.66480744  0.36287179  0.41626654  1
  Si  Si25  1  0.02270032  0.67659717  0.41460062  1
  Si  Si26  1  0.51339944  0.65931693  0.41912601  1
  Sn  Sn0  1  0.99863513  0.99564787  0.35159777  1
  Sn  Sn1  1  0.49598867  0.98513097  0.35575701  1
  Sn  Sn2  1  0.99514302  0.00449847  0.85551143  1
  Sn  Sn3  1  0.50437904  0.01279717  0.84915020  1
  Sn  Sn4  1  0.99783448  0.01188270  0.64444066  1
  Sn  Sn5  1  0.49473692  0.98375673  0.65592018  1
  Sn  Sn6  1  0.99221988  0.00395571  0.15839346  1
  Sn  Sn7  1  0.49915858  0.98646854  0.14626694  1
  Sn  Sn8  1  0.34372760  0.32544434  0.98225791  1
  Sn  Sn9  1  0.82939390  0.32276797  0.98070799  1
  Sn  Sn10  1  0.32926920  0.33518653  0.48062485  1
  Sn  Sn11  1  0.84486099  0.35264492  0.47682455  1
  Sn  Sn12  1  0.66799634  0.65624096  0.01475303  1
  Sn  Sn13  1  0.16828703  0.67862180  0.51438604  1
  Sn  Sn14  1  0.16699904  0.68137247  0.31361505  1
  Sn  Sn15  1  0.67130357  0.68104036  0.32218804  1
  Sn  Sn16  1  0.16469433  0.66669667  0.81807290  1
  Sn  Sn17  1  0.66678896  0.65272212  0.81319775  1
  S  S0  1  0.50367675  0.29202188  0.25136685  1
  S  S1  1  0.00357714  0.71439207  0.75232560  1
  S  S2  1  0.48170771  0.32605969  0.58489476  1
  S  S3  1  0.67939809  0.03488677  0.58410136  1
  S  S4  1  0.98099414  0.63601126  0.08398722  1
  S  S5  1  0.18265141  0.32608523  0.08146517  1
  S  S6  1  0.31997705  0.66580277  0.91587642  1
  S  S7  1  0.66489017  0.95868844  0.91586373  1
  S  S8  1  0.16706892  0.37498865  0.41587349  1
  O  O0  1  0.09715563  0.03077851  0.30507668  1
  O  O1  1  0.59554085  0.02212506  0.30834257  1
  O  O2  1  0.41466380  0.80966815  0.30459681  1
  O  O3  1  0.90861299  0.79630536  0.30903928  1
  O  O4  1  0.49249413  0.18947476  0.30424909  1
  O  O5  1  0.98953304  0.16766057  0.30463552  1
  O  O6  1  0.09723760  0.17017973  0.81070674  1
  O  O7  1  0.60378962  0.17256097  0.80563781  1
  O  O8  1  0.48615995  0.80775163  0.80923410  1
  O  O9  1  0.99400658  0.79413756  0.80621108  1
  O  O10  1  0.40508802  0.01428296  0.81407580  1
  O  O11  1  0.91392793  0.02267538  0.80632322  1
  O  O12  1  0.38829485  0.95110433  0.69458471  1
  O  O13  1  0.89143252  0.95273441  0.69112824  1
  O  O14  1  0.08381147  0.21132548  0.69411544  1
  O  O15  1  0.58389780  0.20534269  0.68947829  1
  O  O16  1  0.01526469  0.81509784  0.69863339  1
  O  O17  1  0.52581584  0.82649572  0.69337187  1
  O  O18  1  0.38982473  0.82682963  0.18932523  1
  O  O19  1  0.88434661  0.81862250  0.19128049  1
  O  O20  1  0.02738472  0.23250386  0.18936285  1
  O  O21  1  0.51373097  0.21239997  0.19662079  1
  O  O22  1  0.08449013  0.96444806  0.18808248  1
  O  O23  1  0.58510616  0.95530541  0.19146339  1
  O  O24  1  0.44191086  0.34412880  0.63796685  1
  O  O25  1  0.96148603  0.38833999  0.64446605  1
  O  O26  1  0.23924734  0.09385017  0.64443312  1
  O  O27  1  0.72809238  0.10897779  0.63775466  1
  O  O28  1  0.31473646  0.53911386  0.64385624  1
  O  O29  1  0.81822114  0.52615946  0.64551265  1
  O  O30  1  0.45598076  0.52536320  0.14039160  1
  O  O31  1  0.94059559  0.53719138  0.13629741  1
  O  O32  1  0.31385465  0.10691098  0.14272652  1
  O  O33  1  0.81453053  0.09247315  0.14219804  1
  O  O34  1  0.23265154  0.35035702  0.13445223  1
  O  O35  1  0.74050276  0.38564230  0.14258763  1
  O  O36  1  0.22523179  0.30784916  0.02727782  1
  O  O37  1  0.72782037  0.28618695  0.02749439  1
  O  O38  1  0.41197750  0.53809198  0.02669054  1
  O  O39  1  0.92990298  0.55663895  0.02932396  1
  O  O40  1  0.35174447  0.14274154  0.02483395  1
  O  O41  1  0.85861334  0.16832419  0.02664076  1
  O  O42  1  0.22964247  0.17162360  0.52975733  1
  O  O43  1  0.72061930  0.13786794  0.53093763  1
  O  O44  1  0.35753175  0.54503947  0.52832494  1
  O  O45  1  0.84873625  0.54339913  0.52707062  1
  O  O46  1  0.42916764  0.30057512  0.53101628  1
  O  O47  1  0.91448893  0.29486535  0.53010616  1
  O  O48  1  0.28265563  0.69398802  0.96907548  1
  O  O49  1  0.77412082  0.69870611  0.97430223  1
  O  O50  1  0.06923488  0.43552678  0.97764033  1
  O  O51  1  0.57401022  0.45207297  0.97433987  1
  O  O52  1  0.14625471  0.86684694  0.97620057  1
  O  O53  1  0.65574738  0.86119252  0.96981184  1
  O  O54  1  0.27461379  0.85027102  0.47477172  1
  O  O55  1  0.78944779  0.86792118  0.47628631  1
  O  O56  1  0.15837300  0.45513103  0.47036221  1
  O  O57  1  0.63913772  0.41987867  0.47586587  1
  O  O58  1  0.07511664  0.69398232  0.47458185  1
  O  O59  1  0.56518855  0.69528399  0.47916942  1
  O  O60  1  0.06319984  0.63984736  0.35605871  1
  O  O61  1  0.55828322  0.62159479  0.36067923  1
  O  O62  1  0.25779322  0.88185202  0.35677852  1
  O  O63  1  0.76075494  0.89689736  0.35922790  1
  O  O64  1  0.17791186  0.47632957  0.36255383  1
  O  O65  1  0.68386252  0.49073235  0.35891972  1
  O  O66  1  0.05906005  0.49695893  0.86093760  1
  O  O67  1  0.56226036  0.47949948  0.85575959  1
  O  O68  1  0.18969529  0.88605904  0.85983611  1
  O  O69  1  0.67535224  0.87882154  0.86226054  1
  O  O70  1  0.26515939  0.63969629  0.86279477  1
  O  O71  1  0.75705286  0.63274756  0.85674015  1
  O  O72  1  0.01184645  0.84308897  0.41245888  1
  O  O73  1  0.50856491  0.83093410  0.41171753  1
  O  O74  1  0.41093395  0.00296688  0.41034414  1
  O  O75  1  0.91588269  0.99285917  0.41067373  1
  O  O76  1  0.09198520  0.20697259  0.41293657  1
  O  O77  1  0.58148948  0.17623351  0.40607119  1
  O  O78  1  0.00850728  0.18520549  0.91164767  1
  O  O79  1  0.50498923  0.17130339  0.91307999  1
  O  O80  1  0.08245089  0.98700660  0.90668643  1
  O  O81  1  0.58839769  0.97590765  0.91321488  1
  O  O82  1  0.40392821  0.81741338  0.90998929  1
  O  O83  1  0.91099136  0.81795980  0.91027456  1
  O  O84  1  0.48958886  0.17085590  0.58726464  1
  O  O85  1  0.99141808  0.16572438  0.58284717  1
  O  O86  1  0.09128215  0.02167154  0.58982641  1
  O  O87  1  0.59463785  0.02768794  0.58719317  1
  O  O88  1  0.42340415  0.82932973  0.58624866  1
  O  O89  1  0.92432972  0.81732065  0.58745205  1
  O  O90  1  0.48962879  0.81566453  0.08260013  1
  O  O91  1  0.98972280  0.80680325  0.08643235  1
  O  O92  1  0.42507013  0.02899038  0.08850245  1
  O  O93  1  0.92386380  0.01705970  0.08616786  1
  O  O94  1  0.09900798  0.16686159  0.08405782  1
  O  O95  1  0.59118301  0.16116785  0.08913709  1
  O  O96  1  0.34247192  0.15732808  0.75284390  1
  O  O97  1  0.84206718  0.15604222  0.75064455  1
  O  O98  1  0.23522246  0.32014953  0.75412610  1
  O  O99  1  0.73930199  0.31797437  0.74864491  1
  O  O100  1  0.42472324  0.52933990  0.75177330  1
  O  O101  1  0.93012468  0.54568984  0.74996411  1
  O  O102  1  0.34237827  0.52926194  0.25020358  1
  O  O103  1  0.84103796  0.52387230  0.25104622  1
  O  O104  1  0.42849945  0.31076446  0.24879252  1
  O  O105  1  0.92563289  0.32422252  0.25021507  1
  O  O106  1  0.23662603  0.16122959  0.25024380  1
  O  O107  1  0.73432743  0.14847263  0.25275616  1
  O  O108  1  0.32312846  0.50863116  0.91969322  1
  O  O109  1  0.82575739  0.49513899  0.92466302  1
  O  O110  1  0.42429829  0.34026688  0.91781395  1
  O  O111  1  0.92259898  0.36264162  0.92069466  1
  O  O112  1  0.25143595  0.16638963  0.92262246  1
  O  O113  1  0.74179446  0.12869563  0.91883526  1
  O  O114  1  0.32487220  0.15481752  0.42500114  1
  O  O115  1  0.82141318  0.15687130  0.42231073  1
  O  O116  1  0.24485710  0.36073402  0.41897392  1
  O  O117  1  0.75080782  0.34810026  0.42163941  1
  O  O118  1  0.42126196  0.48083067  0.42019146  1
  O  O119  1  0.92626687  0.51449060  0.41678646  1
  O  O120  1  0.17023620  0.47182305  0.07673161  1
  O  O121  1  0.66972417  0.49399451  0.07440455  1
  O  O122  1  0.06566880  0.65346115  0.07955963  1
  O  O123  1  0.57906938  0.66369567  0.06690055  1
  O  O124  1  0.25599944  0.83575759  0.08126459  1
  O  O125  1  0.75198217  0.84661713  0.06993160  1
  O  O126  1  0.17104331  0.84692247  0.57461548  1
  O  O127  1  0.66524202  0.86321211  0.57922782  1
  O  O128  1  0.25239005  0.65848583  0.57097211  1
  O  O129  1  0.75302562  0.66321566  0.58307523  1
  O  O130  1  0.08108037  0.49737399  0.56890796  1
  O  O131  1  0.56599302  0.47675381  0.58001320  1
  O  O132  1  0.14671568  0.82315180  0.25127503  1
  O  O133  1  0.64295272  0.80916355  0.25759503  1
  O  O134  1  0.25951874  0.70051768  0.25622303  1
  O  O135  1  0.75392961  0.69197380  0.25691870  1
  O  O136  1  0.09569923  0.48108939  0.25849594  1
  O  O137  1  0.58117468  0.45897777  0.25464859  1
  O  O138  1  0.14520087  0.47753608  0.75984343  1
  O  O139  1  0.64747894  0.47350406  0.75051551  1
  O  O140  1  0.08304146  0.70389555  0.75555717  1
  O  O141  1  0.59416778  0.71099089  0.76060565  1
  O  O142  1  0.25554465  0.81363699  0.75805047  1
  O  O143  1  0.75936594  0.81999167  0.75683659  1
loop_
_geom_bond_atom_site_label_1
_geom_bond_atom_site_label_2
_geom_bond_distance
_geom_bond_site_symmetry_2
Na0 O106 2.435602 1_555
Na0 O134 2.474736 1_545
Na0 O32 2.512147 1_555
Na0 O104 2.583709 1_555
Na0 O132 2.596067 1_545
Na0 O62 2.734653 1_545
Na0 O18 2.968859 1_545
Na1 O107 2.364674 1_555
Na1 O105 2.529275 1_555
Na1 O33 2.539627 1_555
Na1 O135 2.629183 1_545
Na1 O63 2.711259 1_545
Na1 O133 2.780866 1_545
Na1 O19 2.989737 1_545
Na1 O5 3.038519 1_555
Na2 O136 2.425814 1_555
Na2 O106 2.455419 1_555
Na2 O102 2.457469 1_555
Na2 O134 2.696739 1_555
Na2 O64 2.712695 1_555
Na2 O34 2.849032 1_555
Na2 O0 2.920793 1_555
Na2 O20 2.959950 1_555
Na3 O103 2.320972 1_555
Na3 O107 2.466960 1_555
Na3 O35 2.571937 1_555
Na3 O137 2.626377 1_555
Na3 O135 2.631861 1_555
Na3 O65 2.749233 1_555
Na4 O105 2.351798 1_555
Na4 O103 2.431587 1_555
Na4 O132 2.536352 1_655
Na4 O60 2.583841 1_655
Na4 O136 2.791005 1_655
Na4 O31 2.855530 1_555
Na4 O3 2.980420 1_555
Na5 O133 2.371595 1_555
Na5 O102 2.466908 1_555
Na5 O104 2.620500 1_555
Na5 O30 2.623252 1_555
Na5 O137 2.795393 1_555
Na5 O61 2.826586 1_555
Na5 O23 2.873199 1_555
Na5 O2 2.950840 1_555
Na6 O28 2.323081 1_555
Na6 O98 2.396194 1_555
Na6 O100 2.502869 1_555
Na6 O142 2.600299 1_555
Na6 O138 2.776953 1_555
Na6 O12 2.890370 1_555
Na6 O70 2.948607 1_555
Na7 O29 2.359850 1_555
Na7 O99 2.413710 1_555
Na7 O143 2.489025 1_555
Na7 O139 2.599805 1_555
Na7 O101 2.620804 1_555
Na7 O71 2.822019 1_555
Na7 O13 2.907182 1_555
Na8 O25 2.396065 1_555
Na8 O97 2.441718 1_555
Na8 O138 2.455336 1_655
Na8 O101 2.615193 1_555
Na8 O14 2.774001 1_655
Na8 O140 2.860165 1_655
Na8 O66 2.969216 1_655
Na8 O11 2.974782 1_555
Na9 O100 2.368558 1_555
Na9 O96 2.459826 1_555
Na9 O139 2.504738 1_555
Na9 O67 2.632450 1_555
Na9 O24 2.720111 1_555
Na9 O141 2.754100 1_555
Na10 O96 2.350299 1_555
Na10 O26 2.409923 1_555
Na10 O98 2.441366 1_555
Na10 O140 2.651688 1_545
Na10 O142 2.711737 1_545
Na10 O68 2.881359 1_545
Na11 O97 2.415496 1_555
Na11 O141 2.454190 1_545
Na11 O99 2.496651 1_555
Na11 O143 2.661069 1_545
Na11 O27 2.672399 1_555
Na11 O69 2.791001 1_545
Na11 O17 2.923669 1_545
Na11 O7 2.940728 1_555
Na12 O130 2.485108 1_555
Na12 O86 2.547870 1_555
Na12 O85 2.602850 1_455
Na12 O128 2.605442 1_555
Na12 O14 2.768838 1_555
Na12 O42 2.812808 1_555
Na12 O56 2.813860 1_555
Na12 O28 2.899006 1_555
Na13 O129 2.466094 1_555
Na13 O131 2.491486 1_555
Na13 O57 2.497885 1_555
Na13 O87 2.660085 1_555
Na13 O84 2.735507 1_555
Na13 O15 2.874260 1_555
Na13 O29 2.925652 1_555
Na13 O43 2.951872 1_555
Na14 O89 2.422932 1_455
Na14 O126 2.526094 1_555
Na14 O58 2.612475 1_555
Na14 O86 2.647921 1_565
Na14 O130 2.678002 1_555
Na14 O45 2.855145 1_455
Na14 O25 2.903582 1_455
Na14 O16 2.945631 1_555
Na15 O59 2.330718 1_555
Na15 O127 2.436874 1_555
Na15 O88 2.536899 1_555
Na15 O131 2.638913 1_555
Na15 O44 2.671093 1_555
Na15 O87 2.694347 1_565
Na15 O17 2.952986 1_555
Na16 O128 2.452701 1_555
Na16 O126 2.510356 1_555
Na16 O88 2.627267 1_555
Na16 O84 2.629936 1_565
Na16 O54 2.684071 1_555
Na16 O12 2.770798 1_555
Na16 O26 2.794584 1_565
Na16 O46 2.984659 1_565
Na17 O55 2.334795 1_555
Na17 O129 2.365271 1_555
Na17 O85 2.570374 1_565
Na17 O89 2.599461 1_555
Na17 O127 2.763006 1_555
Na17 O47 2.874934 1_565
Na17 O13 2.902923 1_555
Na18 O122 2.510784 1_555
Na18 O124 2.590354 1_555
Na18 O94 2.609916 1_565
Na18 O52 2.621148 1_554
Na18 O22 2.688059 1_555
Na18 O91 2.702558 1_455
Na18 O32 2.776138 1_565
Na19 O123 2.530898 1_555
Na19 O95 2.564121 1_565
Na19 O125 2.582484 1_555
Na19 O23 2.630109 1_555
Na19 O90 2.670105 1_555
Na19 O33 2.803259 1_565
Na19 O37 2.872982 1_565
Na19 O53 2.895461 1_554
Na20 O124 2.302736 1_555
Na20 O90 2.491127 1_555
Na20 O18 2.578304 1_555
Na20 O92 2.582375 1_565
Na20 O120 2.713951 1_555
Na20 O48 2.802575 1_554
Na20 O38 2.896551 1_555
Na21 O125 2.476677 1_555
Na21 O121 2.538573 1_555
Na21 O19 2.583059 1_555
Na21 O93 2.632138 1_565
Na21 O91 2.637548 1_555
Na21 O35 2.730801 1_555
Na21 O49 2.790450 1_554
Na22 O93 2.493607 1_455
Na22 O50 2.519879 1_554
Na22 O120 2.535998 1_555
Na22 O122 2.658412 1_555
Na22 O94 2.690145 1_555
Na22 O41 2.702047 1_455
Na22 O20 2.727250 1_555
Na23 O92 2.461196 1_555
Na23 O121 2.470176 1_555
Na23 O95 2.610593 1_555
Na23 O123 2.681437 1_555
Na23 O51 2.703075 1_554
Na23 O30 2.800444 1_555
Na23 O21 2.807136 1_555
Na23 O40 2.932159 1_555
Na24 O83 2.382072 1_555
Na24 O111 2.465588 1_555
Na24 O109 2.541442 1_555
Na24 O80 2.579545 1_655
Na24 O39 2.716856 1_556
Na24 O9 2.773730 1_555
Na24 O66 2.868194 1_655
Na24 O52 2.901969 1_655
Na25 O110 2.405409 1_555
Na25 O79 2.464060 1_555
Na25 O10 2.520626 1_555
Na25 O112 2.622726 1_555
Na25 O82 2.685864 1_545
Na25 O40 2.695342 1_556
Na25 O68 2.837401 1_545
Na26 O80 2.460848 1_545
Na26 O78 2.461078 1_555
Na26 O112 2.479136 1_555
Na26 O108 2.628210 1_555
Na26 O6 2.637796 1_555
Na26 O36 2.782844 1_556
Na27 O74 2.423765 1_555
Na27 O118 2.483086 1_555
Na27 O77 2.545747 1_555
Na27 O114 2.606150 1_555
Na27 O57 2.753530 1_555
Na27 O46 2.764498 1_555
Na27 O4 2.815676 1_555
Na27 O61 2.861034 1_555
Na28 O115 2.449247 1_555
Na28 O117 2.554004 1_555
Na28 O77 2.573322 1_555
Na28 O73 2.573604 1_545
Na28 O1 2.730298 1_555
Na28 O63 2.820362 1_545
Na28 O43 2.834580 1_555
Na29 O119 2.474669 1_555
Na29 O72 2.581103 1_655
Na29 O75 2.592356 1_555
Na29 O117 2.609411 1_555
Na29 O45 2.724443 1_555
Na29 O3 2.734292 1_555
Na29 O55 2.867226 1_555
Na29 O65 2.978783 1_555
Na30 O72 2.459814 1_655
Na30 O75 2.460388 1_555
Na30 O85 2.542403 1_565
Na30 O89 2.572796 1_555
Na30 O76 2.643014 1_665
Na30 O86 2.663236 1_665
Na31 O73 2.396957 1_555
Na31 O74 2.467015 1_565
Na31 O88 2.521947 1_555
Na31 O77 2.607098 1_565
Na31 O87 2.747361 1_565
Na31 O84 2.790286 1_565
Na32 O78 2.439715 1_655
Na32 O93 2.443856 1_556
Na32 O83 2.478270 1_545
Na32 O80 2.665427 1_645
Na32 O94 2.729895 1_656
Na32 O91 2.766836 1_546
Na33 O95 2.432606 1_555
Na33 O90 2.481331 1_545
Na33 O92 2.517246 1_555
Na33 O79 2.526113 1_554
Na33 O81 2.630596 1_544
Na33 O82 2.817773 1_544
Na34 O100 2.371053 1_555
Na34 O96 2.377104 1_555
Na34 O98 2.456259 1_555
Na34 O110 2.607420 1_555
Na34 O112 2.721244 1_555
Na34 O108 2.740971 1_555
Na35 O99 2.467613 1_555
Na35 O97 2.481903 1_555
Na35 O113 2.569753 1_555
Na35 O111 2.591881 1_555
Na35 O109 2.662332 1_555
Na35 O101 2.752345 1_555
Na36 O106 2.487502 1_555
Na36 O118 2.529463 1_555
Na36 O116 2.529527 1_555
Na36 O102 2.530242 1_555
Na36 O114 2.656140 1_555
Na36 O104 2.769443 1_555
Na37 O105 2.453569 1_555
Na37 O103 2.518406 1_555
Na37 O107 2.523009 1_555
Na37 O115 2.564080 1_555
Na37 O119 2.564984 1_555
Na37 O117 2.661337 1_555
Na38 O132 2.411376 1_555
Na38 O134 2.438912 1_555
Na38 O124 2.527510 1_555
Na38 O136 2.591164 1_555
Na38 O122 2.807927 1_555
Na38 O120 2.878678 1_555
Na39 O135 2.504883 1_555
Na39 O133 2.560490 1_555
Na39 O125 2.682271 1_555
Na39 O121 2.693490 1_555
Na39 O137 2.726291 1_555
Na39 O123 2.810190 1_555
Na40 O128 2.544334 1_555
Na40 O126 2.576619 1_555
Na40 O130 2.599685 1_555
Na40 O142 2.680759 1_555
Na40 O138 2.741693 1_555
Na40 O140 2.814367 1_555
Na41 O129 2.374371 1_555
Na41 O139 2.479236 1_555
Na41 O143 2.521398 1_555
Na41 O131 2.736200 1_555
Na41 O141 2.750187 1_555
Na41 O127 2.775121 1_555
Ca0 O26 2.205912 1_555
Ca0 O28 2.229755 1_555
Ca0 O98 2.271985 1_555
Ca0 O24 2.304784 1_555
Ca0 O100 2.331946 1_555
Ca0 O96 2.366474 1_555
Ca1 O29 2.156692 1_555
Ca1 O25 2.229932 1_555
Ca1 O27 2.271621 1_555
Ca1 O97 2.299199 1_555
Ca1 O99 2.310783 1_555
Ca1 O101 2.407507 1_555
Ca2 O32 2.178470 1_555
Ca2 O30 2.231386 1_555
Ca2 O34 2.268001 1_555
Ca2 O102 2.269595 1_555
Ca2 O106 2.304279 1_555
Ca2 O104 2.356166 1_555
Ca3 O35 2.215927 1_555
Ca3 O33 2.225009 1_555
Ca3 O107 2.248552 1_555
Ca3 O103 2.303384 1_555
Ca3 O105 2.303504 1_555
Ca3 O31 2.326049 1_555
Ca4 O52 2.150302 1_554
Ca4 O50 2.160516 1_554
Ca4 O124 2.238909 1_555
Ca4 O48 2.266598 1_554
Ca4 O122 2.340028 1_555
Ca4 O120 2.421160 1_555
Ca5 O55 2.167691 1_555
Ca5 O57 2.172872 1_555
Ca5 O59 2.197790 1_555
Ca5 O129 2.281538 1_555
Ca5 O131 2.455447 1_555
Ca5 O127 2.465228 1_555
O0 Si0 1.613549 1_545
O0 Sn0 1.975382 1_445
O1 Si1 1.619371 1_545
O1 Sn1 1.996989 1_545
O2 Si2 1.605876 1_555
O2 Sn1 1.944179 1_555
O3 Si3 1.620502 1_555
O3 Sn0 2.001746 1_555
O4 S0 1.481354 1_555
O4 Sn1 2.254335 1_545
O5 Si4 1.608120 1_655
O5 Sn0 1.994119 1_545
O6 Si5 1.624573 1_555
O6 Sn2 2.005462 1_455
O7 Si6 1.631094 1_555
O7 Sn3 1.947185 1_555
O8 Si7 1.631056 1_555
O8 Sn3 1.969244 1_565
O9 S1 1.480267 1_655
O9 Sn2 2.230788 1_565
O10 Si8 1.639107 1_545
O10 Sn3 2.000752 1_555
O11 Si9 1.612189 1_545
O11 Sn2 1.941609 1_555
O12 Si8 1.670950 1_555
O12 Sn5 2.022447 1_555
O13 Si9 1.667393 1_555
O13 Sn4 2.041541 1_565
O14 Si5 1.666310 1_555
O14 Sn4 2.059722 1_455
O15 Si6 1.679933 1_555
O15 Sn5 2.023121 1_545
O16 S1 1.485089 1_555
O16 Sn4 2.352252 1_465
O17 Si7 1.678966 1_555
O17 Sn5 2.002709 1_555
O18 Si2 1.674872 1_555
O18 Sn7 2.049176 1_555
O19 Si3 1.693945 1_555
O19 Sn6 2.005223 1_565
O20 Si4 1.703777 1_555
O20 Sn6 1.999538 1_455
O21 S0 1.499007 1_555
O21 Sn7 2.272057 1_545
O22 Si0 1.702011 1_555
O22 Sn6 2.024367 1_465
O23 Si1 1.678552 1_555
O23 Sn7 2.025746 1_555
O24 S2 1.459135 1_555
O25 Si10 1.609295 1_555
O26 Si11 1.602249 1_555
O27 S3 1.462604 1_555
O28 Si12 1.601026 1_555
O29 Si13 1.601027 1_555
O30 Si14 1.602884 1_555
O31 S4 1.455626 1_555
O32 Si15 1.596909 1_555
O33 Si16 1.596193 1_555
O34 S5 1.463011 1_555
O35 Si17 1.594451 1_555
O36 S5 1.509278 1_555
O36 Sn8 2.334339 1_554
O37 Si17 1.673448 1_555
O37 Sn9 2.021535 1_554
O38 Si14 1.682158 1_555
O38 Sn8 1.993851 1_554
O39 S4 1.506424 1_555
O39 Sn9 2.301248 1_554
O40 Si15 1.703574 1_555
O40 Sn8 2.018447 1_554
O41 Si16 1.667740 1_555
O41 Sn9 2.049614 1_554
O42 Si11 1.669731 1_555
O42 Sn10 2.027112 1_555
O43 S3 1.488939 1_555
O43 Sn11 2.474672 1_555
O44 Si12 1.659791 1_555
O44 Sn10 2.044954 1_555
O45 Si13 1.692724 1_555
O45 Sn11 2.067295 1_555
O46 S2 1.503893 1_555
O46 Sn10 2.322146 1_555
O47 Si10 1.649332 1_555
O47 Sn11 2.022221 1_555
O48 S6 1.472281 1_555
O49 Si18 1.630562 1_555
O49 Sn12 2.006939 1_556
O50 Si19 1.601833 1_555
O51 Si20 1.622345 1_555
O51 Sn12 2.028966 1_556
O52 Si21 1.596079 1_555
O53 S7 1.481951 1_555
O53 Sn12 2.264648 1_556
O54 Si22 1.631764 1_555
O54 Sn13 2.009668 1_555
O55 Si23 1.603517 1_555
O56 S8 1.487810 1_555
O56 Sn13 2.215322 1_555
O57 Si24 1.602887 1_555
O58 Si25 1.630937 1_555
O58 Sn13 2.006885 1_555
O59 Si26 1.600664 1_555
O60 Si25 1.636590 1_555
O60 Sn14 1.993566 1_555
O61 Si26 1.685098 1_555
O61 Sn15 2.056898 1_555
O62 Si22 1.637649 1_555
O62 Sn14 2.018881 1_555
O63 Si23 1.685111 1_555
O63 Sn15 2.024656 1_555
O64 S8 1.484235 1_555
O64 Sn14 2.295561 1_555
O65 Si24 1.676057 1_555
O65 Sn15 2.065482 1_555
O66 Si19 1.695213 1_555
O66 Sn16 2.031272 1_555
O67 Si20 1.630009 1_555
O67 Sn17 2.026485 1_555
O68 Si21 1.679529 1_555
O68 Sn16 2.067676 1_555
O69 S7 1.481720 1_555
O69 Sn17 2.299226 1_555
O70 S6 1.512521 1_555
O70 Sn16 2.232339 1_555
O71 Si18 1.637368 1_555
O71 Sn17 2.021442 1_555
O72 Si25 1.649525 1_555
O72 Sn0 2.078359 1_455
O73 Si26 1.642595 1_555
O73 Sn1 2.011871 1_555
O74 Si22 1.655120 1_545
O74 Sn1 2.061998 1_545
O75 Si23 1.646834 1_555
O75 Sn0 2.015147 1_555
O76 S8 1.474196 1_555
O76 Sn0 2.309264 1_445
O77 Si24 1.651345 1_555
O77 Sn1 2.026742 1_545
O78 Si19 1.639169 1_555
O78 Sn2 2.011861 1_455
O79 Si20 1.684331 1_555
O79 Sn3 2.053940 1_555
O80 Si21 1.639608 1_555
O80 Sn2 2.056146 1_465
O81 S7 1.494256 1_555
O81 Sn3 2.272849 1_565
O82 S6 1.482049 1_555
O82 Sn3 2.289124 1_565
O83 Si18 1.660905 1_555
O83 Sn2 2.059900 1_565
O84 S2 1.514141 1_555
O84 Sn5 2.370286 1_545
O85 Si10 1.666023 1_555
O85 Sn4 2.044040 1_555
O86 Si11 1.659649 1_555
O86 Sn4 2.080326 1_455
O87 S3 1.527756 1_555
O87 Sn5 2.282585 1_545
O88 Si12 1.703985 1_555
O88 Sn5 2.092063 1_555
O89 Si13 1.681812 1_555
O89 Sn4 2.071268 1_565
O90 Si14 1.659899 1_555
O90 Sn7 2.077857 1_555
O91 S4 1.505957 1_555
O91 Sn6 2.425612 1_565
O92 Si15 1.666112 1_555
O92 Sn7 2.069654 1_545
O93 Si16 1.708891 1_555
O93 Sn6 2.109617 1_555
O94 S5 1.505417 1_555
O94 Sn6 2.450383 1_455
O95 Si17 1.662793 1_555
O95 Sn7 2.101436 1_545
O96 Si8 1.604829 1_545
O97 Si9 1.616965 1_545
O98 Si5 1.610251 1_555
O99 Si6 1.609321 1_555
O100 Si7 1.607069 1_555
O101 S1 1.465494 1_655
O102 Si2 1.616222 1_555
O103 Si3 1.604424 1_555
O104 S0 1.478335 1_555
O105 Si4 1.604860 1_655
O106 Si0 1.617011 1_545
O107 Si1 1.606091 1_545
O108 S6 1.486083 1_555
O108 Sn8 2.386753 1_555
O109 Si18 1.658220 1_555
O109 Sn9 2.070646 1_555
O110 Si20 1.667818 1_555
O110 Sn8 2.033779 1_555
O111 Si19 1.661406 1_655
O111 Sn9 2.069597 1_555
O112 Si21 1.688566 1_545
O112 Sn8 2.090737 1_555
O113 S7 1.498738 1_545
O113 Sn9 2.209624 1_555
O114 Si22 1.656613 1_545
O114 Sn10 2.056467 1_555
O115 Si23 1.653833 1_545
O115 Sn11 2.048236 1_555
O116 S8 1.502782 1_555
O116 Sn10 2.192876 1_555
O117 Si24 1.659109 1_555
O117 Sn11 2.122143 1_555
O118 Si26 1.670698 1_555
O118 Sn10 2.066880 1_555
O119 Si25 1.651855 1_655
O119 Sn11 2.023422 1_555
O120 S5 1.479687 1_555
O121 Si17 1.660610 1_555
O121 Sn12 2.037169 1_555
O122 S4 1.485866 1_455
O123 Si14 1.649428 1_555
O123 Sn12 2.044146 1_555
O124 Si15 1.628636 1_565
O125 Si16 1.653053 1_565
O125 Sn12 2.078606 1_555
O126 Si11 1.657127 1_565
O126 Sn13 2.048387 1_555
O127 S3 1.477875 1_565
O128 Si12 1.650949 1_555
O128 Sn13 2.092957 1_555
O129 Si13 1.630689 1_555
O130 Si10 1.658066 1_455
O130 Sn13 2.054446 1_555
O131 S2 1.480102 1_555
O132 Si0 1.662888 1_555
O132 Sn14 2.090325 1_555
O133 Si1 1.675225 1_555
O133 Sn15 2.112805 1_555
O134 Si2 1.654825 1_555
O134 Sn14 2.075376 1_555
O135 Si3 1.670942 1_555
O135 Sn15 2.084428 1_555
O136 Si4 1.657184 1_555
O136 Sn14 2.066468 1_555
O137 S0 1.487754 1_555
O137 Sn15 2.427089 1_555
O138 Si5 1.683619 1_555
O138 Sn16 2.070973 1_555
O139 Si6 1.662049 1_555
O139 Sn17 2.071032 1_555
O140 S1 1.514313 1_555
O140 Sn16 2.218744 1_555
O141 Si7 1.653510 1_555
O141 Sn17 2.058264 1_555
O142 Si8 1.679702 1_555
O142 Sn16 2.053512 1_555
O143 Si9 1.656696 1_555
O143 Sn17 2.070819 1_555
