# generated using pymatgen
data_MgTlV4O10
_symmetry_space_group_name_H-M   'P 1'
_cell_length_a   3.85250126
_cell_length_b   6.03127332
_cell_length_c   10.97288030
_cell_angle_alpha   97.07664628
_cell_angle_beta   90.08167795
_cell_angle_gamma   108.65554292
_symmetry_Int_Tables_number   1
_chemical_formula_structural   MgTlV4O10
_chemical_formula_sum   'Mg1 Tl1 V4 O10'
_cell_volume   239.49794944
_cell_formula_units_Z   1
loop_
 _symmetry_equiv_pos_site_id
 _symmetry_equiv_pos_as_xyz
  1  'x, y, z'
loop_
 _atom_site_type_symbol
 _atom_site_label
 _atom_site_symmetry_multiplicity
 _atom_site_fract_x
 _atom_site_fract_y
 _atom_site_fract_z
 _atom_site_occupancy
  Mg  Mg0  1  0.56356400  0.13033300  0.93782900  1
  Tl  Tl0  1  0.47111100  0.92991100  0.48532900  1
  V  V0  1  0.89592400  0.79587800  0.80304300  1
  V  V1  1  0.09648000  0.19211800  0.16976800  1
  V  V2  1  0.20644000  0.41771900  0.80357000  1
  V  V3  1  0.80020100  0.59865900  0.16839500  1
  O  O0  1  0.83488000  0.66649900  0.31871300  1
  O  O1  1  0.16656600  0.34082200  0.65504400  1
  O  O2  1  0.73022600  0.46466600  0.85495500  1
  O  O3  1  0.25798900  0.51464600  0.12821800  1
  O  O4  1  0.94703500  0.89332100  0.10164400  1
  O  O5  1  0.38747500  0.77866300  0.84953000  1
  O  O6  1  0.62017600  0.23964000  0.12342700  1
  O  O7  1  0.06187400  0.12740600  0.88613000  1
  O  O8  1  0.89615800  0.79591200  0.65274000  1
  O  O9  1  0.09960500  0.19713600  0.31791900  1
loop_
_geom_bond_atom_site_label_1
_geom_bond_atom_site_label_2
_geom_bond_distance
_geom_bond_site_symmetry_2
Mg0 O7 2.007448 1_655
Mg0 O7 2.007553 1_555
Mg0 O6 2.050766 1_556
Mg0 O5 2.113985 1_545
Mg0 O2 2.220466 1_555
O0 V3 1.644374 1_555
O0 Tl0 2.923444 1_555
O0 Tl0 2.941875 1_655
O1 V2 1.631648 1_555
O2 V2 2.014907 1_655
O2 V2 2.015401 1_555
O2 V0 2.046482 1_555
O3 V1 1.955512 1_555
O3 V3 2.019822 1_555
O3 V3 2.019995 1_455
O4 V1 1.772282 1_665
O4 V3 1.921881 1_555
O5 V0 1.998291 1_455
O5 V0 1.998415 1_555
O5 V2 2.058404 1_555
O6 V1 2.019287 1_655
O6 V1 2.019918 1_555
O6 V3 2.046506 1_555
O7 V2 1.991262 1_555
O7 V0 1.992339 1_445
O8 V0 1.649284 1_555
O8 Tl0 2.812992 1_555
O8 Tl0 2.857634 1_655
O9 V1 1.622148 1_555
