# generated using pymatgen
data_HfFeGe
_symmetry_space_group_name_H-M   'P 1'
_cell_length_a   6.67152087
_cell_length_b   6.67148640
_cell_length_c   3.66307140
_cell_angle_alpha   90.00000000
_cell_angle_beta   90.00000000
_cell_angle_gamma   119.99831942
_symmetry_Int_Tables_number   1
_chemical_formula_structural   HfFeGe
_chemical_formula_sum   'Hf3 Fe3 Ge3'
_cell_volume   141.19874088
_cell_formula_units_Z   3
loop_
 _symmetry_equiv_pos_site_id
 _symmetry_equiv_pos_as_xyz
  1  'x, y, z'
loop_
 _atom_site_type_symbol
 _atom_site_label
 _atom_site_symmetry_multiplicity
 _atom_site_fract_x
 _atom_site_fract_y
 _atom_site_fract_z
 _atom_site_occupancy
  Hf  Hf0  1  0.58954238  0.00000106  0.50000000  1
  Hf  Hf1  1  0.41043361  0.41042419  0.50000000  1
  Hf  Hf2  1  0.00001062  0.58955274  0.50000000  1
  Fe  Fe0  1  0.25131603  0.00000818  -0.00000000  1
  Fe  Fe1  1  0.74869375  0.74869539  0.00000000  1
  Fe  Fe2  1  0.00000669  0.25131887  -0.00000000  1
  Ge  Ge0  1  0.00003384  0.00003190  0.50000000  1
  Ge  Ge1  1  0.33330359  0.66666334  -0.00000000  1
  Ge  Ge2  1  0.66666049  0.33330333  0.00000000  1
loop_
_geom_bond_atom_site_label_1
_geom_bond_atom_site_label_2
_geom_bond_distance
_geom_bond_site_symmetry_2
Fe0 Ge0 2.482986 1_555
Fe0 Ge0 2.482986 1_554
Fe0 Ge1 2.541912 1_545
Fe0 Ge2 2.541937 1_555
Fe0 Hf0 2.906261 1_554
Fe0 Hf0 2.906261 1_555
Fe0 Hf1 3.011984 1_554
Fe0 Hf1 3.011984 1_555
Fe0 Hf2 3.012171 1_545
Fe0 Hf2 3.012171 1_544
Fe1 Ge0 2.483211 1_665
Fe1 Ge0 2.483211 1_664
Fe1 Ge2 2.542227 1_555
Fe1 Ge1 2.542233 1_555
Fe1 Hf1 2.906486 1_555
Fe1 Hf1 2.906486 1_554
Fe1 Hf0 3.012126 1_565
Fe1 Hf0 3.012126 1_564
Fe1 Hf2 3.012147 1_655
Fe1 Hf2 3.012147 1_654
Fe2 Ge0 2.483010 1_555
Fe2 Ge0 2.483010 1_554
Fe2 Ge2 2.541917 1_455
Fe2 Ge1 2.541935 1_555
Fe2 Hf2 2.906262 1_554
Fe2 Hf2 2.906262 1_555
Fe2 Hf1 3.012057 1_554
Fe2 Hf1 3.012057 1_555
Fe2 Hf0 3.012225 1_454
Fe2 Hf0 3.012225 1_455
Ge0 Hf1 2.738028 1_555
Ge0 Hf2 2.738429 1_545
Ge0 Hf0 2.738499 1_455
Ge1 Hf2 2.723894 1_554
Ge1 Hf2 2.723894 1_555
Ge1 Hf0 2.724145 1_565
Ge1 Hf0 2.724145 1_564
Ge1 Hf1 2.724207 1_554
Ge1 Hf1 2.724207 1_555
Ge2 Hf0 2.723919 1_555
Ge2 Hf0 2.723919 1_554
Ge2 Hf1 2.724122 1_554
Ge2 Hf1 2.724122 1_555
Ge2 Hf2 2.724206 1_654
Ge2 Hf2 2.724206 1_655
