# generated using pymatgen
data_Na8Ca2La2Si3(SO8)3
_symmetry_space_group_name_H-M   'P 1'
_cell_length_a   9.70027495
_cell_length_b   9.69404041
_cell_length_c   23.51845932
_cell_angle_alpha   89.88248646
_cell_angle_beta   90.25156332
_cell_angle_gamma   119.90243707
_symmetry_Int_Tables_number   1
_chemical_formula_structural   Na8Ca2La2Si3(SO8)3
_chemical_formula_sum   'Na24 Ca6 La6 Si9 S9 O72'
_cell_volume   1917.12441477
_cell_formula_units_Z   3
loop_
 _symmetry_equiv_pos_site_id
 _symmetry_equiv_pos_as_xyz
  1  'x, y, z'
loop_
 _atom_site_type_symbol
 _atom_site_label
 _atom_site_symmetry_multiplicity
 _atom_site_fract_x
 _atom_site_fract_y
 _atom_site_fract_z
 _atom_site_occupancy
  Na  Na0  1  0.64383745  0.03176809  0.26502090  1
  Na  Na1  1  0.33924987  0.32797893  0.25781882  1
  Na  Na2  1  0.99726980  0.61640380  0.23909849  1
  Na  Na3  1  0.61701736  0.61549413  0.72556461  1
  Na  Na4  1  0.98191816  0.33482514  0.72993195  1
  Na  Na5  1  0.39517632  0.03680009  0.75096929  1
  Na  Na6  1  0.30546494  0.36201081  0.59699064  1
  Na  Na7  1  0.00665120  0.66430329  0.58803580  1
  Na  Na8  1  0.66562268  0.94935568  0.57867578  1
  Na  Na9  1  0.28055710  0.93511516  0.08059563  1
  Na  Na10  1  0.68950943  0.69583151  0.08118127  1
  Na  Na11  1  0.03284267  0.36492172  0.10259217  1
  Na  Na12  1  0.99778722  0.70127562  0.92038861  1
  Na  Na13  1  0.67672300  0.02610131  0.89255033  1
  Na  Na14  1  0.31946336  0.26647278  0.89709593  1
  Na  Na15  1  0.94934307  0.26913887  0.41805108  1
  Na  Na16  1  0.34756725  0.03306342  0.40388850  1
  Na  Na17  1  0.69973310  0.70069511  0.43868003  1
  Na  Na18  1  0.96012598  0.00131337  0.50687280  1
  Na  Na19  1  0.02002223  0.97686718  0.99516801  1
  Na  Na20  1  0.64339852  0.31444526  0.81733887  1
  Na  Na21  1  0.66795453  0.29754030  0.32728959  1
  Na  Na22  1  0.29269675  0.66757151  0.17296486  1
  Na  Na23  1  0.34482795  0.64992375  0.65797653  1
  Ca  Ca0  1  -0.00019233  0.00254601  0.34662902  1
  Ca  Ca1  1  0.00277889  0.00765201  0.84309002  1
  Ca  Ca2  1  0.67056671  0.33243446  0.67883238  1
  Ca  Ca3  1  0.67062757  0.33114436  0.18376798  1
  Ca  Ca4  1  0.32473230  0.67314086  0.01503617  1
  Ca  Ca5  1  0.34041358  0.66860167  0.51647553  1
  La  La0  1  0.99450563  0.00859702  0.65393052  1
  La  La1  1  0.01009801  0.00344476  0.15905194  1
  La  La2  1  0.66836589  0.33190174  0.98699189  1
  La  La3  1  0.67287689  0.33170459  0.49158544  1
  La  La4  1  0.33514556  0.67737740  0.32002413  1
  La  La5  1  0.34064490  0.67636347  0.81587648  1
  Si  Si0  1  0.31599955  0.00393677  0.25097764  1
  Si  Si1  1  0.00088854  0.31101034  0.24845365  1
  Si  Si2  1  0.31499486  0.31185198  0.75201604  1
  Si  Si3  1  0.69024613  0.00429639  0.75421896  1
  Si  Si4  1  0.98650254  0.34134634  0.58329275  1
  Si  Si5  1  0.66767292  0.64279873  0.58206037  1
  Si  Si6  1  0.97493129  0.64259793  0.08298154  1
  Si  Si7  1  0.32813403  0.97691914  0.92102220  1
  Si  Si8  1  0.64579343  0.97767186  0.41573130  1
  S  S0  1  0.69255003  0.68749452  0.24955487  1
  S  S1  1  0.99084405  0.68866516  0.75314147  1
  S  S2  1  0.35730538  0.01969143  0.58376054  1
  S  S3  1  0.66338318  0.01879858  0.08380190  1
  S  S4  1  0.36239347  0.34202439  0.08431696  1
  S  S5  1  0.64332971  0.67217379  0.92230576  1
  S  S6  1  0.03109984  0.35547129  0.91988812  1
  S  S7  1  0.33026438  0.35632068  0.41568468  1
  S  S8  1  0.02460553  0.67149900  0.41780448  1
  O  O0  1  0.21810111  0.01180861  0.30623830  1
  O  O1  1  0.79525860  0.77655601  0.29815521  1
  O  O2  1  0.98702470  0.19500665  0.30100747  1
  O  O3  1  0.22707431  0.20751999  0.80902512  1
  O  O4  1  0.98461522  0.77298486  0.80506710  1
  O  O5  1  0.78281154  0.00619086  0.81295677  1
  O  O6  1  0.78157156  0.97932206  0.69988646  1
  O  O7  1  0.20526204  0.22110526  0.69569629  1
  O  O8  1  0.01391468  0.78706510  0.70158793  1
  O  O9  1  0.76098972  0.78017189  0.19566653  1
  O  O10  1  0.01619224  0.23205910  0.18729749  1
  O  O11  1  0.21394139  0.98436156  0.19145940  1
  O  O12  1  0.88962482  0.35016012  0.63863033  1
  O  O13  1  0.45811605  0.10736114  0.63324843  1
  O  O14  1  0.65608335  0.53282885  0.63634863  1
  O  O15  1  0.87556245  0.53485447  0.13763297  1
  O  O16  1  0.64598958  0.10312870  0.13320189  1
  O  O17  1  0.45598734  0.34944284  0.13524317  1
  O  O18  1  0.44092535  0.32440104  0.03233569  1
  O  O19  1  0.87456131  0.55880466  0.02329131  1
  O  O20  1  0.68054316  0.11248057  0.03106450  1
  O  O21  1  0.42783853  0.11383431  0.53055153  1
  O  O22  1  0.67686580  0.55661074  0.52203487  1
  O  O23  1  0.88168218  0.32131539  0.52445359  1
  O  O24  1  0.56001773  0.67660822  0.97472907  1
  O  O25  1  0.12457938  0.43848094  0.97145599  1
  O  O26  1  0.31508440  0.87896055  0.97971124  1
  O  O27  1  0.54481199  0.86690561  0.46943513  1
  O  O28  1  0.32051373  0.44734253  0.46437179  1
  O  O29  1  0.12194345  0.67959189  0.46763889  1
  O  O30  1  0.09956747  0.65316326  0.36479609  1
  O  O31  1  0.55013094  0.89738804  0.35503537  1
  O  O32  1  0.34538992  0.44503811  0.36161186  1
  O  O33  1  0.10860142  0.45271694  0.86868486  1
  O  O34  1  0.35363848  0.88774737  0.86578610  1
  O  O35  1  0.54543634  0.65693817  0.87155699  1
  O  O36  1  0.01363089  0.81928803  0.41522025  1
  O  O37  1  0.82296680  0.99115891  0.41771464  1
  O  O38  1  0.18464385  0.19597510  0.41464671  1
  O  O39  1  0.01498590  0.19501302  0.91688190  1
  O  O40  1  0.16285067  0.98623695  0.91627385  1
  O  O41  1  0.80302058  0.81841363  0.91976568  1
  O  O42  1  0.01363874  0.18534740  0.58253738  1
  O  O43  1  0.19346547  0.99412322  0.58848667  1
  O  O44  1  0.83315102  0.81944509  0.58188325  1
  O  O45  1  0.99287821  0.82410030  0.08285680  1
  O  O46  1  0.80839650  0.00205389  0.08760035  1
  O  O47  1  0.19754496  0.20103751  0.08540849  1
  O  O48  1  0.68391591  0.17000071  0.74962902  1
  O  O49  1  0.49301208  0.33246780  0.74760760  1
  O  O50  1  0.84223422  0.53252499  0.74955298  1
  O  O51  1  0.68064668  0.52899834  0.24630251  1
  O  O52  1  0.84387761  0.33407579  0.24922476  1
  O  O53  1  0.48987959  0.16824430  0.25004991  1
  O  O54  1  0.66545113  0.52949269  0.92217015  1
  O  O55  1  0.86619369  0.33477898  0.92226834  1
  O  O56  1  0.48738806  0.16221111  0.92014605  1
  O  O57  1  0.66127177  0.15817713  0.41507317  1
  O  O58  1  0.47309713  0.33547530  0.41908182  1
  O  O59  1  0.86028096  0.53054846  0.41978377  1
  O  O60  1  0.35316907  0.49077665  0.08086302  1
  O  O61  1  0.15168484  0.65421490  0.08491874  1
  O  O62  1  0.52166361  0.85604639  0.08040111  1
  O  O63  1  0.34747765  0.86182292  0.58042468  1
  O  O64  1  0.51184391  0.66793121  0.58299729  1
  O  O65  1  0.15982417  0.50600372  0.58232242  1
  O  O66  1  0.34101586  0.84610295  0.25013317  1
  O  O67  1  0.52848836  0.66297688  0.25475600  1
  O  O68  1  0.16487126  0.49020115  0.25039814  1
  O  O69  1  0.33230346  0.49207927  0.75142958  1
  O  O70  1  0.12886706  0.66038020  0.75563987  1
  O  O71  1  0.50385363  0.85332522  0.75161036  1
loop_
_geom_bond_atom_site_label_1
_geom_bond_atom_site_label_2
_geom_bond_distance
_geom_bond_site_symmetry_2
Na0 O31 2.414517 1_545
Na0 O53 2.463356 1_555
Na0 O66 2.590919 1_545
Na0 O52 2.612215 1_555
Na1 O53 2.612565 1_555
Na1 O32 2.681921 1_555
Na1 O67 2.824448 1_555
Na1 O68 2.830766 1_555
Na1 O51 2.899848 1_555
Na1 O0 2.911702 1_555
Na2 O52 2.387763 1_555
Na2 O68 2.487676 1_655
Na2 O15 2.601095 1_555
Na2 O51 2.754815 1_555
Na2 O66 2.955654 1_655
Na3 O14 2.346269 1_555
Na3 O49 2.439768 1_555
Na3 O69 2.479166 1_555
Na3 O50 2.734452 1_555
Na4 O12 2.355610 1_555
Na4 O48 2.554862 1_555
Na4 O70 2.805769 1_655
Na4 O50 2.884472 1_555
Na4 O69 2.992266 1_655
Na4 O7 2.992921 1_655
Na5 O48 2.430592 1_555
Na5 O71 2.478762 1_545
Na5 O49 2.531743 1_555
Na5 O13 2.845443 1_555
Na5 O34 2.992477 1_545
Na6 O65 2.454241 1_555
Na6 O42 2.494425 1_555
Na6 O7 2.623458 1_555
Na6 O64 2.644468 1_555
Na7 O65 2.618502 1_555
Na7 O44 2.763321 1_455
Na7 O43 2.780243 1_555
Na7 O63 2.884576 1_555
Na7 O8 2.912205 1_555
Na7 O12 2.920389 1_455
Na7 O29 3.025096 1_555
Na8 O64 2.370840 1_555
Na8 O44 2.504311 1_555
Na8 O63 2.763278 1_555
Na8 O27 2.767834 1_555
Na8 O42 2.989351 1_665
Na8 O6 3.020814 1_555
Na9 O61 2.365178 1_555
Na9 O45 2.440291 1_455
Na9 O26 2.496400 1_554
Na9 O11 2.787687 1_555
Na9 O62 2.800896 1_555
Na10 O45 2.560931 1_555
Na10 O46 2.598446 1_565
Na10 O62 2.753963 1_555
Na10 O24 2.760690 1_554
Na10 O9 2.797551 1_555
Na10 O60 2.851233 1_555
Na11 O10 2.332053 1_555
Na11 O61 2.478410 1_555
Na11 O60 2.763382 1_555
Na11 O47 2.789053 1_555
Na11 O15 2.871058 1_455
Na12 O40 2.407137 1_655
Na12 O41 2.645337 1_555
Na12 O19 2.749348 1_556
Na12 O54 2.795671 1_555
Na12 O4 2.816609 1_555
Na13 O5 2.194719 1_555
Na13 O55 2.708202 1_555
Na13 O34 2.795040 1_545
Na13 O56 2.822306 1_555
Na13 O39 2.899241 1_655
Na13 O41 2.900213 1_545
Na14 O3 2.213123 1_555
Na14 O56 2.366496 1_555
Na14 O40 2.403641 1_545
Na14 O39 2.718539 1_555
Na15 O37 2.338980 1_545
Na15 O57 2.443792 1_555
Na15 O23 2.701727 1_555
Na15 O38 2.708338 1_655
Na15 O2 2.916536 1_555
Na16 O0 2.571485 1_555
Na16 O58 2.577971 1_555
Na16 O57 2.667322 1_555
Na16 O38 2.747628 1_555
Na16 O36 2.858456 1_545
Na17 O22 2.350935 1_555
Na17 O37 2.498819 1_555
Na17 O36 2.723860 1_655
Na17 O27 2.793955 1_555
Na17 O59 2.813119 1_555
Na18 O44 2.361935 1_545
Na18 O42 2.387566 1_655
Na18 O37 2.454072 1_545
Na19 O40 2.294987 1_555
Na19 O45 2.473669 1_456
Na19 O41 2.586450 1_455
Na19 O39 2.819672 1_565
Na19 O47 2.906499 1_566
Na20 O49 2.253893 1_555
Na20 O48 2.283500 1_555
Na20 O50 2.584304 1_555
Na20 O56 2.846913 1_555
Na21 O53 2.382814 1_555
Na21 O52 2.414660 1_555
Na21 O57 2.448285 1_555
Na21 O51 2.895959 1_555
Na22 O68 2.385715 1_555
Na22 O66 2.388595 1_555
Na22 O61 2.444436 1_555
Na23 O64 2.346617 1_555
Na23 O65 2.412180 1_555
Na23 O69 2.643853 1_555
Na23 O63 2.734820 1_555
Na23 O71 2.841156 1_555
Ca0 O2 2.206534 1_455
Ca0 O0 2.285169 1_555
Ca0 O37 2.363350 1_445
Ca0 O1 2.385877 1_445
Ca0 O38 2.434078 1_555
Ca0 O36 2.449512 1_545
Ca1 O3 2.221598 1_555
Ca1 O5 2.238734 1_455
Ca1 O4 2.369195 1_445
Ca1 O40 2.390186 1_545
Ca1 O39 2.474159 1_555
Ca1 O41 2.616262 1_445
Ca2 O14 2.248285 1_555
Ca2 O12 2.256480 1_555
Ca2 O48 2.336499 1_555
Ca2 O49 2.368059 1_555
Ca2 O13 2.379894 1_555
Ca2 O50 2.463767 1_555
Ca3 O52 2.263816 1_555
Ca3 O15 2.263822 1_555
Ca3 O53 2.291540 1_555
Ca3 O51 2.382362 1_555
Ca3 O16 2.416363 1_555
Ca3 O17 2.452637 1_555
Ca4 O26 2.204219 1_554
Ca4 O61 2.295322 1_555
Ca4 O25 2.362901 1_554
Ca4 O62 2.400951 1_555
Ca4 O24 2.459915 1_554
Ca4 O60 2.463607 1_555
Ca5 O27 2.249640 1_555
Ca5 O64 2.280541 1_555
Ca5 O65 2.283019 1_555
Ca5 O63 2.378619 1_555
Ca5 O28 2.394855 1_555
Ca5 O29 2.454563 1_555
La0 O6 2.224626 1_545
La0 O7 2.275911 1_655
La0 O42 2.337386 1_655
La0 O44 2.410627 1_545
La0 O8 2.508991 1_645
La0 O43 2.531870 1_645
La1 O11 2.208143 1_545
La1 O10 2.287220 1_555
La1 O45 2.445889 1_445
La1 O9 2.461956 1_445
La1 O47 2.552724 1_555
La1 O46 2.568478 1_455
La2 O19 2.274606 1_556
La2 O56 2.316567 1_555
La2 O20 2.419335 1_556
La2 O18 2.422891 1_556
La2 O55 2.443865 1_555
La2 O54 2.456732 1_555
La3 O23 2.213488 1_555
La3 O22 2.278128 1_555
La3 O57 2.429457 1_555
La3 O21 2.440533 1_555
La3 O59 2.528182 1_555
La3 O58 2.589563 1_555
La4 O31 2.265670 1_555
La4 O66 2.297239 1_555
La4 O68 2.387925 1_555
La4 O30 2.423045 1_555
La4 O67 2.486031 1_555
La4 O32 2.500533 1_555
La5 O71 2.244155 1_555
La5 O34 2.311668 1_555
La5 O69 2.315429 1_555
La5 O70 2.430867 1_555
La5 O35 2.458809 1_555
La5 O33 2.541115 1_555
O0 Si0 1.637137 1_555
O1 S0 1.476784 1_555
O2 Si1 1.629514 1_655
O3 Si2 1.640850 1_555
O4 S1 1.489004 1_555
O5 Si3 1.639414 1_555
O6 Si3 1.643553 1_565
O7 Si2 1.649279 1_555
O8 S1 1.488237 1_455
O9 S0 1.504047 1_555
O10 Si1 1.672179 1_555
O11 Si0 1.666458 1_565
O12 Si4 1.635680 1_555
O13 S2 1.482768 1_555
O14 Si5 1.629554 1_555
O15 Si6 1.635128 1_555
O16 S3 1.479770 1_555
O17 S4 1.479742 1_555
O18 S4 1.497613 1_555
O19 Si6 1.668117 1_555
O20 S3 1.495753 1_555
O21 S2 1.499085 1_555
O22 Si5 1.667086 1_555
O23 Si4 1.666844 1_555
O24 S5 1.489509 1_555
O25 S6 1.485758 1_555
O26 Si7 1.642942 1_555
O27 Si8 1.632281 1_555
O28 S7 1.478837 1_555
O29 S8 1.479233 1_555
O30 S8 1.500760 1_555
O31 Si8 1.666537 1_555
O32 S7 1.499921 1_555
O33 S6 1.483474 1_555
O34 Si7 1.648239 1_555
O35 S5 1.482901 1_555
O36 S8 1.489709 1_555
O37 Si8 1.657783 1_555
O38 S7 1.490880 1_555
O39 S6 1.485568 1_555
O40 Si7 1.653470 1_555
O41 S5 1.491237 1_555
O42 Si4 1.659392 1_455
O43 S2 1.486041 1_565
O44 Si5 1.663851 1_555
O45 Si6 1.679495 1_555
O46 S3 1.496511 1_555
O47 S4 1.498939 1_555
O48 Si3 1.641141 1_555
O49 Si2 1.640117 1_555
O50 S1 1.483305 1_555
O51 S0 1.484398 1_555
O52 Si1 1.646149 1_655
O53 Si0 1.644371 1_555
O54 S5 1.501709 1_555
O55 S6 1.510965 1_655
O56 Si7 1.687240 1_545
O57 Si8 1.680069 1_545
O58 S7 1.498329 1_555
O59 S8 1.496260 1_655
O60 S4 1.490672 1_555
O61 Si6 1.661712 1_455
O62 S3 1.490802 1_565
O63 S2 1.487374 1_565
O64 Si5 1.646886 1_555
O65 Si4 1.643014 1_455
O66 Si0 1.664538 1_565
O67 S0 1.492851 1_555
O68 Si1 1.671677 1_555
O69 Si2 1.669818 1_555
O70 S1 1.495478 1_455
O71 Si3 1.666074 1_565
