# generated using pymatgen
data_NaTaTi3Si3(SO8)3
_symmetry_space_group_name_H-M   'P 1'
_cell_length_a   8.75133734
_cell_length_b   8.73049142
_cell_length_c   22.62344987
_cell_angle_alpha   89.45422811
_cell_angle_beta   90.80382402
_cell_angle_gamma   119.79624225
_symmetry_Int_Tables_number   1
_chemical_formula_structural   NaTaTi3Si3(SO8)3
_chemical_formula_sum   'Na3 Ta3 Ti9 Si9 S9 O72'
_cell_volume   1499.84366014
_cell_formula_units_Z   3
loop_
 _symmetry_equiv_pos_site_id
 _symmetry_equiv_pos_as_xyz
  1  'x, y, z'
loop_
 _atom_site_type_symbol
 _atom_site_label
 _atom_site_symmetry_multiplicity
 _atom_site_fract_x
 _atom_site_fract_y
 _atom_site_fract_z
 _atom_site_occupancy
  Na  Na0  1  0.00510363  0.99654498  0.99370461  1
  Na  Na1  1  0.66295990  0.32535733  0.83172588  1
  Na  Na2  1  0.67451793  0.33533603  0.33397302  1
  Ta  Ta0  1  0.99817390  -0.00045382  0.64498505  1
  Ta  Ta1  1  0.00981248  0.01086531  0.14281927  1
  Ta  Ta2  1  0.33104489  0.67606725  0.52610203  1
  Ti  Ti0  1  0.99093475  0.00066239  0.35811002  1
  Ti  Ti1  1  0.01700893  0.01639867  0.85126145  1
  Ti  Ti2  1  0.63798901  0.31702661  0.69096985  1
  Ti  Ti3  1  0.68255195  0.34924935  0.18345085  1
  Ti  Ti4  1  0.64810217  0.33522936  0.97801650  1
  Ti  Ti5  1  0.66835349  0.34897336  0.48333878  1
  Ti  Ti6  1  0.31348704  0.66329188  0.02314380  1
  Ti  Ti7  1  0.30638382  0.65274108  0.31057626  1
  Ti  Ti8  1  0.35061248  0.68741181  0.80685839  1
  Si  Si0  1  0.99109627  0.28394663  0.25134919  1
  Si  Si1  1  0.28718308  0.29694546  0.75051575  1
  Si  Si2  1  0.71975208  0.00852300  0.75090085  1
  Si  Si3  1  0.38208040  0.05814732  0.58274423  1
  Si  Si4  1  0.66843529  0.61814539  0.58581654  1
  Si  Si5  1  0.95017463  0.61792882  0.08034457  1
  Si  Si6  1  0.38890186  0.34573322  0.08301644  1
  Si  Si7  1  0.33195872  0.95298681  0.91597813  1
  Si  Si8  1  0.03587534  0.66190695  0.41588028  1
  S  S0  1  0.28918203  0.00209649  0.25218151  1
  S  S1  1  0.71000413  0.71336041  0.25146474  1
  S  S2  1  0.99889196  0.71056546  0.75148823  1
  S  S3  1  0.95109415  0.33322154  0.58345790  1
  S  S4  1  0.66241697  0.04539840  0.08308433  1
  S  S5  1  0.62134861  0.67068828  0.91706944  1
  S  S6  1  0.04316182  0.37944483  0.91644088  1
  S  S7  1  0.61790085  0.95282383  0.41511842  1
  S  S8  1  0.33265139  0.37854847  0.41524376  1
  O  O0  1  0.20326570  0.02765000  0.30355803  1
  O  O1  1  0.82534122  0.79401666  0.30444567  1
  O  O2  1  0.97197647  0.15970943  0.30847042  1
  O  O3  1  0.19937104  0.16352095  0.80788332  1
  O  O4  1  0.96967661  0.79331556  0.80365152  1
  O  O5  1  0.84017370  0.02681761  0.80917239  1
  O  O6  1  0.80553954  0.97140980  0.69255548  1
  O  O7  1  0.16596821  0.19655595  0.69285248  1
  O  O8  1  0.02960659  0.82247848  0.69687947  1
  O  O9  1  0.79455577  0.82087333  0.19776140  1
  O  O10  1  0.02415050  0.19009012  0.19413345  1
  O  O11  1  0.17589522  0.96847675  0.19729726  1
  O  O12  1  0.88198830  0.36943802  0.63604553  1
  O  O13  1  0.50584382  0.13500859  0.64108048  1
  O  O14  1  0.63924440  0.49283271  0.64156359  1
  O  O15  1  0.86497060  0.49878112  0.14099499  1
  O  O16  1  0.64019728  0.12640004  0.13724504  1
  O  O17  1  0.50378645  0.35771382  0.14209953  1
  O  O18  1  0.46843896  0.29575027  0.02591163  1
  O  O19  1  0.82491208  0.52236301  0.02428385  1
  O  O20  1  0.70316193  0.15736744  0.03038399  1
  O  O21  1  0.48016611  0.17254609  0.52377458  1
  O  O22  1  0.70167408  0.53119129  0.52552866  1
  O  O23  1  0.84512376  0.30547714  0.52893067  1
  O  O24  1  0.54004161  0.69152032  0.97032800  1
  O  O25  1  0.15341020  0.45710467  0.97110139  1
  O  O26  1  0.30993870  0.83064711  0.97462076  1
  O  O27  1  0.54024618  0.84195875  0.46930292  1
  O  O28  1  0.30484586  0.45772806  0.46832202  1
  O  O29  1  0.16701851  0.69246293  0.47202785  1
  O  O30  1  0.14065934  0.63789395  0.35868715  1
  O  O31  1  0.51011965  0.86833104  0.36224127  1
  O  O32  1  0.36356697  0.49159365  0.36219023  1
  O  O33  1  0.12372425  0.48525355  0.86389007  1
  O  O34  1  0.35867000  0.85577398  0.85918216  1
  O  O35  1  0.51247706  0.63663412  0.86308737  1
  O  O36  1  0.02303504  0.83872571  0.40128967  1
  O  O37  1  0.79509511  0.96716974  0.40881424  1
  O  O38  1  0.17481986  0.20139989  0.40723603  1
  O  O39  1  0.02585770  0.19921951  0.91242400  1
  O  O40  1  0.15547505  0.97250036  0.90987174  1
  O  O41  1  0.79999163  0.82437985  0.91133648  1
  O  O42  1  0.97337875  0.17651133  0.58896002  1
  O  O43  1  0.18754718  0.02754710  0.59278020  1
  O  O44  1  0.83687885  0.81277471  0.59276488  1
  O  O45  1  0.96918146  0.81154162  0.09413226  1
  O  O46  1  0.82570012  0.02470891  0.09219831  1
  O  O47  1  0.19038083  0.16573117  0.09236739  1
  O  O48  1  0.70432325  0.18501293  0.74287112  1
  O  O49  1  0.48093959  0.31227586  0.74504408  1
  O  O50  1  0.84305381  0.53616051  0.74356427  1
  O  O51  1  0.69263305  0.53479541  0.24523520  1
  O  O52  1  0.81827431  0.30567124  0.24387771  1
  O  O53  1  0.46320386  0.15774656  0.24425534  1
  O  O54  1  0.63983381  0.50635823  0.92233121  1
  O  O55  1  0.86558025  0.35829066  0.92400043  1
  O  O56  1  0.50998354  0.14873271  0.92539631  1
  O  O57  1  0.64077168  0.12984320  0.42202807  1
  O  O58  1  0.49050442  0.35733413  0.42092613  1
  O  O59  1  0.84479613  0.48571892  0.42247562  1
  O  O60  1  0.36454006  0.51186538  0.07008228  1
  O  O61  1  0.14469527  0.64183764  0.07367324  1
  O  O62  1  0.51269190  0.86871949  0.07638887  1
  O  O63  1  0.36173837  0.86053925  0.57278541  1
  O  O64  1  0.49401125  0.63324532  0.56887337  1
  O  O65  1  0.13312336  0.48878992  0.57307446  1
  O  O66  1  0.30784420  0.84277587  0.25894808  1
  O  O67  1  0.53742388  0.69791429  0.25980448  1
  O  O68  1  0.17117438  0.47621267  0.26137556  1
  O  O69  1  0.30293374  0.48357800  0.76502798  1
  O  O70  1  0.15770203  0.69497828  0.75799086  1
  O  O71  1  0.52532369  0.83426045  0.75984513  1
loop_
_geom_bond_atom_site_label_1
_geom_bond_atom_site_label_2
_geom_bond_distance
_geom_bond_site_symmetry_2
Na0 O40 2.392697 1_555
Na0 O39 2.484610 1_565
Na0 O41 2.496369 1_455
Na0 O45 2.704659 1_456
Na0 O47 2.715524 1_566
Na0 O46 2.825395 1_466
Na1 O49 2.476276 1_555
Na1 O48 2.486238 1_555
Na1 O56 2.574211 1_555
Na1 O50 2.642869 1_555
Na1 O55 2.643053 1_555
Na1 O54 2.670387 1_555
Na2 O59 2.444431 1_555
Na2 O52 2.492015 1_555
Na2 O57 2.587702 1_555
Na2 O51 2.599188 1_555
Na2 O58 2.627433 1_555
Na2 O53 2.654920 1_555
O0 S0 1.470456 1_555
O0 Ti0 2.157585 1_455
O1 S1 1.492340 1_555
O1 Ti0 2.054973 1_565
O2 Si0 1.635068 1_555
O2 Ti0 1.846839 1_555
O3 Si1 1.655721 1_555
O3 Ti1 1.772716 1_555
O4 S2 1.479273 1_555
O4 Ti1 2.085819 1_665
O5 Si2 1.634558 1_555
O5 Ti1 1.845741 1_655
O6 Si2 1.639713 1_565
O6 Ta0 1.922193 1_565
O7 Si1 1.629181 1_555
O7 Ta0 1.941168 1_455
O8 S2 1.509474 1_455
O8 Ta0 2.054937 1_465
O9 S1 1.489267 1_555
O9 Ta1 2.183121 1_665
O10 Si0 1.642228 1_455
O10 Ta1 1.909761 1_555
O11 S0 1.514595 1_565
O11 Ta1 2.060117 1_565
O12 S3 1.448632 1_555
O12 Ti2 2.324980 1_555
O13 Si3 1.618524 1_555
O13 Ti2 1.818704 1_555
O14 Si4 1.599307 1_555
O14 Ti2 1.885790 1_555
O15 Si5 1.658742 1_555
O15 Ti3 1.767276 1_555
O16 S4 1.482951 1_555
O16 Ti3 2.080043 1_555
O17 Si6 1.633668 1_555
O17 Ti3 1.844077 1_555
O18 Si6 1.637615 1_555
O18 Ti4 1.807511 1_554
O19 Si5 1.605781 1_555
O19 Ti4 1.906253 1_554
O20 S4 1.465448 1_555
O20 Ti4 2.177055 1_554
O21 Si3 1.633667 1_555
O21 Ti5 1.848239 1_555
O22 Si4 1.664789 1_555
O22 Ti5 1.756975 1_555
O23 S3 1.480139 1_555
O23 Ti5 2.032934 1_555
O24 S5 1.465600 1_555
O24 Ti6 2.234869 1_556
O25 S6 1.500717 1_555
O25 Ti6 2.019161 1_556
O26 Si7 1.647329 1_555
O26 Ti6 1.831505 1_556
O27 S7 1.499471 1_555
O27 Ta2 2.120367 1_555
O28 S8 1.473165 1_555
O28 Ta2 2.235986 1_555
O29 Si8 1.631915 1_555
O29 Ta2 1.931108 1_555
O30 Si8 1.669895 1_555
O30 Ti7 1.777544 1_555
O31 S7 1.469194 1_555
O31 Ti7 2.176251 1_555
O32 S8 1.486281 1_555
O32 Ti7 2.060411 1_555
O33 S6 1.455738 1_555
O33 Ti8 2.295204 1_555
O34 Si7 1.628606 1_555
O34 Ti8 1.869380 1_555
O35 S5 1.476615 1_555
O35 Ti8 2.093825 1_555
O36 Si8 1.632878 1_555
O36 Ti0 1.841926 1_465
O37 S7 1.501167 1_555
O37 Ti0 1.972151 1_565
O38 S8 1.485888 1_555
O38 Ti0 2.019978 1_455
O39 S6 1.507476 1_555
O39 Ti1 2.093910 1_555
O40 Si7 1.639681 1_555
O40 Ti1 1.944281 1_565
O41 S5 1.476126 1_555
O41 Ti1 2.264792 1_665
O42 S3 1.478725 1_555
O42 Ta0 2.080565 1_555
O43 Si3 1.605883 1_555
O43 Ta0 1.961624 1_455
O44 Si4 1.610661 1_555
O44 Ta0 1.936356 1_565
O45 Si5 1.646620 1_555
O45 Ta1 1.943839 1_665
O46 S4 1.537716 1_555
O46 Ta1 2.015273 1_655
O47 Si6 1.680262 1_555
O47 Ta1 1.877700 1_555
O48 Si2 1.620548 1_555
O48 Ti2 1.914184 1_555
O49 Si1 1.639640 1_555
O49 Ti2 1.837608 1_555
O50 S2 1.464609 1_555
O50 Ti2 2.206304 1_555
O51 S1 1.497124 1_555
O51 Ti3 2.117382 1_555
O52 Si0 1.621503 1_555
O52 Ti3 1.953972 1_555
O53 S0 1.464357 1_555
O53 Ti3 2.283219 1_555
O54 S5 1.524964 1_555
O54 Ti4 1.973194 1_555
O55 S6 1.483280 1_655
O55 Ti4 2.199068 1_555
O56 Si7 1.656720 1_545
O56 Ti4 1.889412 1_555
O57 S7 1.466038 1_545
O57 Ti5 2.285700 1_555
O58 S8 1.485936 1_555
O58 Ti5 2.114417 1_555
O59 Si8 1.622003 1_655
O59 Ti5 1.975291 1_555
O60 Si6 1.591309 1_555
O60 Ti6 1.903151 1_555
O61 Si5 1.617929 1_455
O61 Ti6 1.814438 1_555
O62 S4 1.452352 1_565
O62 Ti6 2.140481 1_555
O63 Si3 1.661286 1_565
O63 Ta2 1.837362 1_555
O64 Si4 1.636138 1_555
O64 Ta2 1.895875 1_555
O65 S3 1.513827 1_455
O65 Ta2 2.001674 1_555
O66 S0 1.485211 1_565
O66 Ti7 2.014804 1_555
O67 S1 1.462843 1_555
O67 Ti7 2.197056 1_555
O68 Si0 1.649495 1_455
O68 Ti7 1.788202 1_555
O69 Si1 1.602319 1_555
O69 Ti8 1.876058 1_555
O70 S2 1.467498 1_455
O70 Ti8 2.033172 1_555
O71 Si2 1.637624 1_565
O71 Ti8 1.784421 1_555
