# generated using pymatgen
data_Na3LaIn(PO4)3
_symmetry_space_group_name_H-M   'P 1'
_cell_length_a   16.33032626
_cell_length_b   9.34713316
_cell_length_c   9.39198486
_cell_angle_alpha   90.17700603
_cell_angle_beta   125.23893525
_cell_angle_gamma   89.73153661
_symmetry_Int_Tables_number   1
_chemical_formula_structural   Na3LaIn(PO4)3
_chemical_formula_sum   'Na12 La4 In4 P12 O48'
_cell_volume   1170.89134334
_cell_formula_units_Z   4
loop_
 _symmetry_equiv_pos_site_id
 _symmetry_equiv_pos_as_xyz
  1  'x, y, z'
loop_
 _atom_site_type_symbol
 _atom_site_label
 _atom_site_symmetry_multiplicity
 _atom_site_fract_x
 _atom_site_fract_y
 _atom_site_fract_z
 _atom_site_occupancy
  Na  Na0  1  0.24130298  0.77142354  0.99622390  1
  Na  Na1  1  0.75150637  0.72996194  0.51300215  1
  Na  Na2  1  0.75069892  0.26660057  0.01393993  1
  Na  Na3  1  0.24117080  0.23011718  0.49831697  1
  Na  Na4  1  0.50496664  0.09512607  0.76006172  1
  Na  Na5  1  0.49946232  0.91758810  0.23063752  1
  Na  Na6  1  0.00609639  0.59239086  0.75279331  1
  Na  Na7  1  0.99891348  0.39490162  0.23540611  1
  Na  Na8  1  0.81681427  0.92834960  0.20073170  1
  Na  Na9  1  0.81517341  0.07739539  0.70489717  1
  Na  Na10  1  0.30360236  0.42610064  0.18214256  1
  Na  Na11  1  0.31253503  0.56428979  0.71327976  1
  La  La0  1  0.10537986  0.76482476  0.55146534  1
  La  La1  1  0.60130226  0.26569370  0.55234059  1
  La  La2  1  0.39814937  0.74877471  0.44441673  1
  La  La3  1  0.60613800  0.73466448  0.05332693  1
  In  In0  1  0.90075484  0.75044914  0.94733119  1
  In  In1  1  0.90213183  0.24829556  0.44870618  1
  In  In2  1  0.10142170  0.24232982  0.04878053  1
  In  In3  1  0.39938576  0.25174768  0.94652000  1
  P  P0  1  0.99464389  0.95145817  0.75134981  1
  P  P1  1  0.99254921  0.06140138  0.23455485  1
  P  P2  1  0.48800902  0.42807509  0.74577404  1
  P  P3  1  0.48622459  0.55963801  0.22729007  1
  P  P4  1  0.35708753  0.91060768  0.77598211  1
  P  P5  1  0.66439778  0.89929155  0.75446921  1
  P  P6  1  0.65854362  0.10645242  0.24916102  1
  P  P7  1  0.34844737  0.10338590  0.24716637  1
  P  P8  1  0.86249855  0.40539044  0.75995810  1
  P  P9  1  0.15131719  0.39171089  0.75011493  1
  P  P10  1  0.14957491  0.59036734  0.23769713  1
  P  P11  1  0.86040992  0.59135092  0.26108327  1
  O  O0  1  0.15866365  0.55910749  0.74994862  1
  O  O1  1  0.85366348  0.57232788  0.75371977  1
  O  O2  1  0.85098613  0.42513445  0.25059049  1
  O  O3  1  0.15404343  0.42256814  0.23843589  1
  O  O4  1  0.67461203  0.06536400  0.75629975  1
  O  O5  1  0.34376874  0.07552129  0.75612058  1
  O  O6  1  0.33812633  0.93830801  0.22736508  1
  O  O7  1  0.66720847  0.93967509  0.25029027  1
  O  O8  1  0.43287514  0.51911632  0.57680251  1
  O  O9  1  0.54114071  0.52749299  0.90449144  1
  O  O10  1  0.53358734  0.46684322  0.39268827  1
  O  O11  1  0.43507469  0.46347420  0.06269012  1
  O  O12  1  0.93179703  0.04144548  0.57995583  1
  O  O13  1  0.05195732  0.04837523  0.91328402  1
  O  O14  1  0.05703590  0.97243926  0.40172792  1
  O  O15  1  0.92693010  0.96136040  0.07420677  1
  O  O16  1  0.27329942  0.83284210  0.77501700  1
  O  O17  1  0.74803485  0.82800763  0.74779047  1
  O  O18  1  0.74636569  0.17054185  0.24891444  1
  O  O19  1  0.25922895  0.17608163  0.23740611  1
  O  O20  1  0.77403471  0.33462573  0.75242899  1
  O  O21  1  0.24140380  0.33092490  0.75449400  1
  O  O22  1  0.23407973  0.64838579  0.22482446  1
  O  O23  1  0.77417374  0.66513184  0.25836843  1
  O  O24  1  0.35853721  0.85605773  0.62057501  1
  O  O25  1  0.67279092  0.86016827  0.92289030  1
  O  O26  1  0.66644467  0.14527349  0.41783437  1
  O  O27  1  0.35856307  0.16148587  0.10316621  1
  O  O28  1  0.86327650  0.36003650  0.60160965  1
  O  O29  1  0.15547034  0.35683815  0.91686819  1
  O  O30  1  0.16799117  0.63120181  0.41493332  1
  O  O31  1  0.86133389  0.64146401  0.10397781  1
  O  O32  1  0.45866988  0.87347043  0.94743126  1
  O  O33  1  0.56055377  0.85205885  0.59189691  1
  O  O34  1  0.55589446  0.15789472  0.08464423  1
  O  O35  1  0.44603205  0.13986558  0.42831260  1
  O  O36  1  0.96093955  0.35741724  0.93225323  1
  O  O37  1  0.05217721  0.33772313  0.58290730  1
  O  O38  1  0.04748271  0.64891972  0.08167063  1
  O  O39  1  0.95887138  0.63487970  0.43424882  1
  O  O40  1  0.06850184  0.84541967  0.75247258  1
  O  O41  1  0.91553410  0.85865671  0.75421275  1
  O  O42  1  0.91557048  0.15356434  0.24563986  1
  O  O43  1  0.06325543  0.16530925  0.22464160  1
  O  O44  1  0.56628202  0.32146271  0.76192085  1
  O  O45  1  0.40397503  0.34132399  0.73823190  1
  O  O46  1  0.40104555  0.65236460  0.20894300  1
  O  O47  1  0.56810522  0.66189366  0.25193522  1
loop_
_geom_bond_atom_site_label_1
_geom_bond_atom_site_label_2
_geom_bond_distance
_geom_bond_site_symmetry_2
Na0 O6 2.384784 1_556
Na0 O46 2.450977 1_556
Na0 O16 2.486320 1_555
Na0 O40 2.493796 1_555
Na0 O22 2.500995 1_556
Na0 O0 2.739400 1_555
Na1 O1 2.389675 1_555
Na1 O17 2.415981 1_555
Na1 O41 2.600967 1_555
Na1 O47 2.630736 1_555
Na1 O23 2.689626 1_555
Na1 O7 2.812556 1_555
Na2 O2 2.370632 1_555
Na2 O18 2.423745 1_555
Na2 O42 2.515411 1_555
Na2 O44 2.588874 1_554
Na2 O4 2.731558 1_554
Na2 O20 2.770196 1_554
Na3 O5 2.464838 1_555
Na3 O45 2.514854 1_555
Na3 O21 2.579191 1_555
Na3 O43 2.608480 1_555
Na3 O19 2.678009 1_555
Na3 O3 2.685783 1_555
Na4 O44 2.340537 1_555
Na4 O5 2.618509 1_555
Na4 O35 2.711659 1_555
Na4 O34 2.719728 1_556
Na4 O45 2.763125 1_555
Na4 O4 2.803432 1_555
Na4 O24 2.974005 1_545
Na5 O32 2.374827 1_554
Na5 O47 2.593803 1_555
Na5 O6 2.623308 1_555
Na5 O7 2.646188 1_555
Na6 O1 2.502226 1_455
Na6 O0 2.524765 1_555
Na6 O40 2.580391 1_555
Na6 O39 2.654260 1_455
Na6 O38 2.803741 1_556
Na6 O41 2.893034 1_455
Na6 O28 2.894740 1_455
Na6 O29 2.967406 1_555
Na7 O43 2.412427 1_655
Na7 O2 2.515297 1_555
Na7 O3 2.531465 1_655
Na7 O36 2.563647 1_554
Na7 O42 2.670461 1_555
Na7 O37 2.902517 1_655
Na7 O31 2.941359 1_555
Na8 O25 2.380885 1_554
Na8 O42 2.540009 1_565
Na8 O15 2.685944 1_555
Na8 O18 2.687594 1_565
Na8 O23 2.700075 1_555
Na8 O7 2.739738 1_555
Na9 O26 2.451549 1_555
Na9 O41 2.485833 1_545
Na9 O20 2.599213 1_555
Na9 O4 2.606949 1_555
Na9 O17 2.708812 1_545
Na9 O12 2.772639 1_555
Na10 O29 2.351175 1_554
Na10 O22 2.502911 1_555
Na10 O46 2.575742 1_555
Na10 O19 2.590996 1_555
Na10 O3 2.781483 1_555
Na10 O27 2.865222 1_555
Na10 O11 2.962981 1_555
Na11 O30 2.485741 1_555
Na11 O45 2.489612 1_555
Na11 O21 2.608641 1_555
Na11 O0 2.726690 1_555
Na11 O16 2.729922 1_555
Na11 O11 2.843421 1_556
Na11 O8 2.928988 1_555
La0 O14 2.255717 1_555
La0 O39 2.321842 1_455
La0 O16 2.386665 1_555
La0 O30 2.396007 1_555
La0 O40 2.406894 1_555
La0 O0 2.462571 1_555
La1 O10 2.256266 1_555
La1 O26 2.350589 1_555
La1 O44 2.400664 1_555
La1 O35 2.404283 1_555
La1 O20 2.407465 1_555
La1 O4 2.442074 1_555
La2 O24 2.319491 1_555
La2 O33 2.379265 1_555
La2 O8 2.380559 1_555
La2 O46 2.411086 1_555
La2 O22 2.438783 1_555
La2 O6 2.440326 1_555
La3 O9 2.262934 1_554
La3 O23 2.356657 1_555
La3 O25 2.370924 1_554
La3 O47 2.382557 1_555
La3 O32 2.384687 1_554
La3 O7 2.440444 1_555
In0 O31 2.173709 1_556
In0 O38 2.175151 1_656
In0 O17 2.203519 1_555
In0 O41 2.211281 1_555
In0 O15 2.212405 1_556
In0 O1 2.247113 1_555
In1 O28 2.142857 1_555
In1 O37 2.177166 1_655
In1 O12 2.193012 1_555
In1 O42 2.222689 1_555
In1 O18 2.240655 1_555
In1 O2 2.259352 1_555
In2 O13 2.090901 1_554
In2 O36 2.169050 1_454
In2 O29 2.176805 1_554
In2 O43 2.198707 1_555
In2 O19 2.210546 1_555
In2 O3 2.231185 1_555
In3 O27 2.113163 1_556
In3 O11 2.170334 1_556
In3 O45 2.171041 1_555
In3 O5 2.203989 1_555
In3 O21 2.253285 1_555
In3 O34 2.268190 1_556
O0 P9 1.569906 1_555
O1 P8 1.564530 1_555
O2 P11 1.559169 1_555
O3 P10 1.569647 1_555
O4 P5 1.560997 1_545
O5 P4 1.552433 1_545
O6 P7 1.551886 1_565
O7 P6 1.564153 1_565
O8 P2 1.551003 1_555
O9 P2 1.531317 1_555
O10 P3 1.542466 1_555
O11 P3 1.550436 1_555
O12 P0 1.563920 1_545
O13 P0 1.538350 1_445
O14 P1 1.535402 1_465
O15 P1 1.558559 1_565
O16 P4 1.547780 1_555
O17 P5 1.550302 1_555
O18 P6 1.558071 1_555
O19 P7 1.558799 1_555
O20 P8 1.555727 1_555
O21 P9 1.552826 1_555
O22 P10 1.553395 1_555
O23 P11 1.552107 1_555
O24 P4 1.557589 1_555
O25 P5 1.551627 1_555
O26 P6 1.555298 1_555
O27 P7 1.553872 1_555
O28 P8 1.552262 1_555
O29 P9 1.563339 1_555
O30 P10 1.557714 1_555
O31 P11 1.557839 1_555
O32 P4 1.542990 1_555
O33 P5 1.554639 1_555
O34 P6 1.561006 1_555
O35 P7 1.556642 1_555
O36 P8 1.549107 1_555
O37 P9 1.552666 1_555
O38 P10 1.550353 1_555
O39 P11 1.542830 1_555
O40 P0 1.552876 1_455
O41 P0 1.572533 1_555
O42 P1 1.572751 1_555
O43 P1 1.555742 1_455
O44 P2 1.554095 1_555
O45 P2 1.563217 1_555
O46 P3 1.558468 1_555
O47 P3 1.551938 1_555
