# generated using pymatgen
data_Na6YTa3(SiO4)6
_symmetry_space_group_name_H-M   'P 1'
_cell_length_a   9.16031545
_cell_length_b   9.15868862
_cell_length_c   22.47431235
_cell_angle_alpha   90.01150419
_cell_angle_beta   90.03359691
_cell_angle_gamma   119.90588447
_symmetry_Int_Tables_number   1
_chemical_formula_structural   Na6YTa3(SiO4)6
_chemical_formula_sum   'Na18 Y3 Ta9 Si18 O72'
_cell_volume   1634.45027975
_cell_formula_units_Z   3
loop_
 _symmetry_equiv_pos_site_id
 _symmetry_equiv_pos_as_xyz
  1  'x, y, z'
loop_
 _atom_site_type_symbol
 _atom_site_label
 _atom_site_symmetry_multiplicity
 _atom_site_fract_x
 _atom_site_fract_y
 _atom_site_fract_z
 _atom_site_occupancy
  Na  Na0  1  0.00983401  0.00081925  0.50215598  1
  Na  Na1  1  0.98693611  0.98796936  0.99751516  1
  Na  Na2  1  0.66659350  0.33212381  0.83493441  1
  Na  Na3  1  0.66661935  0.33269682  0.32461861  1
  Na  Na4  1  0.34983594  0.66689096  0.16125978  1
  Na  Na5  1  0.31787796  0.65107711  0.66474952  1
  Na  Na6  1  0.64430225  0.01655641  0.24428451  1
  Na  Na7  1  0.37042919  0.35536859  0.24401366  1
  Na  Na8  1  0.98579387  0.62785100  0.24396099  1
  Na  Na9  1  0.63053850  0.62169966  0.74697743  1
  Na  Na10  1  0.98818251  0.36733313  0.74742051  1
  Na  Na11  1  0.38101609  0.01021822  0.74792730  1
  Na  Na12  1  0.66271362  0.97213854  0.58676275  1
  Na  Na13  1  0.31229062  0.97519459  0.08124050  1
  Na  Na14  1  0.02508574  0.34013494  0.08143497  1
  Na  Na15  1  0.96411047  0.28795610  0.41332804  1
  Na  Na16  1  0.32469481  0.03458260  0.41336986  1
  Na  Na17  1  0.71117194  0.67720363  0.41402758  1
  Y  Y0  1  0.99985089  0.00003372  0.35333171  1
  Y  Y1  1  0.66765997  0.33617361  0.68430740  1
  Y  Y2  1  0.66500330  0.33526900  0.17497427  1
  Ta  Ta0  1  0.00033607  0.00060064  0.85874174  1
  Ta  Ta1  1  0.00325776  0.99957006  0.64454163  1
  Ta  Ta2  1  0.99759199  0.99736604  0.14600584  1
  Ta  Ta3  1  0.66737291  0.33453306  0.97860675  1
  Ta  Ta4  1  0.66632242  0.33460216  0.48315220  1
  Ta  Ta5  1  0.33599928  0.66653026  0.01479056  1
  Ta  Ta6  1  0.33049535  0.66325513  0.52208430  1
  Ta  Ta7  1  0.33290641  0.66650798  0.31115033  1
  Ta  Ta8  1  0.33392019  0.66685344  0.81387091  1
  Si  Si0  1  0.29644107  0.99684596  0.25113187  1
  Si  Si1  1  0.70118390  0.70533353  0.25215506  1
  Si  Si2  1  0.00413693  0.29966925  0.25077829  1
  Si  Si3  1  0.27960003  0.28851088  0.75225570  1
  Si  Si4  1  0.00798950  0.71903566  0.75276603  1
  Si  Si5  1  0.71075668  0.99174771  0.75140121  1
  Si  Si6  1  0.96696949  0.33265212  0.58558298  1
  Si  Si7  1  0.36626420  0.03529139  0.58433382  1
  Si  Si8  1  0.66879101  0.63416608  0.58526449  1
  Si  Si9  1  0.96735021  0.63433009  0.08158653  1
  Si  Si10  1  0.66542098  0.03054844  0.08203571  1
  Si  Si11  1  0.36583013  0.33548590  0.08276929  1
  Si  Si12  1  0.62577328  0.66244065  0.91471279  1
  Si  Si13  1  0.03637169  0.37477539  0.91555765  1
  Si  Si14  1  0.33709204  0.96267387  0.91589370  1
  Si  Si15  1  0.61605595  0.96104009  0.41858533  1
  Si  Si16  1  0.34594942  0.38438344  0.41735452  1
  Si  Si17  1  0.03951546  0.65540904  0.41767058  1
  O  O0  1  0.22397342  0.02577177  0.31267938  1
  O  O1  1  0.79917967  0.77324772  0.31449595  1
  O  O2  1  0.97403065  0.19800560  0.31234437  1
  O  O3  1  0.17962888  0.17228450  0.80962035  1
  O  O4  1  0.99370494  0.82041304  0.81000852  1
  O  O5  1  0.82977586  0.00636671  0.80791328  1
  O  O6  1  0.80067104  0.96984890  0.69030371  1
  O  O7  1  0.16059124  0.19218775  0.69323052  1
  O  O8  1  0.02761238  0.83687118  0.69366080  1
  O  O9  1  0.81434205  0.83690748  0.19689458  1
  O  O10  1  0.02485911  0.19344958  0.19354815  1
  O  O11  1  0.17031078  0.97780589  0.19383354  1
  O  O12  1  0.90171645  0.36624083  0.64727012  1
  O  O13  1  0.47945809  0.09793055  0.64361856  1
  O  O14  1  0.63226680  0.53482933  0.64685002  1
  O  O15  1  0.91397093  0.52880110  0.14294682  1
  O  O16  1  0.61637942  0.08605645  0.14371359  1
  O  O17  1  0.45532205  0.36952420  0.14678703  1
  O  O18  1  0.47715419  0.30418246  0.03158168  1
  O  O19  1  0.83330669  0.52313889  0.02869525  1
  O  O20  1  0.69732385  0.17188065  0.03026932  1
  O  O21  1  0.47305024  0.16423058  0.52735735  1
  O  O22  1  0.68878672  0.52538658  0.52848688  1
  O  O23  1  0.83187071  0.30729911  0.52975806  1
  O  O24  1  0.51953834  0.68215029  0.96947260  1
  O  O25  1  0.15480427  0.47364800  0.97272697  1
  O  O26  1  0.31406923  0.84195847  0.97270779  1
  O  O27  1  0.51437431  0.84608545  0.47521222  1
  O  O28  1  0.33647017  0.49405470  0.47214935  1
  O  O29  1  0.16138593  0.66935964  0.47214363  1
  O  O30  1  0.13282158  0.63474529  0.35649705  1
  O  O31  1  0.49943258  0.86317353  0.35820201  1
  O  O32  1  0.36410189  0.49712530  0.35623998  1
  O  O33  1  0.13650198  0.49572014  0.85688088  1
  O  O34  1  0.36034368  0.86405630  0.85708037  1
  O  O35  1  0.50714595  0.63903800  0.85502730  1
  O  O36  1  0.01822887  0.81978893  0.41993459  1
  O  O37  1  0.80241992  0.98359060  0.41996788  1
  O  O38  1  0.18145779  0.19913682  0.41990709  1
  O  O39  1  0.01744859  0.18752662  0.91127193  1
  O  O40  1  0.16908881  0.98202635  0.91138635  1
  O  O41  1  0.81191989  0.83116987  0.91139904  1
  O  O42  1  0.96610823  0.15259602  0.58679186  1
  O  O43  1  0.18426068  0.02623167  0.58849895  1
  O  O44  1  0.84046110  0.82030846  0.58681719  1
  O  O45  1  0.98490118  0.82211428  0.08848882  1
  O  O46  1  0.84355344  0.02758995  0.08876289  1
  O  O47  1  0.17974389  0.15807341  0.08703250  1
  O  O48  1  0.68900920  0.15636906  0.75221374  1
  O  O49  1  0.46440297  0.30768692  0.75114698  1
  O  O50  1  0.84334963  0.53386172  0.75231593  1
  O  O51  1  0.67100577  0.51804060  0.24406443  1
  O  O52  1  0.84710186  0.33087496  0.24391274  1
  O  O53  1  0.48493754  0.15291701  0.24488465  1
  O  O54  1  0.63966821  0.49270118  0.92424080  1
  O  O55  1  0.85089409  0.35840798  0.92305962  1
  O  O56  1  0.50644003  0.14703882  0.92438542  1
  O  O57  1  0.62727623  0.14695550  0.42205660  1
  O  O58  1  0.52069721  0.37417353  0.42185465  1
  O  O59  1  0.85539465  0.48074268  0.42320013  1
  O  O60  1  0.32662059  0.48977409  0.07087419  1
  O  O61  1  0.15940493  0.66722415  0.07002983  1
  O  O62  1  0.50366402  0.84386115  0.06905453  1
  O  O63  1  0.34145795  0.84707649  0.57262122  1
  O  O64  1  0.51213001  0.67132918  0.57422575  1
  O  O65  1  0.15645431  0.49030784  0.57325584  1
  O  O66  1  0.29349985  0.81323474  0.25336661  1
  O  O67  1  0.52104158  0.70884003  0.25323991  1
  O  O68  1  0.18728783  0.48029399  0.25316564  1
  O  O69  1  0.29215122  0.47631143  0.75487909  1
  O  O70  1  0.18357796  0.70700600  0.75501975  1
  O  O71  1  0.52242891  0.81699269  0.75509013  1
loop_
_geom_bond_atom_site_label_1
_geom_bond_atom_site_label_2
_geom_bond_distance
_geom_bond_site_symmetry_2
Na0 O43 2.449090 1_555
Na0 O44 2.491520 1_445
Na0 O42 2.503175 1_455
Na0 O36 2.509098 1_545
Na0 O38 2.518913 1_555
Na0 O37 2.596823 1_445
Na1 O41 2.465326 1_555
Na1 O45 2.541865 1_556
Na1 O46 2.557417 1_566
Na1 O40 2.574548 1_655
Na1 O39 2.582258 1_665
Na1 O47 2.616269 1_666
Na2 O48 2.533434 1_555
Na2 O55 2.534042 1_555
Na2 O50 2.550477 1_555
Na2 O56 2.567546 1_555
Na2 O49 2.570759 1_555
Na2 O54 2.571629 1_555
Na3 O53 2.440258 1_555
Na3 O52 2.460593 1_555
Na3 O51 2.468602 1_555
Na3 O57 2.685203 1_555
Na3 O58 2.686273 1_555
Na3 O59 2.719138 1_555
Na4 O67 2.505094 1_555
Na4 O60 2.541103 1_555
Na4 O62 2.575698 1_555
Na4 O68 2.621393 1_555
Na4 O66 2.652861 1_555
Na4 O61 2.692200 1_555
Na5 O69 2.519190 1_555
Na5 O65 2.531191 1_555
Na5 O70 2.553940 1_555
Na5 O64 2.648588 1_555
Na5 O71 2.664101 1_555
Na5 O63 2.677959 1_555
Na6 O53 2.347123 1_555
Na6 O16 2.396170 1_555
Na6 O67 2.466880 1_545
Na6 O52 2.530950 1_555
Na6 O66 2.805282 1_545
Na7 O17 2.301692 1_555
Na7 O51 2.389622 1_555
Na7 O68 2.465798 1_555
Na7 O53 2.545200 1_555
Na7 O67 2.823559 1_555
Na8 O52 2.359297 1_555
Na8 O15 2.410810 1_555
Na8 O66 2.469706 1_655
Na8 O51 2.536651 1_555
Na8 O68 2.786198 1_655
Na8 O30 2.850571 1_655
Na9 O14 2.389345 1_555
Na9 O71 2.445304 1_555
Na9 O50 2.454665 1_555
Na9 O49 2.496366 1_555
Na9 O69 2.701471 1_555
Na9 O35 2.716935 1_555
Na10 O12 2.384031 1_555
Na10 O48 2.444520 1_555
Na10 O69 2.450632 1_655
Na10 O50 2.473113 1_555
Na10 O70 2.712552 1_655
Na10 O33 2.771695 1_655
Na11 O49 2.436373 1_555
Na11 O48 2.448411 1_555
Na11 O70 2.449611 1_545
Na11 O13 2.496995 1_555
Na11 O71 2.668620 1_545
Na11 O34 2.755873 1_545
Na12 O64 2.404587 1_555
Na12 O42 2.423891 1_565
Na12 O63 2.590503 1_555
Na12 O44 2.615814 1_555
Na12 O6 2.652441 1_555
Na12 O13 2.776408 1_565
Na12 O27 2.809800 1_555
Na12 O23 2.953974 1_565
Na13 O61 2.457841 1_555
Na13 O47 2.514856 1_565
Na13 O62 2.588058 1_555
Na13 O45 2.606555 1_455
Na13 O26 2.730876 1_554
Na13 O16 2.817114 1_565
Na13 O18 2.840937 1_565
Na13 O11 2.851336 1_555
Na14 O60 2.406292 1_555
Na14 O46 2.498055 1_455
Na14 O61 2.622804 1_555
Na14 O47 2.675581 1_555
Na14 O25 2.726145 1_554
Na14 O15 2.772609 1_455
Na14 O20 2.844839 1_455
Na14 O10 2.855198 1_555
Na15 O37 2.422822 1_545
Na15 O2 2.431439 1_555
Na15 O59 2.431473 1_555
Na15 O38 2.502446 1_655
Na15 O57 2.693342 1_555
Na15 O23 2.926317 1_555
Na16 O0 2.429393 1_555
Na16 O57 2.436114 1_555
Na16 O38 2.446734 1_555
Na16 O36 2.503298 1_545
Na16 O58 2.713747 1_555
Na16 O21 2.864465 1_555
Na17 O1 2.392323 1_555
Na17 O58 2.439218 1_555
Na17 O36 2.443622 1_655
Na17 O37 2.500317 1_555
Na17 O59 2.719492 1_555
Na17 O22 2.882767 1_555
O0 Si0 1.612603 1_545
O0 Y0 2.150569 1_455
O1 Si1 1.611554 1_555
O1 Y0 2.155268 1_565
O2 Si2 1.613205 1_655
O2 Y0 2.149439 1_555
O3 Si3 1.632103 1_555
O3 Ta0 1.953534 1_555
O4 Si4 1.629452 1_655
O4 Ta0 1.955996 1_665
O5 Si5 1.634749 1_545
O5 Ta0 1.956776 1_655
O6 Si5 1.664339 1_555
O6 Ta1 2.018496 1_655
O7 Si3 1.662915 1_555
O7 Ta1 1.961826 1_545
O8 Si4 1.664017 1_555
O8 Ta1 1.954660 1_555
O9 Si1 1.680945 1_555
O9 Ta2 1.956672 1_555
O10 Si2 1.679491 1_555
O10 Ta2 1.995197 1_445
O11 Si0 1.679547 1_555
O11 Ta2 1.992845 1_455
O12 Si6 1.599414 1_555
O12 Y1 2.186097 1_555
O13 Si7 1.607614 1_555
O13 Y1 2.194490 1_555
O14 Si8 1.597779 1_555
O14 Y1 2.170852 1_555
O15 Si9 1.614011 1_555
O15 Y2 2.198327 1_555
O16 Si10 1.615520 1_555
O16 Y2 2.210624 1_555
O17 Si11 1.607120 1_555
O17 Y2 2.188274 1_555
O18 Si11 1.654788 1_555
O18 Ta3 2.012587 1_554
O19 Si9 1.645809 1_555
O19 Ta3 1.985078 1_554
O20 Si10 1.654767 1_555
O20 Ta3 2.012561 1_554
O21 Si7 1.685622 1_555
O21 Ta4 1.950442 1_555
O22 Si8 1.684079 1_555
O22 Ta4 1.942707 1_555
O23 Si6 1.694417 1_555
O23 Ta4 1.958499 1_555
O24 Si12 1.634220 1_555
O24 Ta5 1.909635 1_556
O25 Si13 1.632813 1_555
O25 Ta5 1.960367 1_556
O26 Si14 1.632655 1_555
O26 Ta5 1.959221 1_556
O27 Si15 1.618562 1_555
O27 Ta6 1.985218 1_555
O28 Si16 1.618512 1_555
O28 Ta6 1.935930 1_555
O29 Si17 1.617865 1_555
O29 Ta6 1.935695 1_555
O30 Si17 1.679014 1_555
O30 Ta7 1.988269 1_555
O31 Si15 1.682057 1_555
O31 Ta7 1.986713 1_555
O32 Si16 1.676304 1_555
O32 Ta7 1.989346 1_555
O33 Si13 1.672186 1_555
O33 Ta8 1.958983 1_555
O34 Si14 1.673307 1_555
O34 Ta8 1.956219 1_555
O35 Si12 1.670937 1_555
O35 Ta8 1.959556 1_555
O36 Si17 1.612408 1_555
O36 Y0 2.296059 1_465
O37 Si15 1.614419 1_555
O37 Y0 2.295202 1_565
O38 Si16 1.613441 1_555
O38 Y0 2.302715 1_455
O39 Si13 1.638254 1_555
O39 Ta0 2.020060 1_555
O40 Si14 1.637651 1_555
O40 Ta0 2.019537 1_565
O41 Si12 1.635187 1_555
O41 Ta0 2.029751 1_665
O42 Si6 1.645388 1_555
O42 Ta1 2.059213 1_645
O43 Si7 1.630177 1_555
O43 Ta1 1.998495 1_545
O44 Si8 1.645349 1_555
O44 Ta1 2.039094 1_655
O45 Si9 1.652865 1_555
O45 Ta2 2.018334 1_555
O46 Si10 1.652271 1_555
O46 Ta2 2.027370 1_545
O47 Si11 1.671358 1_555
O47 Ta2 2.064369 1_445
O48 Si5 1.616392 1_545
O48 Y1 2.324012 1_555
O49 Si3 1.612701 1_555
O49 Y1 2.304411 1_555
O50 Si4 1.612569 1_655
O50 Y1 2.301042 1_555
O51 Si1 1.605897 1_555
O51 Y2 2.263459 1_555
O52 Si2 1.607626 1_655
O52 Y2 2.290963 1_555
O53 Si0 1.607363 1_545
O53 Y2 2.288179 1_555
O54 Si12 1.635915 1_555
O54 Ta3 2.005668 1_555
O55 Si13 1.638289 1_655
O55 Ta3 2.017036 1_555
O56 Si14 1.637572 1_545
O56 Ta3 2.019841 1_555
O57 Si15 1.655719 1_545
O57 Ta4 2.086238 1_555
O58 Si16 1.652401 1_555
O58 Ta4 2.070942 1_555
O59 Si17 1.651994 1_655
O59 Ta4 2.073282 1_555
O60 Si11 1.644199 1_555
O60 Ta5 2.019665 1_555
O61 Si9 1.650865 1_455
O61 Ta5 2.042230 1_555
O62 Si10 1.636195 1_565
O62 Ta5 1.998402 1_555
O63 Si7 1.643647 1_565
O63 Ta6 1.991227 1_555
O64 Si8 1.650296 1_555
O64 Ta6 2.005495 1_555
O65 Si6 1.635861 1_455
O65 Ta6 1.964194 1_555
O66 Si0 1.669135 1_555
O66 Ta7 2.026455 1_555
O67 Si1 1.666597 1_555
O67 Ta7 2.037354 1_555
O68 Si2 1.669316 1_555
O68 Ta7 2.028497 1_555
O69 Si3 1.666697 1_555
O69 Ta8 2.069356 1_555
O70 Si4 1.666858 1_555
O70 Ta8 2.069858 1_555
O71 Si5 1.670814 1_555
O71 Ta8 2.062413 1_555
