# generated using pymatgen
data_Sr2In2O5
_symmetry_space_group_name_H-M   'P 1'
_cell_length_a   9.05744072
_cell_length_b   9.05744072
_cell_length_c   9.05744072
_cell_angle_alpha   141.81845880
_cell_angle_beta   140.31204212
_cell_angle_gamma   56.24864655
_symmetry_Int_Tables_number   1
_chemical_formula_structural   Sr2In2O5
_chemical_formula_sum   'Sr4 In4 O10'
_cell_volume   291.02657815
_cell_formula_units_Z   2
loop_
 _symmetry_equiv_pos_site_id
 _symmetry_equiv_pos_as_xyz
  1  'x, y, z'
loop_
 _atom_site_type_symbol
 _atom_site_label
 _atom_site_symmetry_multiplicity
 _atom_site_fract_x
 _atom_site_fract_y
 _atom_site_fract_z
 _atom_site_occupancy
  Sr  Sr0  1  0.13323500  0.62410400  0.54234200  1
  Sr  Sr1  1  0.86676500  0.40910700  0.49086900  1
  Sr  Sr2  1  0.58176200  0.12410400  0.49086900  1
  Sr  Sr3  1  0.41823800  0.90910700  0.54234200  1
  In  In0  1  0.00000000  0.00153700  0.00153700  1
  In  In1  1  0.50000000  0.50153700  0.00153700  1
  In  In2  1  0.18619600  0.29201400  0.97821000  1
  In  In3  1  0.81380400  0.79201400  0.10581900  1
  O  O0  1  0.86734600  0.14924700  0.51659300  1
  O  O1  1  0.13265400  0.64924700  0.28190100  1
  O  O2  1  0.44264900  0.31466000  0.03537200  1
  O  O3  1  0.55735100  0.59272300  0.87201100  1
  O  O4  1  0.77928800  0.81466000  0.87201100  1
  O  O5  1  0.22071200  0.09272300  0.03537200  1
  O  O6  1  0.77382400  0.27280200  0.01163100  1
  O  O7  1  0.22617600  0.23780700  0.49897800  1
  O  O8  1  0.23882900  0.73780700  0.01163100  1
  O  O9  1  0.76117100  0.77280200  0.49897800  1
loop_
_geom_bond_atom_site_label_1
_geom_bond_atom_site_label_2
_geom_bond_distance
_geom_bond_site_symmetry_2
In0 O7 2.141013 1_555
In0 O6 2.141013 1_455
In0 O8 2.165852 1_545
In0 O9 2.165852 1_444
In0 O4 2.294825 1_444
In0 O5 2.294825 1_555
In1 O9 2.141013 1_555
In1 O8 2.141013 1_555
In1 O7 2.165852 1_554
In1 O6 2.165852 1_555
In1 O3 2.294825 1_554
In1 O2 2.294825 1_555
In2 O2 2.053563 1_556
In2 O5 2.053563 1_556
In2 O0 2.135372 1_455
In2 O1 2.141974 1_556
In3 O3 2.053558 1_554
In3 O4 2.053572 1_554
In3 O1 2.135370 1_655
In3 O0 2.141970 1_565
O0 Sr1 2.537822 1_555
O0 Sr2 2.537822 1_555
O1 Sr3 2.537822 1_555
O1 Sr0 2.537822 1_555
O2 Sr1 2.494116 1_555
O2 Sr3 2.660508 1_544
O3 Sr0 2.494116 1_555
O3 Sr2 2.660508 1_555
O4 Sr3 2.494116 1_555
O4 Sr1 2.660508 1_555
O5 Sr2 2.494116 1_555
O5 Sr0 2.660508 1_544
O6 Sr2 2.660060 1_554
O6 Sr0 2.684913 1_655
O6 Sr3 2.828149 1_544
O6 Sr1 2.860161 1_555
O7 Sr3 2.660060 1_545
O7 Sr1 2.684913 1_455
O7 Sr2 2.828149 1_555
O7 Sr0 2.860161 1_555
O8 Sr1 2.660060 1_454
O8 Sr3 2.684913 1_555
O8 Sr0 2.828149 1_554
O8 Sr2 2.860161 1_565
O9 Sr0 2.660060 1_655
O9 Sr2 2.684913 1_565
O9 Sr1 2.828149 1_555
O9 Sr3 2.860161 1_555
