# generated using pymatgen
data_RbAg5S3
_symmetry_space_group_name_H-M   'P 1'
_cell_length_a   13.49692863
_cell_length_b   13.49693446
_cell_length_c   8.05110563
_cell_angle_alpha   90.00004282
_cell_angle_beta   89.99996679
_cell_angle_gamma   120.00003404
_symmetry_Int_Tables_number   1
_chemical_formula_structural   RbAg5S3
_chemical_formula_sum   'Rb6 Ag30 S18'
_cell_volume   1270.15317356
_cell_formula_units_Z   6
loop_
 _symmetry_equiv_pos_site_id
 _symmetry_equiv_pos_as_xyz
  1  'x, y, z'
loop_
 _atom_site_type_symbol
 _atom_site_label
 _atom_site_symmetry_multiplicity
 _atom_site_fract_x
 _atom_site_fract_y
 _atom_site_fract_z
 _atom_site_occupancy
  Rb  Rb0  1  0.33333361  0.66666687  0.50104756  1
  Rb  Rb1  1  0.33333336  0.66666676  0.99895277  1
  Rb  Rb2  1  0.00000012  0.00000001  0.50000046  1
  Rb  Rb3  1  0.00000004  0.99999990  -0.00000018  1
  Rb  Rb4  1  0.66666701  0.33333328  0.49895261  1
  Rb  Rb5  1  0.66666663  0.33333335  0.00104767  1
  Ag  Ag0  1  0.63235329  0.63356848  0.24999979  1
  Ag  Ag1  1  0.00121588  0.36764788  0.25000016  1
  Ag  Ag2  1  0.36643245  0.99878461  0.24999930  1
  Ag  Ag3  1  0.63356743  0.63235424  0.75000026  1
  Ag  Ag4  1  0.99878646  0.36643177  0.75000025  1
  Ag  Ag5  1  0.36764661  0.00121420  0.75000091  1
  Ag  Ag6  1  0.00000076  0.53612259  0.49999669  1
  Ag  Ag7  1  0.53612136  0.99999879  -0.00000024  1
  Ag  Ag8  1  0.46387735  0.46387857  -0.00000027  1
  Ag  Ag9  1  0.46387711  0.46387864  0.50000039  1
  Ag  Ag10  1  0.53612073  0.99999849  0.49999916  1
  Ag  Ag11  1  0.00000105  0.53612285  -0.00000045  1
  Ag  Ag12  1  0.18443006  0.85151804  0.50039998  1
  Ag  Ag13  1  0.66708825  0.81557003  0.99960019  1
  Ag  Ag14  1  0.14848232  0.33291188  0.99960049  1
  Ag  Ag15  1  0.14848170  0.33291182  0.50039973  1
  Ag  Ag16  1  0.66708884  0.81557148  0.50039801  1
  Ag  Ag17  1  0.18442985  0.85151841  0.99960052  1
  Ag  Ag18  1  0.81557128  0.66708929  0.49959986  1
  Ag  Ag19  1  0.85151671  0.18442699  0.00039843  1
  Ag  Ag20  1  0.33291055  0.14848243  0.00039825  1
  Ag  Ag21  1  0.33291037  0.14848230  0.49960222  1
  Ag  Ag22  1  0.85151755  0.18442760  0.49960239  1
  Ag  Ag23  1  0.81556921  0.66708899  0.00039914  1
  Ag  Ag24  1  0.29727057  0.29193882  0.75000052  1
  Ag  Ag25  1  0.70806190  0.00533147  0.75000031  1
  Ag  Ag26  1  0.99466834  0.70273110  0.75000108  1
  Ag  Ag27  1  0.29193844  0.29727025  0.24999993  1
  Ag  Ag28  1  0.70273103  0.99466746  0.25000001  1
  Ag  Ag29  1  0.00533081  0.70806217  0.24999926  1
  S  S0  1  0.08641507  0.22352267  0.75000008  1
  S  S1  1  0.77647882  0.86289250  0.75000289  1
  S  S2  1  0.13710840  0.91358552  0.74999996  1
  S  S3  1  0.41932552  0.52899707  0.75000017  1
  S  S4  1  0.47100310  0.89032851  0.74999988  1
  S  S5  1  0.10967179  0.58067464  0.75000022  1
  S  S6  1  0.44091102  0.22125217  0.75000006  1
  S  S7  1  0.77874800  0.21965850  0.75000014  1
  S  S8  1  0.78034064  0.55908763  0.74999802  1
  S  S9  1  0.22352060  0.08641364  0.25000017  1
  S  S10  1  0.91358712  0.13710719  0.25000001  1
  S  S11  1  0.86289209  0.77647818  0.24999807  1
  S  S12  1  0.22125475  0.44091414  0.25000024  1
  S  S13  1  0.55908747  0.78034092  0.25000290  1
  S  S14  1  0.21965944  0.77874567  0.25000009  1
  S  S15  1  0.52899653  0.41932647  0.25000041  1
  S  S16  1  0.58067355  0.10966998  0.25000026  1
  S  S17  1  0.89033008  0.47100377  0.25000029  1
loop_
_geom_bond_atom_site_label_1
_geom_bond_atom_site_label_2
_geom_bond_distance
_geom_bond_site_symmetry_2
Rb0 S4 3.312645 1_555
Rb0 S5 3.312648 1_555
Rb0 S3 3.312651 1_555
Rb0 S13 3.323912 1_555
Rb0 S12 3.323915 1_555
Rb0 S14 3.323920 1_555
Rb1 S5 3.312646 1_555
Rb1 S3 3.312649 1_555
Rb1 S4 3.312651 1_555
Rb1 S14 3.323916 1_556
Rb1 S12 3.323916 1_556
Rb1 S13 3.323941 1_556
Rb2 S9 3.315765 1_555
Rb2 S10 3.315767 1_455
Rb2 S0 3.315782 1_555
Rb2 S1 3.315783 1_445
Rb2 S2 3.315785 1_545
Rb2 S11 3.315789 1_445
Rb3 S1 3.315756 1_454
Rb3 S10 3.315763 1_465
Rb3 S9 3.315767 1_565
Rb3 S11 3.315769 1_455
Rb3 S2 3.315785 1_554
Rb3 S0 3.315785 1_564
Rb4 S17 3.312658 1_555
Rb4 S16 3.312660 1_555
Rb4 S15 3.312666 1_555
Rb4 S8 3.323920 1_555
Rb4 S6 3.323945 1_555
Rb4 S7 3.323946 1_555
Rb5 S15 3.312662 1_555
Rb5 S17 3.312664 1_555
Rb5 S16 3.312664 1_555
Rb5 S8 3.323942 1_554
Rb5 S6 3.323943 1_554
Rb5 S7 3.323948 1_554
Ag0 S15 2.504723 1_555
Ag0 S13 2.619359 1_555
Ag0 S11 2.720395 1_555
Ag1 S17 2.504720 1_455
Ag1 S12 2.619364 1_555
Ag1 S10 2.720421 1_455
Ag2 S16 2.504711 1_565
Ag2 S14 2.619366 1_555
Ag2 S9 2.720423 1_565
Ag3 S3 2.504720 1_555
Ag3 S8 2.619377 1_555
Ag3 S1 2.720393 1_555
Ag4 S5 2.504732 1_655
Ag4 S7 2.619361 1_555
Ag4 S0 2.720384 1_655
Ag5 S4 2.504725 1_545
Ag5 S6 2.619359 1_555
Ag5 S2 2.720389 1_545
Ag6 S17 2.390334 1_455
Ag6 S5 2.390385 1_555
Ag7 S4 2.390355 1_554
Ag7 S16 2.390365 1_565
Ag8 S3 2.390355 1_554
Ag8 S15 2.390368 1_555
Ag9 S3 2.390353 1_555
Ag9 S15 2.390364 1_555
Ag10 S16 2.390357 1_565
Ag10 S4 2.390359 1_555
Ag11 S5 2.390354 1_554
Ag11 S17 2.390365 1_455
Ag12 S2 2.383919 1_555
Ag12 S14 2.392086 1_555
Ag13 S1 2.383910 1_555
Ag13 S13 2.392099 1_556
Ag14 S0 2.383922 1_555
Ag14 S12 2.392088 1_556
Ag15 S0 2.383922 1_555
Ag15 S12 2.392089 1_555
Ag16 S1 2.383959 1_555
Ag16 S13 2.392050 1_555
Ag17 S2 2.383921 1_555
Ag17 S14 2.392089 1_556
Ag18 S11 2.383932 1_555
Ag18 S8 2.392073 1_555
Ag19 S10 2.383940 1_555
Ag19 S7 2.392063 1_554
Ag20 S9 2.383938 1_555
Ag20 S6 2.392064 1_554
Ag21 S9 2.383938 1_555
Ag21 S6 2.392063 1_555
Ag22 S10 2.383942 1_555
Ag22 S7 2.392061 1_555
Ag23 S11 2.383912 1_555
Ag23 S8 2.392093 1_554
Ag24 S0 2.514738 1_555
Ag24 S6 2.553120 1_555
Ag24 S3 2.771308 1_555
Ag25 S1 2.514743 1_545
Ag25 S7 2.553121 1_555
Ag25 S4 2.771313 1_545
Ag26 S2 2.514729 1_655
Ag26 S8 2.553133 1_555
Ag26 S5 2.771328 1_655
Ag27 S9 2.514749 1_555
Ag27 S12 2.553135 1_555
Ag27 S15 2.771305 1_555
Ag28 S10 2.514745 1_565
Ag28 S13 2.553122 1_555
Ag28 S16 2.771329 1_565
Ag29 S11 2.514730 1_455
Ag29 S14 2.553147 1_555
Ag29 S17 2.771310 1_455
