# generated using pymatgen
data_Na2MgCu2TeO6
_symmetry_space_group_name_H-M   'P 1'
_cell_length_a   6.57512757
_cell_length_b   5.56216074
_cell_length_c   6.05720555
_cell_angle_alpha   111.60222840
_cell_angle_beta   107.20452859
_cell_angle_gamma   112.24266628
_symmetry_Int_Tables_number   1
_chemical_formula_structural   Na2MgCu2TeO6
_chemical_formula_sum   'Na2 Mg1 Cu2 Te1 O6'
_cell_volume   164.47199115
_cell_formula_units_Z   1
loop_
 _symmetry_equiv_pos_site_id
 _symmetry_equiv_pos_as_xyz
  1  'x, y, z'
loop_
 _atom_site_type_symbol
 _atom_site_label
 _atom_site_symmetry_multiplicity
 _atom_site_fract_x
 _atom_site_fract_y
 _atom_site_fract_z
 _atom_site_occupancy
  Na  Na0  1  0.83879866  0.15723529  0.48535669  1
  Na  Na1  1  0.15248142  0.83396902  0.52344920  1
  Mg  Mg0  1  0.49588077  0.49593184  0.50400426  1
  Cu  Cu0  1  0.27028557  0.64177953  0.05775649  1
  Cu  Cu1  1  0.72124513  0.34984921  0.95059001  1
  Te  Te0  1  0.99593188  0.99601190  0.00452064  1
  O  O0  1  0.81024805  0.75406570  0.12868604  1
  O  O1  1  0.13307666  0.37296484  0.34784864  1
  O  O2  1  0.18154800  0.23773435  0.88028860  1
  O  O3  1  0.31653929  0.02766753  0.22102226  1
  O  O4  1  0.85860261  0.61859569  0.66111324  1
  O  O5  1  0.67536196  0.96419410  0.78744793  1
loop_
_geom_bond_atom_site_label_1
_geom_bond_atom_site_label_2
_geom_bond_distance
_geom_bond_site_symmetry_2
Na0 O4 2.321411 1_555
Na0 O0 2.367606 1_545
Na0 O1 2.410195 1_655
Na0 O2 2.502011 1_655
Na0 O5 2.718887 1_545
Na1 O1 2.320872 1_555
Na1 O2 2.368223 1_565
Na1 O4 2.408402 1_455
Na1 O0 2.501212 1_455
Na1 O3 2.724409 1_565
Mg0 O4 2.001621 1_555
Mg0 O1 2.001664 1_555
Mg0 O3 2.074660 1_555
Mg0 O5 2.075062 1_555
Cu0 O2 1.845010 1_554
Cu0 O3 1.855360 1_565
Cu1 O0 1.845457 1_556
Cu1 O5 1.855205 1_545
O0 Te0 1.977838 1_555
O1 Te0 1.944917 1_445
O2 Te0 1.977226 1_446
O3 Te0 2.026866 1_445
O4 Te0 1.946170 1_556
O5 Te0 2.027239 1_556
