# generated using pymatgen
data_MgFe4(OF)4
_symmetry_space_group_name_H-M   'P 1'
_cell_length_a   5.92754561
_cell_length_b   5.46806420
_cell_length_c   5.46324181
_cell_angle_alpha   105.81927339
_cell_angle_beta   68.96109972
_cell_angle_gamma   71.94953412
_symmetry_Int_Tables_number   1
_chemical_formula_structural   MgFe4(OF)4
_chemical_formula_sum   'Mg1 Fe4 O4 F4'
_cell_volume   141.67682038
_cell_formula_units_Z   1
loop_
 _symmetry_equiv_pos_site_id
 _symmetry_equiv_pos_as_xyz
  1  'x, y, z'
loop_
 _atom_site_type_symbol
 _atom_site_label
 _atom_site_symmetry_multiplicity
 _atom_site_fract_x
 _atom_site_fract_y
 _atom_site_fract_z
 _atom_site_occupancy
  Mg  Mg0  1  0.75110000  0.61923426  0.86945599  1
  Fe  Fe0  1  0.17148370  0.01147070  0.11114184  1
  Fe  Fe1  1  0.79569553  0.71631355  0.34315903  1
  Fe  Fe2  1  0.33147261  0.27968089  0.68102020  1
  Fe  Fe3  1  0.70765075  0.13687490  0.01022702  1
  O  O0  1  0.51326849  0.95431693  0.79583969  1
  O  O1  1  0.98960029  0.30836241  0.96705987  1
  O  O2  1  0.02762682  0.76752382  0.95011275  1
  O  O3  1  0.47433609  0.97543727  0.29325765  1
  F  F0  1  0.47823958  0.47850174  0.94917480  1
  F  F1  1  0.02462225  0.42612165  0.45664585  1
  F  F2  1  0.54385568  0.43520014  0.44387896  1
  F  F3  1  0.95865720  0.98673073  0.47932235  1
loop_
_geom_bond_atom_site_label_1
_geom_bond_atom_site_label_2
_geom_bond_distance
_geom_bond_site_symmetry_2
Mg0 O3 2.163255 1_556
Mg0 O2 2.164679 1_655
Mg0 O0 2.171279 1_555
Mg0 O1 2.172257 1_555
Fe0 O2 1.970818 1_544
Fe0 O0 1.994439 1_544
Fe0 O1 2.153802 1_454
Fe0 O3 2.328407 1_545
Fe1 O0 2.129533 1_555
Fe1 O3 2.149732 1_555
Fe1 O1 2.176116 1_554
Fe1 O2 2.241910 1_654
Fe2 O3 1.972300 1_545
Fe2 O1 1.992204 1_455
Fe2 O0 2.150736 1_545
Fe2 O2 2.346138 1_555
Fe3 O1 2.129977 1_554
Fe3 O2 2.145094 1_644
Fe3 O0 2.177197 1_544
Fe3 O3 2.246811 1_545
F0 Mg0 1.961146 1_555
F0 Fe3 2.130997 1_556
F0 Fe2 2.172060 1_555
F0 Fe0 2.595634 1_566
F1 Mg0 1.960929 1_455
F1 Fe1 2.133019 1_455
F1 Fe0 2.173758 1_555
F1 Fe2 2.585639 1_555
F2 Fe2 2.019788 1_555
F2 Fe3 2.115751 1_555
F2 Fe1 2.487450 1_555
F3 Fe0 2.021857 1_665
F3 Fe1 2.115247 1_555
F3 Fe3 2.479238 1_566
