# generated using pymatgen
data_Dy3Fe5O12
_symmetry_space_group_name_H-M   'P 1'
_cell_length_a   10.85762549
_cell_length_b   10.85762549
_cell_length_c   10.85762549
_cell_angle_alpha   109.47122063
_cell_angle_beta   109.47122063
_cell_angle_gamma   109.47122063
_symmetry_Int_Tables_number   1
_chemical_formula_structural   Dy3Fe5O12
_chemical_formula_sum   'Dy12 Fe20 O48'
_cell_volume   985.33221479
_cell_formula_units_Z   4
loop_
 _symmetry_equiv_pos_site_id
 _symmetry_equiv_pos_as_xyz
  1  'x, y, z'
loop_
 _atom_site_type_symbol
 _atom_site_label
 _atom_site_symmetry_multiplicity
 _atom_site_fract_x
 _atom_site_fract_y
 _atom_site_fract_z
 _atom_site_occupancy
  Dy  Dy0  1  0.37500000  0.12500000  0.25000000  1
  Dy  Dy1  1  0.75000000  0.12500000  0.37500000  1
  Dy  Dy2  1  0.25000000  0.37500000  0.12500000  1
  Dy  Dy3  1  0.12500000  0.25000000  0.37500000  1
  Dy  Dy4  1  0.37500000  0.75000000  0.12500000  1
  Dy  Dy5  1  0.12500000  0.37500000  0.75000000  1
  Dy  Dy6  1  0.62500000  0.87500000  0.75000000  1
  Dy  Dy7  1  0.25000000  0.87500000  0.62500000  1
  Dy  Dy8  1  0.75000000  0.62500000  0.87500000  1
  Dy  Dy9  1  0.87500000  0.75000000  0.62500000  1
  Dy  Dy10  1  0.62500000  0.25000000  0.87500000  1
  Dy  Dy11  1  0.87500000  0.62500000  0.25000000  1
  Fe  Fe0  1  0.00000000  0.00000000  0.00000000  1
  Fe  Fe1  1  0.50000000  0.00000000  0.00000000  1
  Fe  Fe2  1  0.00000000  0.50000000  0.00000000  1
  Fe  Fe3  1  0.00000000  0.00000000  0.50000000  1
  Fe  Fe4  1  0.50000000  0.50000000  0.00000000  1
  Fe  Fe5  1  0.00000000  0.50000000  0.50000000  1
  Fe  Fe6  1  0.50000000  0.00000000  0.50000000  1
  Fe  Fe7  1  0.50000000  0.50000000  0.50000000  1
  Fe  Fe8  1  0.62500000  0.37500000  0.25000000  1
  Fe  Fe9  1  0.75000000  0.37500000  0.62500000  1
  Fe  Fe10  1  0.25000000  0.12500000  0.87500000  1
  Fe  Fe11  1  0.87500000  0.25000000  0.12500000  1
  Fe  Fe12  1  0.12500000  0.87500000  0.25000000  1
  Fe  Fe13  1  0.87500000  0.12500000  0.75000000  1
  Fe  Fe14  1  0.25000000  0.62500000  0.37500000  1
  Fe  Fe15  1  0.37500000  0.25000000  0.62500000  1
  Fe  Fe16  1  0.75000000  0.87500000  0.12500000  1
  Fe  Fe17  1  0.12500000  0.75000000  0.87500000  1
  Fe  Fe18  1  0.37500000  0.62500000  0.75000000  1
  Fe  Fe19  1  0.62500000  0.75000000  0.37500000  1
  O  O0  1  0.41633600  0.82293300  0.79112400  1
  O  O1  1  0.87478900  0.40659800  0.08366400  1
  O  O2  1  0.09340200  0.96819100  0.67706700  1
  O  O3  1  0.53180900  0.62521100  0.70887600  1
  O  O4  1  0.67706700  0.08366400  0.70887600  1
  O  O5  1  0.62521100  0.70887600  0.53180900  1
  O  O6  1  0.62521100  0.41633600  0.09340200  1
  O  O7  1  0.70887600  0.53180900  0.62521100  1
  O  O8  1  0.82293300  0.53180900  0.40659800  1
  O  O9  1  0.96819100  0.79112400  0.87478900  1
  O  O10  1  0.79112400  0.87478900  0.96819100  1
  O  O11  1  0.70887600  0.67706700  0.08366400  1
  O  O12  1  0.41633600  0.09340200  0.62521100  1
  O  O13  1  0.40659800  0.82293300  0.53180900  1
  O  O14  1  0.08366400  0.70887600  0.67706700  1
  O  O15  1  0.09340200  0.62521100  0.41633600  1
  O  O16  1  0.53180900  0.40659800  0.82293300  1
  O  O17  1  0.08366400  0.87478900  0.40659800  1
  O  O18  1  0.96819100  0.67706700  0.09340200  1
  O  O19  1  0.17706700  0.46819100  0.59340200  1
  O  O20  1  0.67706700  0.09340200  0.96819100  1
  O  O21  1  0.79112400  0.41633600  0.82293300  1
  O  O22  1  0.40659800  0.08366400  0.87478900  1
  O  O23  1  0.87478900  0.96819100  0.79112400  1
  O  O24  1  0.58366400  0.17706700  0.20887600  1
  O  O25  1  0.12521100  0.59340200  0.91633600  1
  O  O26  1  0.90659800  0.03180900  0.32293300  1
  O  O27  1  0.46819100  0.37478900  0.29112400  1
  O  O28  1  0.32293300  0.91633600  0.29112400  1
  O  O29  1  0.37478900  0.29112400  0.46819100  1
  O  O30  1  0.37478900  0.58366400  0.90659800  1
  O  O31  1  0.29112400  0.46819100  0.37478900  1
  O  O32  1  0.12521100  0.03180900  0.20887600  1
  O  O33  1  0.59340200  0.91633600  0.12521100  1
  O  O34  1  0.20887600  0.58366400  0.17706700  1
  O  O35  1  0.17706700  0.20887600  0.58366400  1
  O  O36  1  0.32293300  0.90659800  0.03180900  1
  O  O37  1  0.03180900  0.32293300  0.90659800  1
  O  O38  1  0.91633600  0.12521100  0.59340200  1
  O  O39  1  0.46819100  0.59340200  0.17706700  1
  O  O40  1  0.90659800  0.37478900  0.58366400  1
  O  O41  1  0.91633600  0.29112400  0.32293300  1
  O  O42  1  0.59340200  0.17706700  0.46819100  1
  O  O43  1  0.58366400  0.90659800  0.37478900  1
  O  O44  1  0.29112400  0.32293300  0.91633600  1
  O  O45  1  0.20887600  0.12521100  0.03180900  1
  O  O46  1  0.03180900  0.20887600  0.12521100  1
  O  O47  1  0.82293300  0.79112400  0.41633600  1
loop_
_geom_bond_atom_site_label_1
_geom_bond_atom_site_label_2
_geom_bond_distance
_geom_bond_site_symmetry_2
Dy0 O28 2.375018 1_545
Dy0 O24 2.375018 1_555
Dy0 O32 2.375028 1_555
Dy0 O27 2.375028 1_555
Dy0 O45 2.454258 1_555
Dy0 O42 2.454258 1_555
Dy0 O36 2.454258 1_545
Dy0 O29 2.454258 1_555
Dy1 O33 2.375024 1_545
Dy1 O40 2.375024 1_555
Dy1 O26 2.375028 1_555
Dy1 O42 2.375028 1_555
Dy1 O38 2.454262 1_555
Dy1 O43 2.454262 1_545
Dy1 O24 2.454264 1_555
Dy1 O41 2.454264 1_555
Dy2 O34 2.375018 1_555
Dy2 O44 2.375018 1_554
Dy2 O31 2.375028 1_555
Dy2 O45 2.375028 1_555
Dy2 O39 2.454258 1_555
Dy2 O46 2.454258 1_555
Dy2 O27 2.454258 1_555
Dy2 O37 2.454258 1_554
Dy3 O41 2.375018 1_455
Dy3 O35 2.375018 1_555
Dy3 O29 2.375028 1_555
Dy3 O46 2.375028 1_555
Dy3 O26 2.454258 1_455
Dy3 O32 2.454258 1_555
Dy3 O19 2.454258 1_555
Dy3 O31 2.454258 1_555
Dy4 O25 2.375024 1_554
Dy4 O43 2.375024 1_555
Dy4 O36 2.375028 1_555
Dy4 O39 2.375028 1_555
Dy4 O30 2.454262 1_554
Dy4 O33 2.454262 1_555
Dy4 O34 2.454264 1_555
Dy4 O28 2.454264 1_555
Dy5 O30 2.375024 1_555
Dy5 O38 2.375024 1_455
Dy5 O37 2.375028 1_555
Dy5 O19 2.375028 1_555
Dy5 O40 2.454262 1_455
Dy5 O25 2.454262 1_555
Dy5 O44 2.454264 1_555
Dy5 O35 2.454264 1_555
Dy6 O4 2.375018 1_565
Dy6 O0 2.375018 1_555
Dy6 O3 2.375028 1_555
Dy6 O23 2.375028 1_555
Dy6 O5 2.454258 1_555
Dy6 O20 2.454258 1_565
Dy6 O13 2.454258 1_555
Dy6 O10 2.454258 1_555
Dy7 O15 2.375024 1_555
Dy7 O22 2.375024 1_565
Dy7 O2 2.375028 1_555
Dy7 O13 2.375028 1_555
Dy7 O12 2.454262 1_565
Dy7 O17 2.454262 1_555
Dy7 O0 2.454264 1_555
Dy7 O14 2.454264 1_555
Dy8 O11 2.375018 1_556
Dy8 O21 2.375018 1_555
Dy8 O7 2.375028 1_555
Dy8 O10 2.375028 1_555
Dy8 O9 2.454258 1_555
Dy8 O16 2.454258 1_555
Dy8 O3 2.454258 1_555
Dy8 O18 2.454258 1_556
Dy9 O14 2.375018 1_655
Dy9 O47 2.375018 1_555
Dy9 O5 2.375028 1_555
Dy9 O9 2.375028 1_555
Dy9 O2 2.454258 1_655
Dy9 O23 2.454258 1_555
Dy9 O8 2.454258 1_555
Dy9 O7 2.454258 1_555
Dy10 O12 2.375024 1_555
Dy10 O1 2.375024 1_556
Dy10 O16 2.375028 1_555
Dy10 O20 2.375028 1_555
Dy10 O6 2.454262 1_556
Dy10 O22 2.454262 1_555
Dy10 O4 2.454264 1_555
Dy10 O21 2.454264 1_555
Dy11 O17 2.375024 1_655
Dy11 O6 2.375024 1_555
Dy11 O8 2.375028 1_555
Dy11 O18 2.375028 1_555
Dy11 O15 2.454262 1_655
Dy11 O1 2.454262 1_555
Dy11 O11 2.454264 1_555
Dy11 O47 2.454264 1_555
Fe0 O9 2.054314 1_444
Fe0 O10 2.054314 1_444
Fe0 O32 2.054314 1_555
Fe0 O23 2.054314 1_444
Fe0 O46 2.054314 1_555
Fe0 O45 2.054314 1_555
Fe1 O22 2.054305 1_554
Fe1 O33 2.054305 1_545
Fe1 O20 2.054314 1_554
Fe1 O36 2.054314 1_545
Fe1 O0 2.054317 1_544
Fe1 O24 2.054317 1_555
Fe2 O25 2.054305 1_554
Fe2 O1 2.054305 1_455
Fe2 O18 2.054314 1_455
Fe2 O37 2.054314 1_554
Fe2 O21 2.054317 1_454
Fe2 O34 2.054317 1_555
Fe3 O38 2.054305 1_455
Fe3 O17 2.054305 1_545
Fe3 O2 2.054314 1_545
Fe3 O26 2.054314 1_455
Fe3 O47 2.054317 1_445
Fe3 O35 2.054317 1_555
Fe4 O30 2.054305 1_554
Fe4 O6 2.054305 1_555
Fe4 O16 2.054314 1_554
Fe4 O39 2.054314 1_555
Fe4 O11 2.054317 1_555
Fe4 O44 2.054317 1_554
Fe5 O40 2.054305 1_455
Fe5 O15 2.054305 1_555
Fe5 O19 2.054314 1_555
Fe5 O8 2.054314 1_455
Fe5 O14 2.054317 1_555
Fe5 O41 2.054317 1_455
Fe6 O43 2.054305 1_545
Fe6 O12 2.054305 1_555
Fe6 O42 2.054314 1_555
Fe6 O13 2.054314 1_545
Fe6 O4 2.054317 1_555
Fe6 O28 2.054317 1_545
Fe7 O7 2.054314 1_555
Fe7 O3 2.054314 1_555
Fe7 O5 2.054314 1_555
Fe7 O27 2.054314 1_555
Fe7 O29 2.054314 1_555
Fe7 O31 2.054314 1_555
Fe8 O24 1.898161 1_555
Fe8 O27 1.898163 1_555
Fe8 O8 1.898163 1_555
Fe8 O6 1.898169 1_555
Fe9 O21 1.898161 1_555
Fe9 O42 1.898163 1_555
Fe9 O7 1.898163 1_555
Fe9 O40 1.898169 1_555
Fe10 O44 1.898161 1_555
Fe10 O45 1.898163 1_556
Fe10 O2 1.898163 1_545
Fe10 O22 1.898169 1_555
Fe11 O41 1.898161 1_555
Fe11 O46 1.898163 1_655
Fe11 O20 1.898163 1_554
Fe11 O1 1.898169 1_555
Fe12 O28 1.898161 1_555
Fe12 O32 1.898163 1_565
Fe12 O18 1.898163 1_455
Fe12 O17 1.898169 1_555
Fe13 O4 1.898161 1_555
Fe13 O23 1.898163 1_545
Fe13 O37 1.898163 1_655
Fe13 O38 1.898169 1_555
Fe14 O34 1.898161 1_555
Fe14 O31 1.898163 1_555
Fe14 O13 1.898163 1_555
Fe14 O15 1.898169 1_555
Fe15 O35 1.898161 1_555
Fe15 O29 1.898163 1_555
Fe15 O16 1.898163 1_555
Fe15 O12 1.898169 1_555
Fe16 O11 1.898161 1_555
Fe16 O26 1.898163 1_565
Fe16 O10 1.898163 1_554
Fe16 O33 1.898169 1_555
Fe17 O14 1.898161 1_555
Fe17 O9 1.898163 1_455
Fe17 O36 1.898163 1_556
Fe17 O25 1.898169 1_555
Fe18 O0 1.898161 1_555
Fe18 O3 1.898163 1_555
Fe18 O19 1.898163 1_555
Fe18 O30 1.898169 1_555
Fe19 O47 1.898161 1_555
Fe19 O39 1.898163 1_555
Fe19 O5 1.898163 1_555
Fe19 O43 1.898169 1_555
