# generated using pymatgen
data_Na14La4Nb4Si11SO48
_symmetry_space_group_name_H-M   'P 1'
_cell_length_a   18.92800612
_cell_length_b   9.45361017
_cell_length_c   22.88857642
_cell_angle_alpha   89.84296852
_cell_angle_beta   90.03545601
_cell_angle_gamma   119.97494201
_symmetry_Int_Tables_number   1
_chemical_formula_structural   Na14La4Nb4Si11SO48
_chemical_formula_sum   'Na42 La12 Nb12 Si33 S3 O144'
_cell_volume   3547.80532726
_cell_formula_units_Z   3
loop_
 _symmetry_equiv_pos_site_id
 _symmetry_equiv_pos_as_xyz
  1  'x, y, z'
loop_
 _atom_site_type_symbol
 _atom_site_label
 _atom_site_symmetry_multiplicity
 _atom_site_fract_x
 _atom_site_fract_y
 _atom_site_fract_z
 _atom_site_occupancy
  Na  Na0  1  0.32447613  0.99936696  0.24977807  1
  Na  Na1  1  0.82544186  0.00093413  0.24965246  1
  Na  Na2  1  0.32540589  0.64529455  0.74783948  1
  Na  Na3  1  0.82028418  0.63908099  0.74761402  1
  Na  Na4  1  0.49386434  0.36112470  0.74575780  1
  Na  Na5  1  0.67829745  0.00752575  0.74985735  1
  Na  Na6  1  0.14901906  0.32990048  0.57999518  1
  Na  Na7  1  0.65491580  0.32729038  0.58226580  1
  Na  Na8  1  0.01323113  0.70025541  0.58540107  1
  Na  Na9  1  0.51239353  0.69170665  0.58339245  1
  Na  Na10  1  0.33058388  0.97991720  0.58228688  1
  Na  Na11  1  0.83886318  0.97199580  0.58731656  1
  Na  Na12  1  0.14598269  0.95629256  0.07886216  1
  Na  Na13  1  0.64583906  0.95607647  0.07826023  1
  Na  Na14  1  0.33210005  0.71175474  0.08320290  1
  Na  Na15  1  0.83243264  0.71163643  0.08415952  1
  Na  Na16  1  0.02359952  0.33659423  0.08363668  1
  Na  Na17  1  0.52303220  0.33600318  0.08349704  1
  Na  Na18  1  0.48472072  0.67875815  0.91280667  1
  Na  Na19  1  0.98464168  0.67269389  0.91380449  1
  Na  Na20  1  0.35487711  0.02713285  0.91340149  1
  Na  Na21  1  0.85366598  0.03159213  0.91355569  1
  Na  Na22  1  0.16092533  0.29969979  0.91902786  1
  Na  Na23  1  0.66197597  0.29456675  0.91410138  1
  Na  Na24  1  0.47568062  0.28540512  0.41485688  1
  Na  Na25  1  0.97712489  0.28962726  0.41668200  1
  Na  Na26  1  0.16798379  0.04435306  0.42226368  1
  Na  Na27  1  0.66665308  0.04258721  0.42026891  1
  Na  Na28  1  0.35492009  0.66513624  0.41543448  1
  Na  Na29  1  0.85645474  0.66258557  0.41649588  1
  Na  Na30  1  0.00119493  0.99833605  0.50127454  1
  Na  Na31  1  0.49917116  0.99994837  0.49639054  1
  Na  Na32  1  0.99986004  0.00196559  0.99985752  1
  Na  Na33  1  0.49938839  0.99898945  0.99808531  1
  Na  Na34  1  0.33543896  0.32470449  0.83064868  1
  Na  Na35  1  0.84027912  0.33337221  0.83216457  1
  Na  Na36  1  0.33956203  0.35319483  0.33312046  1
  Na  Na37  1  0.84091415  0.35594276  0.33292224  1
  Na  Na38  1  0.16311820  0.64582274  0.16778615  1
  Na  Na39  1  0.66303924  0.64603651  0.16766650  1
  Na  Na40  1  0.16230743  0.68120348  0.66932496  1
  Na  Na41  1  0.66684080  0.66626926  0.66769362  1
  La  La0  1  0.99518576  0.99457798  0.34778641  1
  La  La1  1  0.49483160  0.99397010  0.34716026  1
  La  La2  1  0.99406681  0.99100955  0.84084879  1
  La  La3  1  0.50397246  0.00666258  0.84196813  1
  La  La4  1  0.00008635  0.99173828  0.65881585  1
  La  La5  1  0.99785699  0.00559042  0.15162668  1
  La  La6  1  0.49765681  0.00550679  0.15113950  1
  La  La7  1  0.33050326  0.32459876  0.67418147  1
  La  La8  1  0.33805099  0.33856027  0.48424746  1
  La  La9  1  0.83112347  0.32601498  0.48368729  1
  La  La10  1  0.16692630  0.66665827  0.01839398  1
  La  La11  1  0.66816167  0.66634069  0.01997501  1
  Nb  Nb0  1  0.49891337  0.99834164  0.65439217  1
  Nb  Nb1  1  0.83518695  0.33390565  0.68030068  1
  Nb  Nb2  1  0.33807367  0.34846078  0.18466578  1
  Nb  Nb3  1  0.83860357  0.34935914  0.18477071  1
  Nb  Nb4  1  0.33367803  0.33556744  0.97768336  1
  Nb  Nb5  1  0.83338558  0.33267499  0.97769388  1
  Nb  Nb6  1  0.16459630  0.66696239  0.51848402  1
  Nb  Nb7  1  0.66841814  0.66541589  0.52037120  1
  Nb  Nb8  1  0.16416183  0.65085179  0.31552631  1
  Nb  Nb9  1  0.66385437  0.65107489  0.31493710  1
  Nb  Nb10  1  0.16754286  0.67845722  0.82126926  1
  Nb  Nb11  1  0.66530827  0.66985424  0.81796260  1
  Si  Si0  1  0.33861268  0.68116043  0.25040747  1
  Si  Si1  1  0.83874433  0.68153447  0.25038837  1
  Si  Si2  1  0.99810495  0.31883886  0.24968128  1
  Si  Si3  1  0.49772793  0.31847456  0.24962881  1
  Si  Si4  1  0.65557626  0.31192147  0.74871372  1
  Si  Si5  1  0.00028815  0.67014111  0.74947830  1
  Si  Si6  1  0.50173079  0.69381333  0.75313266  1
  Si  Si7  1  0.34376384  0.99152140  0.75396289  1
  Si  Si8  1  0.83798071  0.99961545  0.75065399  1
  Si  Si9  1  0.49251685  0.32939319  0.58356703  1
  Si  Si10  1  0.98641463  0.33754775  0.58130429  1
  Si  Si11  1  0.17639611  0.01840378  0.57634660  1
  Si  Si12  1  0.67881610  0.02606406  0.58483704  1
  Si  Si13  1  0.33421920  0.65372938  0.58467163  1
  Si  Si14  1  0.83141997  0.63341913  0.58062645  1
  Si  Si15  1  0.47477499  0.62054101  0.08085319  1
  Si  Si16  1  0.97465671  0.62053848  0.08037195  1
  Si  Si17  1  0.33414907  0.05672321  0.08438953  1
  Si  Si18  1  0.83447883  0.05654987  0.08497024  1
  Si  Si19  1  0.19210882  0.32762203  0.08263326  1
  Si  Si20  1  0.69255698  0.32691640  0.08267422  1
  Si  Si21  1  0.31568093  0.65920423  0.91766332  1
  Si  Si22  1  0.81400736  0.65629301  0.91680424  1
  Si  Si23  1  0.01580883  0.36996453  0.91916571  1
  Si  Si24  1  0.51407242  0.37201680  0.91815700  1
  Si  Si25  1  0.17099301  0.97700855  0.91895637  1
  Si  Si26  1  0.67126213  0.97257346  0.91976689  1
  Si  Si27  1  0.30675925  0.94807970  0.41411455  1
  Si  Si28  1  0.80665178  0.94513585  0.41508083  1
  Si  Si29  1  0.16589906  0.37782854  0.41986377  1
  Si  Si30  1  0.66558764  0.37855147  0.41778460  1
  Si  Si31  1  0.02522264  0.66778956  0.41522796  1
  Si  Si32  1  0.52867790  0.67219706  0.41780100  1
  S  S0  1  0.16184080  0.00009654  0.24996641  1
  S  S1  1  0.66194406  0.00048329  0.25036954  1
  S  S2  1  0.15962201  0.33232174  0.75412131  1
  O  O0  1  0.12284696  0.02093967  0.30246432  1
  O  O1  1  0.62273527  0.02064952  0.30278253  1
  O  O2  1  0.39309701  0.75338802  0.30944155  1
  O  O3  1  0.89311285  0.75370921  0.30921093  1
  O  O4  1  0.47722477  0.19721444  0.30608783  1
  O  O5  1  0.97665995  0.19705857  0.30594179  1
  O  O6  1  0.11740306  0.23315531  0.80550632  1
  O  O7  1  0.63435536  0.21213399  0.80918276  1
  O  O8  1  0.48882722  0.76102264  0.81399160  1
  O  O9  1  0.97414925  0.73937820  0.80535503  1
  O  O10  1  0.39089944  0.01832755  0.81482911  1
  O  O11  1  0.89019808  0.03692365  0.80977216  1
  O  O12  1  0.40522865  0.97747479  0.70107119  1
  O  O13  1  0.87376916  0.94805539  0.69526937  1
  O  O14  1  0.11627290  0.25398477  0.69932143  1
  O  O15  1  0.58476744  0.19325611  0.69955092  1
  O  O16  1  0.01884599  0.77770398  0.69042086  1
  O  O17  1  0.50974997  0.82866122  0.70053255  1
  O  O18  1  0.37918088  0.80436674  0.19459408  1
  O  O19  1  0.87865745  0.80379519  0.19424438  1
  O  O20  1  0.01558057  0.24473642  0.19090810  1
  O  O21  1  0.51585222  0.24495101  0.19103061  1
  O  O22  1  0.11236620  0.97960281  0.19695292  1
  O  O23  1  0.61202391  0.97928938  0.19723240  1
  O  O24  1  0.45800250  0.38132568  0.63915108  1
  O  O25  1  0.92431261  0.35130928  0.63191610  1
  O  O26  1  0.23965642  0.08829238  0.63055582  1
  O  O27  1  0.74699276  0.13781513  0.63516161  1
  O  O28  1  0.30978687  0.53761039  0.64179632  1
  O  O29  1  0.82281315  0.50268287  0.63387847  1
  O  O30  1  0.41929469  0.51185418  0.13797736  1
  O  O31  1  0.91942917  0.51214706  0.13760988  1
  O  O32  1  0.33554679  0.16189479  0.14226751  1
  O  O33  1  0.83608544  0.16262167  0.14242764  1
  O  O34  1  0.24746626  0.32341357  0.13751934  1
  O  O35  1  0.74785362  0.32300107  0.13742510  1
  O  O36  1  0.24329030  0.32715732  0.02205175  1
  O  O37  1  0.74414641  0.32711394  0.02191496  1
  O  O38  1  0.42011002  0.51538006  0.02245809  1
  O  O39  1  0.92026048  0.51505239  0.02173417  1
  O  O40  1  0.33592134  0.16560733  0.02488265  1
  O  O41  1  0.83589302  0.16495185  0.02505357  1
  O  O42  1  0.21626545  0.13313326  0.51907556  1
  O  O43  1  0.70279783  0.12898556  0.52437522  1
  O  O44  1  0.36221311  0.58546880  0.52925860  1
  O  O45  1  0.84613602  0.56495736  0.52020552  1
  O  O46  1  0.43326644  0.27577302  0.52684537  1
  O  O47  1  0.93609928  0.29660029  0.52068748  1
  O  O48  1  0.28108429  0.68919321  0.97793246  1
  O  O49  1  0.78181913  0.69059544  0.97692714  1
  O  O50  1  0.06212986  0.42883866  0.98102898  1
  O  O51  1  0.56405741  0.44222111  0.97781364  1
  O  O52  1  0.14999123  0.87340529  0.97849998  1
  O  O53  1  0.65713680  0.87472195  0.97989672  1
  O  O54  1  0.25123923  0.83693096  0.47138394  1
  O  O55  1  0.75501230  0.84090251  0.47558124  1
  O  O56  1  0.16240836  0.47707640  0.47900734  1
  O  O57  1  0.66761849  0.49144902  0.47467992  1
  O  O58  1  0.07649655  0.66217343  0.47387018  1
  O  O59  1  0.57920477  0.67079333  0.47856467  1
  O  O60  1  0.08316675  0.67112969  0.36069934  1
  O  O61  1  0.58490516  0.67365880  0.36280422  1
  O  O62  1  0.25517803  0.84394881  0.35615511  1
  O  O63  1  0.75405249  0.83784638  0.35808501  1
  O  O64  1  0.16609971  0.48974319  0.36283700  1
  O  O65  1  0.66367966  0.48577679  0.36057843  1
  O  O66  1  0.07786942  0.50933572  0.86865349  1
  O  O67  1  0.57027805  0.49777048  0.86162369  1
  O  O68  1  0.18085410  0.86076664  0.86546896  1
  O  O69  1  0.67485304  0.85208194  0.86504998  1
  O  O70  1  0.25093594  0.64388413  0.86318588  1
  O  O71  1  0.74982093  0.64389039  0.86141860  1
  O  O72  1  0.02294199  0.83705592  0.41833294  1
  O  O73  1  0.52431570  0.83959822  0.41998571  1
  O  O74  1  0.39488032  0.95570524  0.41948313  1
  O  O75  1  0.89494510  0.95542275  0.41961385  1
  O  O76  1  0.08340034  0.20143672  0.41906992  1
  O  O77  1  0.58160902  0.20450956  0.42066734  1
  O  O78  1  0.00056471  0.18765931  0.90796670  1
  O  O79  1  0.49926539  0.18930858  0.91100187  1
  O  O80  1  0.09731233  0.01196469  0.90528578  1
  O  O81  1  0.59671870  0.00803442  0.91291217  1
  O  O82  1  0.40776440  0.80994573  0.91067464  1
  O  O83  1  0.90634214  0.80786730  0.90904992  1
  O  O84  1  0.50614214  0.17085467  0.59716032  1
  O  O85  1  0.00368830  0.19004742  0.59554759  1
  O  O86  1  0.08602574  0.99669932  0.58378244  1
  O  O87  1  0.58722699  0.99584801  0.60301388  1
  O  O88  1  0.41606303  0.83900654  0.59739662  1
  O  O89  1  0.90677074  0.81638628  0.59039045  1
  O  O90  1  0.47898343  0.79582703  0.07958009  1
  O  O91  1  0.97844538  0.79547907  0.07911192  1
  O  O92  1  0.41773098  0.04698424  0.07967248  1
  O  O93  1  0.91796405  0.04693872  0.07956143  1
  O  O94  1  0.10441564  0.15946862  0.08000392  1
  O  O95  1  0.60478660  0.15962788  0.07993699  1
  O  O96  1  0.33756495  0.15284268  0.74267893  1
  O  O97  1  0.82135990  0.15365924  0.73737143  1
  O  O98  1  0.24401405  0.35818611  0.75388011  1
  O  O99  1  0.74594343  0.34128703  0.72938658  1
  O  O100  1  0.42467792  0.51418506  0.74287989  1
  O  O101  1  0.91529253  0.48954248  0.73697100  1
  O  O102  1  0.32540443  0.49618090  0.23963830  1
  O  O103  1  0.82534660  0.49641562  0.23946765  1
  O  O104  1  0.41331625  0.33056987  0.24224075  1
  O  O105  1  0.91388348  0.33193932  0.24202397  1
  O  O106  1  0.24533460  0.14579132  0.24527640  1
  O  O107  1  0.74521127  0.14566185  0.24544531  1
  O  O108  1  0.31401840  0.48055962  0.91807292  1
  O  O109  1  0.81405770  0.48021652  0.91674023  1
  O  O110  1  0.42634841  0.37322745  0.91802302  1
  O  O111  1  0.92757530  0.37058163  0.91841759  1
  O  O112  1  0.26024812  0.14831948  0.91914911  1
  O  O113  1  0.76114026  0.14581100  0.91805111  1
  O  O114  1  0.31474831  0.12749490  0.41240217  1
  O  O115  1  0.81009980  0.12015802  0.41222087  1
  O  O116  1  0.25119155  0.37711557  0.41518486  1
  O  O117  1  0.74838840  0.37007761  0.41206891  1
  O  O118  1  0.44078843  0.50536069  0.41366949  1
  O  O119  1  0.93679527  0.50247529  0.41182979  1
  O  O120  1  0.18735887  0.49348550  0.08854847  1
  O  O121  1  0.68814468  0.49290206  0.08890010  1
  O  O122  1  0.06095583  0.62689540  0.08779261  1
  O  O123  1  0.56088654  0.62617454  0.08837165  1
  O  O124  1  0.25159072  0.87989695  0.08836607  1
  O  O125  1  0.75217842  0.88003951  0.08964410  1
  O  O126  1  0.16500815  0.83265175  0.57057645  1
  O  O127  1  0.67313485  0.84449721  0.58140035  1
  O  O128  1  0.25462841  0.67872542  0.57301866  1
  O  O129  1  0.74516650  0.64145644  0.58058737  1
  O  O130  1  0.07496063  0.51112240  0.58085852  1
  O  O131  1  0.58385212  0.49180104  0.57347089  1
  O  O132  1  0.17251758  0.85426609  0.25433064  1
  O  O133  1  0.67253961  0.85448686  0.25476630  1
  O  O134  1  0.24817906  0.66935804  0.25802623  1
  O  O135  1  0.74811500  0.66967774  0.25808882  1
  O  O136  1  0.07827657  0.50298085  0.26046919  1
  O  O137  1  0.57723577  0.50362897  0.26045576  1
  O  O138  1  0.16477815  0.49472763  0.75715766  1
  O  O139  1  0.65869914  0.49018687  0.75343641  1
  O  O140  1  0.08363795  0.65948182  0.76444637  1
  O  O141  1  0.58877777  0.68984563  0.75478378  1
  O  O142  1  0.25639777  0.81406872  0.75610569  1
  O  O143  1  0.74692697  0.83210226  0.76200112  1
loop_
_geom_bond_atom_site_label_1
_geom_bond_atom_site_label_2
_geom_bond_distance
_geom_bond_site_symmetry_2
Na0 O132 2.494504 1_555
Na0 O106 2.498349 1_565
Na0 O134 2.710961 1_555
Na0 O104 2.719794 1_565
Na0 O62 2.804670 1_555
Na0 O18 2.826237 1_555
Na0 O32 2.849249 1_565
Na0 O4 2.850202 1_565
Na1 O107 2.502535 1_555
Na1 O133 2.510418 1_545
Na1 O105 2.718030 1_555
Na1 O135 2.720895 1_545
Na1 O19 2.826050 1_545
Na1 O5 2.827677 1_555
Na1 O33 2.841223 1_555
Na1 O63 2.874724 1_545
Na2 O98 2.362067 1_555
Na2 O142 2.524293 1_555
Na2 O28 2.593616 1_555
Na2 O138 2.643885 1_555
Na2 O100 2.721783 1_555
Na2 O12 2.921077 1_555
Na2 O70 2.990468 1_555
Na3 O99 2.475258 1_555
Na3 O139 2.655378 1_555
Na3 O101 2.799023 1_555
Na3 O143 2.810997 1_555
Na3 O13 2.831895 1_555
Na3 O9 2.893147 1_555
Na3 O29 2.919264 1_555
Na3 O71 2.937951 1_555
Na4 O100 2.388693 1_555
Na4 O24 2.564397 1_555
Na4 O96 2.610372 1_555
Na4 O141 2.711414 1_555
Na4 O139 2.729573 1_555
Na4 O67 2.990129 1_555
Na4 O15 3.055723 1_555
Na5 O97 2.362953 1_555
Na5 O143 2.581593 1_545
Na5 O141 2.610870 1_545
Na5 O99 2.787521 1_555
Na5 O7 2.810776 1_555
Na5 O27 2.913031 1_555
Na5 O17 2.987843 1_545
Na5 O69 2.999762 1_545
Na6 O85 2.409608 1_555
Na6 O56 2.640777 1_555
Na6 O130 2.701918 1_555
Na6 O86 2.756277 1_545
Na6 O14 2.811688 1_555
Na6 O128 2.882100 1_555
Na6 O28 3.025848 1_555
Na6 O42 3.067063 1_555
Na7 O84 2.463772 1_555
Na7 O131 2.521267 1_555
Na7 O129 2.582695 1_555
Na7 O87 2.768745 1_545
Na7 O43 2.793649 1_555
Na7 O57 2.852536 1_555
Na7 O15 2.979871 1_555
Na7 O29 2.997500 1_555
Na8 O86 2.427900 1_555
Na8 O16 2.501394 1_555
Na8 O126 2.518090 1_555
Na8 O130 2.581011 1_555
Na8 O89 2.736870 1_455
Na8 O58 2.918886 1_555
Na9 O87 2.532143 1_555
Na9 O127 2.637003 1_555
Na9 O59 2.766120 1_555
Na9 O44 2.788204 1_555
Na9 O88 2.811887 1_555
Na9 O131 2.830086 1_555
Na9 O24 2.874177 1_555
Na9 O17 2.991888 1_555
Na10 O128 2.476244 1_555
Na10 O88 2.581151 1_555
Na10 O26 2.646300 1_565
Na10 O126 2.733728 1_555
Na10 O46 2.786071 1_565
Na10 O84 2.902517 1_565
Na10 O54 2.917494 1_555
Na11 O89 2.389535 1_555
Na11 O13 2.595642 1_555
Na11 O129 2.719930 1_555
Na11 O127 2.744736 1_555
Na11 O85 2.755568 1_665
Na11 O55 2.939791 1_555
Na12 O94 2.412331 1_565
Na12 O52 2.442568 1_554
Na12 O124 2.450692 1_555
Na12 O122 2.705171 1_555
Na12 O91 2.747736 1_455
Na12 O22 2.811541 1_555
Na13 O95 2.408889 1_565
Na13 O53 2.424968 1_554
Na13 O125 2.465766 1_555
Na13 O123 2.711318 1_555
Na13 O90 2.736678 1_555
Na13 O23 2.831766 1_555
Na14 O120 2.475617 1_555
Na14 O90 2.481945 1_555
Na14 O48 2.564704 1_554
Na14 O124 2.698992 1_555
Na14 O18 2.700159 1_555
Na14 O92 2.746457 1_565
Na15 O91 2.467948 1_555
Na15 O121 2.470326 1_555
Na15 O49 2.605910 1_554
Na15 O19 2.668519 1_555
Na15 O125 2.697342 1_555
Na15 O93 2.747783 1_565
Na16 O93 2.456624 1_455
Na16 O122 2.470429 1_555
Na16 O50 2.482618 1_554
Na16 O20 2.581211 1_555
Na16 O120 2.688282 1_555
Na16 O94 2.776893 1_555
Na17 O92 2.450511 1_555
Na17 O123 2.467461 1_555
Na17 O51 2.583106 1_554
Na17 O21 2.586360 1_555
Na17 O121 2.711277 1_555
Na17 O95 2.785774 1_555
Na18 O82 2.338152 1_555
Na18 O8 2.378335 1_555
Na18 O110 2.527268 1_555
Na18 O81 2.754980 1_565
Na18 O108 2.813324 1_555
Na18 O38 2.876659 1_556
Na19 O83 2.394323 1_555
Na19 O111 2.500152 1_555
Na19 O9 2.591208 1_555
Na19 O109 2.805281 1_555
Na19 O39 2.824440 1_556
Na19 O80 2.834666 1_665
Na20 O10 2.371039 1_555
Na20 O79 2.373938 1_555
Na20 O112 2.567018 1_555
Na20 O82 2.697447 1_545
Na20 O110 2.850462 1_555
Na20 O40 2.973568 1_556
Na21 O78 2.413403 1_655
Na21 O11 2.467799 1_555
Na21 O113 2.476714 1_555
Na21 O83 2.754363 1_545
Na21 O111 2.785922 1_555
Na21 O41 2.942440 1_556
Na22 O80 2.383133 1_555
Na22 O108 2.523862 1_555
Na22 O78 2.680869 1_555
Na22 O6 2.704487 1_555
Na22 O36 2.766370 1_556
Na22 O112 2.875886 1_555
Na23 O81 2.349660 1_555
Na23 O7 2.499823 1_555
Na23 O109 2.514421 1_555
Na23 O79 2.723622 1_555
Na23 O37 2.850344 1_556
Na23 O113 2.854034 1_555
Na24 O118 2.476418 1_555
Na24 O77 2.480708 1_555
Na24 O4 2.632435 1_555
Na24 O114 2.639495 1_555
Na24 O46 2.674194 1_555
Na24 O74 2.701878 1_545
Na25 O119 2.485448 1_555
Na25 O47 2.515672 1_555
Na25 O76 2.533767 1_655
Na25 O5 2.682342 1_555
Na25 O75 2.737576 1_545
Na25 O115 2.740675 1_555
Na26 O42 2.385580 1_555
Na26 O72 2.451562 1_545
Na26 O114 2.490742 1_555
Na26 O76 2.673711 1_555
Na26 O116 2.729397 1_555
Na26 O0 2.847655 1_555
Na27 O73 2.403114 1_545
Na27 O115 2.440100 1_555
Na27 O43 2.502681 1_555
Na27 O117 2.687896 1_555
Na27 O77 2.719699 1_555
Na27 O1 2.791647 1_555
Na28 O116 2.434518 1_555
Na28 O74 2.459975 1_555
Na28 O2 2.548036 1_555
Na28 O118 2.716300 1_555
Na28 O44 2.732474 1_555
Na28 O73 2.779908 1_555
Na29 O75 2.487046 1_555
Na29 O117 2.488008 1_555
Na29 O45 2.516579 1_555
Na29 O3 2.578129 1_555
Na29 O119 2.629833 1_555
Na29 O72 2.731162 1_655
Na30 O86 2.483091 1_555
Na30 O76 2.578057 1_565
Na30 O72 2.596541 1_555
Na30 O75 2.624284 1_455
Na30 O89 2.688286 1_455
Na30 O85 2.806908 1_565
Na31 O77 2.479564 1_565
Na31 O73 2.513803 1_555
Na31 O74 2.518940 1_555
Na31 O88 2.779911 1_555
Na31 O84 2.784726 1_565
Na31 O87 2.965518 1_555
Na32 O91 2.540926 1_546
Na32 O94 2.562176 1_656
Na32 O93 2.564773 1_556
Na32 O78 2.731654 1_655
Na32 O83 2.755180 1_545
Na32 O80 2.815411 1_655
Na33 O90 2.560725 1_556
Na33 O95 2.603780 1_566
Na33 O92 2.605952 1_566
Na33 O81 2.654789 1_565
Na33 O82 2.668829 1_555
Na33 O79 2.682269 1_565
Na34 O110 2.526437 1_555
Na34 O112 2.554005 1_555
Na34 O98 2.592833 1_555
Na34 O96 2.603626 1_555
Na34 O108 2.636938 1_555
Na34 O100 2.656796 1_555
Na35 O111 2.484039 1_555
Na35 O113 2.565692 1_555
Na35 O109 2.573953 1_555
Na35 O101 2.614303 1_555
Na35 O97 2.670851 1_555
Na35 O99 2.975776 1_555
Na36 O118 2.528939 1_555
Na36 O104 2.574075 1_555
Na36 O116 2.600254 1_555
Na36 O102 2.612009 1_555
Na36 O114 2.654162 1_555
Na36 O106 2.755146 1_555
Na37 O119 2.443779 1_555
Na37 O117 2.570182 1_555
Na37 O105 2.570416 1_555
Na37 O103 2.607778 1_555
Na37 O115 2.698718 1_555
Na37 O107 2.767873 1_555
Na38 O120 2.499884 1_555
Na38 O134 2.558967 1_555
Na38 O136 2.593115 1_555
Na38 O122 2.602947 1_555
Na38 O124 2.698948 1_555
Na38 O132 2.740295 1_555
Na39 O121 2.504918 1_555
Na39 O135 2.562275 1_555
Na39 O123 2.588944 1_555
Na39 O137 2.600861 1_555
Na39 O125 2.679938 1_555
Na39 O133 2.749006 1_555
Na40 O142 2.543383 1_555
Na40 O140 2.587595 1_555
Na40 O130 2.603112 1_555
Na40 O126 2.659005 1_555
Na40 O138 2.685946 1_555
Na40 O128 2.821187 1_555
Na41 O139 2.524351 1_555
Na41 O127 2.556499 1_555
Na41 O141 2.557653 1_555
Na41 O129 2.565480 1_555
Na41 O143 2.656097 1_555
Na41 O131 2.695420 1_555
La0 O3 2.304404 1_555
La0 O5 2.316155 1_565
La0 O75 2.395525 1_555
La0 O72 2.422480 1_655
La0 O76 2.454708 1_665
La0 O0 2.525277 1_665
La1 O2 2.293158 1_555
La1 O4 2.305675 1_565
La1 O74 2.401467 1_555
La1 O73 2.453367 1_555
La1 O77 2.497664 1_565
La1 O1 2.519503 1_565
La2 O83 2.303744 1_555
La2 O11 2.325706 1_565
La2 O9 2.361146 1_555
La2 O78 2.370264 1_665
La2 O80 2.375858 1_665
La2 O6 2.448820 1_665
La3 O10 2.283088 1_555
La3 O8 2.286370 1_545
La3 O7 2.372948 1_555
La3 O79 2.377987 1_555
La3 O81 2.385905 1_555
La3 O82 2.418917 1_545
La4 O89 2.325005 1_455
La4 O16 2.335188 1_555
La4 O85 2.339629 1_565
La4 O86 2.350426 1_555
La4 O13 2.365847 1_455
La4 O14 2.530672 1_565
La5 O20 2.298915 1_655
La5 O19 2.317957 1_545
La5 O93 2.396744 1_555
La5 O94 2.435335 1_655
La5 O91 2.474527 1_545
La5 O22 2.522365 1_645
La6 O21 2.303943 1_555
La6 O18 2.316314 1_545
La6 O92 2.388382 1_555
La6 O95 2.435058 1_555
La6 O90 2.460457 1_545
La6 O23 2.528324 1_545
La7 O26 2.261872 1_555
La7 O96 2.305428 1_555
La7 O24 2.336951 1_555
La7 O28 2.353465 1_555
La7 O100 2.383645 1_555
La7 O98 2.575802 1_555
La8 O42 2.289366 1_555
La8 O46 2.369517 1_555
La8 O44 2.380091 1_555
La8 O118 2.409045 1_555
La8 O116 2.434544 1_555
La8 O114 2.453105 1_555
La9 O45 2.291406 1_555
La9 O47 2.300298 1_555
La9 O43 2.389347 1_555
La9 O115 2.421603 1_555
La9 O117 2.440887 1_555
La9 O119 2.478606 1_555
La10 O48 2.261296 1_554
La10 O50 2.296279 1_554
La10 O52 2.317869 1_554
La10 O122 2.436177 1_555
La10 O124 2.446083 1_555
La10 O120 2.454705 1_555
La11 O51 2.267199 1_554
La11 O49 2.271565 1_554
La11 O53 2.272973 1_554
La11 O121 2.434136 1_555
La11 O123 2.438888 1_555
La11 O125 2.440769 1_555
Nb0 O12 1.994127 1_555
Nb0 O17 2.012393 1_555
Nb0 O88 2.019371 1_555
Nb0 O15 2.029959 1_565
Nb0 O84 2.039603 1_565
Nb0 O87 2.054187 1_555
Nb1 O25 1.955343 1_555
Nb1 O101 1.981186 1_555
Nb1 O29 2.023227 1_555
Nb1 O27 2.051029 1_555
Nb1 O97 2.054501 1_555
Nb1 O99 2.059394 1_555
Nb2 O30 1.873898 1_555
Nb2 O34 1.937825 1_555
Nb2 O102 1.983808 1_555
Nb2 O32 1.994939 1_555
Nb2 O104 2.007661 1_555
Nb2 O106 2.303164 1_555
Nb3 O31 1.874665 1_555
Nb3 O35 1.938677 1_555
Nb3 O103 1.980281 1_555
Nb3 O33 1.995807 1_555
Nb3 O105 2.001426 1_555
Nb3 O107 2.312708 1_555
Nb4 O40 1.951694 1_556
Nb4 O36 1.957153 1_556
Nb4 O38 1.960846 1_556
Nb4 O108 2.092287 1_555
Nb4 O112 2.100589 1_555
Nb4 O110 2.108194 1_555
Nb5 O41 1.938325 1_556
Nb5 O37 1.947676 1_556
Nb5 O39 1.966516 1_556
Nb5 O113 2.109805 1_555
Nb5 O111 2.123577 1_555
Nb5 O109 2.127043 1_555
Nb6 O58 1.936035 1_555
Nb6 O54 1.947597 1_555
Nb6 O126 1.968047 1_555
Nb6 O56 1.993770 1_555
Nb6 O128 2.069599 1_555
Nb6 O130 2.140335 1_555
Nb7 O55 1.940456 1_555
Nb7 O57 1.945055 1_555
Nb7 O59 1.962961 1_555
Nb7 O131 2.024699 1_555
Nb7 O129 2.094237 1_555
Nb7 O127 2.164977 1_555
Nb8 O64 1.881596 1_555
Nb8 O60 1.937222 1_555
Nb8 O136 1.980215 1_555
Nb8 O134 2.003751 1_555
Nb8 O62 2.007451 1_555
Nb8 O132 2.316561 1_555
Nb9 O65 1.875939 1_555
Nb9 O61 1.949651 1_555
Nb9 O137 1.977217 1_555
Nb9 O135 1.997171 1_555
Nb9 O63 2.000744 1_555
Nb9 O133 2.300324 1_555
Nb10 O68 1.905958 1_555
Nb10 O66 1.973455 1_555
Nb10 O140 1.989975 1_555
Nb10 O70 2.007677 1_555
Nb10 O142 2.129519 1_555
Nb10 O138 2.257426 1_555
Nb11 O69 1.964913 1_555
Nb11 O67 1.987453 1_555
Nb11 O71 1.999375 1_555
Nb11 O143 2.000957 1_555
Nb11 O141 2.120063 1_555
Nb11 O139 2.209761 1_555
O0 S0 1.474838 1_555
O1 S1 1.473105 1_555
O2 Si0 1.629486 1_555
O3 Si1 1.624488 1_555
O4 Si3 1.637874 1_555
O5 Si2 1.635227 1_555
O6 S2 1.465357 1_555
O7 Si4 1.606782 1_555
O8 Si6 1.601269 1_555
O9 Si5 1.624148 1_655
O10 Si7 1.604845 1_545
O11 Si8 1.607751 1_545
O12 Si7 1.730241 1_555
O13 Si8 1.624146 1_555
O14 S2 1.480392 1_555
O15 Si4 1.680379 1_555
O16 Si5 1.618866 1_555
O17 Si6 1.701790 1_555
O18 Si0 1.636337 1_555
O19 Si1 1.636624 1_555
O20 Si2 1.626986 1_455
O21 Si3 1.625928 1_555
O22 S0 1.485067 1_565
O23 S1 1.490947 1_565
O24 Si9 1.615968 1_555
O25 Si10 1.701744 1_555
O26 Si11 1.619235 1_555
O27 Si12 1.658520 1_555
O28 Si13 1.616811 1_555
O29 Si14 1.682404 1_555
O30 Si15 1.668589 1_555
O31 Si16 1.668257 1_555
O32 Si17 1.650780 1_555
O33 Si18 1.647027 1_555
O34 Si19 1.648464 1_555
O35 Si20 1.644422 1_555
O36 Si19 1.693280 1_555
O37 Si20 1.699234 1_555
O38 Si15 1.680205 1_555
O39 Si16 1.683905 1_555
O40 Si17 1.695190 1_555
O41 Si18 1.701940 1_555
O42 Si11 1.624733 1_555
O43 Si12 1.618625 1_555
O44 Si13 1.628749 1_555
O45 Si14 1.610758 1_555
O46 Si9 1.622951 1_555
O47 Si10 1.617018 1_555
O48 Si21 1.612737 1_555
O49 Si22 1.603430 1_555
O50 Si23 1.612020 1_555
O51 Si24 1.604993 1_555
O52 Si25 1.605931 1_555
O53 Si26 1.602406 1_555
O54 Si27 1.678526 1_555
O55 Si28 1.695793 1_555
O56 Si29 1.669202 1_555
O57 Si30 1.674219 1_555
O58 Si31 1.672064 1_555
O59 Si32 1.691173 1_555
O60 Si31 1.651810 1_555
O61 Si32 1.644476 1_555
O62 Si27 1.651470 1_555
O63 Si28 1.648766 1_555
O64 Si29 1.676753 1_555
O65 Si30 1.665087 1_555
O66 Si23 1.702740 1_555
O67 Si24 1.717248 1_555
O68 Si25 1.718673 1_555
O69 Si26 1.719272 1_555
O70 Si21 1.702745 1_555
O71 Si22 1.718548 1_555
O72 Si31 1.623926 1_555
O73 Si32 1.626276 1_555
O74 Si27 1.637687 1_555
O75 Si28 1.628075 1_555
O76 Si29 1.617898 1_555
O77 Si30 1.619970 1_555
O78 Si23 1.620073 1_555
O79 Si24 1.614478 1_555
O80 Si25 1.616018 1_545
O81 Si26 1.612415 1_545
O82 Si21 1.615992 1_555
O83 Si22 1.623521 1_555
O84 Si9 1.671282 1_555
O85 Si10 1.615706 1_455
O86 Si11 1.626789 1_565
O87 Si12 1.662969 1_565
O88 Si13 1.686258 1_555
O89 Si14 1.616352 1_555
O90 Si15 1.618940 1_555
O91 Si16 1.619360 1_555
O92 Si17 1.633644 1_555
O93 Si18 1.632303 1_555
O94 Si19 1.627745 1_555
O95 Si20 1.624822 1_555
O96 Si7 1.607145 1_545
O97 Si8 1.663542 1_545
O98 S2 1.490349 1_555
O99 Si4 1.650529 1_555
O100 Si6 1.610221 1_555
O101 Si5 1.685990 1_655
O102 Si0 1.657324 1_555
O103 Si1 1.657797 1_555
O104 Si3 1.666305 1_555
O105 Si2 1.668583 1_555
O106 S0 1.493487 1_555
O107 S1 1.489392 1_555
O108 Si21 1.673337 1_555
O109 Si22 1.665039 1_555
O110 Si24 1.666189 1_555
O111 Si23 1.673084 1_655
O112 Si25 1.656212 1_545
O113 Si26 1.671385 1_545
O114 Si27 1.626218 1_545
O115 Si28 1.624107 1_545
O116 Si29 1.621403 1_555
O117 Si30 1.614181 1_555
O118 Si32 1.625672 1_555
O119 Si31 1.623765 1_655
O120 Si19 1.620837 1_555
O121 Si20 1.619181 1_555
O122 Si16 1.613167 1_455
O123 Si15 1.613088 1_555
O124 Si17 1.622870 1_565
O125 Si18 1.619983 1_565
O126 Si11 1.664496 1_565
O127 Si12 1.667418 1_565
O128 Si13 1.658729 1_555
O129 Si14 1.671864 1_555
O130 Si10 1.659370 1_455
O131 Si9 1.657008 1_555
O132 S0 1.492997 1_565
O133 S1 1.493683 1_565
O134 Si0 1.668021 1_555
O135 Si1 1.671666 1_555
O136 Si2 1.660238 1_455
O137 Si3 1.661252 1_555
O138 S2 1.490778 1_555
O139 Si4 1.660332 1_555
O140 Si5 1.665681 1_555
O141 Si6 1.667086 1_555
O142 Si7 1.666993 1_555
O143 Si8 1.678294 1_555
