# generated using pymatgen
data_BaLaMg(CoO3)2
_symmetry_space_group_name_H-M   'P 1'
_cell_length_a   3.86051619
_cell_length_b   3.86051619
_cell_length_c   11.25126975
_cell_angle_alpha   90.00000000
_cell_angle_beta   90.00000000
_cell_angle_gamma   90.00000000
_symmetry_Int_Tables_number   1
_chemical_formula_structural   BaLaMg(CoO3)2
_chemical_formula_sum   'Ba1 La1 Mg1 Co2 O6'
_cell_volume   167.68425793
_cell_formula_units_Z   1
loop_
 _symmetry_equiv_pos_site_id
 _symmetry_equiv_pos_as_xyz
  1  'x, y, z'
loop_
 _atom_site_type_symbol
 _atom_site_label
 _atom_site_symmetry_multiplicity
 _atom_site_fract_x
 _atom_site_fract_y
 _atom_site_fract_z
 _atom_site_occupancy
  Ba  Ba0  1  -0.00000000  -0.00000000  0.55698059  1
  La  La0  1  0.00000000  -0.00000000  0.89073860  1
  Mg  Mg0  1  -0.00000000  -0.00000000  0.24098718  1
  Co  Co0  1  0.49999900  0.49999900  0.74980282  1
  Co  Co1  1  0.49999900  0.49999900  0.33541672  1
  O  O0  1  0.49999900  0.49999900  0.49724877  1
  O  O1  1  0.49999900  -0.00000000  0.74334099  1
  O  O2  1  0.00000000  0.49999900  0.74334099  1
  O  O3  1  0.49999900  -0.00000000  0.27609009  1
  O  O4  1  0.49999900  0.49999900  0.93996416  1
  O  O5  1  -0.00000000  0.49999900  0.27609009  1
loop_
_geom_bond_atom_site_label_1
_geom_bond_atom_site_label_2
_geom_bond_distance
_geom_bond_site_symmetry_2
Ba0 O0 2.811303 1_555
Ba0 O0 2.811309 1_455
Ba0 O0 2.811309 1_545
Ba0 O0 2.811314 1_445
Ba0 O2 2.849985 1_555
Ba0 O1 2.849985 1_555
Ba0 O2 2.849990 1_545
Ba0 O1 2.849990 1_455
La0 O2 2.544839 1_555
La0 O1 2.544839 1_555
La0 O2 2.544845 1_545
La0 O1 2.544845 1_455
La0 O4 2.785411 1_555
La0 O4 2.785416 1_545
La0 O4 2.785416 1_455
La0 O4 2.785421 1_445
Mg0 O5 1.970246 1_555
Mg0 O3 1.970246 1_555
Mg0 O3 1.970253 1_455
Mg0 O5 1.970253 1_545
Co0 O2 1.931623 1_555
Co0 O1 1.931623 1_555
Co0 O1 1.931631 1_565
Co0 O2 1.931631 1_655
Co0 O4 2.139557 1_555
Co1 O0 1.820816 1_555
Co1 O5 2.042410 1_555
Co1 O3 2.042410 1_555
Co1 O5 2.042417 1_655
Co1 O3 2.042417 1_565
