# generated using pymatgen
data_Na5Sc2SiSn2P5O24
_symmetry_space_group_name_H-M   'P 1'
_cell_length_a   8.98085825
_cell_length_b   8.96386897
_cell_length_c   22.65527209
_cell_angle_alpha   90.03023326
_cell_angle_beta   89.86985039
_cell_angle_gamma   120.07090476
_symmetry_Int_Tables_number   1
_chemical_formula_structural   Na5Sc2SiSn2P5O24
_chemical_formula_sum   'Na15 Sc6 Si3 Sn6 P15 O72'
_cell_volume   1578.34263076
_cell_formula_units_Z   3
loop_
 _symmetry_equiv_pos_site_id
 _symmetry_equiv_pos_as_xyz
  1  'x, y, z'
loop_
 _atom_site_type_symbol
 _atom_site_label
 _atom_site_symmetry_multiplicity
 _atom_site_fract_x
 _atom_site_fract_y
 _atom_site_fract_z
 _atom_site_occupancy
  Na  Na0  1  0.00357371  0.63848081  0.25126316  1
  Na  Na1  1  0.63104393  0.64063366  0.75145001  1
  Na  Na2  1  0.37092981  0.99765055  0.75086971  1
  Na  Na3  1  0.66315207  0.96994650  0.58495490  1
  Na  Na4  1  0.29685441  0.96849157  0.08239095  1
  Na  Na5  1  0.67560155  0.69889839  0.08167738  1
  Na  Na6  1  0.02852289  0.33220930  0.08374411  1
  Na  Na7  1  0.96690131  0.29984605  0.41595435  1
  Na  Na8  1  0.33515482  0.03407107  0.41810511  1
  Na  Na9  1  0.00382814  0.99040584  0.50087062  1
  Na  Na10  1  0.99977127  0.99578902  0.99618133  1
  Na  Na11  1  0.67772088  0.32956893  0.83801333  1
  Na  Na12  1  0.65822327  0.33560110  0.33408099  1
  Na  Na13  1  0.33995023  0.66635280  0.17142997  1
  Na  Na14  1  0.31874247  0.65585826  0.66733472  1
  Sc  Sc0  1  0.99474576  0.99550121  0.34978513  1
  Sc  Sc1  1  0.99962300  0.99838756  0.15100300  1
  Sc  Sc2  1  0.67079093  0.33951934  0.97783904  1
  Sc  Sc3  1  0.66058291  0.33650631  0.48344497  1
  Sc  Sc4  1  0.34079238  0.66664545  0.31411461  1
  Sc  Sc5  1  0.33149097  0.66567225  0.81529596  1
  Si  Si0  1  0.71121387  0.00472915  0.74907326  1
  Si  Si1  1  0.36676325  0.03641695  0.58233002  1
  Si  Si2  1  0.96132823  0.62689275  0.08281997  1
  Sn  Sn0  1  0.99800053  0.00229613  0.85307572  1
  Sn  Sn1  1  0.00406026  0.00163195  0.64745310  1
  Sn  Sn2  1  0.67043418  0.33040194  0.68341003  1
  Sn  Sn3  1  0.66605506  0.33021401  0.18462766  1
  Sn  Sn4  1  0.32987811  0.66648034  0.01283352  1
  Sn  Sn5  1  0.33160716  0.66521717  0.51894562  1
  P  P0  1  0.29891672  0.00405605  0.24999011  1
  P  P1  1  0.70341831  0.70230656  0.24808347  1
  P  P2  1  0.99724023  0.29497246  0.24966837  1
  P  P3  1  0.29135664  0.29106616  0.74951726  1
  P  P4  1  0.99756136  0.70779141  0.74980536  1
  P  P5  1  0.96273477  0.33578228  0.58197105  1
  P  P6  1  0.66642420  0.62666057  0.58449993  1
  P  P7  1  0.66459600  0.04049176  0.08190783  1
  P  P8  1  0.37650190  0.33523594  0.08233087  1
  P  P9  1  0.62957749  0.66896207  0.91549616  1
  P  P10  1  0.03949449  0.36894544  0.91622085  1
  P  P11  1  0.33034100  0.96369861  0.91470341  1
  P  P12  1  0.62756489  0.95844844  0.41751042  1
  P  P13  1  0.33377205  0.37550359  0.41632909  1
  P  P14  1  0.04115752  0.66671943  0.41529297  1
  O  O0  1  0.21457706  0.02823076  0.30570818  1
  O  O1  1  0.82369882  0.78925996  0.30110399  1
  O  O2  1  0.97445160  0.18683147  0.30526156  1
  O  O3  1  0.21582211  0.16968978  0.80362596  1
  O  O4  1  0.95905800  0.78657221  0.80458903  1
  O  O5  1  0.83233445  0.03635206  0.80598757  1
  O  O6  1  0.78914776  0.96270975  0.68926029  1
  O  O7  1  0.18199165  0.21115846  0.69398221  1
  O  O8  1  0.03798112  0.82542565  0.69500783  1
  O  O9  1  0.78519871  0.80479727  0.19087636  1
  O  O10  1  0.01768137  0.21173317  0.19316551  1
  O  O11  1  0.18824312  0.97696182  0.19426896  1
  O  O12  1  0.88452225  0.36988008  0.63804094  1
  O  O13  1  0.48916394  0.11671454  0.64186803  1
  O  O14  1  0.64000477  0.52365669  0.64290613  1
  O  O15  1  0.88727474  0.50683697  0.14359575  1
  O  O16  1  0.61823978  0.11072173  0.13820859  1
  O  O17  1  0.49099890  0.37460123  0.13859554  1
  O  O18  1  0.45633385  0.29712537  0.02962838  1
  O  O19  1  0.83106053  0.53446940  0.02929080  1
  O  O20  1  0.69563670  0.15635334  0.02927724  1
  O  O21  1  0.45574392  0.14901781  0.52360344  1
  O  O22  1  0.69401666  0.54038640  0.53137450  1
  O  O23  1  0.85209044  0.30504960  0.52684652  1
  O  O24  1  0.55008902  0.69869827  0.97412895  1
  O  O25  1  0.14413511  0.44344807  0.97585229  1
  O  O26  1  0.29890958  0.85475744  0.97346313  1
  O  O27  1  0.55146891  0.85229658  0.47573738  1
  O  O28  1  0.29612506  0.45384473  0.47248863  1
  O  O29  1  0.16065386  0.70349859  0.47029559  1
  O  O30  1  0.12354062  0.63764408  0.35989571  1
  O  O31  1  0.50673165  0.86949689  0.36550715  1
  O  O32  1  0.35697974  0.48747865  0.36274775  1
  O  O33  1  0.13439137  0.48463026  0.86414096  1
  O  O34  1  0.35041963  0.87344411  0.86047832  1
  O  O35  1  0.52107236  0.65109973  0.86123727  1
  O  O36  1  0.02937102  0.83228909  0.41048881  1
  O  O37  1  0.80996207  0.98418467  0.41131247  1
  O  O38  1  0.16960370  0.19379348  0.41168465  1
  O  O39  1  0.02788708  0.18978403  0.91315231  1
  O  O40  1  0.16322907  0.97594947  0.91091467  1
  O  O41  1  0.81096783  0.83339978  0.91314626  1
  O  O42  1  0.96838277  0.16547124  0.58850868  1
  O  O43  1  0.17691685  0.01761320  0.58784932  1
  O  O44  1  0.82433909  0.81230059  0.58828287  1
  O  O45  1  0.98735796  0.82032630  0.08942584  1
  O  O46  1  0.82464882  0.02152764  0.09009274  1
  O  O47  1  0.19346996  0.18015091  0.09063657  1
  O  O48  1  0.68440081  0.17390263  0.74554439  1
  O  O49  1  0.47569194  0.31209813  0.74349664  1
  O  O50  1  0.82755721  0.53180222  0.74250094  1
  O  O51  1  0.69455777  0.52221274  0.24470244  1
  O  O52  1  0.83188340  0.31418674  0.24677432  1
  O  O53  1  0.47993338  0.16843000  0.24446520  1
  O  O54  1  0.64322522  0.50655819  0.92070119  1
  O  O55  1  0.86145651  0.35010626  0.92146662  1
  O  O56  1  0.49037409  0.14019923  0.92112546  1
  O  O57  1  0.64518591  0.14006430  0.42211774  1
  O  O58  1  0.49152695  0.35159453  0.42133151  1
  O  O59  1  0.86558805  0.50152399  0.42280002  1
  O  O60  1  0.36244234  0.50279786  0.07618524  1
  O  O61  1  0.15539266  0.64526422  0.07680849  1
  O  O62  1  0.50253592  0.85473110  0.07587936  1
  O  O63  1  0.36050160  0.84803717  0.57863436  1
  O  O64  1  0.50460891  0.64756026  0.57903255  1
  O  O65  1  0.14579854  0.49321921  0.57746772  1
  O  O66  1  0.31040139  0.83810535  0.25480712  1
  O  O67  1  0.52515721  0.68194407  0.25440730  1
  O  O68  1  0.15361883  0.47970738  0.25417463  1
  O  O69  1  0.31643924  0.47201739  0.75624260  1
  O  O70  1  0.15689345  0.68940637  0.75639199  1
  O  O71  1  0.51894235  0.83267624  0.75436717  1
loop_
_geom_bond_atom_site_label_1
_geom_bond_atom_site_label_2
_geom_bond_distance
_geom_bond_site_symmetry_2
Na0 O68 2.401712 1_555
Na0 O66 2.420964 1_555
Na0 O51 2.431733 1_455
Na0 O52 2.519255 1_455
Na0 O15 2.684520 1_455
Na0 O30 2.690360 1_555
Na0 O1 2.808822 1_455
Na0 O11 2.928343 1_555
Na1 O71 2.391173 1_555
Na1 O50 2.414765 1_555
Na1 O69 2.449167 1_555
Na1 O49 2.556318 1_555
Na1 O14 2.689617 1_555
Na1 O35 2.692981 1_555
Na1 O4 2.826867 1_555
Na1 O6 2.867635 1_555
Na2 O71 2.435303 1_555
Na2 O48 2.444901 1_565
Na2 O70 2.453931 1_555
Na2 O49 2.490008 1_565
Na2 O13 2.687005 1_565
Na2 O34 2.689830 1_555
Na2 O3 2.808994 1_565
Na2 O8 2.883589 1_555
Na3 O63 2.372240 1_555
Na3 O42 2.403907 1_565
Na3 O44 2.479666 1_555
Na3 O64 2.504679 1_555
Na3 O6 2.637151 1_555
Na3 O27 2.681252 1_555
Na3 O13 2.807868 1_565
Na3 O23 2.919138 1_565
Na4 O45 2.411203 1_455
Na4 O47 2.502175 1_565
Na4 O61 2.517196 1_555
Na4 O62 2.521913 1_555
Na4 O26 2.673144 1_554
Na4 O11 2.728430 1_555
Na4 O16 2.807585 1_565
Na4 O18 2.815289 1_565
Na5 O45 2.450031 1_555
Na5 O60 2.462159 1_555
Na5 O46 2.512558 1_565
Na5 O62 2.561474 1_555
Na5 O9 2.657534 1_555
Na5 O24 2.686592 1_554
Na5 O19 2.753746 1_555
Na5 O17 2.833073 1_555
Na6 O61 2.448065 1_555
Na6 O46 2.453175 1_455
Na6 O47 2.470108 1_555
Na6 O60 2.600635 1_555
Na6 O25 2.645851 1_554
Na6 O10 2.686520 1_555
Na6 O15 2.806769 1_455
Na6 O20 2.870055 1_455
Na7 O59 2.401585 1_555
Na7 O38 2.441410 1_655
Na7 O37 2.451052 1_545
Na7 O57 2.504020 1_555
Na7 O2 2.717570 1_555
Na7 O23 2.722730 1_555
Na7 O28 2.865875 1_655
Na7 O30 2.913376 1_655
Na8 O36 2.422180 1_545
Na8 O57 2.452246 1_555
Na8 O58 2.464383 1_555
Na8 O38 2.532984 1_555
Na8 O21 2.614951 1_555
Na8 O0 2.759535 1_555
Na8 O29 2.824208 1_545
Na8 O31 2.870276 1_545
Na9 O43 2.447930 1_565
Na9 O44 2.545361 1_455
Na9 O36 2.564151 1_555
Na9 O38 2.625460 1_565
Na9 O42 2.645835 1_465
Na9 O37 2.658911 1_455
Na10 O41 2.463930 1_555
Na10 O40 2.483268 1_655
Na10 O39 2.487425 1_665
Na10 O45 2.602978 1_556
Na10 O46 2.720538 1_566
Na10 O47 2.732878 1_666
Na11 O55 2.457783 1_555
Na11 O56 2.526773 1_555
Na11 O48 2.533681 1_555
Na11 O54 2.570813 1_555
Na11 O50 2.706582 1_555
Na11 O49 2.763017 1_555
Na12 O58 2.523968 1_555
Na12 O51 2.541333 1_555
Na12 O53 2.557020 1_555
Na12 O52 2.582086 1_555
Na12 O57 2.619328 1_555
Na12 O59 2.637858 1_555
Na13 O67 2.470031 1_555
Na13 O68 2.509368 1_555
Na13 O66 2.532360 1_555
Na13 O61 2.660837 1_555
Na13 O60 2.671657 1_555
Na13 O62 2.681055 1_555
Na14 O65 2.534749 1_555
Na14 O63 2.549359 1_555
Na14 O70 2.588065 1_555
Na14 O69 2.596608 1_555
Na14 O71 2.605680 1_555
Na14 O64 2.627363 1_555
O0 P0 1.540765 1_555
O0 Sc0 2.095680 1_445
O1 P1 1.542209 1_555
O1 Sc0 2.037995 1_555
O2 P2 1.539200 1_555
O2 Sc0 2.075578 1_545
O3 P3 1.550682 1_555
O3 Sn0 2.093702 1_455
O4 P4 1.549365 1_555
O4 Sn0 2.095235 1_565
O5 Si0 1.619613 1_555
O5 Sn0 1.976760 1_555
O6 Si0 1.651464 1_565
O6 Sn1 2.015269 1_665
O7 P3 1.536346 1_555
O7 Sn1 2.046973 1_555
O8 P4 1.549387 1_455
O8 Sn1 2.057620 1_565
O9 P1 1.543995 1_555
O9 Sc1 2.044650 1_555
O10 P2 1.537613 1_455
O10 Sc1 2.069772 1_445
O11 P0 1.550474 1_565
O11 Sc1 2.049634 1_455
O12 P5 1.552773 1_555
O12 Sn2 2.046462 1_555
O13 Si1 1.660917 1_555
O13 Sn2 2.021162 1_555
O14 P6 1.562051 1_555
O14 Sn2 2.096393 1_555
O15 Si2 1.666260 1_555
O15 Sn3 2.039325 1_555
O16 P7 1.567145 1_555
O16 Sn3 2.077154 1_555
O17 P8 1.564792 1_555
O17 Sn3 2.086220 1_555
O18 P8 1.515743 1_555
O18 Sc2 2.118321 1_554
O19 Si2 1.599943 1_555
O19 Sc2 1.992254 1_554
O20 P7 1.512519 1_555
O20 Sc2 2.115166 1_554
O21 Si1 1.617336 1_555
O21 Sc3 1.982960 1_555
O22 P6 1.515841 1_555
O22 Sc3 2.014612 1_555
O23 P5 1.534240 1_555
O23 Sc3 2.120939 1_555
O24 P9 1.590965 1_555
O24 Sn4 2.045370 1_556
O25 P10 1.590639 1_555
O25 Sn4 2.035679 1_556
O26 P11 1.590239 1_555
O26 Sn4 2.048007 1_556
O27 P12 1.567852 1_555
O27 Sn5 2.084197 1_555
O28 P13 1.568842 1_555
O28 Sn5 2.047826 1_555
O29 P14 1.569791 1_555
O29 Sn5 2.055669 1_555
O30 P14 1.542447 1_555
O30 Sc4 2.105454 1_555
O31 P12 1.529418 1_555
O31 Sc4 2.042769 1_555
O32 P13 1.521497 1_555
O32 Sc4 2.012707 1_555
O33 P10 1.518175 1_555
O33 Sc5 2.026256 1_555
O34 P11 1.529824 1_555
O34 Sc5 2.055935 1_555
O35 P9 1.528121 1_555
O35 Sc5 2.056767 1_555
O36 P14 1.543825 1_555
O36 Sc0 2.142061 1_455
O37 P12 1.541601 1_555
O37 Sc0 2.127964 1_555
O38 P13 1.559423 1_555
O38 Sc0 2.191382 1_445
O39 P10 1.557887 1_555
O39 Sn0 2.072720 1_455
O40 P11 1.561286 1_555
O40 Sn0 2.082093 1_465
O41 P9 1.556477 1_555
O41 Sn0 2.099745 1_565
O42 P5 1.559818 1_555
O42 Sn1 2.125663 1_655
O43 Si1 1.631585 1_555
O43 Sn1 2.005419 1_555
O44 P6 1.556633 1_555
O44 Sn1 2.131836 1_665
O45 Si2 1.636209 1_555
O45 Sc1 2.080394 1_555
O46 P7 1.541282 1_555
O46 Sc1 2.180232 1_545
O47 P8 1.542346 1_555
O47 Sc1 2.169047 1_445
O48 Si0 1.652320 1_555
O48 Sn2 2.035793 1_555
O49 P3 1.575125 1_555
O49 Sn2 2.154224 1_555
O50 P4 1.560205 1_555
O50 Sn2 2.120296 1_555
O51 P1 1.577798 1_555
O51 Sn3 2.106539 1_555
O52 P2 1.579906 1_555
O52 Sn3 2.108335 1_555
O53 P0 1.558305 1_555
O53 Sn3 2.073015 1_555
O54 P9 1.525532 1_555
O54 Sc2 2.086594 1_555
O55 P10 1.525711 1_655
O55 Sc2 2.097505 1_555
O56 P11 1.520489 1_545
O56 Sc2 2.138770 1_555
O57 P12 1.558195 1_545
O57 Sc3 2.191915 1_555
O58 P13 1.539828 1_555
O58 Sc3 2.125870 1_555
O59 P14 1.538518 1_655
O59 Sc3 2.174136 1_555
O60 P8 1.575342 1_555
O60 Sn4 2.175403 1_555
O61 Si2 1.671695 1_455
O61 Sn4 2.069720 1_555
O62 P7 1.575308 1_565
O62 Sn4 2.162714 1_555
O63 Si1 1.663217 1_565
O63 Sn5 2.038290 1_555
O64 P6 1.560777 1_555
O64 Sn5 2.132703 1_555
O65 P5 1.542472 1_455
O65 Sn5 2.081664 1_555
O66 P0 1.545757 1_565
O66 Sc4 2.160153 1_555
O67 P1 1.524135 1_555
O67 Sc4 2.086279 1_555
O68 P2 1.547515 1_455
O68 Sc4 2.159353 1_555
O69 P3 1.529264 1_555
O69 Sc5 2.141196 1_555
O70 P4 1.527853 1_455
O70 Sc5 2.151504 1_555
O71 Si0 1.644716 1_565
O71 Sc5 2.108684 1_555
