# generated using pymatgen
data_MgFe8(OF)8
_symmetry_space_group_name_H-M   'P 1'
_cell_length_a   10.07039872
_cell_length_b   9.84289460
_cell_length_c   3.12639506
_cell_angle_alpha   91.80517417
_cell_angle_beta   90.49579224
_cell_angle_gamma   89.22360875
_symmetry_Int_Tables_number   1
_chemical_formula_structural   MgFe8(OF)8
_chemical_formula_sum   'Mg1 Fe8 O8 F8'
_cell_volume   309.70141205
_cell_formula_units_Z   1
loop_
 _symmetry_equiv_pos_site_id
 _symmetry_equiv_pos_as_xyz
  1  'x, y, z'
loop_
 _atom_site_type_symbol
 _atom_site_label
 _atom_site_symmetry_multiplicity
 _atom_site_fract_x
 _atom_site_fract_y
 _atom_site_fract_z
 _atom_site_occupancy
  Mg  Mg0  1  0.74393100  0.00074400  0.43722100  1
  Fe  Fe0  1  0.07006500  0.00515900  0.00126600  1
  Fe  Fe1  1  0.01150500  0.50120000  0.99933600  1
  Fe  Fe2  1  0.22828600  0.26983100  0.49882700  1
  Fe  Fe3  1  0.22472800  0.72949000  0.51018000  1
  Fe  Fe4  1  0.50461300  0.49327500  0.02410400  1
  Fe  Fe5  1  0.46227700  0.99713900  0.95730400  1
  Fe  Fe6  1  0.76728000  0.34834100  0.48000900  1
  Fe  Fe7  1  0.74451800  0.67584900  0.57474200  1
  O  O0  1  0.10893300  0.41417100  0.49512800  1
  O  O1  1  0.12300300  0.90489700  0.49698800  1
  O  O2  1  0.16677400  0.16365400  0.98874800  1
  O  O3  1  0.14987400  0.65080100  0.00194300  1
  O  O4  1  0.57789600  0.40233200  0.51759400  1
  O  O5  1  0.64244200  0.63486400  0.06201800  1
  O  O6  1  0.87241900  0.36281300  0.98444500  1
  O  O7  1  0.91101300  0.60566000  0.50737200  1
  F  F0  1  0.34588100  0.35653100  0.00364100  1
  F  F1  1  0.34262500  0.83195200  0.99721700  1
  F  F2  1  0.39468600  0.11641900  0.48303300  1
  F  F3  1  0.39462200  0.59662800  0.51356900  1
  F  F4  1  0.57219400  0.90423700  0.44051500  1
  F  F5  1  0.66870700  0.10197300  0.95222200  1
  F  F6  1  0.79726000  0.86483700  0.88860400  1
  F  F7  1  0.92447200  0.06720100  0.43397200  1
loop_
_geom_bond_atom_site_label_1
_geom_bond_atom_site_label_2
_geom_bond_distance
_geom_bond_site_symmetry_2
Fe0 O2 1.851876 1_554
Fe0 O1 1.909439 1_544
Fe0 O1 1.930768 1_545
Fe1 O6 1.966206 1_455
Fe1 O0 2.024903 1_555
Fe1 O0 2.033129 1_556
Fe1 O3 2.040746 1_556
Fe1 O7 2.119310 1_455
Fe1 O7 2.121509 1_456
Fe2 O0 1.848715 1_555
Fe2 O2 1.978503 1_554
Fe2 O2 1.989173 1_555
Fe3 O3 1.900116 1_555
Fe3 O3 1.908602 1_556
Fe3 O1 1.996945 1_555
Fe4 O4 1.940762 1_554
Fe4 O4 1.943111 1_555
Fe4 O5 1.980402 1_555
Fe6 O6 1.894236 1_554
Fe6 O6 1.894599 1_555
Fe6 O4 1.976362 1_555
Fe7 O7 1.816159 1_555
Fe7 O5 1.901913 1_556
Fe7 O5 1.931562 1_555
F0 Fe4 2.102853 1_555
F0 Fe2 2.128781 1_554
F0 Fe2 2.160964 1_555
F1 Fe5 2.044394 1_555
F1 Fe3 2.156308 1_555
F1 Fe3 2.272875 1_556
F2 Fe5 2.027524 1_545
F2 Fe5 2.102236 1_544
F2 Fe2 2.240262 1_555
F3 Fe4 2.122310 1_555
F3 Fe3 2.139490 1_555
F3 Fe4 2.202405 1_556
F4 Mg0 1.984669 1_565
F4 Fe5 2.091488 1_554
F4 Fe5 2.140631 1_555
F5 Mg0 1.980065 1_556
F5 Mg0 2.014606 1_555
F5 Fe5 2.333729 1_545
F6 Mg0 2.038565 1_565
F6 Fe7 2.146631 1_555
F6 Mg0 2.207196 1_566
F7 Mg0 1.940751 1_555
F7 Fe0 2.076226 1_655
F7 Fe0 2.380583 1_656
