# generated using pymatgen
data_Na6Sc2Nb6Si9(SO16)3
_symmetry_space_group_name_H-M   'P 1'
_cell_length_a   17.92324842
_cell_length_b   8.98978503
_cell_length_c   22.98093067
_cell_angle_alpha   90.04845243
_cell_angle_beta   89.80608806
_cell_angle_gamma   120.07691405
_symmetry_Int_Tables_number   1
_chemical_formula_structural   Na6Sc2Nb6Si9(SO16)3
_chemical_formula_sum   'Na18 Sc6 Nb18 Si27 S9 O144'
_cell_volume   3204.23575362
_cell_formula_units_Z   3
loop_
 _symmetry_equiv_pos_site_id
 _symmetry_equiv_pos_as_xyz
  1  'x, y, z'
loop_
 _atom_site_type_symbol
 _atom_site_label
 _atom_site_symmetry_multiplicity
 _atom_site_fract_x
 _atom_site_fract_y
 _atom_site_fract_z
 _atom_site_occupancy
  Na  Na0  1  0.32076495  0.01266743  0.25171057  1
  Na  Na1  1  0.68481079  0.37029270  0.24721142  1
  Na  Na2  1  0.49366563  0.62179615  0.24957034  1
  Na  Na3  1  0.82049519  0.62924654  0.75042644  1
  Na  Na4  1  0.99386845  0.36496194  0.74804874  1
  Na  Na5  1  0.18624293  0.00424311  0.74460486  1
  Na  Na6  1  0.00227258  0.00712847  0.49957333  1
  Na  Na7  1  0.50418701  0.99896478  0.49677265  1
  Na  Na8  1  0.00444860  0.01186558  0.99479788  1
  Na  Na9  1  0.50239783  0.99735961  0.99845237  1
  Na  Na10  1  0.33851040  0.33257935  0.83227444  1
  Na  Na11  1  0.83072119  0.32554397  0.82734226  1
  Na  Na12  1  0.33019618  0.33821535  0.33211392  1
  Na  Na13  1  0.83844101  0.34398258  0.33572472  1
  Na  Na14  1  0.16642216  0.65793661  0.16653605  1
  Na  Na15  1  0.67087812  0.67001717  0.16511140  1
  Na  Na16  1  0.17224908  0.67204134  0.66349614  1
  Na  Na17  1  0.66138791  0.66865276  0.66229780  1
  Sc  Sc0  1  0.49811285  0.99889903  0.35631348  1
  Sc  Sc1  1  0.99809188  0.99760737  0.85532440  1
  Sc  Sc2  1  0.33663200  0.33113059  0.68047046  1
  Sc  Sc3  1  0.82967640  0.31607814  0.68724248  1
  Sc  Sc4  1  0.32944452  0.34352163  0.18774647  1
  Sc  Sc5  1  0.83175520  0.33520058  0.18259927  1
  Nb  Nb0  1  0.00207435  0.98677331  0.35879888  1
  Nb  Nb1  1  0.50212899  0.01789289  0.85694374  1
  Nb  Nb2  1  0.99726283  0.99049945  0.64358093  1
  Nb  Nb3  1  0.49858685  0.01459251  0.63972354  1
  Nb  Nb4  1  0.99969705  0.99583813  0.14492809  1
  Nb  Nb5  1  0.49707935  0.00323499  0.14424386  1
  Nb  Nb6  1  0.33029853  0.34523084  0.97607310  1
  Nb  Nb7  1  0.82786804  0.30910920  0.97786928  1
  Nb  Nb8  1  0.33422539  0.34627350  0.48245140  1
  Nb  Nb9  1  0.82983996  0.31359131  0.47639947  1
  Nb  Nb10  1  0.16729463  0.65641186  0.01466754  1
  Nb  Nb11  1  0.65986718  0.66378062  0.02469385  1
  Nb  Nb12  1  0.16012561  0.65429765  0.52493333  1
  Nb  Nb13  1  0.66087806  0.66907918  0.51724873  1
  Nb  Nb14  1  0.16437546  0.65983593  0.31352248  1
  Nb  Nb15  1  0.66946829  0.65842611  0.31782856  1
  Nb  Nb16  1  0.16934117  0.68091229  0.81614819  1
  Nb  Nb17  1  0.66154492  0.66686019  0.81041336  1
  Si  Si0  1  0.14368186  0.99788820  0.25051935  1
  Si  Si1  1  0.35518558  0.71097531  0.25199108  1
  Si  Si2  1  0.85623330  0.71033876  0.25082837  1
  Si  Si3  1  0.50027751  0.29158719  0.25123186  1
  Si  Si4  1  0.64365438  0.28677689  0.74939987  1
  Si  Si5  1  -0.00001451  0.70998817  0.75118067  1
  Si  Si6  1  0.35688033  0.00344255  0.74990186  1
  Si  Si7  1  0.85566064  -0.00008282  0.75189514  1
  Si  Si8  1  0.47923417  0.34112195  0.58201747  1
  Si  Si9  1  0.97338687  0.32695385  0.58588885  1
  Si  Si10  1  0.18930771  0.04399002  0.58398343  1
  Si  Si11  1  0.68843221  0.04107010  0.58423278  1
  Si  Si12  1  0.33322393  0.62408954  0.58645115  1
  Si  Si13  1  0.47337961  0.62003564  0.08580284  1
  Si  Si14  1  0.83356531  0.04134534  0.08536692  1
  Si  Si15  1  0.18781315  0.33550832  0.08395043  1
  Si  Si16  1  0.68890005  0.33427219  0.08399235  1
  Si  Si17  1  0.31309600  0.67125250  0.91413880  1
  Si  Si18  1  0.01929991  0.37292654  0.91465077  1
  Si  Si19  1  0.52256728  0.38389812  0.91828543  1
  Si  Si20  1  0.16497092  0.95900334  0.92029212  1
  Si  Si21  1  0.66371296  0.94740977  0.91599003  1
  Si  Si22  1  0.81115165  0.95030624  0.41667813  1
  Si  Si23  1  0.16792896  0.37780462  0.41693961  1
  Si  Si24  1  0.66577637  0.37122381  0.42038111  1
  Si  Si25  1  0.02219664  0.65961864  0.41881941  1
  Si  Si26  1  0.51783335  0.66458865  0.41457123  1
  S  S0  1  0.64497887  -0.00023411  0.24944438  1
  S  S1  1  0.99922120  0.28529719  0.25060831  1
  S  S2  1  0.14512043  0.29063885  0.74989350  1
  S  S3  1  0.49795897  0.71356662  0.75101281  1
  S  S4  1  0.83190853  0.62100205  0.58321661  1
  S  S5  1  0.97939884  0.62384676  0.08249545  1
  S  S6  1  0.33133460  0.04158034  0.08303138  1
  S  S7  1  0.80898675  0.66350486  0.91761779  1
  S  S8  1  0.30866505  0.95382952  0.41740211  1
  O  O0  1  0.09421328  0.02375173  0.30633826  1
  O  O1  1  0.60714384  0.02940038  0.30151866  1
  O  O2  1  0.41711382  0.80198861  0.30597951  1
  O  O3  1  0.91698234  0.81491450  0.30649370  1
  O  O4  1  0.48751996  0.16985419  0.30521441  1
  O  O5  1  0.98814241  0.18365112  0.30288114  1
  O  O6  1  0.10599271  0.18505037  0.80201954  1
  O  O7  1  0.59521197  0.16634430  0.80695724  1
  O  O8  1  0.48991727  0.79618160  0.80441646  1
  O  O9  1  0.98753985  0.80455038  0.80605651  1
  O  O10  1  0.41680564  0.01783402  0.80682000  1
  O  O11  1  0.91655193  0.03230903  0.80676103  1
  O  O12  1  0.40268597  0.97177590  0.69318950  1
  O  O13  1  0.90290604  0.96472821  0.69401195  1
  O  O14  1  0.09001326  0.20973797  0.69707256  1
  O  O15  1  0.58141867  0.19214653  0.69367932  1
  O  O16  1  0.01878653  0.83980732  0.69344854  1
  O  O17  1  0.51460782  0.81663903  0.69833906  1
  O  O18  1  0.40343184  0.84088573  0.19358551  1
  O  O19  1  0.90357424  0.83345741  0.19294716  1
  O  O20  1  0.01411574  0.20858847  0.19703492  1
  O  O21  1  0.51851867  0.19712130  0.19296116  1
  O  O22  1  0.08113072  0.97232926  0.19377526  1
  O  O23  1  0.59035262  0.97193003  0.19647790  1
  O  O24  1  0.44122168  0.37261153  0.64060661  1
  O  O25  1  0.94093509  0.36938054  0.64485137  1
  O  O26  1  0.24045788  0.11469062  0.64443861  1
  O  O27  1  0.74642519  0.12459202  0.64013246  1
  O  O28  1  0.31351345  0.50475820  0.64210332  1
  O  O29  1  0.82139732  0.52714336  0.63762772  1
  O  O30  1  0.44058562  0.51192358  0.14445743  1
  O  O31  1  0.94188801  0.52341283  0.13566309  1
  O  O32  1  0.31987422  0.11333993  0.13746596  1
  O  O33  1  0.81882063  0.13104844  0.14066087  1
  O  O34  1  0.24537816  0.36945371  0.13999436  1
  O  O35  1  0.74248451  0.36606990  0.14349271  1
  O  O36  1  0.23389442  0.30617049  0.02561333  1
  O  O37  1  0.74030007  0.31016090  0.02767583  1
  O  O38  1  0.41476961  0.52435673  0.02767269  1
  O  O39  1  0.92642685  0.54432595  0.03055226  1
  O  O40  1  0.34552891  0.14794777  0.03150805  1
  O  O41  1  0.84843798  0.16556915  0.02648908  1
  O  O42  1  0.23619198  0.16849842  0.52707822  1
  O  O43  1  0.73476683  0.16493057  0.52589607  1
  O  O44  1  0.34883338  0.53350872  0.52720024  1
  O  O45  1  0.84674182  0.54306051  0.53160702  1
  O  O46  1  0.41725742  0.30741115  0.52520113  1
  O  O47  1  0.91518926  0.30528194  0.52762113  1
  O  O48  1  0.26644809  0.69472624  0.97256093  1
  O  O49  1  0.76673393  0.68656311  0.96887247  1
  O  O50  1  0.08236261  0.47664171  0.97152011  1
  O  O51  1  0.58459446  0.47368994  0.97369622  1
  O  O52  1  0.15655034  0.83374950  0.97509701  1
  O  O53  1  0.65535865  0.83327332  0.97260118  1
  O  O54  1  0.26652480  0.84620362  0.46821585  1
  O  O55  1  0.76660285  0.83482853  0.47365980  1
  O  O56  1  0.15494122  0.47679510  0.47182455  1
  O  O57  1  0.65673791  0.47917377  0.47380429  1
  O  O58  1  0.08479349  0.69590867  0.47349794  1
  O  O59  1  0.58081772  0.68843823  0.47094786  1
  O  O60  1  0.07060412  0.63992746  0.36016921  1
  O  O61  1  0.56792113  0.63825321  0.35687716  1
  O  O62  1  0.25645327  0.87091658  0.36204338  1
  O  O63  1  0.74993484  0.86178142  0.35908617  1
  O  O64  1  0.18045490  0.50132018  0.35910787  1
  O  O65  1  0.68284686  0.49475071  0.35989448  1
  O  O66  1  0.06695865  0.49723147  0.85747125  1
  O  O67  1  0.57055360  0.50222972  0.86057528  1
  O  O68  1  0.18217305  0.86857340  0.86086452  1
  O  O69  1  0.68111433  0.85995003  0.85869613  1
  O  O70  1  0.24933139  0.63647312  0.85911336  1
  O  O71  1  0.75743498  0.63706583  0.86303121  1
  O  O72  1  0.01340394  0.83309317  0.41065445  1
  O  O73  1  0.51096133  0.83413734  0.41224182  1
  O  O74  1  0.39428944  0.97071629  0.41161130  1
  O  O75  1  0.90720689  0.97875861  0.40694178  1
  O  O76  1  0.08098298  0.19105868  0.40684452  1
  O  O77  1  0.58222563  0.18801772  0.41244916  1
  O  O78  1  0.00983897  0.18781940  0.91368404  1
  O  O79  1  0.51342428  0.19305387  0.91062619  1
  O  O80  1  0.08137296  0.97525872  0.91379583  1
  O  O81  1  0.58073056  0.97156383  0.90814450  1
  O  O82  1  0.40790971  0.83684554  0.90844372  1
  O  O83  1  0.89494745  0.81701547  0.91258314  1
  O  O84  1  0.48803277  0.16584689  0.58718662  1
  O  O85  1  0.98705775  0.15800394  0.59197382  1
  O  O86  1  0.09148465  0.02216469  0.59105374  1
  O  O87  1  0.59193715  0.01854522  0.59164734  1
  O  O88  1  0.41991032  0.81380945  0.59210041  1
  O  O89  1  0.91284326  0.79934417  0.58777564  1
  O  O90  1  0.48737951  0.81646398  0.09164853  1
  O  O91  1  0.98787852  0.79907467  0.08817079  1
  O  O92  1  0.41123781  0.02305970  0.08748819  1
  O  O93  1  0.92011480  0.02323634  0.09187775  1
  O  O94  1  0.09093830  0.16261737  0.09177373  1
  O  O95  1  0.59237686  0.16075582  0.09020979  1
  O  O96  1  0.33915955  0.16330084  0.74947077  1
  O  O97  1  0.84624370  0.16745216  0.74594047  1
  O  O98  1  0.23124572  0.31043230  0.74391986  1
  O  O99  1  0.74148358  0.32814638  0.74613228  1
  O  O100  1  0.42332644  0.53932428  0.74765150  1
  O  O101  1  0.91670539  0.52260962  0.74395576  1
  O  O102  1  0.34611014  0.52514691  0.24539999  1
  O  O103  1  0.84140868  0.51670926  0.24685951  1
  O  O104  1  0.41637972  0.31005182  0.24305866  1
  O  O105  1  0.92461434  0.30977463  0.24382632  1
  O  O106  1  0.24062139  0.15397531  0.24497240  1
  O  O107  1  0.73155130  0.15399608  0.24278976  1
  O  O108  1  0.31950684  0.49676639  0.92205738  1
  O  O109  1  0.81791399  0.50741762  0.92376266  1
  O  O110  1  0.42682899  0.35787641  0.92609673  1
  O  O111  1  0.92789449  0.37207697  0.92664331  1
  O  O112  1  0.25514820  0.14263080  0.92730585  1
  O  O113  1  0.75045996  0.14238075  0.92356395  1
  O  O114  1  0.31526599  0.12388306  0.42052146  1
  O  O115  1  0.81966147  0.14111804  0.42207831  1
  O  O116  1  0.25209652  0.35519772  0.42297788  1
  O  O117  1  0.75579734  0.36657434  0.42617997  1
  O  O118  1  0.42619791  0.48497905  0.42269671  1
  O  O119  1  0.92665861  0.49472210  0.42514358  1
  O  O120  1  0.17431639  0.50429936  0.07394294  1
  O  O121  1  0.67785625  0.50185570  0.07257127  1
  O  O122  1  0.06789254  0.64859166  0.07660416  1
  O  O123  1  0.57166809  0.64896827  0.07422354  1
  O  O124  1  0.25531049  0.86467782  0.07678397  1
  O  O125  1  0.75135431  0.85182456  0.07202261  1
  O  O126  1  0.17699198  0.85270094  0.57194651  1
  O  O127  1  0.67834408  0.85103800  0.57339034  1
  O  O128  1  0.25146305  0.65191846  0.57146627  1
  O  O129  1  0.75717961  0.64728354  0.57715690  1
  O  O130  1  0.07162152  0.49379384  0.57464300  1
  O  O131  1  0.57778227  0.50282672  0.57400932  1
  O  O132  1  0.15146030  0.82234047  0.25902329  1
  O  O133  1  0.65090123  0.84037716  0.25364090  1
  O  O134  1  0.26058049  0.70385795  0.25677901  1
  O  O135  1  0.75925937  0.69083320  0.25676739  1
  O  O136  1  0.07975075  0.46120253  0.25530125  1
  O  O137  1  0.58881996  0.48599099  0.25469565  1
  O  O138  1  0.14990528  0.46183307  0.75458844  1
  O  O139  1  0.65170816  0.47867021  0.76039275  1
  O  O140  1  0.08873939  0.69235127  0.75554007  1
  O  O141  1  0.57909191  0.69535176  0.75723696  1
  O  O142  1  0.25967309  0.82690791  0.75827343  1
  O  O143  1  0.76077994  0.81767345  0.75791754  1
loop_
_geom_bond_atom_site_label_1
_geom_bond_atom_site_label_2
_geom_bond_distance
_geom_bond_site_symmetry_2
Na0 O104 2.351597 1_555
Na0 O106 2.351993 1_555
Na0 O134 2.425322 1_545
Na0 O132 2.637583 1_545
Na0 O32 2.780482 1_555
Na0 O62 2.809794 1_545
Na0 O4 2.868837 1_555
Na0 O18 2.939545 1_545
Na1 O137 2.421306 1_555
Na1 O103 2.430491 1_555
Na1 O107 2.474852 1_555
Na1 O135 2.505834 1_555
Na1 O35 2.602653 1_555
Na1 O65 2.827163 1_555
Na1 O21 2.869205 1_555
Na1 O1 2.933536 1_555
Na2 O102 2.335977 1_555
Na2 O104 2.429997 1_555
Na2 O133 2.502591 1_555
Na2 O137 2.549824 1_555
Na2 O30 2.604888 1_555
Na2 O61 2.774641 1_555
Na2 O2 2.898143 1_555
Na2 O23 2.987336 1_555
Na3 O99 2.345301 1_555
Na3 O101 2.360002 1_555
Na3 O143 2.420738 1_555
Na3 O139 2.632104 1_555
Na3 O29 2.751899 1_555
Na3 O71 2.835213 1_555
Na3 O9 2.893977 1_555
Na3 O13 2.913216 1_555
Na4 O97 2.334022 1_555
Na4 O101 2.428121 1_555
Na4 O138 2.482719 1_655
Na4 O140 2.562836 1_655
Na4 O25 2.564994 1_555
Na4 O66 2.812351 1_655
Na4 O11 2.919632 1_555
Na4 O14 2.946677 1_655
Na5 O96 2.375411 1_555
Na5 O98 2.449923 1_555
Na5 O140 2.462845 1_545
Na5 O26 2.500109 1_555
Na5 O142 2.545381 1_545
Na5 O16 2.854707 1_545
Na5 O68 2.923378 1_545
Na5 O6 2.962874 1_555
Na6 O85 2.604802 1_455
Na6 O86 2.607738 1_555
Na6 O76 2.629241 1_555
Na6 O72 2.639684 1_545
Na6 O75 2.662321 1_445
Na6 O89 2.674019 1_445
Na7 O73 2.481514 1_555
Na7 O77 2.490896 1_565
Na7 O87 2.646394 1_565
Na7 O84 2.660416 1_565
Na7 O74 2.701549 1_555
Na7 O88 2.704654 1_555
Na8 O78 2.415934 1_555
Na8 O80 2.431207 1_545
Na8 O83 2.657739 1_445
Na8 O94 2.668122 1_556
Na8 O93 2.721056 1_456
Na8 O91 2.790195 1_446
Na9 O81 2.576401 1_555
Na9 O82 2.607321 1_555
Na9 O95 2.616938 1_566
Na9 O79 2.619633 1_565
Na9 O90 2.620550 1_556
Na9 O92 2.695278 1_566
Na10 O96 2.439199 1_555
Na10 O100 2.588699 1_555
Na10 O110 2.620646 1_555
Na10 O108 2.654391 1_555
Na10 O112 2.710108 1_555
Na10 O98 2.738733 1_555
Na11 O97 2.446430 1_555
Na11 O99 2.469718 1_555
Na11 O101 2.536716 1_555
Na11 O113 2.698295 1_555
Na11 O111 2.776880 1_555
Na11 O109 2.828860 1_555
Na12 O102 2.529397 1_555
Na12 O116 2.556745 1_555
Na12 O106 2.584964 1_555
Na12 O118 2.603638 1_555
Na12 O104 2.647329 1_555
Na12 O114 2.719938 1_555
Na13 O119 2.535500 1_555
Na13 O103 2.550762 1_555
Na13 O115 2.600715 1_555
Na13 O117 2.614668 1_555
Na13 O105 2.719031 1_555
Na13 O107 2.809016 1_555
Na14 O134 2.577470 1_555
Na14 O120 2.577666 1_555
Na14 O136 2.633093 1_555
Na14 O132 2.676165 1_555
Na14 O124 2.695005 1_555
Na14 O122 2.696803 1_555
Na15 O137 2.585504 1_555
Na15 O135 2.589554 1_555
Na15 O125 2.636351 1_555
Na15 O121 2.646873 1_555
Na15 O133 2.674373 1_555
Na15 O123 2.692120 1_555
Na16 O128 2.599592 1_555
Na16 O126 2.633906 1_555
Na16 O142 2.639869 1_555
Na16 O140 2.645710 1_555
Na16 O130 2.666959 1_555
Na16 O138 2.712229 1_555
Na17 O131 2.522068 1_555
Na17 O127 2.541111 1_555
Na17 O129 2.668372 1_555
Na17 O141 2.706596 1_555
Na17 O143 2.725132 1_555
Na17 O139 2.781335 1_555
Nb0 O72 1.911978 1_555
Nb0 O0 1.930836 1_565
Nb0 O3 1.950723 1_455
Nb0 O75 1.996242 1_455
Nb0 O76 1.998946 1_565
Nb0 O5 2.301128 1_465
Nb1 O7 1.908391 1_555
Nb1 O10 1.917455 1_555
Nb1 O79 1.929084 1_555
Nb1 O82 2.033791 1_545
Nb1 O81 2.035390 1_545
Nb1 O8 2.244574 1_545
Nb2 O16 1.956213 1_655
Nb2 O13 1.962499 1_555
Nb2 O86 1.973583 1_665
Nb2 O85 1.997018 1_565
Nb2 O89 2.071321 1_555
Nb2 O14 2.210173 1_665
Nb3 O84 1.898555 1_555
Nb3 O88 1.974883 1_545
Nb3 O15 1.980717 1_555
Nb3 O12 1.983854 1_545
Nb3 O87 1.987281 1_555
Nb3 O17 2.362765 1_545
Nb4 O22 1.937979 1_655
Nb4 O19 1.945742 1_555
Nb4 O93 1.986438 1_565
Nb4 O94 1.986558 1_665
Nb4 O91 2.120716 1_555
Nb4 O20 2.159044 1_665
Nb5 O21 1.940983 1_555
Nb5 O18 1.941042 1_545
Nb5 O90 2.003923 1_545
Nb5 O95 2.007214 1_555
Nb5 O92 2.094979 1_555
Nb5 O23 2.191035 1_545
Nb6 O108 1.924238 1_555
Nb6 O36 1.945304 1_556
Nb6 O38 1.963838 1_556
Nb6 O112 1.983769 1_555
Nb6 O110 2.028545 1_555
Nb6 O40 2.309613 1_556
Nb7 O41 1.879239 1_556
Nb7 O113 1.911316 1_555
Nb7 O37 1.943253 1_556
Nb7 O111 1.972320 1_555
Nb7 O109 2.253923 1_555
Nb7 O39 2.307325 1_556
Nb8 O44 1.875218 1_555
Nb8 O46 1.957953 1_555
Nb8 O42 1.967023 1_555
Nb8 O118 2.021198 1_555
Nb8 O116 2.042906 1_555
Nb8 O114 2.335696 1_555
Nb9 O43 1.921051 1_555
Nb9 O115 1.926254 1_555
Nb9 O47 1.964221 1_555
Nb9 O117 1.991183 1_555
Nb9 O119 2.051194 1_555
Nb9 O45 2.308396 1_555
Nb10 O50 1.858471 1_554
Nb10 O48 1.894369 1_554
Nb10 O52 1.927939 1_554
Nb10 O120 1.979442 1_555
Nb10 O122 2.249998 1_555
Nb10 O124 2.254334 1_555
Nb11 O123 1.894565 1_555
Nb11 O51 1.952022 1_554
Nb11 O53 1.971926 1_554
Nb11 O121 1.977135 1_555
Nb11 O125 1.989986 1_555
Nb11 O49 2.224175 1_554
Nb12 O130 1.897266 1_555
Nb12 O128 1.967478 1_555
Nb12 O58 1.969254 1_555
Nb12 O56 1.973163 1_555
Nb12 O126 1.974441 1_555
Nb12 O54 2.236353 1_555
Nb13 O59 1.866139 1_555
Nb13 O57 1.946150 1_555
Nb13 O131 1.977986 1_555
Nb13 O127 1.980966 1_555
Nb13 O55 1.993494 1_555
Nb13 O129 2.295331 1_555
Nb14 O64 1.904576 1_555
Nb14 O60 1.921595 1_555
Nb14 O132 2.024939 1_555
Nb14 O134 2.032729 1_555
Nb14 O62 2.106584 1_555
Nb14 O136 2.138766 1_555
Nb15 O65 1.874751 1_555
Nb15 O63 1.919541 1_555
Nb15 O61 1.951705 1_555
Nb15 O135 2.039467 1_555
Nb15 O137 2.088500 1_555
Nb15 O133 2.348437 1_555
Nb16 O68 1.888055 1_555
Nb16 O70 1.942757 1_555
Nb16 O66 1.987335 1_555
Nb16 O142 1.992814 1_555
Nb16 O140 2.049468 1_555
Nb16 O138 2.304889 1_555
Nb17 O67 1.936452 1_555
Nb17 O69 1.938156 1_555
Nb17 O139 1.978318 1_555
Nb17 O143 2.007048 1_555
Nb17 O141 2.033498 1_555
Nb17 O71 2.227945 1_555
O0 Si0 1.638326 1_545
O1 S0 1.462191 1_555
O1 Sc0 2.219586 1_545
O2 Si1 1.593149 1_555
O2 Sc0 2.002802 1_555
O3 Si2 1.639268 1_555
O4 Si3 1.593257 1_555
O4 Sc0 2.018408 1_545
O5 S1 1.461458 1_555
O6 S2 1.468609 1_555
O6 Sc1 2.191174 1_445
O7 Si4 1.651681 1_555
O8 S3 1.477532 1_555
O9 Si5 1.596602 1_655
O9 Sc1 1.999731 1_555
O10 Si6 1.658682 1_555
O11 Si7 1.598695 1_555
O11 Sc1 1.986786 1_545
O12 Si6 1.637084 1_565
O13 Si7 1.687230 1_565
O14 S2 1.504858 1_555
O15 Si4 1.632286 1_555
O16 Si5 1.685585 1_555
O17 S3 1.461243 1_555
O18 Si1 1.701696 1_555
O19 Si2 1.663688 1_555
O20 S1 1.497811 1_455
O21 Si3 1.701386 1_555
O22 Si0 1.661744 1_555
O23 S0 1.504931 1_565
O24 Si8 1.594886 1_555
O24 Sc2 1.944396 1_555
O25 Si9 1.592479 1_555
O25 Sc3 2.045737 1_555
O26 Si10 1.611748 1_555
O26 Sc2 2.021898 1_555
O27 Si11 1.587319 1_555
O27 Sc3 1.948092 1_555
O28 Si12 1.590820 1_555
O28 Sc2 2.009604 1_555
O29 S4 1.466916 1_555
O29 Sc3 2.282393 1_555
O30 Si13 1.590998 1_555
O30 Sc4 2.053311 1_555
O31 S5 1.465596 1_555
O31 Sc5 2.136292 1_555
O32 S6 1.467296 1_555
O32 Sc4 2.299576 1_555
O33 Si14 1.595129 1_555
O33 Sc5 1.980644 1_555
O34 Si15 1.584038 1_555
O34 Sc4 1.972962 1_555
O35 Si16 1.614577 1_555
O35 Sc5 1.974830 1_555
O36 Si15 1.661106 1_555
O37 Si16 1.662008 1_555
O38 Si13 1.652220 1_555
O39 S5 1.470822 1_555
O40 S6 1.461884 1_555
O41 Si14 1.688403 1_555
O42 Si10 1.649674 1_555
O43 Si11 1.671806 1_555
O44 Si12 1.679083 1_555
O45 S4 1.466796 1_555
O46 Si8 1.643877 1_555
O47 Si9 1.650563 1_555
O48 Si17 1.647693 1_555
O49 S7 1.467917 1_555
O50 Si18 1.675269 1_555
O51 Si19 1.617842 1_555
O52 Si20 1.645509 1_555
O53 Si21 1.617006 1_555
O54 S8 1.460716 1_555
O55 Si22 1.610713 1_555
O56 Si23 1.625042 1_555
O57 Si24 1.621576 1_555
O58 Si25 1.608138 1_555
O59 Si26 1.663048 1_555
O60 Si25 1.657222 1_555
O61 Si26 1.680577 1_555
O62 S8 1.535285 1_555
O63 Si22 1.649765 1_555
O64 Si23 1.673400 1_555
O65 Si24 1.708264 1_555
O66 Si18 1.656268 1_555
O67 Si19 1.645555 1_555
O68 Si20 1.693394 1_555
O69 Si21 1.640222 1_555
O70 Si17 1.629083 1_555
O71 S7 1.507013 1_555
O72 Si25 1.655027 1_555
O73 Si26 1.590470 1_555
O73 Sc0 2.060575 1_555
O74 S8 1.470066 1_555
O74 Sc0 2.157282 1_555
O75 Si22 1.623446 1_555
O76 Si23 1.637135 1_555
O77 Si24 1.586675 1_555
O77 Sc0 2.065887 1_545
O78 Si18 1.586038 1_555
O78 Sc1 2.098616 1_445
O79 Si19 1.648991 1_555
O80 Si20 1.584204 1_555
O80 Sc1 2.094910 1_455
O81 Si21 1.617822 1_555
O82 Si17 1.607556 1_555
O83 S7 1.469532 1_555
O83 Sc1 2.182585 1_555
O84 Si8 1.664713 1_555
O85 Si9 1.661332 1_555
O86 Si10 1.671018 1_555
O87 Si11 1.645679 1_555
O88 Si12 1.638488 1_555
O89 S4 1.534706 1_555
O90 Si13 1.659800 1_555
O91 S5 1.510422 1_555
O92 S6 1.526176 1_555
O93 Si14 1.646207 1_555
O94 Si15 1.660188 1_555
O95 Si16 1.655412 1_555
O96 Si6 1.619801 1_555
O96 Sc2 2.205866 1_555
O97 Si7 1.603390 1_555
O97 Sc3 2.023964 1_555
O98 S2 1.468551 1_555
O98 Sc2 2.314756 1_555
O99 Si4 1.601238 1_555
O99 Sc3 2.121105 1_555
O100 S3 1.466023 1_555
O100 Sc2 2.323219 1_555
O101 Si5 1.604397 1_655
O101 Sc3 2.164675 1_555
O102 Si1 1.602353 1_555
O102 Sc4 2.005190 1_555
O103 Si2 1.626414 1_555
O103 Sc5 2.141951 1_555
O104 Si3 1.605043 1_555
O104 Sc4 2.148984 1_555
O105 S1 1.468743 1_555
O105 Sc5 2.280301 1_555
O106 Si0 1.599729 1_545
O106 Sc4 2.106678 1_555
O107 S0 1.481819 1_555
O107 Sc5 2.201601 1_555
O108 Si17 1.639537 1_555
O109 S7 1.496668 1_555
O110 Si19 1.620816 1_555
O111 Si18 1.656619 1_655
O112 Si20 1.640236 1_545
O113 Si21 1.670214 1_545
O114 S8 1.474714 1_545
O115 Si22 1.648830 1_545
O116 Si23 1.626365 1_555
O117 Si24 1.640685 1_555
O118 Si26 1.637016 1_555
O119 Si25 1.614048 1_655
O120 Si15 1.668168 1_555
O121 Si16 1.636353 1_555
O122 S5 1.492802 1_455
O123 Si13 1.667197 1_555
O124 S6 1.495103 1_565
O125 Si14 1.629068 1_565
O126 Si10 1.643644 1_565
O127 Si11 1.644143 1_565
O128 Si12 1.643064 1_555
O129 S4 1.479077 1_555
O130 Si9 1.663440 1_455
O131 Si8 1.640590 1_555
O132 Si0 1.664144 1_555
O133 S0 1.492125 1_565
O134 Si1 1.667743 1_555
O135 Si2 1.662311 1_555
O136 S1 1.519401 1_455
O137 Si3 1.673258 1_555
O138 S2 1.501667 1_555
O139 Si4 1.676447 1_555
O140 Si5 1.679165 1_555
O141 S3 1.549835 1_555
O142 Si6 1.678671 1_565
O143 Si7 1.673751 1_565
