# generated using pymatgen
data_MgTi6(N2O3)2
_symmetry_space_group_name_H-M   'P 1'
_cell_length_a   3.83204800
_cell_length_b   5.36795071
_cell_length_c   10.04951345
_cell_angle_alpha   92.60758192
_cell_angle_beta   89.99912176
_cell_angle_gamma   110.90802591
_symmetry_Int_Tables_number   1
_chemical_formula_structural   MgTi6(N2O3)2
_chemical_formula_sum   'Mg1 Ti6 N4 O6'
_cell_volume   192.88020892
_cell_formula_units_Z   1
loop_
 _symmetry_equiv_pos_site_id
 _symmetry_equiv_pos_as_xyz
  1  'x, y, z'
loop_
 _atom_site_type_symbol
 _atom_site_label
 _atom_site_symmetry_multiplicity
 _atom_site_fract_x
 _atom_site_fract_y
 _atom_site_fract_z
 _atom_site_occupancy
  Mg  Mg0  1  0.49475300  0.98992400  0.26596100  1
  Ti  Ti0  1  0.20036600  0.40173000  0.24503100  1
  Ti  Ti1  1  0.15199300  0.30424600  0.95310100  1
  Ti  Ti2  1  0.12815600  0.25678300  0.54966800  1
  Ti  Ti3  1  0.79432700  0.59015500  0.74774000  1
  Ti  Ti4  1  0.86337000  0.72700700  0.03312600  1
  Ti  Ti5  1  0.85640700  0.71321500  0.45451900  1
  N  N0  1  0.33092400  0.66230500  0.09679500  1
  N  N1  1  0.03219700  0.06517500  0.37270200  1
  N  N2  1  0.68958000  0.37971200  0.56795200  1
  N  N3  1  0.69273900  0.38595100  0.91736800  1
  O  O0  1  0.32644000  0.65335300  0.41468800  1
  O  O1  1  0.25010400  0.50096900  0.74412700  1
  O  O2  1  0.05015700  0.10068600  0.11756700  1
  O  O3  1  0.71209000  0.42497400  0.26717000  1
  O  O4  1  0.95483900  0.91054400  0.87591300  1
  O  O5  1  0.95369700  0.90827400  0.62032000  1
loop_
_geom_bond_atom_site_label_1
_geom_bond_atom_site_label_2
_geom_bond_distance
_geom_bond_site_symmetry_2
Mg0 O3 2.180998 1_565
Mg0 N1 2.218625 1_665
Mg0 N1 2.219749 1_565
Mg0 N0 2.305873 1_555
Mg0 O0 2.308257 1_555
Mg0 O2 2.506758 1_565
Mg0 O2 2.506920 1_665
N0 Ti0 2.028823 1_555
N0 Ti4 2.050508 1_455
N0 Ti4 2.051214 1_555
N0 Ti1 2.248676 1_554
N1 Ti2 1.979782 1_555
N1 Ti5 1.982992 1_445
N1 Ti0 2.169154 1_555
N2 Ti2 2.018279 1_555
N2 Ti2 2.018482 1_655
N2 Ti3 2.047525 1_555
N2 Ti5 2.069275 1_555
N3 Ti1 1.995200 1_555
N3 Ti1 1.995936 1_655
N3 Ti4 2.020989 1_556
N3 Ti3 2.030880 1_555
O0 Ti5 1.977155 1_455
O0 Ti5 1.977477 1_555
O0 Ti0 2.071099 1_555
O0 Ti2 2.461155 1_555
O1 Ti3 1.966110 1_555
O1 Ti3 1.968807 1_455
O1 Ti2 2.255049 1_555
O1 Ti1 2.363313 1_555
O2 Ti0 1.931671 1_555
O2 Ti1 1.984440 1_554
O2 Ti4 2.019013 1_445
O3 Ti0 1.931363 1_655
O3 Ti0 1.932163 1_555
O3 Ti5 2.317090 1_555
O4 Ti4 1.866757 1_556
O4 Ti3 2.009658 1_555
O4 Ti1 2.085689 1_665
O5 Ti5 1.890578 1_555
O5 Ti2 1.918090 1_665
O5 Ti3 2.093640 1_555
