# generated using pymatgen
data_CaLa4Ni3WO12
_symmetry_space_group_name_H-M   'P 1'
_cell_length_a   5.36739869
_cell_length_b   9.85746658
_cell_length_c   5.58048683
_cell_angle_alpha   90.00000000
_cell_angle_beta   89.98537827
_cell_angle_gamma   90.00000000
_symmetry_Int_Tables_number   1
_chemical_formula_structural   CaLa4Ni3WO12
_chemical_formula_sum   'Ca1 La4 Ni3 W1 O12'
_cell_volume   295.25770680
_cell_formula_units_Z   1
loop_
 _symmetry_equiv_pos_site_id
 _symmetry_equiv_pos_as_xyz
  1  'x, y, z'
loop_
 _atom_site_type_symbol
 _atom_site_label
 _atom_site_symmetry_multiplicity
 _atom_site_fract_x
 _atom_site_fract_y
 _atom_site_fract_z
 _atom_site_occupancy
  Ca  Ca0  1  0.50000000  0.50000000  0.00000000  1
  La  La0  1  0.50000000  0.17206748  0.00000000  1
  La  La1  1  -0.00000000  0.67616042  0.50000000  1
  La  La2  1  0.50000000  0.82793252  0.00000000  1
  La  La3  1  -0.00000000  0.32383958  0.50000000  1
  Ni  Ni0  1  -0.00000000  0.00000000  0.00000000  1
  Ni  Ni1  1  0.50000000  0.50000000  0.50000000  1
  Ni  Ni2  1  -0.00000000  0.50000000  0.00000000  1
  W  W0  1  0.50000000  0.00000000  0.50000000  1
  O  O0  1  -0.00000000  0.28210054  0.00000000  1
  O  O1  1  0.50000000  0.80076746  0.50000000  1
  O  O2  1  0.23199942  0.50000000  0.28599907  1
  O  O3  1  0.73525482  0.00000000  0.76328593  1
  O  O4  1  0.23200117  0.50000000  0.71404587  1
  O  O5  1  0.73339850  0.00000000  0.23473704  1
  O  O6  1  -0.00000000  0.71789946  0.00000000  1
  O  O7  1  0.50000000  0.19923254  0.50000000  1
  O  O8  1  0.76800058  0.50000000  0.71400093  1
  O  O9  1  0.26474518  0.00000000  0.23671407  1
  O  O10  1  0.76799883  0.50000000  0.28595413  1
  O  O11  1  0.26660150  0.00000000  0.76526296  1
loop_
_geom_bond_atom_site_label_1
_geom_bond_atom_site_label_2
_geom_bond_distance
_geom_bond_site_symmetry_2
Ca0 O2 2.148319 1_555
Ca0 O8 2.148319 1_554
Ca0 O10 2.148672 1_555
Ca0 O4 2.148672 1_554
La0 O5 2.482556 1_555
La0 O11 2.482556 1_554
La0 O3 2.493088 1_554
La0 O9 2.493088 1_555
La0 O7 2.803063 1_554
La0 O7 2.803063 1_555
La0 O0 2.894599 1_655
La0 O0 2.894599 1_555
La1 O8 2.447743 1_455
La1 O2 2.447743 1_555
La1 O10 2.448181 1_455
La1 O4 2.448181 1_555
La1 O6 2.820415 1_555
La1 O6 2.820415 1_556
La1 O1 2.951438 1_455
La1 O1 2.951438 1_555
La2 O11 2.482556 1_564
La2 O5 2.482556 1_565
La2 O3 2.493088 1_564
La2 O9 2.493088 1_565
La2 O1 2.803063 1_554
La2 O1 2.803063 1_555
La2 O6 2.894599 1_555
La2 O6 2.894599 1_655
La3 O8 2.447743 1_455
La3 O2 2.447743 1_555
La3 O10 2.448181 1_455
La3 O4 2.448181 1_555
La3 O0 2.820415 1_555
La3 O0 2.820415 1_556
La3 O7 2.951438 1_455
La3 O7 2.951438 1_555
Ni0 O11 1.939753 1_554
Ni0 O5 1.939753 1_455
Ni0 O9 1.940404 1_555
Ni0 O3 1.940404 1_454
Ni1 O10 1.869509 1_555
Ni1 O4 1.869509 1_555
Ni1 O2 1.869825 1_555
Ni1 O8 1.869825 1_555
Ni2 O10 2.023876 1_455
Ni2 O4 2.023876 1_554
Ni2 O8 2.024569 1_454
Ni2 O2 2.024569 1_555
Ni2 O0 2.147937 1_555
Ni2 O6 2.147937 1_555
O1 W0 1.963928 1_565
O3 W0 1.937553 1_555
O5 W0 1.938993 1_555
O7 W0 1.963928 1_555
O9 W0 1.937553 1_555
O11 W0 1.938993 1_555
