# generated using pymatgen
data_Na8La3TaSi4(PO12)2
_symmetry_space_group_name_H-M   'P 1'
_cell_length_a   9.62557072
_cell_length_b   9.63789087
_cell_length_c   23.08977788
_cell_angle_alpha   90.14274203
_cell_angle_beta   89.97350915
_cell_angle_gamma   119.94833761
_symmetry_Int_Tables_number   1
_chemical_formula_structural   Na8La3TaSi4(PO12)2
_chemical_formula_sum   'Na24 La9 Ta3 Si12 P6 O72'
_cell_volume   1856.02237552
_cell_formula_units_Z   3
loop_
 _symmetry_equiv_pos_site_id
 _symmetry_equiv_pos_as_xyz
  1  'x, y, z'
loop_
 _atom_site_type_symbol
 _atom_site_label
 _atom_site_symmetry_multiplicity
 _atom_site_fract_x
 _atom_site_fract_y
 _atom_site_fract_z
 _atom_site_occupancy
  Na  Na0  1  0.62878050  0.99679151  0.25746662  1
  Na  Na1  1  0.36965919  0.37192573  0.25259013  1
  Na  Na2  1  0.00269595  0.62928668  0.25244440  1
  Na  Na3  1  0.63739119  0.64710488  0.73950844  1
  Na  Na4  1  0.00391989  0.35502240  0.74242246  1
  Na  Na5  1  0.35584217  0.00078085  0.75076528  1
  Na  Na6  1  0.29628926  0.34251040  0.57892176  1
  Na  Na7  1  0.03712488  0.69858800  0.57446713  1
  Na  Na8  1  0.66438666  0.95524283  0.57424916  1
  Na  Na9  1  0.29456800  0.95597518  0.07293119  1
  Na  Na10  1  0.65561126  0.69360739  0.07548557  1
  Na  Na11  1  0.04716236  0.34819099  0.07616525  1
  Na  Na12  1  0.98046790  0.68018025  0.91259622  1
  Na  Na13  1  0.70407277  0.03192968  0.90966801  1
  Na  Na14  1  0.31887439  0.29248794  0.90960378  1
  Na  Na15  1  0.97934041  0.31102871  0.42072330  1
  Na  Na16  1  0.33850341  0.02594417  0.42115767  1
  Na  Na17  1  0.68659743  0.66752083  0.42032024  1
  Na  Na18  1  0.99515420  0.99857262  0.49861530  1
  Na  Na19  1  0.00575027  0.99989153  0.99603183  1
  Na  Na20  1  0.65793934  0.32348672  0.82892780  1
  Na  Na21  1  0.66399244  0.33094304  0.33828921  1
  Na  Na22  1  0.32296876  0.65533144  0.16613848  1
  Na  Na23  1  0.33338270  0.65418117  0.66059743  1
  La  La0  1  0.00068395  0.99963971  0.34881490  1
  La  La1  1  0.99902822  0.00230443  0.84455823  1
  La  La2  1  0.99282758  0.00415358  0.65137516  1
  La  La3  1  0.00331576  0.99885415  0.14381353  1
  La  La4  1  0.66718365  0.33499544  0.68150098  1
  La  La5  1  0.66683275  0.33679939  0.17849103  1
  La  La6  1  0.33178356  0.66431242  0.00801072  1
  La  La7  1  0.33322490  0.66363259  0.51094126  1
  La  La8  1  0.33315142  0.66537256  0.32691642  1
  Ta  Ta0  1  0.66506949  0.33734512  0.97814429  1
  Ta  Ta1  1  0.67145062  0.33834568  0.48563545  1
  Ta  Ta2  1  0.33637064  0.66512992  0.82338696  1
  Si  Si0  1  0.31207172  0.32523822  0.75505360  1
  Si  Si1  1  0.67177285  0.98548290  0.75535822  1
  Si  Si2  1  0.96309363  0.32888103  0.58444651  1
  Si  Si3  1  0.67317167  0.63609864  0.58414122  1
  Si  Si4  1  0.95912621  0.63115433  0.07888350  1
  Si  Si5  1  0.36810027  0.32821420  0.07933707  1
  Si  Si6  1  0.63206378  0.65386187  0.91995055  1
  Si  Si7  1  0.02137339  0.36949392  0.91912970  1
  Si  Si8  1  0.34580187  0.97624291  0.91992327  1
  Si  Si9  1  0.64848779  0.99294133  0.41926575  1
  Si  Si10  1  0.34471945  0.35041551  0.41879263  1
  Si  Si11  1  0.00815238  0.65691779  0.41935654  1
  P  P0  1  0.30949476  0.99133131  0.24898970  1
  P  P1  1  0.68375185  0.69211078  0.24871686  1
  P  P2  1  0.00616007  0.31415853  0.24874469  1
  P  P3  1  0.02050831  0.69093925  0.75499802  1
  P  P4  1  0.36816223  0.04274835  0.58098609  1
  P  P5  1  0.67454308  0.04794425  0.07640658  1
  O  O0  1  0.22111213  -0.00268456  0.30412664  1
  O  O1  1  0.77617392  0.78256499  0.30394425  1
  O  O2  1  0.00536506  0.22242587  0.30377900  1
  O  O3  1  0.23505299  0.21083546  0.81105960  1
  O  O4  1  0.99073539  0.76606563  0.80904879  1
  O  O5  1  0.78371414  0.01891134  0.81180982  1
  O  O6  1  0.75281246  0.94779285  0.69850690  1
  O  O7  1  0.19569730  0.24357384  0.69771020  1
  O  O8  1  0.04697467  0.79781299  0.70081607  1
  O  O9  1  0.77643509  0.78753103  0.19399699  1
  O  O10  1  0.00869162  0.22147047  0.19373632  1
  O  O11  1  0.21285246  0.98800030  0.19434687  1
  O  O12  1  0.88949524  0.33381667  0.64706538  1
  O  O13  1  0.44610242  0.11114028  0.64003919  1
  O  O14  1  0.66171985  0.55354515  0.64636448  1
  O  O15  1  0.88628924  0.54451826  0.14064070  1
  O  O16  1  0.66416186  0.11810461  0.13512634  1
  O  O17  1  0.45123177  0.33511570  0.14129517  1
  O  O18  1  0.49205063  0.32533949  0.02586798  1
  O  O19  1  0.83404852  0.50566014  0.02515231  1
  O  O20  1  0.67350502  0.16006166  0.02573192  1
  O  O21  1  0.48397832  0.15370530  0.53123172  1
  O  O22  1  0.66575040  0.50650282  0.53214151  1
  O  O23  1  0.83864902  0.33154875  0.53252395  1
  O  O24  1  0.57577429  0.69168529  0.98044156  1
  O  O25  1  0.11464751  0.42858737  0.97989673  1
  O  O26  1  0.31217774  0.88292520  0.98041840  1
  O  O27  1  0.56834825  0.87035063  0.47337226  1
  O  O28  1  0.30209932  0.43075512  0.47296577  1
  O  O29  1  0.12771809  0.69684041  0.47420899  1
  O  O30  1  0.08226144  0.61667954  0.36155235  1
  O  O31  1  0.53541863  0.91740777  0.36104658  1
  O  O32  1  0.38426244  0.46442274  0.36094239  1
  O  O33  1  0.14169839  0.50607193  0.86847592  1
  O  O34  1  0.36018146  0.85565338  0.86870880  1
  O  O35  1  0.49350349  0.63704643  0.86953276  1
  O  O36  1  0.96407030  0.79882963  0.41434064  1
  O  O37  1  0.83422823  0.03448388  0.41424336  1
  O  O38  1  0.19983320  0.16538219  0.41401813  1
  O  O39  1  0.98840785  0.18911367  0.90869509  1
  O  O40  1  0.19865483  0.00969102  0.90939584  1
  O  O41  1  0.81344721  0.79261964  0.90693757  1
  O  O42  1  0.96565303  0.16048938  0.57596326  1
  O  O43  1  0.20731596  0.04158094  0.57516343  1
  O  O44  1  0.84554411  0.80271009  0.57649708  1
  O  O45  1  0.95266490  0.79797933  0.07200820  1
  O  O46  1  0.83567084  0.04800011  0.07118250  1
  O  O47  1  0.19713101  0.15948056  0.07169119  1
  O  O48  1  0.63357983  0.13247129  0.75041677  1
  O  O49  1  0.49867179  0.36725785  0.75108092  1
  O  O50  1  0.88098666  0.51692699  0.74978011  1
  O  O51  1  0.66526553  0.52204591  0.25160005  1
  O  O52  1  0.85403472  0.33195647  0.25180631  1
  O  O53  1  0.48119475  0.14065478  0.25098242  1
  O  O54  1  0.62521015  0.47519411  0.92201389  1
  O  O55  1  0.84666324  0.36980049  0.92073704  1
  O  O56  1  0.52216883  0.14974077  0.92187504  1
  O  O57  1  0.65369256  0.16659896  0.43135315  1
  O  O58  1  0.51178626  0.34250370  0.43072121  1
  O  O59  1  0.83269358  0.48797230  0.43088969  1
  O  O60  1  0.34958327  0.48756417  0.07754871  1
  O  O61  1  0.14075340  0.65920107  0.07663346  1
  O  O62  1  0.52897632  0.87763047  0.07326949  1
  O  O63  1  0.34514603  0.87244392  0.57640328  1
  O  O64  1  0.51735207  0.66171531  0.58009059  1
  O  O65  1  0.14131772  0.48889079  0.58063589  1
  O  O66  1  0.32062310  0.83544734  0.24806761  1
  O  O67  1  0.51503848  0.67769554  0.24759177  1
  O  O68  1  0.16046568  0.48265804  0.24753165  1
  O  O69  1  0.31058929  0.49768939  0.76660828  1
  O  O70  1  0.18164334  0.68770898  0.76369140  1
  O  O71  1  0.49729810  0.81450102  0.76675424  1
loop_
_geom_bond_atom_site_label_1
_geom_bond_atom_site_label_2
_geom_bond_distance
_geom_bond_site_symmetry_2
Na0 O53 2.435337 1_565
Na0 O31 2.536442 1_555
Na0 O66 2.580137 1_555
Na0 O67 2.709934 1_555
Na0 O52 2.856884 1_565
Na0 O16 3.013398 1_565
Na1 O51 2.465721 1_555
Na1 O67 2.557402 1_555
Na1 O32 2.633959 1_555
Na1 O68 2.711767 1_555
Na1 O17 2.760043 1_555
Na1 O53 2.917375 1_555
Na2 O52 2.483010 1_455
Na2 O68 2.541257 1_555
Na2 O30 2.654109 1_555
Na2 O66 2.693118 1_555
Na2 O15 2.768643 1_455
Na2 O51 2.875082 1_455
Na3 O49 2.352949 1_555
Na3 O14 2.386218 1_555
Na3 O71 2.642604 1_555
Na3 O6 2.706850 1_555
Na3 O69 2.800048 1_555
Na4 O50 2.388730 1_455
Na4 O12 2.424441 1_455
Na4 O69 2.619395 1_555
Na4 O7 2.756739 1_555
Na4 O70 2.822227 1_555
Na5 O48 2.317366 1_555
Na5 O70 2.637721 1_545
Na5 O13 2.740693 1_555
Na5 O71 2.767305 1_545
Na5 O8 2.860228 1_545
Na6 O65 2.513545 1_555
Na6 O43 2.582958 1_555
Na6 O28 2.583521 1_555
Na6 O64 2.730699 1_555
Na6 O42 2.763348 1_455
Na6 O7 2.908341 1_555
Na7 O29 2.476334 1_555
Na7 O44 2.501441 1_455
Na7 O63 2.576762 1_555
Na7 O65 2.671340 1_555
Na7 O43 2.864363 1_565
Na7 O8 3.054571 1_555
Na8 O64 2.455309 1_555
Na8 O27 2.487288 1_555
Na8 O42 2.568297 1_565
Na8 O63 2.762888 1_555
Na8 O44 2.786474 1_555
Na8 O6 3.004256 1_555
Na9 O26 2.280057 1_554
Na9 O61 2.480615 1_555
Na9 O47 2.562101 1_565
Na9 O62 2.713343 1_555
Na9 O45 2.854177 1_455
Na9 O11 2.968060 1_555
Na10 O24 2.322514 1_554
Na10 O45 2.514442 1_555
Na10 O60 2.604367 1_555
Na10 O62 2.606354 1_555
Na10 O9 2.932468 1_555
Na10 O46 2.961592 1_565
Na11 O25 2.338371 1_554
Na11 O60 2.524861 1_555
Na11 O46 2.577993 1_455
Na11 O61 2.664640 1_555
Na11 O47 2.832432 1_555
Na11 O10 2.926145 1_555
Na12 O41 2.348703 1_555
Na12 O4 2.517786 1_555
Na12 O55 2.607389 1_555
Na12 O40 2.800636 1_665
Na12 O33 2.975277 1_655
Na12 O54 2.983288 1_555
Na12 O19 3.036651 1_556
Na13 O39 2.376229 1_555
Na13 O5 2.408708 1_555
Na13 O56 2.533255 1_555
Na13 O55 2.843724 1_555
Na14 O40 2.370378 1_555
Na14 O3 2.409643 1_555
Na14 O54 2.586802 1_555
Na14 O39 2.819060 1_455
Na14 O56 2.914213 1_555
Na15 O37 2.314827 1_555
Na15 O59 2.712384 1_555
Na15 O57 2.732729 1_555
Na15 O2 2.878301 1_655
Na15 O30 2.937852 1_655
Na15 O28 2.975844 1_655
Na16 O38 2.325328 1_555
Na16 O57 2.643906 1_555
Na16 O58 2.656179 1_555
Na16 O21 2.864056 1_555
Na16 O0 2.888382 1_555
Na16 O31 2.929717 1_545
Na16 O29 3.044568 1_545
Na17 O36 2.319434 1_555
Na17 O58 2.728032 1_555
Na17 O59 2.731987 1_555
Na17 O1 2.872541 1_555
Na17 O32 2.912559 1_555
Na18 O42 2.476612 1_565
Na18 O44 2.484222 1_555
Na18 O43 2.573091 1_665
Na18 O37 2.618368 1_565
Na18 O36 2.643630 1_555
Na18 O38 2.670451 1_665
Na19 O47 2.443713 1_566
Na19 O45 2.479698 1_456
Na19 O46 2.580181 1_466
Na19 O40 2.698281 1_565
Na19 O39 2.782619 1_465
Na19 O41 2.817798 1_455
Na20 O48 2.506638 1_555
Na20 O49 2.532018 1_555
Na20 O56 2.635945 1_555
Na20 O55 2.679968 1_555
Na20 O54 2.701920 1_555
Na20 O50 2.727989 1_555
Na21 O58 2.621586 1_555
Na21 O57 2.645012 1_555
Na21 O59 2.651843 1_555
Na21 O53 2.699299 1_555
Na21 O52 2.704197 1_555
Na21 O51 2.719344 1_555
Na22 O68 2.482342 1_555
Na22 O67 2.570010 1_555
Na22 O66 2.572031 1_555
Na22 O60 2.694591 1_555
Na22 O61 2.723553 1_555
Na22 O62 2.982887 1_555
Na23 O65 2.532273 1_555
Na23 O64 2.542782 1_555
Na23 O63 2.828341 1_555
Na23 O69 2.828785 1_555
Na23 O70 2.892797 1_555
Na23 O71 2.904402 1_555
La0 O38 2.329439 1_565
La0 O36 2.343522 1_455
La0 O37 2.344075 1_465
La0 O1 2.365942 1_455
La0 O2 2.368177 1_565
La0 O0 2.369035 1_565
La1 O5 2.286041 1_555
La1 O3 2.290461 1_655
La1 O39 2.369701 1_555
La1 O4 2.381582 1_545
La1 O41 2.399448 1_545
La1 O40 2.409174 1_655
La2 O6 2.358903 1_545
La2 O7 2.402727 1_655
La2 O42 2.403671 1_555
La2 O44 2.450672 1_545
La2 O8 2.564463 1_645
La2 O43 2.597191 1_655
La3 O11 2.377760 1_555
La3 O47 2.403450 1_565
La3 O45 2.403546 1_455
La3 O10 2.410743 1_565
La3 O9 2.414237 1_455
La3 O46 2.531870 1_465
La4 O14 2.284046 1_555
La4 O12 2.287805 1_555
La4 O13 2.346775 1_555
La4 O49 2.409860 1_555
La4 O48 2.414802 1_555
La4 O50 2.486292 1_555
La5 O17 2.238890 1_555
La5 O15 2.240215 1_555
La5 O16 2.319756 1_555
La5 O51 2.459525 1_555
La5 O52 2.490379 1_555
La5 O53 2.491702 1_555
La6 O25 2.281264 1_554
La6 O26 2.298829 1_554
La6 O24 2.317615 1_554
La6 O61 2.408601 1_555
La6 O60 2.411326 1_555
La6 O62 2.488183 1_555
La7 O28 2.283684 1_555
La7 O27 2.312730 1_555
La7 O29 2.317273 1_555
La7 O64 2.392953 1_555
La7 O65 2.396417 1_555
La7 O63 2.470304 1_555
La8 O30 2.358043 1_555
La8 O32 2.359976 1_555
La8 O31 2.362637 1_555
La8 O67 2.494898 1_555
La8 O66 2.495680 1_555
La8 O68 2.507583 1_555
O0 P0 1.547733 1_545
O1 P1 1.548774 1_555
O2 P2 1.547675 1_555
O3 Si0 1.621015 1_555
O4 P3 1.538275 1_655
O5 Si1 1.617529 1_545
O6 Si1 1.656250 1_555
O7 Si0 1.656280 1_555
O8 P3 1.560491 1_555
O9 P1 1.556788 1_555
O10 P2 1.558170 1_555
O11 P0 1.558622 1_555
O12 Si2 1.620798 1_555
O13 P4 1.535981 1_555
O14 Si3 1.620909 1_555
O15 Si4 1.625614 1_555
O16 P5 1.538916 1_555
O17 Si5 1.624432 1_555
O18 Si5 1.726245 1_555
O18 Ta0 1.951345 1_554
O19 Si4 1.729616 1_555
O19 Ta0 1.952856 1_554
O20 P5 1.598089 1_555
O20 Ta0 2.069137 1_554
O21 P4 1.587701 1_555
O21 Ta1 2.081552 1_555
O22 Si3 1.705958 1_555
O22 Ta1 1.965388 1_555
O23 Si2 1.704421 1_555
O23 Ta1 1.968183 1_555
O24 Si6 1.603515 1_555
O25 Si7 1.608033 1_555
O26 Si8 1.606225 1_555
O27 Si9 1.627350 1_555
O28 Si10 1.626136 1_555
O29 Si11 1.622799 1_555
O30 Si11 1.647238 1_555
O31 Si9 1.651346 1_555
O32 Si10 1.650972 1_555
O33 Si7 1.710642 1_555
O33 Ta2 2.020704 1_555
O34 Si8 1.709365 1_555
O34 Ta2 2.022344 1_555
O35 Si6 1.716093 1_555
O35 Ta2 1.976827 1_555
O36 Si11 1.626168 1_655
O37 Si9 1.629577 1_545
O38 Si10 1.628913 1_555
O39 Si7 1.621194 1_655
O40 Si8 1.620406 1_545
O41 Si6 1.611602 1_555
O42 Si2 1.646585 1_555
O43 P4 1.548558 1_555
O44 Si3 1.644261 1_555
O45 Si4 1.647830 1_555
O46 P5 1.555307 1_555
O47 Si5 1.646458 1_555
O48 Si1 1.635826 1_545
O49 Si0 1.634712 1_555
O50 P3 1.543095 1_655
O51 P1 1.559476 1_555
O52 P2 1.558591 1_655
O53 P0 1.558748 1_545
O54 Si6 1.690805 1_555
O54 Ta0 2.027314 1_555
O55 Si7 1.683554 1_655
O55 Ta0 2.089061 1_555
O56 Si8 1.686865 1_545
O56 Ta0 2.087122 1_555
O57 Si9 1.672011 1_545
O57 Ta1 2.011827 1_555
O58 Si10 1.670524 1_555
O58 Ta1 2.008684 1_555
O59 Si11 1.682443 1_655
O59 Ta1 1.964414 1_555
O60 Si5 1.632721 1_555
O61 Si4 1.631057 1_455
O62 P5 1.538196 1_565
O63 P4 1.546118 1_565
O64 Si3 1.639886 1_555
O65 Si2 1.639526 1_455
O66 P0 1.558727 1_555
O67 P1 1.559482 1_555
O68 P2 1.560783 1_555
O69 Si0 1.689767 1_555
O69 Ta2 1.993614 1_555
O70 P3 1.579698 1_555
O70 Ta2 2.119515 1_555
O71 Si1 1.686366 1_555
O71 Ta2 1.990697 1_555
