# generated using pymatgen
data_Na4Mg(Mo2O5)2
_symmetry_space_group_name_H-M   'P 1'
_cell_length_a   5.63515797
_cell_length_b   5.92252164
_cell_length_c   8.68132007
_cell_angle_alpha   108.58593367
_cell_angle_beta   109.20925059
_cell_angle_gamma   91.04023848
_symmetry_Int_Tables_number   1
_chemical_formula_structural   Na4Mg(Mo2O5)2
_chemical_formula_sum   'Na4 Mg1 Mo4 O10'
_cell_volume   256.87155747
_cell_formula_units_Z   1
loop_
 _symmetry_equiv_pos_site_id
 _symmetry_equiv_pos_as_xyz
  1  'x, y, z'
loop_
 _atom_site_type_symbol
 _atom_site_label
 _atom_site_symmetry_multiplicity
 _atom_site_fract_x
 _atom_site_fract_y
 _atom_site_fract_z
 _atom_site_occupancy
  Na  Na0  1  0.38897418  0.93041903  0.82736329  1
  Na  Na1  1  0.63243547  0.08125577  0.23106198  1
  Na  Na2  1  0.60176956  0.05518685  0.62491340  1
  Na  Na3  1  0.11089151  0.71169755  0.23014166  1
  Mg  Mg0  1  0.92962511  0.52314186  0.82413081  1
  Mo  Mo0  1  0.02204050  0.03885654  0.00693970  1
  Mo  Mo1  1  0.51078136  0.50360046  0.99175731  1
  Mo  Mo2  1  0.85183571  0.64382833  0.49458766  1
  Mo  Mo3  1  0.25576011  0.40738783  0.50995727  1
  O  O0  1  0.77832632  0.28951555  0.91755953  1
  O  O1  1  0.72230056  0.76112495  0.95705060  1
  O  O2  1  0.34825784  0.25791313  0.04739314  1
  O  O3  1  0.25503996  0.74163636  0.02590438  1
  O  O4  1  0.94811257  0.83490486  0.73637075  1
  O  O5  1  0.10171004  0.14858379  0.28772853  1
  O  O6  1  0.24800386  0.36566049  0.72538221  1
  O  O7  1  0.72477538  0.62842931  0.26518993  1
  O  O8  1  0.24510234  0.74418186  0.52009508  1
  O  O9  1  0.64936263  0.39517447  0.54210076  1
loop_
_geom_bond_atom_site_label_1
_geom_bond_atom_site_label_2
_geom_bond_distance
_geom_bond_site_symmetry_2
Na0 O1 2.279785 1_555
Na0 O2 2.325119 1_566
Na0 O4 2.342780 1_455
Na0 O8 2.378721 1_555
Na0 O3 2.616166 1_556
Na0 O0 2.754748 1_565
Na1 O2 2.376029 1_555
Na1 O5 2.524812 1_655
Na1 O3 2.609454 1_545
Na1 O9 2.716766 1_555
Na1 O1 2.731729 1_544
Na1 O7 2.829615 1_545
Na2 O0 2.325801 1_555
Na2 O9 2.381880 1_555
Na2 O8 2.419507 1_545
Na2 O4 2.470198 1_545
Na3 O3 2.231118 1_555
Na3 O8 2.319152 1_555
Na3 O7 2.358459 1_455
Na3 O5 2.478891 1_565
Na3 O1 2.747894 1_454
Mg0 O0 2.104016 1_555
Mg0 O3 2.112049 1_656
Mg0 O1 2.143176 1_555
Mg0 O4 2.223187 1_555
Mg0 O9 2.300534 1_555
Mg0 O6 2.320953 1_655
Mo0 O2 2.093786 1_555
Mo0 O4 2.163123 1_444
Mo0 O1 2.170206 1_444
Mo0 O0 2.190693 1_454
Mo0 O5 2.196663 1_555
Mo0 O3 2.230715 1_545
Mo1 O2 1.969780 1_556
Mo1 O3 2.059301 1_556
Mo1 O1 2.073881 1_555
Mo1 O0 2.117405 1_555
Mo1 O7 2.144942 1_556
Mo1 O6 2.169385 1_555
Mo2 O7 1.852162 1_555
Mo2 O4 1.922226 1_555
Mo2 O9 2.067984 1_555
Mo2 O8 2.204275 1_655
Mo3 O5 1.946682 1_555
Mo3 O8 1.971290 1_555
Mo3 O6 1.977004 1_555
Mo3 O9 2.148043 1_555
