# generated using pymatgen
data_MgCo(NiO2)4
_symmetry_space_group_name_H-M   'P 1'
_cell_length_a   10.28635896
_cell_length_b   10.31904311
_cell_length_c   14.60909651
_cell_angle_alpha   18.94019900
_cell_angle_beta   19.41507260
_cell_angle_gamma   33.17819407
_symmetry_Int_Tables_number   1
_chemical_formula_structural   MgCo(NiO2)4
_chemical_formula_sum   'Mg1 Co1 Ni4 O8'
_cell_volume   143.84785479
_cell_formula_units_Z   1
loop_
 _symmetry_equiv_pos_site_id
 _symmetry_equiv_pos_as_xyz
  1  'x, y, z'
loop_
 _atom_site_type_symbol
 _atom_site_label
 _atom_site_symmetry_multiplicity
 _atom_site_fract_x
 _atom_site_fract_y
 _atom_site_fract_z
 _atom_site_occupancy
  Mg  Mg0  1  0.50000000  0.00000000  0.50000000  1
  Co  Co0  1  0.50000000  0.50000000  0.00000000  1
  Ni  Ni0  1  0.00000000  0.50000000  0.00000000  1
  Ni  Ni1  1  0.00000000  0.00000000  0.00000000  1
  Ni  Ni2  1  0.00000000  0.00000000  0.50000000  1
  Ni  Ni3  1  0.50000000  0.00000000  0.00000000  1
  O  O0  1  0.95707300  0.50037400  0.77154600  1
  O  O1  1  0.04292700  0.49962600  0.22845400  1
  O  O2  1  0.95893000  0.99887800  0.29265800  1
  O  O3  1  0.04107000  0.00112200  0.70734200  1
  O  O4  1  0.45010100  0.49973800  0.77546400  1
  O  O5  1  0.54989900  0.50026200  0.22453600  1
  O  O6  1  0.54111600  0.99852300  0.70884700  1
  O  O7  1  0.45888400  0.00147700  0.29115300  1
loop_
_geom_bond_atom_site_label_1
_geom_bond_atom_site_label_2
_geom_bond_distance
_geom_bond_site_symmetry_2
Mg0 O1 2.080622 1_546
Mg0 O0 2.080622 1_554
Mg0 O4 2.084957 1_545
Mg0 O5 2.084957 1_555
Mg0 O2 2.112557 1_545
Mg0 O3 2.112557 1_555
Co0 O7 1.894854 1_555
Co0 O6 1.894854 1_554
Co0 O2 1.897571 1_554
Co0 O3 1.897571 1_555
Co0 O0 1.910871 1_554
Co0 O1 1.910871 1_555
Ni0 O5 1.882707 1_455
Ni0 O4 1.882707 1_554
Ni0 O7 1.899956 1_564
Ni0 O6 1.899956 1_445
Ni0 O2 1.903821 1_445
Ni0 O3 1.903821 1_564
Ni1 O0 2.087618 1_454
Ni1 O1 2.087618 1_545
Ni1 O5 2.088076 1_554
Ni1 O4 2.088076 1_445
Ni1 O7 2.096771 1_455
Ni1 O6 2.096771 1_544
Ni2 O1 2.080660 1_555
Ni2 O0 2.080660 1_445
Ni2 O4 2.082381 1_554
Ni2 O5 2.082381 1_446
Ni2 O6 2.111104 1_445
Ni2 O7 2.111104 1_555
Ni3 O0 2.084676 1_445
Ni3 O1 2.084676 1_654
Ni3 O5 2.088483 1_545
Ni3 O4 2.088483 1_554
Ni3 O3 2.094081 1_654
Ni3 O2 2.094081 1_445
