# generated using pymatgen
data_Tb7FeI12
_symmetry_space_group_name_H-M   'P 1'
_cell_length_a   9.66122690
_cell_length_b   9.70743808
_cell_length_c   9.72183059
_cell_angle_alpha   107.04330889
_cell_angle_beta   106.92602524
_cell_angle_gamma   106.78568451
_symmetry_Int_Tables_number   1
_chemical_formula_structural   Tb7FeI12
_chemical_formula_sum   'Tb7 Fe1 I12'
_cell_volume   761.01235556
_cell_formula_units_Z   1
loop_
 _symmetry_equiv_pos_site_id
 _symmetry_equiv_pos_as_xyz
  1  'x, y, z'
loop_
 _atom_site_type_symbol
 _atom_site_label
 _atom_site_symmetry_multiplicity
 _atom_site_fract_x
 _atom_site_fract_y
 _atom_site_fract_z
 _atom_site_occupancy
  Tb  Tb0  1  0.50004579  0.50001107  0.50000484  1
  Tb  Tb1  1  0.09227788  0.29343608  0.02242324  1
  Tb  Tb2  1  0.02134590  0.09385615  0.29389482  1
  Tb  Tb3  1  0.28156781  0.02085497  0.08943149  1
  Tb  Tb4  1  0.90766422  0.70656866  0.97755011  1
  Tb  Tb5  1  0.97872026  0.90614808  0.70609182  1
  Tb  Tb6  1  0.71844740  0.97912928  0.91049695  1
  Fe  Fe0  1  0.00001655  0.00000037  -0.00001159  1
  I  I0  1  0.46341923  0.38486096  0.15882555  1
  I  I1  1  0.15892893  0.46526749  0.38759578  1
  I  I2  1  0.38618732  0.15864813  0.46321233  1
  I  I3  1  0.53654899  0.61511697  0.84122287  1
  I  I4  1  0.84127078  0.53475363  0.61257641  1
  I  I5  1  0.61373667  0.84130182  0.53665038  1
  I  I6  1  0.77052429  0.32053878  0.92657691  1
  I  I7  1  0.92630409  0.77188226  0.32087764  1
  I  I8  1  0.32172297  0.92730919  0.77407190  1
  I  I9  1  0.22923914  0.67951832  0.07358076  1
  I  I10  1  0.07372304  0.22816176  0.67914964  1
  I  I11  1  0.67830873  0.07263603  0.22577815  1
loop_
_geom_bond_atom_site_label_1
_geom_bond_atom_site_label_2
_geom_bond_distance
_geom_bond_site_symmetry_2
Fe0 Tb3 2.529370 1_555
Fe0 Tb6 2.529485 1_444
Fe0 Tb4 2.648008 1_444
Fe0 Tb1 2.648054 1_555
Fe0 Tb2 2.656967 1_555
Fe0 Tb5 2.656983 1_444
I0 Tb0 3.048146 1_555
I0 Tb1 3.179099 1_555
I0 Tb3 3.217865 1_555
I1 Tb0 3.035445 1_555
I1 Tb2 3.193366 1_555
I1 Tb1 3.221454 1_555
I2 Tb0 3.047894 1_555
I2 Tb3 3.201059 1_555
I2 Tb2 3.203698 1_555
I3 Tb0 3.048862 1_555
I3 Tb4 3.178816 1_555
I3 Tb6 3.218312 1_555
I4 Tb0 3.036457 1_555
I4 Tb5 3.193507 1_555
I4 Tb4 3.220382 1_555
I5 Tb0 3.047647 1_555
I5 Tb6 3.201527 1_555
I5 Tb5 3.204946 1_555
I6 Tb1 3.087065 1_656
I6 Tb6 3.154198 1_545
I6 Tb4 3.421280 1_555
I7 Tb2 3.105509 1_665
I7 Tb4 3.149395 1_554
I7 Tb5 3.410778 1_555
I8 Tb3 3.104632 1_566
I8 Tb5 3.116479 1_455
I8 Tb6 3.498301 1_555
I9 Tb4 3.085261 1_454
I9 Tb3 3.153794 1_565
I9 Tb1 3.421192 1_555
I10 Tb5 3.105680 1_445
I10 Tb1 3.149181 1_556
I10 Tb2 3.411263 1_555
I11 Tb6 3.103823 1_544
I11 Tb2 3.116477 1_655
I11 Tb3 3.498545 1_555
