# generated using pymatgen
data_MgFe6(O2F)4
_symmetry_space_group_name_H-M   'P 1'
_cell_length_a   5.20170055
_cell_length_b   5.18650569
_cell_length_c   8.78494826
_cell_angle_alpha   87.50561207
_cell_angle_beta   92.18073069
_cell_angle_gamma   103.10434058
_symmetry_Int_Tables_number   1
_chemical_formula_structural   MgFe6(O2F)4
_chemical_formula_sum   'Mg1 Fe6 O8 F4'
_cell_volume   230.51863667
_cell_formula_units_Z   1
loop_
 _symmetry_equiv_pos_site_id
 _symmetry_equiv_pos_as_xyz
  1  'x, y, z'
loop_
 _atom_site_type_symbol
 _atom_site_label
 _atom_site_symmetry_multiplicity
 _atom_site_fract_x
 _atom_site_fract_y
 _atom_site_fract_z
 _atom_site_occupancy
  Mg  Mg0  1  0.04854626  0.52852611  0.01831659  1
  Fe  Fe0  1  0.96088346  0.01266136  0.99367497  1
  Fe  Fe1  1  0.99106282  0.00269882  0.32236697  1
  Fe  Fe2  1  0.02890463  0.96209265  0.64787051  1
  Fe  Fe3  1  0.56206293  0.42026967  0.17888337  1
  Fe  Fe4  1  0.52724479  0.46147903  0.82070755  1
  Fe  Fe5  1  0.42236836  0.57529186  0.48912024  1
  O  O0  1  0.17202178  0.80873088  0.48802691  1
  O  O1  1  0.30320028  0.30666379  0.99323949  1
  O  O2  1  0.30378238  0.30263091  0.33068508  1
  O  O3  1  0.29579782  0.30111901  0.66369657  1
  O  O4  1  0.71164256  0.65997792  0.99466607  1
  O  O5  1  0.68053400  0.70195931  0.32405997  1
  O  O6  1  0.67852152  0.71232426  0.66558636  1
  O  O7  1  0.83594160  0.22243672  0.16138537  1
  F  F0  1  0.16722352  0.81493440  0.16277832  1
  F  F1  1  0.16890219  0.79881073  0.84023214  1
  F  F2  1  0.81001428  0.25196544  0.83208506  1
  F  F3  1  0.84523382  0.15542715  0.49404545  1
loop_
_geom_bond_atom_site_label_1
_geom_bond_atom_site_label_2
_geom_bond_distance
_geom_bond_site_symmetry_2
Mg0 O1 1.965380 1_554
Mg0 O4 2.020120 1_454
Mg0 O7 2.111627 1_455
Fe0 O4 1.987710 1_545
Fe0 O1 2.065095 1_655
Fe0 O7 2.076020 1_556
Fe1 O5 1.974747 1_545
Fe1 O2 1.981088 1_655
Fe1 O7 2.034647 1_555
Fe1 O0 2.052742 1_645
Fe2 O0 1.898421 1_555
Fe2 O3 1.984489 1_565
Fe2 O6 1.989373 1_455
Fe3 O2 1.910363 1_555
Fe3 O7 1.949166 1_555
Fe3 O5 1.958297 1_555
Fe3 O4 2.062072 1_554
Fe3 O1 2.092082 1_554
Fe4 O3 1.887631 1_555
Fe4 O6 1.905763 1_555
Fe4 O4 1.973066 1_555
Fe4 O1 1.975952 1_555
Fe5 O0 1.968434 1_555
Fe5 O5 2.000709 1_555
Fe5 O2 2.006990 1_555
Fe5 O6 2.047694 1_555
Fe5 O3 2.066422 1_555
F0 Mg0 1.971525 1_555
F0 Fe1 2.091610 1_465
F0 Fe0 2.157719 1_464
F1 Fe2 2.040743 1_555
F1 Mg0 2.071306 1_556
F1 Fe0 2.236837 1_465
F2 Fe4 2.014546 1_555
F2 Fe0 2.091652 1_555
F2 Mg0 2.348687 1_656
F3 Fe1 1.985201 1_555
F3 Fe2 1.990628 1_645
