# generated using pymatgen
data_P2Pd15
_symmetry_space_group_name_H-M   'P 1'
_cell_length_a   7.08462521
_cell_length_b   7.08462590
_cell_length_c   7.08462676
_cell_angle_alpha   60.67764680
_cell_angle_beta   60.67764113
_cell_angle_gamma   60.67764765
_symmetry_Int_Tables_number   1
_chemical_formula_structural   P2Pd15
_chemical_formula_sum   'P2 Pd15'
_cell_volume   255.28706593
_cell_formula_units_Z   1
loop_
 _symmetry_equiv_pos_site_id
 _symmetry_equiv_pos_as_xyz
  1  'x, y, z'
loop_
 _atom_site_type_symbol
 _atom_site_label
 _atom_site_symmetry_multiplicity
 _atom_site_fract_x
 _atom_site_fract_y
 _atom_site_fract_z
 _atom_site_occupancy
  P  P0  1  0.28509003  0.28509003  0.28509003  1
  P  P1  1  0.71490997  0.71490997  0.71490997  1
  Pd  Pd0  1  0.36639984  0.84275924  0.68254363  1
  Pd  Pd1  1  0.68254363  0.36639984  0.84275924  1
  Pd  Pd2  1  0.84275924  0.68254363  0.36639984  1
  Pd  Pd3  1  0.63360016  0.15724076  0.31745637  1
  Pd  Pd4  1  0.31745637  0.63360016  0.15724076  1
  Pd  Pd5  1  0.15724076  0.31745637  0.63360016  1
  Pd  Pd6  1  0.05270649  0.77426850  0.55926996  1
  Pd  Pd7  1  0.55926996  0.05270649  0.77426850  1
  Pd  Pd8  1  0.77426850  0.55926996  0.05270649  1
  Pd  Pd9  1  0.94729351  0.22573150  0.44073004  1
  Pd  Pd10  1  0.44073004  0.94729351  0.22573150  1
  Pd  Pd11  1  0.22573150  0.44073004  0.94729351  1
  Pd  Pd12  1  0.07915410  0.07915410  0.07915410  1
  Pd  Pd13  1  0.92084590  0.92084590  0.92084590  1
  Pd  Pd14  1  0.50000000  0.50000000  0.50000000  1
loop_
_geom_bond_atom_site_label_1
_geom_bond_atom_site_label_2
_geom_bond_distance
_geom_bond_site_symmetry_2
P0 Pd9 2.250972 1_455
P0 Pd10 2.250972 1_545
P0 Pd11 2.250973 1_554
P0 Pd3 2.264938 1_555
P0 Pd4 2.264938 1_555
P0 Pd5 2.264939 1_555
P1 Pd6 2.250972 1_655
P1 Pd7 2.250972 1_565
P1 Pd8 2.250973 1_556
P1 Pd0 2.264938 1_555
P1 Pd1 2.264938 1_555
P1 Pd2 2.264939 1_555
Pd0 Pd13 2.665540 1_455
Pd0 Pd14 2.844453 1_555
Pd1 Pd13 2.665541 1_545
Pd1 Pd14 2.844453 1_555
Pd10 Pd14 2.731087 1_555
Pd10 Pd12 2.797222 1_565
Pd10 Pd13 2.974321 1_554
Pd11 Pd14 2.731087 1_555
Pd11 Pd12 2.797222 1_556
Pd11 Pd13 2.974321 1_455
Pd12 Pd3 2.665540 1_455
Pd12 Pd4 2.665541 1_545
Pd12 Pd5 2.665541 1_554
Pd12 Pd13 2.733082 1_444
Pd12 Pd9 2.797223 1_455
Pd12 Pd7 2.974321 1_554
Pd12 Pd8 2.974321 1_455
Pd12 Pd6 2.974321 1_545
Pd13 Pd2 2.665541 1_556
Pd13 Pd8 2.797222 1_556
Pd13 Pd7 2.797222 1_565
Pd13 Pd6 2.797223 1_655
Pd13 Pd9 2.974321 1_565
Pd14 Pd9 2.731087 1_555
Pd14 Pd6 2.731087 1_555
Pd14 Pd8 2.731087 1_555
Pd14 Pd7 2.731087 1_555
Pd14 Pd2 2.844453 1_555
Pd14 Pd5 2.844453 1_555
Pd14 Pd3 2.844453 1_555
Pd14 Pd4 2.844453 1_555
