# generated using pymatgen
data_Mn15(Br3O10)2
_symmetry_space_group_name_H-M   'P 1'
_cell_length_a   9.23831574
_cell_length_b   9.23831574
_cell_length_c   9.23831574
_cell_angle_alpha   60.00000000
_cell_angle_beta   60.00000000
_cell_angle_gamma   60.00000000
_symmetry_Int_Tables_number   1
_chemical_formula_structural   Mn15(Br3O10)2
_chemical_formula_sum   'Mn15 Br6 O20'
_cell_volume   557.52379319
_cell_formula_units_Z   1
loop_
 _symmetry_equiv_pos_site_id
 _symmetry_equiv_pos_as_xyz
  1  'x, y, z'
loop_
 _atom_site_type_symbol
 _atom_site_label
 _atom_site_symmetry_multiplicity
 _atom_site_fract_x
 _atom_site_fract_y
 _atom_site_fract_z
 _atom_site_occupancy
  Mn  Mn0  1  -0.00000000  0.35041884  0.00000000  1
  Mn  Mn1  1  0.25000000  0.25000000  0.25000000  1
  Mn  Mn2  1  0.75000000  0.75000000  0.75000000  1
  Mn  Mn3  1  0.35041884  0.64958116  0.00000000  1
  Mn  Mn4  1  0.00000000  -0.00000000  0.64958116  1
  Mn  Mn5  1  -0.00000000  0.00000000  0.35041884  1
  Mn  Mn6  1  0.64958116  0.35041884  -0.00000000  1
  Mn  Mn7  1  0.64958116  0.00000000  0.35041884  1
  Mn  Mn8  1  0.00000000  0.64958116  -0.00000000  1
  Mn  Mn9  1  0.35041884  0.00000000  0.64958116  1
  Mn  Mn10  1  0.64958116  0.00000000  -0.00000000  1
  Mn  Mn11  1  -0.00000000  0.64958116  0.35041884  1
  Mn  Mn12  1  0.00000000  0.35041884  0.64958116  1
  Mn  Mn13  1  0.35041884  -0.00000000  0.00000000  1
  Mn  Mn14  1  -0.00000000  0.00000000  -0.00000000  1
  Br  Br0  1  0.30106300  0.30106300  0.69893700  1
  Br  Br1  1  0.30106300  0.69893700  0.69893700  1
  Br  Br2  1  0.69893700  0.30106300  0.69893700  1
  Br  Br3  1  0.30106300  0.69893700  0.30106300  1
  Br  Br4  1  0.69893700  0.30106300  0.30106300  1
  Br  Br5  1  0.69893700  0.69893700  0.30106300  1
  O  O0  1  0.90008521  0.90008521  0.29974436  1
  O  O1  1  0.90008521  0.29974436  0.90008521  1
  O  O2  1  0.90104851  0.90104851  0.59895149  1
  O  O3  1  0.40104851  0.40104851  0.09895149  1
  O  O4  1  0.09895149  0.09895149  0.40104851  1
  O  O5  1  0.59895149  0.59895149  0.90104851  1
  O  O6  1  0.59895149  0.90104851  0.90104851  1
  O  O7  1  0.40104851  0.09895149  0.40104851  1
  O  O8  1  0.09895149  0.40104851  0.09895149  1
  O  O9  1  0.90104851  0.59895149  0.59895149  1
  O  O10  1  0.40104851  0.09895149  0.09895149  1
  O  O11  1  0.59895149  0.90104851  0.59895149  1
  O  O12  1  0.90104851  0.59895149  0.90104851  1
  O  O13  1  0.09895149  0.40104851  0.40104851  1
  O  O14  1  0.09991479  0.09991479  0.09991479  1
  O  O15  1  0.90008521  0.90008521  0.90008521  1
  O  O16  1  0.29974436  0.90008521  0.90008521  1
  O  O17  1  0.70025564  0.09991479  0.09991479  1
  O  O18  1  0.09991479  0.70025564  0.09991479  1
  O  O19  1  0.09991479  0.09991479  0.70025564  1
loop_
_geom_bond_atom_site_label_1
_geom_bond_atom_site_label_2
_geom_bond_distance
_geom_bond_site_symmetry_2
Mn0 O8 1.892329 1_555
Mn0 O12 1.892329 1_454
Mn0 O14 1.907730 1_555
Mn0 O1 1.907730 1_454
Mn1 O4 1.973441 1_555
Mn1 O8 1.973441 1_555
Mn1 O10 1.973441 1_555
Mn1 O3 1.973441 1_555
Mn1 O13 1.973441 1_555
Mn1 O7 1.973441 1_555
Mn2 O12 1.973441 1_555
Mn2 O6 1.973441 1_555
Mn2 O9 1.973441 1_555
Mn2 O2 1.973441 1_555
Mn2 O5 1.973441 1_555
Mn2 O11 1.973441 1_555
Mn3 O3 1.892329 1_555
Mn3 O5 1.892329 1_554
Mn3 O16 1.907730 1_554
Mn3 O18 1.907730 1_555
Mn4 O4 1.892329 1_555
Mn4 O2 1.892329 1_445
Mn4 O15 1.907730 1_445
Mn4 O19 1.907730 1_555
Mn5 O4 1.892329 1_555
Mn5 O2 1.892329 1_445
Mn5 O14 1.907730 1_555
Mn5 O0 1.907730 1_445
Mn6 O3 1.892329 1_555
Mn6 O5 1.892329 1_554
Mn6 O1 1.907730 1_554
Mn6 O17 1.907730 1_555
Mn7 O7 1.892329 1_555
Mn7 O11 1.892329 1_545
Mn7 O0 1.907730 1_545
Mn7 O17 1.907730 1_555
Mn8 O8 1.892329 1_555
Mn8 O12 1.892329 1_454
Mn8 O15 1.907730 1_454
Mn8 O18 1.907730 1_555
Mn9 O7 1.892329 1_555
Mn9 O11 1.892329 1_545
Mn9 O19 1.907730 1_555
Mn9 O16 1.907730 1_545
Mn10 O10 1.892329 1_555
Mn10 O6 1.892329 1_544
Mn10 O15 1.907730 1_544
Mn10 O17 1.907730 1_555
Mn11 O13 1.892329 1_555
Mn11 O9 1.892329 1_455
Mn11 O0 1.907730 1_455
Mn11 O18 1.907730 1_555
Mn12 O13 1.892329 1_555
Mn12 O9 1.892329 1_455
Mn12 O19 1.907730 1_555
Mn12 O1 1.907730 1_455
Mn13 O10 1.892329 1_555
Mn13 O6 1.892329 1_544
Mn13 O14 1.907730 1_555
Mn13 O16 1.907730 1_544
Mn14 O0 2.260988 1_445
Mn14 O16 2.260988 1_544
Mn14 O1 2.260988 1_454
Mn14 O19 2.260988 1_554
Mn14 O18 2.260988 1_545
Mn14 O17 2.260988 1_455
Mn14 O14 2.260988 1_555
Mn14 O15 2.260988 1_444
Br0 Mn13 2.818442 1_556
Br0 Mn0 2.818442 1_556
Br0 Mn12 2.818442 1_555
Br0 Mn9 2.818442 1_555
Br1 Mn9 2.818442 1_565
Br1 Mn3 2.818442 1_556
Br1 Mn4 2.818442 1_565
Br1 Mn8 2.818442 1_556
Br2 Mn6 2.818442 1_556
Br2 Mn12 2.818442 1_655
Br2 Mn4 2.818442 1_655
Br2 Mn10 2.818442 1_556
Br3 Mn11 2.818442 1_555
Br3 Mn3 2.818442 1_555
Br3 Mn13 2.818442 1_565
Br3 Mn5 2.818442 1_565
Br4 Mn0 2.818442 1_655
Br4 Mn6 2.818442 1_555
Br4 Mn7 2.818442 1_555
Br4 Mn5 2.818442 1_655
Br5 Mn7 2.818442 1_565
Br5 Mn11 2.818442 1_655
Br5 Mn8 2.818442 1_655
Br5 Mn10 2.818442 1_565
