# generated using pymatgen
data_BaYMgCuNiO5
_symmetry_space_group_name_H-M   'P 1'
_cell_length_a   3.76267112
_cell_length_b   4.09582159
_cell_length_c   9.46048085
_cell_angle_alpha   90.00276151
_cell_angle_beta   90.01920181
_cell_angle_gamma   89.98453253
_symmetry_Int_Tables_number   1
_chemical_formula_structural   BaYMgCuNiO5
_chemical_formula_sum   'Ba1 Y1 Mg1 Cu1 Ni1 O5'
_cell_volume   145.79762913
_cell_formula_units_Z   1
loop_
 _symmetry_equiv_pos_site_id
 _symmetry_equiv_pos_as_xyz
  1  'x, y, z'
loop_
 _atom_site_type_symbol
 _atom_site_label
 _atom_site_symmetry_multiplicity
 _atom_site_fract_x
 _atom_site_fract_y
 _atom_site_fract_z
 _atom_site_occupancy
  Ba  Ba0  1  0.99961069  0.00000530  0.10938501  1
  Y  Y0  1  -0.00005790  0.99997243  0.48238749  1
  Mg  Mg0  1  0.00012728  0.49998067  0.82286075  1
  Cu  Cu0  1  0.49984535  0.50001236  0.31483444  1
  Ni  Ni0  1  0.50023969  0.49999997  0.60963614  1
  O  O0  1  0.00019348  0.49999083  0.61542999  1
  O  O1  1  0.50011950  0.99998894  0.61334775  1
  O  O2  1  -0.00010737  0.50003453  0.29901984  1
  O  O3  1  0.49987039  0.00001376  0.30445657  1
  O  O4  1  0.50015291  0.49999521  0.92727302  1
loop_
_geom_bond_atom_site_label_1
_geom_bond_atom_site_label_2
_geom_bond_distance
_geom_bond_site_symmetry_2
Ba0 O3 2.635116 1_555
Ba0 O3 2.635628 1_655
Ba0 O2 2.722567 1_645
Ba0 O2 2.722617 1_655
Ba0 O4 3.269539 1_554
Ba0 O4 3.270122 1_544
Ba0 O4 3.272497 1_644
Ba0 O4 3.273185 1_654
Mg0 O0 1.962395 1_555
Mg0 O4 2.124681 1_555
Mg0 O4 2.125097 1_455
Cu0 O2 1.887048 1_555
Cu0 O2 1.887503 1_655
Cu0 O3 2.050252 1_555
Cu0 O3 2.050273 1_565
Ni0 O0 1.881942 1_655
Ni0 O0 1.882326 1_555
Ni0 O1 2.048165 1_555
Ni0 O1 2.048259 1_545
O0 Y0 2.403761 1_555
O0 Y0 2.403787 1_545
O1 Y0 2.252435 1_655
O1 Y0 2.252857 1_555
O2 Y0 2.683635 1_555
O2 Y0 2.684151 1_545
O3 Y0 2.524253 1_645
O3 Y0 2.524692 1_545
