# generated using pymatgen
data_TiP2O7
_symmetry_space_group_name_H-M   'P 1'
_cell_length_a   7.99648414
_cell_length_b   4.84630827
_cell_length_c   6.98764570
_cell_angle_alpha   73.99483685
_cell_angle_beta   90.00000000
_cell_angle_gamma   90.00000000
_symmetry_Int_Tables_number   1
_chemical_formula_structural   TiP2O7
_chemical_formula_sum   'Ti2 P4 O14'
_cell_volume   260.29834420
_cell_formula_units_Z   2
loop_
 _symmetry_equiv_pos_site_id
 _symmetry_equiv_pos_as_xyz
  1  'x, y, z'
loop_
 _atom_site_type_symbol
 _atom_site_label
 _atom_site_symmetry_multiplicity
 _atom_site_fract_x
 _atom_site_fract_y
 _atom_site_fract_z
 _atom_site_occupancy
  Ti  Ti0  1  0.54866621  0.78625160  0.72982924  1
  Ti  Ti1  1  0.04866621  0.21374840  0.27017076  1
  P  P0  1  0.86529152  0.60955716  0.50540181  1
  P  P1  1  0.28748923  0.76222866  0.11037831  1
  P  P2  1  0.78748923  0.23777134  0.88962169  1
  P  P3  1  0.36529152  0.39044284  0.49459819  1
  O  O0  1  0.73288426  0.97464990  0.83072943  1
  O  O1  1  0.39361466  0.84218610  0.92456660  1
  O  O2  1  0.99246949  0.84859276  0.45483379  1
  O  O3  1  0.68992626  0.71958097  0.51968876  1
  O  O4  1  0.37312629  0.57987227  0.63412240  1
  O  O5  1  0.64043634  0.43004520  0.90265258  1
  O  O6  1  0.91214273  0.41737318  0.72303888  1
  O  O7  1  0.41214273  0.58262682  0.27696112  1
  O  O8  1  0.14043634  0.56995480  0.09734742  1
  O  O9  1  0.87312629  0.42012773  0.36587760  1
  O  O10  1  0.18992626  0.28041903  0.48031124  1
  O  O11  1  0.49246949  0.15140724  0.54516621  1
  O  O12  1  0.89361466  0.15781390  0.07543340  1
  O  O13  1  0.23288426  0.02535010  0.16927057  1
loop_
_geom_bond_atom_site_label_1
_geom_bond_atom_site_label_2
_geom_bond_distance
_geom_bond_site_symmetry_2
O0 P2 1.508455 1_565
O0 Ti0 1.963604 1_555
O1 P1 1.509533 1_556
O1 Ti0 1.914633 1_555
O2 P0 1.508428 1_555
O2 Ti1 1.933759 1_665
O3 P0 1.513306 1_555
O3 Ti0 1.948884 1_555
O4 P3 1.513537 1_555
O4 Ti0 1.945980 1_555
O5 P2 1.518592 1_555
O5 Ti0 1.956358 1_555
O6 P0 1.593579 1_555
O6 P2 1.596067 1_555
O7 P3 1.593579 1_555
O7 P1 1.596067 1_555
O8 P1 1.518592 1_555
O8 Ti1 1.956358 1_555
O9 P0 1.513537 1_555
O9 Ti1 1.945980 1_655
O10 P3 1.513306 1_555
O10 Ti1 1.948884 1_555
O11 P3 1.508428 1_555
O11 Ti0 1.933759 1_545
O12 P2 1.509533 1_554
O12 Ti1 1.914633 1_655
O13 P1 1.508455 1_545
O13 Ti1 1.963604 1_555
