# generated using pymatgen
data_CsGdHgSe3
_symmetry_space_group_name_H-M   'P 1'
_cell_length_a   8.45657507
_cell_length_b   8.45657507
_cell_length_c   11.25251400
_cell_angle_alpha   90.00000000
_cell_angle_beta   90.00000000
_cell_angle_gamma   150.23786868
_symmetry_Int_Tables_number   1
_chemical_formula_structural   CsGdHgSe3
_chemical_formula_sum   'Cs2 Gd2 Hg2 Se6'
_cell_volume   399.45754586
_cell_formula_units_Z   2
loop_
 _symmetry_equiv_pos_site_id
 _symmetry_equiv_pos_as_xyz
  1  'x, y, z'
loop_
 _atom_site_type_symbol
 _atom_site_label
 _atom_site_symmetry_multiplicity
 _atom_site_fract_x
 _atom_site_fract_y
 _atom_site_fract_z
 _atom_site_occupancy
  Cs  Cs0  1  0.74381800  0.25618200  0.25000000  1
  Cs  Cs1  1  0.25618200  0.74381800  0.75000000  1
  Gd  Gd0  1  0.00000000  0.00000000  0.50000000  1
  Gd  Gd1  1  0.00000000  0.00000000  0.00000000  1
  Hg  Hg0  1  0.54551200  0.45448800  0.75000000  1
  Hg  Hg1  1  0.45448800  0.54551200  0.25000000  1
  Se  Se0  1  0.06026600  0.93973400  0.25000000  1
  Se  Se1  1  0.93973400  0.06026600  0.75000000  1
  Se  Se2  1  0.61929200  0.38070800  0.54228900  1
  Se  Se3  1  0.61929200  0.38070800  0.95771100  1
  Se  Se4  1  0.38070800  0.61929200  0.04228900  1
  Se  Se5  1  0.38070800  0.61929200  0.45771100  1
loop_
_geom_bond_atom_site_label_1
_geom_bond_atom_site_label_2
_geom_bond_distance
_geom_bond_site_symmetry_2
Cs0 Se0 3.703847 1_545
Cs0 Se0 3.703847 1_655
Cs0 Se3 3.867900 1_554
Cs0 Se2 3.867900 1_555
Cs0 Se4 3.896947 1_545
Cs0 Se5 3.896947 1_545
Cs0 Se5 3.896947 1_655
Cs0 Se4 3.896947 1_655
Cs1 Se1 3.703847 1_455
Cs1 Se1 3.703847 1_565
Cs1 Se4 3.867900 1_556
Cs1 Se5 3.867900 1_555
Cs1 Se3 3.896947 1_455
Cs1 Se2 3.896947 1_455
Cs1 Se2 3.896947 1_565
Cs1 Se3 3.896947 1_565
Gd0 Se5 2.957235 1_555
Gd0 Se2 2.957235 1_445
Gd0 Se5 2.957235 1_445
Gd0 Se2 2.957235 1_555
Gd0 Se1 2.980624 1_455
Gd0 Se0 2.980624 1_545
Gd1 Se3 2.957235 1_444
Gd1 Se4 2.957235 1_445
Gd1 Se3 2.957235 1_554
Gd1 Se4 2.957235 1_555
Gd1 Se1 2.980624 1_454
Gd1 Se0 2.980624 1_545
Hg0 Se2 2.630071 1_555
Hg0 Se3 2.630071 1_555
Hg0 Se1 2.775990 1_565
Hg0 Se1 2.775990 1_455
Hg1 Se4 2.630071 1_555
Hg1 Se5 2.630071 1_555
Hg1 Se0 2.775990 1_655
Hg1 Se0 2.775990 1_545
