# generated using pymatgen
data_Mg6Ni16As7
_symmetry_space_group_name_H-M   'P 1'
_cell_length_a   8.08166546
_cell_length_b   8.08166893
_cell_length_c   8.08165902
_cell_angle_alpha   60.00461343
_cell_angle_beta   60.00460773
_cell_angle_gamma   60.00464034
_symmetry_Int_Tables_number   1
_chemical_formula_structural   Mg6Ni16As7
_chemical_formula_sum   'Mg6 Ni16 As7'
_cell_volume   373.27846981
_cell_formula_units_Z   1
loop_
 _symmetry_equiv_pos_site_id
 _symmetry_equiv_pos_as_xyz
  1  'x, y, z'
loop_
 _atom_site_type_symbol
 _atom_site_label
 _atom_site_symmetry_multiplicity
 _atom_site_fract_x
 _atom_site_fract_y
 _atom_site_fract_z
 _atom_site_occupancy
  Mg  Mg0  1  0.20001807  0.20001795  0.79997660  1
  Mg  Mg1  1  0.20002151  0.79998346  0.79998115  1
  Mg  Mg2  1  0.79997740  0.20001844  0.20001825  1
  Mg  Mg3  1  0.20001856  0.79997750  0.20001825  1
  Mg  Mg4  1  0.79998368  0.20002101  0.79998164  1
  Mg  Mg5  1  0.79998152  0.79998172  0.20002182  1
  Ni  Ni0  1  0.83212606  0.50358715  0.83212917  1
  Ni  Ni1  1  0.16790886  0.16790953  0.49630595  1
  Ni  Ni2  1  0.49630750  0.16790767  0.16791025  1
  Ni  Ni3  1  0.16789271  0.16789286  0.16789512  1
  Ni  Ni4  1  0.50358723  0.83212564  0.83212956  1
  Ni  Ni5  1  0.83214079  0.83213999  0.83214389  1
  Ni  Ni6  1  0.83212715  0.83212672  0.50358721  1
  Ni  Ni7  1  0.16790750  0.49630771  0.16791031  1
  Ni  Ni8  1  0.61840377  0.14475119  0.61840312  1
  Ni  Ni9  1  0.38156091  0.38156136  0.85535533  1
  Ni  Ni10  1  0.85535498  0.38156314  0.38155779  1
  Ni  Ni11  1  0.38154062  0.38154146  0.38153701  1
  Ni  Ni12  1  0.14475144  0.61840355  0.61840282  1
  Ni  Ni13  1  0.61842540  0.61842482  0.61842527  1
  Ni  Ni14  1  0.61840313  0.61840224  0.14475301  1
  Ni  Ni15  1  0.38156248  0.85535518  0.38155872  1
  As  As0  1  0.50000016  0.50000024  0.49999922  1
  As  As1  1  0.49998936  0.49998924  0.00001078  1
  As  As2  1  0.00001025  0.49998888  0.49998919  1
  As  As3  1  0.49998943  0.00001013  0.00001051  1
  As  As4  1  0.00001064  0.00001066  0.49998909  1
  As  As5  1  0.00001030  0.49998921  0.00001060  1
  As  As6  1  0.49998858  0.00001036  0.49998935  1
loop_
_geom_bond_atom_site_label_1
_geom_bond_atom_site_label_2
_geom_bond_distance
_geom_bond_site_symmetry_2
Mg0 Ni0 2.738239 1_455
Mg0 Ni4 2.738240 1_545
Mg0 Ni1 2.738323 1_555
Mg0 Ni3 2.738530 1_556
Mg0 Ni8 2.823114 1_555
Mg0 Ni12 2.823115 1_555
Mg0 Ni9 2.823271 1_555
Mg0 Ni11 2.823349 1_555
Mg1 Ni4 2.737832 1_555
Mg1 Ni5 2.738007 1_455
Mg1 Ni1 2.738743 1_565
Mg1 Ni7 2.738758 1_556
Mg1 Ni12 2.823175 1_555
Mg1 Ni9 2.823212 1_555
Mg1 Ni15 2.823213 1_555
Mg1 Ni13 2.823256 1_555
Mg2 Ni0 2.738221 1_554
Mg2 Ni6 2.738235 1_545
Mg2 Ni2 2.738324 1_555
Mg2 Ni3 2.738512 1_655
Mg2 Ni8 2.823105 1_555
Mg2 Ni14 2.823105 1_555
Mg2 Ni10 2.823251 1_555
Mg2 Ni11 2.823330 1_555
Mg3 Ni4 2.738218 1_554
Mg3 Ni6 2.738233 1_455
Mg3 Ni7 2.738325 1_555
Mg3 Ni3 2.738513 1_565
Mg3 Ni12 2.823103 1_555
Mg3 Ni14 2.823109 1_555
Mg3 Ni15 2.823252 1_555
Mg3 Ni11 2.823326 1_555
Mg4 Ni0 2.737833 1_555
Mg4 Ni5 2.738010 1_545
Mg4 Ni1 2.738739 1_655
Mg4 Ni2 2.738757 1_556
Mg4 Ni8 2.823175 1_555
Mg4 Ni9 2.823216 1_555
Mg4 Ni10 2.823224 1_555
Mg4 Ni13 2.823257 1_555
Mg5 Ni6 2.737828 1_555
Mg5 Ni5 2.737988 1_554
Mg5 Ni7 2.738740 1_655
Mg5 Ni2 2.738741 1_565
Mg5 Ni14 2.823166 1_555
Mg5 Ni10 2.823188 1_555
Mg5 Ni15 2.823190 1_555
Mg5 Ni13 2.823249 1_555
Ni0 Ni13 2.569816 1_555
Ni0 Ni14 2.570195 1_556
Ni0 Ni12 2.570212 1_655
Ni1 Ni11 2.569048 1_555
Ni1 Ni10 2.569449 1_455
Ni1 Ni15 2.569449 1_545
Ni2 Ni9 2.569448 1_554
Ni3 Ni9 2.569615 1_554
Ni4 Ni8 2.570214 1_565
Ni5 Ni8 2.570385 1_565
Ni6 Ni8 2.570205 1_565
Ni7 Ni9 2.569447 1_554
Ni8 Ni9 2.707457 1_555
Ni10 Ni7 2.569424 1_655
Ni10 Ni3 2.569595 1_655
Ni10 Ni13 2.707267 1_555
Ni10 Ni14 2.707424 1_555
Ni10 Ni8 2.707462 1_555
Ni11 Ni7 2.569028 1_555
Ni11 Ni2 2.569032 1_555
Ni11 Ni14 2.707234 1_555
Ni11 Ni12 2.707260 1_555
Ni11 Ni8 2.707267 1_555
Ni12 Ni6 2.570202 1_455
Ni12 Ni5 2.570382 1_455
Ni12 Ni9 2.707454 1_555
Ni12 Ni15 2.707459 1_555
Ni13 Ni6 2.569811 1_555
Ni13 Ni4 2.569819 1_555
Ni13 Ni9 2.707260 1_555
Ni13 Ni15 2.707269 1_555
Ni14 Ni4 2.570196 1_554
Ni14 Ni5 2.570368 1_554
Ni14 Ni15 2.707436 1_555
Ni15 Ni2 2.569427 1_565
Ni15 Ni3 2.569597 1_565
As0 Ni13 2.344260 1_555
As0 Ni14 2.344280 1_555
As0 Ni12 2.344299 1_555
As0 Ni8 2.344303 1_555
As0 Ni11 2.344950 1_555
As0 Ni10 2.344999 1_555
As0 Ni15 2.345001 1_555
As0 Ni9 2.345006 1_555
As1 Ni2 2.333040 1_555
As1 Ni7 2.333040 1_555
As1 Ni4 2.333222 1_554
As1 Ni0 2.333223 1_554
As1 Ni9 2.520348 1_554
As1 Ni11 2.520657 1_555
As1 Ni14 2.520749 1_555
As1 Ni13 2.521069 1_554
As1 Mg2 2.913961 1_555
As1 Mg3 2.913962 1_555
As1 Mg1 2.913973 1_554
As1 Mg4 2.913974 1_554
As2 Ni7 2.333016 1_555
As2 Ni1 2.333028 1_555
As2 Ni6 2.333233 1_455
As2 Ni0 2.333245 1_455
As2 Ni10 2.520352 1_455
As2 Ni11 2.520687 1_555
As2 Ni12 2.520751 1_555
As2 Ni13 2.521067 1_455
As2 Mg4 2.913957 1_455
As2 Mg0 2.913958 1_555
As2 Mg5 2.913964 1_455
As2 Mg3 2.913967 1_555
As3 Ni2 2.333115 1_555
As3 Ni3 2.333173 1_555
As3 Ni4 2.333279 1_544
As3 Ni5 2.333351 1_544
As3 Ni15 2.520820 1_545
As3 Ni9 2.520844 1_554
As3 Ni8 2.521233 1_554
As3 Ni14 2.521240 1_545
As3 Mg5 2.913926 1_545
As3 Mg3 2.913927 1_545
As3 Mg0 2.913937 1_554
As3 Mg4 2.913938 1_554
As4 Ni1 2.333108 1_555
As4 Ni3 2.333151 1_555
As4 Ni6 2.333292 1_445
As4 Ni5 2.333374 1_445
As4 Ni15 2.520847 1_545
As4 Ni10 2.520852 1_455
As4 Ni8 2.521232 1_455
As4 Ni12 2.521235 1_545
As4 Mg1 2.913924 1_545
As4 Mg4 2.913925 1_455
As4 Mg3 2.913928 1_545
As4 Mg2 2.913929 1_455
As5 Ni7 2.333114 1_555
As5 Ni3 2.333171 1_555
As5 Ni0 2.333279 1_454
As5 Ni5 2.333348 1_454
As5 Ni10 2.520814 1_455
As5 Ni9 2.520838 1_554
As5 Ni14 2.521234 1_455
As5 Ni12 2.521235 1_554
As5 Mg2 2.913928 1_455
As5 Mg5 2.913929 1_455
As5 Mg0 2.913937 1_554
As5 Mg1 2.913940 1_554
As6 Ni2 2.333018 1_555
As6 Ni1 2.333030 1_555
As6 Ni6 2.333237 1_545
As6 Ni4 2.333248 1_545
As6 Ni15 2.520349 1_545
As6 Ni11 2.520693 1_555
As6 Ni8 2.520753 1_555
As6 Ni13 2.521073 1_545
As6 Mg1 2.913953 1_545
As6 Mg0 2.913956 1_555
As6 Mg5 2.913965 1_545
As6 Mg2 2.913967 1_555
