# generated using pymatgen
data_MgMn(SbO3)4
_symmetry_space_group_name_H-M   'P 1'
_cell_length_a   5.44583467
_cell_length_b   10.97987656
_cell_length_c   9.63359379
_cell_angle_alpha   28.78466200
_cell_angle_beta   52.83049563
_cell_angle_gamma   57.96461746
_symmetry_Int_Tables_number   1
_chemical_formula_structural   MgMn(SbO3)4
_chemical_formula_sum   'Mg1 Mn1 Sb4 O12'
_cell_volume   221.02425128
_cell_formula_units_Z   1
loop_
 _symmetry_equiv_pos_site_id
 _symmetry_equiv_pos_as_xyz
  1  'x, y, z'
loop_
 _atom_site_type_symbol
 _atom_site_label
 _atom_site_symmetry_multiplicity
 _atom_site_fract_x
 _atom_site_fract_y
 _atom_site_fract_z
 _atom_site_occupancy
  Mg  Mg0  1  0.78122300  0.50390700  0.76775300  1
  Mn  Mn0  1  0.26636800  0.99427300  0.25962800  1
  Sb  Sb0  1  0.01086900  0.99801900  0.98021400  1
  Sb  Sb1  1  0.97159700  0.50346700  0.00388100  1
  Sb  Sb2  1  0.46663000  0.99940100  0.50648200  1
  Sb  Sb3  1  0.51225200  0.50123900  0.47570400  1
  O  O0  1  0.36240200  0.30618300  0.10974700  1
  O  O1  1  0.24699900  0.12854400  0.61125500  1
  O  O2  1  0.12231600  0.30365800  0.75427100  1
  O  O3  1  0.85036700  0.20672900  0.21105800  1
  O  O4  1  0.35993900  0.82348900  0.12632300  1
  O  O5  1  0.74258800  0.36903100  0.37026600  1
  O  O6  1  0.20200300  0.60403500  0.64047600  1
  O  O7  1  0.63208000  0.20057700  0.85181300  1
  O  O8  1  0.11127000  0.83727100  0.69113400  1
  O  O9  1  0.86397600  0.68166400  0.25923300  1
  O  O10  1  0.71045400  0.88118100  0.36245200  1
  O  O11  1  0.61977900  0.66923700  0.85538700  1
loop_
_geom_bond_atom_site_label_1
_geom_bond_atom_site_label_2
_geom_bond_distance
_geom_bond_site_symmetry_2
Mg0 O2 2.043972 1_655
Mg0 O10 2.080108 1_555
Mg0 O0 2.098898 1_556
Mg0 O11 2.208460 1_555
Mg0 O6 2.208556 1_655
Mg0 O3 2.289218 1_556
Mn0 O7 2.065057 1_564
Mn0 O6 2.103917 1_555
Mn0 O3 2.134028 1_465
Mn0 O8 2.388787 1_555
Mn0 O10 2.434061 1_555
Mn0 O0 2.531196 1_565
O0 Sb1 2.030114 1_455
O0 Sb2 2.074240 1_545
O1 Sb2 1.926321 1_545
O1 Sb0 1.960693 1_545
O2 Sb0 2.031892 1_545
O2 Sb3 2.052748 1_555
O3 Sb2 2.037855 1_545
O3 Sb1 2.079917 1_555
O4 Sb0 1.976786 1_554
O4 Sb3 1.980093 1_555
O5 Sb1 1.921912 1_555
O5 Sb3 1.955930 1_555
O6 Sb1 2.106106 1_456
O6 Sb3 2.127183 1_555
O7 Sb3 2.014238 1_555
O7 Sb0 2.031148 1_645
O8 Sb1 1.980233 1_456
O8 Sb2 2.005675 1_555
O9 Sb3 1.974750 1_555
O9 Sb0 1.978396 1_654
O10 Sb2 2.115545 1_555
O10 Sb0 2.132705 1_654
O11 Sb2 1.989059 1_555
O11 Sb1 2.019494 1_556
