# generated using pymatgen
data_U4Si6Tc7
_symmetry_space_group_name_H-M   'P 1'
_cell_length_a   7.09998153
_cell_length_b   7.10002533
_cell_length_c   7.10002874
_cell_angle_alpha   109.47162040
_cell_angle_beta   109.47115869
_cell_angle_gamma   109.47114752
_symmetry_Int_Tables_number   1
_chemical_formula_structural   U4Si6Tc7
_chemical_formula_sum   'U4 Si6 Tc7'
_cell_volume   275.52049754
_cell_formula_units_Z   1
loop_
 _symmetry_equiv_pos_site_id
 _symmetry_equiv_pos_as_xyz
  1  'x, y, z'
loop_
 _atom_site_type_symbol
 _atom_site_label
 _atom_site_symmetry_multiplicity
 _atom_site_fract_x
 _atom_site_fract_y
 _atom_site_fract_z
 _atom_site_occupancy
  U  U0  1  -0.00000000  -0.00000000  0.50000000  1
  U  U1  1  -0.00000000  0.50000000  -0.00000000  1
  U  U2  1  0.50000000  -0.00000000  -0.00000000  1
  U  U3  1  0.50000000  0.50000000  0.50000000  1
  Si  Si0  1  0.00000000  0.68766089  0.68765989  1
  Si  Si1  1  0.31236661  0.31233994  0.00002566  1
  Si  Si2  1  0.68763339  0.68766006  -0.00002566  1
  Si  Si3  1  0.68763339  -0.00002566  0.68765906  1
  Si  Si4  1  0.31236661  0.00002566  0.31234094  1
  Si  Si5  1  -0.00000000  0.31233911  0.31234011  1
  Tc  Tc0  1  0.74990835  0.49990964  0.25000071  1
  Tc  Tc1  1  0.74990835  0.24999871  0.49990764  1
  Tc  Tc2  1  0.25009165  0.75000129  0.50009236  1
  Tc  Tc3  1  0.49999800  0.24999900  0.74999900  1
  Tc  Tc4  1  -0.00000000  -0.00000000  -0.00000000  1
  Tc  Tc5  1  0.25009165  0.50009036  0.74999929  1
  Tc  Tc6  1  0.50000200  0.75000100  0.25000100  1
loop_
_geom_bond_atom_site_label_1
_geom_bond_atom_site_label_2
_geom_bond_distance
_geom_bond_site_symmetry_2
Si0 Tc4 2.560674 1_566
Si0 Tc2 2.562777 1_555
Si0 Tc0 2.562777 1_455
Si0 Tc1 2.562792 1_455
Si0 Tc5 2.562792 1_555
Si0 U2 2.943266 1_566
Si0 U3 2.943266 1_455
Si0 U0 2.943288 1_565
Si0 U1 2.943300 1_556
Si1 Tc4 2.560687 1_555
Si1 Tc0 2.562146 1_555
Si1 Tc3 2.562769 1_554
Si1 Tc6 2.562784 1_555
Si1 Tc5 2.563412 1_554
Si1 U2 2.943128 1_555
Si1 U3 2.943135 1_555
Si1 U0 2.943421 1_554
Si1 U1 2.943426 1_555
Si2 Tc4 2.560687 1_665
Si2 Tc5 2.562146 1_554
Si2 Tc6 2.562769 1_555
Si2 Tc3 2.562784 1_554
Si2 Tc0 2.563412 1_555
Si2 U2 2.943128 1_565
Si2 U3 2.943135 1_554
Si2 U0 2.943421 1_665
Si2 U1 2.943426 1_655
Si3 Tc4 2.560692 1_656
Si3 Tc2 2.562146 1_545
Si3 Tc6 2.562769 1_545
Si3 Tc3 2.562778 1_555
Si3 Tc1 2.563406 1_555
Si3 U3 2.943135 1_545
Si3 U2 2.943136 1_556
Si3 U1 2.943421 1_656
Si3 U0 2.943422 1_655
Si4 Tc4 2.560692 1_555
Si4 Tc1 2.562146 1_555
Si4 Tc3 2.562769 1_555
Si4 Tc6 2.562778 1_545
Si4 Tc2 2.563406 1_545
Si4 U3 2.943135 1_555
Si4 U2 2.943136 1_555
Si4 U1 2.943421 1_545
Si4 U0 2.943422 1_555
Si5 Tc4 2.560674 1_555
Si5 Tc1 2.562777 1_455
Si5 Tc5 2.562777 1_555
Si5 Tc2 2.562792 1_555
Si5 Tc0 2.562792 1_455
Si5 U2 2.943266 1_455
Si5 U3 2.943266 1_555
Si5 U0 2.943288 1_555
Si5 U1 2.943300 1_555
Tc0 Tc1 2.897525 1_555
Tc0 U3 2.898028 1_555
Tc0 U2 2.898039 1_555
Tc0 Tc6 2.898550 1_555
Tc0 Tc3 2.898574 1_554
Tc0 U0 2.899087 1_665
Tc0 U1 2.899099 1_655
Tc0 Tc2 2.899616 1_655
Tc1 U2 2.898028 1_555
Tc1 U3 2.898039 1_555
Tc1 Tc6 2.898549 1_545
Tc1 Tc3 2.898574 1_555
Tc1 U0 2.899087 1_655
Tc1 U1 2.899099 1_656
Tc1 Tc5 2.899616 1_655
Tc2 Tc5 2.897525 1_555
Tc2 U2 2.898028 1_566
Tc2 U3 2.898039 1_555
Tc2 Tc3 2.898549 1_565
Tc2 Tc6 2.898574 1_555
Tc2 U0 2.899087 1_565
Tc2 U1 2.899099 1_555
Tc3 U0 2.898541 1_555
Tc3 Tc5 2.898550 1_555
Tc3 U1 2.898565 1_656
Tc3 U3 2.898581 1_555
Tc3 U2 2.898581 1_556
Tc5 U3 2.898028 1_555
Tc5 U2 2.898039 1_566
Tc5 Tc6 2.898574 1_556
Tc5 U0 2.899087 1_555
Tc5 U1 2.899099 1_556
Tc6 U0 2.898541 1_665
Tc6 U1 2.898565 1_555
Tc6 U3 2.898581 1_555
Tc6 U2 2.898581 1_565
