# generated using pymatgen
data_Na2MgMn2O8
_symmetry_space_group_name_H-M   'P 1'
_cell_length_a   5.48467470
_cell_length_b   5.48467470
_cell_length_c   7.19715492
_cell_angle_alpha   87.08728826
_cell_angle_beta   87.08728826
_cell_angle_gamma   68.88980797
_symmetry_Int_Tables_number   1
_chemical_formula_structural   Na2MgMn2O8
_chemical_formula_sum   'Na2 Mg1 Mn2 O8'
_cell_volume   201.58897144
_cell_formula_units_Z   1
loop_
 _symmetry_equiv_pos_site_id
 _symmetry_equiv_pos_as_xyz
  1  'x, y, z'
loop_
 _atom_site_type_symbol
 _atom_site_label
 _atom_site_symmetry_multiplicity
 _atom_site_fract_x
 _atom_site_fract_y
 _atom_site_fract_z
 _atom_site_occupancy
  Na  Na0  1  0.00000000  0.00000000  0.00000000  1
  Na  Na1  1  0.00000000  0.00000000  0.50000000  1
  Mg  Mg0  1  0.50000000  0.50000000  0.50000000  1
  Mn  Mn0  1  0.64485700  0.64485700  0.77242400  1
  Mn  Mn1  1  0.35514300  0.35514300  0.22757600  1
  O  O0  1  0.25683100  0.68114900  0.26093900  1
  O  O1  1  0.31885100  0.74316900  0.73906100  1
  O  O2  1  0.74040400  0.74040400  0.56380600  1
  O  O3  1  0.25019500  0.25019500  0.05529100  1
  O  O4  1  0.25959600  0.25959600  0.43619400  1
  O  O5  1  0.74980500  0.74980500  0.94470900  1
  O  O6  1  0.68114900  0.25683100  0.26093900  1
  O  O7  1  0.74316900  0.31885100  0.73906100  1
loop_
_geom_bond_atom_site_label_1
_geom_bond_atom_site_label_2
_geom_bond_distance
_geom_bond_site_symmetry_2
Na0 O5 2.322030 1_444
Na0 O3 2.322030 1_555
Na0 O0 2.594244 1_545
Na0 O6 2.594244 1_455
Na0 O1 2.594244 1_544
Na0 O7 2.594244 1_454
Na1 O4 2.364877 1_555
Na1 O2 2.364877 1_445
Na1 O0 2.507564 1_545
Na1 O6 2.507564 1_455
Na1 O1 2.507564 1_545
Na1 O7 2.507564 1_455
Mg0 O7 2.197999 1_555
Mg0 O1 2.197999 1_555
Mg0 O6 2.197999 1_555
Mg0 O0 2.197999 1_555
Mg0 O2 2.250190 1_555
Mg0 O4 2.250190 1_555
Mn0 O5 1.607445 1_555
Mn0 O2 1.685676 1_555
Mn0 O1 1.697489 1_555
Mn0 O7 1.697489 1_555
Mn1 O3 1.607445 1_555
Mn1 O4 1.685676 1_555
Mn1 O0 1.697489 1_555
Mn1 O6 1.697489 1_555
