# generated using pymatgen
data_MgMn6(O2F)4
_symmetry_space_group_name_H-M   'P 1'
_cell_length_a   5.10929238
_cell_length_b   7.66074660
_cell_length_c   5.71950183
_cell_angle_alpha   94.68074109
_cell_angle_beta   97.30850978
_cell_angle_gamma   86.40800155
_symmetry_Int_Tables_number   1
_chemical_formula_structural   MgMn6(O2F)4
_chemical_formula_sum   'Mg1 Mn6 O8 F4'
_cell_volume   220.99806015
_cell_formula_units_Z   1
loop_
 _symmetry_equiv_pos_site_id
 _symmetry_equiv_pos_as_xyz
  1  'x, y, z'
loop_
 _atom_site_type_symbol
 _atom_site_label
 _atom_site_symmetry_multiplicity
 _atom_site_fract_x
 _atom_site_fract_y
 _atom_site_fract_z
 _atom_site_occupancy
  Mg  Mg0  1  0.97018238  0.84514270  0.33737799  1
  Mn  Mn0  1  0.45702139  0.98446612  0.50511115  1
  Mn  Mn1  1  0.48310258  0.64303371  0.17651962  1
  Mn  Mn2  1  0.52265317  0.34602862  0.81034927  1
  Mn  Mn3  1  0.96611483  0.64545595  0.71471683  1
  Mn  Mn4  1  0.98118743  0.32259250  0.34593607  1
  Mn  Mn5  1  0.05770022  0.01313500  0.95663329  1
  O  O0  1  0.79673787  0.42423487  0.64343568  1
  O  O1  1  0.88794622  0.09455727  0.23141832  1
  O  O2  1  0.67345760  0.75792962  0.47579061  1
  O  O3  1  0.70626302  0.43214039  0.12329639  1
  O  O4  1  0.29398849  0.56235722  0.88145610  1
  O  O5  1  0.31056178  0.22603067  0.52159247  1
  O  O6  1  0.30022139  0.87982477  0.19350840  1
  O  O7  1  0.15105250  0.87831771  0.67866346  1
  F  F0  1  0.80626038  0.77803336  0.00830126  1
  F  F1  1  0.71755293  0.08690111  0.76119606  1
  F  F2  1  0.14268302  0.56976445  0.37044589  1
  F  F3  1  0.27531482  0.22671795  0.99044012  1
loop_
_geom_bond_atom_site_label_1
_geom_bond_atom_site_label_2
_geom_bond_distance
_geom_bond_site_symmetry_2
Mg0 O2 1.972336 1_555
Mg0 O6 2.008989 1_655
Mg0 O1 2.053828 1_565
Mg0 O7 2.053860 1_655
Mn0 O5 1.951767 1_565
Mn0 O6 1.986139 1_555
Mn0 O2 2.005482 1_555
Mn0 O7 2.185467 1_555
Mn1 O4 1.911379 1_554
Mn1 O3 1.944245 1_555
Mn1 O6 1.988734 1_555
Mn1 O2 2.021960 1_555
Mn2 O0 1.941648 1_555
Mn2 O3 1.994144 1_556
Mn2 O4 2.011239 1_555
Mn2 O5 2.041724 1_555
Mn3 O4 1.918341 1_655
Mn3 O0 1.941246 1_555
Mn3 O2 2.087231 1_555
Mn3 O7 2.106765 1_655
Mn4 O1 1.883039 1_555
Mn4 O3 1.967363 1_555
Mn4 O5 1.980849 1_655
Mn4 O0 2.118845 1_555
Mn5 O7 1.919638 1_545
Mn5 O1 1.931419 1_456
Mn5 O6 2.013455 1_546
F0 Mg0 2.000807 1_555
F0 Mn3 2.117738 1_554
F0 Mn5 2.335573 1_664
F0 Mn1 2.345621 1_555
F1 Mn0 1.995056 1_545
F1 Mn5 2.018649 1_655
F1 Mn2 2.178019 1_555
F2 Mn4 2.099746 1_455
F2 Mg0 2.247825 1_455
F2 Mn3 2.286336 1_455
F2 Mn1 2.298963 1_555
F3 Mn5 2.018019 1_555
F3 Mn2 2.030500 1_555
