# generated using pymatgen
data_DyCo3B2
_symmetry_space_group_name_H-M   'P 1'
_cell_length_a   10.04595018
_cell_length_b   10.04586475
_cell_length_c   5.85689530
_cell_angle_alpha   90.00000000
_cell_angle_beta   90.00000000
_cell_angle_gamma   119.99960082
_symmetry_Int_Tables_number   1
_chemical_formula_structural   DyCo3B2
_chemical_formula_sum   'Dy8 Co24 B16'
_cell_volume   511.89181566
_cell_formula_units_Z   8
loop_
 _symmetry_equiv_pos_site_id
 _symmetry_equiv_pos_as_xyz
  1  'x, y, z'
loop_
 _atom_site_type_symbol
 _atom_site_label
 _atom_site_symmetry_multiplicity
 _atom_site_fract_x
 _atom_site_fract_y
 _atom_site_fract_z
 _atom_site_occupancy
  Dy  Dy0_0  1  0.00000000  0.00000000  0.00000000  1
  Dy  Dy0_1  1  0.00000000  0.00000000  0.50000000  1
  Dy  Dy0_2  1  0.00000000  0.50000000  0.00000000  1
  Dy  Dy0_3  1  0.00000000  0.50000000  0.50000000  1
  Dy  Dy0_4  1  0.50000000  0.00000000  0.00000000  1
  Dy  Dy0_5  1  0.50000000  0.00000000  0.50000000  1
  Dy  Dy0_6  1  0.50000000  0.50000000  0.00000000  1
  Dy  Dy0_7  1  0.50000000  0.50000000  0.50000000  1
  Co  Co0_0  1  0.25000000  0.00000000  0.25000000  1
  Co  Co0_1  1  0.25000000  0.00000000  0.75000000  1
  Co  Co0_2  1  0.25000000  0.50000000  0.25000000  1
  Co  Co0_3  1  0.25000000  0.50000000  0.75000000  1
  Co  Co0_4  1  0.75000000  0.00000000  0.25000000  1
  Co  Co0_5  1  0.75000000  0.00000000  0.75000000  1
  Co  Co0_6  1  0.75000000  0.50000000  0.25000000  1
  Co  Co0_7  1  0.75000000  0.50000000  0.75000000  1
  Co  Co1_0  1  0.25000000  0.25000000  0.25000000  1
  Co  Co1_1  1  0.25000000  0.25000000  0.75000000  1
  Co  Co1_2  1  0.25000000  0.75000000  0.25000000  1
  Co  Co1_3  1  0.25000000  0.75000000  0.75000000  1
  Co  Co1_4  1  0.75000000  0.25000000  0.25000000  1
  Co  Co1_5  1  0.75000000  0.25000000  0.75000000  1
  Co  Co1_6  1  0.75000000  0.75000000  0.25000000  1
  Co  Co1_7  1  0.75000000  0.75000000  0.75000000  1
  Co  Co2_0  1  0.00000000  0.25000000  0.25000000  1
  Co  Co2_1  1  0.00000000  0.25000000  0.75000000  1
  Co  Co2_2  1  0.00000000  0.75000000  0.25000000  1
  Co  Co2_3  1  0.00000000  0.75000000  0.75000000  1
  Co  Co2_4  1  0.50000000  0.25000000  0.25000000  1
  Co  Co2_5  1  0.50000000  0.25000000  0.75000000  1
  Co  Co2_6  1  0.50000000  0.75000000  0.25000000  1
  Co  Co2_7  1  0.50000000  0.75000000  0.75000000  1
  B  B0_0  1  0.16667549  0.33333674  0.00000000  1
  B  B0_1  1  0.16667549  0.33333674  0.50000000  1
  B  B0_2  1  0.16667548  0.83333674  0.00000000  1
  B  B0_3  1  0.16667548  0.83333674  0.50000000  1
  B  B0_4  1  0.66667548  0.33333674  0.00000000  1
  B  B0_5  1  0.66667548  0.33333674  0.50000000  1
  B  B0_6  1  0.66667548  0.83333674  0.00000000  1
  B  B0_7  1  0.66667548  0.83333674  0.50000000  1
  B  B1_0  1  0.33332451  0.16666326  0.00000000  1
  B  B1_1  1  0.33332451  0.16666326  0.50000000  1
  B  B1_2  1  0.33332451  0.66666326  0.00000000  1
  B  B1_3  1  0.33332451  0.66666326  0.50000000  1
  B  B1_4  1  0.83332451  0.16666325  0.00000000  1
  B  B1_5  1  0.83332451  0.16666325  0.50000000  1
  B  B1_6  1  0.83332451  0.66666326  0.00000000  1
  B  B1_7  1  0.83332451  0.66666326  0.50000000  1
loop_
_geom_bond_atom_site_label_1
_geom_bond_atom_site_label_2
_geom_bond_distance
_geom_bond_site_symmetry_2
Dy0_0 Dy0_1 2.928448 1_555
Dy0_0 Dy0_1 2.928448 1_554
Dy0_2 Dy0_3 2.928448 1_554
Dy0_2 Dy0_3 2.928448 1_555
Dy0_4 Dy0_5 2.928448 1_555
Dy0_4 Dy0_5 2.928448 1_554
Dy0_6 Dy0_7 2.928448 1_555
Dy0_6 Dy0_7 2.928448 1_554
Co0_0 Dy0_4 2.907150 1_555
Co0_0 Dy0_1 2.907150 1_555
Co0_0 Dy0_5 2.907150 1_555
Co0_0 Dy0_0 2.907150 1_555
Co0_1 Dy0_0 2.907150 1_556
Co0_1 Dy0_4 2.907150 1_556
Co0_1 Dy0_1 2.907150 1_555
Co0_1 Dy0_5 2.907150 1_555
Co0_2 Dy0_2 2.907150 1_555
Co0_2 Dy0_3 2.907150 1_555
Co0_2 Dy0_6 2.907150 1_555
Co0_2 Dy0_7 2.907150 1_555
Co0_3 Dy0_2 2.907150 1_556
Co0_3 Dy0_6 2.907150 1_556
Co0_3 Dy0_3 2.907150 1_555
Co0_3 Dy0_7 2.907150 1_555
Co0_4 Dy0_1 2.907150 1_655
Co0_4 Dy0_0 2.907150 1_655
Co0_4 Dy0_5 2.907150 1_555
Co0_4 Dy0_4 2.907150 1_555
Co0_5 Dy0_0 2.907150 1_656
Co0_5 Dy0_1 2.907150 1_655
Co0_5 Dy0_4 2.907150 1_556
Co0_5 Dy0_5 2.907150 1_555
Co0_6 Dy0_7 2.907150 1_555
Co0_6 Dy0_6 2.907150 1_555
Co0_6 Dy0_3 2.907150 1_655
Co0_6 Dy0_2 2.907150 1_655
Co0_7 Dy0_6 2.907150 1_556
Co0_7 Dy0_7 2.907150 1_555
Co0_7 Dy0_2 2.907150 1_656
Co0_7 Dy0_3 2.907150 1_655
Co1_0 Dy0_6 2.907154 1_555
Co1_0 Dy0_0 2.907154 1_555
Co1_0 Dy0_7 2.907154 1_555
Co1_0 Dy0_1 2.907154 1_555
Co1_1 Dy0_0 2.907154 1_556
Co1_1 Dy0_6 2.907154 1_556
Co1_1 Dy0_7 2.907154 1_555
Co1_1 Dy0_1 2.907154 1_555
Co1_2 Dy0_3 2.907154 1_555
Co1_2 Dy0_4 2.907154 1_565
Co1_2 Dy0_5 2.907154 1_565
Co1_2 Dy0_2 2.907154 1_555
Co1_3 Dy0_4 2.907154 1_566
Co1_3 Dy0_2 2.907154 1_556
Co1_3 Dy0_3 2.907154 1_555
Co1_3 Dy0_5 2.907154 1_565
Co1_4 Dy0_3 2.907154 1_655
Co1_4 Dy0_2 2.907154 1_655
Co1_4 Dy0_5 2.907154 1_555
Co1_4 Dy0_4 2.907154 1_555
Co1_5 Dy0_2 2.907154 1_656
Co1_5 Dy0_4 2.907154 1_556
Co1_5 Dy0_3 2.907154 1_655
Co1_5 Dy0_5 2.907154 1_555
Co1_6 Dy0_6 2.907154 1_555
Co1_6 Dy0_7 2.907154 1_555
Co1_6 Dy0_0 2.907154 1_665
Co1_6 Dy0_1 2.907154 1_665
Co1_7 Dy0_6 2.907154 1_556
Co1_7 Dy0_7 2.907154 1_555
Co1_7 Dy0_0 2.907154 1_666
Co1_7 Dy0_1 2.907154 1_665
Co2_0 Dy0_1 2.907132 1_555
Co2_0 Dy0_2 2.907132 1_555
Co2_0 Dy0_3 2.907132 1_555
Co2_0 Dy0_0 2.907132 1_555
Co2_1 Dy0_0 2.907132 1_556
Co2_1 Dy0_2 2.907132 1_556
Co2_1 Dy0_3 2.907132 1_555
Co2_1 Dy0_1 2.907132 1_555
Co2_2 Dy0_1 2.907132 1_565
Co2_2 Dy0_2 2.907132 1_555
Co2_2 Dy0_0 2.907132 1_565
Co2_2 Dy0_3 2.907132 1_555
Co2_3 Dy0_0 2.907132 1_566
Co2_3 Dy0_2 2.907132 1_556
Co2_3 Dy0_3 2.907132 1_555
Co2_3 Dy0_1 2.907132 1_565
Co2_4 Dy0_6 2.907132 1_555
Co2_4 Dy0_7 2.907132 1_555
Co2_4 Dy0_4 2.907132 1_555
Co2_4 Dy0_5 2.907132 1_555
Co2_5 Dy0_4 2.907132 1_556
Co2_5 Dy0_6 2.907132 1_556
Co2_5 Dy0_7 2.907132 1_555
Co2_5 Dy0_5 2.907132 1_555
Co2_6 Dy0_5 2.907132 1_565
Co2_6 Dy0_4 2.907132 1_565
Co2_6 Dy0_6 2.907132 1_555
Co2_6 Dy0_7 2.907132 1_555
Co2_7 Dy0_4 2.907132 1_566
Co2_7 Dy0_5 2.907132 1_565
Co2_7 Dy0_6 2.907132 1_556
Co2_7 Dy0_7 2.907132 1_555
B0_0 Co1_1 2.060658 1_554
B0_0 Co1_0 2.060658 1_555
B0_0 Co0_3 2.060672 1_554
B0_0 Co0_2 2.060672 1_555
B0_0 Co2_1 2.060756 1_554
B0_0 Co2_0 2.060756 1_555
B0_0 Dy0_6 2.899951 1_555
B0_0 Dy0_0 2.900033 1_555
B0_0 Dy0_2 2.900045 1_555
B0_1 Co1_0 2.060658 1_555
B0_1 Co1_1 2.060658 1_555
B0_1 Co0_2 2.060672 1_555
B0_1 Co0_3 2.060672 1_555
B0_1 Co2_0 2.060756 1_555
B0_1 Co2_1 2.060756 1_555
B0_1 Dy0_7 2.899951 1_555
B0_1 Dy0_1 2.900033 1_555
B0_1 Dy0_3 2.900045 1_555
B0_2 Co1_3 2.060658 1_554
B0_2 Co1_2 2.060658 1_555
B0_2 Co0_1 2.060672 1_564
B0_2 Co0_0 2.060672 1_565
B0_2 Co2_3 2.060756 1_554
B0_2 Co2_2 2.060756 1_555
B0_2 Dy0_4 2.899951 1_565
B0_2 Dy0_2 2.900033 1_555
B0_2 Dy0_0 2.900045 1_565
B0_3 Co1_2 2.060658 1_555
B0_3 Co1_3 2.060658 1_555
B0_3 Co0_0 2.060672 1_565
B0_3 Co0_1 2.060672 1_565
B0_3 Co2_2 2.060756 1_555
B0_3 Co2_3 2.060756 1_555
B0_3 Dy0_5 2.899951 1_565
B0_3 Dy0_3 2.900033 1_555
B0_3 Dy0_1 2.900045 1_565
B0_4 Co1_5 2.060658 1_554
B0_4 Co1_4 2.060658 1_555
B0_4 Co0_7 2.060672 1_554
B0_4 Co0_6 2.060672 1_555
B0_4 Co2_5 2.060756 1_554
B0_4 Co2_4 2.060756 1_555
B0_4 Dy0_2 2.899951 1_655
B0_4 Dy0_4 2.900033 1_555
B0_4 Dy0_6 2.900045 1_555
B0_5 Co1_4 2.060658 1_555
B0_5 Co1_5 2.060658 1_555
B0_5 Co0_6 2.060672 1_555
B0_5 Co0_7 2.060672 1_555
B0_5 Co2_4 2.060756 1_555
B0_5 Co2_5 2.060756 1_555
B0_5 Dy0_3 2.899951 1_655
B0_5 Dy0_5 2.900033 1_555
B0_5 Dy0_7 2.900045 1_555
B0_6 Co1_7 2.060658 1_554
B0_6 Co1_6 2.060658 1_555
B0_6 Co0_5 2.060672 1_564
B0_6 Co0_4 2.060672 1_565
B0_6 Co2_7 2.060756 1_554
B0_6 Co2_6 2.060756 1_555
B0_6 Dy0_0 2.899951 1_665
B0_6 Dy0_6 2.900033 1_555
B0_6 Dy0_4 2.900045 1_565
B0_7 Co1_6 2.060658 1_555
B0_7 Co1_7 2.060658 1_555
B0_7 Co0_4 2.060672 1_565
B0_7 Co0_5 2.060672 1_565
B0_7 Co2_6 2.060756 1_555
B0_7 Co2_7 2.060756 1_555
B0_7 Dy0_1 2.899951 1_665
B0_7 Dy0_7 2.900033 1_555
B0_7 Dy0_5 2.900045 1_565
B1_0 Co1_1 2.060658 1_554
B1_0 Co1_0 2.060658 1_555
B1_0 Co0_1 2.060672 1_554
B1_0 Co0_0 2.060672 1_555
B1_0 Co2_5 2.060756 1_554
B1_0 Co2_4 2.060756 1_555
B1_0 Dy0_0 2.899951 1_555
B1_0 Dy0_6 2.900033 1_555
B1_0 Dy0_4 2.900045 1_555
B1_1 Co1_0 2.060658 1_555
B1_1 Co1_1 2.060658 1_555
B1_1 Co0_0 2.060672 1_555
B1_1 Co0_1 2.060672 1_555
B1_1 Co2_4 2.060756 1_555
B1_1 Co2_5 2.060756 1_555
B1_1 Dy0_1 2.899951 1_555
B1_1 Dy0_7 2.900033 1_555
B1_1 Dy0_5 2.900045 1_555
B1_2 Co1_3 2.060658 1_554
B1_2 Co1_2 2.060658 1_555
B1_2 Co0_3 2.060672 1_554
B1_2 Co0_2 2.060672 1_555
B1_2 Co2_7 2.060756 1_554
B1_2 Co2_6 2.060756 1_555
B1_2 Dy0_2 2.899951 1_555
B1_2 Dy0_4 2.900033 1_565
B1_2 Dy0_6 2.900045 1_555
B1_3 Co1_2 2.060658 1_555
B1_3 Co1_3 2.060658 1_555
B1_3 Co0_2 2.060672 1_555
B1_3 Co0_3 2.060672 1_555
B1_3 Co2_6 2.060756 1_555
B1_3 Co2_7 2.060756 1_555
B1_3 Dy0_3 2.899951 1_555
B1_3 Dy0_5 2.900033 1_565
B1_3 Dy0_7 2.900045 1_555
B1_4 Co1_5 2.060658 1_554
B1_4 Co1_4 2.060658 1_555
B1_4 Co0_5 2.060672 1_554
B1_4 Co0_4 2.060672 1_555
B1_4 Co2_1 2.060756 1_654
B1_4 Co2_0 2.060756 1_655
B1_4 Dy0_4 2.899951 1_555
B1_4 Dy0_2 2.900033 1_655
B1_4 Dy0_0 2.900045 1_655
B1_5 Co1_4 2.060658 1_555
B1_5 Co1_5 2.060658 1_555
B1_5 Co0_4 2.060672 1_555
B1_5 Co0_5 2.060672 1_555
B1_5 Co2_0 2.060756 1_655
B1_5 Co2_1 2.060756 1_655
B1_5 Dy0_5 2.899951 1_555
B1_5 Dy0_3 2.900033 1_655
B1_5 Dy0_1 2.900045 1_655
B1_6 Co1_7 2.060658 1_554
B1_6 Co1_6 2.060658 1_555
B1_6 Co0_7 2.060672 1_554
B1_6 Co0_6 2.060672 1_555
B1_6 Co2_3 2.060756 1_654
B1_6 Co2_2 2.060756 1_655
B1_6 Dy0_6 2.899951 1_555
B1_6 Dy0_0 2.900033 1_665
B1_6 Dy0_2 2.900045 1_655
B1_7 Co1_6 2.060658 1_555
B1_7 Co1_7 2.060658 1_555
B1_7 Co0_7 2.060672 1_555
B1_7 Co0_6 2.060672 1_555
B1_7 Co2_2 2.060756 1_655
B1_7 Co2_3 2.060756 1_655
B1_7 Dy0_7 2.899951 1_555
B1_7 Dy0_1 2.900033 1_665
B1_7 Dy0_3 2.900045 1_655
