# generated using pymatgen
data_V6Cu11O26
_symmetry_space_group_name_H-M   'P 1'
_cell_length_a   8.18277300
_cell_length_b   8.30970724
_cell_length_c   8.32528136
_cell_angle_alpha   106.21732097
_cell_angle_beta   91.59113581
_cell_angle_gamma   107.10398921
_symmetry_Int_Tables_number   1
_chemical_formula_structural   V6Cu11O26
_chemical_formula_sum   'V6 Cu11 O26'
_cell_volume   515.78512308
_cell_formula_units_Z   1
loop_
 _symmetry_equiv_pos_site_id
 _symmetry_equiv_pos_as_xyz
  1  'x, y, z'
loop_
 _atom_site_type_symbol
 _atom_site_label
 _atom_site_symmetry_multiplicity
 _atom_site_fract_x
 _atom_site_fract_y
 _atom_site_fract_z
 _atom_site_occupancy
  V  V0  1  0.26496300  0.93696600  0.58562700  1
  V  V1  1  0.73503700  0.06303400  0.41437300  1
  V  V2  1  0.08085900  0.43906400  0.18975400  1
  V  V3  1  0.91914100  0.56093600  0.81024600  1
  V  V4  1  0.56643100  0.75601400  0.90705800  1
  V  V5  1  0.43356900  0.24398600  0.09294200  1
  Cu  Cu0  1  0.13179100  0.25613000  0.78889300  1
  Cu  Cu1  1  0.85515200  0.85333600  0.63011400  1
  Cu  Cu2  1  0.14484800  0.14666400  0.36988600  1
  Cu  Cu3  1  0.86820900  0.74387000  0.21110700  1
  Cu  Cu4  1  0.27722200  0.51132200  0.57788200  1
  Cu  Cu5  1  0.72277800  0.48867800  0.42211800  1
  Cu  Cu6  1  0.49872000  0.33794800  0.70792500  1
  Cu  Cu7  1  0.50128000  0.66205200  0.29207500  1
  Cu  Cu8  1  0.71819400  0.14341700  0.83646000  1
  Cu  Cu9  1  0.28180600  0.85658300  0.16354000  1
  Cu  Cu10  1  0.00000000  0.00000000  0.00000000  1
  O  O0  1  0.39197500  0.82180800  0.96336500  1
  O  O1  1  0.60802500  0.17819200  0.03663500  1
  O  O2  1  0.71710000  0.26442300  0.42775900  1
  O  O3  1  0.28290000  0.73557700  0.57224100  1
  O  O4  1  0.53345000  0.90748100  0.33396200  1
  O  O5  1  0.46655000  0.09251900  0.66603800  1
  O  O6  1  0.73431100  0.71944400  0.40347900  1
  O  O7  1  0.26568900  0.28055600  0.59652100  1
  O  O8  1  0.24119900  0.07246500  0.12323400  1
  O  O9  1  0.75880100  0.92753500  0.87676600  1
  O  O10  1  0.11301600  0.99473400  0.72191800  1
  O  O11  1  0.88698400  0.00526600  0.27808200  1
  O  O12  1  0.18412200  0.92907800  0.37622300  1
  O  O13  1  0.81587800  0.07092200  0.62377700  1
  O  O14  1  0.37207800  0.32284000  0.94507900  1
  O  O15  1  0.62792200  0.67716000  0.05492100  1
  O  O16  1  0.02658400  0.24769100  0.00393400  1
  O  O17  1  0.49774200  0.42630100  0.28631100  1
  O  O18  1  0.50225800  0.57369900  0.71368900  1
  O  O19  1  0.91340300  0.52478600  0.21239700  1
  O  O20  1  0.08659700  0.47521400  0.78760300  1
  O  O21  1  0.97341600  0.75230900  0.99606600  1
  O  O22  1  0.11603600  0.37001100  0.36749700  1
  O  O23  1  0.26611100  0.61258300  0.18606400  1
  O  O24  1  0.73388900  0.38741700  0.81393600  1
  O  O25  1  0.88396400  0.62998900  0.63250300  1
loop_
_geom_bond_atom_site_label_1
_geom_bond_atom_site_label_2
_geom_bond_distance
_geom_bond_site_symmetry_2
Cu0 O20 1.964154 1_555
Cu0 O7 1.988677 1_555
Cu0 O16 2.017755 1_556
Cu0 O10 2.043301 1_545
Cu0 O14 2.162945 1_555
Cu1 O13 1.941476 1_565
Cu1 O25 1.943775 1_555
Cu1 O6 1.962740 1_555
Cu1 O10 2.089857 1_655
Cu1 O9 2.210670 1_555
Cu2 O12 1.941476 1_545
Cu2 O22 1.943775 1_555
Cu2 O7 1.962740 1_555
Cu2 O11 2.089857 1_455
Cu2 O8 2.210670 1_555
Cu3 O19 1.964154 1_555
Cu3 O6 1.988677 1_555
Cu3 O21 2.017755 1_554
Cu3 O11 2.043301 1_565
Cu3 O15 2.162945 1_555
Cu4 O3 1.864148 1_555
Cu4 O7 1.941839 1_555
Cu4 O18 1.983286 1_555
Cu4 O22 1.999546 1_555
Cu4 O20 2.395864 1_555
Cu5 O2 1.864148 1_555
Cu5 O6 1.941839 1_555
Cu5 O17 1.983286 1_555
Cu5 O25 1.999546 1_555
Cu5 O19 2.395864 1_555
Cu6 O5 1.905805 1_555
Cu6 O18 1.937772 1_555
Cu6 O7 1.960481 1_555
Cu6 O24 1.971981 1_555
Cu6 O14 2.272299 1_555
Cu7 O4 1.905805 1_555
Cu7 O17 1.937772 1_555
Cu7 O6 1.960481 1_555
Cu7 O23 1.971981 1_555
Cu7 O15 2.272299 1_555
Cu8 O1 1.908173 1_556
Cu8 O13 1.975614 1_555
Cu8 O9 2.030224 1_545
Cu8 O24 2.055050 1_555
Cu8 O5 2.328579 1_555
Cu8 O16 2.628002 1_656
Cu9 O0 1.908173 1_554
Cu9 O12 1.975614 1_555
Cu9 O8 2.030224 1_565
Cu9 O23 2.055050 1_555
Cu9 O4 2.328579 1_555
Cu9 O21 2.628002 1_454
Cu10 O21 1.995829 1_444
Cu10 O16 1.995829 1_555
Cu10 O8 2.038132 1_555
Cu10 O9 2.038132 1_444
Cu10 O11 2.510576 1_455
Cu10 O10 2.510576 1_544
O0 V4 1.705757 1_555
O1 V5 1.705757 1_555
O2 V1 1.695797 1_555
O3 V0 1.695797 1_555
O4 V1 1.743876 1_565
O5 V0 1.743876 1_545
O8 V5 1.864408 1_555
O9 V4 1.864408 1_555
O10 V0 1.785774 1_555
O11 V1 1.785774 1_555
O12 V0 1.824217 1_555
O13 V1 1.824217 1_555
O14 V5 1.675704 1_556
O15 V4 1.675704 1_554
O16 V2 1.814289 1_555
O17 V5 1.812559 1_555
O18 V4 1.812559 1_555
O19 V2 1.712897 1_655
O20 V3 1.712897 1_455
O21 V3 1.814289 1_555
O22 V2 1.774706 1_555
O23 V2 1.766218 1_555
O24 V3 1.766218 1_555
O25 V3 1.774706 1_555
