# generated using pymatgen
data_Na6Ti4Nb4Si9(SO16)3
_symmetry_space_group_name_H-M   'P 1'
_cell_length_a   17.74670758
_cell_length_b   8.87315901
_cell_length_c   22.67326774
_cell_angle_alpha   89.96090130
_cell_angle_beta   89.96112582
_cell_angle_gamma   119.96939203
_symmetry_Int_Tables_number   1
_chemical_formula_structural   Na6Ti4Nb4Si9(SO16)3
_chemical_formula_sum   'Na18 Ti12 Nb12 Si27 S9 O144'
_cell_volume   3092.95975411
_cell_formula_units_Z   3
loop_
 _symmetry_equiv_pos_site_id
 _symmetry_equiv_pos_as_xyz
  1  'x, y, z'
loop_
 _atom_site_type_symbol
 _atom_site_label
 _atom_site_symmetry_multiplicity
 _atom_site_fract_x
 _atom_site_fract_y
 _atom_site_fract_z
 _atom_site_occupancy
  Na  Na0  1  0.00036326  0.63773491  0.24719703  1
  Na  Na1  1  0.50040992  0.62749251  0.24837741  1
  Na  Na2  1  0.00028844  0.37320427  0.74849625  1
  Na  Na3  1  0.50112495  0.36548701  0.74779319  1
  Na  Na4  1  0.33480802  0.96820630  0.58656014  1
  Na  Na5  1  0.83280969  0.70086123  0.08233300  1
  Na  Na6  1  0.99825734  0.00529826  0.50220676  1
  Na  Na7  1  0.50422968  0.00013789  0.50529523  1
  Na  Na8  1  0.00343842  0.01034948  0.00092112  1
  Na  Na9  1  0.49844353  0.99207924  0.99791792  1
  Na  Na10  1  0.32929840  0.33731881  0.82895514  1
  Na  Na11  1  0.82866665  0.33705481  0.82995923  1
  Na  Na12  1  0.32984712  0.32248486  0.33173366  1
  Na  Na13  1  0.82582003  0.31971287  0.33173464  1
  Na  Na14  1  0.17039651  0.67280527  0.16446376  1
  Na  Na15  1  0.66466236  0.65948664  0.16784135  1
  Na  Na16  1  0.16589621  0.67205268  0.66930254  1
  Na  Na17  1  0.66727656  0.66632358  0.66792723  1
  Ti  Ti0  1  0.50772779  0.01508055  0.65182233  1
  Ti  Ti1  1  0.00558612  0.98238361  0.14673894  1
  Ti  Ti2  1  0.33453513  0.31771152  0.69115516  1
  Ti  Ti3  1  0.83011444  0.34696587  0.68426775  1
  Ti  Ti4  1  0.33135848  0.31427285  0.18371825  1
  Ti  Ti5  1  0.82759445  0.34817727  0.18675432  1
  Ti  Ti6  1  0.66390955  0.67428533  0.01974709  1
  Ti  Ti7  1  0.16700382  0.65468216  0.52355572  1
  Ti  Ti8  1  0.17654628  0.68057485  0.31639176  1
  Ti  Ti9  1  0.66765597  0.68228572  0.30844253  1
  Ti  Ti10  1  0.16862440  0.65363107  0.80788242  1
  Ti  Ti11  1  0.67019068  0.67384177  0.81262545  1
  Nb  Nb0  1  0.00162914  0.00065106  0.35478454  1
  Nb  Nb1  1  0.50385832  0.01034327  0.35621637  1
  Nb  Nb2  1  0.00235219  0.99600602  0.85555453  1
  Nb  Nb3  1  0.50009376  0.98776771  0.85100245  1
  Nb  Nb4  1  0.00694581  0.00018811  0.64173302  1
  Nb  Nb5  1  0.50620267  0.01257213  0.14135697  1
  Nb  Nb6  1  0.33242772  0.34460608  0.98359692  1
  Nb  Nb7  1  0.83219312  0.34237247  0.97280087  1
  Nb  Nb8  1  0.33289985  0.32358779  0.47496113  1
  Nb  Nb9  1  0.83156767  0.31912244  0.48466380  1
  Nb  Nb10  1  0.16846781  0.65225210  0.02453307  1
  Nb  Nb11  1  0.66761103  0.68374485  0.52587411  1
  Si  Si0  1  0.14994538  0.00261165  0.25072603  1
  Si  Si1  1  0.64827695  0.00800901  0.24872299  1
  Si  Si2  1  0.85361714  0.71472808  0.24850702  1
  Si  Si3  1  0.49912008  0.29312727  0.25014260  1
  Si  Si4  1  0.14754381  0.28736404  0.74877676  1
  Si  Si5  1  0.64965416  0.29470148  0.75137072  1
  Si  Si6  1  0.99911558  0.70444048  0.75019341  1
  Si  Si7  1  0.50093180  0.70807200  0.74632015  1
  Si  Si8  1  0.35439795  0.99097599  0.74883246  1
  Si  Si9  1  0.47739858  0.33024250  0.58520037  1
  Si  Si10  1  0.97934388  0.33756914  0.58768966  1
  Si  Si11  1  0.19315975  0.04490054  0.58303911  1
  Si  Si12  1  0.68534373  0.05031724  0.58914241  1
  Si  Si13  1  0.83325872  0.62168125  0.58162811  1
  Si  Si14  1  0.47982976  0.62061837  0.08732951  1
  Si  Si15  1  0.97680704  0.61529179  0.08487510  1
  Si  Si16  1  0.33280967  0.04439205  0.08154439  1
  Si  Si17  1  0.18677185  0.32261932  0.08878522  1
  Si  Si18  1  0.69063357  0.34123888  0.08079731  1
  Si  Si19  1  0.31053375  0.66799879  0.91456209  1
  Si  Si20  1  0.80679143  0.67308706  0.91701011  1
  Si  Si21  1  0.02531433  0.38221173  0.91398592  1
  Si  Si22  1  0.66538013  0.95059469  0.91597813  1
  Si  Si23  1  0.30982150  0.94742880  0.41952469  1
  Si  Si24  1  0.80871925  0.95351000  0.41476441  1
  Si  Si25  1  0.16692248  0.38476196  0.41656726  1
  Si  Si26  1  0.52486885  0.66696465  0.41422073  1
  S  S0  1  0.35422168  0.71172270  0.25040846  1
  S  S1  1  0.00065920  0.28838606  0.24895553  1
  S  S2  1  0.85477842  0.99729740  0.74996938  1
  S  S3  1  0.33369080  0.61894883  0.58355869  1
  S  S4  1  0.83393056  0.04868666  0.08418822  1
  S  S5  1  0.52285321  0.37985228  0.91677819  1
  S  S6  1  0.16902945  0.95358198  0.91595726  1
  S  S7  1  0.66918322  0.38468706  0.41635911  1
  S  S8  1  0.02330471  0.66473649  0.41635289  1
  O  O0  1  0.09813147  0.02611025  0.30743547  1
  O  O1  1  0.59809130  0.03099289  0.30638461  1
  O  O2  1  0.40916818  0.79457647  0.30384361  1
  O  O3  1  0.92056079  0.80861525  0.30473070  1
  O  O4  1  0.48492372  0.16515413  0.30739051  1
  O  O5  1  0.98788147  0.18102443  0.30347460  1
  O  O6  1  0.09592841  0.16442618  0.80660682  1
  O  O7  1  0.59936221  0.16848726  0.80833845  1
  O  O8  1  0.48452683  0.79799376  0.80606285  1
  O  O9  1  0.98474296  0.80408651  0.80749766  1
  O  O10  1  0.41977881  0.03562809  0.80605601  1
  O  O11  1  0.91016046  0.02519614  0.80374317  1
  O  O12  1  0.39927876  0.96770885  0.68927536  1
  O  O13  1  0.89402642  0.96972334  0.69694449  1
  O  O14  1  0.07945447  0.19656076  0.69348174  1
  O  O15  1  0.58326051  0.20550973  0.69442969  1
  O  O16  1  0.01129763  0.83317287  0.69396291  1
  O  O17  1  0.51727248  0.83983980  0.69169934  1
  O  O18  1  0.39228742  0.81750665  0.19714185  1
  O  O19  1  0.90117075  0.83183766  0.18974595  1
  O  O20  1  0.01415190  0.20727064  0.19689698  1
  O  O21  1  0.51125367  0.18887165  0.19397444  1
  O  O22  1  0.08225303  0.96227589  0.19429752  1
  O  O23  1  0.58082720  0.96484325  0.19344438  1
  O  O24  1  0.43402577  0.36370063  0.64355193  1
  O  O25  1  0.93449734  0.36636703  0.64526400  1
  O  O26  1  0.25444906  0.13811582  0.63993470  1
  O  O27  1  0.75226097  0.14263534  0.64269294  1
  O  O28  1  0.31892825  0.51373640  0.63640833  1
  O  O29  1  0.81775209  0.50177694  0.63986085  1
  O  O30  1  0.43397920  0.50210884  0.14513261  1
  O  O31  1  0.93299485  0.50172937  0.14492149  1
  O  O32  1  0.31769314  0.13328858  0.14002910  1
  O  O33  1  0.82060438  0.12866857  0.13725335  1
  O  O34  1  0.25187413  0.36121189  0.14324673  1
  O  O35  1  0.75178794  0.36965938  0.13972043  1
  O  O36  1  0.23213786  0.29939708  0.02759984  1
  O  O37  1  0.73591958  0.30265126  0.02535394  1
  O  O38  1  0.41728506  0.53049353  0.02780439  1
  O  O39  1  0.91246150  0.52583705  0.02851560  1
  O  O40  1  0.34863288  0.16775358  0.02381261  1
  O  O41  1  0.84646492  0.15144782  0.03023950  1
  O  O42  1  0.23534470  0.16790346  0.52467177  1
  O  O43  1  0.73320541  0.16379873  0.52750250  1
  O  O44  1  0.34448081  0.53912080  0.52915630  1
  O  O45  1  0.84882754  0.52970353  0.52341095  1
  O  O46  1  0.41351920  0.30362555  0.52782624  1
  O  O47  1  0.91768132  0.30449001  0.52749918  1
  O  O48  1  0.26454883  0.69289257  0.97416898  1
  O  O49  1  0.76309431  0.69370481  0.97739801  1
  O  O50  1  0.08470909  0.47495092  0.97292298  1
  O  O51  1  0.57627220  0.46388822  0.96999062  1
  O  O52  1  0.15395701  0.85082998  0.97038683  1
  O  O53  1  0.65177234  0.82823483  0.97413527  1
  O  O54  1  0.26326219  0.83133668  0.47693773  1
  O  O55  1  0.76633837  0.83625919  0.47395024  1
  O  O56  1  0.15089301  0.47563782  0.47394344  1
  O  O57  1  0.65402567  0.45635810  0.46973727  1
  O  O58  1  0.07580172  0.69170174  0.46901612  1
  O  O59  1  0.58543984  0.69637090  0.47233655  1
  O  O60  1  0.06264534  0.64342159  0.36112608  1
  O  O61  1  0.56715472  0.63595582  0.35524650  1
  O  O62  1  0.25004666  0.86101403  0.35956160  1
  O  O63  1  0.74771596  0.85736398  0.35799789  1
  O  O64  1  0.17651979  0.50540344  0.35853806  1
  O  O65  1  0.67953146  0.48402426  0.36199866  1
  O  O66  1  0.06649905  0.49806194  0.85541488  1
  O  O67  1  0.56094901  0.48234904  0.86225313  1
  O  O68  1  0.17936848  0.87558728  0.86280937  1
  O  O69  1  0.67759128  0.85289445  0.85897519  1
  O  O70  1  0.24781321  0.63815122  0.85866288  1
  O  O71  1  0.74744405  0.64015337  0.85873153  1
  O  O72  1  0.01412955  0.82502413  0.41115245  1
  O  O73  1  0.51362219  0.83985675  0.40705882  1
  O  O74  1  0.40661278  0.97223898  0.40912164  1
  O  O75  1  0.90666429  0.97746558  0.40633337  1
  O  O76  1  0.08103665  0.18996870  0.40757824  1
  O  O77  1  0.58937802  0.20297426  0.41148665  1
  O  O78  1  0.01344689  0.18641888  0.90834306  1
  O  O79  1  0.51399624  0.20526171  0.91294146  1
  O  O80  1  0.08897918  0.97530429  0.91200441  1
  O  O81  1  0.58106166  0.97694139  0.91118027  1
  O  O82  1  0.40673527  0.84114141  0.91036893  1
  O  O83  1  0.90575205  0.84031893  0.90942921  1
  O  O84  1  0.48093695  0.15056786  0.58893584  1
  O  O85  1  0.98652929  0.16157445  0.59131365  1
  O  O86  1  0.09602301  0.02483929  0.58853955  1
  O  O87  1  0.58911318  0.02475162  0.59044329  1
  O  O88  1  0.40928629  0.79732244  0.58709434  1
  O  O89  1  0.91767404  0.81391883  0.59052287  1
  O  O90  1  0.48622928  0.81037860  0.09235582  1
  O  O91  1  0.98195323  0.80734895  0.09057634  1
  O  O92  1  0.41725977  0.02103003  0.09122315  1
  O  O93  1  0.91087760  0.02364157  0.08956213  1
  O  O94  1  0.08858213  0.15738958  0.09425512  1
  O  O95  1  0.59553638  0.16617077  0.08841334  1
  O  O96  1  0.34949809  0.17180917  0.74369766  1
  O  O97  1  0.84825416  0.15616478  0.74642288  1
  O  O98  1  0.24215065  0.30890550  0.74122591  1
  O  O99  1  0.74310063  0.30710845  0.74362728  1
  O  O100  1  0.41577670  0.51495732  0.74155997  1
  O  O101  1  0.91492999  0.50987113  0.74465952  1
  O  O102  1  0.34679546  0.53936171  0.24651687  1
  O  O103  1  0.85128399  0.52492092  0.24334520  1
  O  O104  1  0.41496441  0.32015493  0.24455761  1
  O  O105  1  0.92230110  0.30774929  0.24550510  1
  O  O106  1  0.24282252  0.17549825  0.24399948  1
  O  O107  1  0.74495920  0.17533958  0.24073543  1
  O  O108  1  0.32086547  0.49245111  0.92229600  1
  O  O109  1  0.81941507  0.50025576  0.92191657  1
  O  O110  1  0.43436140  0.36132270  0.92235767  1
  O  O111  1  0.92830660  0.35638907  0.92598800  1
  O  O112  1  0.24580028  0.13266572  0.92171420  1
  O  O113  1  0.75309987  0.14019408  0.92443296  1
  O  O114  1  0.31966199  0.14135628  0.42142435  1
  O  O115  1  0.82146892  0.15149463  0.42127595  1
  O  O116  1  0.25277479  0.36581410  0.42311048  1
  O  O117  1  0.74596221  0.35899879  0.42095421  1
  O  O118  1  0.42755009  0.50030105  0.42487466  1
  O  O119  1  0.93451322  0.51058166  0.42014495  1
  O  O120  1  0.17936702  0.49907270  0.07923313  1
  O  O121  1  0.68420114  0.51603142  0.07635689  1
  O  O122  1  0.07415998  0.64627283  0.07645555  1
  O  O123  1  0.57502174  0.64085954  0.07504300  1
  O  O124  1  0.24610430  0.85500982  0.07485452  1
  O  O125  1  0.75509895  0.86870144  0.07891277  1
  O  O126  1  0.18377368  0.85359697  0.57477961  1
  O  O127  1  0.67993826  0.86063953  0.57922313  1
  O  O128  1  0.25367484  0.64064114  0.57774725  1
  O  O129  1  0.74639966  0.63689096  0.57416719  1
  O  O130  1  0.07441908  0.50822217  0.57444341  1
  O  O131  1  0.57361546  0.50100428  0.57447022  1
  O  O132  1  0.14955920  0.81682760  0.25857304  1
  O  O133  1  0.65153806  0.82788505  0.25532389  1
  O  O134  1  0.26589180  0.69345389  0.25723267  1
  O  O135  1  0.75786487  0.68650091  0.25806798  1
  O  O136  1  0.07775222  0.46671213  0.25642539  1
  O  O137  1  0.58543091  0.48283608  0.25724271  1
  O  O138  1  0.15055829  0.47408823  0.75527714  1
  O  O139  1  0.65269250  0.48138072  0.75912525  1
  O  O140  1  0.08561400  0.68840068  0.75722477  1
  O  O141  1  0.58536318  0.68326347  0.75812580  1
  O  O142  1  0.25798444  0.82663834  0.75891597  1
  O  O143  1  0.76752169  0.84048590  0.75640010  1
loop_
_geom_bond_atom_site_label_1
_geom_bond_atom_site_label_2
_geom_bond_distance
_geom_bond_site_symmetry_2
Na0 O103 2.315975 1_455
Na0 O132 2.323822 1_555
Na0 O136 2.512972 1_555
Na0 O105 2.538029 1_455
Na0 O31 2.613282 1_455
Na0 O22 2.766779 1_555
Na0 O60 2.800929 1_555
Na0 O3 2.855161 1_455
Na1 O104 2.369138 1_555
Na1 O133 2.369849 1_555
Na1 O137 2.428887 1_555
Na1 O102 2.432186 1_555
Na1 O30 2.608511 1_555
Na1 O61 2.682393 1_555
Na1 O23 2.876242 1_555
Na1 O2 2.966424 1_555
Na2 O138 2.356372 1_555
Na2 O101 2.368156 1_455
Na2 O97 2.408282 1_455
Na2 O140 2.433965 1_555
Na2 O25 2.603558 1_455
Na2 O66 2.681743 1_555
Na2 O14 2.861255 1_555
Na2 O11 2.953002 1_455
Na3 O96 2.362896 1_555
Na3 O139 2.365684 1_555
Na3 O141 2.455678 1_555
Na3 O100 2.465798 1_555
Na3 O24 2.643734 1_555
Na3 O15 2.769615 1_555
Na3 O67 2.800875 1_555
Na3 O10 2.857712 1_555
Na4 O84 2.270323 1_565
Na4 O126 2.359649 1_555
Na4 O88 2.459377 1_555
Na4 O128 2.526091 1_555
Na4 O12 2.596432 1_555
Na4 O54 2.780754 1_555
Na4 O26 2.814156 1_565
Na4 O46 2.901911 1_565
Na5 O121 2.311491 1_555
Na5 O91 2.331443 1_555
Na5 O125 2.485528 1_555
Na5 O93 2.487143 1_565
Na5 O49 2.668546 1_554
Na5 O19 2.711622 1_555
Na5 O39 2.844719 1_555
Na5 O35 2.857902 1_555
Na6 O85 2.517845 1_555
Na6 O89 2.550241 1_545
Na6 O86 2.564462 1_655
Na6 O76 2.651876 1_655
Na6 O75 2.651956 1_545
Na6 O72 2.711844 1_645
Na7 O87 2.391638 1_555
Na7 O84 2.470330 1_555
Na7 O88 2.545413 1_545
Na7 O73 2.692980 1_545
Na7 O77 2.705524 1_555
Na7 O74 2.719321 1_545
Na8 O94 2.549938 1_555
Na8 O78 2.568285 1_554
Na8 O91 2.613402 1_445
Na8 O80 2.633237 1_544
Na8 O93 2.634546 1_455
Na8 O83 2.642137 1_444
Na9 O82 2.492618 1_555
Na9 O81 2.495718 1_555
Na9 O79 2.615182 1_565
Na9 O90 2.622341 1_556
Na9 O95 2.629657 1_566
Na9 O92 2.642648 1_566
Na10 O98 2.455065 1_555
Na10 O100 2.518149 1_555
Na10 O96 2.559477 1_555
Na10 O108 2.570107 1_555
Na10 O112 2.686778 1_555
Na10 O110 2.759683 1_555
Na11 O99 2.410319 1_555
Na11 O101 2.466185 1_555
Na11 O109 2.590807 1_555
Na11 O97 2.616324 1_555
Na11 O113 2.662440 1_555
Na11 O111 2.756715 1_555
Na12 O106 2.457339 1_555
Na12 O104 2.493233 1_555
Na12 O114 2.540859 1_555
Na12 O116 2.614127 1_555
Na12 O102 2.634911 1_555
Na12 O118 2.689220 1_555
Na13 O107 2.475550 1_555
Na13 O115 2.497216 1_555
Na13 O103 2.589927 1_555
Na13 O117 2.590902 1_555
Na13 O105 2.634908 1_555
Na13 O119 2.711714 1_555
Na14 O124 2.523602 1_555
Na14 O120 2.526848 1_555
Na14 O122 2.560781 1_555
Na14 O132 2.607220 1_555
Na14 O134 2.650471 1_555
Na14 O136 2.716823 1_555
Na15 O137 2.516480 1_555
Na15 O121 2.546886 1_555
Na15 O133 2.563672 1_555
Na15 O135 2.566607 1_555
Na15 O123 2.593716 1_555
Na15 O125 2.664841 1_555
Na16 O140 2.495584 1_555
Na16 O142 2.539553 1_555
Na16 O138 2.544880 1_555
Na16 O126 2.602382 1_555
Na16 O130 2.650612 1_555
Na16 O128 2.691419 1_555
Na17 O141 2.555958 1_555
Na17 O139 2.570192 1_555
Na17 O127 2.583776 1_555
Na17 O143 2.615219 1_555
Na17 O129 2.631011 1_555
Na17 O131 2.641538 1_555
Nb0 O0 1.935770 1_555
Nb0 O3 1.953699 1_445
Nb0 O76 1.969913 1_555
Nb0 O75 1.974653 1_445
Nb0 O5 2.088646 1_455
Nb0 O72 2.110491 1_545
Nb1 O4 1.919633 1_555
Nb1 O1 1.948800 1_555
Nb1 O73 1.976636 1_545
Nb1 O74 1.986259 1_545
Nb1 O77 2.051612 1_555
Nb1 O2 2.165850 1_545
Nb2 O9 1.912117 1_455
Nb2 O6 1.933539 1_565
Nb2 O83 1.992037 1_455
Nb2 O78 1.999164 1_565
Nb2 O80 2.078413 1_555
Nb2 O11 2.132949 1_465
Nb3 O8 1.867617 1_555
Nb3 O7 1.945221 1_565
Nb3 O10 1.963810 1_565
Nb3 O81 2.018911 1_555
Nb3 O82 2.022503 1_555
Nb3 O79 2.299113 1_565
Nb4 O86 1.911297 1_555
Nb4 O16 1.927850 1_545
Nb4 O14 1.957897 1_555
Nb4 O89 1.994714 1_445
Nb4 O85 2.001366 1_455
Nb4 O13 2.260724 1_445
Nb5 O95 1.910071 1_555
Nb5 O21 1.934178 1_555
Nb5 O23 1.972248 1_545
Nb5 O92 1.977338 1_555
Nb5 O90 1.986626 1_545
Nb5 O18 2.276012 1_545
Nb6 O38 1.875035 1_556
Nb6 O36 1.899416 1_556
Nb6 O40 1.955996 1_556
Nb6 O108 1.990400 1_555
Nb6 O110 2.224991 1_555
Nb6 O112 2.233107 1_555
Nb7 O109 1.913271 1_555
Nb7 O111 1.958791 1_555
Nb7 O37 1.964220 1_556
Nb7 O113 1.969821 1_555
Nb7 O39 1.990852 1_556
Nb7 O41 2.248622 1_556
Nb8 O114 1.940816 1_555
Nb8 O46 1.941722 1_555
Nb8 O42 1.944691 1_555
Nb8 O118 1.983272 1_555
Nb8 O116 2.019502 1_555
Nb8 O44 2.195564 1_555
Nb9 O43 1.866093 1_555
Nb9 O47 1.869679 1_555
Nb9 O45 1.946225 1_555
Nb9 O115 2.011706 1_555
Nb9 O117 2.249251 1_555
Nb9 O119 2.292576 1_555
Nb10 O120 1.919283 1_555
Nb10 O50 1.929343 1_554
Nb10 O48 1.929751 1_554
Nb10 O124 1.991303 1_555
Nb10 O122 2.024446 1_555
Nb10 O52 2.264728 1_554
Nb11 O127 1.906452 1_555
Nb11 O59 1.943713 1_555
Nb11 O129 1.977139 1_555
Nb11 O55 1.978214 1_555
Nb11 O131 1.979545 1_555
Nb11 O57 2.294985 1_555
O0 Si0 1.653048 1_555
O1 Si1 1.650545 1_555
O2 S0 1.498596 1_555
O3 Si2 1.656859 1_555
O4 Si3 1.658136 1_555
O5 S1 1.506365 1_655
O6 Si4 1.657217 1_555
O7 Si5 1.648329 1_555
O8 Si7 1.670103 1_555
O9 Si6 1.661738 1_555
O10 Si8 1.652296 1_545
O11 S2 1.507563 1_545
O12 Si8 1.632077 1_555
O12 Ti0 1.947046 1_565
O13 S2 1.469670 1_555
O14 Si4 1.646774 1_555
O15 Si5 1.659294 1_555
O15 Ti0 1.823811 1_555
O16 Si6 1.651626 1_455
O17 Si7 1.625922 1_555
O17 Ti0 1.877613 1_565
O18 S0 1.469642 1_555
O19 Si2 1.639355 1_555
O19 Ti1 1.921384 1_655
O20 S1 1.463398 1_555
O20 Ti1 2.235747 1_545
O21 Si3 1.650523 1_555
O22 Si0 1.667729 1_565
O22 Ti1 1.813845 1_555
O23 Si1 1.641662 1_565
O24 Si9 1.630477 1_555
O24 Ti2 1.930256 1_555
O25 Si10 1.614004 1_555
O25 Ti3 1.980466 1_555
O26 Si11 1.623530 1_555
O26 Ti2 1.910538 1_555
O27 Si12 1.608394 1_555
O27 Ti3 1.893700 1_555
O28 S3 1.459361 1_555
O28 Ti2 2.263120 1_555
O29 Si13 1.629729 1_555
O29 Ti3 1.802313 1_555
O30 Si14 1.620901 1_555
O30 Ti4 1.955317 1_555
O31 Si15 1.639328 1_555
O31 Ti5 1.924695 1_555
O32 Si16 1.632452 1_555
O32 Ti4 1.797882 1_555
O33 S4 1.475009 1_555
O33 Ti5 2.197842 1_555
O34 Si17 1.607521 1_555
O34 Ti4 1.895639 1_555
O35 Si18 1.659904 1_555
O35 Ti5 1.800364 1_555
O36 Si17 1.667267 1_555
O37 Si18 1.617876 1_555
O38 Si14 1.676222 1_555
O39 Si15 1.632402 1_555
O40 Si16 1.637336 1_555
O41 S4 1.473961 1_555
O42 Si11 1.638096 1_555
O43 Si12 1.682435 1_555
O44 S3 1.481975 1_555
O45 Si13 1.646512 1_555
O46 Si9 1.663761 1_555
O47 Si10 1.681601 1_555
O48 Si19 1.649330 1_555
O49 Si20 1.627932 1_555
O49 Ti6 1.935053 1_556
O50 Si21 1.646426 1_555
O51 S5 1.485570 1_555
O51 Ti6 2.069123 1_556
O52 S6 1.476539 1_555
O53 Si22 1.646665 1_555
O53 Ti6 1.809487 1_556
O54 Si23 1.607707 1_555
O54 Ti7 1.952558 1_555
O55 Si24 1.632125 1_555
O56 Si25 1.628984 1_555
O56 Ti7 1.849347 1_555
O57 S7 1.453627 1_555
O58 S8 1.459507 1_555
O58 Ti7 2.188617 1_555
O59 Si26 1.637684 1_555
O60 S8 1.490705 1_555
O60 Ti8 2.134093 1_555
O61 Si26 1.622414 1_555
O61 Ti9 1.934051 1_555
O62 Si23 1.659032 1_555
O62 Ti8 1.772085 1_555
O63 Si24 1.623910 1_555
O63 Ti9 1.869183 1_555
O64 Si25 1.649737 1_555
O64 Ti8 1.823822 1_555
O65 S7 1.471825 1_555
O65 Ti9 2.231943 1_555
O66 Si21 1.612658 1_555
O66 Ti10 1.961513 1_555
O67 S5 1.481751 1_555
O67 Ti11 2.148273 1_555
O68 S6 1.446522 1_555
O68 Ti10 2.257112 1_555
O69 Si22 1.630259 1_555
O69 Ti11 1.854671 1_555
O70 Si19 1.619660 1_555
O70 Ti10 1.874649 1_555
O71 Si20 1.623453 1_555
O71 Ti11 1.863531 1_555
O72 S8 1.514728 1_555
O73 Si26 1.650842 1_555
O74 Si23 1.635929 1_555
O75 Si24 1.653309 1_555
O76 Si25 1.649561 1_555
O77 S7 1.528655 1_555
O78 Si21 1.647340 1_555
O79 S5 1.479570 1_555
O80 S6 1.528753 1_555
O81 Si22 1.629511 1_555
O82 Si19 1.631922 1_555
O83 Si20 1.646630 1_555
O84 Si9 1.628709 1_555
O84 Ti0 2.067366 1_555
O85 Si10 1.631100 1_555
O86 Si11 1.646823 1_555
O87 Si12 1.606768 1_555
O87 Ti0 1.975713 1_555
O88 S3 1.479941 1_555
O88 Ti0 2.360971 1_565
O89 Si13 1.625552 1_555
O90 Si14 1.634076 1_555
O91 Si15 1.665537 1_555
O91 Ti1 1.887384 1_655
O92 Si16 1.627279 1_555
O93 S4 1.494105 1_555
O93 Ti1 2.292739 1_645
O94 Si17 1.627385 1_555
O94 Ti1 1.925323 1_545
O95 Si18 1.634360 1_555
O96 Si8 1.653750 1_545
O96 Ti2 1.872844 1_555
O97 S2 1.473066 1_545
O97 Ti3 2.344737 1_555
O98 Si4 1.601155 1_555
O98 Ti2 1.962735 1_555
O99 Si5 1.615644 1_555
O99 Ti3 1.942149 1_555
O100 Si7 1.626341 1_555
O100 Ti2 1.982899 1_555
O101 Si6 1.628509 1_555
O101 Ti3 2.015376 1_555
O102 S0 1.470716 1_555
O102 Ti4 2.355666 1_555
O103 Si2 1.668086 1_555
O103 Ti5 1.904559 1_555
O104 Si3 1.631595 1_555
O104 Ti4 2.008110 1_555
O105 S1 1.486013 1_655
O105 Ti5 2.309265 1_555
O106 Si0 1.602031 1_555
O106 Ti4 1.978611 1_555
O107 Si1 1.623352 1_555
O107 Ti5 1.936141 1_555
O108 Si19 1.666040 1_555
O109 Si20 1.660546 1_555
O110 S5 1.500349 1_555
O111 Si21 1.641808 1_655
O112 S6 1.495283 1_545
O113 Si22 1.635470 1_545
O114 Si23 1.641102 1_545
O115 Si24 1.662058 1_545
O116 Si25 1.621053 1_555
O117 S7 1.493275 1_555
O118 Si26 1.635654 1_555
O119 S8 1.485818 1_655
O120 Si17 1.649462 1_555
O121 Si18 1.614106 1_555
O121 Ti6 2.062112 1_555
O122 Si15 1.619233 1_455
O123 Si14 1.630922 1_555
O123 Ti6 1.917708 1_555
O124 Si16 1.622300 1_565
O125 S4 1.513386 1_565
O125 Ti6 2.147412 1_555
O126 Si11 1.631624 1_565
O126 Ti7 2.007774 1_555
O127 Si12 1.652771 1_565
O128 S3 1.531064 1_555
O128 Ti7 2.021105 1_555
O129 Si13 1.622066 1_555
O130 Si10 1.635885 1_455
O130 Ti7 1.892582 1_555
O131 Si9 1.638523 1_555
O132 Si0 1.654550 1_565
O132 Ti8 1.996692 1_555
O133 Si1 1.634720 1_565
O133 Ti9 1.889167 1_555
O134 S0 1.501080 1_555
O134 Ti8 2.035238 1_555
O135 Si2 1.603594 1_555
O135 Ti9 1.951018 1_555
O136 S1 1.497357 1_555
O136 Ti8 2.281743 1_555
O137 Si3 1.621843 1_555
O137 Ti9 2.008480 1_555
O138 Si4 1.637520 1_555
O138 Ti10 1.885795 1_555
O139 Si5 1.639748 1_555
O139 Ti11 1.989408 1_555
O140 Si6 1.618846 1_455
O140 Ti10 2.010098 1_555
O141 Si7 1.641719 1_555
O141 Ti11 1.981989 1_555
O142 Si8 1.616329 1_555
O142 Ti10 1.914990 1_555
O143 S2 1.483908 1_555
O143 Ti11 2.058609 1_555
