# generated using pymatgen
data_Ba2NaMgReO6
_symmetry_space_group_name_H-M   'P 1'
_cell_length_a   6.58972028
_cell_length_b   6.58972102
_cell_length_c   5.88213400
_cell_angle_alpha   63.49273363
_cell_angle_beta   63.49273042
_cell_angle_gamma   52.93626311
_symmetry_Int_Tables_number   1
_chemical_formula_structural   Ba2NaMgReO6
_chemical_formula_sum   'Ba2 Na1 Mg1 Re1 O6'
_cell_volume   176.68377046
_cell_formula_units_Z   1
loop_
 _symmetry_equiv_pos_site_id
 _symmetry_equiv_pos_as_xyz
  1  'x, y, z'
loop_
 _atom_site_type_symbol
 _atom_site_label
 _atom_site_symmetry_multiplicity
 _atom_site_fract_x
 _atom_site_fract_y
 _atom_site_fract_z
 _atom_site_occupancy
  Ba  Ba0  1  0.31881500  0.31881500  0.18118500  1
  Ba  Ba1  1  0.68118500  0.68118500  0.81881500  1
  Na  Na0  1  0.00000000  0.00000000  0.00000000  1
  Mg  Mg0  1  0.00000000  0.00000000  0.50000000  1
  Re  Re0  1  0.50000000  0.50000000  0.50000000  1
  O  O0  1  0.25167300  0.74832700  0.73288800  1
  O  O1  1  0.25167300  0.74832700  0.26711200  1
  O  O2  1  0.74832700  0.25167300  0.73288800  1
  O  O3  1  0.30691900  0.30691900  0.69308100  1
  O  O4  1  0.74832700  0.25167300  0.26711200  1
  O  O5  1  0.69308100  0.69308100  0.30691900  1
loop_
_geom_bond_atom_site_label_1
_geom_bond_atom_site_label_2
_geom_bond_distance
_geom_bond_site_symmetry_2
Ba0 O2 2.833727 1_554
Ba0 O4 2.833727 1_555
Ba0 O0 2.833727 1_554
Ba0 O1 2.833727 1_555
Ba0 O3 2.943582 1_554
Ba0 O3 2.943582 1_555
Ba0 O5 3.206199 1_455
Ba0 O5 3.206200 1_545
Ba0 Mg0 3.260550 1_555
Ba1 O0 2.833727 1_555
Ba1 O1 2.833727 1_556
Ba1 O2 2.833727 1_555
Ba1 O4 2.833727 1_556
Ba1 O5 2.943582 1_555
Ba1 O5 2.943582 1_556
Ba1 O3 3.206199 1_655
Ba1 O3 3.206200 1_565
Ba1 Mg0 3.260550 1_665
Na0 O1 2.157346 1_545
Na0 O4 2.157346 1_455
Na0 O2 2.157346 1_454
Na0 O0 2.157346 1_544
Mg0 O0 2.015459 1_545
Mg0 O2 2.015459 1_455
Mg0 O4 2.015459 1_455
Mg0 O1 2.015459 1_545
O0 Re0 2.001087 1_555
O1 Re0 2.001087 1_555
O2 Re0 2.001087 1_555
O3 Re0 1.974657 1_555
O4 Re0 2.001087 1_555
O5 Re0 1.974657 1_555
