# generated using pymatgen
data_Gd6MgWO12
_symmetry_space_group_name_H-M   'P 1'
_cell_length_a   6.64278688
_cell_length_b   6.64278457
_cell_length_c   6.64278716
_cell_angle_alpha   99.48611886
_cell_angle_beta   99.48621985
_cell_angle_gamma   99.48604426
_symmetry_Int_Tables_number   1
_chemical_formula_structural   Gd6MgWO12
_chemical_formula_sum   'Gd6 Mg1 W1 O12'
_cell_volume   279.55468117
_cell_formula_units_Z   1
loop_
 _symmetry_equiv_pos_site_id
 _symmetry_equiv_pos_as_xyz
  1  'x, y, z'
loop_
 _atom_site_type_symbol
 _atom_site_label
 _atom_site_symmetry_multiplicity
 _atom_site_fract_x
 _atom_site_fract_y
 _atom_site_fract_z
 _atom_site_occupancy
  Gd  Gd0  1  0.39612400  0.86009000  0.67403800  1
  Gd  Gd1  1  0.30039000  0.65281700  0.13345300  1
  Gd  Gd2  1  0.13345400  0.30039000  0.65281700  1
  Gd  Gd3  1  0.86009000  0.67403700  0.39612400  1
  Gd  Gd4  1  0.67403700  0.39612400  0.86009100  1
  Gd  Gd5  1  0.65281700  0.13345400  0.30038900  1
  Mg  Mg0  1  0.27092200  0.27092200  0.27092200  1
  W  W0  1  0.98414700  0.98414700  0.98414700  1
  O  O0  1  0.05179700  0.92080900  0.68670600  1
  O  O1  1  0.30362500  0.98466200  0.08957000  1
  O  O2  1  0.19044200  0.55523300  0.41827100  1
  O  O3  1  0.57959000  0.82894600  0.40836700  1
  O  O4  1  0.08957000  0.30362300  0.98466200  1
  O  O5  1  0.40836700  0.57958900  0.82894600  1
  O  O6  1  0.55523300  0.41827100  0.19044200  1
  O  O7  1  0.92080900  0.68670700  0.05179700  1
  O  O8  1  0.41827000  0.19044200  0.55523300  1
  O  O9  1  0.82894600  0.40836700  0.57958900  1
  O  O10  1  0.68670500  0.05179700  0.92080900  1
  O  O11  1  0.98466200  0.08957000  0.30362400  1
loop_
_geom_bond_atom_site_label_1
_geom_bond_atom_site_label_2
_geom_bond_distance
_geom_bond_site_symmetry_2
Gd0 O5 2.278548 1_555
Gd0 O3 2.305278 1_555
Gd0 O10 2.343818 1_565
Gd0 O0 2.399545 1_555
Gd0 O8 2.441890 1_565
Gd0 O2 2.458282 1_555
Gd0 O1 2.941985 1_556
Gd1 O5 2.260891 1_554
Gd1 O1 2.267810 1_555
Gd1 O2 2.288432 1_555
Gd1 O3 2.368061 1_555
Gd1 O4 2.456839 1_554
Gd1 O6 2.507817 1_555
Gd1 O7 2.545442 1_455
Gd2 O9 2.260895 1_455
Gd2 O4 2.267815 1_555
Gd2 O8 2.288418 1_555
Gd2 O5 2.368055 1_555
Gd2 O11 2.456833 1_455
Gd2 O2 2.507819 1_555
Gd2 O0 2.545441 1_545
Gd3 O3 2.278545 1_555
Gd3 O9 2.305267 1_555
Gd3 O0 2.343825 1_655
Gd3 O7 2.399548 1_555
Gd3 O2 2.441885 1_655
Gd3 O6 2.458279 1_555
Gd3 O11 2.941994 1_565
Gd4 O9 2.278560 1_555
Gd4 O5 2.305265 1_555
Gd4 O7 2.343828 1_556
Gd4 O10 2.399542 1_555
Gd4 O6 2.441882 1_556
Gd4 O8 2.458286 1_555
Gd4 O4 2.941993 1_655
Gd5 O3 2.260899 1_545
Gd5 O11 2.267813 1_555
Gd5 O6 2.288420 1_555
Gd5 O9 2.368058 1_555
Gd5 O1 2.456826 1_545
Gd5 O8 2.507830 1_555
Gd5 O10 2.545433 1_554
Mg0 O4 2.140494 1_554
Mg0 O11 2.140500 1_455
Mg0 O1 2.140500 1_545
Mg0 O8 2.169492 1_555
Mg0 O2 2.169495 1_555
Mg0 O6 2.169497 1_555
O0 W0 2.088991 1_455
O1 W0 2.121605 1_454
O4 W0 2.121594 1_445
O7 W0 2.088984 1_554
O10 W0 2.088995 1_545
O11 W0 2.121600 1_544
