# generated using pymatgen
data_SmMnB4
_symmetry_space_group_name_H-M   'P 1'
_cell_length_a   3.46843019
_cell_length_b   6.01704206
_cell_length_c   11.65411960
_cell_angle_alpha   90.00000000
_cell_angle_beta   90.00000000
_cell_angle_gamma   90.00000000
_symmetry_Int_Tables_number   1
_chemical_formula_structural   SmMnB4
_chemical_formula_sum   'Sm4 Mn4 B16'
_cell_volume   243.21786718
_cell_formula_units_Z   4
loop_
 _symmetry_equiv_pos_site_id
 _symmetry_equiv_pos_as_xyz
  1  'x, y, z'
loop_
 _atom_site_type_symbol
 _atom_site_label
 _atom_site_symmetry_multiplicity
 _atom_site_fract_x
 _atom_site_fract_y
 _atom_site_fract_z
 _atom_site_occupancy
  Sm  Sm0  1  0.00000000  0.37443119  0.65072104  1
  Sm  Sm1  1  0.00000000  0.62556881  0.34927896  1
  Sm  Sm2  1  -0.00000000  0.87443119  0.84927896  1
  Sm  Sm3  1  -0.00000000  0.12556881  0.15072104  1
  Mn  Mn0  1  0.00000000  0.36944008  0.91448706  1
  Mn  Mn1  1  -0.00000000  0.63055992  0.08551294  1
  Mn  Mn2  1  0.00000000  0.86944008  0.58551294  1
  Mn  Mn3  1  -0.00000000  0.13055992  0.41448706  1
  B  B0  1  0.50000000  0.02283497  0.68908439  1
  B  B1  1  0.50000000  0.97716503  0.31091561  1
  B  B2  1  0.50000000  0.52283497  0.81091561  1
  B  B3  1  0.50000000  0.47716503  0.18908439  1
  B  B4  1  0.50000000  0.38848954  0.04582400  1
  B  B5  1  0.50000000  0.61151046  0.95417600  1
  B  B6  1  0.50000000  0.88848954  0.45417600  1
  B  B7  1  0.50000000  0.11151046  0.54582400  1
  B  B8  1  0.50000000  0.28018623  0.31623859  1
  B  B9  1  0.50000000  0.71981377  0.68376141  1
  B  B10  1  0.50000000  0.78018623  0.18376141  1
  B  B11  1  0.50000000  0.21981377  0.81623859  1
  B  B12  1  0.50000000  0.35907240  0.46720016  1
  B  B13  1  0.50000000  0.64092760  0.53279984  1
  B  B14  1  0.50000000  0.85907240  0.03279984  1
  B  B15  1  0.50000000  0.14092760  0.96720016  1
loop_
_geom_bond_atom_site_label_1
_geom_bond_atom_site_label_2
_geom_bond_distance
_geom_bond_site_symmetry_2
B0 B7 1.752760 1_555
B0 B9 1.824346 1_545
B0 B11 1.897553 1_555
B0 Mn2 2.305717 1_545
B0 Mn2 2.305717 1_645
B0 Sm2 2.700052 1_645
B0 Sm2 2.700052 1_545
B0 Sm0 2.771827 1_655
B0 Sm0 2.771827 1_555
B1 B6 1.752760 1_555
B1 B8 1.824346 1_565
B1 B10 1.897553 1_555
B1 Mn3 2.305717 1_665
B1 Mn3 2.305717 1_565
B1 Sm3 2.700052 1_565
B1 Sm3 2.700052 1_665
B1 Sm1 2.771827 1_655
B1 Sm1 2.771827 1_555
B2 B5 1.752760 1_555
B2 B9 1.897553 1_555
B2 Mn0 2.305717 1_555
B2 Mn0 2.305717 1_655
B2 Sm0 2.700052 1_555
B2 Sm0 2.700052 1_655
B2 Sm2 2.771827 1_555
B2 Sm2 2.771827 1_655
B3 B4 1.752760 1_555
B3 B8 1.897553 1_555
B3 Mn1 2.305717 1_555
B3 Mn1 2.305717 1_655
B3 Sm1 2.700052 1_655
B3 Sm1 2.700052 1_555
B3 Sm3 2.771827 1_555
B3 Sm3 2.771827 1_655
B4 B5 1.715096 1_554
B4 Mn1 2.311488 1_555
B4 Mn1 2.311488 1_655
B4 Mn0 2.315907 1_654
B4 Mn0 2.315907 1_554
B4 Sm3 2.646640 1_555
B4 Sm3 2.646640 1_655
B5 Mn0 2.311488 1_655
B5 Mn0 2.311488 1_555
B5 Mn1 2.315907 1_656
B5 Mn1 2.315907 1_556
B5 Sm2 2.646640 1_555
B5 Sm2 2.646640 1_655
B6 B7 1.715096 1_565
B6 Mn3 2.311488 1_565
B6 Mn3 2.311488 1_665
B6 Mn2 2.315907 1_655
B6 Mn2 2.315907 1_555
B6 Sm1 2.646640 1_555
B6 Sm1 2.646640 1_655
B7 Mn2 2.311488 1_545
B7 Mn2 2.311488 1_645
B7 Mn3 2.315907 1_555
B7 Mn3 2.315907 1_655
B7 Sm0 2.646640 1_555
B7 Sm0 2.646640 1_655
B8 Mn3 2.264747 1_555
B8 Mn3 2.264747 1_655
B8 Sm1 2.733973 1_655
B8 Sm1 2.733973 1_555
B8 Sm3 2.755708 1_555
B8 Sm3 2.755708 1_655
B9 Mn2 2.264747 1_655
B9 Mn2 2.264747 1_555
B9 Sm0 2.733973 1_555
B9 Sm0 2.733973 1_655
B9 Sm2 2.755708 1_555
B9 Sm2 2.755708 1_655
B10 B14 1.822231 1_555
B10 B3 1.824346 1_555
B10 Mn1 2.264747 1_555
B10 Mn1 2.264747 1_655
B10 Sm3 2.733973 1_565
B10 Sm3 2.733973 1_665
B10 Sm1 2.755708 1_555
B10 Sm1 2.755708 1_655
B11 B15 1.822231 1_555
B11 B2 1.824346 1_555
B11 Mn0 2.264747 1_555
B11 Mn0 2.264747 1_655
B11 Sm2 2.733973 1_545
B11 Sm2 2.733973 1_645
B11 Sm0 2.755708 1_555
B11 Sm0 2.755708 1_655
B12 B7 1.748848 1_555
B12 B8 1.822231 1_555
B12 B13 1.860286 1_555
B12 Mn3 2.296832 1_655
B12 Mn3 2.296832 1_555
B12 Sm1 2.732653 1_655
B12 Sm1 2.732653 1_555
B12 Sm0 2.755068 1_555
B12 Sm0 2.755068 1_655
B13 B6 1.748848 1_555
B13 B9 1.822231 1_555
B13 Mn2 2.296832 1_655
B13 Mn2 2.296832 1_555
B13 Sm0 2.732653 1_655
B13 Sm0 2.732653 1_555
B13 Sm1 2.755068 1_655
B13 Sm1 2.755068 1_555
B14 B5 1.748848 1_554
B14 B15 1.860286 1_564
B14 Mn1 2.296832 1_655
B14 Mn1 2.296832 1_555
B14 Sm3 2.732653 1_565
B14 Sm3 2.732653 1_665
B14 Sm2 2.755068 1_654
B14 Sm2 2.755068 1_554
B15 B4 1.748848 1_556
B15 Mn0 2.296832 1_655
B15 Mn0 2.296832 1_555
B15 Sm2 2.732653 1_545
B15 Sm2 2.732653 1_645
B15 Sm3 2.755068 1_556
B15 Sm3 2.755068 1_656
