# generated using pymatgen
data_Na2MnCl4
_symmetry_space_group_name_H-M   'P 1'
_cell_length_a   3.82732606
_cell_length_b   6.87629393
_cell_length_c   11.89061079
_cell_angle_alpha   90.00000000
_cell_angle_beta   90.00000000
_cell_angle_gamma   90.00000000
_symmetry_Int_Tables_number   1
_chemical_formula_structural   Na2MnCl4
_chemical_formula_sum   'Na4 Mn2 Cl8'
_cell_volume   312.93494203
_cell_formula_units_Z   2
loop_
 _symmetry_equiv_pos_site_id
 _symmetry_equiv_pos_as_xyz
  1  'x, y, z'
loop_
 _atom_site_type_symbol
 _atom_site_label
 _atom_site_symmetry_multiplicity
 _atom_site_fract_x
 _atom_site_fract_y
 _atom_site_fract_z
 _atom_site_occupancy
  Na  Na0  1  0.50000000  0.08410848  0.68100156  1
  Na  Na1  1  0.50000000  0.91589152  0.31899844  1
  Na  Na2  1  0.50000000  0.41589152  0.18100156  1
  Na  Na3  1  0.50000000  0.58410848  0.81899844  1
  Mn  Mn0  1  -0.00000000  0.50000000  0.50000000  1
  Mn  Mn1  1  -0.00000000  -0.00000000  0.00000000  1
  Cl  Cl0  1  0.50000000  0.74026234  0.54473868  1
  Cl  Cl1  1  0.50000000  0.25973766  0.45526132  1
  Cl  Cl2  1  -0.00000000  0.12332116  0.19697593  1
  Cl  Cl3  1  -0.00000000  0.87667884  0.80302407  1
  Cl  Cl4  1  -0.00000000  0.62332116  0.30302407  1
  Cl  Cl5  1  -0.00000000  0.37667884  0.69697593  1
  Cl  Cl6  1  0.50000000  0.24026234  0.95526132  1
  Cl  Cl7  1  0.50000000  0.75973766  0.04473868  1
loop_
_geom_bond_atom_site_label_1
_geom_bond_atom_site_label_2
_geom_bond_distance
_geom_bond_site_symmetry_2
Cl0 Mn0 2.583521 1_555
Cl0 Mn0 2.583521 1_655
Cl0 Na0 2.866275 1_565
Cl0 Na1 2.943358 1_555
Cl1 Mn0 2.583521 1_555
Cl1 Mn0 2.583521 1_655
Cl1 Na1 2.866275 1_545
Cl1 Na0 2.943358 1_555
Cl2 Mn1 2.490948 1_555
Cl2 Na2 2.783078 1_555
Cl2 Na2 2.783078 1_455
Cl2 Na1 2.793161 1_545
Cl2 Na1 2.793161 1_445
Cl3 Mn1 2.490948 1_566
Cl3 Na3 2.783078 1_555
Cl3 Na3 2.783078 1_455
Cl3 Na0 2.793161 1_565
Cl3 Na0 2.793161 1_465
Cl4 Mn0 2.490948 1_555
Cl4 Na1 2.783078 1_455
Cl4 Na1 2.783078 1_555
Cl4 Na2 2.793161 1_455
Cl4 Na2 2.793161 1_555
Cl5 Mn0 2.490948 1_555
Cl5 Na0 2.783078 1_555
Cl5 Na0 2.783078 1_455
Cl5 Na3 2.793161 1_555
Cl5 Na3 2.793161 1_455
Cl6 Mn1 2.583521 1_556
Cl6 Mn1 2.583521 1_656
Cl6 Na3 2.866275 1_555
Cl6 Na2 2.943358 1_556
Cl7 Mn1 2.583521 1_565
Cl7 Mn1 2.583521 1_665
Cl7 Na2 2.866275 1_555
Cl7 Na3 2.943358 1_554
