# generated using pymatgen
data_CaAl2Si2(H2O5)2
_symmetry_space_group_name_H-M   'P 1'
_cell_length_a   5.94890000
_cell_length_b   8.84400300
_cell_length_c   13.17551700
_cell_angle_alpha   90.00000000
_cell_angle_beta   90.00000000
_cell_angle_gamma   90.00000000
_symmetry_Int_Tables_number   1
_chemical_formula_structural   CaAl2Si2(H2O5)2
_chemical_formula_sum   'Ca4 Al8 Si8 H16 O40'
_cell_volume   693.19147891
_cell_formula_units_Z   4
loop_
 _symmetry_equiv_pos_site_id
 _symmetry_equiv_pos_as_xyz
  1  'x, y, z'
loop_
 _atom_site_type_symbol
 _atom_site_label
 _atom_site_symmetry_multiplicity
 _atom_site_fract_x
 _atom_site_fract_y
 _atom_site_fract_z
 _atom_site_occupancy
  Ca  Ca0  1  0.23412500  0.58275400  0.75194300  1
  Ca  Ca1  1  0.73412500  0.41724600  0.24805700  1
  Ca  Ca2  1  0.23412500  0.91724600  0.25194300  1
  Ca  Ca3  1  0.73412500  0.08275400  0.74805700  1
  Al  Al0  1  0.49741700  0.00052800  0.49908000  1
  Al  Al1  1  0.00390600  0.99632800  0.99806200  1
  Al  Al2  1  0.50390600  0.00367200  0.00193800  1
  Al  Al3  1  0.00390600  0.50367200  0.49806200  1
  Al  Al4  1  0.50390600  0.49632800  0.50193800  1
  Al  Al5  1  0.99741700  0.99947200  0.50092000  1
  Al  Al6  1  0.99741700  0.50052800  0.00092000  1
  Al  Al7  1  0.49741700  0.49947200  0.99908000  1
  Si  Si0  1  0.25108300  0.22575300  0.86568100  1
  Si  Si1  1  0.24752400  0.27147400  0.13131000  1
  Si  Si2  1  0.74752400  0.72852600  0.86869000  1
  Si  Si3  1  0.74752400  0.77147400  0.36869000  1
  Si  Si4  1  0.24752400  0.22852600  0.63131000  1
  Si  Si5  1  0.75108300  0.72575300  0.63431900  1
  Si  Si6  1  0.75108300  0.77424700  0.13431900  1
  Si  Si7  1  0.25108300  0.27424700  0.36568100  1
  H  H0  1  0.27568900  0.83391500  0.89420100  1
  H  H1  1  0.77568900  0.16608500  0.10579900  1
  H  H2  1  0.27568900  0.66608500  0.39420100  1
  H  H3  1  0.77568900  0.33391500  0.60579900  1
  H  H4  1  0.24951600  0.78149600  0.52354000  1
  H  H5  1  0.74951600  0.21850400  0.47646000  1
  H  H6  1  0.24951600  0.71850400  0.02354000  1
  H  H7  1  0.74951600  0.28149600  0.97646000  1
  H  H8  1  0.17837700  0.94449900  0.77660300  1
  H  H9  1  0.67837700  0.05550100  0.22339700  1
  H  H10  1  0.17837700  0.55550100  0.27660300  1
  H  H11  1  0.67837700  0.44449900  0.72339700  1
  H  H12  1  0.25595800  0.87721900  0.66958300  1
  H  H13  1  0.75595800  0.12278100  0.33041700  1
  H  H14  1  0.25595800  0.62278100  0.16958300  1
  H  H15  1  0.75595800  0.37721900  0.83041700  1
  O  O0  1  0.53223400  0.61305000  0.62562900  1
  O  O1  1  0.76110900  0.13984300  0.25380200  1
  O  O2  1  0.26008500  0.87910900  0.96133600  1
  O  O3  1  0.76110900  0.36015700  0.75380200  1
  O  O4  1  0.75662800  0.79911700  0.75125100  1
  O  O5  1  0.25662800  0.20088300  0.24874900  1
  O  O6  1  0.75662800  0.70088300  0.25125100  1
  O  O7  1  0.25662800  0.29911700  0.74874900  1
  O  O8  1  0.03223400  0.11305000  0.87437100  1
  O  O9  1  0.53223400  0.88695000  0.12562900  1
  O  O10  1  0.03223400  0.38695000  0.37437100  1
  O  O11  1  0.26110900  0.86015700  0.74619800  1
  O  O12  1  0.02023600  0.12650800  0.61820100  1
  O  O13  1  0.52023600  0.87349200  0.38179900  1
  O  O14  1  0.02023600  0.37349200  0.11820100  1
  O  O15  1  0.52023600  0.62650800  0.88179900  1
  O  O16  1  0.47511300  0.37109400  0.11430700  1
  O  O17  1  0.97511300  0.62890600  0.88569300  1
  O  O18  1  0.47511300  0.12890600  0.61430700  1
  O  O19  1  0.97511300  0.87109400  0.38569300  1
  O  O20  1  0.47800000  0.37451400  0.38312400  1
  O  O21  1  0.97800000  0.62548600  0.61687600  1
  O  O22  1  0.47800000  0.12548600  0.88312400  1
  O  O23  1  0.97800000  0.87451400  0.11687600  1
  O  O24  1  0.74766700  0.88618500  0.93739100  1
  O  O25  1  0.24766700  0.11381500  0.06260900  1
  O  O26  1  0.74766700  0.61381500  0.43739100  1
  O  O27  1  0.24766700  0.38618500  0.56260900  1
  O  O28  1  0.74330500  0.88342400  0.56567800  1
  O  O29  1  0.24330500  0.11657600  0.43432200  1
  O  O30  1  0.74330500  0.61657600  0.06567800  1
  O  O31  1  0.24330500  0.38342400  0.93432200  1
  O  O32  1  0.74942800  0.38805000  0.95014000  1
  O  O33  1  0.24942800  0.61195000  0.04986000  1
  O  O34  1  0.74942800  0.11195000  0.45014000  1
  O  O35  1  0.24942800  0.88805000  0.54986000  1
  O  O36  1  0.76008500  0.37910900  0.53866400  1
  O  O37  1  0.26008500  0.62089100  0.46133600  1
  O  O38  1  0.76008500  0.12089100  0.03866400  1
  O  O39  1  0.26110900  0.63984300  0.24619800  1
loop_
_geom_bond_atom_site_label_1
_geom_bond_atom_site_label_2
_geom_bond_distance
_geom_bond_site_symmetry_2
Ca0 O21 2.373029 1_455
Ca0 O17 2.376177 1_455
Ca0 O15 2.444166 1_555
Ca0 O0 2.446742 1_555
Ca0 O11 2.459764 1_555
Ca0 O7 2.512408 1_555
Ca1 O20 2.373029 1_555
Ca1 O16 2.376177 1_555
Ca1 O14 2.444166 1_655
Ca1 O10 2.446742 1_655
Ca1 O1 2.459764 1_555
Ca1 O6 2.512408 1_555
Ca2 O23 2.373029 1_455
Ca2 O19 2.376177 1_455
Ca2 O13 2.444166 1_555
Ca2 O9 2.446742 1_555
Ca2 O39 2.459764 1_555
Ca2 O5 2.512408 1_565
Ca3 O22 2.373029 1_555
Ca3 O18 2.376177 1_555
Ca3 O12 2.444166 1_655
Ca3 O8 2.446742 1_655
Ca3 O3 2.459764 1_555
Ca3 O4 2.512408 1_545
Al0 O18 1.900405 1_555
Al0 O35 1.900939 1_545
Al0 O34 1.906408 1_555
Al0 O13 1.915321 1_545
Al0 O28 1.995552 1_545
Al0 O29 2.016565 1_555
Al1 O38 1.898323 1_466
Al1 O2 1.905619 1_555
Al1 O23 1.906559 1_456
Al1 O8 1.936471 1_565
Al1 O25 1.976285 1_566
Al1 O24 1.977748 1_455
Al2 O2 1.898323 1_544
Al2 O38 1.905619 1_555
Al2 O22 1.906559 1_554
Al2 O9 1.936471 1_545
Al2 O24 1.976285 1_544
Al2 O25 1.977748 1_555
Al3 O36 1.898323 1_455
Al3 O37 1.905619 1_555
Al3 O21 1.906559 1_455
Al3 O10 1.936471 1_555
Al3 O27 1.976285 1_555
Al3 O26 1.977748 1_455
Al4 O37 1.898323 1_555
Al4 O36 1.905619 1_555
Al4 O20 1.906559 1_555
Al4 O0 1.936471 1_555
Al4 O26 1.976285 1_555
Al4 O27 1.977748 1_555
Al5 O19 1.900405 1_555
Al5 O34 1.900939 1_565
Al5 O35 1.906408 1_655
Al5 O12 1.915321 1_665
Al5 O29 1.995552 1_665
Al5 O28 2.016565 1_555
Al6 O17 1.900405 1_554
Al6 O32 1.900939 1_554
Al6 O33 1.906408 1_655
Al6 O14 1.915321 1_655
Al6 O31 1.995552 1_654
Al6 O30 2.016565 1_555
Al7 O16 1.900405 1_556
Al7 O33 1.900939 1_556
Al7 O32 1.906408 1_555
Al7 O15 1.915321 1_555
Al7 O30 1.995552 1_556
Al7 O31 2.016565 1_555
H0 O2 0.975080 1_555
H1 O38 0.975080 1_555
H2 O37 0.975080 1_555
H3 O36 0.975080 1_555
H4 O35 1.004144 1_555
H4 O37 1.641085 1_555
H5 O34 1.004144 1_555
H5 O36 1.641085 1_555
H6 O33 1.004144 1_555
H6 O2 1.641085 1_554
H7 O32 1.004144 1_555
H7 O38 1.641085 1_556
H8 O11 0.979339 1_555
H9 O1 0.979339 1_555
H10 O39 0.979339 1_555
H11 O3 0.979339 1_555
H12 O11 1.021118 1_555
H12 O35 1.580796 1_555
H13 O1 1.021118 1_555
H13 O34 1.580796 1_555
H14 O39 1.021118 1_555
H14 O33 1.580796 1_555
H15 O3 1.021118 1_555
H15 O32 1.580796 1_555
O0 Si5 1.643649 1_555
O4 Si2 1.669398 1_555
O4 Si5 1.672017 1_555
O5 Si1 1.669398 1_555
O5 Si7 1.672017 1_555
O6 Si3 1.669398 1_555
O6 Si6 1.672017 1_555
O7 Si4 1.669398 1_555
O7 Si0 1.672017 1_555
O8 Si0 1.643649 1_555
O9 Si6 1.643649 1_555
O10 Si7 1.643649 1_555
O12 Si4 1.634654 1_555
O13 Si3 1.634654 1_555
O14 Si1 1.634654 1_555
O15 Si2 1.634654 1_555
O16 Si1 1.630789 1_555
O17 Si2 1.630789 1_555
O18 Si4 1.630789 1_555
O19 Si3 1.630789 1_555
O20 Si7 1.631383 1_555
O21 Si5 1.631383 1_555
O22 Si0 1.631383 1_555
O23 Si6 1.631383 1_555
O24 Si2 1.662381 1_555
O25 Si1 1.662381 1_555
O26 Si3 1.662381 1_555
O27 Si4 1.662381 1_555
O28 Si5 1.662683 1_555
O29 Si7 1.662683 1_555
O30 Si6 1.662683 1_555
O31 Si0 1.662683 1_555
