# generated using pymatgen
data_Rb2MgFe4O7
_symmetry_space_group_name_H-M   'P 1'
_cell_length_a   5.49092083
_cell_length_b   5.65987062
_cell_length_c   7.99600052
_cell_angle_alpha   102.78749186
_cell_angle_beta   82.37550656
_cell_angle_gamma   122.57752966
_symmetry_Int_Tables_number   1
_chemical_formula_structural   Rb2MgFe4O7
_chemical_formula_sum   'Rb2 Mg1 Fe4 O7'
_cell_volume   204.17979709
_cell_formula_units_Z   1
loop_
 _symmetry_equiv_pos_site_id
 _symmetry_equiv_pos_as_xyz
  1  'x, y, z'
loop_
 _atom_site_type_symbol
 _atom_site_label
 _atom_site_symmetry_multiplicity
 _atom_site_fract_x
 _atom_site_fract_y
 _atom_site_fract_z
 _atom_site_occupancy
  Rb  Rb0  1  0.34561003  0.83417596  0.04679046  1
  Rb  Rb1  1  0.66863303  0.46251746  0.90467730  1
  Mg  Mg0  1  -0.00029464  0.20975108  0.21075955  1
  Fe  Fe0  1  -0.01597268  0.89142022  0.41794186  1
  Fe  Fe1  1  0.00699716  0.07562686  0.72664026  1
  Fe  Fe2  1  0.33928028  0.64405722  0.49928211  1
  Fe  Fe3  1  0.64845092  0.29308588  0.48585410  1
  O  O0  1  0.01865511  0.55067868  0.33839372  1
  O  O1  1  0.02532505  0.38512482  0.65354506  1
  O  O2  1  -0.00532413  0.12408326  0.96666702  1
  O  O3  1  0.31339994  0.25576427  0.33711356  1
  O  O4  1  0.67568981  0.70763180  0.62284758  1
  O  O5  1  0.31490067  0.00348161  0.62593963  1
  O  O6  1  0.66464844  0.91240289  0.33021379  1
loop_
_geom_bond_atom_site_label_1
_geom_bond_atom_site_label_2
_geom_bond_distance
_geom_bond_site_symmetry_2
Mg0 O2 1.904260 1_554
Mg0 O0 1.927686 1_555
Mg0 O3 1.979330 1_555
Mg0 O6 2.010074 1_445
Fe0 O0 1.994949 1_555
Fe0 O6 2.041854 1_455
Fe0 O3 2.050510 1_565
Fe0 O4 2.180538 1_455
Fe0 O5 2.358615 1_565
Fe1 O2 1.875059 1_555
Fe1 O1 1.915207 1_555
Fe1 O4 1.972669 1_445
Fe1 O5 1.977399 1_555
Fe2 O4 2.031989 1_555
Fe2 O1 2.038723 1_555
Fe2 O0 2.081299 1_555
Fe2 O5 2.127727 1_565
Fe2 O6 2.161502 1_555
Fe2 O3 2.232160 1_555
Fe3 O5 2.081178 1_555
Fe3 O0 2.140429 1_655
Fe3 O3 2.212392 1_555
Fe3 O6 2.277952 1_545
Fe3 O4 2.292409 1_555
Fe3 O1 2.370200 1_655
O0 Rb0 2.945768 1_555
O1 Rb1 2.747909 1_455
O2 Rb0 3.060497 1_446
O2 Rb1 3.109050 1_445
O2 Rb1 3.147950 1_555
O2 Rb0 3.318703 1_546
O2 Rb0 3.335284 1_556
O2 Rb1 3.386528 1_455
O3 Rb0 3.001231 1_545
O4 Rb1 2.882244 1_555
O5 Rb1 2.939606 1_555
O6 Rb0 2.859171 1_555
