# generated using pymatgen
data_HoScS3
_symmetry_space_group_name_H-M   'P 1'
_cell_length_a   6.35724069
_cell_length_b   6.97389063
_cell_length_c   9.52920782
_cell_angle_alpha   90.00000000
_cell_angle_beta   90.00000000
_cell_angle_gamma   90.00000000
_symmetry_Int_Tables_number   1
_chemical_formula_structural   HoScS3
_chemical_formula_sum   'Ho4 Sc4 S12'
_cell_volume   422.47458214
_cell_formula_units_Z   4
loop_
 _symmetry_equiv_pos_site_id
 _symmetry_equiv_pos_as_xyz
  1  'x, y, z'
loop_
 _atom_site_type_symbol
 _atom_site_label
 _atom_site_symmetry_multiplicity
 _atom_site_fract_x
 _atom_site_fract_y
 _atom_site_fract_z
 _atom_site_occupancy
  Ho  Ho0  1  0.45891468  0.60055280  0.50899134  1
  Ho  Ho1  1  0.54108532  0.39944720  0.00899134  1
  Ho  Ho2  1  0.95891468  0.89944720  0.00899134  1
  Ho  Ho3  1  0.04108532  0.10055280  0.50899134  1
  Sc  Sc0  1  0.99989329  0.50011761  0.25909258  1
  Sc  Sc1  1  0.00010671  0.49988239  0.75909258  1
  Sc  Sc2  1  0.49989329  0.99988239  0.75909258  1
  Sc  Sc3  1  0.50010671  0.00011761  0.25909258  1
  S  S0  1  0.17598600  0.81572453  0.68635340  1
  S  S1  1  0.82401400  0.18427547  0.18635340  1
  S  S2  1  0.67598600  0.68427547  0.18635340  1
  S  S3  1  0.32401400  0.31572453  0.68635340  1
  S  S4  1  0.17594573  0.81603202  0.33145513  1
  S  S5  1  0.82405427  0.18396798  0.83145513  1
  S  S6  1  0.67594573  0.68396798  0.83145513  1
  S  S7  1  0.32405427  0.31603202  0.33145513  1
  S  S8  1  0.14677265  0.54956500  0.00910755  1
  S  S9  1  0.85322735  0.45043500  0.50910755  1
  S  S10  1  0.64677265  0.95043500  0.50910755  1
  S  S11  1  0.35322735  0.04956500  0.00910755  1
loop_
_geom_bond_atom_site_label_1
_geom_bond_atom_site_label_2
_geom_bond_distance
_geom_bond_site_symmetry_2
Ho0 S9 2.716571 1_555
Ho0 S10 2.716625 1_555
Ho0 S7 2.744862 1_555
Ho0 S3 2.745470 1_555
Ho0 S0 2.888492 1_555
Ho0 S4 2.890737 1_555
Ho0 S6 3.418228 1_555
Ho0 S2 3.420188 1_555
Ho1 S8 2.716571 1_555
Ho1 S11 2.716625 1_555
Ho1 S6 2.744862 1_554
Ho1 S2 2.745470 1_555
Ho1 S1 2.888492 1_555
Ho1 S5 2.890737 1_554
Ho1 S7 3.418228 1_555
Ho1 S3 3.420188 1_554
Ho2 S11 2.716571 1_665
Ho2 S8 2.716625 1_655
Ho2 S5 2.744862 1_564
Ho2 S1 2.745470 1_565
Ho2 S2 2.888492 1_555
Ho2 S6 2.890737 1_554
Ho2 S4 3.418228 1_655
Ho2 S0 3.420188 1_654
Ho3 S10 2.716571 1_445
Ho3 S9 2.716625 1_455
Ho3 S4 2.744862 1_545
Ho3 S0 2.745470 1_545
Ho3 S3 2.888492 1_555
Ho3 S7 2.890737 1_555
Ho3 S5 3.418228 1_455
Ho3 S1 3.420188 1_455
S0 Sc2 2.523885 1_555
S0 Sc1 2.565595 1_555
S1 Sc3 2.523885 1_555
S1 Sc0 2.565595 1_555
S2 Sc0 2.523885 1_555
S2 Sc3 2.565595 1_565
S3 Sc1 2.523885 1_555
S3 Sc2 2.565595 1_545
S4 Sc3 2.523962 1_565
S4 Sc0 2.565540 1_455
S5 Sc2 2.523962 1_545
S5 Sc1 2.565540 1_655
S6 Sc1 2.523962 1_655
S6 Sc2 2.565540 1_555
S7 Sc0 2.523962 1_455
S7 Sc3 2.565540 1_555
S8 Sc1 2.581752 1_554
S8 Sc0 2.581760 1_455
S9 Sc0 2.581752 1_555
S9 Sc1 2.581760 1_655
S10 Sc3 2.581752 1_565
S10 Sc2 2.581760 1_555
S11 Sc2 2.581752 1_544
S11 Sc3 2.581760 1_555
