# generated using pymatgen
data_Na3Nb3GaSi3(PO8)3
_symmetry_space_group_name_H-M   'P 1'
_cell_length_a   8.83074671
_cell_length_b   8.85361066
_cell_length_c   22.68858719
_cell_angle_alpha   89.98747398
_cell_angle_beta   90.04857396
_cell_angle_gamma   119.91023798
_symmetry_Int_Tables_number   1
_chemical_formula_structural   Na3Nb3GaSi3(PO8)3
_chemical_formula_sum   'Na9 Nb9 Ga3 Si9 P9 O72'
_cell_volume   1537.61594737
_cell_formula_units_Z   3
loop_
 _symmetry_equiv_pos_site_id
 _symmetry_equiv_pos_as_xyz
  1  'x, y, z'
loop_
 _atom_site_type_symbol
 _atom_site_label
 _atom_site_symmetry_multiplicity
 _atom_site_fract_x
 _atom_site_fract_y
 _atom_site_fract_z
 _atom_site_occupancy
  Na  Na0  1  0.63750372  0.00244476  0.24864718  1
  Na  Na1  1  0.37168028  0.36349541  0.24763285  1
  Na  Na2  1  0.70605320  0.67411899  0.41435763  1
  Na  Na3  1  0.00673297  0.00678913  0.49441150  1
  Na  Na4  1  0.00122929  0.00101991  0.99973304  1
  Na  Na5  1  0.66718078  0.33340402  0.82978570  1
  Na  Na6  1  0.67445643  0.33628459  0.33152291  1
  Na  Na7  1  0.32776643  0.66492126  0.16467294  1
  Na  Na8  1  0.33466774  0.66609119  0.66555744  1
  Nb  Nb0  1  0.00112973  0.00125666  0.85494621  1
  Nb  Nb1  1  0.99760737  0.99732565  0.64385159  1
  Nb  Nb2  1  0.99815930  0.99810120  0.14494722  1
  Nb  Nb3  1  0.66064383  0.33147307  0.97720526  1
  Nb  Nb4  1  0.66773086  0.33457499  0.47851346  1
  Nb  Nb5  1  0.33396029  0.66312180  0.02089716  1
  Nb  Nb6  1  0.33589982  0.66469848  0.52003788  1
  Nb  Nb7  1  0.33265225  0.66723610  0.31487668  1
  Nb  Nb8  1  0.33314200  0.66647913  0.81228751  1
  Ga  Ga0  1  0.99899128  0.99664263  0.35493101  1
  Ga  Ga1  1  0.66446036  0.33497150  0.68483161  1
  Ga  Ga2  1  0.67297638  0.34773539  0.18373001  1
  Si  Si0  1  0.71702227  0.70564493  0.25212768  1
  Si  Si1  1  0.66308844  0.61433151  0.58645578  1
  Si  Si2  1  0.38099485  0.33387433  0.08635212  1
  Si  Si3  1  0.62179014  0.66777325  0.91623635  1
  Si  Si4  1  0.04475518  0.37935459  0.91630033  1
  Si  Si5  1  0.33327207  0.95229315  0.91686024  1
  Si  Si6  1  0.62880721  0.96111443  0.41635921  1
  Si  Si7  1  0.32108416  0.36484559  0.41586480  1
  Si  Si8  1  0.04611159  0.67323384  0.41724082  1
  P  P0  1  0.28772485  0.00095381  0.25081912  1
  P  P1  1  0.99407128  0.28640133  0.25030176  1
  P  P2  1  0.29460879  0.28844327  0.74876432  1
  P  P3  1  0.99398011  0.70529125  0.74905032  1
  P  P4  1  0.71117102  0.00702987  0.74874191  1
  P  P5  1  0.95171291  0.33568494  0.58618947  1
  P  P6  1  0.38426760  0.04814832  0.58597447  1
  P  P7  1  0.95233336  0.61719138  0.08454685  1
  P  P8  1  0.66473205  0.04925101  0.08573558  1
  O  O0  1  0.20699212  0.03785845  0.30437862  1
  O  O1  1  0.82735700  0.79803442  0.31038519  1
  O  O2  1  0.96344358  0.17226435  0.30431869  1
  O  O3  1  0.19949186  0.17472882  0.80389153  1
  O  O4  1  0.97404294  0.79987633  0.80380659  1
  O  O5  1  0.82520639  0.02706514  0.80369741  1
  O  O6  1  0.80212985  0.97522887  0.69464947  1
  O  O7  1  0.17346434  0.19925025  0.69484917  1
  O  O8  1  0.02562454  0.82762058  0.69491401  1
  O  O9  1  0.80522785  0.83733954  0.19419947  1
  O  O10  1  0.03295889  0.20304288  0.19473429  1
  O  O11  1  0.17219787  0.97302432  0.19475828  1
  O  O12  1  0.87000150  0.36254234  0.64082533  1
  O  O13  1  0.49433141  0.12660392  0.64064904  1
  O  O14  1  0.63233730  0.49812310  0.64312765  1
  O  O15  1  0.87646248  0.50790601  0.13984887  1
  O  O16  1  0.63885939  0.12780146  0.14233502  1
  O  O17  1  0.49218945  0.36455725  0.14539410  1
  O  O18  1  0.47158842  0.30465671  0.02738668  1
  O  O19  1  0.84065124  0.53573018  0.02896123  1
  O  O20  1  0.69624132  0.16161421  0.03008830  1
  O  O21  1  0.46493689  0.16072446  0.52974607  1
  O  O22  1  0.69781950  0.53482614  0.52534109  1
  O  O23  1  0.83891662  0.30171217  0.52968026  1
  O  O24  1  0.53275151  0.70009838  0.97424244  1
  O  O25  1  0.16812022  0.46855718  0.97411082  1
  O  O26  1  0.30083032  0.83285601  0.97480177  1
  O  O27  1  0.52960478  0.83075919  0.47256795  1
  O  O28  1  0.30352805  0.46924818  0.47317601  1
  O  O29  1  0.16647575  0.69471173  0.47459075  1
  O  O30  1  0.13515507  0.63360393  0.35916484  1
  O  O31  1  0.50196208  0.86961296  0.35726831  1
  O  O32  1  0.37020133  0.49949686  0.35808276  1
  O  O33  1  0.13688956  0.50154779  0.85830523  1
  O  O34  1  0.36427459  0.86231082  0.85841644  1
  O  O35  1  0.49879088  0.63499609  0.85837222  1
  O  O36  1  0.01766305  0.83603723  0.41098088  1
  O  O37  1  0.81172440  0.96900969  0.41015913  1
  O  O38  1  0.15435841  0.17969192  0.40794221  1
  O  O39  1  0.02588160  0.18791894  0.90728647  1
  O  O40  1  0.16307652  0.97560885  0.90720830  1
  O  O41  1  0.81342345  0.83883127  0.90733191  1
  O  O42  1  0.97519177  0.17086535  0.59214852  1
  O  O43  1  0.19742248  0.02931750  0.59216794  1
  O  O44  1  0.83839848  0.81402803  0.59268855  1
  O  O45  1  0.97221440  0.80321052  0.09089213  1
  O  O46  1  0.83027547  0.02668721  0.09076760  1
  O  O47  1  0.18351168  0.16040831  0.09087662  1
  O  O48  1  0.69313568  0.16851172  0.74227062  1
  O  O49  1  0.47399793  0.30436916  0.74436580  1
  O  O50  1  0.83387038  0.52511728  0.74366407  1
  O  O51  1  0.68228675  0.50863445  0.24450640  1
  O  O52  1  0.83037909  0.30208290  0.24090727  1
  O  O53  1  0.47402001  0.15797258  0.24323804  1
  O  O54  1  0.64352047  0.49741874  0.92437168  1
  O  O55  1  0.85393033  0.35802783  0.92504979  1
  O  O56  1  0.50548652  0.14423121  0.92394762  1
  O  O57  1  0.63820531  0.14733411  0.42442691  1
  O  O58  1  0.50658256  0.36513007  0.42458069  1
  O  O59  1  0.85350286  0.49526795  0.42445719  1
  O  O60  1  0.35580372  0.50481568  0.07718493  1
  O  O61  1  0.13913667  0.64494507  0.07714852  1
  O  O62  1  0.50399546  0.86438937  0.07781904  1
  O  O63  1  0.35537099  0.86230397  0.57698985  1
  O  O64  1  0.49629701  0.64583119  0.57717229  1
  O  O65  1  0.13622681  0.49516256  0.57751672  1
  O  O66  1  0.30680771  0.83438132  0.25450604  1
  O  O67  1  0.51857823  0.69102551  0.25503171  1
  O  O68  1  0.16512361  0.46842931  0.25481556  1
  O  O69  1  0.30650093  0.46979995  0.75561053  1
  O  O70  1  0.16481907  0.69513508  0.75511735  1
  O  O71  1  0.53070415  0.83705745  0.75515424  1
loop_
_geom_bond_atom_site_label_1
_geom_bond_atom_site_label_2
_geom_bond_distance
_geom_bond_site_symmetry_2
Na0 O52 2.337458 1_555
Na0 O67 2.416261 1_545
Na0 O53 2.444897 1_555
Na0 O66 2.535132 1_545
Na0 O16 2.652481 1_555
Na0 O31 2.736640 1_545
Na0 O2 2.796323 1_555
Na0 O9 2.831908 1_545
Na1 O51 2.380112 1_555
Na1 O53 2.403730 1_555
Na1 O68 2.430520 1_555
Na1 O67 2.523546 1_555
Na1 O17 2.550993 1_555
Na1 O32 2.783324 1_555
Na1 O0 2.811538 1_555
Na1 O10 2.857022 1_555
Na2 O37 2.294931 1_555
Na2 O36 2.387321 1_655
Na2 O58 2.415607 1_555
Na2 O59 2.512154 1_555
Na2 O1 2.597509 1_555
Na2 O22 2.788606 1_555
Na2 O32 2.870220 1_555
Na2 O27 2.873120 1_555
Na3 O38 2.429938 1_555
Na3 O36 2.454589 1_545
Na3 O37 2.480273 1_445
Na3 O43 2.730134 1_555
Na3 O42 2.740651 1_455
Na3 O44 2.751017 1_445
Na4 O47 2.566912 1_556
Na4 O39 2.612463 1_555
Na4 O40 2.612693 1_545
Na4 O41 2.613042 1_445
Na4 O46 2.635218 1_456
Na4 O45 2.638626 1_446
Na5 O49 2.507922 1_555
Na5 O50 2.525376 1_555
Na5 O48 2.542074 1_555
Na5 O56 2.650814 1_555
Na5 O54 2.657523 1_555
Na5 O55 2.659789 1_555
Na6 O51 2.474810 1_555
Na6 O52 2.575919 1_555
Na6 O59 2.589076 1_555
Na6 O57 2.609531 1_555
Na6 O53 2.616507 1_555
Na6 O58 2.665295 1_555
Na7 O60 2.522471 1_555
Na7 O61 2.539712 1_555
Na7 O62 2.585867 1_555
Na7 O67 2.588747 1_555
Na7 O66 2.591981 1_555
Na7 O68 2.604563 1_555
Na8 O64 2.520136 1_555
Na8 O65 2.588775 1_555
Na8 O63 2.602230 1_555
Na8 O71 2.608170 1_555
Na8 O69 2.612451 1_555
Na8 O70 2.614346 1_555
Nb0 O40 1.955418 1_545
Nb0 O39 1.956877 1_555
Nb0 O41 1.963065 1_445
Nb0 O3 2.022048 1_555
Nb0 O4 2.038990 1_445
Nb0 O5 2.041699 1_455
Nb1 O44 1.918440 1_555
Nb1 O6 2.003221 1_555
Nb1 O8 2.007588 1_655
Nb1 O43 2.018350 1_665
Nb1 O42 2.019428 1_565
Nb1 O7 2.043436 1_665
Nb2 O9 1.939439 1_555
Nb2 O47 1.976367 1_665
Nb2 O11 2.006437 1_655
Nb2 O10 2.026565 1_665
Nb2 O45 2.034730 1_555
Nb2 O46 2.035688 1_565
Nb3 O18 1.935896 1_556
Nb3 O56 1.954083 1_555
Nb3 O54 1.959306 1_555
Nb3 O55 1.992997 1_555
Nb3 O20 2.066416 1_556
Nb3 O19 2.075334 1_556
Nb4 O22 1.968066 1_555
Nb4 O57 1.972643 1_555
Nb4 O59 1.973472 1_555
Nb4 O58 1.994104 1_555
Nb4 O23 2.037915 1_555
Nb4 O21 2.044785 1_555
Nb5 O25 1.929036 1_554
Nb5 O24 1.933704 1_554
Nb5 O26 1.968480 1_554
Nb5 O60 1.975099 1_555
Nb5 O61 2.083787 1_555
Nb5 O62 2.104086 1_555
Nb6 O28 1.927060 1_555
Nb6 O27 1.934406 1_555
Nb6 O29 1.940626 1_555
Nb6 O64 1.986785 1_555
Nb6 O65 2.103897 1_555
Nb6 O63 2.112031 1_555
Nb7 O30 1.903942 1_555
Nb7 O31 1.922909 1_555
Nb7 O32 1.940705 1_555
Nb7 O67 2.059728 1_555
Nb7 O66 2.110346 1_555
Nb7 O68 2.131774 1_555
Nb8 O34 1.924061 1_555
Nb8 O33 1.924700 1_555
Nb8 O35 1.927349 1_555
Nb8 O70 2.080620 1_555
Nb8 O69 2.081598 1_555
Nb8 O71 2.092888 1_555
Ga0 O38 1.932889 1_665
Ga0 O1 1.936737 1_555
Ga0 O36 1.974581 1_655
Ga0 O37 1.991137 1_555
Ga0 O0 2.038987 1_665
Ga0 O2 2.078518 1_565
Ga1 O14 1.862763 1_555
Ga1 O13 1.974716 1_555
Ga1 O12 1.977902 1_555
Ga1 O49 2.067855 1_555
Ga1 O48 2.074912 1_555
Ga1 O50 2.083229 1_555
Ga2 O17 1.887375 1_555
Ga2 O15 1.921533 1_555
Ga2 O51 1.954835 1_555
Ga2 O16 2.044441 1_555
Ga2 O52 2.082148 1_555
Ga2 O53 2.188986 1_555
O0 P0 1.525013 1_555
O1 Si0 1.602808 1_555
O2 P1 1.524394 1_555
O3 P2 1.562500 1_555
O4 P3 1.556774 1_555
O5 P4 1.555648 1_555
O6 P4 1.567813 1_565
O7 P2 1.555673 1_555
O8 P3 1.567779 1_455
O9 Si0 1.670015 1_555
O10 P1 1.583030 1_455
O11 P0 1.570388 1_565
O12 P5 1.512151 1_555
O13 P6 1.513611 1_555
O14 Si1 1.583343 1_555
O15 P7 1.521120 1_555
O16 P8 1.531104 1_555
O17 Si2 1.601363 1_555
O18 Si2 1.644720 1_555
O19 P7 1.540218 1_555
O20 P8 1.544387 1_555
O21 P6 1.556053 1_555
O22 Si1 1.651872 1_555
O23 P5 1.557456 1_555
O24 Si3 1.630501 1_555
O25 Si4 1.634295 1_555
O26 Si5 1.620613 1_555
O27 Si6 1.648863 1_555
O28 Si7 1.647127 1_555
O29 Si8 1.629482 1_555
O30 Si8 1.659743 1_555
O31 Si6 1.673737 1_555
O32 Si7 1.677097 1_555
O33 Si4 1.639251 1_555
O34 Si5 1.639061 1_555
O35 Si3 1.634313 1_555
O36 Si8 1.588046 1_555
O37 Si6 1.587964 1_555
O38 Si7 1.574786 1_555
O39 Si4 1.631151 1_555
O40 Si5 1.630420 1_555
O41 Si3 1.625648 1_555
O42 P5 1.578694 1_555
O43 P6 1.579882 1_555
O44 Si1 1.677098 1_555
O45 P7 1.573425 1_555
O46 P8 1.575109 1_555
O47 Si2 1.655197 1_555
O48 P4 1.522468 1_555
O49 P2 1.522118 1_555
O50 P3 1.519586 1_555
O51 Si0 1.622613 1_555
O52 P1 1.534230 1_555
O53 P0 1.545377 1_555
O54 Si3 1.623015 1_555
O55 Si4 1.611813 1_655
O56 Si5 1.627512 1_545
O57 Si6 1.619354 1_545
O58 Si7 1.648571 1_555
O59 Si8 1.652302 1_655
O60 Si2 1.648884 1_555
O61 P7 1.551124 1_455
O62 P8 1.551977 1_565
O63 P6 1.547682 1_565
O64 Si1 1.643368 1_555
O65 P5 1.547029 1_455
O66 P0 1.567834 1_565
O67 Si0 1.692932 1_555
O68 P1 1.568912 1_455
O69 P2 1.563721 1_555
O70 P3 1.561392 1_455
O71 P4 1.560162 1_565
