# generated using pymatgen
data_Na6Ge2S7
_symmetry_space_group_name_H-M   'P 1'
_cell_length_a   6.91015025
_cell_length_b   6.91015025
_cell_length_c   15.03189527
_cell_angle_alpha   80.20878698
_cell_angle_beta   80.20878698
_cell_angle_gamma   98.01117561
_symmetry_Int_Tables_number   1
_chemical_formula_structural   Na6Ge2S7
_chemical_formula_sum   'Na12 Ge4 S14'
_cell_volume   686.47143451
_cell_formula_units_Z   2
loop_
 _symmetry_equiv_pos_site_id
 _symmetry_equiv_pos_as_xyz
  1  'x, y, z'
loop_
 _atom_site_type_symbol
 _atom_site_label
 _atom_site_symmetry_multiplicity
 _atom_site_fract_x
 _atom_site_fract_y
 _atom_site_fract_z
 _atom_site_occupancy
  Na  Na0  1  0.97017205  0.26184839  0.42602722  1
  Na  Na1  1  0.73815161  0.02982795  0.07397278  1
  Na  Na2  1  0.02982795  0.73815161  0.57397278  1
  Na  Na3  1  0.26184839  0.97017205  0.92602722  1
  Na  Na4  1  0.50822020  0.95171346  0.63746088  1
  Na  Na5  1  0.04828654  0.49177980  0.86253912  1
  Na  Na6  1  0.42189694  0.57810306  0.25000000  1
  Na  Na7  1  0.57810306  0.42189694  0.75000000  1
  Na  Na8  1  0.50000000  0.50000000  0.00000000  1
  Na  Na9  1  0.50000000  0.50000000  0.50000000  1
  Na  Na10  1  0.49177980  0.04828654  0.36253912  1
  Na  Na11  1  0.95171346  0.50822020  0.13746088  1
  Ge  Ge0  1  0.23870839  0.07548016  0.13877945  1
  Ge  Ge1  1  0.92451984  0.76129161  0.36122055  1
  Ge  Ge2  1  0.76129161  0.92451984  0.86122055  1
  Ge  Ge3  1  0.07548016  0.23870839  0.63877945  1
  S  S0  1  0.79399494  0.31044353  0.60502065  1
  S  S1  1  0.20600506  0.68955647  0.39497935  1
  S  S2  1  0.86627314  0.73986275  0.97290704  1
  S  S3  1  0.26013725  0.13372686  0.52709296  1
  S  S4  1  0.13372686  0.26013725  0.02709296  1
  S  S5  1  0.73986275  0.86627314  0.47290704  1
  S  S6  1  0.75626300  0.50646469  0.32092133  1
  S  S7  1  0.49353531  0.24373700  0.17907867  1
  S  S8  1  0.24373700  0.49353531  0.67907867  1
  S  S9  1  0.50646469  0.75626300  0.82092133  1
  S  S10  1  0.96156399  0.03843601  0.25000000  1
  S  S11  1  0.03843601  0.96156399  0.75000000  1
  S  S12  1  0.31044353  0.79399494  0.10502065  1
  S  S13  1  0.68955647  0.20600506  0.89497935  1
loop_
_geom_bond_atom_site_label_1
_geom_bond_atom_site_label_2
_geom_bond_distance
_geom_bond_site_symmetry_2
Na0 S6 2.849695 1_555
Na0 S0 2.853314 1_555
Na0 S3 2.859891 1_655
Na0 S5 2.872657 1_545
Na0 S1 3.088423 1_655
Na0 S10 3.287192 1_555
Na1 S7 2.849695 1_555
Na1 S13 2.853314 1_554
Na1 S2 2.859891 1_544
Na1 S4 2.872657 1_655
Na1 S12 3.088423 1_545
Na1 S10 3.287192 1_555
Na2 S8 2.849695 1_555
Na2 S1 2.853314 1_555
Na2 S5 2.859891 1_455
Na2 S3 2.872657 1_565
Na2 S0 3.088423 1_455
Na2 S11 3.287192 1_555
Na3 S9 2.849695 1_555
Na3 S12 2.853314 1_556
Na3 S4 2.859891 1_566
Na3 S2 2.872657 1_455
Na3 S13 3.088423 1_565
Na3 S11 3.287192 1_555
Na4 S3 2.851616 1_565
Na4 S9 2.854248 1_555
Na4 S0 2.859924 1_565
Na4 S5 2.905636 1_555
Na4 S8 3.328698 1_555
Na5 S2 2.851616 1_455
Na5 S8 2.854248 1_555
Na5 S13 2.859924 1_455
Na5 S4 2.905636 1_556
Na5 S9 3.328698 1_555
Na6 S1 2.711731 1_555
Na6 S12 2.711731 1_555
Na6 S6 2.774379 1_555
Na6 S7 2.774379 1_555
Na7 S0 2.711731 1_555
Na7 S13 2.711731 1_555
Na7 S9 2.774379 1_555
Na7 S8 2.774379 1_555
Na8 S4 2.751293 1_555
Na8 S2 2.751293 1_554
Na8 S9 2.949548 1_554
Na8 S7 2.949548 1_555
Na8 S13 3.076413 1_554
Na8 S12 3.076413 1_555
Na9 S3 2.751293 1_555
Na9 S5 2.751293 1_555
Na9 S6 2.949548 1_555
Na9 S8 2.949548 1_555
Na9 S1 3.076413 1_555
Na9 S0 3.076413 1_555
Na10 S5 2.851616 1_545
Na10 S7 2.854248 1_555
Na10 S1 2.859924 1_545
Na10 S3 2.905636 1_555
Na10 S6 3.328698 1_555
Na11 S4 2.851616 1_655
Na11 S6 2.854248 1_555
Na11 S12 2.859924 1_655
Na11 S2 2.905636 1_554
Na11 S7 3.328698 1_555
Ge0 S12 2.192163 1_545
Ge0 S7 2.202548 1_555
Ge0 S4 2.217354 1_555
Ge0 S10 2.270923 1_455
Ge1 S1 2.192163 1_655
Ge1 S6 2.202548 1_555
Ge1 S5 2.217354 1_555
Ge1 S10 2.270923 1_565
Ge2 S13 2.192163 1_565
Ge2 S9 2.202548 1_555
Ge2 S2 2.217354 1_555
Ge2 S11 2.270923 1_655
Ge3 S0 2.192163 1_455
Ge3 S8 2.202548 1_555
Ge3 S3 2.217354 1_555
Ge3 S11 2.270923 1_545
