# generated using pymatgen
data_MgMn3V2O10
_symmetry_space_group_name_H-M   'P 1'
_cell_length_a   5.27717467
_cell_length_b   5.43598929
_cell_length_c   7.52218767
_cell_angle_alpha   108.28241431
_cell_angle_beta   100.22927451
_cell_angle_gamma   102.85240727
_symmetry_Int_Tables_number   1
_chemical_formula_structural   MgMn3V2O10
_chemical_formula_sum   'Mg1 Mn3 V2 O10'
_cell_volume   192.49684577
_cell_formula_units_Z   1
loop_
 _symmetry_equiv_pos_site_id
 _symmetry_equiv_pos_as_xyz
  1  'x, y, z'
loop_
 _atom_site_type_symbol
 _atom_site_label
 _atom_site_symmetry_multiplicity
 _atom_site_fract_x
 _atom_site_fract_y
 _atom_site_fract_z
 _atom_site_occupancy
  Mg  Mg0  1  0.41457600  0.25900100  0.72571300  1
  Mn  Mn0  1  0.99564500  0.51925800  0.01690700  1
  Mn  Mn1  1  0.69448100  0.90264800  0.89791300  1
  Mn  Mn2  1  0.30279000  0.11825100  0.10197700  1
  V  V0  1  0.09032500  0.71570900  0.68166000  1
  V  V1  1  0.89884600  0.26276400  0.32757400  1
  O  O0  1  0.09227500  0.08522400  0.84320300  1
  O  O1  1  0.29847100  0.72866700  0.95135000  1
  O  O2  1  0.11338600  0.31888400  0.55451200  1
  O  O3  1  0.19461200  0.43216800  0.21813800  1
  O  O4  1  0.44527700  0.88667500  0.67464600  1
  O  O5  1  0.56845800  0.14201300  0.33251100  1
  O  O6  1  0.76765100  0.55688700  0.78804600  1
  O  O7  1  0.90645000  0.63641400  0.44238300  1
  O  O8  1  0.67725700  0.26992300  0.03358100  1
  O  O9  1  0.92699800  0.93932600  0.15155200  1
loop_
_geom_bond_atom_site_label_1
_geom_bond_atom_site_label_2
_geom_bond_distance
_geom_bond_site_symmetry_2
Mg0 O4 1.987566 1_545
Mg0 O2 2.014174 1_555
Mg0 O6 2.045661 1_555
Mg0 O0 2.215667 1_555
Mg0 O8 2.454618 1_556
Mn0 O3 1.929798 1_655
Mn0 O8 1.960665 1_555
Mn0 O1 1.978790 1_654
Mn0 O6 2.011935 1_554
Mn0 O9 2.327799 1_555
Mn0 O0 2.524245 1_654
Mn1 O4 1.905475 1_555
Mn1 O6 1.956136 1_555
Mn1 O8 1.967514 1_566
Mn1 O9 2.001630 1_556
Mn1 O1 2.254094 1_555
Mn1 O0 2.279772 1_665
Mn2 O3 1.917400 1_555
Mn2 O5 1.976055 1_555
Mn2 O0 1.994839 1_554
Mn2 O1 2.057465 1_544
Mn2 O9 2.156378 1_445
Mn2 O8 2.179899 1_555
O0 V0 1.991599 1_545
O1 V0 2.100340 1_555
O2 V1 1.766953 1_455
O2 V0 2.108675 1_555
O3 V1 2.062601 1_455
O4 V0 1.914831 1_555
O5 V1 1.732408 1_555
O6 V0 2.132786 1_655
O7 V0 1.753226 1_655
O7 V1 1.929747 1_555
O8 V1 2.327076 1_555
O9 V1 1.895259 1_565
