# generated using pymatgen
data_GdCo3B2
_symmetry_space_group_name_H-M   'P 1'
_cell_length_a   10.11889478
_cell_length_b   10.11893942
_cell_length_c   5.86512478
_cell_angle_alpha   90.00000000
_cell_angle_beta   90.00000000
_cell_angle_gamma   119.99984995
_symmetry_Int_Tables_number   1
_chemical_formula_structural   GdCo3B2
_chemical_formula_sum   'Gd8 Co24 B16'
_cell_volume   520.08774501
_cell_formula_units_Z   8
loop_
 _symmetry_equiv_pos_site_id
 _symmetry_equiv_pos_as_xyz
  1  'x, y, z'
loop_
 _atom_site_type_symbol
 _atom_site_label
 _atom_site_symmetry_multiplicity
 _atom_site_fract_x
 _atom_site_fract_y
 _atom_site_fract_z
 _atom_site_occupancy
  Gd  Gd0_0  1  0.00000000  0.00000000  0.00000000  1
  Gd  Gd0_1  1  0.00000000  0.00000000  0.50000000  1
  Gd  Gd0_2  1  0.00000000  0.50000000  0.00000000  1
  Gd  Gd0_3  1  0.00000000  0.50000000  0.50000000  1
  Gd  Gd0_4  1  0.50000000  0.00000000  0.00000000  1
  Gd  Gd0_5  1  0.50000000  0.00000000  0.50000000  1
  Gd  Gd0_6  1  0.50000000  0.50000000  0.00000000  1
  Gd  Gd0_7  1  0.50000000  0.50000000  0.50000000  1
  Co  Co0_0  1  0.25000000  0.00000000  0.25000000  1
  Co  Co0_1  1  0.25000000  0.00000000  0.75000000  1
  Co  Co0_2  1  0.25000000  0.50000000  0.25000000  1
  Co  Co0_3  1  0.25000000  0.50000000  0.75000000  1
  Co  Co0_4  1  0.75000000  0.00000000  0.25000000  1
  Co  Co0_5  1  0.75000000  0.00000000  0.75000000  1
  Co  Co0_6  1  0.75000000  0.50000000  0.25000000  1
  Co  Co0_7  1  0.75000000  0.50000000  0.75000000  1
  Co  Co1_0  1  0.25000000  0.25000000  0.25000000  1
  Co  Co1_1  1  0.25000000  0.25000000  0.75000000  1
  Co  Co1_2  1  0.25000000  0.75000000  0.25000000  1
  Co  Co1_3  1  0.25000000  0.75000000  0.75000000  1
  Co  Co1_4  1  0.75000000  0.25000000  0.25000000  1
  Co  Co1_5  1  0.75000000  0.25000000  0.75000000  1
  Co  Co1_6  1  0.75000000  0.75000000  0.25000000  1
  Co  Co1_7  1  0.75000000  0.75000000  0.75000000  1
  Co  Co2_0  1  0.00000000  0.25000000  0.25000000  1
  Co  Co2_1  1  0.00000000  0.25000000  0.75000000  1
  Co  Co2_2  1  0.00000000  0.75000000  0.25000000  1
  Co  Co2_3  1  0.00000000  0.75000000  0.75000000  1
  Co  Co2_4  1  0.50000000  0.25000000  0.25000000  1
  Co  Co2_5  1  0.50000000  0.25000000  0.75000000  1
  Co  Co2_6  1  0.50000000  0.75000000  0.25000000  1
  Co  Co2_7  1  0.50000000  0.75000000  0.75000000  1
  B  B0_0  1  0.16666434  0.33333275  0.00000000  1
  B  B0_1  1  0.16666434  0.33333275  0.50000000  1
  B  B0_2  1  0.16666434  0.83333275  0.00000000  1
  B  B0_3  1  0.16666434  0.83333275  0.50000000  1
  B  B0_4  1  0.66666434  0.33333275  0.00000000  1
  B  B0_5  1  0.66666434  0.33333275  0.50000000  1
  B  B0_6  1  0.66666434  0.83333274  0.00000000  1
  B  B0_7  1  0.66666434  0.83333274  0.50000000  1
  B  B1_0  1  0.33333566  0.16666725  0.00000000  1
  B  B1_1  1  0.33333566  0.16666725  0.50000000  1
  B  B1_2  1  0.33333566  0.66666726  0.00000000  1
  B  B1_3  1  0.33333566  0.66666726  0.50000000  1
  B  B1_4  1  0.83333566  0.16666725  0.00000000  1
  B  B1_5  1  0.83333566  0.16666725  0.50000000  1
  B  B1_6  1  0.83333566  0.66666726  0.00000000  1
  B  B1_7  1  0.83333566  0.66666726  0.50000000  1
loop_
_geom_bond_atom_site_label_1
_geom_bond_atom_site_label_2
_geom_bond_distance
_geom_bond_site_symmetry_2
Gd0_0 Gd0_1 2.932562 1_555
Gd0_0 Gd0_1 2.932562 1_554
Gd0_2 Gd0_3 2.932562 1_555
Gd0_2 Gd0_3 2.932562 1_554
Gd0_4 Gd0_5 2.932562 1_555
Gd0_4 Gd0_5 2.932562 1_554
Gd0_6 Gd0_7 2.932562 1_555
Gd0_6 Gd0_7 2.932562 1_554
Co0_0 Gd0_0 2.923950 1_555
Co0_0 Gd0_4 2.923950 1_555
Co0_0 Gd0_1 2.923950 1_555
Co0_0 Gd0_5 2.923950 1_555
Co0_1 Gd0_1 2.923950 1_555
Co0_1 Gd0_5 2.923950 1_555
Co0_1 Gd0_0 2.923950 1_556
Co0_1 Gd0_4 2.923950 1_556
Co0_2 Gd0_3 2.923950 1_555
Co0_2 Gd0_7 2.923950 1_555
Co0_2 Gd0_2 2.923950 1_555
Co0_2 Gd0_6 2.923950 1_555
Co0_3 Gd0_6 2.923950 1_556
Co0_3 Gd0_3 2.923950 1_555
Co0_3 Gd0_7 2.923950 1_555
Co0_3 Gd0_2 2.923950 1_556
Co0_4 Gd0_4 2.923950 1_555
Co0_4 Gd0_0 2.923950 1_655
Co0_4 Gd0_1 2.923950 1_655
Co0_4 Gd0_5 2.923950 1_555
Co0_5 Gd0_0 2.923950 1_656
Co0_5 Gd0_1 2.923950 1_655
Co0_5 Gd0_5 2.923950 1_555
Co0_5 Gd0_4 2.923950 1_556
Co0_6 Gd0_6 2.923950 1_555
Co0_6 Gd0_7 2.923950 1_555
Co0_6 Gd0_2 2.923950 1_655
Co0_6 Gd0_3 2.923950 1_655
Co0_7 Gd0_7 2.923950 1_555
Co0_7 Gd0_6 2.923950 1_556
Co0_7 Gd0_3 2.923950 1_655
Co0_7 Gd0_2 2.923950 1_656
Co1_0 Gd0_1 2.923960 1_555
Co1_0 Gd0_0 2.923960 1_555
Co1_0 Gd0_6 2.923960 1_555
Co1_0 Gd0_7 2.923960 1_555
Co1_1 Gd0_1 2.923960 1_555
Co1_1 Gd0_7 2.923960 1_555
Co1_1 Gd0_6 2.923960 1_556
Co1_1 Gd0_0 2.923960 1_556
Co1_2 Gd0_2 2.923960 1_555
Co1_2 Gd0_4 2.923960 1_565
Co1_2 Gd0_5 2.923960 1_565
Co1_2 Gd0_3 2.923960 1_555
Co1_3 Gd0_4 2.923960 1_566
Co1_3 Gd0_5 2.923960 1_565
Co1_3 Gd0_3 2.923960 1_555
Co1_3 Gd0_2 2.923960 1_556
Co1_4 Gd0_3 2.923960 1_655
Co1_4 Gd0_5 2.923960 1_555
Co1_4 Gd0_2 2.923960 1_655
Co1_4 Gd0_4 2.923960 1_555
Co1_5 Gd0_3 2.923960 1_655
Co1_5 Gd0_5 2.923960 1_555
Co1_5 Gd0_2 2.923960 1_656
Co1_5 Gd0_4 2.923960 1_556
Co1_6 Gd0_0 2.923960 1_665
Co1_6 Gd0_1 2.923960 1_665
Co1_6 Gd0_6 2.923960 1_555
Co1_6 Gd0_7 2.923960 1_555
Co1_7 Gd0_1 2.923960 1_665
Co1_7 Gd0_7 2.923960 1_555
Co1_7 Gd0_0 2.923960 1_666
Co1_7 Gd0_6 2.923960 1_556
Co2_0 Gd0_2 2.923959 1_555
Co2_0 Gd0_0 2.923959 1_555
Co2_0 Gd0_1 2.923959 1_555
Co2_0 Gd0_3 2.923959 1_555
Co2_1 Gd0_1 2.923959 1_555
Co2_1 Gd0_3 2.923959 1_555
Co2_1 Gd0_0 2.923959 1_556
Co2_1 Gd0_2 2.923959 1_556
Co2_2 Gd0_0 2.923959 1_565
Co2_2 Gd0_1 2.923959 1_565
Co2_2 Gd0_3 2.923959 1_555
Co2_2 Gd0_2 2.923959 1_555
Co2_3 Gd0_1 2.923959 1_565
Co2_3 Gd0_0 2.923959 1_566
Co2_3 Gd0_3 2.923959 1_555
Co2_3 Gd0_2 2.923959 1_556
Co2_4 Gd0_6 2.923959 1_555
Co2_4 Gd0_4 2.923959 1_555
Co2_4 Gd0_7 2.923959 1_555
Co2_4 Gd0_5 2.923959 1_555
Co2_5 Gd0_7 2.923959 1_555
Co2_5 Gd0_5 2.923959 1_555
Co2_5 Gd0_4 2.923959 1_556
Co2_5 Gd0_6 2.923959 1_556
Co2_6 Gd0_6 2.923959 1_555
Co2_6 Gd0_7 2.923959 1_555
Co2_6 Gd0_5 2.923959 1_565
Co2_6 Gd0_4 2.923959 1_565
Co2_7 Gd0_7 2.923959 1_555
Co2_7 Gd0_5 2.923959 1_565
Co2_7 Gd0_4 2.923959 1_566
Co2_7 Gd0_6 2.923959 1_556
B0_0 Co2_0 2.069564 1_555
B0_0 Co2_1 2.069564 1_554
B0_0 Co0_2 2.069586 1_555
B0_0 Co0_3 2.069586 1_554
B0_0 Co1_0 2.069589 1_555
B0_0 Co1_1 2.069589 1_554
B0_0 Gd0_2 2.921062 1_555
B0_0 Gd0_0 2.921085 1_555
B0_0 Gd0_6 2.921098 1_555
B0_1 Co2_1 2.069564 1_555
B0_1 Co2_0 2.069564 1_555
B0_1 Co0_3 2.069586 1_555
B0_1 Co0_2 2.069586 1_555
B0_1 Co1_0 2.069589 1_555
B0_1 Co1_1 2.069589 1_555
B0_1 Gd0_3 2.921062 1_555
B0_1 Gd0_1 2.921085 1_555
B0_1 Gd0_7 2.921098 1_555
B0_2 Co2_2 2.069564 1_555
B0_2 Co2_3 2.069564 1_554
B0_2 Co0_0 2.069586 1_565
B0_2 Co0_1 2.069586 1_564
B0_2 Co1_2 2.069589 1_555
B0_2 Co1_3 2.069589 1_554
B0_2 Gd0_0 2.921062 1_565
B0_2 Gd0_2 2.921085 1_555
B0_2 Gd0_4 2.921098 1_565
B0_3 Co2_3 2.069564 1_555
B0_3 Co2_2 2.069564 1_555
B0_3 Co0_1 2.069586 1_565
B0_3 Co0_0 2.069586 1_565
B0_3 Co1_3 2.069589 1_555
B0_3 Co1_2 2.069589 1_555
B0_3 Gd0_1 2.921062 1_565
B0_3 Gd0_3 2.921085 1_555
B0_3 Gd0_5 2.921098 1_565
B0_4 Co2_4 2.069564 1_555
B0_4 Co2_5 2.069564 1_554
B0_4 Co0_6 2.069586 1_555
B0_4 Co0_7 2.069586 1_554
B0_4 Co1_4 2.069589 1_555
B0_4 Co1_5 2.069589 1_554
B0_4 Gd0_6 2.921062 1_555
B0_4 Gd0_4 2.921085 1_555
B0_4 Gd0_2 2.921098 1_655
B0_5 Co2_4 2.069564 1_555
B0_5 Co2_5 2.069564 1_555
B0_5 Co0_6 2.069586 1_555
B0_5 Co0_7 2.069586 1_555
B0_5 Co1_4 2.069589 1_555
B0_5 Co1_5 2.069589 1_555
B0_5 Gd0_7 2.921062 1_555
B0_5 Gd0_5 2.921085 1_555
B0_5 Gd0_3 2.921098 1_655
B0_6 Co2_6 2.069564 1_555
B0_6 Co2_7 2.069564 1_554
B0_6 Co0_4 2.069586 1_565
B0_6 Co0_5 2.069586 1_564
B0_6 Co1_6 2.069589 1_555
B0_6 Co1_7 2.069589 1_554
B0_6 Gd0_4 2.921062 1_565
B0_6 Gd0_6 2.921085 1_555
B0_6 Gd0_0 2.921098 1_665
B0_7 Co2_6 2.069564 1_555
B0_7 Co2_7 2.069564 1_555
B0_7 Co0_4 2.069586 1_565
B0_7 Co0_5 2.069586 1_565
B0_7 Co1_7 2.069589 1_555
B0_7 Co1_6 2.069589 1_555
B0_7 Gd0_5 2.921062 1_565
B0_7 Gd0_7 2.921085 1_555
B0_7 Gd0_1 2.921098 1_665
B1_0 Co2_4 2.069564 1_555
B1_0 Co2_5 2.069564 1_554
B1_0 Co0_0 2.069586 1_555
B1_0 Co0_1 2.069586 1_554
B1_0 Co1_0 2.069589 1_555
B1_0 Co1_1 2.069589 1_554
B1_0 Gd0_4 2.921062 1_555
B1_0 Gd0_6 2.921085 1_555
B1_0 Gd0_0 2.921098 1_555
B1_1 Co2_4 2.069564 1_555
B1_1 Co2_5 2.069564 1_555
B1_1 Co0_0 2.069586 1_555
B1_1 Co0_1 2.069586 1_555
B1_1 Co1_1 2.069589 1_555
B1_1 Co1_0 2.069589 1_555
B1_1 Gd0_5 2.921062 1_555
B1_1 Gd0_7 2.921085 1_555
B1_1 Gd0_1 2.921098 1_555
B1_2 Co2_6 2.069564 1_555
B1_2 Co2_7 2.069564 1_554
B1_2 Co0_2 2.069586 1_555
B1_2 Co0_3 2.069586 1_554
B1_2 Co1_2 2.069589 1_555
B1_2 Co1_3 2.069589 1_554
B1_2 Gd0_6 2.921062 1_555
B1_2 Gd0_4 2.921085 1_565
B1_2 Gd0_2 2.921098 1_555
B1_3 Co2_7 2.069564 1_555
B1_3 Co2_6 2.069564 1_555
B1_3 Co0_3 2.069586 1_555
B1_3 Co0_2 2.069586 1_555
B1_3 Co1_2 2.069589 1_555
B1_3 Co1_3 2.069589 1_555
B1_3 Gd0_7 2.921062 1_555
B1_3 Gd0_5 2.921085 1_565
B1_3 Gd0_3 2.921098 1_555
B1_4 Co2_0 2.069564 1_655
B1_4 Co2_1 2.069564 1_654
B1_4 Co0_4 2.069586 1_555
B1_4 Co0_5 2.069586 1_554
B1_4 Co1_4 2.069589 1_555
B1_4 Co1_5 2.069589 1_554
B1_4 Gd0_0 2.921062 1_655
B1_4 Gd0_2 2.921085 1_655
B1_4 Gd0_4 2.921098 1_555
B1_5 Co2_1 2.069564 1_655
B1_5 Co2_0 2.069564 1_655
B1_5 Co0_4 2.069586 1_555
B1_5 Co0_5 2.069586 1_555
B1_5 Co1_5 2.069589 1_555
B1_5 Co1_4 2.069589 1_555
B1_5 Gd0_1 2.921062 1_655
B1_5 Gd0_3 2.921085 1_655
B1_5 Gd0_5 2.921098 1_555
B1_6 Co2_2 2.069564 1_655
B1_6 Co2_3 2.069564 1_654
B1_6 Co0_6 2.069586 1_555
B1_6 Co0_7 2.069586 1_554
B1_6 Co1_6 2.069589 1_555
B1_6 Co1_7 2.069589 1_554
B1_6 Gd0_2 2.921062 1_655
B1_6 Gd0_0 2.921085 1_665
B1_6 Gd0_6 2.921098 1_555
B1_7 Co2_2 2.069564 1_655
B1_7 Co2_3 2.069564 1_655
B1_7 Co0_6 2.069586 1_555
B1_7 Co0_7 2.069586 1_555
B1_7 Co1_7 2.069589 1_555
B1_7 Co1_6 2.069589 1_555
B1_7 Gd0_3 2.921062 1_655
B1_7 Gd0_1 2.921085 1_665
B1_7 Gd0_7 2.921098 1_555
