# generated using pymatgen
data_CeTaO4
_symmetry_space_group_name_H-M   'P 1'
_cell_length_a   5.50809670
_cell_length_b   7.66445664
_cell_length_c   7.76211995
_cell_angle_alpha   79.61646875
_cell_angle_beta   90.00067908
_cell_angle_gamma   90.00117930
_symmetry_Int_Tables_number   1
_chemical_formula_structural   CeTaO4
_chemical_formula_sum   'Ce4 Ta4 O16'
_cell_volume   322.32359092
_cell_formula_units_Z   4
loop_
 _symmetry_equiv_pos_site_id
 _symmetry_equiv_pos_as_xyz
  1  'x, y, z'
loop_
 _atom_site_type_symbol
 _atom_site_label
 _atom_site_symmetry_multiplicity
 _atom_site_fract_x
 _atom_site_fract_y
 _atom_site_fract_z
 _atom_site_occupancy
  Ce  Ce0  1  0.27290058  0.34762939  0.39700961  1
  Ce  Ce1  1  0.72709942  0.65237061  0.60299039  1
  Ce  Ce2  1  0.22714312  0.34755543  0.89691422  1
  Ce  Ce3  1  0.77285688  0.65244457  0.10308578  1
  Ta  Ta0  1  0.23168297  0.83461773  0.80862304  1
  Ta  Ta1  1  0.26837440  0.83460444  0.30866155  1
  Ta  Ta2  1  0.73162560  0.16539556  0.69133845  1
  Ta  Ta3  1  0.76831703  0.16538227  0.19137696  1
  O  O0  1  0.15599490  0.83274524  0.05528373  1
  O  O1  1  0.99404983  0.33180105  0.63289064  1
  O  O2  1  0.48336844  0.61683272  0.33108514  1
  O  O3  1  0.49409361  0.66817321  0.86708666  1
  O  O4  1  0.41294719  0.05663937  0.79476420  1
  O  O5  1  0.50590639  0.33182679  0.13291334  1
  O  O6  1  0.65594705  0.16723342  0.44471895  1
  O  O7  1  0.58705281  0.94336063  0.20523580  1
  O  O8  1  0.98336665  0.38317184  0.16896020  1
  O  O9  1  0.91297776  0.94333698  0.70519091  1
  O  O10  1  0.34405295  0.83276658  0.55528105  1
  O  O11  1  0.01663335  0.61682816  0.83103980  1
  O  O12  1  0.08702224  0.05666302  0.29480909  1
  O  O13  1  0.51663156  0.38316728  0.66891486  1
  O  O14  1  0.00595017  0.66819895  0.36710936  1
  O  O15  1  0.84400510  0.16725476  0.94471627  1
loop_
_geom_bond_atom_site_label_1
_geom_bond_atom_site_label_2
_geom_bond_distance
_geom_bond_site_symmetry_2
Ce0 O2 2.341430 1_555
Ce0 O8 2.361585 1_455
Ce0 O1 2.376161 1_455
Ce0 O5 2.440017 1_555
Ce0 O6 2.513136 1_555
Ce0 O13 2.556969 1_555
Ce0 O12 2.699723 1_555
Ce0 O14 2.836776 1_555
Ce1 O13 2.341430 1_555
Ce1 O11 2.361585 1_655
Ce1 O14 2.376161 1_655
Ce1 O3 2.440017 1_555
Ce1 O10 2.513136 1_555
Ce1 O2 2.556969 1_555
Ce1 O9 2.699723 1_555
Ce1 O1 2.836776 1_555
Ce2 O11 2.342005 1_555
Ce2 O13 2.361143 1_555
Ce2 O5 2.376590 1_556
Ce2 O1 2.439689 1_455
Ce2 O15 2.513172 1_455
Ce2 O8 2.558209 1_456
Ce2 O4 2.699097 1_555
Ce2 O3 2.837084 1_555
Ce3 O8 2.342005 1_555
Ce3 O2 2.361143 1_555
Ce3 O3 2.376590 1_554
Ce3 O14 2.439689 1_655
Ce3 O0 2.513172 1_655
Ce3 O11 2.558209 1_654
Ce3 O7 2.699097 1_555
Ce3 O5 2.837084 1_555
O0 Ta0 1.957001 1_554
O0 Ta1 2.064349 1_555
O1 Ta2 1.926966 1_555
O2 Ta1 2.028275 1_555
O3 Ta0 1.927141 1_555
O4 Ta0 1.959097 1_545
O4 Ta2 2.044304 1_555
O5 Ta3 1.927141 1_555
O6 Ta2 1.956713 1_555
O6 Ta3 2.064071 1_555
O7 Ta3 1.959097 1_565
O7 Ta1 2.044304 1_555
O8 Ta3 2.028530 1_555
O9 Ta2 1.959626 1_565
O9 Ta0 2.044365 1_655
O10 Ta1 1.956713 1_555
O10 Ta0 2.064071 1_555
O11 Ta0 2.028530 1_555
O12 Ta1 1.959626 1_545
O12 Ta3 2.044365 1_455
O13 Ta2 2.028275 1_555
O14 Ta1 1.926966 1_555
O15 Ta3 1.957001 1_556
O15 Ta2 2.064349 1_555
