# generated using pymatgen
data_Na6Mg4Zr4Si3(S3O16)3
_symmetry_space_group_name_H-M   'P 1'
_cell_length_a   17.87842917
_cell_length_b   8.88744651
_cell_length_c   23.17811113
_cell_angle_alpha   90.02895652
_cell_angle_beta   90.15643744
_cell_angle_gamma   119.87668487
_symmetry_Int_Tables_number   1
_chemical_formula_structural   Na6Mg4Zr4Si3(S3O16)3
_chemical_formula_sum   'Na18 Mg12 Zr12 Si9 S27 O144'
_cell_volume   3193.38089905
_cell_formula_units_Z   3
loop_
 _symmetry_equiv_pos_site_id
 _symmetry_equiv_pos_as_xyz
  1  'x, y, z'
loop_
 _atom_site_type_symbol
 _atom_site_label
 _atom_site_symmetry_multiplicity
 _atom_site_fract_x
 _atom_site_fract_y
 _atom_site_fract_z
 _atom_site_occupancy
  Na  Na0  1  0.99981692  0.63516541  0.25147741  1
  Na  Na1  1  0.49760429  0.62672365  0.24412325  1
  Na  Na2  1  0.00338720  0.36839996  0.74433937  1
  Na  Na3  1  0.49936443  0.36552456  0.75118669  1
  Na  Na4  1  0.67303684  0.31646378  0.91193401  1
  Na  Na5  1  0.17162085  0.03222558  0.41512303  1
  Na  Na6  1  0.99389086  0.00866185  0.50172579  1
  Na  Na7  1  0.50353261  0.00855570  0.49943313  1
  Na  Na8  1  0.00194900  0.99500077  0.99294556  1
  Na  Na9  1  0.49362370  0.97921742  0.99635680  1
  Na  Na10  1  0.31446014  0.31325769  0.82977343  1
  Na  Na11  1  0.83512704  0.34972866  0.83558495  1
  Na  Na12  1  0.33171274  0.31757863  0.33802220  1
  Na  Na13  1  0.82316134  0.32942953  0.33725268  1
  Na  Na14  1  0.17342264  0.65698657  0.16496855  1
  Na  Na15  1  0.66551541  0.66363390  0.16518069  1
  Na  Na16  1  0.16441395  0.65540290  0.67267483  1
  Na  Na17  1  0.67547792  0.69205884  0.66750989  1
  Mg  Mg0  1  0.99565027  0.00061142  0.35038488  1
  Mg  Mg1  1  0.49519776  0.98994682  0.84896978  1
  Mg  Mg2  1  0.32317706  0.32760087  0.68677473  1
  Mg  Mg3  1  0.83460783  0.32565918  0.67966382  1
  Mg  Mg4  1  0.33281033  0.34066667  0.17870557  1
  Mg  Mg5  1  0.83018198  0.32903649  0.18276576  1
  Mg  Mg6  1  0.83868437  0.34392743  0.97915326  1
  Mg  Mg7  1  0.33701394  0.33125305  0.48149499  1
  Mg  Mg8  1  0.17375506  0.67304371  0.31920807  1
  Mg  Mg9  1  0.67272412  0.66455302  0.31836758  1
  Mg  Mg10  1  0.17065654  0.67382918  0.81349144  1
  Mg  Mg11  1  0.67681206  0.67757665  0.81768256  1
  Zr  Zr0  1  0.49948123  0.01313618  0.35977649  1
  Zr  Zr1  1  0.00743094  0.99531204  0.85617069  1
  Zr  Zr2  1  0.00384564  0.02166674  0.64855928  1
  Zr  Zr3  1  0.50358638  0.99732509  0.64662718  1
  Zr  Zr4  1  0.00416529  0.00980726  0.14536819  1
  Zr  Zr5  1  0.49906585  0.99108311  0.14459118  1
  Zr  Zr6  1  0.32554850  0.33574422  0.98212806  1
  Zr  Zr7  1  0.82578706  0.31727028  0.48440691  1
  Zr  Zr8  1  0.16550728  0.66459657  0.01615584  1
  Zr  Zr9  1  0.66843763  0.67311370  0.01700651  1
  Zr  Zr10  1  0.16854213  0.66418125  0.51970569  1
  Zr  Zr11  1  0.66637656  0.66276017  0.51893173  1
  Si  Si0  1  0.15358764  0.30895856  0.75299653  1
  Si  Si1  1  0.97915450  0.33703629  0.58563776  1
  Si  Si2  1  0.68771811  0.03805667  0.58745259  1
  Si  Si3  1  0.48049764  0.61613554  0.08676767  1
  Si  Si4  1  0.18880828  0.34135858  0.08735523  1
  Si  Si5  1  0.81299753  0.66118422  0.91498716  1
  Si  Si6  1  0.17158497  0.95787770  0.91371164  1
  Si  Si7  1  0.30929635  0.96401818  0.41564614  1
  Si  Si8  1  0.67316368  0.38317135  0.41379930  1
  S  S0  1  0.14736885  0.00034465  0.25228927  1
  S  S1  1  0.64902959  0.00150574  0.25042723  1
  S  S2  1  0.35182666  0.70414519  0.25083237  1
  S  S3  1  0.85324219  0.70706334  0.25001245  1
  S  S4  1  0.99934043  0.29511631  0.25165234  1
  S  S5  1  0.49940747  0.29659764  0.24964312  1
  S  S6  1  0.64724801  0.29437941  0.75247561  1
  S  S7  1  0.99704596  0.70104869  0.74893505  1
  S  S8  1  0.50150329  0.70528711  0.75188798  1
  S  S9  1  0.35551977  0.00138409  0.75007524  1
  S  S10  1  0.85060601  0.99874353  0.75112446  1
  S  S11  1  0.47562920  0.33353573  0.58542298  1
  S  S12  1  0.18989926  0.04646718  0.58238771  1
  S  S13  1  0.33425235  0.61696469  0.58317638  1
  S  S14  1  0.83394740  0.62321735  0.58510042  1
  S  S15  1  0.97626643  0.61794730  0.08570370  1
  S  S16  1  0.33278788  0.04410322  0.08525934  1
  S  S17  1  0.83315986  0.05009728  0.08407317  1
  S  S18  1  0.69030200  0.33382580  0.08379671  1
  S  S19  1  0.31531672  0.67474941  0.91365507  1
  S  S20  1  0.01771084  0.37459916  0.91478663  1
  S  S21  1  0.52029354  0.37177686  0.91315878  1
  S  S22  1  0.66520842  0.96095511  0.91445909  1
  S  S23  1  0.81433684  0.95620107  0.41336359  1
  S  S24  1  0.16544621  0.37063532  0.41443696  1
  S  S25  1  0.02066513  0.66896584  0.41273057  1
  S  S26  1  0.51941356  0.66090711  0.41394656  1
  O  O0  1  0.10518687  0.02167068  0.30410315  1
  O  O1  1  0.60658981  0.02522148  0.30141218  1
  O  O2  1  0.40977914  0.79477635  0.30074413  1
  O  O3  1  0.90916613  0.78890201  0.30097358  1
  O  O4  1  0.49082851  0.18877708  0.30119991  1
  O  O5  1  0.98738610  0.18671756  0.30201698  1
  O  O6  1  0.09778229  0.17664153  0.80608460  1
  O  O7  1  0.60516255  0.18882957  0.80432457  1
  O  O8  1  0.48907684  0.78973576  0.80220899  1
  O  O9  1  0.98544168  0.78525629  0.80115914  1
  O  O10  1  0.41125061  0.02991132  0.80108054  1
  O  O11  1  0.90574675  0.02085832  0.80171666  1
  O  O12  1  0.39915030  0.97794627  0.69794183  1
  O  O13  1  0.89153293  0.97212097  0.69803484  1
  O  O14  1  0.08783738  0.20693537  0.69568759  1
  O  O15  1  0.58887767  0.20182326  0.70070580  1
  O  O16  1  0.00703153  0.80856442  0.69728184  1
  O  O17  1  0.51289574  0.81429116  0.69897838  1
  O  O18  1  0.39549827  0.81421196  0.19827756  1
  O  O19  1  0.89673905  0.81443618  0.19773936  1
  O  O20  1  0.01070186  0.21022779  0.19877165  1
  O  O21  1  0.51092256  0.20986261  0.19833624  1
  O  O22  1  0.08886661  0.97582880  0.20062304  1
  O  O23  1  0.59192874  0.97410860  0.19848614  1
  O  O24  1  0.43822131  0.35670914  0.63875045  1
  O  O25  1  0.94403472  0.36619746  0.64545595  1
  O  O26  1  0.24253245  0.12641584  0.63329391  1
  O  O27  1  0.74184288  0.12314597  0.64367984  1
  O  O28  1  0.32462570  0.51714898  0.63495323  1
  O  O29  1  0.81955845  0.51876523  0.63628750  1
  O  O30  1  0.44475566  0.52185553  0.14764173  1
  O  O31  1  0.93860256  0.52054246  0.13937723  1
  O  O32  1  0.32124022  0.12131736  0.13703455  1
  O  O33  1  0.82274367  0.12957430  0.13639493  1
  O  O34  1  0.24171719  0.36195401  0.14412045  1
  O  O35  1  0.74141069  0.35512359  0.13549102  1
  O  O36  1  0.22704652  0.30310891  0.02807548  1
  O  O37  1  0.72554885  0.30311917  0.03099918  1
  O  O38  1  0.42149933  0.53205639  0.02913045  1
  O  O39  1  0.92457373  0.53770800  0.03452677  1
  O  O40  1  0.34719610  0.14676610  0.03237482  1
  O  O41  1  0.84529409  0.15109969  0.03186892  1
  O  O42  1  0.22604864  0.14669400  0.52914087  1
  O  O43  1  0.72520372  0.14993698  0.52741373  1
  O  O44  1  0.34627277  0.54163529  0.53032095  1
  O  O45  1  0.84467140  0.54411966  0.53156806  1
  O  O46  1  0.42524958  0.31135619  0.53372710  1
  O  O47  1  0.92131776  0.31231222  0.52748922  1
  O  O48  1  0.27440679  0.69331301  0.96796733  1
  O  O49  1  0.76510914  0.68897738  0.97363623  1
  O  O50  1  0.07371819  0.45767849  0.96761759  1
  O  O51  1  0.57656768  0.45729121  0.96545272  1
  O  O52  1  0.15802010  0.84584487  0.97413173  1
  O  O53  1  0.65014472  0.85187176  0.96780790  1
  O  O54  1  0.26547387  0.84072413  0.47297324  1
  O  O55  1  0.77272581  0.85371108  0.46678404  1
  O  O56  1  0.15085713  0.45005239  0.46720067  1
  O  O57  1  0.65578429  0.46652241  0.47259183  1
  O  O58  1  0.07680130  0.69625446  0.46450095  1
  O  O59  1  0.57511285  0.69121355  0.46585789  1
  O  O60  1  0.05856286  0.64182020  0.36011506  1
  O  O61  1  0.55896270  0.64117756  0.36107201  1
  O  O62  1  0.24910919  0.87832719  0.36028522  1
  O  O63  1  0.76069552  0.87824722  0.36240807  1
  O  O64  1  0.17558370  0.47474170  0.36332812  1
  O  O65  1  0.68121679  0.48920801  0.35744856  1
  O  O66  1  0.05725994  0.47657855  0.86313431  1
  O  O67  1  0.55835864  0.47525181  0.86094558  1
  O  O68  1  0.18066134  0.86283429  0.85899944  1
  O  O69  1  0.67512187  0.87612762  0.86388607  1
  O  O70  1  0.26177791  0.64632705  0.86324553  1
  O  O71  1  0.74674480  0.61719946  0.86221368  1
  O  O72  1  0.01624025  0.83237772  0.40823284  1
  O  O73  1  0.51199317  0.82157514  0.40915887  1
  O  O74  1  0.40534628  0.97668612  0.41038594  1
  O  O75  1  0.90044599  0.97235245  0.40875272  1
  O  O76  1  0.08880039  0.19177162  0.40920216  1
  O  O77  1  0.58619611  0.18486994  0.41098690  1
  O  O78  1  0.00984235  0.20013677  0.91194380  1
  O  O79  1  0.51621351  0.19991516  0.90915290  1
  O  O80  1  0.08533362  0.98129445  0.91420707  1
  O  O81  1  0.58868263  0.98635822  0.90975449  1
  O  O82  1  0.40194168  0.83028643  0.90991409  1
  O  O83  1  0.90633054  0.83907013  0.91027519  1
  O  O84  1  0.48646509  0.17574840  0.59104539  1
  O  O85  1  0.98771524  0.15769771  0.58652576  1
  O  O86  1  0.10037357  0.01938490  0.58920174  1
  O  O87  1  0.58897678  0.01526701  0.59081514  1
  O  O88  1  0.41068822  0.79790101  0.58976236  1
  O  O89  1  0.91142391  0.79808260  0.58951650  1
  O  O90  1  0.49088691  0.81695594  0.09115253  1
  O  O91  1  0.98608244  0.79649137  0.09181517  1
  O  O92  1  0.41201892  0.02440077  0.09089160  1
  O  O93  1  0.90993092  0.02415862  0.09141999  1
  O  O94  1  0.08983894  0.16486822  0.09136717  1
  O  O95  1  0.60042527  0.17930825  0.09180347  1
  O  O96  1  0.35274338  0.16473994  0.74202905  1
  O  O97  1  0.84685598  0.16091599  0.74600069  1
  O  O98  1  0.24451096  0.31788828  0.74634779  1
  O  O99  1  0.73275760  0.31609801  0.74471843  1
  O  O100  1  0.42609732  0.53069538  0.74312654  1
  O  O101  1  0.91929827  0.52651844  0.74498127  1
  O  O102  1  0.34779590  0.53441379  0.24617347  1
  O  O103  1  0.84754078  0.53376004  0.24266478  1
  O  O104  1  0.42044440  0.30979161  0.24602683  1
  O  O105  1  0.92252555  0.31704909  0.24345924  1
  O  O106  1  0.23303799  0.14977806  0.24462728  1
  O  O107  1  0.73416469  0.15371570  0.24197668  1
  O  O108  1  0.32554827  0.51805735  0.92044916  1
  O  O109  1  0.81857754  0.48541379  0.92452284  1
  O  O110  1  0.43434762  0.35071553  0.92247511  1
  O  O111  1  0.93264671  0.35566877  0.92463526  1
  O  O112  1  0.25687382  0.15220102  0.92208848  1
  O  O113  1  0.74301598  0.13247403  0.92369878  1
  O  O114  1  0.31907642  0.15417684  0.42390272  1
  O  O115  1  0.82461810  0.13308799  0.41965070  1
  O  O116  1  0.24313676  0.35390037  0.42286338  1
  O  O117  1  0.75744067  0.35855143  0.42079106  1
  O  O118  1  0.43368589  0.51120973  0.42286943  1
  O  O119  1  0.93417932  0.51738634  0.42093323  1
  O  O120  1  0.17362649  0.50673396  0.07766949  1
  O  O121  1  0.67877400  0.48866044  0.07871572  1
  O  O122  1  0.06490455  0.64247205  0.08007600  1
  O  O123  1  0.57892561  0.65125370  0.07727591  1
  O  O124  1  0.25767561  0.86615040  0.07842591  1
  O  O125  1  0.75553731  0.87231052  0.07920310  1
  O  O126  1  0.17915909  0.86804022  0.57660298  1
  O  O127  1  0.67280476  0.84223054  0.57599793  1
  O  O128  1  0.25630264  0.63872381  0.57810069  1
  O  O129  1  0.75653653  0.64698816  0.57753623  1
  O  O130  1  0.07701887  0.50238251  0.57446391  1
  O  O131  1  0.56487126  0.48750921  0.57926916  1
  O  O132  1  0.14795439  0.83291487  0.25408353  1
  O  O133  1  0.65285847  0.83877251  0.25558337  1
  O  O134  1  0.26668189  0.68753151  0.25547672  1
  O  O135  1  0.76795041  0.69202594  0.25443861  1
  O  O136  1  0.07681562  0.47065179  0.25643906  1
  O  O137  1  0.57573881  0.47292821  0.25462925  1
  O  O138  1  0.15092368  0.48820179  0.75636458  1
  O  O139  1  0.64759133  0.46261128  0.75423097  1
  O  O140  1  0.07460971  0.68411123  0.75444293  1
  O  O141  1  0.57972381  0.68770475  0.75683015  1
  O  O142  1  0.27016362  0.84862634  0.75422684  1
  O  O143  1  0.76396162  0.84494085  0.75547693  1
loop_
_geom_bond_atom_site_label_1
_geom_bond_atom_site_label_2
_geom_bond_distance
_geom_bond_site_symmetry_2
Na0 O132 2.338486 1_655
Na0 O103 2.412070 1_555
Na0 O105 2.458284 1_555
Na0 O136 2.459798 1_655
Na0 O60 2.714870 1_655
Na0 O31 2.803138 1_555
Na0 O3 2.832725 1_555
Na0 O22 2.881355 1_655
Na1 O102 2.379167 1_555
Na1 O137 2.404101 1_555
Na1 O30 2.423071 1_555
Na1 O104 2.442980 1_555
Na1 O133 2.471974 1_555
Na1 O23 2.884544 1_555
Na1 O61 2.900093 1_555
Na1 O2 2.960430 1_555
Na2 O138 2.316593 1_555
Na2 O140 2.446903 1_555
Na2 O97 2.468404 1_455
Na2 O101 2.517940 1_455
Na2 O25 2.518989 1_455
Na2 O14 2.788668 1_555
Na2 O66 2.914405 1_555
Na2 O11 3.000233 1_455
Na3 O96 2.331775 1_555
Na3 O139 2.343750 1_555
Na3 O100 2.412518 1_555
Na3 O141 2.486000 1_555
Na3 O67 2.737429 1_555
Na3 O24 2.809192 1_555
Na3 O10 2.836891 1_555
Na3 O15 2.893961 1_555
Na4 O109 2.283262 1_555
Na4 O79 2.458396 1_555
Na4 O113 2.519982 1_555
Na4 O81 2.544711 1_545
Na4 O71 2.590512 1_555
Na4 O7 2.754899 1_555
Na4 O51 2.870645 1_555
Na4 O37 2.934035 1_556
Na5 O114 2.305704 1_555
Na5 O72 2.445177 1_545
Na5 O116 2.489306 1_555
Na5 O76 2.512515 1_555
Na5 O62 2.702075 1_545
Na5 O0 2.813023 1_555
Na5 O42 2.821843 1_555
Na5 O58 2.840863 1_545
Na6 O85 2.402930 1_555
Na6 O75 2.642253 1_545
Na6 O89 2.662341 1_545
Na6 O76 2.720090 1_655
Na6 O86 2.746300 1_655
Na6 O72 2.816927 1_645
Na7 O77 2.560228 1_555
Na7 O87 2.591285 1_555
Na7 O74 2.627901 1_545
Na7 O84 2.694801 1_555
Na7 O73 2.722336 1_545
Na7 O88 2.751484 1_545
Na8 O80 2.400728 1_555
Na8 O83 2.476635 1_455
Na8 O78 2.572393 1_565
Na8 O94 2.750603 1_566
Na8 O91 2.820202 1_456
Na8 O93 2.903077 1_466
Na9 O82 2.504184 1_555
Na9 O81 2.613965 1_555
Na9 O90 2.615939 1_556
Na9 O79 2.704616 1_565
Na9 O92 2.773296 1_566
Na9 O95 2.879676 1_566
Na10 O98 2.311449 1_555
Na10 O112 2.496806 1_555
Na10 O96 2.692916 1_555
Na10 O108 2.720978 1_555
Na10 O100 2.816831 1_555
Na10 O110 2.930005 1_555
Na11 O109 2.479402 1_555
Na11 O101 2.609280 1_555
Na11 O111 2.681657 1_555
Na11 O99 2.703336 1_555
Na11 O113 2.732332 1_555
Na11 O97 2.742390 1_555
Na12 O114 2.408484 1_555
Na12 O118 2.646516 1_555
Na12 O116 2.646621 1_555
Na12 O104 2.682483 1_555
Na12 O106 2.716072 1_555
Na12 O102 2.789982 1_555
Na13 O117 2.347674 1_555
Na13 O115 2.596429 1_555
Na13 O119 2.676630 1_555
Na13 O107 2.710885 1_555
Na13 O103 2.741332 1_555
Na13 O105 2.847743 1_555
Na14 O120 2.424793 1_555
Na14 O134 2.604586 1_555
Na14 O124 2.641742 1_555
Na14 O122 2.716976 1_555
Na14 O136 2.719272 1_555
Na14 O132 2.762162 1_555
Na15 O123 2.524442 1_555
Na15 O121 2.618684 1_555
Na15 O125 2.654923 1_555
Na15 O137 2.656822 1_555
Na15 O133 2.686030 1_555
Na15 O135 2.686273 1_555
Na16 O138 2.382741 1_555
Na16 O140 2.580516 1_555
Na16 O142 2.615155 1_555
Na16 O130 2.707961 1_555
Na16 O128 2.790678 1_555
Na16 O126 2.847886 1_555
Na17 O143 2.518735 1_555
Na17 O127 2.519597 1_555
Na17 O141 2.678000 1_555
Na17 O129 2.683952 1_555
Na17 O139 2.728345 1_555
Na17 O131 2.791233 1_555
Mg0 O5 2.063692 1_555
Mg0 O3 2.081430 1_545
Mg0 O75 2.092243 1_545
Mg0 O0 2.160412 1_655
Mg0 O76 2.164442 1_655
Mg0 O72 2.171744 1_645
Mg1 O10 2.033010 1_565
Mg1 O8 2.038677 1_555
Mg1 O82 2.108683 1_555
Mg1 O7 2.147350 1_565
Mg1 O81 2.195380 1_555
Mg1 O79 2.205731 1_565
Mg2 O98 1.944697 1_555
Mg2 O26 2.057188 1_555
Mg2 O28 2.059124 1_555
Mg2 O96 2.185185 1_555
Mg2 O24 2.240334 1_555
Mg2 O100 2.241732 1_555
Mg3 O27 1.924229 1_555
Mg3 O25 1.972921 1_555
Mg3 O29 2.118703 1_555
Mg3 O97 2.208084 1_555
Mg3 O101 2.250153 1_555
Mg3 O99 2.336137 1_555
Mg4 O34 1.905445 1_555
Mg4 O30 1.978712 1_555
Mg4 O32 2.090765 1_555
Mg4 O102 2.239991 1_555
Mg4 O104 2.319529 1_555
Mg4 O106 2.323188 1_555
Mg5 O33 2.019352 1_555
Mg5 O35 2.032390 1_555
Mg5 O31 2.095486 1_555
Mg5 O107 2.146714 1_555
Mg5 O103 2.183305 1_555
Mg5 O105 2.208775 1_555
Mg6 O109 1.939901 1_555
Mg6 O111 2.065618 1_555
Mg6 O39 2.079311 1_556
Mg6 O41 2.155666 1_556
Mg6 O113 2.211891 1_555
Mg6 O37 2.224795 1_556
Mg7 O114 1.963207 1_555
Mg7 O46 2.062323 1_555
Mg7 O44 2.119581 1_555
Mg7 O42 2.148876 1_555
Mg7 O118 2.156994 1_555
Mg7 O116 2.242463 1_555
Mg8 O62 1.895403 1_555
Mg8 O64 2.052294 1_555
Mg8 O60 2.158451 1_555
Mg8 O134 2.181580 1_555
Mg8 O132 2.271868 1_555
Mg8 O136 2.287709 1_555
Mg9 O65 1.873097 1_555
Mg9 O63 2.033710 1_555
Mg9 O61 2.179397 1_555
Mg9 O135 2.180299 1_555
Mg9 O137 2.265162 1_555
Mg9 O133 2.277845 1_555
Mg10 O68 1.914171 1_555
Mg10 O138 2.003687 1_555
Mg10 O70 2.104839 1_555
Mg10 O142 2.174233 1_555
Mg10 O140 2.230200 1_555
Mg10 O66 2.231878 1_555
Mg11 O71 1.891666 1_555
Mg11 O69 2.076777 1_555
Mg11 O143 2.103441 1_555
Mg11 O67 2.223364 1_555
Mg11 O139 2.254870 1_555
Mg11 O141 2.269983 1_555
O0 S0 1.481235 1_555
O1 S1 1.476688 1_555
O1 Zr0 2.306054 1_555
O2 S2 1.490535 1_555
O2 Zr0 2.257188 1_565
O3 S3 1.480559 1_555
O4 S5 1.491810 1_555
O4 Zr0 2.132032 1_555
O5 S4 1.460782 1_555
O6 Si0 1.652776 1_555
O6 Zr1 1.993178 1_545
O7 S6 1.480955 1_555
O8 S8 1.462761 1_555
O9 S7 1.491133 1_555
O9 Zr1 2.128186 1_655
O10 S9 1.481977 1_555
O11 S10 1.478504 1_545
O11 Zr1 2.312677 1_645
O12 S9 1.509554 1_565
O12 Zr3 2.149999 1_555
O13 S10 1.510846 1_555
O13 Zr2 2.161734 1_665
O14 Si0 1.701987 1_555
O14 Zr2 1.919692 1_555
O15 S6 1.530507 1_555
O15 Zr3 2.103742 1_545
O16 S7 1.486824 1_455
O16 Zr2 2.230433 1_565
O17 S8 1.513242 1_555
O17 Zr3 2.101627 1_555
O18 S2 1.515195 1_555
O18 Zr5 2.136043 1_555
O19 S3 1.500107 1_555
O19 Zr4 2.206712 1_665
O20 S4 1.505264 1_455
O20 Zr4 2.123241 1_555
O21 S5 1.486372 1_555
O21 Zr5 2.227748 1_545
O22 S0 1.530151 1_565
O22 Zr4 2.114231 1_565
O23 S1 1.515316 1_565
O23 Zr5 2.139630 1_555
O24 S11 1.469338 1_555
O25 Si1 1.596943 1_555
O26 S12 1.452411 1_555
O27 Si2 1.571549 1_555
O28 S13 1.451513 1_555
O29 S14 1.449274 1_555
O30 Si3 1.604330 1_555
O31 S15 1.474926 1_555
O32 S16 1.447528 1_555
O33 S17 1.461408 1_555
O34 Si4 1.574751 1_555
O35 S18 1.458720 1_555
O36 Si4 1.645286 1_555
O36 Zr6 1.954816 1_554
O37 S18 1.464355 1_555
O38 Si3 1.631473 1_555
O38 Zr6 2.044435 1_554
O39 S15 1.451294 1_555
O40 S16 1.473106 1_555
O40 Zr6 2.230265 1_554
O41 S17 1.457894 1_555
O42 S12 1.471810 1_555
O43 Si2 1.648317 1_555
O43 Zr7 1.945770 1_555
O44 S13 1.462596 1_555
O45 S14 1.484979 1_555
O45 Zr7 2.165915 1_555
O46 S11 1.450113 1_555
O47 Si1 1.643083 1_555
O47 Zr7 1.995455 1_555
O48 S19 1.507292 1_555
O48 Zr8 2.149509 1_556
O49 Si5 1.690754 1_555
O49 Zr9 1.945352 1_556
O50 S20 1.517594 1_555
O50 Zr8 2.078889 1_556
O51 S21 1.513137 1_555
O51 Zr9 2.157080 1_556
O52 Si6 1.665558 1_555
O52 Zr8 1.943490 1_556
O53 S22 1.511394 1_555
O53 Zr9 2.109201 1_556
O54 Si7 1.652855 1_555
O54 Zr10 1.985280 1_555
O55 S23 1.499101 1_555
O55 Zr11 2.180835 1_555
O56 S24 1.498708 1_555
O56 Zr10 2.144459 1_555
O57 Si8 1.653134 1_555
O57 Zr11 1.974630 1_555
O58 S25 1.502189 1_555
O58 Zr10 2.205306 1_555
O59 S26 1.495932 1_555
O59 Zr11 2.154050 1_555
O60 S25 1.473634 1_555
O61 S26 1.469921 1_555
O62 Si7 1.599819 1_555
O63 S23 1.457958 1_555
O64 S24 1.458569 1_555
O65 Si8 1.575385 1_555
O66 S20 1.456694 1_555
O67 S21 1.468182 1_555
O68 Si6 1.576255 1_555
O69 S22 1.451607 1_555
O70 S19 1.448407 1_555
O71 Si5 1.606963 1_555
O72 S25 1.496969 1_555
O73 S26 1.502566 1_555
O73 Zr0 2.153736 1_565
O74 Si7 1.668812 1_555
O74 Zr0 1.944578 1_565
O75 S23 1.477439 1_555
O76 S24 1.499383 1_555
O77 Si8 1.672460 1_555
O77 Zr0 1.942324 1_555
O78 S20 1.486875 1_555
O78 Zr1 2.214914 1_545
O79 S21 1.495241 1_555
O80 Si6 1.655641 1_555
O80 Zr1 1.981829 1_555
O81 S22 1.497222 1_555
O82 S19 1.478134 1_555
O83 Si5 1.633609 1_555
O83 Zr1 2.069183 1_655
O84 S11 1.513848 1_555
O84 Zr3 2.179769 1_545
O85 Si1 1.675499 1_555
O85 Zr2 1.989708 1_655
O86 S12 1.504107 1_555
O86 Zr2 2.217950 1_555
O87 Si2 1.675729 1_555
O87 Zr3 1.948843 1_545
O88 S13 1.511933 1_555
O88 Zr3 2.165630 1_555
O89 S14 1.482834 1_555
O89 Zr2 2.294640 1_665
O90 Si3 1.702853 1_555
O90 Zr5 1.929262 1_555
O91 S15 1.513605 1_555
O91 Zr4 2.150403 1_665
O92 S16 1.516700 1_555
O92 Zr5 2.123134 1_545
O93 S17 1.509972 1_555
O93 Zr4 2.149646 1_655
O94 Si4 1.683986 1_555
O94 Zr4 1.929024 1_555
O95 S18 1.518473 1_555
O95 Zr5 2.138533 1_545
O96 S9 1.488971 1_555
O97 S10 1.480656 1_545
O98 Si0 1.595420 1_555
O99 S6 1.454061 1_555
O100 S8 1.476662 1_555
O101 S7 1.482444 1_555
O102 S2 1.477787 1_555
O103 S3 1.501636 1_555
O104 S5 1.475825 1_555
O105 S4 1.491779 1_555
O106 S0 1.454789 1_555
O107 S1 1.461376 1_555
O108 S19 1.500475 1_555
O108 Zr6 2.161359 1_555
O109 Si5 1.629296 1_555
O110 S21 1.469028 1_555
O110 Zr6 2.338817 1_555
O111 S20 1.462980 1_655
O112 Si6 1.649210 1_545
O112 Zr6 2.024348 1_555
O113 S22 1.479896 1_545
O114 Si7 1.621255 1_545
O115 S23 1.496051 1_545
O115 Zr7 2.212681 1_555
O116 S24 1.481185 1_555
O117 Si8 1.634492 1_555
O117 Zr7 2.058928 1_555
O118 S26 1.460276 1_555
O119 S25 1.472557 1_655
O119 Zr7 2.380643 1_555
O120 Si4 1.637598 1_555
O120 Zr8 2.055743 1_555
O121 S18 1.494170 1_555
O121 Zr9 2.251671 1_555
O122 S15 1.494278 1_455
O122 Zr8 2.265211 1_555
O123 Si3 1.642403 1_555
O123 Zr9 2.062271 1_555
O124 S16 1.487411 1_565
O124 Zr8 2.247413 1_555
O125 S17 1.499879 1_565
O125 Zr9 2.208141 1_555
O126 S12 1.505247 1_565
O126 Zr10 2.170565 1_555
O127 Si2 1.645415 1_565
O127 Zr11 2.030086 1_555
O128 S13 1.503674 1_555
O128 Zr10 2.165022 1_555
O129 S14 1.510228 1_555
O129 Zr11 2.162490 1_555
O130 Si1 1.652014 1_455
O130 Zr10 2.006263 1_555
O131 S11 1.504937 1_555
O131 Zr11 2.207970 1_555
O132 S0 1.493865 1_565
O133 S1 1.486428 1_565
O134 S2 1.458641 1_555
O135 S3 1.466796 1_555
O136 S4 1.486893 1_455
O137 S5 1.483209 1_555
O138 Si0 1.619117 1_555
O139 S6 1.492637 1_555
O140 S7 1.472740 1_455
O141 S8 1.486635 1_555
O142 S9 1.455358 1_565
O143 S10 1.472985 1_555
