# generated using pymatgen
data_Na3La2Sn2P5SO24
_symmetry_space_group_name_H-M   'P 1'
_cell_length_a   9.16789846
_cell_length_b   9.16343212
_cell_length_c   23.57095243
_cell_angle_alpha   90.28668843
_cell_angle_beta   89.88833451
_cell_angle_gamma   119.63241885
_symmetry_Int_Tables_number   1
_chemical_formula_structural   Na3La2Sn2P5SO24
_chemical_formula_sum   'Na9 La6 Sn6 P15 S3 O72'
_cell_volume   1721.18259066
_cell_formula_units_Z   3
loop_
 _symmetry_equiv_pos_site_id
 _symmetry_equiv_pos_as_xyz
  1  'x, y, z'
loop_
 _atom_site_type_symbol
 _atom_site_label
 _atom_site_symmetry_multiplicity
 _atom_site_fract_x
 _atom_site_fract_y
 _atom_site_fract_z
 _atom_site_occupancy
  Na  Na0  1  0.00445435  0.36064773  0.75102371  1
  Na  Na1  1  0.67113090  0.95889238  0.58279683  1
  Na  Na2  1  0.04315509  0.33095180  0.08337645  1
  Na  Na3  1  0.00680127  0.98991404  0.49599199  1
  Na  Na4  1  0.01143063  0.99416388  0.99510376  1
  Na  Na5  1  0.65465965  0.32295882  0.83424644  1
  Na  Na6  1  0.68317465  0.33805625  0.33345133  1
  Na  Na7  1  0.35334650  0.67001649  0.16705194  1
  Na  Na8  1  0.33611951  0.66551438  0.66675833  1
  La  La0  1  0.01382878  0.99547829  0.64433851  1
  La  La1  1  0.99432436  0.98647974  0.14448934  1
  La  La2  1  0.33629487  0.67706135  0.01541565  1
  La  La3  1  0.31970928  0.66385933  0.51547101  1
  La  La4  1  0.32968797  0.66544322  0.32050373  1
  La  La5  1  0.33708386  0.67905715  0.82236415  1
  Sn  Sn0  1  0.97920649  0.99033855  0.34706851  1
  Sn  Sn1  1  0.00751220  0.00640821  0.84629749  1
  Sn  Sn2  1  0.66247046  0.33856192  0.68689759  1
  Sn  Sn3  1  0.67078214  0.33922595  0.18651597  1
  Sn  Sn4  1  0.66214177  0.32565632  0.98212806  1
  Sn  Sn5  1  0.67571400  0.33989844  0.48192286  1
  P  P0  1  0.70257835  0.68908773  0.25006234  1
  P  P1  1  0.98491742  0.28968500  0.24817014  1
  P  P2  1  0.30426979  0.29454268  0.75101490  1
  P  P3  1  0.98390373  0.69199697  0.75204733  1
  P  P4  1  0.70975808  0.01241253  0.74715135  1
  P  P5  1  0.94774920  0.33782506  0.58627391  1
  P  P6  1  0.39730636  0.05977521  0.58126068  1
  P  P7  1  0.65948157  0.61260352  0.58246533  1
  P  P8  1  0.94378144  0.60598874  0.08099092  1
  P  P9  1  0.66164113  0.05379276  0.08518463  1
  P  P10  1  0.38920629  0.33864080  0.08398379  1
  P  P11  1  0.01063507  0.34277819  0.91633867  1
  P  P12  1  0.33105358  0.99247164  0.91669223  1
  P  P13  1  0.65209074  0.98753199  0.41934620  1
  P  P14  1  0.00985994  0.67032169  0.41541485  1
  S  S0  1  0.30720377  0.01814030  0.25175453  1
  S  S1  1  0.65983103  0.66877284  0.91623198  1
  S  S2  1  0.32985033  0.33949439  0.41579839  1
  O  O0  1  0.21744773  0.03306363  0.30301549  1
  O  O1  1  0.81489878  0.77679495  0.30389005  1
  O  O2  1  0.96569149  0.17377399  0.30087020  1
  O  O3  1  0.21953178  0.18174001  0.80435003  1
  O  O4  1  0.96712971  0.78559438  0.80550258  1
  O  O5  1  0.83298727  0.04128718  0.79875006  1
  O  O6  1  0.78224347  0.99107331  0.69143084  1
  O  O7  1  0.19647729  0.21949330  0.69832124  1
  O  O8  1  0.01111749  0.79081100  0.69810148  1
  O  O9  1  0.78307174  0.78917254  0.19681637  1
  O  O10  1  0.00847854  0.21763792  0.19256473  1
  O  O11  1  0.21346970  0.99844756  0.19964650  1
  O  O12  1  0.86367840  0.35025300  0.64287582  1
  O  O13  1  0.49380075  0.14495050  0.63719415  1
  O  O14  1  0.65258215  0.51686613  0.63768599  1
  O  O15  1  0.86040152  0.50954694  0.13674228  1
  O  O16  1  0.64854730  0.14113226  0.14022012  1
  O  O17  1  0.48678130  0.34766244  0.13925434  1
  O  O18  1  0.47915103  0.33163497  0.02917503  1
  O  O19  1  0.84440514  0.51525952  0.02700859  1
  O  O20  1  0.67251624  0.15103508  0.03028967  1
  O  O21  1  0.48825437  0.15683820  0.52723449  1
  O  O22  1  0.66598100  0.52179384  0.52773072  1
  O  O23  1  0.84725911  0.32902281  0.53229325  1
  O  O24  1  0.58358933  0.69835314  0.96694646  1
  O  O25  1  0.11937891  0.42062700  0.96987415  1
  O  O26  1  0.30211389  0.88320268  0.96923916  1
  O  O27  1  0.58143596  0.88516690  0.47413491  1
  O  O28  1  0.29890420  0.41407240  0.46678247  1
  O  O29  1  0.11638660  0.70263176  0.46910828  1
  O  O30  1  0.08603557  0.63215878  0.36373660  1
  O  O31  1  0.53942258  0.90251385  0.36799196  1
  O  O32  1  0.36150768  0.44599647  0.36572858  1
  O  O33  1  0.08876079  0.44976838  0.86303962  1
  O  O34  1  0.37062294  0.92088367  0.86395074  1
  O  O35  1  0.55499297  0.63732059  0.86557006  1
  O  O36  1  0.99685101  0.83379299  0.40639415  1
  O  O37  1  0.83242727  0.00878598  0.40988000  1
  O  O38  1  0.17804514  0.16981366  0.40683775  1
  O  O39  1  0.98900102  0.16223275  0.90775373  1
  O  O40  1  0.16715630  0.00346686  0.90833775  1
  O  O41  1  0.82866897  0.82126395  0.90853858  1
  O  O42  1  0.95156859  0.17141505  0.58455665  1
  O  O43  1  0.22172294  0.03933193  0.57845750  1
  O  O44  1  0.81557798  0.79002021  0.58058179  1
  O  O45  1  0.96545758  0.78219075  0.07884202  1
  O  O46  1  0.82880518  0.05060345  0.08417613  1
  O  O47  1  0.21170023  0.18209491  0.08284897  1
  O  O48  1  0.70562396  0.18378462  0.74645584  1
  O  O49  1  0.48028237  0.30678557  0.74638821  1
  O  O50  1  0.81915475  0.51511733  0.74904998  1
  O  O51  1  0.69212529  0.51217954  0.24766758  1
  O  O52  1  0.81652960  0.29762385  0.24706317  1
  O  O53  1  0.47464931  0.17606116  0.24984767  1
  O  O54  1  0.68097277  0.51812982  0.92351038  1
  O  O55  1  0.83080515  0.32282721  0.92349832  1
  O  O56  1  0.48434482  0.17435344  0.92427790  1
  O  O57  1  0.67527542  0.16914847  0.42420623  1
  O  O58  1  0.48046519  0.31852899  0.42322531  1
  O  O59  1  0.82847026  0.51560388  0.42310482  1
  O  O60  1  0.36583362  0.49535788  0.08364926  1
  O  O61  1  0.11578380  0.61137091  0.08048906  1
  O  O62  1  0.50819426  0.87684123  0.08459487  1
  O  O63  1  0.39016147  0.88657945  0.58159842  1
  O  O64  1  0.50249896  0.63485683  0.58260126  1
  O  O65  1  0.12391250  0.49301978  0.58539263  1
  O  O66  1  0.33279497  0.87167955  0.25630661  1
  O  O67  1  0.52619837  0.66658361  0.25625440  1
  O  O68  1  0.13521472  0.46626519  0.25690100  1
  O  O69  1  0.32037345  0.46898114  0.75896544  1
  O  O70  1  0.13079599  0.65496230  0.75793907  1
  O  O71  1  0.53398947  0.86298440  0.75601068  1
loop_
_geom_bond_atom_site_label_1
_geom_bond_atom_site_label_2
_geom_bond_distance
_geom_bond_site_symmetry_2
Na0 O70 2.355617 1_555
Na0 O48 2.398458 1_455
Na0 O69 2.562463 1_555
Na0 O50 2.696384 1_455
Na0 O33 2.756413 1_555
Na0 O5 2.788845 1_455
Na0 O12 2.839324 1_455
Na0 O7 2.922756 1_555
Na1 O63 2.321068 1_555
Na1 O42 2.335131 1_565
Na1 O44 2.485234 1_555
Na1 O64 2.582100 1_555
Na1 O27 2.670997 1_555
Na1 O6 2.717888 1_555
Na2 O61 2.315273 1_555
Na2 O46 2.338768 1_455
Na2 O47 2.516432 1_555
Na2 O60 2.571763 1_555
Na2 O10 2.738638 1_555
Na2 O25 2.787111 1_554
Na3 O36 2.521223 1_455
Na3 O43 2.643780 1_565
Na3 O37 2.644798 1_465
Na3 O38 2.657242 1_565
Na3 O44 2.692869 1_455
Na3 O42 2.859085 1_465
Na4 O40 2.469456 1_565
Na4 O41 2.614732 1_455
Na4 O39 2.645727 1_465
Na4 O45 2.659319 1_456
Na4 O47 2.732546 1_566
Na4 O46 2.882779 1_466
Na5 O49 2.577188 1_555
Na5 O48 2.585697 1_555
Na5 O56 2.590218 1_555
Na5 O50 2.608679 1_555
Na5 O55 2.654961 1_555
Na5 O54 2.687258 1_555
Na6 O52 2.491781 1_555
Na6 O51 2.557975 1_555
Na6 O59 2.592398 1_555
Na6 O57 2.626524 1_555
Na6 O53 2.630737 1_555
Na6 O58 2.760990 1_555
Na7 O60 2.566734 1_555
Na7 O62 2.598137 1_555
Na7 O67 2.645003 1_555
Na7 O61 2.836253 1_555
Na7 O66 2.860110 1_555
Na7 O68 2.881182 1_555
Na8 O64 2.597480 1_555
Na8 O65 2.627717 1_555
Na8 O63 2.724443 1_555
Na8 O71 2.778794 1_555
Na8 O69 2.787242 1_555
Na8 O70 2.824567 1_555
La0 O8 2.258632 1_555
La0 O7 2.284709 1_565
La0 O43 2.333002 1_565
La0 O6 2.376560 1_455
La0 O44 2.388512 1_455
La0 O42 2.417934 1_465
La1 O9 2.256431 1_555
La1 O45 2.334832 1_555
La1 O10 2.343602 1_665
La1 O11 2.351526 1_655
La1 O46 2.359558 1_565
La1 O47 2.403732 1_665
La2 O26 2.336300 1_554
La2 O61 2.365536 1_555
La2 O62 2.370889 1_555
La2 O60 2.430383 1_555
La2 O25 2.447619 1_554
La2 O24 2.457250 1_554
La3 O29 2.337060 1_555
La3 O65 2.371639 1_555
La3 O63 2.383368 1_555
La3 O64 2.416118 1_555
La3 O27 2.453202 1_555
La3 O28 2.476970 1_555
La4 O30 2.332758 1_555
La4 O67 2.347380 1_555
La4 O68 2.350035 1_555
La4 O31 2.350079 1_555
La4 O66 2.416036 1_555
La4 O32 2.422364 1_555
La5 O34 2.295984 1_555
La5 O70 2.350837 1_555
La5 O71 2.356321 1_555
La5 O69 2.375452 1_555
La5 O33 2.407952 1_555
La5 O35 2.437594 1_555
O0 S0 1.503823 1_555
O0 Sn0 2.269741 1_445
O1 P0 1.578790 1_555
O1 Sn0 2.050661 1_555
O2 P1 1.590431 1_555
O2 Sn0 2.061881 1_545
O3 P2 1.570843 1_555
O3 Sn1 2.063344 1_555
O4 P3 1.570251 1_555
O4 Sn1 2.096910 1_665
O5 P4 1.591260 1_555
O5 Sn1 2.105839 1_655
O6 P4 1.525567 1_565
O7 P2 1.521970 1_555
O8 P3 1.511911 1_455
O9 P0 1.516413 1_555
O10 P1 1.526971 1_455
O11 S0 1.458818 1_565
O12 P5 1.571077 1_555
O12 Sn2 2.071025 1_555
O13 P6 1.562512 1_555
O13 Sn2 2.045650 1_555
O14 P7 1.556930 1_555
O14 Sn2 2.046739 1_555
O15 P8 1.559456 1_555
O15 Sn3 2.040040 1_555
O16 P9 1.556205 1_555
O16 Sn3 2.035315 1_555
O17 P10 1.560333 1_555
O17 Sn3 2.056637 1_555
O18 P10 1.549339 1_555
O18 Sn4 2.032304 1_554
O19 P8 1.544413 1_555
O19 Sn4 2.011842 1_554
O20 P9 1.549639 1_555
O20 Sn4 2.006806 1_554
O21 P6 1.543317 1_555
O21 Sn5 2.016970 1_555
O22 P7 1.548695 1_555
O22 Sn5 2.020063 1_555
O23 P5 1.550570 1_555
O23 Sn5 2.014056 1_555
O24 S1 1.473719 1_555
O25 P11 1.545241 1_555
O26 P12 1.534753 1_555
O27 P13 1.541186 1_555
O28 S2 1.474409 1_555
O29 P14 1.535692 1_555
O30 P14 1.525687 1_555
O31 P13 1.529311 1_555
O32 S2 1.469564 1_555
O33 P11 1.538484 1_555
O34 P12 1.527349 1_555
O35 S1 1.469680 1_555
O36 P14 1.575837 1_655
O36 Sn0 2.071178 1_555
O37 P13 1.581684 1_545
O37 Sn0 2.060582 1_545
O38 S2 1.502371 1_555
O38 Sn0 2.243831 1_445
O39 P11 1.577879 1_655
O39 Sn1 2.093806 1_655
O40 P12 1.567730 1_545
O40 Sn1 2.080640 1_555
O41 S1 1.497999 1_555
O41 Sn1 2.232437 1_665
O42 P5 1.542829 1_555
O43 P6 1.527347 1_555
O44 P7 1.546870 1_555
O45 P8 1.527261 1_555
O46 P9 1.547336 1_555
O47 P10 1.548588 1_555
O48 P4 1.589604 1_555
O48 Sn2 2.171591 1_555
O49 P2 1.564869 1_555
O49 Sn2 2.086852 1_555
O50 P3 1.578545 1_555
O50 Sn2 2.124487 1_555
O51 P0 1.576633 1_555
O51 Sn3 2.073464 1_555
O52 P1 1.581267 1_555
O52 Sn3 2.117573 1_555
O53 S0 1.502117 1_555
O53 Sn3 2.247328 1_555
O54 S1 1.496530 1_555
O54 Sn4 2.184465 1_555
O55 P11 1.575171 1_655
O55 Sn4 2.081452 1_555
O56 P12 1.570534 1_545
O56 Sn4 2.047814 1_555
O57 P13 1.573642 1_545
O57 Sn5 2.066748 1_555
O58 S2 1.495936 1_555
O58 Sn5 2.194784 1_555
O59 P14 1.574258 1_655
O59 Sn5 2.064153 1_555
O60 P10 1.553279 1_555
O61 P8 1.553130 1_455
O62 P9 1.533823 1_565
O63 P6 1.555783 1_565
O64 P7 1.550186 1_555
O65 P5 1.536285 1_455
O66 S0 1.476704 1_565
O67 P0 1.532404 1_555
O68 P1 1.533687 1_455
O69 P2 1.541337 1_555
O70 P3 1.549571 1_455
O71 P4 1.528021 1_565
