# generated using pymatgen
data_NaZrInP2SO12
_symmetry_space_group_name_H-M   'P 1'
_cell_length_a   8.90153588
_cell_length_b   8.88762472
_cell_length_c   23.52304372
_cell_angle_alpha   90.13168612
_cell_angle_beta   90.00000000
_cell_angle_gamma   120.05179086
_symmetry_Int_Tables_number   1
_chemical_formula_structural   NaZrInP2SO12
_chemical_formula_sum   'Na6 Zr6 In6 P12 S6 O72'
_cell_volume   1610.81767179
_cell_formula_units_Z   6
loop_
 _symmetry_equiv_pos_site_id
 _symmetry_equiv_pos_as_xyz
  1  'x, y, z'
loop_
 _atom_site_type_symbol
 _atom_site_label
 _atom_site_symmetry_multiplicity
 _atom_site_fract_x
 _atom_site_fract_y
 _atom_site_fract_z
 _atom_site_occupancy
  Na  Na0  1  0.98896062  0.99392655  0.50250157  1
  Na  Na1  1  0.00496593  0.99392655  0.00250157  1
  Na  Na2  1  0.65562762  0.32725955  0.83583457  1
  Na  Na3  1  0.67163293  0.32725955  0.33583457  1
  Na  Na4  1  0.32229362  0.66059355  0.16916857  1
  Na  Na5  1  0.33829893  0.66059355  0.66916857  1
  Zr  Zr0  1  0.00073175  0.00253316  0.35314014  1
  Zr  Zr1  1  0.00180140  0.00253316  0.85314014  1
  Zr  Zr2  1  0.66739875  0.33586616  0.68647314  1
  Zr  Zr3  1  0.66846840  0.33586616  0.18647314  1
  Zr  Zr4  1  0.33406475  0.66920016  0.01980714  1
  Zr  Zr5  1  0.33513440  0.66920016  0.51980714  1
  In  In0  1  0.99187047  0.00575056  0.64894890  1
  In  In1  1  0.01388009  0.00575056  0.14894890  1
  In  In2  1  0.65853747  0.33908356  0.98228190  1
  In  In3  1  0.68054709  0.33908356  0.48228190  1
  In  In4  1  0.32520347  0.67241756  0.31561590  1
  In  In5  1  0.34721309  0.67241756  0.81561590  1
  P  P0  1  0.29282647  -0.00062343  0.24991571  1
  P  P1  1  0.00311243  0.29287794  0.24947279  1
  P  P2  1  0.28976551  0.29287794  0.74947279  1
  P  P3  1  0.70655010  -0.00062343  0.74991571  1
  P  P4  1  0.95949347  0.33270957  0.58324871  1
  P  P5  1  0.66977943  0.62621094  0.58280579  1
  P  P6  1  0.95643251  0.62621094  0.08280579  1
  P  P7  1  0.37321710  0.33270957  0.08324871  1
  P  P8  1  0.62615947  0.66604357  0.91658271  1
  P  P9  1  0.33644543  0.95954494  0.91613979  1
  P  P10  1  0.62309851  0.95954494  0.41613979  1
  P  P11  1  0.03988310  0.66604357  0.41658271  1
  S  S0  1  0.70684904  0.71017816  0.24958199  1
  S  S1  1  0.00332912  0.71017816  0.74958199  1
  S  S2  1  0.37351604  0.04351116  0.58291499  1
  S  S3  1  0.66999612  0.04351116  0.08291499  1
  S  S4  1  0.04018204  0.37684516  0.91624899  1
  S  S5  1  0.33666212  0.37684516  0.41624899  1
  O  O0  1  0.20377746  0.02534490  0.30317204  1
  O  O1  1  0.81577488  0.79041698  0.30102629  1
  O  O2  1  0.97380543  0.17726696  0.30296505  1
  O  O3  1  0.20346153  0.17726696  0.80296505  1
  O  O4  1  0.97464210  0.79041698  0.80102629  1
  O  O5  1  0.82156744  0.02534490  0.80317204  1
  O  O6  1  0.78255269  0.96656473  0.69647120  1
  O  O7  1  0.18531505  0.21023568  0.69550168  1
  O  O8  1  0.02887851  0.81191810  0.69804976  1
  O  O9  1  0.78303960  0.81191810  0.19804976  1
  O  O10  1  0.02492064  0.21023568  0.19550168  1
  O  O11  1  0.18401204  0.96656473  0.19647120  1
  O  O12  1  0.87044446  0.35867790  0.63650504  1
  O  O13  1  0.48244188  0.12374998  0.63435929  1
  O  O14  1  0.64047243  0.51059996  0.63629805  1
  O  O15  1  0.87012853  0.51059996  0.13629805  1
  O  O16  1  0.64130910  0.12374998  0.13435929  1
  O  O17  1  0.48823444  0.35867790  0.13650504  1
  O  O18  1  0.44921969  0.29989773  0.02980420  1
  O  O19  1  0.85198205  0.54356868  0.02883468  1
  O  O20  1  0.69554551  0.14525110  0.03138276  1
  O  O21  1  0.44970660  0.14525110  0.53138276  1
  O  O22  1  0.69158764  0.54356868  0.52883468  1
  O  O23  1  0.85067904  0.29989773  0.52980420  1
  O  O24  1  0.53711046  0.69201190  0.96983904  1
  O  O25  1  0.14910788  0.45708398  0.96769329  1
  O  O26  1  0.30713843  0.84393396  0.96963205  1
  O  O27  1  0.53679453  0.84393396  0.46963205  1
  O  O28  1  0.30797510  0.45708398  0.46769329  1
  O  O29  1  0.15490044  0.69201190  0.46983904  1
  O  O30  1  0.11588569  0.63323173  0.36313820  1
  O  O31  1  0.51864805  0.87690268  0.36216868  1
  O  O32  1  0.36221151  0.47858510  0.36471676  1
  O  O33  1  0.11637260  0.47858510  0.86471676  1
  O  O34  1  0.35825364  0.87690268  0.86216868  1
  O  O35  1  0.51734504  0.63323173  0.86313820  1
  O  O36  1  0.02669731  0.83383308  0.40991082  1
  O  O37  1  0.80616735  0.97650156  0.40991349  1
  O  O38  1  0.17594544  0.20234604  0.41112397  1
  O  O39  1  0.02640060  0.20234604  0.91112397  1
  O  O40  1  0.17033420  0.97650156  0.90991349  1
  O  O41  1  0.80713576  0.83383308  0.90991082  1
  O  O42  1  0.98562842  0.17502697  0.58830770  1
  O  O43  1  0.19894145  0.01916533  0.59016122  1
  O  O44  1  0.83199514  0.80673674  0.58983569  1
  O  O45  1  0.97474160  0.80673674  0.08983569  1
  O  O46  1  0.82022388  0.01916533  0.09016122  1
  O  O47  1  0.18939855  0.17502697  0.08830770  1
  O  O48  1  0.69336431  0.16716608  0.74324382  1
  O  O49  1  0.47283435  0.30983456  0.74324649  1
  O  O50  1  0.84261244  0.53567904  0.74445697  1
  O  O51  1  0.69306760  0.53567904  0.24445697  1
  O  O52  1  0.83700120  0.30983456  0.24324649  1
  O  O53  1  0.47380276  0.16716608  0.24324382  1
  O  O54  1  0.65229542  0.50835997  0.92164070  1
  O  O55  1  0.86560845  0.35249833  0.92349422  1
  O  O56  1  0.49866214  0.14006974  0.92316869  1
  O  O57  1  0.64140860  0.14006974  0.42316869  1
  O  O58  1  0.48689088  0.35249833  0.42349422  1
  O  O59  1  0.85606555  0.50835997  0.42164070  1
  O  O60  1  0.36003031  0.50050008  0.07657782  1
  O  O61  1  0.13950035  0.64316856  0.07658049  1
  O  O62  1  0.50927844  0.86901304  0.07779097  1
  O  O63  1  0.35973360  0.86901304  0.57779097  1
  O  O64  1  0.50366720  0.64316856  0.57658049  1
  O  O65  1  0.14046876  0.50050008  0.57657782  1
  O  O66  1  0.31896142  0.84169397  0.25497470  1
  O  O67  1  0.53227445  0.68583233  0.25682822  1
  O  O68  1  0.16532814  0.47340374  0.25650269  1
  O  O69  1  0.30807460  0.47340374  0.75650269  1
  O  O70  1  0.15355688  0.68583233  0.75682822  1
  O  O71  1  0.52273155  0.84169397  0.75497470  1
loop_
_geom_bond_atom_site_label_1
_geom_bond_atom_site_label_2
_geom_bond_distance
_geom_bond_site_symmetry_2
Na0 O44 2.574493 1_555
Na0 O42 2.588136 1_565
Na0 O37 2.676026 1_555
Na0 O36 2.710269 1_655
Na0 O43 2.715497 1_665
Na0 O38 2.784277 1_665
Na1 O45 2.574493 1_455
Na1 O47 2.588136 1_565
Na1 O40 2.676026 1_554
Na1 O41 2.710269 1_454
Na1 O46 2.715497 1_465
Na1 O39 2.784277 1_564
Na2 O56 2.574493 1_555
Na2 O54 2.588136 1_555
Na2 O49 2.676026 1_555
Na2 O48 2.710269 1_555
Na2 O55 2.715497 1_555
Na2 O50 2.784277 1_555
Na3 O57 2.574493 1_555
Na3 O59 2.588136 1_555
Na3 O52 2.676026 1_555
Na3 O53 2.710269 1_555
Na3 O58 2.715497 1_555
Na3 O51 2.784277 1_555
Na4 O68 2.574493 1_555
Na4 O66 2.588136 1_555
Na4 O61 2.676026 1_555
Na4 O60 2.710269 1_555
Na4 O67 2.715497 1_555
Na4 O62 2.784277 1_555
Na5 O69 2.574493 1_555
Na5 O71 2.588136 1_555
Na5 O64 2.676026 1_555
Na5 O65 2.710269 1_555
Na5 O70 2.715497 1_555
Na5 O63 2.784277 1_555
In0 O6 2.048044 1_545
In0 O7 2.079346 1_655
In0 O42 2.096401 1_555
In0 O44 2.134233 1_545
In0 O8 2.233344 1_645
In0 O43 2.259370 1_655
In1 O11 2.048044 1_545
In1 O10 2.079346 1_555
In1 O47 2.096401 1_555
In1 O45 2.134233 1_445
In1 O9 2.233344 1_445
In1 O46 2.259370 1_455
In2 O18 2.048044 1_556
In2 O19 2.079346 1_556
In2 O54 2.096401 1_555
In2 O56 2.134233 1_555
In2 O20 2.233344 1_556
In2 O55 2.259370 1_555
In3 O23 2.048044 1_555
In3 O22 2.079346 1_555
In3 O59 2.096401 1_555
In3 O57 2.134233 1_555
In3 O21 2.233344 1_555
In3 O58 2.259370 1_555
In4 O30 2.048044 1_555
In4 O31 2.079346 1_555
In4 O66 2.096401 1_555
In4 O68 2.134233 1_555
In4 O32 2.233344 1_555
In4 O67 2.259370 1_555
In5 O35 2.048044 1_555
In5 O34 2.079346 1_555
In5 O71 2.096401 1_555
In5 O69 2.134233 1_555
In5 O33 2.233344 1_555
In5 O70 2.259370 1_555
O0 P0 1.559771 1_555
O0 Zr0 2.079307 1_555
O1 S0 1.488823 1_555
O1 Zr0 2.155952 1_665
O2 P1 1.563528 1_655
O2 Zr0 2.059959 1_655
O3 P2 1.563528 1_555
O3 Zr1 2.059959 1_555
O4 S1 1.488823 1_655
O4 Zr1 2.155952 1_665
O5 P3 1.559771 1_555
O5 Zr1 2.079307 1_655
O6 P3 1.522879 1_565
O7 P2 1.525609 1_555
O8 S1 1.462134 1_555
O9 S0 1.462134 1_555
O10 P1 1.525609 1_555
O11 P0 1.522879 1_565
O12 P4 1.559771 1_555
O12 Zr2 2.079307 1_555
O13 S2 1.488823 1_555
O13 Zr2 2.155952 1_555
O14 P5 1.563528 1_555
O14 Zr2 2.059959 1_555
O15 P6 1.563528 1_555
O15 Zr3 2.059959 1_555
O16 S3 1.488823 1_555
O16 Zr3 2.155952 1_555
O17 P7 1.559771 1_555
O17 Zr3 2.079307 1_555
O18 P7 1.522879 1_555
O19 P6 1.525609 1_555
O20 S3 1.462134 1_555
O21 S2 1.462134 1_555
O22 P5 1.525609 1_555
O23 P4 1.522879 1_555
O24 P8 1.559771 1_555
O24 Zr4 2.079307 1_556
O25 S4 1.488823 1_555
O25 Zr4 2.155952 1_556
O26 P9 1.563528 1_555
O26 Zr4 2.059959 1_556
O27 P10 1.563528 1_555
O27 Zr5 2.059959 1_555
O28 S5 1.488823 1_555
O28 Zr5 2.155952 1_555
O29 P11 1.559771 1_555
O29 Zr5 2.079307 1_555
O30 P11 1.522879 1_555
O31 P10 1.525609 1_555
O32 S5 1.462134 1_555
O33 S4 1.462134 1_555
O34 P9 1.525609 1_555
O35 P8 1.522879 1_555
O36 P11 1.561608 1_555
O36 Zr0 2.107390 1_565
O37 P10 1.566483 1_555
O37 Zr0 2.106345 1_665
O38 S5 1.497797 1_555
O38 Zr0 2.159029 1_555
O39 S4 1.497801 1_555
O39 Zr1 2.159029 1_555
O40 P9 1.566474 1_555
O40 Zr1 2.106345 1_565
O41 P8 1.561613 1_555
O41 Zr1 2.107390 1_665
O42 P4 1.536092 1_555
O43 S2 1.467696 1_555
O44 P5 1.537863 1_555
O45 P6 1.537866 1_555
O46 S3 1.467687 1_555
O47 P7 1.536097 1_555
O48 P3 1.561608 1_555
O48 Zr2 2.107390 1_555
O49 P2 1.566483 1_555
O49 Zr2 2.106345 1_555
O50 S1 1.497797 1_655
O50 Zr2 2.159029 1_555
O51 S0 1.497801 1_555
O51 Zr3 2.159029 1_555
O52 P1 1.566474 1_655
O52 Zr3 2.106345 1_555
O53 P0 1.561613 1_555
O53 Zr3 2.107390 1_555
O54 P8 1.536104 1_555
O55 S4 1.467681 1_655
O56 P9 1.537859 1_545
O57 P10 1.537852 1_545
O58 S5 1.467698 1_555
O59 P11 1.536093 1_655
O60 P7 1.561619 1_555
O60 Zr4 2.107390 1_555
O61 P6 1.566468 1_455
O61 Zr4 2.106345 1_555
O62 S3 1.497794 1_565
O62 Zr4 2.159029 1_555
O63 S2 1.497786 1_565
O63 Zr5 2.159029 1_555
O64 P5 1.566486 1_555
O64 Zr5 2.106345 1_555
O65 P4 1.561609 1_455
O65 Zr5 2.107390 1_555
O66 P0 1.536092 1_565
O67 S0 1.467696 1_555
O68 P1 1.537863 1_555
O69 P2 1.537866 1_555
O70 S1 1.467687 1_555
O71 P3 1.536097 1_565
