# generated using pymatgen
data_NbNiP2
_symmetry_space_group_name_H-M   'P 1'
_cell_length_a   3.34739576
_cell_length_b   5.39747175
_cell_length_c   12.22640785
_cell_angle_alpha   90.00000000
_cell_angle_beta   90.00000000
_cell_angle_gamma   90.00000000
_symmetry_Int_Tables_number   1
_chemical_formula_structural   NbNiP2
_chemical_formula_sum   'Nb4 Ni4 P8'
_cell_volume   220.90030656
_cell_formula_units_Z   4
loop_
 _symmetry_equiv_pos_site_id
 _symmetry_equiv_pos_as_xyz
  1  'x, y, z'
loop_
 _atom_site_type_symbol
 _atom_site_label
 _atom_site_symmetry_multiplicity
 _atom_site_fract_x
 _atom_site_fract_y
 _atom_site_fract_z
 _atom_site_occupancy
  Nb  Nb0  1  0.75000000  0.98722432  0.82983916  1
  Nb  Nb1  1  0.25000000  0.01277568  0.17016084  1
  Nb  Nb2  1  0.75000000  0.48722432  0.67016084  1
  Nb  Nb3  1  0.25000000  0.51277568  0.32983916  1
  Ni  Ni0  1  0.25000000  0.51574288  0.08550522  1
  Ni  Ni1  1  0.25000000  0.01574288  0.41449478  1
  Ni  Ni2  1  0.75000000  0.48425712  0.91449478  1
  Ni  Ni3  1  0.75000000  0.98425712  0.58550522  1
  P  P0  1  0.25000000  0.69671517  0.53711380  1
  P  P1  1  0.75000000  0.30328483  0.46288620  1
  P  P2  1  0.25000000  0.19671517  0.96288620  1
  P  P3  1  0.75000000  0.80328483  0.03711380  1
  P  P4  1  0.25000000  0.63829199  0.81010085  1
  P  P5  1  0.75000000  0.86170801  0.31010085  1
  P  P6  1  0.25000000  0.13829199  0.68989915  1
  P  P7  1  0.75000000  0.36170801  0.18989915  1
loop_
_geom_bond_atom_site_label_1
_geom_bond_atom_site_label_2
_geom_bond_distance
_geom_bond_site_symmetry_2
Nb0 P6 2.528539 1_665
Nb0 P6 2.528539 1_565
Nb0 P4 2.531110 1_655
Nb0 P4 2.531110 1_555
Nb0 P2 2.593435 1_665
Nb0 P2 2.593435 1_565
Nb0 P3 2.721757 1_556
Nb1 P5 2.528539 1_445
Nb1 P5 2.528539 1_545
Nb1 P7 2.531110 1_555
Nb1 P7 2.531110 1_455
Nb1 P3 2.593435 1_445
Nb1 P3 2.593435 1_545
Nb1 P2 2.721757 1_554
Nb2 P4 2.528539 1_655
Nb2 P4 2.528539 1_555
Nb2 P6 2.531110 1_555
Nb2 P6 2.531110 1_655
Nb2 P0 2.593435 1_655
Nb2 P0 2.593435 1_555
Nb2 P1 2.721757 1_555
Nb3 P7 2.528539 1_555
Nb3 P7 2.528539 1_455
Nb3 P5 2.531110 1_455
Nb3 P5 2.531110 1_555
Nb3 P1 2.593435 1_555
Nb3 P1 2.593435 1_455
Nb3 P0 2.721757 1_555
Ni0 P7 2.263093 1_455
Ni0 P7 2.263093 1_555
Ni0 P2 2.283125 1_554
Ni0 P3 2.357970 1_455
Ni0 P3 2.357970 1_555
Ni1 P5 2.263093 1_445
Ni1 P5 2.263093 1_545
Ni1 P0 2.283125 1_545
Ni1 P1 2.357970 1_555
Ni1 P1 2.357970 1_455
Ni2 P4 2.263093 1_555
Ni2 P4 2.263093 1_655
Ni2 P3 2.283125 1_556
Ni2 P2 2.357970 1_655
Ni2 P2 2.357970 1_555
Ni3 P6 2.263093 1_665
Ni3 P6 2.263093 1_565
Ni3 P1 2.283125 1_565
Ni3 P0 2.357970 1_555
Ni3 P0 2.357970 1_655
