# generated using pymatgen
data_Na6Ta2Ga2Si5SO24
_symmetry_space_group_name_H-M   'P 1'
_cell_length_a   8.97528984
_cell_length_b   8.96582452
_cell_length_c   22.26271776
_cell_angle_alpha   90.37142085
_cell_angle_beta   89.49211902
_cell_angle_gamma   120.12594849
_symmetry_Int_Tables_number   1
_chemical_formula_structural   Na6Ta2Ga2Si5SO24
_chemical_formula_sum   'Na18 Ta6 Ga6 Si15 S3 O72'
_cell_volume   1549.44685738
_cell_formula_units_Z   3
loop_
 _symmetry_equiv_pos_site_id
 _symmetry_equiv_pos_as_xyz
  1  'x, y, z'
loop_
 _atom_site_type_symbol
 _atom_site_label
 _atom_site_symmetry_multiplicity
 _atom_site_fract_x
 _atom_site_fract_y
 _atom_site_fract_z
 _atom_site_occupancy
  Na  Na0  1  0.63943657  0.01241251  0.24810829  1
  Na  Na1  1  0.36809245  0.35687943  0.25130409  1
  Na  Na2  1  0.99132518  0.62934740  0.24782569  1
  Na  Na3  1  0.99495756  0.35986820  0.74976332  1
  Na  Na4  1  0.29960004  0.34180695  0.57993672  1
  Na  Na5  1  0.66201755  0.96166886  0.58021761  1
  Na  Na6  1  0.66377658  0.69923182  0.07661588  1
  Na  Na7  1  0.02559067  0.33678136  0.08040153  1
  Na  Na8  1  0.95796932  0.66556571  0.91353141  1
  Na  Na9  1  0.71098417  0.03619501  0.91836018  1
  Na  Na10  1  0.32979112  0.30098467  0.91439221  1
  Na  Na11  1  0.69945666  0.67321611  0.41642919  1
  Na  Na12  1  0.00746698  0.00923426  0.49399279  1
  Na  Na13  1  0.99430973  0.99603648  0.99600431  1
  Na  Na14  1  0.66414712  0.33857204  0.83278710  1
  Na  Na15  1  0.66056687  0.32094304  0.33138880  1
  Na  Na16  1  0.32991219  0.68317692  0.16116707  1
  Na  Na17  1  0.33064311  0.67503410  0.66139658  1
  Ta  Ta0  1  0.99779000  0.99406975  0.64583883  1
  Ta  Ta1  1  0.99480095  0.99408208  0.14758067  1
  Ta  Ta2  1  0.66494271  0.33413018  0.68767058  1
  Ta  Ta3  1  0.65682991  0.32184563  0.47926800  1
  Ta  Ta4  1  0.34216621  0.67061847  0.31344310  1
  Ta  Ta5  1  0.33499003  0.65567914  0.80948644  1
  Ga  Ga0  1  0.00357722  0.02019374  0.35110089  1
  Ga  Ga1  1  0.98521199  0.99970640  0.84764490  1
  Ga  Ga2  1  0.67954496  0.32820325  0.18659039  1
  Ga  Ga3  1  0.69876468  0.35240725  0.98227396  1
  Ga  Ga4  1  0.33473760  0.67474315  0.01781147  1
  Ga  Ga5  1  0.34216053  0.66252299  0.52169507  1
  Si  Si0  1  0.28943125  0.00471950  0.25206374  1
  Si  Si1  1  0.71421320  0.70616486  0.25316454  1
  Si  Si2  1  0.99783911  0.29045781  0.25059177  1
  Si  Si3  1  0.28680932  0.27675812  0.75262949  1
  Si  Si4  1  0.00062780  0.71503523  0.75371801  1
  Si  Si5  1  0.70779899  -0.00045416  0.75128106  1
  Si  Si6  1  0.96285844  0.34219276  0.58246785  1
  Si  Si7  1  0.37190370  0.03356931  0.58356435  1
  Si  Si8  1  0.66929578  0.62365222  0.58158465  1
  Si  Si9  1  0.96365417  0.62518333  0.08323965  1
  Si  Si10  1  0.65714348  0.04207269  0.08220079  1
  Si  Si11  1  0.62506903  0.66422309  0.92008183  1
  Si  Si12  1  0.04496568  0.37353921  0.91913759  1
  Si  Si13  1  0.63090877  0.95805504  0.41893216  1
  Si  Si14  1  0.32450133  0.36799517  0.41912401  1
  S  S0  1  0.37730338  0.32971000  0.08319255  1
  S  S1  1  0.33349209  0.95596694  0.91743790  1
  S  S2  1  0.04632803  0.66747344  0.41828233  1
  O  O0  1  0.19868822  0.03829125  0.30820938  1
  O  O1  1  0.83414068  0.79053111  0.31057811  1
  O  O2  1  0.95273681  0.16259720  0.30567034  1
  O  O3  1  0.20311604  0.17029356  0.81315826  1
  O  O4  1  0.97004874  0.79592848  0.81393632  1
  O  O5  1  0.82606435  0.04598781  0.81038588  1
  O  O6  1  0.79789551  0.96916297  0.69143252  1
  O  O7  1  0.16452562  0.19849773  0.69289929  1
  O  O8  1  0.02901392  0.83615025  0.69447282  1
  O  O9  1  0.79749556  0.83487327  0.19302556  1
  O  O10  1  0.04073039  0.20837805  0.18972681  1
  O  O11  1  0.16100521  0.96591072  0.19280724  1
  O  O12  1  0.86685492  0.36059875  0.64283532  1
  O  O13  1  0.50162875  0.13490946  0.63981310  1
  O  O14  1  0.63924263  0.49654067  0.63849612  1
  O  O15  1  0.87516961  0.50766819  0.14270893  1
  O  O16  1  0.63462468  0.12588852  0.14379312  1
  O  O17  1  0.48029097  0.35561864  0.13764362  1
  O  O18  1  0.45310185  0.30304428  0.02818685  1
  O  O19  1  0.83841089  0.55531159  0.02416542  1
  O  O20  1  0.70037089  0.16534212  0.02259980  1
  O  O21  1  0.46484249  0.16820306  0.52587193  1
  O  O22  1  0.69983547  0.53470924  0.52168675  1
  O  O23  1  0.82648101  0.30104568  0.52672695  1
  O  O24  1  0.53869578  0.70353640  0.97820472  1
  O  O25  1  0.16675433  0.46466170  0.97728377  1
  O  O26  1  0.30243480  0.84811050  0.97126622  1
  O  O27  1  0.53789238  0.83731322  0.47657148  1
  O  O28  1  0.30476083  0.46174707  0.47801713  1
  O  O29  1  0.15095692  0.68848926  0.47055984  1
  O  O30  1  0.12664024  0.64147920  0.36152197  1
  O  O31  1  0.50364996  0.86609156  0.35866386  1
  O  O32  1  0.36013396  0.49934292  0.35933855  1
  O  O33  1  0.13655400  0.50122250  0.85994337  1
  O  O34  1  0.36185319  0.87353878  0.86342408  1
  O  O35  1  0.49615048  0.63748979  0.86195993  1
  O  O36  1  0.02104020  0.81563008  0.41228092  1
  O  O37  1  0.81348142  0.96429182  0.41031731  1
  O  O38  1  0.16205624  0.17825433  0.41131298  1
  O  O39  1  0.02745559  0.18298649  0.91271991  1
  O  O40  1  0.17938136  0.97419514  0.91282445  1
  O  O41  1  0.81719253  0.83464686  0.91236618  1
  O  O42  1  0.97321201  0.16278286  0.58927398  1
  O  O43  1  0.19052588  0.03366266  0.58978035  1
  O  O44  1  0.83879358  0.81617678  0.58836499  1
  O  O45  1  0.97831967  0.81828299  0.09031090  1
  O  O46  1  0.84032899  0.02792704  0.08919183  1
  O  O47  1  0.19798941  0.17421827  0.08791154  1
  O  O48  1  0.69256159  0.17229397  0.74257692  1
  O  O49  1  0.48078089  0.31026766  0.74388068  1
  O  O50  1  0.83565486  0.51907639  0.74374503  1
  O  O51  1  0.67978792  0.51362510  0.24093755  1
  O  O52  1  0.83295686  0.31739302  0.24502480  1
  O  O53  1  0.48078497  0.17042455  0.24272676  1
  O  O54  1  0.63118436  0.48254942  0.92348756  1
  O  O55  1  0.85254459  0.35640147  0.91997811  1
  O  O56  1  0.48972303  0.12898068  0.92189663  1
  O  O57  1  0.64687376  0.14994890  0.42187207  1
  O  O58  1  0.51340298  0.36988217  0.42134157  1
  O  O59  1  0.87071946  0.50705566  0.42039903  1
  O  O60  1  0.35538072  0.48358635  0.07997125  1
  O  O61  1  0.15051097  0.63719838  0.07574986  1
  O  O62  1  0.49915425  0.84217511  0.07733100  1
  O  O63  1  0.36217527  0.85196108  0.57588899  1
  O  O64  1  0.49944258  0.64249866  0.58038218  1
  O  O65  1  0.15328662  0.50526133  0.57738727  1
  O  O66  1  0.30378500  0.82658751  0.25699997  1
  O  O67  1  0.52218659  0.69480178  0.25656095  1
  O  O68  1  0.17295242  0.48308672  0.25732284  1
  O  O69  1  0.30140043  0.47082448  0.75688160  1
  O  O70  1  0.16919255  0.68670004  0.75835890  1
  O  O71  1  0.51658416  0.82968729  0.75833645  1
loop_
_geom_bond_atom_site_label_1
_geom_bond_atom_site_label_2
_geom_bond_distance
_geom_bond_site_symmetry_2
Na0 O52 2.394025 1_555
Na0 O53 2.465613 1_555
Na0 O67 2.499447 1_545
Na0 O16 2.550835 1_555
Na0 O66 2.616488 1_545
Na0 O2 2.757388 1_555
Na0 O31 2.765492 1_545
Na0 O9 2.874137 1_545
Na1 O53 2.354543 1_555
Na1 O51 2.429167 1_555
Na1 O68 2.519754 1_555
Na1 O67 2.626396 1_555
Na1 O17 2.717161 1_555
Na1 O32 2.733133 1_555
Na1 O0 2.780107 1_555
Na1 O10 2.899265 1_555
Na2 O52 2.419856 1_555
Na2 O51 2.451893 1_555
Na2 O66 2.461909 1_655
Na2 O68 2.564623 1_655
Na2 O15 2.573322 1_555
Na2 O30 2.795006 1_655
Na2 O1 2.831231 1_555
Na2 O11 2.885677 1_655
Na3 O48 2.375415 1_555
Na3 O69 2.416333 1_655
Na3 O50 2.480802 1_555
Na3 O70 2.543033 1_655
Na3 O12 2.654259 1_555
Na3 O33 2.763376 1_655
Na3 O5 2.787441 1_555
Na3 O7 2.857373 1_655
Na4 O64 2.373056 1_555
Na4 O65 2.410323 1_555
Na4 O43 2.434826 1_555
Na4 O28 2.507332 1_555
Na4 O42 2.544546 1_455
Na4 O7 2.805241 1_555
Na4 O21 2.886572 1_555
Na4 O14 2.952757 1_555
Na5 O63 2.359111 1_555
Na5 O42 2.458249 1_565
Na5 O64 2.475205 1_555
Na5 O44 2.517454 1_555
Na5 O27 2.563965 1_555
Na5 O6 2.755219 1_555
Na5 O23 2.891857 1_565
Na5 O13 2.903274 1_565
Na6 O62 2.392907 1_555
Na6 O60 2.455905 1_555
Na6 O24 2.479927 1_554
Na6 O45 2.487663 1_555
Na6 O46 2.565899 1_565
Na6 O19 2.731937 1_555
Na6 O9 2.860929 1_555
Na7 O61 2.343675 1_555
Na7 O46 2.418783 1_455
Na7 O60 2.565691 1_555
Na7 O25 2.591208 1_554
Na7 O47 2.611149 1_555
Na7 O10 2.732545 1_555
Na7 O20 2.841827 1_455
Na7 O15 2.847790 1_455
Na8 O41 2.412271 1_555
Na8 O55 2.443228 1_555
Na8 O40 2.467076 1_655
Na8 O4 2.489224 1_555
Na8 O54 2.550734 1_555
Na8 O19 2.667398 1_556
Na8 O33 2.911629 1_655
Na8 O26 2.975417 1_655
Na9 O41 2.432210 1_545
Na9 O39 2.461544 1_655
Na9 O55 2.489116 1_555
Na9 O56 2.509324 1_555
Na9 O5 2.592392 1_555
Na9 O20 2.609069 1_556
Na9 O24 2.906415 1_545
Na9 O34 2.983176 1_545
Na10 O54 2.365086 1_555
Na10 O39 2.367182 1_555
Na10 O3 2.533556 1_555
Na10 O40 2.537184 1_545
Na10 O56 2.587725 1_555
Na10 O18 2.769806 1_556
Na10 O35 2.861352 1_555
Na10 O25 2.889256 1_555
Na11 O37 2.279855 1_555
Na11 O58 2.374609 1_555
Na11 O36 2.503404 1_655
Na11 O1 2.612694 1_555
Na11 O59 2.625412 1_555
Na11 O22 2.659963 1_555
Na11 O27 2.853372 1_555
Na11 O32 2.932233 1_555
Na12 O38 2.343063 1_555
Na12 O37 2.451007 1_445
Na12 O36 2.550401 1_545
Na12 O42 2.620079 1_455
Na12 O43 2.643823 1_555
Na12 O44 2.657525 1_445
Na13 O41 2.407590 1_555
Na13 O39 2.421944 1_665
Na13 O40 2.548331 1_655
Na13 O46 2.575630 1_566
Na13 O45 2.603254 1_556
Na13 O47 2.678239 1_666
Na14 O54 2.483986 1_555
Na14 O49 2.514471 1_555
Na14 O50 2.530822 1_555
Na14 O55 2.536830 1_555
Na14 O48 2.579670 1_555
Na14 O56 2.637771 1_555
Na15 O52 2.467319 1_555
Na15 O53 2.481345 1_555
Na15 O57 2.503966 1_555
Na15 O58 2.543816 1_555
Na15 O51 2.609393 1_555
Na15 O59 2.670747 1_555
Na16 O62 2.373532 1_555
Na16 O61 2.399289 1_555
Na16 O66 2.553098 1_555
Na16 O60 2.623633 1_555
Na16 O68 2.691640 1_555
Na16 O67 2.716751 1_555
Na17 O63 2.408152 1_555
Na17 O65 2.435660 1_555
Na17 O64 2.453921 1_555
Na17 O70 2.619969 1_555
Na17 O71 2.658491 1_555
Na17 O69 2.738274 1_555
Ga0 O2 1.863069 1_455
Ga0 O0 1.921429 1_555
Ga0 O38 1.952990 1_555
Ga0 O37 2.002615 1_445
Ga0 O1 2.055096 1_445
Ga0 O36 2.359722 1_545
Ga1 O5 1.876429 1_565
Ga1 O4 1.911594 1_555
Ga1 O3 1.933818 1_665
Ga1 O41 2.071051 1_555
Ga1 O39 2.072771 1_665
Ga1 O40 2.375772 1_655
Ga2 O16 1.900248 1_555
Ga2 O52 1.940363 1_555
Ga2 O15 1.944294 1_555
Ga2 O53 2.048324 1_555
Ga2 O51 2.048903 1_555
Ga2 O17 2.219314 1_555
Ga3 O19 1.860142 1_556
Ga3 O20 1.913945 1_556
Ga3 O55 1.935666 1_555
Ga3 O54 2.046100 1_555
Ga3 O18 2.255787 1_556
Ga3 O56 2.361531 1_555
Ga4 O24 1.922273 1_554
Ga4 O25 1.945878 1_554
Ga4 O61 1.979948 1_555
Ga4 O62 1.993025 1_555
Ga4 O26 2.013082 1_554
Ga4 O60 2.289276 1_555
Ga5 O28 1.917080 1_555
Ga5 O27 1.943410 1_555
Ga5 O65 1.996273 1_555
Ga5 O64 2.005535 1_555
Ga5 O63 2.010901 1_555
Ga5 O29 2.175849 1_555
O0 Si0 1.593569 1_555
O1 Si1 1.599712 1_555
O2 Si2 1.589090 1_555
O3 Si3 1.603196 1_555
O4 Si4 1.606021 1_655
O5 Si5 1.614157 1_555
O6 Si5 1.643377 1_565
O6 Ta0 1.966594 1_555
O7 Si3 1.644965 1_555
O7 Ta0 1.986492 1_445
O8 Si4 1.648828 1_555
O8 Ta0 1.918097 1_455
O9 Si1 1.679095 1_555
O9 Ta1 1.909632 1_555
O10 Si2 1.669743 1_455
O10 Ta1 1.982499 1_445
O11 Si0 1.675835 1_565
O11 Ta1 1.926390 1_455
O12 Si6 1.641708 1_555
O12 Ta2 1.968776 1_555
O13 Si7 1.642709 1_555
O13 Ta2 1.961892 1_555
O14 Si8 1.637366 1_555
O14 Ta2 1.932449 1_555
O15 Si9 1.628855 1_555
O16 Si10 1.618636 1_555
O17 S0 1.475991 1_555
O18 S0 1.471148 1_555
O19 Si9 1.641437 1_555
O20 Si10 1.646842 1_555
O21 Si7 1.671207 1_555
O21 Ta3 1.883455 1_555
O22 Si8 1.639633 1_555
O22 Ta3 1.981614 1_555
O23 Si6 1.655897 1_555
O23 Ta3 1.945698 1_555
O24 Si11 1.627935 1_555
O25 Si12 1.628790 1_555
O26 S1 1.478997 1_555
O27 Si13 1.614721 1_555
O28 Si14 1.608746 1_555
O29 S2 1.452860 1_555
O30 S2 1.522945 1_555
O30 Ta4 2.101307 1_555
O31 Si13 1.688836 1_555
O31 Ta4 1.907592 1_555
O32 Si14 1.701576 1_555
O32 Ta4 1.923537 1_555
O33 Si12 1.666930 1_555
O33 Ta5 1.964820 1_555
O34 S1 1.492934 1_555
O34 Ta5 2.194853 1_555
O35 Si11 1.677715 1_555
O35 Ta5 1.937204 1_555
O36 S2 1.462649 1_555
O37 Si13 1.621002 1_555
O38 Si14 1.600286 1_555
O39 Si12 1.640630 1_555
O40 S1 1.476523 1_555
O41 Si11 1.640428 1_555
O42 Si6 1.665085 1_555
O42 Ta0 2.070545 1_545
O43 Si7 1.632986 1_555
O43 Ta0 2.006747 1_445
O44 Si8 1.637503 1_555
O44 Ta0 1.984615 1_555
O45 Si9 1.675584 1_555
O45 Ta1 1.968517 1_555
O46 Si10 1.719774 1_555
O46 Ta1 2.040434 1_545
O47 S0 1.513745 1_555
O47 Ta1 2.174208 1_445
O48 Si5 1.634659 1_555
O48 Ta2 2.012568 1_555
O49 Si3 1.621362 1_555
O49 Ta2 1.988886 1_555
O50 Si4 1.648617 1_655
O50 Ta2 2.027900 1_555
O51 Si1 1.615422 1_555
O52 Si2 1.620514 1_555
O53 Si0 1.623726 1_555
O54 Si11 1.659321 1_555
O55 Si12 1.655203 1_655
O56 S1 1.483032 1_545
O57 Si13 1.654125 1_545
O57 Ta3 1.963228 1_555
O58 Si14 1.688178 1_555
O58 Ta3 2.024564 1_555
O59 S2 1.509664 1_655
O59 Ta3 2.223530 1_555
O60 S0 1.490388 1_555
O61 Si9 1.632781 1_455
O62 Si10 1.638217 1_565
O63 Si7 1.594372 1_565
O64 Si8 1.616377 1_555
O65 Si6 1.600598 1_455
O66 Si0 1.669870 1_565
O66 Ta4 2.041363 1_555
O67 Si1 1.675728 1_555
O67 Ta4 1.968980 1_555
O68 Si2 1.658772 1_455
O68 Ta4 2.034131 1_555
O69 Si3 1.680161 1_555
O69 Ta5 1.920638 1_555
O70 Si4 1.659236 1_555
O70 Ta5 2.009206 1_555
O71 Si5 1.632195 1_565
O71 Ta5 1.955717 1_555
