# generated using pymatgen
data_K9Fe2Se7
_symmetry_space_group_name_H-M   'P 1'
_cell_length_a   13.25471000
_cell_length_b   13.25471000
_cell_length_c   13.25471000
_cell_angle_alpha   90.00000000
_cell_angle_beta   90.00000000
_cell_angle_gamma   90.00000000
_symmetry_Int_Tables_number   1
_chemical_formula_structural   K9Fe2Se7
_chemical_formula_sum   'K36 Fe8 Se28'
_cell_volume   2328.68470505
_cell_formula_units_Z   4
loop_
 _symmetry_equiv_pos_site_id
 _symmetry_equiv_pos_as_xyz
  1  'x, y, z'
loop_
 _atom_site_type_symbol
 _atom_site_label
 _atom_site_symmetry_multiplicity
 _atom_site_fract_x
 _atom_site_fract_y
 _atom_site_fract_z
 _atom_site_occupancy
  K  K0  1  0.83216800  0.00256400  0.30206900  1
  K  K1  1  0.30206900  0.83216800  0.00256400  1
  K  K2  1  0.00256400  0.30206900  0.83216800  1
  K  K3  1  0.49743600  0.69793100  0.33216800  1
  K  K4  1  0.80206900  0.66783200  0.99743600  1
  K  K5  1  0.99743600  0.80206900  0.66783200  1
  K  K6  1  0.19793100  0.16783200  0.50256400  1
  K  K7  1  0.69793100  0.33216800  0.49743600  1
  K  K8  1  0.50256400  0.19793100  0.16783200  1
  K  K9  1  0.33216800  0.49743600  0.69793100  1
  K  K10  1  0.16783200  0.50256400  0.19793100  1
  K  K11  1  0.66783200  0.99743600  0.80206900  1
  K  K12  1  0.17968900  0.04199500  0.79418700  1
  K  K13  1  0.79418700  0.17968900  0.04199500  1
  K  K14  1  0.04199500  0.79418700  0.17968900  1
  K  K15  1  0.45800500  0.20581300  0.67968900  1
  K  K16  1  0.29418700  0.32031100  0.95800500  1
  K  K17  1  0.95800500  0.29418700  0.32031100  1
  K  K18  1  0.70581300  0.82031100  0.54199500  1
  K  K19  1  0.20581300  0.67968900  0.45800500  1
  K  K20  1  0.54199500  0.70581300  0.82031100  1
  K  K21  1  0.67968900  0.45800500  0.20581300  1
  K  K22  1  0.82031100  0.54199500  0.70581300  1
  K  K23  1  0.32031100  0.95800500  0.29418700  1
  K  K24  1  0.41747200  0.41747200  0.41747200  1
  K  K25  1  0.08252800  0.58252800  0.91747200  1
  K  K26  1  0.91747200  0.08252800  0.58252800  1
  K  K27  1  0.58252800  0.91747200  0.08252800  1
  K  K28  1  0.24034200  0.24034200  0.24034200  1
  K  K29  1  0.25965800  0.75965800  0.74034200  1
  K  K30  1  0.74034200  0.25965800  0.75965800  1
  K  K31  1  0.75965800  0.74034200  0.25965800  1
  K  K32  1  0.05708100  0.05708100  0.05708100  1
  K  K33  1  0.44291900  0.94291900  0.55708100  1
  K  K34  1  0.55708100  0.44291900  0.94291900  1
  K  K35  1  0.94291900  0.55708100  0.44291900  1
  Fe  Fe0  1  0.57018200  0.57018200  0.57018200  1
  Fe  Fe1  1  0.92981800  0.42981800  0.07018200  1
  Fe  Fe2  1  0.07018200  0.92981800  0.42981800  1
  Fe  Fe3  1  0.42981800  0.07018200  0.92981800  1
  Fe  Fe4  1  0.89952400  0.89952400  0.89952400  1
  Fe  Fe5  1  0.60047600  0.10047600  0.39952400  1
  Fe  Fe6  1  0.39952400  0.60047600  0.10047600  1
  Fe  Fe7  1  0.10047600  0.39952400  0.60047600  1
  Se  Se0  1  0.91429100  0.06946800  0.83221900  1
  Se  Se1  1  0.83221900  0.91429100  0.06946800  1
  Se  Se2  1  0.06946800  0.83221900  0.91429100  1
  Se  Se3  1  0.43053200  0.16778100  0.41429100  1
  Se  Se4  1  0.33221900  0.58570900  0.93053200  1
  Se  Se5  1  0.93053200  0.33221900  0.58570900  1
  Se  Se6  1  0.66778100  0.08570900  0.56946800  1
  Se  Se7  1  0.16778100  0.41429100  0.43053200  1
  Se  Se8  1  0.56946800  0.66778100  0.08570900  1
  Se  Se9  1  0.41429100  0.43053200  0.16778100  1
  Se  Se10  1  0.08570900  0.56946800  0.66778100  1
  Se  Se11  1  0.58570900  0.93053200  0.33221900  1
  Se  Se12  1  0.07518000  0.06191300  0.31022100  1
  Se  Se13  1  0.31022100  0.07518000  0.06191300  1
  Se  Se14  1  0.06191300  0.31022100  0.07518000  1
  Se  Se15  1  0.43808700  0.68977900  0.57518000  1
  Se  Se16  1  0.81022100  0.42482000  0.93808700  1
  Se  Se17  1  0.93808700  0.81022100  0.42482000  1
  Se  Se18  1  0.18977900  0.92482000  0.56191300  1
  Se  Se19  1  0.68977900  0.57518000  0.43808700  1
  Se  Se20  1  0.56191300  0.18977900  0.92482000  1
  Se  Se21  1  0.57518000  0.43808700  0.68977900  1
  Se  Se22  1  0.92482000  0.56191300  0.18977900  1
  Se  Se23  1  0.42482000  0.93808700  0.81022100  1
  Se  Se24  1  0.79092800  0.79092800  0.79092800  1
  Se  Se25  1  0.70907200  0.20907200  0.29092800  1
  Se  Se26  1  0.29092800  0.70907200  0.20907200  1
  Se  Se27  1  0.20907200  0.29092800  0.70907200  1
loop_
_geom_bond_atom_site_label_1
_geom_bond_atom_site_label_2
_geom_bond_distance
_geom_bond_site_symmetry_2
K0 Se25 3.190018 1_555
K0 Se1 3.297610 1_545
K0 Se12 3.317482 1_655
K0 Se17 3.334356 1_545
K0 Se11 3.426789 1_545
K1 Se26 3.190018 1_555
K1 Se2 3.297610 1_554
K1 Se13 3.317482 1_565
K1 Se23 3.334356 1_554
K1 Se4 3.426789 1_554
K2 Se27 3.190018 1_555
K2 Se0 3.297610 1_455
K2 Se14 3.317482 1_556
K2 Se16 3.334356 1_455
K2 Se5 3.426789 1_455
K3 Se26 3.190018 1_555
K3 Se11 3.297610 1_555
K3 Se15 3.317482 1_555
K3 Se19 3.334356 1_555
K3 Se8 3.426789 1_555
K4 Se24 3.190018 1_555
K4 Se8 3.297610 1_556
K4 Se16 3.317482 1_555
K4 Se22 3.334356 1_556
K4 Se1 3.426789 1_556
K5 Se24 3.190018 1_555
K5 Se10 3.297610 1_655
K5 Se17 3.317482 1_555
K5 Se18 3.334356 1_655
K5 Se2 3.426789 1_655
K6 Se27 3.190018 1_555
K6 Se3 3.297610 1_555
K6 Se18 3.317482 1_545
K6 Se12 3.334356 1_555
K6 Se7 3.426789 1_555
K7 Se25 3.190018 1_555
K7 Se5 3.297610 1_555
K7 Se19 3.317482 1_555
K7 Se21 3.334356 1_555
K7 Se6 3.426789 1_555
K8 Se25 3.190018 1_555
K8 Se9 3.297610 1_555
K8 Se20 3.317482 1_554
K8 Se13 3.334356 1_555
K8 Se3 3.426789 1_555
K9 Se27 3.190018 1_555
K9 Se4 3.297610 1_555
K9 Se21 3.317482 1_555
K9 Se15 3.334356 1_555
K9 Se10 3.426789 1_555
K10 Se26 3.190018 1_555
K10 Se7 3.297610 1_555
K10 Se22 3.317482 1_455
K10 Se14 3.334356 1_555
K10 Se9 3.426789 1_555
K11 Se24 3.190018 1_555
K11 Se6 3.297610 1_565
K11 Se23 3.317482 1_555
K11 Se20 3.334356 1_565
K11 Se0 3.426789 1_565
K12 Se18 3.450886 1_545
K12 Se27 3.508759 1_555
K12 Se2 3.521355 1_545
K12 Se23 3.535386 1_545
K12 Se0 3.572318 1_455
K13 Se20 3.450886 1_554
K13 Se25 3.508759 1_555
K13 Se0 3.521355 1_554
K13 Se16 3.535386 1_554
K13 Se1 3.572318 1_545
K14 Se22 3.450886 1_455
K14 Se26 3.508759 1_555
K14 Se1 3.521355 1_455
K14 Se17 3.535386 1_455
K14 Se2 3.572318 1_554
K15 Se21 3.450886 1_555
K15 Se27 3.508759 1_555
K15 Se6 3.521355 1_555
K15 Se20 3.535386 1_555
K15 Se3 3.572318 1_555
K16 Se14 3.450886 1_556
K16 Se27 3.508759 1_555
K16 Se9 3.521355 1_556
K16 Se13 3.535386 1_556
K16 Se4 3.572318 1_555
K17 Se12 3.450886 1_655
K17 Se25 3.508759 1_555
K17 Se7 3.521355 1_655
K17 Se14 3.535386 1_655
K17 Se5 3.572318 1_555
K18 Se17 3.450886 1_555
K18 Se24 3.508759 1_555
K18 Se11 3.521355 1_555
K18 Se19 3.535386 1_555
K18 Se6 3.572318 1_565
K19 Se15 3.450886 1_555
K19 Se26 3.508759 1_555
K19 Se10 3.521355 1_555
K19 Se18 3.535386 1_555
K19 Se7 3.572318 1_555
K20 Se23 3.450886 1_555
K20 Se24 3.508759 1_555
K20 Se4 3.521355 1_555
K20 Se15 3.535386 1_555
K20 Se8 3.572318 1_556
K21 Se19 3.450886 1_555
K21 Se25 3.508759 1_555
K21 Se8 3.521355 1_555
K21 Se22 3.535386 1_555
K21 Se9 3.572318 1_555
K22 Se16 3.450886 1_555
K22 Se24 3.508759 1_555
K22 Se5 3.521355 1_555
K22 Se21 3.535386 1_555
K22 Se10 3.572318 1_655
K23 Se13 3.450886 1_565
K23 Se26 3.508759 1_555
K23 Se3 3.521355 1_565
K23 Se12 3.535386 1_565
K23 Se11 3.572318 1_555
K24 Se3 3.314374 1_555
K24 Se9 3.314374 1_555
K24 Se7 3.314374 1_555
K25 Se2 3.314374 1_555
K25 Se10 3.314374 1_555
K25 Se4 3.314374 1_555
K26 Se6 3.314374 1_555
K26 Se0 3.314374 1_555
K26 Se5 3.314374 1_555
K27 Se1 3.314374 1_555
K27 Se8 3.314374 1_555
K27 Se11 3.314374 1_555
K28 Se13 3.353166 1_555
K28 Se12 3.353166 1_555
K28 Se14 3.353166 1_555
K28 Se3 3.549085 1_555
K28 Se7 3.549085 1_555
K28 Se9 3.549085 1_555
K29 Se15 3.353166 1_555
K29 Se18 3.353166 1_555
K29 Se23 3.353166 1_555
K29 Se4 3.549085 1_555
K29 Se10 3.549085 1_555
K29 Se2 3.549085 1_555
K30 Se21 3.353166 1_555
K30 Se20 3.353166 1_555
K30 Se16 3.353166 1_555
K30 Se6 3.549085 1_555
K30 Se5 3.549085 1_555
K30 Se0 3.549085 1_555
K31 Se19 3.353166 1_555
K31 Se22 3.353166 1_555
K31 Se17 3.353166 1_555
K31 Se8 3.549085 1_555
K31 Se11 3.549085 1_555
K31 Se1 3.549085 1_555
K32 Se14 3.364472 1_555
K32 Se13 3.364472 1_555
K32 Se12 3.364472 1_555
K32 Se1 3.534446 1_445
K32 Se2 3.534446 1_544
K32 Se0 3.534446 1_454
K33 Se18 3.364472 1_555
K33 Se23 3.364472 1_555
K33 Se15 3.364472 1_555
K33 Se11 3.534446 1_555
K33 Se3 3.534446 1_565
K33 Se6 3.534446 1_565
K34 Se20 3.364472 1_555
K34 Se16 3.364472 1_555
K34 Se21 3.364472 1_555
K34 Se4 3.534446 1_555
K34 Se9 3.534446 1_556
K34 Se8 3.534446 1_556
K35 Se22 3.364472 1_555
K35 Se17 3.364472 1_555
K35 Se19 3.364472 1_555
K35 Se5 3.534446 1_555
K35 Se7 3.534446 1_655
K35 Se10 3.534446 1_655
Fe0 Se19 2.362817 1_555
Fe0 Se15 2.362817 1_555
Fe0 Se21 2.362817 1_555
Fe0 K24 3.505890 1_555
Fe1 Se16 2.362817 1_554
Fe1 Se22 2.362817 1_555
Fe1 Se14 2.362817 1_655
Fe1 K25 3.505890 1_654
Fe2 Se17 2.362817 1_455
Fe2 Se18 2.362817 1_555
Fe2 Se12 2.362817 1_565
Fe2 K26 3.505890 1_465
Fe3 Se23 2.362817 1_545
Fe3 Se20 2.362817 1_555
Fe3 Se13 2.362817 1_556
Fe3 K27 3.505890 1_546
Fe4 Se0 2.430676 1_565
Fe4 Se1 2.430676 1_556
Fe4 Se2 2.430676 1_655
Fe4 Se24 2.493129 1_555
Fe5 Se6 2.430676 1_555
Fe5 Se3 2.430676 1_555
Fe5 Se11 2.430676 1_545
Fe5 Se25 2.493129 1_555
Fe6 Se8 2.430676 1_555
Fe6 Se9 2.430676 1_555
Fe6 Se4 2.430676 1_554
Fe6 Se26 2.493129 1_555
Fe7 Se10 2.430676 1_555
Fe7 Se7 2.430676 1_555
Fe7 Se5 2.430676 1_455
Fe7 Se27 2.493129 1_555
