# generated using pymatgen
data_NaZr2Ga2P3(SO8)3
_symmetry_space_group_name_H-M   'P 1'
_cell_length_a   8.73019838
_cell_length_b   8.74961401
_cell_length_c   22.70764218
_cell_angle_alpha   90.10377808
_cell_angle_beta   89.50933251
_cell_angle_gamma   120.05385195
_symmetry_Int_Tables_number   1
_chemical_formula_structural   NaZr2Ga2P3(SO8)3
_chemical_formula_sum   'Na3 Zr6 Ga6 P9 S9 O72'
_cell_volume   1501.28121780
_cell_formula_units_Z   3
loop_
 _symmetry_equiv_pos_site_id
 _symmetry_equiv_pos_as_xyz
  1  'x, y, z'
loop_
 _atom_site_type_symbol
 _atom_site_label
 _atom_site_symmetry_multiplicity
 _atom_site_fract_x
 _atom_site_fract_y
 _atom_site_fract_z
 _atom_site_occupancy
  Na  Na0  1  0.67668187  0.33492070  0.83417531  1
  Na  Na1  1  0.66337472  0.33929327  0.33040163  1
  Na  Na2  1  0.34466278  0.67401615  0.17235286  1
  Zr  Zr0  1  0.00677776  0.99272234  0.35456841  1
  Zr  Zr1  1  0.99245690  0.00167549  0.85479644  1
  Zr  Zr2  1  0.99404261  0.99174285  0.64802513  1
  Zr  Zr3  1  0.99840934  0.99865360  0.14452935  1
  Zr  Zr4  1  0.33449770  0.66149812  0.02354023  1
  Zr  Zr5  1  0.32761026  0.66266025  0.52089852  1
  Ga  Ga0  1  0.67506835  0.33287738  0.68917883  1
  Ga  Ga1  1  0.64496675  0.32509724  0.18681867  1
  Ga  Ga2  1  0.67148271  0.32445492  0.98414495  1
  Ga  Ga3  1  0.66498289  0.34190843  0.47611845  1
  Ga  Ga4  1  0.33385575  0.66340031  0.31440210  1
  Ga  Ga5  1  0.32021758  0.66838280  0.81140648  1
  P  P0  1  0.30132848  0.99558644  0.24952279  1
  P  P1  1  0.69774793  0.69655514  0.25009055  1
  P  P2  1  -0.00140868  0.69848768  0.75080476  1
  P  P3  1  0.69261530  0.99576311  0.75103469  1
  P  P4  1  0.66622761  0.05614372  0.08477587  1
  P  P5  1  0.39099642  0.33170149  0.08258642  1
  P  P6  1  0.03811412  0.38669386  0.91509409  1
  P  P7  1  0.34182244  0.38233258  0.41473255  1
  P  P8  1  0.03947090  0.65320760  0.41526503  1
  S  S0  1  0.99830531  0.29956756  0.25016274  1
  S  S1  1  0.30105233  0.30006608  0.74959153  1
  S  S2  1  0.94235811  0.33005547  0.58289482  1
  S  S3  1  0.39172509  0.05897080  0.58352009  1
  S  S4  1  0.66572431  0.61001876  0.58403676  1
  S  S5  1  0.94354850  0.61113138  0.08387678  1
  S  S6  1  0.61658812  0.65345459  0.91471666  1
  S  S7  1  0.34260961  0.96249344  0.91538703  1
  S  S8  1  0.62112066  0.96421075  0.41635853  1
  O  O0  1  0.21396828  0.02914825  0.30466464  1
  O  O1  1  0.81516357  0.78830293  0.30474979  1
  O  O2  1  0.96997131  0.18801477  0.30313979  1
  O  O3  1  0.21862405  0.18351343  0.80193915  1
  O  O4  1  0.96521900  0.78876052  0.80431859  1
  O  O5  1  0.82065116  0.03616484  0.80378489  1
  O  O6  1  0.78663539  0.97019709  0.69554866  1
  O  O7  1  0.18748560  0.21541342  0.69682133  1
  O  O8  1  0.02841252  0.81786904  0.69525167  1
  O  O9  1  0.78614820  0.81608349  0.19528642  1
  O  O10  1  0.02855292  0.21634877  0.19708460  1
  O  O11  1  0.18432488  0.96928342  0.19530836  1
  O  O12  1  0.86669273  0.36195402  0.63684168  1
  O  O13  1  0.49728802  0.13679879  0.63706011  1
  O  O14  1  0.63656735  0.50297703  0.63733593  1
  O  O15  1  0.86873657  0.50458869  0.13720312  1
  O  O16  1  0.63575483  0.13764201  0.13981279  1
  O  O17  1  0.50174343  0.37237526  0.13778936  1
  O  O18  1  0.47298380  0.30975385  0.02523433  1
  O  O19  1  0.84543235  0.53794792  0.02924296  1
  O  O20  1  0.69877544  0.15928449  0.02706568  1
  O  O21  1  0.47020761  0.16466141  0.52969039  1
  O  O22  1  0.69779956  0.53508316  0.53024082  1
  O  O23  1  0.83676283  0.30269855  0.52995621  1
  O  O24  1  0.54058853  0.68803978  0.96860884  1
  O  O25  1  0.15269470  0.46854533  0.97037670  1
  O  O26  1  0.31283198  0.85413348  0.96874945  1
  O  O27  1  0.54133791  0.85399953  0.47040356  1
  O  O28  1  0.31520398  0.46719101  0.47189079  1
  O  O29  1  0.15289521  0.68738344  0.47176003  1
  O  O30  1  0.12832425  0.62679970  0.36104264  1
  O  O31  1  0.51011446  0.88386288  0.36402130  1
  O  O32  1  0.37627225  0.50182368  0.36131774  1
  O  O33  1  0.12815763  0.50036505  0.86000442  1
  O  O34  1  0.37328819  0.88153240  0.86249799  1
  O  O35  1  0.50881979  0.63053305  0.86237048  1
  O  O36  1  0.01794151  0.81722234  0.40984402  1
  O  O37  1  0.79691644  0.98204815  0.40975322  1
  O  O38  1  0.17419860  0.20123401  0.40808616  1
  O  O39  1  0.02191608  0.20269427  0.90667098  1
  O  O40  1  0.18147916  0.97761680  0.90784080  1
  O  O41  1  0.79499505  0.81524294  0.90913385  1
  O  O42  1  0.96648143  0.17483798  0.59044227  1
  O  O43  1  0.21206691  0.03796685  0.59076636  1
  O  O44  1  0.82556801  0.78972840  0.59013447  1
  O  O45  1  0.96677599  0.79008721  0.08890791  1
  O  O46  1  0.82794553  0.03073607  0.09211679  1
  O  O47  1  0.20451817  0.16950754  0.09028789  1
  O  O48  1  0.67776549  0.16332983  0.74220422  1
  O  O49  1  0.47590779  0.31428581  0.74154259  1
  O  O50  1  0.82824856  0.51714572  0.74209379  1
  O  O51  1  0.68818374  0.51664931  0.24290959  1
  O  O52  1  0.84009936  0.31670610  0.24315915  1
  O  O53  1  0.48462520  0.16344159  0.24489553  1
  O  O54  1  0.63787485  0.49802606  0.92217144  1
  O  O55  1  0.85179337  0.36441893  0.92294469  1
  O  O56  1  0.49947153  0.14125456  0.92135772  1
  O  O57  1  0.63833268  0.14011394  0.42467117  1
  O  O58  1  0.50511769  0.35864446  0.42337111  1
  O  O59  1  0.85511432  0.48708423  0.42407900  1
  O  O60  1  0.36536826  0.49742540  0.07740774  1
  O  O61  1  0.12747692  0.63585554  0.07857616  1
  O  O62  1  0.49838746  0.86779761  0.07804853  1
  O  O63  1  0.37043770  0.88028613  0.57696651  1
  O  O64  1  0.51070971  0.63421755  0.57764773  1
  O  O65  1  0.12194461  0.48930776  0.57750041  1
  O  O66  1  0.31382976  0.82717338  0.25831928  1
  O  O67  1  0.51414573  0.68127836  0.25763606  1
  O  O68  1  0.16088628  0.47432310  0.25570560  1
  O  O69  1  0.31607090  0.47333710  0.75803490  1
  O  O70  1  0.16312899  0.68439676  0.75773244  1
  O  O71  1  0.51747838  0.82909242  0.76214869  1
loop_
_geom_bond_atom_site_label_1
_geom_bond_atom_site_label_2
_geom_bond_distance
_geom_bond_site_symmetry_2
Na0 O55 2.474393 1_555
Na0 O50 2.552765 1_555
Na0 O56 2.553025 1_555
Na0 O54 2.570315 1_555
Na0 O48 2.572604 1_555
Na0 O49 2.697087 1_555
Na1 O51 2.463587 1_555
Na1 O53 2.491723 1_555
Na1 O58 2.564645 1_555
Na1 O52 2.568209 1_555
Na1 O59 2.623364 1_555
Na1 O57 2.700214 1_555
Na2 O67 2.428604 1_555
Na2 O66 2.453923 1_555
Na2 O68 2.522214 1_555
Na2 O62 2.635591 1_555
Na2 O60 2.707262 1_555
Na2 O61 2.770126 1_555
Ga0 O50 1.921582 1_555
Ga0 O48 1.921721 1_555
Ga0 O12 1.953598 1_555
Ga0 O13 2.027290 1_555
Ga0 O49 2.036033 1_555
Ga0 O14 2.056233 1_555
Ga1 O17 1.875540 1_555
Ga1 O53 1.921266 1_555
Ga1 O16 1.923261 1_555
Ga1 O51 1.985136 1_555
Ga1 O15 2.108988 1_555
Ga1 O52 2.169601 1_555
Ga2 O20 1.857201 1_556
Ga2 O18 1.907787 1_556
Ga2 O55 1.986071 1_555
Ga2 O19 2.005644 1_556
Ga2 O56 2.115324 1_555
Ga2 O54 2.198640 1_555
Ga3 O59 1.903964 1_555
Ga3 O58 1.907331 1_555
Ga3 O22 1.990671 1_555
Ga3 O21 2.026435 1_555
Ga3 O57 2.030291 1_555
Ga3 O23 2.099892 1_555
Ga4 O32 1.951230 1_555
Ga4 O30 1.958824 1_555
Ga4 O67 1.970480 1_555
Ga4 O66 1.991757 1_555
Ga4 O68 2.077961 1_555
Ga4 O31 2.099287 1_555
Ga5 O70 1.899375 1_555
Ga5 O33 1.922398 1_555
Ga5 O71 1.934238 1_555
Ga5 O34 2.043203 1_555
Ga5 O69 2.076991 1_555
Ga5 O35 2.177206 1_555
O0 P0 1.562817 1_545
O0 Zr0 2.011540 1_545
O1 P1 1.558740 1_555
O1 Zr0 2.074941 1_655
O2 S0 1.489412 1_555
O2 Zr0 2.224959 1_645
O3 S1 1.491809 1_555
O3 Zr1 2.165717 1_455
O4 P2 1.551242 1_655
O4 Zr1 2.096212 1_565
O5 P3 1.560389 1_545
O5 Zr1 2.041304 1_555
O6 P3 1.573671 1_555
O6 Zr2 2.025863 1_555
O7 S1 1.499691 1_555
O7 Zr2 2.150246 1_445
O8 P2 1.573830 1_555
O8 Zr2 2.005785 1_455
O9 P1 1.554960 1_555
O9 Zr3 2.078270 1_555
O10 S0 1.495515 1_455
O10 Zr3 2.148631 1_445
O11 P0 1.548214 1_555
O11 Zr3 2.116814 1_455
O12 S2 1.477993 1_555
O13 S3 1.476051 1_555
O14 S4 1.472015 1_555
O15 S5 1.463763 1_555
O16 P4 1.523890 1_555
O17 P5 1.518971 1_555
O18 P5 1.538202 1_555
O19 S5 1.465872 1_555
O20 P4 1.534117 1_555
O21 S3 1.474401 1_555
O22 S4 1.475023 1_555
O23 S2 1.465989 1_555
O24 S6 1.488371 1_555
O24 Zr4 2.095499 1_556
O25 P6 1.545990 1_555
O25 Zr4 2.041626 1_556
O26 S7 1.478743 1_555
O26 Zr4 2.180721 1_556
O27 S8 1.496004 1_555
O27 Zr5 2.107248 1_555
O28 P7 1.566544 1_555
O28 Zr5 1.996210 1_555
O29 P8 1.561884 1_555
O29 Zr5 1.994715 1_555
O30 P8 1.527500 1_555
O31 S8 1.476522 1_555
O32 P7 1.529087 1_555
O33 P6 1.541618 1_555
O34 S7 1.482343 1_555
O35 S6 1.472278 1_555
O36 P8 1.543081 1_555
O36 Zr0 2.025312 1_555
O37 S8 1.469178 1_555
O37 Zr0 2.173808 1_655
O38 P7 1.534732 1_555
O38 Zr0 2.071978 1_545
O39 P6 1.555556 1_555
O39 Zr1 2.022824 1_455
O40 S7 1.488735 1_555
O40 Zr1 2.145048 1_465
O41 S6 1.494896 1_555
O41 Zr1 2.075894 1_565
O42 S2 1.485290 1_555
O42 Zr2 2.175580 1_545
O43 S3 1.492603 1_555
O43 Zr2 2.159974 1_445
O44 S4 1.497879 1_555
O44 Zr2 2.106259 1_555
O45 S5 1.479055 1_555
O45 Zr3 2.120029 1_555
O46 P4 1.545641 1_555
O46 Zr3 2.039596 1_545
O47 P5 1.541690 1_555
O47 Zr3 2.064945 1_445
O48 P3 1.548705 1_545
O49 S1 1.477913 1_555
O50 P2 1.551992 1_655
O51 P1 1.542410 1_555
O52 S0 1.471974 1_555
O53 P0 1.540255 1_545
O54 S6 1.472121 1_555
O55 P6 1.547019 1_655
O56 S7 1.482269 1_545
O57 S8 1.481479 1_545
O58 P7 1.553918 1_555
O59 P8 1.547739 1_655
O60 P5 1.578755 1_555
O60 Zr4 2.007303 1_555
O61 S5 1.512784 1_455
O61 Zr4 2.105897 1_555
O62 P4 1.571755 1_565
O62 Zr4 2.067068 1_555
O63 S3 1.486465 1_565
O63 Zr5 2.161663 1_555
O64 S4 1.479120 1_555
O64 Zr5 2.170854 1_555
O65 S2 1.491243 1_455
O65 Zr5 2.101461 1_555
O66 P0 1.544565 1_555
O67 P1 1.548302 1_555
O68 S0 1.482218 1_455
O69 S1 1.467191 1_555
O70 P2 1.511507 1_555
O71 P3 1.513110 1_555
