# generated using pymatgen
data_MgMn6(O2F)4
_symmetry_space_group_name_H-M   'P 1'
_cell_length_a   5.20297301
_cell_length_b   7.67606896
_cell_length_c   5.73513482
_cell_angle_alpha   98.26166236
_cell_angle_beta   95.57622569
_cell_angle_gamma   85.97849119
_symmetry_Int_Tables_number   1
_chemical_formula_structural   MgMn6(O2F)4
_chemical_formula_sum   'Mg1 Mn6 O8 F4'
_cell_volume   225.23511856
_cell_formula_units_Z   1
loop_
 _symmetry_equiv_pos_site_id
 _symmetry_equiv_pos_as_xyz
  1  'x, y, z'
loop_
 _atom_site_type_symbol
 _atom_site_label
 _atom_site_symmetry_multiplicity
 _atom_site_fract_x
 _atom_site_fract_y
 _atom_site_fract_z
 _atom_site_occupancy
  Mg  Mg0  1  0.98473200  0.84985300  0.34686200  1
  Mn  Mn0  1  0.48598500  0.97690300  0.51789000  1
  Mn  Mn1  1  0.49052800  0.65352300  0.16090400  1
  Mn  Mn2  1  0.54004400  0.34091900  0.81009200  1
  Mn  Mn3  1  0.99709900  0.63972300  0.69710200  1
  Mn  Mn4  1  0.97326200  0.32808000  0.32074800  1
  Mn  Mn5  1  0.00471400  0.01473300  0.95958700  1
  O  O0  1  0.83986800  0.41665700  0.61663100  1
  O  O1  1  0.86237300  0.09295000  0.26494100  1
  O  O2  1  0.68345000  0.09312400  0.78602600  1
  O  O3  1  0.68759600  0.75378700  0.46969900  1
  O  O4  1  0.68239000  0.43192100  0.11607600  1
  O  O5  1  0.32758700  0.55967100  0.85340600  1
  O  O6  1  0.30762800  0.88659100  0.20934700  1
  O  O7  1  0.14523300  0.87973700  0.68716400  1
  F  F0  1  0.83310500  0.76363100  0.01074900  1
  F  F1  1  0.32703000  0.22482900  0.52158100  1
  F  F2  1  0.14642200  0.56772600  0.34807100  1
  F  F3  1  0.18095500  0.25064200  0.04122100  1
loop_
_geom_bond_atom_site_label_1
_geom_bond_atom_site_label_2
_geom_bond_distance
_geom_bond_site_symmetry_2
Mg0 O6 1.977840 1_655
Mg0 O3 1.987718 1_555
Mg0 O1 2.033545 1_565
Mg0 O7 2.034821 1_655
Mn0 O2 1.908796 1_565
Mn0 O3 1.943771 1_555
Mn0 O6 1.972704 1_555
Mn0 O7 2.317344 1_555
Mn1 O4 1.908439 1_555
Mn1 O5 1.943655 1_554
Mn1 O6 1.962957 1_555
Mn1 O3 2.036200 1_555
Mn2 O4 1.893067 1_556
Mn2 O5 1.943281 1_555
Mn2 O2 1.984748 1_555
Mn2 O0 2.156738 1_555
Mn3 O0 1.926161 1_555
Mn3 O5 1.961749 1_655
Mn3 O7 2.056568 1_655
Mn3 O3 2.186996 1_555
Mn4 O1 1.907102 1_555
Mn4 O0 1.911720 1_555
Mn4 O4 2.014458 1_555
Mn5 O7 1.923488 1_545
Mn5 O2 1.963316 1_455
Mn5 O1 1.965537 1_456
Mn5 O6 2.291724 1_546
F0 Mg0 2.046292 1_555
F0 Mn3 2.135687 1_554
F0 Mn5 2.247962 1_664
F0 Mn1 2.313385 1_555
F1 Mn0 2.019228 1_545
F1 Mn2 2.029453 1_555
F1 Mn4 2.233495 1_455
F2 Mn4 2.083830 1_455
F2 Mn3 2.200019 1_455
F2 Mg0 2.268339 1_455
F2 Mn1 2.352331 1_555
F3 Mn4 2.015887 1_455
F3 Mn5 2.060354 1_554
F3 Mn2 2.579700 1_554
