# generated using pymatgen
data_InSb
_symmetry_space_group_name_H-M   'P 1'
_cell_length_a   4.39771321
_cell_length_b   4.39771321
_cell_length_c   18.01654800
_cell_angle_alpha   90.00000000
_cell_angle_beta   90.00000000
_cell_angle_gamma   92.56967442
_symmetry_Int_Tables_number   1
_chemical_formula_structural   InSb
_chemical_formula_sum   'In6 Sb6'
_cell_volume   348.08752799
_cell_formula_units_Z   6
loop_
 _symmetry_equiv_pos_site_id
 _symmetry_equiv_pos_as_xyz
  1  'x, y, z'
loop_
 _atom_site_type_symbol
 _atom_site_label
 _atom_site_symmetry_multiplicity
 _atom_site_fract_x
 _atom_site_fract_y
 _atom_site_fract_z
 _atom_site_occupancy
  In  In0  1  0.07967100  0.92032900  0.25000000  1
  In  In1  1  0.92032900  0.07967100  0.75000000  1
  In  In2  1  0.41384400  0.58615600  0.08976900  1
  In  In3  1  0.58615600  0.41384400  0.58976900  1
  In  In4  1  0.58615600  0.41384400  0.91023100  1
  In  In5  1  0.41384400  0.58615600  0.41023100  1
  Sb  Sb0  1  0.57724300  0.42275700  0.25000000  1
  Sb  Sb1  1  0.42275700  0.57724300  0.75000000  1
  Sb  Sb2  1  0.91876000  0.08124000  0.07607400  1
  Sb  Sb3  1  0.08124000  0.91876000  0.57607400  1
  Sb  Sb4  1  0.08124000  0.91876000  0.92392600  1
  Sb  Sb5  1  0.91876000  0.08124000  0.42392600  1
loop_
_geom_bond_atom_site_label_1
_geom_bond_atom_site_label_2
_geom_bond_distance
_geom_bond_site_symmetry_2
In0 Sb0 3.039183 1_455
In0 Sb0 3.039183 1_565
In0 Sb0 3.163163 1_555
In0 Sb0 3.194033 1_465
In0 Sb2 3.296289 1_465
In0 Sb5 3.296289 1_465
In1 Sb1 3.039183 1_655
In1 Sb1 3.039183 1_545
In1 Sb1 3.163163 1_555
In1 Sb1 3.194033 1_645
In1 Sb3 3.296289 1_645
In1 Sb4 3.296289 1_645
In2 Sb2 3.049304 1_565
In2 Sb2 3.049304 1_455
In2 Sb0 3.068011 1_555
In2 Sb2 3.157003 1_465
In2 Sb2 3.219319 1_555
In3 Sb3 3.049304 1_655
In3 Sb3 3.049304 1_545
In3 Sb1 3.068011 1_555
In3 Sb3 3.157003 1_645
In3 Sb3 3.219319 1_555
In4 Sb4 3.049304 1_545
In4 Sb4 3.049304 1_655
In4 Sb1 3.068011 1_555
In4 Sb4 3.157003 1_645
In4 Sb4 3.219319 1_555
In5 Sb5 3.049304 1_565
In5 Sb5 3.049304 1_455
In5 Sb0 3.068011 1_555
In5 Sb5 3.157003 1_465
In5 Sb5 3.219319 1_555
Sb2 Sb4 2.929334 1_644
Sb3 Sb5 2.929334 1_465
