# generated using pymatgen
data_Na10Ta4Si11Ge4SO48
_symmetry_space_group_name_H-M   'P 1'
_cell_length_a   17.68592126
_cell_length_b   8.83508548
_cell_length_c   22.15922203
_cell_angle_alpha   90.23872640
_cell_angle_beta   90.20641590
_cell_angle_gamma   120.00432797
_symmetry_Int_Tables_number   1
_chemical_formula_structural   Na10Ta4Si11Ge4SO48
_chemical_formula_sum   'Na30 Ta12 Si33 Ge12 S3 O144'
_cell_volume   2998.41339742
_cell_formula_units_Z   3
loop_
 _symmetry_equiv_pos_site_id
 _symmetry_equiv_pos_as_xyz
  1  'x, y, z'
loop_
 _atom_site_type_symbol
 _atom_site_label
 _atom_site_symmetry_multiplicity
 _atom_site_fract_x
 _atom_site_fract_y
 _atom_site_fract_z
 _atom_site_occupancy
  Na  Na0  1  0.31710285  0.99995726  0.24969117  1
  Na  Na1  1  0.81706768  0.99984969  0.25023719  1
  Na  Na2  1  0.82158707  0.63968789  0.74960770  1
  Na  Na3  1  0.49576574  0.35729411  0.74810541  1
  Na  Na4  1  0.01657903  0.70214974  0.58531517  1
  Na  Na5  1  0.33169034  0.96932516  0.58512694  1
  Na  Na6  1  0.83469152  0.96667391  0.58435913  1
  Na  Na7  1  0.33286041  0.69852526  0.08658669  1
  Na  Na8  1  0.83360476  0.69932040  0.08756899  1
  Na  Na9  1  0.01692058  0.33197563  0.08667100  1
  Na  Na10  1  0.51479846  0.33009056  0.08678192  1
  Na  Na11  1  0.98588011  0.66620468  0.91339177  1
  Na  Na12  1  0.34682674  0.03087107  0.91589789  1
  Na  Na13  1  0.85322554  0.03442064  0.91490646  1
  Na  Na14  1  0.48347272  0.30144350  0.41316495  1
  Na  Na15  1  0.98389745  0.30134855  0.41250202  1
  Na  Na16  1  0.35078914  0.66848943  0.41323179  1
  Na  Na17  1  0.85034618  0.66918767  0.41293095  1
  Na  Na18  1  0.00829228  0.00823596  0.49926676  1
  Na  Na19  1  0.50768088  0.00088393  0.49829388  1
  Na  Na20  1  0.00944700  0.00934859  0.00065055  1
  Na  Na21  1  0.50600083  0.99759302  0.00177554  1
  Na  Na22  1  0.32779116  0.33842375  0.83047371  1
  Na  Na23  1  0.83249756  0.32713628  0.83255126  1
  Na  Na24  1  0.33247187  0.33900511  0.32808957  1
  Na  Na25  1  0.83217982  0.33872811  0.32776719  1
  Na  Na26  1  0.16333340  0.66168354  0.17151463  1
  Na  Na27  1  0.66263803  0.66119369  0.17250784  1
  Na  Na28  1  0.16708069  0.66058211  0.67289628  1
  Na  Na29  1  0.66283977  0.66811439  0.66453427  1
  Ta  Ta0  1  0.49785825  0.99510010  0.85385553  1
  Ta  Ta1  1  0.49817681  0.99661279  0.64511101  1
  Ta  Ta2  1  0.83765944  0.33377656  0.69047018  1
  Ta  Ta3  1  0.33164071  0.34127193  0.97920083  1
  Ta  Ta4  1  0.83240838  0.33494049  0.98067539  1
  Ta  Ta5  1  0.32983454  0.32797783  0.47799462  1
  Ta  Ta6  1  0.83262369  0.32890003  0.47753201  1
  Ta  Ta7  1  0.16584462  0.66950265  0.02121594  1
  Ta  Ta8  1  0.66677741  0.66953211  0.02328179  1
  Ta  Ta9  1  0.16686857  0.66279653  0.52053505  1
  Ta  Ta10  1  0.66188221  0.66063314  0.51958141  1
  Ta  Ta11  1  0.66682515  0.67385329  0.81024741  1
  Si  Si0  1  0.35535369  0.70740966  0.24957931  1
  Si  Si1  1  0.85553590  0.70813693  0.24950303  1
  Si  Si2  1  0.00173638  0.29200345  0.25036410  1
  Si  Si3  1  0.50169996  0.29194073  0.25033967  1
  Si  Si4  1  0.64573820  0.28688748  0.75039001  1
  Si  Si5  1  0.00790049  0.72405870  0.75169368  1
  Si  Si6  1  0.49291079  0.70002939  0.74786492  1
  Si  Si7  1  0.34584608  0.99343577  0.74966092  1
  Si  Si8  1  0.86346817  0.00459835  0.75018496  1
  Si  Si9  1  0.47767722  0.33678005  0.58507044  1
  Si  Si10  1  0.98150075  0.32724362  0.58496261  1
  Si  Si11  1  0.18791957  0.05284958  0.58791063  1
  Si  Si12  1  0.68708363  0.04534116  0.58373615  1
  Si  Si13  1  0.33207498  0.61126608  0.58634154  1
  Si  Si14  1  0.83316975  0.62377629  0.58493609  1
  Si  Si15  1  0.47909091  0.63218793  0.08750454  1
  Si  Si16  1  0.97979663  0.63299157  0.08729146  1
  Si  Si17  1  0.33243615  0.05153587  0.08758091  1
  Si  Si18  1  0.83333746  0.05068271  0.08898893  1
  Si  Si19  1  0.18793172  0.32184618  0.08903676  1
  Si  Si20  1  0.68778278  0.32046068  0.08930051  1
  Si  Si21  1  0.30512409  0.66134224  0.91263113  1
  Si  Si22  1  0.81271456  0.66730226  0.91540617  1
  Si  Si23  1  0.02756472  0.37734317  0.91196847  1
  Si  Si24  1  0.52177520  0.37788388  0.91648541  1
  Si  Si25  1  0.16449212  0.95868098  0.91337654  1
  Si  Si26  1  0.66455866  0.95793882  0.91758242  1
  Si  Si27  1  0.30777128  0.94979023  0.41129039  1
  Si  Si28  1  0.80717326  0.94786299  0.41200935  1
  Si  Si29  1  0.16300495  0.36807340  0.41235281  1
  Si  Si30  1  0.66335468  0.36788750  0.41263099  1
  Si  Si31  1  0.02799886  0.67929236  0.41179497  1
  Si  Si32  1  0.52624775  0.67768713  0.41044605  1
  Ge  Ge0  1  0.99353171  0.99436154  0.35318072  1
  Ge  Ge1  1  0.49366757  0.99459016  0.35297142  1
  Ge  Ge2  1  0.99871777  0.99830190  0.85495466  1
  Ge  Ge3  1  0.00040027  0.99265827  0.64643757  1
  Ge  Ge4  1  0.99694563  0.00559838  0.14712818  1
  Ge  Ge5  1  0.49566701  0.00471503  0.14702348  1
  Ge  Ge6  1  0.33667626  0.33231411  0.68496884  1
  Ge  Ge7  1  0.34364493  0.35303451  0.18600971  1
  Ge  Ge8  1  0.84353225  0.35317082  0.18644306  1
  Ge  Ge9  1  0.16683764  0.64747810  0.31358409  1
  Ge  Ge10  1  0.66676492  0.64718260  0.31379264  1
  Ge  Ge11  1  0.16741046  0.68174827  0.81439245  1
  S  S0  1  0.14189823  0.99993813  0.25026525  1
  S  S1  1  0.64218787  0.00033161  0.24998648  1
  S  S2  1  0.14280154  0.28528917  0.74991083  1
  O  O0  1  0.10169960  0.02790601  0.30506098  1
  O  O1  1  0.60216124  0.02828961  0.30495752  1
  O  O2  1  0.41535209  0.79579328  0.31062077  1
  O  O3  1  0.91544606  0.79580872  0.31062793  1
  O  O4  1  0.48064775  0.16277831  0.30946068  1
  O  O5  1  0.98056831  0.16288242  0.30949179  1
  O  O6  1  0.10320716  0.17554171  0.80480976  1
  O  O7  1  0.59827843  0.16677898  0.80864929  1
  O  O8  1  0.48189328  0.79636851  0.80739691  1
  O  O9  1  0.98232660  0.80537300  0.81004361  1
  O  O10  1  0.41366865  0.03739615  0.80774025  1
  O  O11  1  0.91824576  0.03145240  0.81209670  1
  O  O12  1  0.39603787  0.96948369  0.69055102  1
  O  O13  1  0.90332444  0.96273248  0.69006931  1
  O  O14  1  0.08736436  0.20406490  0.69466185  1
  O  O15  1  0.58126798  0.20022683  0.69248804  1
  O  O16  1  0.01861385  0.83359586  0.68953756  1
  O  O17  1  0.51373150  0.82999854  0.69103413  1
  O  O18  1  0.39883043  0.83715135  0.19064467  1
  O  O19  1  0.89912828  0.83753368  0.19045743  1
  O  O20  1  0.01717948  0.20390025  0.18944395  1
  O  O21  1  0.51758235  0.20403308  0.18941526  1
  O  O22  1  0.08756832  0.97147782  0.19495258  1
  O  O23  1  0.58797256  0.97234454  0.19483392  1
  O  O24  1  0.43658772  0.36819954  0.64587464  1
  O  O25  1  0.93469619  0.36984676  0.64069618  1
  O  O26  1  0.25588229  0.13609930  0.64374049  1
  O  O27  1  0.75267005  0.13727922  0.64137566  1
  O  O28  1  0.31547778  0.48865900  0.64405895  1
  O  O29  1  0.81866676  0.50459960  0.64413134  1
  O  O30  1  0.43944648  0.49602829  0.14311658  1
  O  O31  1  0.93783862  0.49434649  0.14191239  1
  O  O32  1  0.31641318  0.13924450  0.14723085  1
  O  O33  1  0.81619451  0.13981131  0.14730414  1
  O  O34  1  0.25785780  0.37471434  0.14396363  1
  O  O35  1  0.75810192  0.37438549  0.14376822  1
  O  O36  1  0.23237200  0.29661551  0.02741714  1
  O  O37  1  0.73400377  0.29795569  0.02725010  1
  O  O38  1  0.41571547  0.54185093  0.02793896  1
  O  O39  1  0.91840644  0.54540638  0.02578736  1
  O  O40  1  0.35199944  0.17060112  0.02655647  1
  O  O41  1  0.85197664  0.16892459  0.02723085  1
  O  O42  1  0.23323051  0.16843354  0.52679727  1
  O  O43  1  0.73617237  0.16766205  0.52506417  1
  O  O44  1  0.34758752  0.53124690  0.52378027  1
  O  O45  1  0.85254844  0.53621465  0.52542365  1
  O  O46  1  0.41661580  0.29967163  0.52468428  1
  O  O47  1  0.91916492  0.29224749  0.52475631  1
  O  O48  1  0.26628564  0.70151482  0.97476899  1
  O  O49  1  0.76900414  0.70235826  0.97513456  1
  O  O50  1  0.08220035  0.46246063  0.97529761  1
  O  O51  1  0.58214857  0.46773133  0.97654144  1
  O  O52  1  0.14521077  0.82891828  0.97240989  1
  O  O53  1  0.65321384  0.83535074  0.97557198  1
  O  O54  1  0.26727428  0.83159010  0.47295442  1
  O  O55  1  0.76729715  0.82990469  0.47315812  1
  O  O56  1  0.14563486  0.46059717  0.47211760  1
  O  O57  1  0.64520747  0.45897126  0.47208437  1
  O  O58  1  0.08250018  0.70221073  0.47526417  1
  O  O59  1  0.58395460  0.70361344  0.47246493  1
  O  O60  1  0.07113690  0.62589366  0.35716072  1
  O  O61  1  0.57046320  0.62531502  0.35615027  1
  O  O62  1  0.24656961  0.86016662  0.35249540  1
  O  O63  1  0.74677767  0.86047352  0.35259303  1
  O  O64  1  0.19105235  0.50527776  0.35721063  1
  O  O65  1  0.69168502  0.50495532  0.35724391  1
  O  O66  1  0.06931569  0.51396431  0.85684535  1
  O  O67  1  0.56819354  0.49797608  0.85708876  1
  O  O68  1  0.18991432  0.87558306  0.85732356  1
  O  O69  1  0.68480163  0.86915720  0.85915332  1
  O  O70  1  0.24351966  0.63126549  0.85505661  1
  O  O71  1  0.75252028  0.63696049  0.85589868  1
  O  O72  1  0.01152447  0.84469236  0.40709283  1
  O  O73  1  0.51152142  0.84522853  0.40643447  1
  O  O74  1  0.40598057  0.97168851  0.40906400  1
  O  O75  1  0.90601054  0.97197684  0.40911080  1
  O  O76  1  0.07474138  0.17993553  0.40590162  1
  O  O77  1  0.57512257  0.17995513  0.40564442  1
  O  O78  1  0.01252056  0.17969008  0.90739143  1
  O  O79  1  0.50854178  0.18245935  0.91167540  1
  O  O80  1  0.07625232  0.97105041  0.90692311  1
  O  O81  1  0.57871647  0.97481031  0.91238067  1
  O  O82  1  0.40111734  0.83899249  0.90902193  1
  O  O83  1  0.90905295  0.84272133  0.91120382  1
  O  O84  1  0.48270752  0.15758997  0.58834618  1
  O  O85  1  0.98640755  0.15091919  0.59358140  1
  O  O86  1  0.08971184  0.02305113  0.59272902  1
  O  O87  1  0.59196993  0.02620299  0.58834952  1
  O  O88  1  0.41532645  0.81076884  0.58929952  1
  O  O89  1  0.92210856  0.81660702  0.58961845  1
  O  O90  1  0.48524542  0.82065797  0.09449070  1
  O  O91  1  0.98489222  0.82035493  0.09413803  1
  O  O92  1  0.41970004  0.02796866  0.09095872  1
  O  O93  1  0.92059965  0.02914601  0.09095601  1
  O  O94  1  0.08901756  0.15555354  0.09359679  1
  O  O95  1  0.58909181  0.15569780  0.09319748  1
  O  O96  1  0.34379492  0.17724611  0.74354991  1
  O  O97  1  0.84999506  0.17308202  0.74536539  1
  O  O98  1  0.22945153  0.29996843  0.74492960  1
  O  O99  1  0.74354427  0.31638320  0.74639633  1
  O  O100  1  0.40797982  0.50524326  0.74351218  1
  O  O101  1  0.91688550  0.53126009  0.74492820  1
  O  O102  1  0.34549235  0.51294705  0.24331776  1
  O  O103  1  0.84560015  0.51345296  0.24327485  1
  O  O104  1  0.40923193  0.29863743  0.24425467  1
  O  O105  1  0.90923023  0.29898173  0.24416444  1
  O  O106  1  0.23009697  0.15569796  0.24675167  1
  O  O107  1  0.73054319  0.15624625  0.24661267  1
  O  O108  1  0.31853513  0.49424338  0.92101803  1
  O  O109  1  0.82568876  0.49813445  0.92089490  1
  O  O110  1  0.42474525  0.35347256  0.92229493  1
  O  O111  1  0.92935793  0.35658848  0.92226880  1
  O  O112  1  0.25263682  0.14542152  0.92325639  1
  O  O113  1  0.75537971  0.14469362  0.92275006  1
  O  O114  1  0.32305818  0.14688257  0.41958784  1
  O  O115  1  0.82366429  0.14715771  0.41987632  1
  O  O116  1  0.25191962  0.35867468  0.42110353  1
  O  O117  1  0.75320678  0.36052104  0.42250536  1
  O  O118  1  0.42898726  0.50116105  0.42112668  1
  O  O119  1  0.93004160  0.50151052  0.42177470  1
  O  O120  1  0.17855281  0.49871412  0.07844120  1
  O  O121  1  0.67960946  0.49846517  0.07863972  1
  O  O122  1  0.07260526  0.63976116  0.07834678  1
  O  O123  1  0.57305891  0.64082101  0.07855447  1
  O  O124  1  0.24931473  0.85284290  0.07922843  1
  O  O125  1  0.75043432  0.85245524  0.08081086  1
  O  O126  1  0.17917503  0.85845932  0.57775610  1
  O  O127  1  0.68321681  0.85811452  0.57698561  1
  O  O128  1  0.24867567  0.64416200  0.57816633  1
  O  O129  1  0.74965927  0.65111283  0.57778436  1
  O  O130  1  0.07340923  0.50792308  0.57835275  1
  O  O131  1  0.57384476  0.50700167  0.57831849  1
  O  O132  1  0.15197823  0.84339815  0.25359872  1
  O  O133  1  0.65246205  0.84402340  0.25341881  1
  O  O134  1  0.25959328  0.70088202  0.25570166  1
  O  O135  1  0.75975119  0.70116460  0.25560140  1
  O  O136  1  0.08866673  0.48693240  0.25668814  1
  O  O137  1  0.58898817  0.48658807  0.25663764  1
  O  O138  1  0.15004493  0.45770887  0.75460742  1
  O  O139  1  0.65475550  0.48067022  0.75442946  1
  O  O140  1  0.09005829  0.69183270  0.75760629  1
  O  O141  1  0.58070768  0.68035024  0.75433265  1
  O  O142  1  0.25400333  0.81320223  0.75626367  1
  O  O143  1  0.76531670  0.82831990  0.75484832  1
loop_
_geom_bond_atom_site_label_1
_geom_bond_atom_site_label_2
_geom_bond_distance
_geom_bond_site_symmetry_2
Na0 O104 2.310150 1_565
Na0 O134 2.313068 1_555
Na0 O106 2.526469 1_565
Na0 O132 2.532229 1_555
Na0 O32 2.589896 1_565
Na0 O62 2.602712 1_555
Na0 O18 2.819143 1_555
Na0 O4 2.825749 1_565
Na1 O135 2.309465 1_555
Na1 O105 2.314263 1_565
Na1 O133 2.523743 1_555
Na1 O107 2.524336 1_565
Na1 O63 2.592051 1_555
Na1 O33 2.602744 1_565
Na1 O5 2.819876 1_565
Na1 O19 2.827940 1_555
Na2 O101 2.320433 1_555
Na2 O143 2.332250 1_555
Na2 O99 2.474635 1_555
Na2 O139 2.559051 1_555
Na2 O29 2.608492 1_555
Na2 O71 2.651790 1_555
Na2 O9 2.795036 1_555
Na2 O13 2.809817 1_555
Na3 O96 2.342063 1_555
Na3 O139 2.458642 1_555
Na3 O141 2.475746 1_555
Na3 O100 2.481763 1_555
Na3 O24 2.514381 1_555
Na3 O67 2.716291 1_555
Na3 O10 2.789850 1_555
Na3 O15 2.798079 1_555
Na4 O89 2.348064 1_455
Na4 O130 2.388010 1_555
Na4 O86 2.462773 1_565
Na4 O126 2.497645 1_555
Na4 O16 2.572738 1_555
Na4 O58 2.706681 1_555
Na4 O25 2.830800 1_455
Na4 O45 2.833557 1_455
Na5 O84 2.336633 1_565
Na5 O126 2.369596 1_555
Na5 O128 2.491756 1_555
Na5 O88 2.496282 1_555
Na5 O12 2.594573 1_555
Na5 O54 2.743189 1_555
Na5 O26 2.761885 1_565
Na5 O46 2.868981 1_565
Na6 O85 2.348660 1_565
Na6 O127 2.355680 1_555
Na6 O129 2.420234 1_555
Na6 O89 2.492356 1_555
Na6 O13 2.642759 1_555
Na6 O55 2.732458 1_555
Na6 O47 2.828139 1_565
Na6 O27 2.856004 1_565
Na7 O90 2.354772 1_555
Na7 O120 2.402555 1_555
Na7 O124 2.466506 1_555
Na7 O92 2.523058 1_565
Na7 O18 2.589628 1_555
Na7 O48 2.745385 1_554
Na7 O38 2.789217 1_555
Na7 O34 2.794254 1_555
Na8 O91 2.336269 1_555
Na8 O121 2.401125 1_555
Na8 O125 2.450938 1_555
Na8 O93 2.525422 1_565
Na8 O19 2.564103 1_555
Na8 O49 2.743021 1_554
Na8 O35 2.789870 1_555
Na8 O39 2.830521 1_555
Na9 O93 2.348257 1_455
Na9 O122 2.392832 1_555
Na9 O94 2.463198 1_555
Na9 O120 2.483824 1_555
Na9 O20 2.548221 1_555
Na9 O50 2.732368 1_554
Na9 O31 2.741711 1_455
Na9 O41 2.841414 1_455
Na10 O92 2.339982 1_555
Na10 O123 2.410015 1_555
Na10 O95 2.479091 1_555
Na10 O121 2.532018 1_555
Na10 O21 2.547604 1_555
Na10 O30 2.726627 1_555
Na10 O51 2.731694 1_554
Na10 O40 2.820572 1_555
Na11 O80 2.351325 1_655
Na11 O111 2.406635 1_555
Na11 O109 2.461136 1_555
Na11 O83 2.529864 1_555
Na11 O9 2.619182 1_555
Na11 O39 2.745173 1_556
Na11 O66 2.746106 1_655
Na11 O52 2.761134 1_655
Na12 O82 2.333656 1_545
Na12 O112 2.347893 1_555
Na12 O110 2.471801 1_555
Na12 O79 2.480827 1_555
Na12 O10 2.664273 1_555
Na12 O40 2.721298 1_556
Na12 O68 2.723915 1_545
Na12 O48 2.845668 1_545
Na13 O83 2.349910 1_545
Na13 O113 2.379279 1_555
Na13 O78 2.449670 1_655
Na13 O111 2.470417 1_555
Na13 O11 2.561585 1_555
Na13 O41 2.758604 1_556
Na13 O69 2.853016 1_545
Na13 O49 2.878099 1_545
Na14 O77 2.355363 1_555
Na14 O118 2.402588 1_555
Na14 O114 2.462488 1_555
Na14 O74 2.525479 1_545
Na14 O4 2.588192 1_555
Na14 O46 2.740069 1_555
Na14 O61 2.791452 1_555
Na14 O57 2.792858 1_555
Na15 O76 2.340402 1_655
Na15 O119 2.399979 1_555
Na15 O115 2.461198 1_555
Na15 O75 2.521856 1_545
Na15 O5 2.571805 1_555
Na15 O47 2.726678 1_555
Na15 O60 2.779310 1_655
Na15 O56 2.799852 1_655
Na16 O74 2.350491 1_555
Na16 O116 2.408261 1_555
Na16 O73 2.471335 1_555
Na16 O118 2.484778 1_555
Na16 O2 2.548433 1_555
Na16 O44 2.726067 1_555
Na16 O64 2.736247 1_555
Na16 O54 2.852445 1_555
Na17 O75 2.345504 1_555
Na17 O117 2.399015 1_555
Na17 O72 2.475999 1_655
Na17 O119 2.511673 1_555
Na17 O3 2.543216 1_555
Na17 O65 2.718479 1_555
Na17 O45 2.768576 1_555
Na17 O55 2.835308 1_555
Na18 O86 2.483480 1_555
Na18 O76 2.494667 1_555
Na18 O72 2.514307 1_545
Na18 O85 2.564893 1_455
Na18 O89 2.582154 1_445
Na18 O75 2.599060 1_445
Na19 O87 2.428151 1_555
Na19 O73 2.471913 1_545
Na19 O77 2.509604 1_555
Na19 O84 2.586279 1_555
Na19 O74 2.591797 1_545
Na19 O88 2.619929 1_545
Na20 O94 2.455587 1_555
Na20 O80 2.497150 1_544
Na20 O78 2.546264 1_554
Na20 O91 2.564836 1_445
Na20 O83 2.566039 1_444
Na20 O93 2.607440 1_455
Na21 O81 2.427427 1_554
Na21 O95 2.473209 1_565
Na21 O90 2.501539 1_555
Na21 O79 2.571058 1_564
Na21 O92 2.595017 1_565
Na21 O82 2.641545 1_554
Na22 O100 2.418628 1_555
Na22 O98 2.472549 1_555
Na22 O108 2.480402 1_555
Na22 O96 2.490427 1_555
Na22 O112 2.585265 1_555
Na22 O110 2.615816 1_555
Na23 O99 2.440528 1_555
Na23 O97 2.466672 1_555
Na23 O109 2.507643 1_555
Na23 O113 2.510202 1_555
Na23 O111 2.545596 1_555
Na23 O101 2.570615 1_555
Na24 O102 2.369952 1_555
Na24 O104 2.432737 1_555
Na24 O106 2.483786 1_555
Na24 O116 2.563940 1_555
Na24 O118 2.592445 1_555
Na24 O114 2.601596 1_555
Na25 O103 2.367628 1_555
Na25 O105 2.429747 1_555
Na25 O107 2.473566 1_555
Na25 O117 2.584909 1_555
Na25 O115 2.613311 1_555
Na25 O119 2.619728 1_555
Na26 O136 2.385985 1_555
Na26 O134 2.424970 1_555
Na26 O132 2.495411 1_555
Na26 O122 2.556664 1_555
Na26 O120 2.601177 1_555
Na26 O124 2.613312 1_555
Na27 O137 2.362982 1_555
Na27 O135 2.414572 1_555
Na27 O133 2.474905 1_555
Na27 O123 2.562173 1_555
Na27 O125 2.611974 1_555
Na27 O121 2.625813 1_555
Na28 O142 2.340906 1_555
Na28 O140 2.417778 1_555
Na28 O138 2.464310 1_555
Na28 O130 2.582532 1_555
Na28 O128 2.595881 1_555
Na28 O126 2.684544 1_555
Na29 O131 2.422476 1_555
Na29 O127 2.477614 1_555
Na29 O141 2.501463 1_555
Na29 O129 2.514972 1_555
Na29 O139 2.554189 1_555
Na29 O143 2.584181 1_555
Ge0 O3 1.851366 1_555
Ge0 O5 1.886381 1_565
Ge0 O75 1.918544 1_555
Ge0 O72 1.925697 1_655
Ge0 O76 1.932003 1_665
Ge0 O0 2.082034 1_665
Ge1 O2 1.851456 1_555
Ge1 O4 1.882353 1_565
Ge1 O73 1.916167 1_555
Ge1 O74 1.921750 1_555
Ge1 O77 1.931875 1_565
Ge1 O1 2.085293 1_565
Ge2 O11 1.850067 1_565
Ge2 O9 1.862660 1_555
Ge2 O78 1.889226 1_665
Ge2 O80 1.893574 1_655
Ge2 O83 1.950963 1_555
Ge2 O6 2.058398 1_665
Ge3 O16 1.858111 1_555
Ge3 O13 1.874154 1_455
Ge3 O86 1.890911 1_565
Ge3 O89 1.933647 1_455
Ge3 O85 1.935409 1_465
Ge3 O14 2.023503 1_565
Ge4 O20 1.853027 1_655
Ge4 O19 1.890575 1_545
Ge4 O94 1.919202 1_655
Ge4 O93 1.920107 1_555
Ge4 O91 1.932894 1_545
Ge4 O22 2.063103 1_645
Ge5 O21 1.853292 1_555
Ge5 O18 1.883413 1_545
Ge5 O92 1.912309 1_555
Ge5 O90 1.927791 1_545
Ge5 O95 1.937844 1_555
Ge5 O23 2.079979 1_545
Ge6 O26 1.838930 1_555
Ge6 O28 1.842915 1_555
Ge6 O24 1.851049 1_555
Ge6 O100 1.911086 1_555
Ge6 O96 1.940130 1_555
Ge6 O98 2.218691 1_555
Ge7 O30 1.803065 1_555
Ge7 O34 1.867804 1_555
Ge7 O102 1.883725 1_555
Ge7 O32 1.900474 1_555
Ge7 O104 1.947884 1_555
Ge7 O106 2.328436 1_555
Ge8 O31 1.803556 1_555
Ge8 O35 1.867256 1_555
Ge8 O103 1.877675 1_555
Ge8 O33 1.900314 1_555
Ge8 O105 1.940632 1_555
Ge8 O107 2.315029 1_555
Ge9 O64 1.800457 1_555
Ge9 O60 1.877242 1_555
Ge9 O136 1.877268 1_555
Ge9 O62 1.894892 1_555
Ge9 O134 1.950636 1_555
Ge9 O132 2.302996 1_555
Ge10 O65 1.805896 1_555
Ge10 O61 1.871653 1_555
Ge10 O137 1.878794 1_555
Ge10 O63 1.898308 1_555
Ge10 O135 1.957218 1_555
Ge10 O133 2.309808 1_555
Ge11 O68 1.816106 1_555
Ge11 O70 1.848737 1_555
Ge11 O66 1.882432 1_555
Ge11 O140 1.890326 1_555
Ge11 O142 1.897692 1_555
Ge11 O138 2.265978 1_555
O0 S0 1.490061 1_545
O1 S1 1.491490 1_555
O2 Si0 1.648487 1_555
O3 Si1 1.648443 1_555
O4 Si3 1.657771 1_555
O5 Si2 1.657439 1_655
O6 S2 1.499115 1_555
O7 Si4 1.620384 1_555
O7 Ta0 1.946707 1_545
O8 Si6 1.631276 1_555
O8 Ta0 1.925994 1_555
O9 Si5 1.647414 1_655
O10 Si7 1.662763 1_545
O10 Ta0 1.987364 1_545
O11 Si8 1.623216 1_555
O12 Si7 1.656010 1_555
O12 Ta1 1.979032 1_555
O13 Si8 1.634519 1_565
O14 S2 1.501821 1_555
O15 Si4 1.625028 1_555
O15 Ta1 1.956297 1_545
O16 Si5 1.642899 1_555
O17 Si6 1.622517 1_555
O17 Ta1 1.921886 1_555
O18 Si0 1.657977 1_555
O19 Si1 1.658770 1_555
O20 Si2 1.646019 1_555
O21 Si3 1.648305 1_555
O22 S0 1.495365 1_555
O23 S1 1.492001 1_565
O24 Si9 1.620577 1_555
O25 Si10 1.633178 1_555
O25 Ta2 1.932079 1_555
O26 Si11 1.616722 1_555
O27 Si12 1.635544 1_555
O27 Ta2 1.954339 1_555
O28 Si13 1.609841 1_555
O29 Si14 1.624469 1_555
O29 Ta2 1.990593 1_555
O30 Si15 1.622463 1_555
O31 Si16 1.620441 1_555
O32 Si17 1.625340 1_555
O33 Si18 1.617087 1_555
O34 Si19 1.623492 1_555
O35 Si20 1.619330 1_555
O36 Si19 1.646904 1_555
O36 Ta3 1.924529 1_554
O37 Si20 1.663355 1_555
O37 Ta4 1.909926 1_554
O38 Si15 1.649664 1_555
O38 Ta3 1.963396 1_554
O39 Si16 1.665940 1_555
O39 Ta4 1.978704 1_554
O40 Si17 1.645027 1_555
O40 Ta3 2.014452 1_554
O41 Si18 1.656376 1_555
O41 Ta4 1.962948 1_554
O42 Si11 1.649192 1_555
O42 Ta5 1.921687 1_555
O43 Si12 1.641180 1_555
O43 Ta6 1.908843 1_555
O44 Si13 1.638749 1_555
O44 Ta5 1.942105 1_555
O45 Si14 1.647718 1_555
O45 Ta6 1.985170 1_555
O46 Si9 1.641980 1_555
O46 Ta5 1.965499 1_555
O47 Si10 1.654076 1_555
O47 Ta6 2.007370 1_555
O48 Si21 1.655384 1_555
O48 Ta7 1.951407 1_556
O49 Si22 1.639730 1_555
O49 Ta8 1.995802 1_556
O50 Si23 1.650221 1_555
O50 Ta7 1.958850 1_556
O51 Si24 1.635392 1_555
O51 Ta8 1.948412 1_556
O52 Si25 1.663306 1_555
O52 Ta7 1.952040 1_556
O53 Si26 1.631153 1_555
O53 Ta8 1.919399 1_556
O54 Si27 1.655768 1_555
O54 Ta9 1.966477 1_555
O55 Si28 1.644115 1_555
O55 Ta10 2.002186 1_555
O56 Si29 1.661794 1_555
O56 Ta9 1.947738 1_555
O57 Si30 1.654926 1_555
O57 Ta10 1.955967 1_555
O58 Si31 1.655540 1_555
O58 Ta9 1.966180 1_555
O59 Si32 1.654154 1_555
O59 Ta10 1.910530 1_555
O60 Si31 1.622409 1_555
O61 Si32 1.623949 1_555
O62 Si27 1.618663 1_555
O63 Si28 1.620845 1_555
O64 Si29 1.619845 1_555
O65 Si30 1.622929 1_555
O66 Si23 1.619145 1_555
O67 Si24 1.637172 1_555
O67 Ta11 1.962241 1_555
O68 Si25 1.615711 1_555
O69 Si26 1.641812 1_555
O69 Ta11 1.919956 1_555
O70 Si21 1.607163 1_555
O71 Si22 1.626512 1_555
O71 Ta11 1.977974 1_555
O72 Si31 1.630368 1_555
O73 Si32 1.628914 1_555
O74 Si27 1.649657 1_555
O75 Si28 1.653354 1_555
O76 Si29 1.619105 1_555
O77 Si30 1.618867 1_555
O78 Si23 1.632243 1_555
O79 Si24 1.625236 1_555
O79 Ta0 2.021185 1_545
O80 Si25 1.623874 1_555
O81 Si26 1.601764 1_555
O81 Ta0 2.001005 1_555
O82 Si21 1.639872 1_555
O82 Ta0 1.998252 1_555
O83 Si22 1.635560 1_555
O84 Si9 1.631366 1_555
O84 Ta1 2.020260 1_545
O85 Si10 1.615068 1_555
O86 Si11 1.625346 1_555
O87 Si12 1.607999 1_555
O87 Ta1 1.996524 1_545
O88 Si13 1.637618 1_555
O88 Ta1 1.984026 1_555
O89 Si14 1.644589 1_555
O90 Si15 1.620183 1_555
O91 Si16 1.618641 1_555
O92 Si17 1.658781 1_555
O93 Si18 1.647180 1_555
O94 Si19 1.631289 1_555
O95 Si20 1.622972 1_555
O96 Si7 1.648539 1_545
O97 Si8 1.624780 1_555
O97 Ta2 1.966027 1_555
O98 S2 1.476507 1_555
O99 Si4 1.618139 1_555
O99 Ta2 2.022539 1_555
O100 Si6 1.624640 1_555
O101 Si5 1.664017 1_655
O101 Ta2 1.997252 1_555
O102 Si0 1.643067 1_555
O103 Si1 1.644400 1_555
O104 Si3 1.670750 1_555
O105 Si2 1.672928 1_655
O106 S0 1.479165 1_545
O107 S1 1.481166 1_555
O108 Si21 1.619425 1_555
O108 Ta3 1.966785 1_555
O109 Si22 1.626537 1_555
O109 Ta4 2.008472 1_555
O110 Si24 1.624692 1_555
O110 Ta3 2.037575 1_555
O111 Si23 1.669472 1_655
O111 Ta4 2.083677 1_555
O112 Si25 1.619386 1_545
O112 Ta3 2.008694 1_555
O113 Si26 1.631591 1_545
O113 Ta4 2.002003 1_555
O114 Si27 1.632558 1_545
O114 Ta5 2.009793 1_555
O115 Si28 1.642949 1_545
O115 Ta6 1.990644 1_555
O116 Si29 1.626624 1_555
O116 Ta5 1.981365 1_555
O117 Si30 1.636600 1_555
O117 Ta6 1.980050 1_555
O118 Si32 1.664395 1_555
O118 Ta5 2.086324 1_555
O119 Si31 1.673791 1_655
O119 Ta6 2.055219 1_555
O120 Si19 1.669284 1_555
O120 Ta7 2.070860 1_555
O121 Si20 1.667410 1_555
O121 Ta8 2.048674 1_555
O122 Si16 1.625218 1_455
O122 Ta7 1.993857 1_555
O123 Si15 1.637932 1_555
O123 Ta8 1.976991 1_555
O124 Si17 1.640542 1_565
O124 Ta7 2.008253 1_555
O125 Si18 1.636191 1_565
O125 Ta8 2.000965 1_555
O126 Si11 1.659844 1_565
O126 Ta9 2.060817 1_555
O127 Si12 1.627278 1_565
O127 Ta10 2.030829 1_555
O128 Si13 1.649289 1_555
O128 Ta9 1.994493 1_555
O129 Si14 1.618719 1_555
O129 Ta10 2.048794 1_555
O130 Si10 1.618772 1_455
O130 Ta9 2.003433 1_555
O131 Si9 1.619387 1_555
O131 Ta10 1.968862 1_555
O132 S0 1.482363 1_555
O133 S1 1.482464 1_565
O134 Si0 1.671551 1_555
O135 Si1 1.670084 1_555
O136 Si2 1.642460 1_555
O137 Si3 1.643594 1_555
O138 S2 1.466705 1_555
O139 Si4 1.640192 1_555
O139 Ta11 2.026005 1_555
O140 Si5 1.619335 1_555
O141 Si6 1.652415 1_555
O141 Ta11 1.983091 1_555
O142 Si7 1.616255 1_555
O143 Si8 1.657817 1_565
O143 Ta11 2.013844 1_555
