# generated using pymatgen
data_Na3HfMg(PO4)3
_symmetry_space_group_name_H-M   'P 1'
_cell_length_a   15.59705824
_cell_length_b   8.99121640
_cell_length_c   8.96998079
_cell_angle_alpha   90.00000000
_cell_angle_beta   124.74501467
_cell_angle_gamma   90.00000000
_symmetry_Int_Tables_number   1
_chemical_formula_structural   Na3HfMg(PO4)3
_chemical_formula_sum   'Na12 Hf4 Mg4 P12 O48'
_cell_volume   1033.62763143
_cell_formula_units_Z   4
loop_
 _symmetry_equiv_pos_site_id
 _symmetry_equiv_pos_as_xyz
  1  'x, y, z'
loop_
 _atom_site_type_symbol
 _atom_site_label
 _atom_site_symmetry_multiplicity
 _atom_site_fract_x
 _atom_site_fract_y
 _atom_site_fract_z
 _atom_site_occupancy
  Na  Na0  1  0.25185129  0.72207826  0.98382255  1
  Na  Na1  1  0.75185129  0.77792174  0.48382255  1
  Na  Na2  1  0.75185129  0.22207826  0.98382255  1
  Na  Na3  1  0.25185129  0.27792174  0.48382255  1
  Na  Na4  1  0.50211712  0.11139112  0.74567096  1
  Na  Na5  1  0.50211712  0.88860888  0.24567096  1
  Na  Na6  1  0.00211712  0.61139112  0.74567096  1
  Na  Na7  1  0.00211712  0.38860888  0.24567096  1
  Na  Na8  1  0.18458954  0.94232985  0.28629029  1
  Na  Na9  1  0.18458954  0.05767015  0.78629029  1
  Na  Na10  1  0.68458954  0.44232985  0.28629029  1
  Na  Na11  1  0.68458954  0.55767015  0.78629029  1
  Hf  Hf0  1  0.89451557  0.75754082  0.94144496  1
  Hf  Hf1  1  0.89451557  0.24245918  0.44144496  1
  Hf  Hf2  1  0.39451557  0.25754082  0.94144496  1
  Hf  Hf3  1  0.39451557  0.74245918  0.44144496  1
  Mg  Mg0  1  0.10156605  0.75034648  0.55732076  1
  Mg  Mg1  1  0.10156605  0.24965352  0.05732076  1
  Mg  Mg2  1  0.60156605  0.25034648  0.55732076  1
  Mg  Mg3  1  0.60156605  0.74965352  0.05732076  1
  P  P0  1  0.00334380  0.95192488  0.76224192  1
  P  P1  1  0.00334380  0.04807512  0.26224192  1
  P  P2  1  0.50334380  0.45192488  0.76224192  1
  P  P3  1  0.50334380  0.54807512  0.26224192  1
  P  P4  1  0.35259280  0.89704532  0.76147958  1
  P  P5  1  0.64432310  0.89357308  0.74599459  1
  P  P6  1  0.64432310  0.10642692  0.24599459  1
  P  P7  1  0.35259280  0.10295468  0.26147958  1
  P  P8  1  0.85259280  0.39704532  0.76147958  1
  P  P9  1  0.14432310  0.39357308  0.74599459  1
  P  P10  1  0.14432310  0.60642692  0.24599459  1
  P  P11  1  0.85259280  0.60295468  0.26147958  1
  O  O0  1  0.15045374  0.56277217  0.73821488  1
  O  O1  1  0.84706675  0.57342056  0.75823185  1
  O  O2  1  0.84706675  0.42657944  0.25823185  1
  O  O3  1  0.15045374  0.43722783  0.23821488  1
  O  O4  1  0.65045374  0.06277217  0.73821488  1
  O  O5  1  0.34706675  0.07342056  0.75823185  1
  O  O6  1  0.34706675  0.92657944  0.25823185  1
  O  O7  1  0.65045374  0.93722783  0.23821488  1
  O  O8  1  0.44232984  0.55831340  0.59376944  1
  O  O9  1  0.56738754  0.54277539  0.93455192  1
  O  O10  1  0.56738754  0.45722461  0.43455192  1
  O  O11  1  0.44232984  0.44168660  0.09376944  1
  O  O12  1  0.94232984  0.05831340  0.59376944  1
  O  O13  1  0.06738754  0.04277539  0.93455192  1
  O  O14  1  0.06738754  0.95722461  0.43455192  1
  O  O15  1  0.94232984  0.94168660  0.09376944  1
  O  O16  1  0.25621344  0.83842336  0.74758887  1
  O  O17  1  0.73717171  0.81557281  0.75302740  1
  O  O18  1  0.73717171  0.18442719  0.25302740  1
  O  O19  1  0.25621344  0.16157664  0.24758887  1
  O  O20  1  0.75621344  0.33842336  0.74758887  1
  O  O21  1  0.23717171  0.31557281  0.75302740  1
  O  O22  1  0.23717171  0.68442719  0.25302740  1
  O  O23  1  0.75621344  0.66157664  0.24758887  1
  O  O24  1  0.35105318  0.85896872  0.58747527  1
  O  O25  1  0.64237520  0.84431805  0.90522291  1
  O  O26  1  0.64237520  0.15568195  0.40522291  1
  O  O27  1  0.35105318  0.14103128  0.08747527  1
  O  O28  1  0.85105318  0.35896872  0.58747527  1
  O  O29  1  0.14237520  0.34431805  0.90522291  1
  O  O30  1  0.14237520  0.65568195  0.40522291  1
  O  O31  1  0.85105318  0.64103128  0.08747527  1
  O  O32  1  0.45451368  0.84520444  0.93185827  1
  O  O33  1  0.54234877  0.83312586  0.56587066  1
  O  O34  1  0.54234877  0.16687414  0.06587066  1
  O  O35  1  0.45451368  0.15479556  0.43185827  1
  O  O36  1  0.95451368  0.34520444  0.93185827  1
  O  O37  1  0.04234877  0.33312586  0.56587066  1
  O  O38  1  0.04234877  0.66687414  0.06587066  1
  O  O39  1  0.95451368  0.65479556  0.43185827  1
  O  O40  1  0.07623360  0.84798799  0.74572582  1
  O  O41  1  0.91795327  0.85270262  0.75419709  1
  O  O42  1  0.91795327  0.14729738  0.25419709  1
  O  O43  1  0.07623360  0.15201201  0.24572582  1
  O  O44  1  0.57623360  0.34798799  0.74572582  1
  O  O45  1  0.41795327  0.35270262  0.75419709  1
  O  O46  1  0.41795327  0.64729738  0.25419709  1
  O  O47  1  0.57623360  0.65201201  0.24572582  1
loop_
_geom_bond_atom_site_label_1
_geom_bond_atom_site_label_2
_geom_bond_distance
_geom_bond_site_symmetry_2
Na0 O0 2.331299 1_555
Na0 O16 2.398638 1_555
Na0 O46 2.425669 1_556
Na0 O22 2.574549 1_556
Na0 O40 2.584100 1_555
Na0 O6 2.734665 1_556
Na1 O7 2.331299 1_555
Na1 O23 2.398638 1_555
Na1 O41 2.425669 1_555
Na1 O17 2.574549 1_555
Na1 O47 2.584100 1_555
Na1 O1 2.734665 1_555
Na2 O4 2.331299 1_555
Na2 O20 2.398638 1_555
Na2 O42 2.425669 1_556
Na2 O18 2.574549 1_556
Na2 O44 2.584100 1_555
Na2 O2 2.734665 1_556
Na3 O3 2.331299 1_555
Na3 O19 2.398638 1_555
Na3 O45 2.425669 1_555
Na3 O21 2.574549 1_555
Na3 O43 2.584100 1_555
Na3 O5 2.734665 1_555
Na4 O4 2.392647 1_555
Na4 O44 2.420963 1_555
Na4 O35 2.498985 1_555
Na4 O5 2.507618 1_555
Na4 O45 2.559495 1_555
Na4 O34 2.614905 1_556
Na5 O7 2.392647 1_555
Na5 O47 2.420963 1_555
Na5 O32 2.498985 1_554
Na5 O6 2.507618 1_555
Na5 O46 2.559495 1_555
Na5 O33 2.614905 1_555
Na6 O0 2.392647 1_555
Na6 O40 2.420963 1_555
Na6 O39 2.498985 1_455
Na6 O1 2.507618 1_455
Na6 O41 2.559495 1_455
Na6 O38 2.614905 1_556
Na7 O3 2.392647 1_555
Na7 O43 2.420963 1_555
Na7 O36 2.498985 1_454
Na7 O2 2.507618 1_455
Na7 O42 2.559495 1_455
Na7 O37 2.614905 1_555
Na8 O19 2.386740 1_565
Na8 O43 2.417027 1_565
Na8 O22 2.533310 1_555
Na8 O24 2.570261 1_555
Na8 O6 2.689313 1_555
Na8 O13 2.745489 1_564
Na8 O14 2.810560 1_555
Na9 O16 2.386740 1_545
Na9 O40 2.417027 1_545
Na9 O21 2.533310 1_555
Na9 O27 2.570261 1_556
Na9 O5 2.689313 1_555
Na9 O14 2.745489 1_545
Na9 O13 2.810560 1_555
Na10 O23 2.386740 1_555
Na10 O47 2.417027 1_555
Na10 O18 2.533310 1_555
Na10 O28 2.570261 1_555
Na10 O2 2.689313 1_555
Na10 O9 2.745489 1_554
Na10 O10 2.810560 1_555
Na11 O20 2.386740 1_555
Na11 O44 2.417027 1_555
Na11 O17 2.533310 1_555
Na11 O31 2.570261 1_556
Na11 O1 2.689313 1_555
Na11 O10 2.745489 1_555
Na11 O9 2.810560 1_555
Hf0 O15 2.000729 1_556
Hf0 O31 2.069991 1_556
Hf0 O38 2.072057 1_656
Hf0 O41 2.094439 1_555
Hf0 O17 2.103229 1_555
Hf0 O1 2.145404 1_555
Hf1 O12 2.000729 1_555
Hf1 O28 2.069991 1_555
Hf1 O37 2.072057 1_655
Hf1 O42 2.094439 1_555
Hf1 O18 2.103229 1_555
Hf1 O2 2.145404 1_555
Hf2 O11 2.000729 1_556
Hf2 O27 2.069991 1_556
Hf2 O34 2.072057 1_556
Hf2 O45 2.094439 1_555
Hf2 O21 2.103229 1_555
Hf2 O5 2.145404 1_555
Hf3 O8 2.000729 1_555
Hf3 O24 2.069991 1_555
Hf3 O33 2.072057 1_555
Hf3 O46 2.094439 1_555
Hf3 O22 2.103229 1_555
Hf3 O6 2.145404 1_555
Mg0 O30 1.995189 1_555
Mg0 O14 2.070668 1_555
Mg0 O39 2.079173 1_455
Mg0 O40 2.131674 1_555
Mg0 O0 2.156008 1_555
Mg0 O16 2.159993 1_555
Mg1 O29 1.995189 1_554
Mg1 O13 2.070668 1_554
Mg1 O36 2.079173 1_454
Mg1 O43 2.131674 1_555
Mg1 O3 2.156008 1_555
Mg1 O19 2.159993 1_555
Mg2 O26 1.995189 1_555
Mg2 O10 2.070668 1_555
Mg2 O35 2.079173 1_555
Mg2 O44 2.131674 1_555
Mg2 O4 2.156008 1_555
Mg2 O20 2.159993 1_555
Mg3 O25 1.995189 1_554
Mg3 O9 2.070668 1_554
Mg3 O32 2.079173 1_554
Mg3 O47 2.131674 1_555
Mg3 O7 2.156008 1_555
Mg3 O23 2.159993 1_555
O0 P9 1.528394 1_555
O1 P8 1.587534 1_555
O2 P11 1.587534 1_555
O3 P10 1.528394 1_555
O4 P5 1.528394 1_545
O5 P4 1.587534 1_545
O6 P7 1.587534 1_565
O7 P6 1.528394 1_565
O8 P2 1.570065 1_555
O9 P2 1.514646 1_555
O10 P3 1.514646 1_555
O11 P3 1.570065 1_555
O12 P0 1.570065 1_645
O13 P0 1.514646 1_545
O14 P1 1.514646 1_565
O15 P1 1.570065 1_665
O16 P4 1.529562 1_555
O17 P5 1.577617 1_555
O18 P6 1.577617 1_555
O19 P7 1.529562 1_555
O20 P8 1.529562 1_555
O21 P9 1.577617 1_555
O22 P10 1.577617 1_555
O23 P11 1.529562 1_555
O24 P4 1.584678 1_555
O25 P5 1.512112 1_555
O26 P6 1.512112 1_555
O27 P7 1.584678 1_555
O28 P8 1.584678 1_555
O29 P9 1.512112 1_555
O30 P10 1.512112 1_555
O31 P11 1.584678 1_555
O32 P4 1.520112 1_555
O33 P5 1.583167 1_555
O34 P6 1.583167 1_555
O35 P7 1.520112 1_555
O36 P8 1.520112 1_555
O37 P9 1.583167 1_555
O38 P10 1.583167 1_555
O39 P11 1.520112 1_555
O40 P0 1.542634 1_555
O41 P0 1.570144 1_655
O42 P1 1.570144 1_655
O43 P1 1.542634 1_555
O44 P2 1.542634 1_555
O45 P2 1.570144 1_555
O46 P3 1.570144 1_555
O47 P3 1.542634 1_555
