# generated using pymatgen
data_KMgMn2(MoO5)2
_symmetry_space_group_name_H-M   'P 1'
_cell_length_a   6.18215006
_cell_length_b   6.14264579
_cell_length_c   8.54189263
_cell_angle_alpha   63.54028158
_cell_angle_beta   63.15785081
_cell_angle_gamma   64.45114863
_symmetry_Int_Tables_number   1
_chemical_formula_structural   KMgMn2(MoO5)2
_chemical_formula_sum   'K1 Mg1 Mn2 Mo2 O10'
_cell_volume   248.12580753
_cell_formula_units_Z   1
loop_
 _symmetry_equiv_pos_site_id
 _symmetry_equiv_pos_as_xyz
  1  'x, y, z'
loop_
 _atom_site_type_symbol
 _atom_site_label
 _atom_site_symmetry_multiplicity
 _atom_site_fract_x
 _atom_site_fract_y
 _atom_site_fract_z
 _atom_site_occupancy
  K  K0  1  0.49386400  0.50812600  0.52796900  1
  Mg  Mg0  1  0.45428600  0.45000800  0.14961300  1
  Mn  Mn0  1  0.99364400  0.49728900  0.00640700  1
  Mn  Mn1  1  0.49328600  0.01014000  0.98855500  1
  Mo  Mo0  1  0.10050000  0.09142900  0.71567400  1
  Mo  Mo1  1  0.90136100  0.90061600  0.29310800  1
  O  O0  1  0.68534200  0.66333800  0.95609900  1
  O  O1  1  0.28833100  0.31561800  0.08269500  1
  O  O2  1  0.26194800  0.22128700  0.47781200  1
  O  O3  1  0.76092900  0.77931600  0.52889600  1
  O  O4  1  0.78416200  0.25338200  0.22555200  1
  O  O5  1  0.76628100  0.20598200  0.76011500  1
  O  O6  1  0.17663500  0.74822400  0.78532100  1
  O  O7  1  0.24341300  0.76424900  0.24024800  1
  O  O8  1  0.18335900  0.18376000  0.85388600  1
  O  O9  1  0.79807700  0.79265300  0.18148800  1
loop_
_geom_bond_atom_site_label_1
_geom_bond_atom_site_label_2
_geom_bond_distance
_geom_bond_site_symmetry_2
K0 O5 2.693163 1_555
K0 O6 2.711956 1_555
K0 O3 2.810133 1_555
K0 O9 2.924037 1_555
K0 O2 2.958047 1_555
K0 O7 2.966870 1_555
K0 O8 2.989157 1_555
K0 O4 3.055428 1_555
Mg0 O1 1.934277 1_555
Mg0 O0 2.010449 1_554
Mg0 O7 2.067499 1_555
Mg0 O4 2.100078 1_555
Mg0 O2 2.483494 1_555
Mn0 O0 1.878812 1_554
Mn0 O1 1.912948 1_655
Mn0 O6 2.050087 1_654
Mn0 O4 2.100249 1_555
Mn0 O8 2.385309 1_654
Mn0 O9 2.425512 1_555
Mn1 O0 2.017926 1_545
Mn1 O1 2.036379 1_556
Mn1 O5 2.188262 1_555
Mn1 O8 2.294853 1_555
Mn1 O7 2.325814 1_546
Mn1 O9 2.592712 1_546
Mo0 O2 1.780944 1_555
Mo0 O5 1.784386 1_455
Mo0 O6 1.816377 1_545
Mo0 O8 1.836104 1_555
Mo1 O3 1.734064 1_555
Mo1 O9 1.798631 1_555
Mo1 O7 1.823203 1_655
Mo1 O4 1.860782 1_565
