# generated using pymatgen
data_Cs
_symmetry_space_group_name_H-M   'P 1'
_cell_length_a   10.84965741
_cell_length_b   10.84965741
_cell_length_c   10.89571131
_cell_angle_alpha   72.21840509
_cell_angle_beta   72.21840509
_cell_angle_gamma   113.29085967
_symmetry_Int_Tables_number   1
_chemical_formula_structural   Cs
_chemical_formula_sum   Cs8
_cell_volume   979.63490696
_cell_formula_units_Z   8
loop_
 _symmetry_equiv_pos_site_id
 _symmetry_equiv_pos_as_xyz
  1  'x, y, z'
loop_
 _atom_site_type_symbol
 _atom_site_label
 _atom_site_symmetry_multiplicity
 _atom_site_fract_x
 _atom_site_fract_y
 _atom_site_fract_z
 _atom_site_occupancy
  Cs  Cs0_0  1  0.00000000  0.00000000  0.25000000  1
  Cs  Cs0_1  1  1.00000000  1.00000000  0.75000000  1
  Cs  Cs0_2  1  0.00000000  0.50000000  0.25000000  1
  Cs  Cs0_3  1  0.00000000  0.50000000  0.75000000  1
  Cs  Cs0_4  1  0.50000000  0.00000000  0.25000000  1
  Cs  Cs0_5  1  0.50000000  0.00000000  0.75000000  1
  Cs  Cs0_6  1  0.50000000  0.50000000  0.25000000  1
  Cs  Cs0_7  1  0.50000000  0.50000000  0.75000000  1
loop_
_geom_bond_atom_site_label_1
_geom_bond_atom_site_label_2
_geom_bond_distance
_geom_bond_site_symmetry_2
Cs0_0 Cs0_7 5.400271 1_554
Cs0_0 Cs0_7 5.400271 1_445
Cs0_0 Cs0_4 5.424829 1_555
Cs0_0 Cs0_2 5.424829 1_545
Cs0_0 Cs0_2 5.424829 1_555
Cs0_0 Cs0_4 5.424829 1_455
Cs0_0 Cs0_1 5.447856 1_444
Cs0_0 Cs0_1 5.447856 1_445
Cs0_1 Cs0_6 5.400271 1_556
Cs0_1 Cs0_6 5.400271 1_665
Cs0_1 Cs0_5 5.424829 1_565
Cs0_1 Cs0_5 5.424829 1_665
Cs0_1 Cs0_3 5.424829 1_655
Cs0_1 Cs0_3 5.424829 1_665
Cs0_2 Cs0_5 5.400271 1_564
Cs0_2 Cs0_5 5.400271 1_455
Cs0_2 Cs0_6 5.424829 1_455
Cs0_2 Cs0_6 5.424829 1_555
Cs0_2 Cs0_3 5.447856 1_554
Cs0_2 Cs0_3 5.447856 1_555
Cs0_3 Cs0_4 5.400271 1_456
Cs0_3 Cs0_4 5.400271 1_565
Cs0_3 Cs0_7 5.424829 1_555
Cs0_3 Cs0_7 5.424829 1_455
Cs0_4 Cs0_6 5.424829 1_555
Cs0_4 Cs0_6 5.424829 1_545
Cs0_4 Cs0_5 5.447856 1_554
Cs0_4 Cs0_5 5.447856 1_555
Cs0_5 Cs0_7 5.424829 1_555
Cs0_5 Cs0_7 5.424829 1_545
Cs0_6 Cs0_7 5.447856 1_555
Cs0_6 Cs0_7 5.447856 1_554
