# generated using pymatgen
data_MgTe2Mo2W(SeS)2
_symmetry_space_group_name_H-M   'P 1'
_cell_length_a   3.35341800
_cell_length_b   3.35332605
_cell_length_c   36.44539101
_cell_angle_alpha   90.00279555
_cell_angle_beta   90.00000000
_cell_angle_gamma   120.00090707
_symmetry_Int_Tables_number   1
_chemical_formula_structural   MgTe2Mo2W(SeS)2
_chemical_formula_sum   'Mg1 Te2 Mo2 W1 Se2 S2'
_cell_volume   354.92186027
_cell_formula_units_Z   1
loop_
 _symmetry_equiv_pos_site_id
 _symmetry_equiv_pos_as_xyz
  1  'x, y, z'
loop_
 _atom_site_type_symbol
 _atom_site_label
 _atom_site_symmetry_multiplicity
 _atom_site_fract_x
 _atom_site_fract_y
 _atom_site_fract_z
 _atom_site_occupancy
  Mg  Mg0  1  0.99989200  0.99978400  0.22146100  1
  Te  Te0  1  0.66656000  0.33311900  0.52689200  1
  Te  Te1  1  0.66649100  0.33298100  0.63141100  1
  Mo  Mo0  1  0.33321200  0.66642400  0.11042200  1
  Mo  Mo1  1  0.66695200  0.33390600  0.35227600  1
  W  W0  1  0.33319900  0.66639900  0.57913000  1
  Se  Se0  1  0.33365000  0.66730100  0.39785300  1
  Se  Se1  1  0.33356500  0.66713200  0.30624500  1
  S  S0  1  0.66650400  0.33300700  0.06929500  1
  S  S1  1  0.66657400  0.33314900  0.15285800  1
loop_
_geom_bond_atom_site_label_1
_geom_bond_atom_site_label_2
_geom_bond_distance
_geom_bond_site_symmetry_2
Mg0 S1 3.162058 1_555
Mg0 S1 3.162303 1_665
Mg0 S1 3.162305 1_565
Te0 W0 2.715229 1_655
Te0 W0 2.715233 1_555
Te0 W0 2.715474 1_545
Te1 W0 2.716134 1_545
Te1 W0 2.716547 1_655
Te1 W0 2.716552 1_555
Mo0 S0 2.448316 1_565
Mo0 S0 2.448545 1_455
Mo0 S0 2.448547 1_555
Mo0 S1 2.477942 1_555
Mo0 S1 2.477945 1_455
Mo0 S1 2.477998 1_565
Mo1 Se0 2.550887 1_545
Mo1 Se0 2.551024 1_555
Mo1 Se0 2.551026 1_655
Mo1 Se1 2.561715 1_555
Mo1 Se1 2.561715 1_655
Mo1 Se1 2.561921 1_545
