# generated using pymatgen
data_Na3ZrZn3PS5O24
_symmetry_space_group_name_H-M   'P 1'
_cell_length_a   8.84479947
_cell_length_b   8.81937293
_cell_length_c   22.78173986
_cell_angle_alpha   90.13718570
_cell_angle_beta   90.26331346
_cell_angle_gamma   120.06367451
_symmetry_Int_Tables_number   1
_chemical_formula_structural   Na3ZrZn3PS5O24
_chemical_formula_sum   'Na9 Zr3 Zn9 P3 S15 O72'
_cell_volume   1537.98898281
_cell_formula_units_Z   3
loop_
 _symmetry_equiv_pos_site_id
 _symmetry_equiv_pos_as_xyz
  1  'x, y, z'
loop_
 _atom_site_type_symbol
 _atom_site_label
 _atom_site_symmetry_multiplicity
 _atom_site_fract_x
 _atom_site_fract_y
 _atom_site_fract_z
 _atom_site_occupancy
  Na  Na0  1  0.36299159  0.36275174  0.25090771  1
  Na  Na1  1  0.02966441  0.70008776  0.58623078  1
  Na  Na2  1  0.29875499  0.96478740  0.07957436  1
  Na  Na3  1  0.98923291  0.00506774  0.50069317  1
  Na  Na4  1  0.99709672  0.01052971  0.99094078  1
  Na  Na5  1  0.66596814  0.32630441  0.82435965  1
  Na  Na6  1  0.68363950  0.33016509  0.32823382  1
  Na  Na7  1  0.33262293  0.66553076  0.16711379  1
  Na  Na8  1  0.36000618  0.66323776  0.66150008  1
  Zr  Zr0  1  0.67116843  0.33160069  0.97783907  1
  Zr  Zr1  1  0.66545971  0.33781951  0.48179008  1
  Zr  Zr2  1  0.32726265  0.66768209  0.81488426  1
  Zn  Zn0  1  0.99401041  0.99490355  0.34806739  1
  Zn  Zn1  1  0.01308058  0.01298677  0.85110179  1
  Zn  Zn2  1  0.98535325  0.99715445  0.65195724  1
  Zn  Zn3  1  0.98721915  0.99543161  0.15432030  1
  Zn  Zn4  1  0.65799751  0.33801870  0.68266714  1
  Zn  Zn5  1  0.67879334  0.33703921  0.18277369  1
  Zn  Zn6  1  0.32469222  0.66014663  0.00761306  1
  Zn  Zn7  1  0.35588678  0.66621926  0.51591338  1
  Zn  Zn8  1  0.33259188  0.67740958  0.31909401  1
  P  P0  1  0.66667839  0.63397367  0.58662058  1
  P  P1  1  0.04272981  0.36536863  0.91836097  1
  P  P2  1  0.32216547  0.95702139  0.92092500  1
  S  S0  1  0.29544033  0.99880908  0.24844564  1
  S  S1  1  0.70135864  0.70152240  0.25037669  1
  S  S2  1  0.00060904  0.29607282  0.25074566  1
  S  S3  1  0.29431201  0.28945481  0.74854927  1
  S  S4  1  0.99422195  0.70531671  0.74860584  1
  S  S5  1  0.70880388  0.00567205  0.74997542  1
  S  S6  1  0.96323581  0.33342589  0.58462881  1
  S  S7  1  0.36988805  0.03573548  0.58468108  1
  S  S8  1  0.96362400  0.63186265  0.08635316  1
  S  S9  1  0.66757695  0.03600087  0.08562037  1
  S  S10  1  0.37154749  0.33663768  0.08671064  1
  S  S11  1  0.63010412  0.67340435  0.91827638  1
  S  S12  1  0.63130335  0.95991643  0.41556956  1
  S  S13  1  0.32551328  0.36729802  0.41381883  1
  S  S14  1  0.04413850  0.67224499  0.41782392  1
  O  O0  1  0.20803750  0.02702886  0.29912026  1
  O  O1  1  0.80586985  0.78384205  0.30340885  1
  O  O2  1  0.97688211  0.19119893  0.30369732  1
  O  O3  1  0.21400380  0.19077235  0.80219508  1
  O  O4  1  0.97888361  0.79513042  0.80026863  1
  O  O5  1  0.81121897  0.02396767  0.80298016  1
  O  O6  1  0.77927851  0.97430062  0.69595948  1
  O  O7  1  0.18996766  0.21246327  0.69515097  1
  O  O8  1  0.02154652  0.80201567  0.69311343  1
  O  O9  1  0.78021762  0.80236164  0.19640881  1
  O  O10  1  0.03056071  0.21633256  0.19741729  1
  O  O11  1  0.19733729  0.97664753  0.19249342  1
  O  O12  1  0.87956065  0.35840177  0.63657980  1
  O  O13  1  0.47682207  0.11581494  0.63730200  1
  O  O14  1  0.64423779  0.52423827  0.64060443  1
  O  O15  1  0.87959083  0.52934372  0.13892320  1
  O  O16  1  0.63910145  0.11973405  0.13740650  1
  O  O17  1  0.46971657  0.35476722  0.14190801  1
  O  O18  1  0.46882508  0.31454961  0.03573221  1
  O  O19  1  0.85742308  0.54065438  0.03267666  1
  O  O20  1  0.68634963  0.14557069  0.03201348  1
  O  O21  1  0.46325155  0.14322050  0.53117862  1
  O  O22  1  0.68823047  0.53483702  0.53105040  1
  O  O23  1  0.85171595  0.31146285  0.53065942  1
  O  O24  1  0.55167529  0.69503757  0.97180616  1
  O  O25  1  0.14588266  0.44298919  0.97455980  1
  O  O26  1  0.30937566  0.86489528  0.97927418  1
  O  O27  1  0.54927007  0.85961555  0.46886651  1
  O  O28  1  0.30626283  0.45381825  0.46595417  1
  O  O29  1  0.14040282  0.68855610  0.47274253  1
  O  O30  1  0.12238440  0.64243090  0.36542098  1
  O  O31  1  0.52656665  0.88492691  0.36190180  1
  O  O32  1  0.35628443  0.46876567  0.35913278  1
  O  O33  1  0.13404280  0.48285665  0.86395108  1
  O  O34  1  0.35321888  0.86333798  0.86796875  1
  O  O35  1  0.51826098  0.64350095  0.86534772  1
  O  O36  1  0.01978014  0.82565179  0.41190221  1
  O  O37  1  0.80845759  0.98281085  0.41107665  1
  O  O38  1  0.17252826  0.18885931  0.40969261  1
  O  O39  1  0.00847771  0.18024754  0.91017849  1
  O  O40  1  0.16225575  0.97515655  0.91186516  1
  O  O41  1  0.80494424  0.82278166  0.91057929  1
  O  O42  1  0.98185826  0.17733604  0.58675520  1
  O  O43  1  0.19745621  0.02469340  0.58612260  1
  O  O44  1  0.84101633  0.81124304  0.58700104  1
  O  O45  1  0.98035736  0.80898633  0.08810218  1
  O  O46  1  0.82787275  0.02456621  0.08910929  1
  O  O47  1  0.19942422  0.16995055  0.08745693  1
  O  O48  1  0.68460177  0.15985639  0.74466336  1
  O  O49  1  0.47205792  0.31174614  0.74509334  1
  O  O50  1  0.84252183  0.52498726  0.74569574  1
  O  O51  1  0.67790236  0.52035485  0.24614151  1
  O  O52  1  0.84454337  0.31657844  0.24463113  1
  O  O53  1  0.47177955  0.16262283  0.24519052  1
  O  O54  1  0.64105905  0.50788306  0.92278844  1
  O  O55  1  0.86153705  0.36050991  0.92217841  1
  O  O56  1  0.49315228  0.14323817  0.92328915  1
  O  O57  1  0.65007587  0.14033437  0.42172117  1
  O  O58  1  0.48758924  0.34910615  0.42144675  1
  O  O59  1  0.86233073  0.50818905  0.42174207  1
  O  O60  1  0.35376267  0.49216529  0.07933303  1
  O  O61  1  0.14116718  0.65375784  0.08190227  1
  O  O62  1  0.50750031  0.86226954  0.07889176  1
  O  O63  1  0.34234584  0.85579799  0.57752619  1
  O  O64  1  0.50528004  0.65301544  0.57828281  1
  O  O65  1  0.13373995  0.49760623  0.57681829  1
  O  O66  1  0.31570758  0.84253611  0.25495663  1
  O  O67  1  0.52105841  0.67758629  0.25471434  1
  O  O68  1  0.16358685  0.47257949  0.25587583  1
  O  O69  1  0.31649690  0.47218854  0.75438962  1
  O  O70  1  0.15766676  0.68787226  0.75473925  1
  O  O71  1  0.52774057  0.84290114  0.75597450  1
loop_
_geom_bond_atom_site_label_1
_geom_bond_atom_site_label_2
_geom_bond_distance
_geom_bond_site_symmetry_2
Na0 O53 2.399938 1_555
Na0 O68 2.403034 1_555
Na0 O67 2.404202 1_555
Na0 O51 2.413787 1_555
Na0 O32 2.646232 1_555
Na0 O17 2.673878 1_555
Na0 O0 2.795555 1_555
Na0 O10 2.820134 1_555
Na1 O44 2.320444 1_455
Na1 O65 2.393591 1_555
Na1 O63 2.403098 1_555
Na1 O43 2.478199 1_565
Na1 O8 2.607323 1_555
Na1 O29 2.788567 1_555
Na1 O12 2.860299 1_455
Na1 O22 2.893243 1_455
Na2 O61 2.375019 1_555
Na2 O47 2.381326 1_565
Na2 O62 2.428851 1_555
Na2 O45 2.446598 1_455
Na2 O26 2.466068 1_554
Na2 O11 2.747223 1_555
Na2 O18 2.855721 1_565
Na2 O16 2.915216 1_565
Na3 O42 2.498568 1_555
Na3 O44 2.510241 1_545
Na3 O37 2.533162 1_545
Na3 O43 2.618333 1_655
Na3 O38 2.639649 1_655
Na3 O36 2.662067 1_645
Na4 O39 2.345152 1_655
Na4 O40 2.440222 1_645
Na4 O41 2.473715 1_545
Na4 O47 2.728028 1_656
Na4 O46 2.733566 1_556
Na4 O45 2.799851 1_546
Na5 O48 2.389761 1_555
Na5 O49 2.443120 1_555
Na5 O50 2.453522 1_555
Na5 O55 2.736377 1_555
Na5 O56 2.756652 1_555
Na5 O54 2.825271 1_555
Na6 O52 2.421154 1_555
Na6 O51 2.532428 1_555
Na6 O53 2.540419 1_555
Na6 O57 2.636669 1_555
Na6 O59 2.639683 1_555
Na6 O58 2.804745 1_555
Na7 O61 2.537620 1_555
Na7 O67 2.561789 1_555
Na7 O60 2.578206 1_555
Na7 O66 2.585729 1_555
Na7 O68 2.591404 1_555
Na7 O62 2.607467 1_555
Na8 O64 2.321845 1_555
Na8 O69 2.615385 1_555
Na8 O63 2.616663 1_555
Na8 O65 2.623501 1_555
Na8 O71 2.634976 1_555
Na8 O70 2.860834 1_555
O0 S0 1.480517 1_545
O0 Zn0 2.095427 1_445
O1 S1 1.467776 1_555
O1 Zn0 2.034946 1_555
O2 S2 1.472395 1_655
O2 Zn0 2.076423 1_545
O3 S3 1.466055 1_555
O3 Zn1 2.023069 1_555
O4 S4 1.461421 1_555
O4 Zn1 2.127929 1_665
O5 S5 1.465369 1_555
O5 Zn1 2.134185 1_655
O6 S5 1.468887 1_565
O6 Zn2 2.004346 1_555
O7 S3 1.466477 1_555
O7 Zn2 2.093056 1_445
O8 S4 1.478316 1_455
O8 Zn2 2.121414 1_455
O9 S1 1.476707 1_555
O9 Zn3 2.017751 1_555
O10 S2 1.492078 1_555
O10 Zn3 2.036063 1_445
O11 S0 1.494878 1_555
O11 Zn3 2.128823 1_455
O12 S6 1.472122 1_555
O12 Zn4 2.154511 1_555
O13 S7 1.465168 1_555
O13 Zn4 2.074876 1_555
O14 P0 1.517904 1_555
O14 Zn4 1.958847 1_555
O15 S8 1.464347 1_555
O15 Zn5 2.008765 1_555
O16 S9 1.478365 1_555
O16 Zn5 2.043889 1_555
O17 S10 1.486834 1_555
O17 Zn5 2.141365 1_555
O18 S10 1.517586 1_555
O18 Zr0 2.172119 1_554
O19 S8 1.500808 1_555
O19 Zr0 2.144952 1_554
O20 S9 1.516444 1_555
O20 Zr0 2.112330 1_554
O21 S7 1.515477 1_555
O21 Zr1 2.088664 1_555
O22 P0 1.602312 1_555
O22 Zr1 1.989243 1_555
O23 S6 1.522643 1_555
O23 Zr1 2.091772 1_555
O24 S11 1.464258 1_555
O24 Zn6 2.046449 1_556
O25 P1 1.516416 1_555
O25 Zn6 1.919275 1_556
O26 P2 1.534417 1_555
O26 Zn6 1.986402 1_556
O27 S12 1.467447 1_555
O27 Zn7 2.021427 1_555
O28 S13 1.466167 1_555
O28 Zn7 2.039244 1_555
O29 S14 1.475678 1_555
O29 Zn7 2.235727 1_555
O30 S14 1.470287 1_555
O30 Zn8 2.027504 1_555
O31 S12 1.470476 1_555
O31 Zn8 2.018464 1_555
O32 S13 1.480352 1_555
O32 Zn8 2.157444 1_555
O33 P1 1.561830 1_555
O33 Zr2 2.015546 1_555
O34 P2 1.561801 1_555
O34 Zr2 2.020732 1_555
O35 S11 1.492723 1_555
O35 Zr2 2.136664 1_555
O36 S14 1.479104 1_555
O36 Zn0 2.177892 1_455
O37 S12 1.480199 1_555
O37 Zn0 2.147651 1_555
O38 S13 1.476806 1_555
O38 Zn0 2.156891 1_445
O39 P1 1.514773 1_555
O39 Zn1 2.010028 1_555
O40 P2 1.514182 1_555
O40 Zn1 2.048158 1_565
O41 S11 1.456076 1_555
O41 Zn1 2.231309 1_665
O42 S6 1.466960 1_555
O42 Zn2 2.189228 1_545
O43 S7 1.479269 1_555
O43 Zn2 2.323568 1_445
O44 P0 1.551274 1_555
O44 Zn2 2.093274 1_555
O45 S8 1.493893 1_555
O45 Zn3 2.206935 1_555
O46 S9 1.472704 1_555
O46 Zn3 2.145899 1_545
O47 S10 1.495699 1_555
O47 Zn3 2.314132 1_445
O48 S5 1.483827 1_555
O48 Zn4 2.212947 1_555
O49 S3 1.485926 1_555
O49 Zn4 2.102916 1_555
O50 S4 1.481454 1_555
O50 Zn4 2.171463 1_555
O51 S1 1.507388 1_555
O51 Zn5 2.167864 1_555
O52 S2 1.485261 1_655
O52 Zn5 2.101185 1_555
O53 S0 1.506414 1_545
O53 Zn5 2.225576 1_555
O54 S11 1.514364 1_555
O54 Zr0 2.117074 1_555
O55 P1 1.584381 1_655
O55 Zr0 2.024620 1_555
O56 P2 1.580376 1_545
O56 Zr0 2.033390 1_555
O57 S12 1.520873 1_545
O57 Zr1 2.161983 1_555
O58 S13 1.529454 1_555
O58 Zr1 2.124266 1_555
O59 S14 1.535595 1_655
O59 Zr1 2.138104 1_555
O60 S10 1.466791 1_555
O60 Zn6 2.306504 1_555
O61 S8 1.487030 1_455
O61 Zn6 2.331631 1_555
O62 S9 1.482937 1_565
O62 Zn6 2.345868 1_555
O63 S7 1.488403 1_565
O63 Zn7 2.229569 1_555
O64 P0 1.529706 1_555
O64 Zn7 1.978926 1_555
O65 S6 1.489435 1_455
O65 Zn7 2.259347 1_555
O66 S0 1.483888 1_555
O66 Zn8 2.122316 1_555
O67 S1 1.503899 1_555
O67 Zn8 2.224804 1_555
O68 S2 1.504708 1_555
O68 Zn8 2.198696 1_555
O69 S3 1.528184 1_555
O69 Zr2 2.168866 1_555
O70 S4 1.534322 1_455
O70 Zr2 2.099809 1_555
O71 S5 1.530917 1_565
O71 Zr2 2.149359 1_555
