# generated using pymatgen
data_PtPbF6
_symmetry_space_group_name_H-M   'P 1'
_cell_length_a   4.82601237
_cell_length_b   4.82601230
_cell_length_c   4.82601233
_cell_angle_alpha   97.96503923
_cell_angle_beta   97.96503574
_cell_angle_gamma   97.96503840
_symmetry_Int_Tables_number   1
_chemical_formula_structural   PtPbF6
_chemical_formula_sum   'Pt1 Pb1 F6'
_cell_volume   108.80588304
_cell_formula_units_Z   1
loop_
 _symmetry_equiv_pos_site_id
 _symmetry_equiv_pos_as_xyz
  1  'x, y, z'
loop_
 _atom_site_type_symbol
 _atom_site_label
 _atom_site_symmetry_multiplicity
 _atom_site_fract_x
 _atom_site_fract_y
 _atom_site_fract_z
 _atom_site_occupancy
  Pt  Pt0  1  0.00000000  0.00000000  0.00000000  1
  Pb  Pb0  1  0.50000000  0.50000000  0.50000000  1
  F  F0  1  0.70575122  0.70575122  0.06230919  1
  F  F1  1  0.70575122  0.06230919  0.70575122  1
  F  F2  1  0.29424878  0.93769081  0.29424878  1
  F  F3  1  0.29424878  0.29424878  0.93769081  1
  F  F4  1  0.93769081  0.29424878  0.29424878  1
  F  F5  1  0.06230919  0.70575122  0.70575122  1
loop_
_geom_bond_atom_site_label_1
_geom_bond_atom_site_label_2
_geom_bond_distance
_geom_bond_site_symmetry_2
F0 Pt0 1.949698 1_665
F0 Pb0 2.706114 1_555
F0 Pb0 2.751247 1_554
F1 Pt0 1.949698 1_656
F1 Pb0 2.706114 1_555
F1 Pb0 2.751247 1_545
F2 Pt0 1.949698 1_565
F2 Pb0 2.706114 1_555
F2 Pb0 2.751247 1_565
F3 Pt0 1.949698 1_556
F3 Pb0 2.706114 1_555
F3 Pb0 2.751247 1_556
F4 Pt0 1.949698 1_655
F4 Pb0 2.706114 1_555
F4 Pb0 2.751247 1_655
F5 Pt0 1.949698 1_566
F5 Pb0 2.706114 1_555
F5 Pb0 2.751247 1_455
