# generated using pymatgen
data_Na2Ta4Nb4Si9(SO16)3
_symmetry_space_group_name_H-M   'P 1'
_cell_length_a   17.82638528
_cell_length_b   8.90894707
_cell_length_c   22.99492221
_cell_angle_alpha   89.98594816
_cell_angle_beta   89.89298793
_cell_angle_gamma   119.94337561
_symmetry_Int_Tables_number   1
_chemical_formula_structural   Na2Ta4Nb4Si9(SO16)3
_chemical_formula_sum   'Na6 Ta12 Nb12 Si27 S9 O144'
_cell_volume   3164.45267021
_cell_formula_units_Z   3
loop_
 _symmetry_equiv_pos_site_id
 _symmetry_equiv_pos_as_xyz
  1  'x, y, z'
loop_
 _atom_site_type_symbol
 _atom_site_label
 _atom_site_symmetry_multiplicity
 _atom_site_fract_x
 _atom_site_fract_y
 _atom_site_fract_z
 _atom_site_occupancy
  Na  Na0  1  0.00015258  0.00013927  0.50028471  1
  Na  Na1  1  0.50168824  0.00104198  0.99800595  1
  Na  Na2  1  0.33490124  0.33638340  0.83193050  1
  Na  Na3  1  0.83218597  0.32855663  0.83283282  1
  Na  Na4  1  0.33231029  0.33501856  0.33660178  1
  Na  Na5  1  0.83479036  0.33199623  0.33567704  1
  Ta  Ta0  1  0.49557268  0.99682162  0.35936718  1
  Ta  Ta1  1  0.99535416  0.99424197  0.85684318  1
  Ta  Ta2  1  0.50489391  0.00370978  0.64217842  1
  Ta  Ta3  1  0.00255574  0.00284641  0.14367119  1
  Ta  Ta4  1  0.33679363  0.34052193  0.68197660  1
  Ta  Ta5  1  0.83752484  0.33393314  0.18228729  1
  Ta  Ta6  1  0.16092283  0.66269905  0.01783159  1
  Ta  Ta7  1  0.66082654  0.66404431  0.02609363  1
  Ta  Ta8  1  0.15986865  0.65703656  0.52698356  1
  Ta  Ta9  1  0.66561860  0.65828300  0.52089297  1
  Ta  Ta10  1  0.66373930  0.65887616  0.31640852  1
  Ta  Ta11  1  0.16340254  0.66775141  0.81395371  1
  Nb  Nb0  1  0.00603475  0.01613299  0.35896237  1
  Nb  Nb1  1  0.50720279  0.99781832  0.85712661  1
  Nb  Nb2  1  0.99401819  0.98444632  0.64171768  1
  Nb  Nb3  1  0.49987427  0.00391148  0.14559468  1
  Nb  Nb4  1  0.83866727  0.34719967  0.69148084  1
  Nb  Nb5  1  0.33897021  0.34267479  0.19452702  1
  Nb  Nb6  1  0.33826190  0.34702849  0.97253525  1
  Nb  Nb7  1  0.83354693  0.32467266  0.98176001  1
  Nb  Nb8  1  0.33421862  0.34352588  0.48254366  1
  Nb  Nb9  1  0.84055514  0.34310210  0.47566667  1
  Nb  Nb10  1  0.15951300  0.65029085  0.30637797  1
  Nb  Nb11  1  0.66108282  0.67042602  0.80484996  1
  Si  Si0  1  0.14225542  0.99785002  0.24983493  1
  Si  Si1  1  0.35698772  0.72075512  0.25125920  1
  Si  Si2  1  0.99495671  0.27961371  0.24925977  1
  Si  Si3  1  0.50460116  0.29016452  0.25151003  1
  Si  Si4  1  0.64355201  0.28704142  0.74917800  1
  Si  Si5  1  0.00338066  0.71888105  0.75042118  1
  Si  Si6  1  0.49452926  0.70943924  0.74876624  1
  Si  Si7  1  0.85701062  0.00079552  0.74989248  1
  Si  Si8  1  0.47922626  0.33367455  0.58177928  1
  Si  Si9  1  0.97447350  0.32798602  0.58422855  1
  Si  Si10  1  0.18995657  0.04550926  0.58382199  1
  Si  Si11  1  0.33373449  0.62897350  0.58371610  1
  Si  Si12  1  0.82913147  0.61424264  0.58294739  1
  Si  Si13  1  0.47476318  0.62070426  0.08396824  1
  Si  Si14  1  0.97932309  0.62542540  0.08180090  1
  Si  Si15  1  0.83364500  0.03912698  0.08356119  1
  Si  Si16  1  0.69033681  0.33576342  0.08374465  1
  Si  Si17  1  0.30911388  0.67428080  0.91606071  1
  Si  Si18  1  0.02062272  0.37521325  0.91604089  1
  Si  Si19  1  0.52810739  0.38178552  0.91605369  1
  Si  Si20  1  0.16547169  0.95550101  0.91645328  1
  Si  Si21  1  0.67045123  0.95244980  0.91696656  1
  Si  Si22  1  0.80867915  0.95165348  0.41674390  1
  Si  Si23  1  0.17103536  0.38885252  0.41741891  1
  Si  Si24  1  0.66655287  0.37559353  0.41742181  1
  Si  Si25  1  0.02703946  0.67228332  0.41641697  1
  Si  Si26  1  0.52207256  0.66527528  0.41844162  1
  S  S0  1  0.64407188  0.00073425  0.25094593  1
  S  S1  1  0.85571962  0.71207585  0.25004310  1
  S  S2  1  0.14390510  0.28777125  0.75048757  1
  S  S3  1  0.35602750  0.99935489  0.75000864  1
  S  S4  1  0.69106846  0.04574179  0.58333001  1
  S  S5  1  0.33161694  0.04457164  0.08320116  1
  S  S6  1  0.19044274  0.33469524  0.08345582  1
  S  S7  1  0.80889755  0.66517232  0.91649613  1
  S  S8  1  0.30835418  0.95273654  0.41625214  1
  O  O0  1  0.09718725  0.03216952  0.30626665  1
  O  O1  1  0.60390904  0.03032109  0.30256724  1
  O  O2  1  0.41988323  0.80617025  0.30667676  1
  O  O3  1  0.90953793  0.78715854  0.30190498  1
  O  O4  1  0.48576696  0.16269984  0.30639062  1
  O  O5  1  0.98184821  0.16198905  0.30657582  1
  O  O6  1  0.10399683  0.17857613  0.80345252  1
  O  O7  1  0.59560991  0.16234863  0.80644817  1
  O  O8  1  0.48194293  0.80158624  0.80685310  1
  O  O9  1  0.98708498  0.80956005  0.80699890  1
  O  O10  1  0.40931677  0.03066581  0.80244457  1
  O  O11  1  0.91897951  0.03153416  0.80695894  1
  O  O12  1  0.39530931  0.97211063  0.69722673  1
  O  O13  1  0.90515895  0.97358441  0.69364714  1
  O  O14  1  0.09180068  0.21281652  0.69820351  1
  O  O15  1  0.58179136  0.19277160  0.69328510  1
  O  O16  1  0.01689199  0.83660227  0.69337515  1
  O  O17  1  0.51127767  0.83413780  0.69320519  1
  O  O18  1  0.40551696  0.83591499  0.19313321  1
  O  O19  1  0.89608374  0.81914993  0.19683039  1
  O  O20  1  0.01144505  0.18899224  0.19302264  1
  O  O21  1  0.51507278  0.19502976  0.19300673  1
  O  O22  1  0.08234241  0.97153246  0.19284084  1
  O  O23  1  0.59041281  0.97246181  0.19747113  1
  O  O24  1  0.43165978  0.36382406  0.63948578  1
  O  O25  1  0.92855211  0.36005403  0.64019996  1
  O  O26  1  0.25057434  0.13904038  0.64129303  1
  O  O27  1  0.74256576  0.12290364  0.63597331  1
  O  O28  1  0.31756163  0.49941305  0.63972810  1
  O  O29  1  0.81749338  0.49720087  0.64036785  1
  O  O30  1  0.42716444  0.49456990  0.13951369  1
  O  O31  1  0.93242718  0.50003099  0.13931598  1
  O  O32  1  0.31862788  0.12266125  0.13584044  1
  O  O33  1  0.81770667  0.13636430  0.13966875  1
  O  O34  1  0.24359342  0.36073438  0.13555248  1
  O  O35  1  0.74958065  0.36008739  0.14134941  1
  O  O36  1  0.22825782  0.30145901  0.03108294  1
  O  O37  1  0.73491888  0.30060175  0.02690707  1
  O  O38  1  0.41327944  0.52466278  0.02727725  1
  O  O39  1  0.91657507  0.53022892  0.02659189  1
  O  O40  1  0.34699385  0.15316174  0.03094403  1
  O  O41  1  0.85095217  0.16762404  0.02747587  1
  O  O42  1  0.23578191  0.16970778  0.52671145  1
  O  O43  1  0.72723643  0.15379891  0.53103778  1
  O  O44  1  0.35118424  0.53536552  0.52753698  1
  O  O45  1  0.84670424  0.52389046  0.52650508  1
  O  O46  1  0.41540208  0.30063927  0.52648364  1
  O  O47  1  0.91476272  0.29878430  0.52656399  1
  O  O48  1  0.26371852  0.69459741  0.97502455  1
  O  O49  1  0.77252755  0.69747788  0.96913201  1
  O  O50  1  0.08352429  0.46965102  0.97294526  1
  O  O51  1  0.58442155  0.46990411  0.97415976  1
  O  O52  1  0.15160272  0.83216763  0.97343695  1
  O  O53  1  0.65370761  0.83180548  0.97397487  1
  O  O54  1  0.27286488  0.84775015  0.46901797  1
  O  O55  1  0.76367601  0.83224040  0.47360893  1
  O  O56  1  0.15384429  0.47626307  0.47383346  1
  O  O57  1  0.64978330  0.46749571  0.47296769  1
  O  O58  1  0.08504948  0.69993800  0.47374592  1
  O  O59  1  0.58424190  0.69909881  0.47352759  1
  O  O60  1  0.07007998  0.63767064  0.35943045  1
  O  O61  1  0.56904377  0.63759589  0.35977470  1
  O  O62  1  0.25779745  0.87681491  0.36363589  1
  O  O63  1  0.74937975  0.86149122  0.35818254  1
  O  O64  1  0.18299133  0.50249814  0.35921082  1
  O  O65  1  0.68266008  0.50092733  0.35988007  1
  O  O66  1  0.06977394  0.50206621  0.86002886  1
  O  O67  1  0.56835506  0.50247652  0.85954363  1
  O  O68  1  0.18374641  0.86431342  0.86021865  1
  O  O69  1  0.68306144  0.86347296  0.85937960  1
  O  O70  1  0.24903232  0.63577141  0.85890055  1
  O  O71  1  0.75745425  0.63778321  0.86393848  1
  O  O72  1  0.01044997  0.83515263  0.40704029  1
  O  O73  1  0.51268678  0.83566223  0.40412990  1
  O  O74  1  0.39827228  0.97263337  0.40850504  1
  O  O75  1  0.90453837  0.97181975  0.40698600  1
  O  O76  1  0.08324204  0.19317351  0.41032469  1
  O  O77  1  0.58155358  0.18836529  0.40346118  1
  O  O78  1  0.01346406  0.18917009  0.90502736  1
  O  O79  1  0.50935357  0.18452849  0.90792515  1
  O  O80  1  0.08195637  0.97594710  0.90438659  1
  O  O81  1  0.58313591  0.97394493  0.91050294  1
  O  O82  1  0.40539992  0.83809864  0.90870127  1
  O  O83  1  0.89835265  0.82387028  0.90867896  1
  O  O84  1  0.48720758  0.16332081  0.59556266  1
  O  O85  1  0.98927257  0.16364978  0.59267006  1
  O  O86  1  0.09528629  0.02843048  0.59289178  1
  O  O87  1  0.60178729  0.02621068  0.59155636  1
  O  O88  1  0.41891108  0.81357258  0.59627335  1
  O  O89  1  0.91713245  0.80707778  0.58964459  1
  O  O90  1  0.48705593  0.81380543  0.09233042  1
  O  O91  1  0.98823628  0.81212295  0.09546554  1
  O  O92  1  0.41141084  0.02662965  0.08953340  1
  O  O93  1  0.91896033  0.02421400  0.09613578  1
  O  O94  1  0.10220591  0.17890432  0.09138613  1
  O  O95  1  0.59360168  0.16221424  0.09310276  1
  O  O96  1  0.34453171  0.15509779  0.74299590  1
  O  O97  1  0.84474060  0.16874817  0.74103388  1
  O  O98  1  0.23224527  0.30620873  0.74478531  1
  O  O99  1  0.73822434  0.30341203  0.74121447  1
  O  O100  1  0.41050743  0.51256932  0.74262192  1
  O  O101  1  0.91705757  0.52566349  0.74408959  1
  O  O102  1  0.34547486  0.52458301  0.24095517  1
  O  O103  1  0.84485490  0.53411524  0.24206681  1
  O  O104  1  0.41622918  0.30622675  0.24153191  1
  O  O105  1  0.91071781  0.30841667  0.24193558  1
  O  O106  1  0.23878102  0.17022802  0.23759313  1
  O  O107  1  0.73136367  0.15836901  0.24349021  1
  O  O108  1  0.31867926  0.49756691  0.92492687  1
  O  O109  1  0.82211636  0.51352052  0.92319134  1
  O  O110  1  0.42824314  0.35684121  0.92645352  1
  O  O111  1  0.92706542  0.36176868  0.92384103  1
  O  O112  1  0.25131382  0.14475303  0.92816858  1
  O  O113  1  0.75233103  0.15068250  0.92448678  1
  O  O114  1  0.32214070  0.13072750  0.42237734  1
  O  O115  1  0.81903497  0.14348896  0.42486079  1
  O  O116  1  0.25253742  0.35380079  0.42369231  1
  O  O117  1  0.75093719  0.35422874  0.42516361  1
  O  O118  1  0.42665587  0.49247794  0.42325552  1
  O  O119  1  0.92941160  0.49874916  0.42327231  1
  O  O120  1  0.18010090  0.48892157  0.07539971  1
  O  O121  1  0.68069507  0.50335439  0.07192437  1
  O  O122  1  0.07437603  0.64254850  0.07308442  1
  O  O123  1  0.56933574  0.64014073  0.07489290  1
  O  O124  1  0.25573570  0.86864826  0.07530593  1
  O  O125  1  0.74989204  0.85412942  0.07135886  1
  O  O126  1  0.18165744  0.85923808  0.57177346  1
  O  O127  1  0.67847049  0.87027658  0.57543321  1
  O  O128  1  0.24976942  0.64549088  0.57127756  1
  O  O129  1  0.74815046  0.64476304  0.57291098  1
  O  O130  1  0.06930054  0.49992128  0.57488942  1
  O  O131  1  0.57205466  0.50551710  0.57299890  1
  O  O132  1  0.15657240  0.83535990  0.26163460  1
  O  O133  1  0.65373676  0.84596326  0.25761456  1
  O  O134  1  0.26257255  0.69582123  0.26044323  1
  O  O135  1  0.76865078  0.69403500  0.25693779  1
  O  O136  1  0.08081307  0.47046405  0.25728257  1
  O  O137  1  0.58673540  0.48294203  0.25979878  1
  O  O138  1  0.15487872  0.46372032  0.75946931  1
  O  O139  1  0.65531600  0.47637476  0.76228695  1
  O  O140  1  0.08669054  0.69169935  0.76089265  1
  O  O141  1  0.58092471  0.69182214  0.75750189  1
  O  O142  1  0.26849063  0.84285433  0.75786148  1
  O  O143  1  0.76351972  0.82977878  0.76154807  1
loop_
_geom_bond_atom_site_label_1
_geom_bond_atom_site_label_2
_geom_bond_distance
_geom_bond_site_symmetry_2
Na0 O89 2.610872 1_445
Na0 O76 2.621931 1_555
Na0 O85 2.637174 1_455
Na0 O72 2.657250 1_545
Na0 O86 2.657321 1_555
Na0 O75 2.675104 1_445
Na1 O81 2.560120 1_545
Na1 O79 2.599196 1_555
Na1 O82 2.607265 1_545
Na1 O90 2.667728 1_546
Na1 O95 2.682258 1_556
Na1 O92 2.724942 1_556
Na2 O100 2.524658 1_555
Na2 O98 2.638100 1_555
Na2 O96 2.664059 1_555
Na2 O108 2.670643 1_555
Na2 O110 2.690208 1_555
Na2 O112 2.734690 1_555
Na3 O113 2.591270 1_555
Na3 O111 2.615660 1_555
Na3 O97 2.617407 1_555
Na3 O101 2.621323 1_555
Na3 O99 2.633069 1_555
Na3 O109 2.712997 1_555
Na4 O116 2.507568 1_555
Na4 O118 2.534860 1_555
Na4 O114 2.627399 1_555
Na4 O102 2.710182 1_555
Na4 O104 2.730199 1_555
Na4 O106 2.773228 1_555
Na5 O119 2.573312 1_555
Na5 O115 2.574923 1_555
Na5 O117 2.606187 1_555
Na5 O105 2.606877 1_555
Na5 O107 2.730357 1_555
Na5 O103 2.753589 1_555
Nb0 O76 1.901791 1_555
Nb0 O5 1.971292 1_455
Nb0 O0 1.972278 1_555
Nb0 O75 1.981970 1_445
Nb0 O72 1.988523 1_545
Nb0 O3 2.312673 1_445
Nb1 O7 1.917417 1_565
Nb1 O81 1.917670 1_555
Nb1 O8 1.952571 1_555
Nb1 O79 2.017491 1_565
Nb1 O82 2.034181 1_555
Nb1 O10 2.286779 1_565
Nb2 O89 1.911613 1_555
Nb2 O13 1.945330 1_555
Nb2 O16 1.961967 1_655
Nb2 O86 1.989737 1_665
Nb2 O85 1.990566 1_565
Nb2 O14 2.309607 1_665
Nb3 O21 1.924208 1_555
Nb3 O18 1.934799 1_545
Nb3 O95 1.968978 1_555
Nb3 O90 2.009109 1_545
Nb3 O92 2.125035 1_555
Nb3 O23 2.136558 1_545
Nb4 O101 1.932192 1_555
Nb4 O25 1.944417 1_555
Nb4 O29 1.952989 1_555
Nb4 O99 1.990201 1_555
Nb4 O97 2.002254 1_555
Nb4 O27 2.269143 1_555
Nb5 O102 1.895609 1_555
Nb5 O104 1.903253 1_555
Nb5 O30 1.941940 1_555
Nb5 O106 1.945321 1_555
Nb5 O34 2.244389 1_555
Nb5 O32 2.255690 1_555
Nb6 O110 1.886016 1_555
Nb6 O108 1.893958 1_555
Nb6 O38 1.942135 1_556
Nb6 O112 1.977146 1_555
Nb6 O36 2.240064 1_556
Nb6 O40 2.253715 1_556
Nb7 O41 1.895472 1_556
Nb7 O37 1.957456 1_556
Nb7 O39 1.976828 1_556
Nb7 O113 2.000267 1_555
Nb7 O111 2.025763 1_555
Nb7 O109 2.242338 1_555
Nb8 O44 1.889158 1_555
Nb8 O42 1.946432 1_555
Nb8 O46 1.954113 1_555
Nb8 O116 2.024915 1_555
Nb8 O118 2.035366 1_555
Nb8 O114 2.269250 1_555
Nb9 O119 1.919049 1_555
Nb9 O45 1.948828 1_555
Nb9 O47 1.950019 1_555
Nb9 O115 1.999046 1_555
Nb9 O117 2.018824 1_555
Nb9 O43 2.265930 1_555
Nb10 O136 1.890084 1_555
Nb10 O60 1.963748 1_555
Nb10 O132 1.966066 1_555
Nb10 O134 1.975871 1_555
Nb10 O64 1.983937 1_555
Nb10 O62 2.314326 1_555
Nb11 O141 1.881809 1_555
Nb11 O143 1.935462 1_555
Nb11 O139 1.944479 1_555
Nb11 O69 2.003463 1_555
Nb11 O67 2.018706 1_555
Nb11 O71 2.321503 1_555
O0 Si0 1.632280 1_545
O1 S0 1.475291 1_555
O1 Ta0 2.222545 1_545
O2 Si1 1.616828 1_555
O2 Ta0 1.973004 1_555
O3 S1 1.467679 1_555
O4 Si3 1.616150 1_555
O4 Ta0 1.989028 1_545
O5 Si2 1.625887 1_555
O6 S2 1.497035 1_555
O6 Ta1 2.184051 1_445
O7 Si4 1.657121 1_555
O8 Si6 1.640631 1_555
O9 Si5 1.631868 1_655
O9 Ta1 1.949857 1_555
O10 S3 1.474447 1_545
O11 Si7 1.649508 1_555
O11 Ta1 1.933138 1_545
O12 S3 1.479532 1_555
O12 Ta2 2.222459 1_565
O13 Si7 1.634614 1_565
O14 S2 1.462695 1_555
O15 Si4 1.628528 1_555
O15 Ta2 1.949162 1_555
O16 Si5 1.620076 1_555
O17 Si6 1.619380 1_555
O17 Ta2 1.960410 1_565
O18 Si1 1.642090 1_555
O19 S1 1.495287 1_555
O19 Ta3 2.159734 1_665
O20 Si2 1.626796 1_455
O20 Ta3 1.949969 1_555
O21 Si3 1.649402 1_555
O22 Si0 1.633605 1_555
O22 Ta3 1.944511 1_565
O23 S0 1.501495 1_565
O24 Si8 1.665922 1_555
O24 Ta4 1.871073 1_555
O25 Si9 1.624186 1_555
O26 Si10 1.647873 1_555
O26 Ta4 1.926535 1_555
O27 S4 1.468079 1_555
O28 Si11 1.655297 1_555
O28 Ta4 1.884193 1_555
O29 Si12 1.629739 1_555
O30 Si13 1.630190 1_555
O31 Si14 1.660977 1_555
O31 Ta5 1.876715 1_555
O32 S5 1.470694 1_555
O33 Si15 1.655490 1_555
O33 Ta5 1.888032 1_555
O34 S6 1.473635 1_555
O35 Si16 1.641287 1_555
O35 Ta5 1.941210 1_555
O36 S6 1.479480 1_555
O37 Si16 1.637916 1_555
O38 Si13 1.643918 1_555
O39 Si14 1.625106 1_555
O40 S5 1.479349 1_555
O41 Si15 1.647473 1_555
O42 Si10 1.645964 1_555
O43 S4 1.471482 1_555
O44 Si11 1.648959 1_555
O45 Si12 1.637465 1_555
O46 Si8 1.633760 1_555
O47 Si9 1.639494 1_555
O48 Si17 1.633476 1_555
O48 Ta6 1.970006 1_556
O49 S7 1.466858 1_555
O49 Ta7 2.273175 1_556
O50 Si18 1.655784 1_555
O50 Ta6 1.887917 1_556
O51 Si19 1.621152 1_555
O51 Ta7 1.981946 1_556
O52 Si20 1.646905 1_555
O52 Ta6 1.897231 1_556
O53 Si21 1.624920 1_555
O53 Ta7 1.968557 1_556
O54 S8 1.467356 1_555
O54 Ta8 2.300696 1_555
O55 Si22 1.621294 1_555
O55 Ta9 1.981726 1_555
O56 Si23 1.618779 1_555
O56 Ta8 1.981861 1_555
O57 Si24 1.623137 1_555
O57 Ta9 1.925175 1_555
O58 Si25 1.618283 1_555
O58 Ta8 1.984542 1_555
O59 Si26 1.611087 1_555
O59 Ta9 1.988766 1_555
O60 Si25 1.622822 1_555
O61 Si26 1.668505 1_555
O61 Ta10 1.885232 1_555
O62 S8 1.459294 1_555
O63 Si22 1.653547 1_555
O63 Ta10 1.940890 1_555
O64 Si23 1.626319 1_555
O65 Si24 1.660660 1_555
O65 Ta10 1.888778 1_555
O66 Si18 1.646323 1_555
O66 Ta11 1.902704 1_555
O67 Si19 1.607839 1_555
O68 Si20 1.643586 1_555
O68 Ta11 1.923083 1_555
O69 Si21 1.615458 1_555
O70 Si17 1.622070 1_555
O70 Ta11 1.979751 1_555
O71 S7 1.463569 1_555
O72 Si25 1.633335 1_555
O73 Si26 1.641350 1_555
O73 Ta0 1.910941 1_555
O74 S8 1.532241 1_555
O74 Ta0 1.987744 1_555
O75 Si22 1.641575 1_555
O76 Si23 1.671069 1_555
O77 Si24 1.631017 1_555
O77 Ta0 1.919612 1_545
O78 Si18 1.617633 1_555
O78 Ta1 1.946861 1_445
O79 Si19 1.627540 1_555
O80 Si20 1.612100 1_555
O80 Ta1 1.965328 1_455
O81 Si21 1.667309 1_555
O82 Si17 1.613320 1_555
O83 S7 1.523896 1_555
O83 Ta1 2.021376 1_555
O84 Si8 1.624661 1_555
O84 Ta2 1.928338 1_555
O85 Si9 1.623696 1_555
O86 Si10 1.630052 1_555
O87 S4 1.523655 1_555
O87 Ta2 2.006326 1_555
O88 Si11 1.613248 1_555
O88 Ta2 1.935969 1_565
O89 Si12 1.657304 1_555
O90 Si13 1.633556 1_555
O91 Si14 1.620830 1_555
O91 Ta3 1.936488 1_665
O92 S5 1.515856 1_555
O93 Si15 1.617908 1_555
O93 Ta3 1.934149 1_655
O94 S6 1.501055 1_555
O94 Ta3 2.066608 1_555
O95 Si16 1.657509 1_555
O96 S3 1.508985 1_545
O96 Ta4 2.223458 1_555
O97 Si7 1.629397 1_555
O98 S2 1.505029 1_555
O98 Ta4 2.252515 1_555
O99 Si4 1.629765 1_555
O100 Si6 1.648625 1_555
O100 Ta4 2.004502 1_555
O101 Si5 1.645873 1_655
O102 Si1 1.671822 1_555
O103 S1 1.509474 1_555
O103 Ta5 2.203739 1_555
O104 Si3 1.667704 1_555
O105 Si2 1.653735 1_555
O105 Ta5 1.984447 1_555
O106 Si0 1.660862 1_545
O107 S0 1.496785 1_555
O107 Ta5 2.245556 1_555
O108 Si17 1.678432 1_555
O109 S7 1.490786 1_555
O110 Si19 1.696821 1_555
O111 Si18 1.620953 1_655
O112 Si20 1.638013 1_545
O113 Si21 1.645315 1_545
O114 S8 1.485233 1_545
O115 Si22 1.635573 1_545
O116 Si23 1.637953 1_555
O117 Si24 1.617885 1_555
O118 Si26 1.631110 1_555
O119 Si25 1.660325 1_655
O120 S6 1.486284 1_555
O120 Ta6 2.189786 1_555
O121 Si16 1.608976 1_555
O121 Ta7 1.947393 1_555
O122 Si14 1.635628 1_455
O122 Ta6 1.934643 1_555
O123 Si13 1.619565 1_555
O123 Ta7 1.900226 1_555
O124 S5 1.484507 1_565
O124 Ta6 2.209874 1_555
O125 Si15 1.602961 1_565
O125 Ta7 1.948067 1_555
O126 Si10 1.614872 1_565
O126 Ta8 1.939228 1_555
O127 S4 1.475421 1_565
O127 Ta9 2.182343 1_555
O128 Si11 1.601659 1_555
O128 Ta8 1.946009 1_555
O129 Si12 1.613764 1_555
O129 Ta9 1.947628 1_555
O130 Si9 1.632034 1_455
O130 Ta8 1.875092 1_555
O131 Si8 1.610102 1_555
O131 Ta9 1.948187 1_555
O132 Si0 1.613457 1_555
O133 S0 1.480394 1_565
O133 Ta10 2.221291 1_555
O134 Si1 1.597537 1_555
O135 S1 1.486635 1_555
O135 Ta10 2.207102 1_555
O136 Si2 1.634260 1_455
O137 Si3 1.618827 1_555
O137 Ta10 1.973660 1_555
O138 S2 1.494069 1_555
O138 Ta11 2.150094 1_555
O139 Si4 1.620915 1_555
O140 Si5 1.637838 1_555
O140 Ta11 1.923970 1_555
O141 Si6 1.636886 1_555
O142 S3 1.496152 1_555
O142 Ta11 2.163155 1_555
O143 Si7 1.622952 1_565
