# generated using pymatgen
data_Sr2MgMoO4
_symmetry_space_group_name_H-M   'P 1'
_cell_length_a   4.11918571
_cell_length_b   4.11918635
_cell_length_c   8.62958599
_cell_angle_alpha   103.80784407
_cell_angle_beta   103.80785290
_cell_angle_gamma   89.99999876
_symmetry_Int_Tables_number   1
_chemical_formula_structural   Sr2MgMoO4
_chemical_formula_sum   'Sr2 Mg1 Mo1 O4'
_cell_volume   137.83147747
_cell_formula_units_Z   1
loop_
 _symmetry_equiv_pos_site_id
 _symmetry_equiv_pos_as_xyz
  1  'x, y, z'
loop_
 _atom_site_type_symbol
 _atom_site_label
 _atom_site_symmetry_multiplicity
 _atom_site_fract_x
 _atom_site_fract_y
 _atom_site_fract_z
 _atom_site_occupancy
  Sr  Sr0  1  0.39915200  0.39915100  0.79830200  1
  Sr  Sr1  1  0.60084800  0.60084700  0.20169700  1
  Mg  Mg0  1  0.25000000  0.75000000  0.50000000  1
  Mo  Mo0  1  0.00000000  0.00000000  0.00000000  1
  O  O0  1  0.00123800  0.50123600  0.00247400  1
  O  O1  1  0.49876200  0.99876300  0.99752600  1
  O  O2  1  0.86029800  0.86029900  0.72059900  1
  O  O3  1  0.13970200  0.13969900  0.27940100  1
loop_
_geom_bond_atom_site_label_1
_geom_bond_atom_site_label_2
_geom_bond_distance
_geom_bond_site_symmetry_2
Mg0 O2 2.730024 1_555
Mg0 O3 2.730024 1_565
Mg0 O2 2.730033 1_455
Mg0 O3 2.730034 1_555
Mo0 O1 2.059687 1_544
Mo0 O0 2.059687 1_555
Mo0 O1 2.059695 1_444
Mo0 O0 2.059695 1_545
Mo0 O2 2.269622 1_444
Mo0 O3 2.269622 1_555
O0 Sr1 2.619325 1_555
O0 Sr1 2.619335 1_455
O0 Sr0 2.644357 1_454
O0 Sr0 2.644357 1_554
O1 Sr0 2.619335 1_565
O1 Sr0 2.619336 1_555
O1 Sr1 2.644348 1_566
O1 Sr1 2.644357 1_556
O2 Sr0 2.980302 1_555
O2 Sr0 2.980305 1_565
O2 Sr0 2.980317 1_655
O2 Sr0 2.980320 1_665
O3 Sr1 2.980307 1_555
O3 Sr1 2.980307 1_545
O3 Sr1 2.980318 1_455
O3 Sr1 2.980318 1_445
