# generated using pymatgen
data_In3Co
_symmetry_space_group_name_H-M   'P 1'
_cell_length_a   6.81487626
_cell_length_b   6.81487626
_cell_length_c   7.07716683
_cell_angle_alpha   89.99998308
_cell_angle_beta   89.99998308
_cell_angle_gamma   90.00767197
_symmetry_Int_Tables_number   1
_chemical_formula_structural   In3Co
_chemical_formula_sum   'In12 Co4'
_cell_volume   328.68158914
_cell_formula_units_Z   4
loop_
 _symmetry_equiv_pos_site_id
 _symmetry_equiv_pos_as_xyz
  1  'x, y, z'
loop_
 _atom_site_type_symbol
 _atom_site_label
 _atom_site_symmetry_multiplicity
 _atom_site_fract_x
 _atom_site_fract_y
 _atom_site_fract_z
 _atom_site_occupancy
  In  In0  1  -0.00000000  0.50000000  0.00000000  1
  In  In1  1  -0.00000000  0.50000000  0.50000000  1
  In  In2  1  0.50000000  -0.00000000  0.50000000  1
  In  In3  1  0.50000000  -0.00000000  0.00000000  1
  In  In4  1  0.15399428  0.15399428  0.25744503  1
  In  In5  1  0.34602210  0.65397890  0.75749435  1
  In  In6  1  0.65397890  0.34602210  0.75749435  1
  In  In7  1  0.65397890  0.34602210  0.24250565  1
  In  In8  1  0.34602210  0.65397890  0.24250565  1
  In  In9  1  0.84600572  0.84600572  0.25744503  1
  In  In10  1  0.15399428  0.15399428  0.74255497  1
  In  In11  1  0.84600572  0.84600572  0.74255497  1
  Co  Co0  1  0.34746653  0.34746653  0.00000000  1
  Co  Co1  1  0.15257495  0.84742505  0.50000000  1
  Co  Co2  1  0.84742505  0.15257495  0.50000000  1
  Co  Co3  1  0.65253347  0.65253347  -0.00000000  1
loop_
_geom_bond_atom_site_label_1
_geom_bond_atom_site_label_2
_geom_bond_distance
_geom_bond_site_symmetry_2
In0 In7 3.099446 1_455
In0 In6 3.099447 1_454
In0 In5 3.099454 1_554
In0 In8 3.099455 1_555
In0 In4 3.159387 1_555
In0 In11 3.159387 1_454
In0 In10 3.159387 1_554
In0 In9 3.159387 1_455
In1 In10 3.099812 1_555
In1 In9 3.099812 1_455
In1 In4 3.099812 1_555
In1 In11 3.099812 1_455
In1 In6 3.159419 1_455
In1 In7 3.159420 1_455
In1 In8 3.159427 1_555
In1 In5 3.159428 1_555
In2 In9 3.099812 1_545
In2 In4 3.099812 1_555
In2 In5 3.159419 1_545
In2 In8 3.159420 1_545
In2 In7 3.159427 1_555
In2 In6 3.159428 1_555
In3 In8 3.099446 1_545
In3 In5 3.099447 1_544
In3 In6 3.099454 1_554
In3 In7 3.099455 1_555
In3 In4 3.159387 1_555
In3 In9 3.159387 1_545
In4 In9 2.968100 1_445
In5 In6 2.968191 1_555
In7 In8 2.968191 1_555
In10 In11 2.968100 1_445
In10 In2 3.099812 1_555
In10 In3 3.159387 1_556
In11 In2 3.099812 1_565
In11 In3 3.159387 1_566
Co0 In0 2.586186 1_555
Co0 In3 2.586186 1_555
Co0 In4 2.606909 1_555
Co0 In10 2.606911 1_554
Co0 In6 2.703496 1_554
Co0 In5 2.703496 1_554
Co0 In8 2.703497 1_555
Co0 In7 2.703497 1_555
Co0 Co3 2.939944 1_555
Co1 In2 2.585786 1_565
Co1 In1 2.585786 1_555
Co1 In8 2.607156 1_555
Co1 In5 2.607156 1_555
Co1 In11 2.704015 1_455
Co1 In4 2.704015 1_565
Co1 In9 2.704016 1_455
Co1 In10 2.704016 1_565
Co1 Co2 2.941137 1_465
Co2 In2 2.585786 1_555
Co2 In1 2.585786 1_655
Co2 In7 2.607156 1_555
Co2 In6 2.607156 1_555
Co2 In11 2.704015 1_545
Co2 In4 2.704015 1_655
Co2 In9 2.704016 1_545
Co2 In10 2.704016 1_655
Co3 In0 2.586186 1_655
Co3 In3 2.586186 1_565
Co3 In11 2.606909 1_554
Co3 In9 2.606911 1_555
Co3 In8 2.703491 1_555
Co3 In7 2.703491 1_555
Co3 In6 2.703492 1_554
Co3 In5 2.703492 1_554
