# generated using pymatgen
data_Na2LaScSi(SO6)2
_symmetry_space_group_name_H-M   'P 1'
_cell_length_a   9.25233536
_cell_length_b   9.25825222
_cell_length_c   23.81023631
_cell_angle_alpha   90.37812242
_cell_angle_beta   89.61320576
_cell_angle_gamma   119.91495779
_symmetry_Int_Tables_number   1
_chemical_formula_structural   Na2LaScSi(SO6)2
_chemical_formula_sum   'Na12 La6 Sc6 Si6 S12 O72'
_cell_volume   1767.80078132
_cell_formula_units_Z   6
loop_
 _symmetry_equiv_pos_site_id
 _symmetry_equiv_pos_as_xyz
  1  'x, y, z'
loop_
 _atom_site_type_symbol
 _atom_site_label
 _atom_site_symmetry_multiplicity
 _atom_site_fract_x
 _atom_site_fract_y
 _atom_site_fract_z
 _atom_site_occupancy
  Na  Na0  1  0.00215071  0.62923671  0.25492863  1
  Na  Na1  1  0.37919310  0.00731004  0.74574045  1
  Na  Na2  1  0.65784333  0.96889212  0.59454266  1
  Na  Na3  1  0.03024539  0.33976564  0.09831673  1
  Na  Na4  1  0.98798977  0.67910342  0.92808934  1
  Na  Na5  1  0.31842966  0.01302512  0.42059715  1
  Na  Na6  1  0.01470427  0.98156716  0.50164093  1
  Na  Na7  1  0.02000079  0.97883366  0.00144468  1
  Na  Na8  1  0.65743194  0.29615902  0.83243932  1
  Na  Na9  1  0.69085753  0.33969878  0.33622655  1
  Na  Na10  1  0.32897762  0.65591103  0.17112214  1
  Na  Na11  1  0.33989255  0.67223580  0.66531799  1
  La  La0  1  0.99330728  0.00984567  0.84319353  1
  La  La1  1  0.00152769  0.99160442  0.15874909  1
  La  La2  1  0.65018700  0.32106166  0.98400269  1
  La  La3  1  0.33334634  0.69066630  0.02132716  1
  La  La4  1  0.31198618  0.67047182  0.51575665  1
  La  La5  1  0.35630319  0.68434240  0.81047134  1
  Sc  Sc0  1  0.98995421  0.00570444  0.34817956  1
  Sc  Sc1  1  0.00387416  0.99673598  0.64558536  1
  Sc  Sc2  1  0.66422689  0.32257844  0.68078924  1
  Sc  Sc3  1  0.68475562  0.34255506  0.18860939  1
  Sc  Sc4  1  0.66846307  0.34283733  0.48283672  1
  Sc  Sc5  1  0.30438575  0.64293880  0.32040621  1
  Si  Si0  1  0.00100683  0.30312833  0.24940788  1
  Si  Si1  1  0.70530905  0.01084258  0.73882577  1
  Si  Si2  1  0.37444394  0.05411410  0.58187840  1
  Si  Si3  1  0.95930761  0.62820722  0.08514108  1
  Si  Si4  1  0.32586640  0.97630340  0.90972038  1
  Si  Si5  1  0.01912682  0.67112697  0.41258813  1
  S  S0  1  0.31024921  0.99673186  0.25726183  1
  S  S1  1  0.68982605  0.69295869  0.25546637  1
  S  S2  1  0.30453220  0.29465365  0.74091336  1
  S  S3  1  0.98918137  0.69656276  0.74370242  1
  S  S4  1  0.94657830  0.32099373  0.58389734  1
  S  S5  1  0.67739694  0.62776372  0.58513922  1
  S  S6  1  0.67003237  0.04149156  0.09102563  1
  S  S7  1  0.36842494  0.33586301  0.09087528  1
  S  S8  1  0.64282815  0.66679719  0.91738856  1
  S  S9  1  0.03545818  0.36831953  0.91795383  1
  S  S10  1  0.63266135  0.96812545  0.41514219  1
  S  S11  1  0.33205616  0.36049802  0.41373956  1
  O  O0  1  0.22051270  0.01988524  0.30537902  1
  O  O1  1  0.81531359  0.78674463  0.30020788  1
  O  O2  1  0.98227502  0.16988980  0.29793363  1
  O  O3  1  0.24327922  0.20640259  0.79541362  1
  O  O4  1  0.96986640  0.75789926  0.79945015  1
  O  O5  1  0.79141518  0.02002633  0.79902307  1
  O  O6  1  0.81357662  0.99847560  0.68607852  1
  O  O7  1  0.19285319  0.19062960  0.69538363  1
  O  O8  1  0.01092975  0.81945575  0.69951556  1
  O  O9  1  0.74841975  0.78316919  0.20144029  1
  O  O10  1  0.02801778  0.24039878  0.18824655  1
  O  O11  1  0.20362572  0.95238056  0.20595468  1
  O  O12  1  0.86538751  0.33940853  0.63474740  1
  O  O13  1  0.49144314  0.14782936  0.63666768  1
  O  O14  1  0.66723746  0.53103125  0.63505307  1
  O  O15  1  0.84576544  0.51061932  0.13897190  1
  O  O16  1  0.66145664  0.14175886  0.13800921  1
  O  O17  1  0.46620531  0.32862661  0.13815955  1
  O  O18  1  0.44016285  0.32637510  0.03615909  1
  O  O19  1  0.87497785  0.54466156  0.02444782  1
  O  O20  1  0.67122572  0.11762890  0.03639231  1
  O  O21  1  0.47121545  0.16170574  0.52471422  1
  O  O22  1  0.69201953  0.54597117  0.53312196  1
  O  O23  1  0.85020279  0.31323271  0.53306407  1
  O  O24  1  0.55069006  0.66294011  0.96849469  1
  O  O25  1  0.12450465  0.44918888  0.97066685  1
  O  O26  1  0.31298272  0.85939816  0.96381839  1
  O  O27  1  0.57387720  0.87730862  0.46942415  1
  O  O28  1  0.30628786  0.42993646  0.46630083  1
  O  O29  1  0.15037267  0.72616919  0.46571044  1
  O  O30  1  0.11531581  0.63839993  0.35908795  1
  O  O31  1  0.51514457  0.87198125  0.36949441  1
  O  O32  1  0.35343774  0.47058101  0.36579627  1
  O  O33  1  0.13374064  0.46289775  0.86832482  1
  O  O34  1  0.33250821  0.88500573  0.85083840  1
  O  O35  1  0.54859103  0.65796694  0.86647418  1
  O  O36  1  0.01018883  0.84188975  0.40070314  1
  O  O37  1  0.80321051  0.99648304  0.40417733  1
  O  O38  1  0.18498427  0.18895286  0.40507403  1
  O  O39  1  0.00463731  0.19597322  0.91786301  1
  O  O40  1  0.14784216  0.97457233  0.91360555  1
  O  O41  1  0.80864300  0.82135231  0.91783481  1
  O  O42  1  0.95196712  0.16198071  0.58571904  1
  O  O43  1  0.18482671  0.02570850  0.58924634  1
  O  O44  1  0.82901489  0.79980136  0.58778217  1
  O  O45  1  0.98915680  0.81750962  0.08803873  1
  O  O46  1  0.82785873  0.03662937  0.09222911  1
  O  O47  1  0.19395377  0.19137935  0.09080396  1
  O  O48  1  0.67604502  0.17350798  0.73789806  1
  O  O49  1  0.47433058  0.31691665  0.73442324  1
  O  O50  1  0.84289360  0.53208397  0.73376256  1
  O  O51  1  0.68399657  0.52769684  0.24995854  1
  O  O52  1  0.83649555  0.33220855  0.24716037  1
  O  O53  1  0.47278619  0.14870548  0.24831083  1
  O  O54  1  0.67400772  0.52388973  0.91467614  1
  O  O55  1  0.87397596  0.36832787  0.91562256  1
  O  O56  1  0.49164890  0.16002974  0.91144195  1
  O  O57  1  0.63821649  0.13348880  0.42000622  1
  O  O58  1  0.48265891  0.33970761  0.41803513  1
  O  O59  1  0.84021482  0.50288780  0.42599783  1
  O  O60  1  0.35808804  0.49141660  0.09323431  1
  O  O61  1  0.13712013  0.62529323  0.09094431  1
  O  O62  1  0.52450519  0.87124903  0.09450816  1
  O  O63  1  0.37368814  0.87309693  0.58074635  1
  O  O64  1  0.52885095  0.65119821  0.58241672  1
  O  O65  1  0.11906439  0.46454654  0.58226083  1
  O  O66  1  0.33156191  0.84862691  0.26675251  1
  O  O67  1  0.52432676  0.66959230  0.26846507  1
  O  O68  1  0.16268542  0.49339453  0.26025270  1
  O  O69  1  0.31361319  0.45833631  0.74155276  1
  O  O70  1  0.14545189  0.68578079  0.74301987  1
  O  O71  1  0.51363186  0.84694207  0.73712876  1
loop_
_geom_bond_atom_site_label_1
_geom_bond_atom_site_label_2
_geom_bond_distance
_geom_bond_site_symmetry_2
Na0 O68 2.381561 1_555
Na0 O52 2.395570 1_455
Na0 O51 2.608832 1_455
Na0 O30 2.682884 1_555
Na0 O66 2.706187 1_555
Na0 O11 2.870418 1_555
Na0 O1 2.957294 1_455
Na0 O15 3.058024 1_455
Na1 O71 2.372399 1_545
Na1 O48 2.393265 1_555
Na1 O49 2.560101 1_555
Na1 O70 2.668467 1_545
Na1 O34 2.695503 1_545
Na1 O13 2.859425 1_555
Na1 O3 2.939538 1_555
Na2 O63 2.342804 1_555
Na2 O42 2.406336 1_565
Na2 O6 2.557785 1_555
Na2 O64 2.578962 1_555
Na2 O44 2.729661 1_555
Na2 O13 2.936333 1_565
Na3 O61 2.322317 1_555
Na3 O10 2.331995 1_555
Na3 O46 2.482023 1_455
Na3 O47 2.506433 1_555
Na3 O60 2.633685 1_555
Na4 O40 2.399917 1_655
Na4 O55 2.538699 1_555
Na4 O54 2.539489 1_555
Na4 O19 2.571704 1_556
Na4 O41 2.595578 1_555
Na4 O26 2.749760 1_655
Na5 O38 2.516734 1_555
Na5 O36 2.523814 1_545
Na5 O29 2.553620 1_545
Na5 O57 2.589723 1_555
Na5 O58 2.622502 1_555
Na5 O21 2.846092 1_555
Na5 O0 2.905879 1_555
Na5 O31 2.969521 1_545
Na6 O43 2.527262 1_565
Na6 O44 2.665454 1_455
Na6 O36 2.712302 1_555
Na6 O42 2.835809 1_465
Na6 O38 2.906462 1_565
Na7 O40 2.405608 1_554
Na7 O45 2.484130 1_455
Na7 O41 2.661487 1_454
Na7 O47 2.796713 1_565
Na7 O39 2.892023 1_564
Na7 O46 3.000155 1_465
Na8 O56 2.354517 1_555
Na8 O48 2.557812 1_555
Na8 O55 2.661635 1_555
Na8 O54 2.816014 1_555
Na8 O49 2.955935 1_555
Na9 O52 2.523992 1_555
Na9 O59 2.583775 1_555
Na9 O57 2.640269 1_555
Na9 O51 2.722464 1_555
Na9 O58 2.730285 1_555
Na9 O53 2.833584 1_555
Na10 O60 2.489225 1_555
Na10 O61 2.532319 1_555
Na10 O68 2.612274 1_555
Na10 O62 2.642191 1_555
Na10 O66 2.876316 1_555
Na10 O67 2.911908 1_555
Na11 O71 2.351807 1_555
Na11 O69 2.614746 1_555
Na11 O70 2.617657 1_555
Na11 O63 2.659282 1_555
Na11 O64 2.697918 1_555
Na11 O65 2.805101 1_555
La0 O5 2.192658 1_555
La0 O40 2.338175 1_645
La0 O3 2.397663 1_655
La0 O39 2.433780 1_655
La0 O4 2.457474 1_545
La0 O41 2.479747 1_545
La1 O45 2.286575 1_455
La1 O10 2.297146 1_565
La1 O11 2.367001 1_555
La1 O9 2.393240 1_455
La1 O47 2.433938 1_565
La1 O46 2.444480 1_465
La2 O56 2.275569 1_555
La2 O19 2.290164 1_556
La2 O18 2.320057 1_556
La2 O20 2.353977 1_556
La2 O54 2.433676 1_555
La2 O55 2.487921 1_555
La3 O26 2.162432 1_554
La3 O61 2.299298 1_555
La3 O25 2.423620 1_554
La3 O62 2.452200 1_555
La3 O24 2.483679 1_554
La3 O60 2.618185 1_555
La4 O29 2.173253 1_555
La4 O63 2.268267 1_555
La4 O65 2.436327 1_555
La4 O27 2.473679 1_555
La4 O28 2.489534 1_555
La4 O64 2.642147 1_555
La5 O34 2.192077 1_555
La5 O71 2.291156 1_555
La5 O35 2.339356 1_555
La5 O33 2.475730 1_555
La5 O69 2.523113 1_555
La5 O70 2.540454 1_555
O0 S0 1.486379 1_545
O0 Sc0 2.302045 1_455
O1 S1 1.495260 1_555
O1 Sc0 2.179965 1_565
O2 Si0 1.639980 1_655
O2 Sc0 1.969728 1_555
O3 S2 1.488253 1_555
O4 S3 1.484717 1_555
O5 Si1 1.625595 1_555
O6 Si1 1.639948 1_565
O6 Sc1 2.008746 1_655
O7 S2 1.476209 1_555
O7 Sc1 2.134199 1_545
O8 S3 1.492152 1_455
O8 Sc1 2.117275 1_555
O9 S1 1.483022 1_555
O10 Si0 1.627620 1_555
O11 S0 1.496605 1_555
O12 S4 1.473782 1_555
O12 Sc2 2.091796 1_555
O13 Si2 1.641276 1_555
O13 Sc2 1.922842 1_555
O14 S5 1.466936 1_555
O14 Sc2 2.210188 1_555
O15 Si3 1.670664 1_555
O15 Sc3 1.930198 1_555
O16 S6 1.475827 1_555
O16 Sc3 2.127958 1_555
O17 S7 1.471634 1_555
O17 Sc3 2.306322 1_555
O18 S7 1.480048 1_555
O19 Si3 1.641327 1_555
O20 S6 1.480984 1_555
O21 Si2 1.660825 1_555
O21 Sc4 2.020391 1_555
O22 S5 1.487709 1_555
O22 Sc4 2.140771 1_555
O23 S4 1.488207 1_555
O23 Sc4 2.196368 1_555
O24 S8 1.471375 1_555
O25 S9 1.483559 1_555
O26 Si4 1.653019 1_555
O27 S10 1.490625 1_555
O28 S11 1.474656 1_555
O29 Si5 1.652013 1_555
O30 Si5 1.659855 1_555
O30 Sc5 1.953373 1_555
O31 S10 1.481118 1_555
O31 Sc5 2.353494 1_555
O32 S11 1.480599 1_555
O32 Sc5 2.161502 1_555
O33 S9 1.481534 1_555
O34 Si4 1.648887 1_555
O35 S8 1.475945 1_555
O36 Si5 1.650150 1_555
O36 Sc0 2.051985 1_465
O37 S10 1.486347 1_555
O37 Sc0 2.143279 1_565
O38 S11 1.503495 1_555
O38 Sc0 2.217823 1_455
O39 S9 1.474266 1_555
O40 Si4 1.641194 1_555
O41 S8 1.487181 1_555
O42 S4 1.498591 1_555
O42 Sc1 2.318169 1_645
O43 Si2 1.647459 1_555
O43 Sc1 2.049629 1_545
O44 S5 1.509974 1_555
O44 Sc1 2.211501 1_655
O45 Si3 1.633570 1_555
O46 S6 1.483698 1_555
O47 S7 1.497137 1_555
O48 Si1 1.658030 1_555
O48 Sc2 1.985701 1_555
O49 S2 1.486157 1_555
O49 Sc2 2.144597 1_555
O50 S3 1.466504 1_555
O50 Sc2 2.209873 1_555
O51 S1 1.508725 1_555
O51 Sc3 2.247382 1_555
O52 Si0 1.673982 1_655
O52 Sc3 2.021417 1_555
O53 S0 1.475059 1_545
O53 Sc3 2.360782 1_555
O54 S8 1.489040 1_555
O55 S9 1.495531 1_655
O56 Si4 1.626451 1_545
O57 S10 1.509700 1_545
O57 Sc4 2.345070 1_555
O58 S11 1.502949 1_555
O58 Sc4 2.307039 1_555
O59 Si5 1.641932 1_655
O59 Sc4 2.049700 1_555
O60 S7 1.490835 1_555
O61 Si3 1.665482 1_455
O62 S6 1.479032 1_565
O63 Si2 1.672466 1_565
O64 S5 1.496348 1_555
O65 S4 1.482921 1_455
O66 S0 1.498167 1_555
O66 Sc5 2.207223 1_555
O67 S1 1.466769 1_555
O67 Sc5 2.280498 1_555
O68 Si0 1.666826 1_555
O68 Sc5 1.968712 1_555
O69 S2 1.475293 1_555
O70 S3 1.498126 1_455
O71 Si1 1.662941 1_565
