# generated using pymatgen
data_MgTe4Mo2W2(SeS)2
_symmetry_space_group_name_H-M   'P 1'
_cell_length_a   3.41008828
_cell_length_b   3.41011332
_cell_length_c   42.82599378
_cell_angle_alpha   90.09671714
_cell_angle_beta   89.90575468
_cell_angle_gamma   119.99377830
_symmetry_Int_Tables_number   1
_chemical_formula_structural   MgTe4Mo2W2(SeS)2
_chemical_formula_sum   'Mg1 Te4 Mo2 W2 Se2 S2'
_cell_volume   431.31934253
_cell_formula_units_Z   1
loop_
 _symmetry_equiv_pos_site_id
 _symmetry_equiv_pos_as_xyz
  1  'x, y, z'
loop_
 _atom_site_type_symbol
 _atom_site_label
 _atom_site_symmetry_multiplicity
 _atom_site_fract_x
 _atom_site_fract_y
 _atom_site_fract_z
 _atom_site_occupancy
  Mg  Mg0  1  0.66376500  0.33626000  0.36481500  1
  Te  Te0  1  0.33242000  0.66766400  0.70150600  1
  Te  Te1  1  0.66723400  0.33260000  0.05036400  1
  Te  Te2  1  0.66579500  0.33410400  0.13763600  1
  Te  Te3  1  0.33386800  0.66616000  0.61375300  1
  Mo  Mo0  1  0.33323800  0.66661800  0.09398400  1
  Mo  Mo1  1  0.66576200  0.33435200  0.27675700  1
  W  W0  1  0.33350600  0.66644600  0.47370800  1
  W  W1  1  0.66644900  0.33360900  0.65764300  1
  Se  Se0  1  0.66743300  0.33247200  0.43499800  1
  Se  Se1  1  0.66631500  0.33368300  0.51216500  1
  S  S0  1  0.33229200  0.66787300  0.31207500  1
  S  S1  1  0.33263600  0.66744200  0.24219300  1
loop_
_geom_bond_atom_site_label_1
_geom_bond_atom_site_label_2
_geom_bond_distance
_geom_bond_site_symmetry_2
Mg0 S0 2.992154 1_555
Mg0 S0 2.998229 1_545
Mg0 S0 2.998602 1_655
Mg0 Se0 3.005780 1_555
Te0 W1 2.721054 1_455
Te0 W1 2.721110 1_565
Te0 W1 2.721567 1_555
Te3 W1 2.721291 1_555
Te3 W1 2.722404 1_565
Te3 W1 2.722431 1_455
Mo0 Te1 2.713943 1_455
Mo0 Te1 2.714008 1_565
Mo0 Te2 2.714116 1_555
Mo0 Te1 2.714259 1_555
Mo0 Te2 2.715462 1_455
Mo0 Te2 2.715464 1_565
Mo1 S1 2.462689 1_655
Mo1 S1 2.462697 1_545
Mo1 S1 2.464365 1_555
Mo1 S0 2.481142 1_555
Mo1 S0 2.483603 1_545
Mo1 S0 2.483622 1_655
Se0 W0 2.573737 1_545
Se0 W0 2.573738 1_655
Se0 W0 2.574118 1_555
Se1 W0 2.566756 1_555
Se1 W0 2.566960 1_655
Se1 W0 2.566981 1_545
