# generated using pymatgen
data_B4W
_symmetry_space_group_name_H-M   'P 1'
_cell_length_a   5.36567984
_cell_length_b   5.36567984
_cell_length_c   6.46966400
_cell_angle_alpha   90.00000000
_cell_angle_beta   90.00000000
_cell_angle_gamma   119.99999799
_symmetry_Int_Tables_number   1
_chemical_formula_structural   B4W
_chemical_formula_sum   'B16 W4'
_cell_volume   161.31021774
_cell_formula_units_Z   4
loop_
 _symmetry_equiv_pos_site_id
 _symmetry_equiv_pos_as_xyz
  1  'x, y, z'
loop_
 _atom_site_type_symbol
 _atom_site_label
 _atom_site_symmetry_multiplicity
 _atom_site_fract_x
 _atom_site_fract_y
 _atom_site_fract_z
 _atom_site_occupancy
  B  B0  1  0.33333300  0.66666700  0.88104500  1
  B  B1  1  0.66666700  0.33333300  0.38104500  1
  B  B2  1  0.66666700  0.33333300  0.11895500  1
  B  B3  1  0.33333300  0.66666700  0.61895500  1
  B  B4  1  0.33719400  0.00000000  0.00000000  1
  B  B5  1  0.33719400  0.33719400  0.50000000  1
  B  B6  1  0.00000000  0.66280600  0.50000000  1
  B  B7  1  0.00000000  0.33719400  0.00000000  1
  B  B8  1  0.66280600  0.66280600  0.00000000  1
  B  B9  1  0.66280600  0.00000000  0.50000000  1
  B  B10  1  0.66280600  0.00000000  0.00000000  1
  B  B11  1  0.66280600  0.66280600  0.50000000  1
  B  B12  1  0.00000000  0.33719400  0.50000000  1
  B  B13  1  0.00000000  0.66280600  0.00000000  1
  B  B14  1  0.33719400  0.33719400  0.00000000  1
  B  B15  1  0.33719400  0.00000000  0.50000000  1
  W  W0  1  0.00000000  0.00000000  0.75000000  1
  W  W1  1  0.00000000  0.00000000  0.25000000  1
  W  W2  1  0.66666700  0.33333300  0.75000000  1
  W  W3  1  0.33333300  0.66666700  0.25000000  1
loop_
_geom_bond_atom_site_label_1
_geom_bond_atom_site_label_2
_geom_bond_distance
_geom_bond_site_symmetry_2
B0 B3 1.695634 1_555
B0 B13 1.937679 1_556
B0 B4 1.937679 1_566
B0 B10 1.937681 1_566
B0 B7 1.937681 1_556
B0 B14 1.937684 1_556
B0 B8 1.937684 1_556
B0 W3 2.387015 1_556
B1 B2 1.695634 1_555
B1 B9 1.937679 1_555
B1 B12 1.937679 1_655
B1 B6 1.937681 1_655
B1 B15 1.937681 1_555
B1 B11 1.937684 1_555
B1 B5 1.937684 1_555
B1 W2 2.387015 1_555
B2 B7 1.937679 1_655
B2 B4 1.937681 1_555
B2 B8 1.937684 1_555
B2 W2 2.387015 1_554
B3 B6 1.937679 1_555
B3 B9 1.937681 1_565
B3 B5 1.937684 1_555
B3 W3 2.387015 1_555
B4 W3 2.403820 1_545
B4 W2 2.403822 1_554
B4 W1 2.426831 1_555
B4 W0 2.426831 1_554
B5 W2 2.403824 1_555
B5 W3 2.403824 1_555
B5 W0 2.426831 1_555
B5 W1 2.426831 1_555
B6 W3 2.403820 1_555
B6 W2 2.403822 1_455
B6 W0 2.426831 1_565
B6 W1 2.426831 1_565
B7 W2 2.403820 1_454
B7 W3 2.403822 1_555
B7 W1 2.426831 1_555
B7 W0 2.426831 1_554
B8 W3 2.403824 1_555
B8 W2 2.403824 1_554
B8 W0 2.426831 1_664
B8 W1 2.426831 1_665
B9 W2 2.403820 1_555
B9 W3 2.403822 1_545
B9 W1 2.426831 1_655
B9 W0 2.426831 1_655
B10 B4 1.747130 1_555
B10 B8 1.809275 1_545
B10 B7 1.809275 1_655
B10 B2 1.937679 1_555
B10 W2 2.403820 1_554
B10 W3 2.403822 1_545
B10 W1 2.426831 1_655
B10 W0 2.426831 1_654
B11 B5 1.747130 1_555
B11 B9 1.809275 1_565
B11 B6 1.809275 1_655
B11 B3 1.937684 1_555
B11 W2 2.403824 1_555
B11 W3 2.403824 1_555
B11 W0 2.426831 1_665
B11 W1 2.426831 1_665
B12 B6 1.747130 1_555
B12 B5 1.809275 1_555
B12 B9 1.809275 1_455
B12 B3 1.937681 1_555
B12 W2 2.403820 1_455
B12 W3 2.403822 1_555
B12 W1 2.426831 1_555
B12 W0 2.426831 1_555
B13 B7 1.747130 1_555
B13 B8 1.809275 1_455
B13 B4 1.809275 1_565
B13 B2 1.937681 1_455
B13 W3 2.403820 1_555
B13 W2 2.403822 1_454
B13 W0 2.426831 1_564
B13 W1 2.426831 1_565
B14 B8 1.747130 1_555
B14 B7 1.809275 1_555
B14 B4 1.809275 1_555
B14 B2 1.937684 1_555
B14 W3 2.403824 1_555
B14 W2 2.403824 1_554
B14 W1 2.426831 1_555
B14 W0 2.426831 1_554
B15 B9 1.747130 1_555
B15 B5 1.809275 1_555
B15 B6 1.809275 1_545
B15 B3 1.937679 1_545
B15 W3 2.403820 1_545
B15 W2 2.403822 1_555
B15 W1 2.426831 1_555
B15 W0 2.426831 1_555
