# generated using pymatgen
data_UAsSe
_symmetry_space_group_name_H-M   'P 1'
_cell_length_a   3.99881953
_cell_length_b   3.99881953
_cell_length_c   8.66346803
_cell_angle_alpha   90.00000000
_cell_angle_beta   90.00000000
_cell_angle_gamma   90.00000000
_symmetry_Int_Tables_number   1
_chemical_formula_structural   UAsSe
_chemical_formula_sum   'U2 As2 Se2'
_cell_volume   138.53368484
_cell_formula_units_Z   2
loop_
 _symmetry_equiv_pos_site_id
 _symmetry_equiv_pos_as_xyz
  1  'x, y, z'
loop_
 _atom_site_type_symbol
 _atom_site_label
 _atom_site_symmetry_multiplicity
 _atom_site_fract_x
 _atom_site_fract_y
 _atom_site_fract_z
 _atom_site_occupancy
  U  U0  1  0.00000000  0.50000000  0.73191650  1
  U  U1  1  0.50000000  0.00000000  0.26808350  1
  As  As0  1  0.00000000  -0.00000000  0.00000000  1
  As  As1  1  0.50000000  0.50000000  0.00000000  1
  Se  Se0  1  0.50000000  0.00000000  0.62917358  1
  Se  Se1  1  -0.00000000  0.50000000  0.37082642  1
loop_
_geom_bond_atom_site_label_1
_geom_bond_atom_site_label_2
_geom_bond_distance
_geom_bond_site_symmetry_2
As0 As1 2.827592 1_445
As0 As1 2.827592 1_455
As0 As1 2.827592 1_555
As0 As1 2.827592 1_545
As0 U1 3.064604 1_555
As0 U1 3.064604 1_455
As0 U0 3.064604 1_544
As0 U0 3.064604 1_554
As1 U1 3.064604 1_555
As1 U1 3.064604 1_565
As1 U0 3.064604 1_654
As1 U0 3.064604 1_554
Se0 U0 2.964384 1_645
Se0 U0 2.964384 1_655
Se0 U0 2.964384 1_545
Se0 U0 2.964384 1_555
Se0 U1 3.128292 1_555
Se1 U1 2.964384 1_565
Se1 U1 2.964384 1_465
Se1 U1 2.964384 1_555
Se1 U1 2.964384 1_455
Se1 U0 3.128292 1_555
