# generated using pymatgen
data_ScH3NCl3
_symmetry_space_group_name_H-M   'P 1'
_cell_length_a   7.06122258
_cell_length_b   9.20107562
_cell_length_c   9.29379491
_cell_angle_alpha   72.59581729
_cell_angle_beta   77.48536468
_cell_angle_gamma   79.77647571
_symmetry_Int_Tables_number   1
_chemical_formula_structural   ScH3NCl3
_chemical_formula_sum   'Sc4 H12 N4 Cl12'
_cell_volume   558.36216960
_cell_formula_units_Z   4
loop_
 _symmetry_equiv_pos_site_id
 _symmetry_equiv_pos_as_xyz
  1  'x, y, z'
loop_
 _atom_site_type_symbol
 _atom_site_label
 _atom_site_symmetry_multiplicity
 _atom_site_fract_x
 _atom_site_fract_y
 _atom_site_fract_z
 _atom_site_occupancy
  Sc  Sc0  1  0.91631047  0.30559013  0.06128671  1
  Sc  Sc1  1  0.08368953  0.69440987  0.93871329  1
  Sc  Sc2  1  0.60025669  0.19126775  0.44926190  1
  Sc  Sc3  1  0.39974331  0.80873225  0.55073810  1
  H  H0  1  0.29633778  0.41541078  0.51400042  1
  H  H1  1  0.70366222  0.58458922  0.48599958  1
  H  H2  1  0.19224697  0.27582903  0.50131785  1
  H  H3  1  0.80775303  0.72417097  0.49868215  1
  H  H4  1  0.27148269  0.26171844  0.65843284  1
  H  H5  1  0.72851731  0.73828156  0.34156716  1
  H  H6  1  0.57070713  0.23590961  0.00535270  1
  H  H7  1  0.42929287  0.76409039  0.99464730  1
  H  H8  1  0.73287265  0.24457638  0.84897298  1
  H  H9  1  0.26712735  0.75542362  0.15102702  1
  H  H10  1  0.74068452  0.09139151  0.99418548  1
  H  H11  1  0.25931548  0.90860849  0.00581452  1
  N  N0  1  0.30420405  0.29840137  0.54147474  1
  N  N1  1  0.28490410  0.79129772  0.03413987  1
  N  N2  1  0.71509590  0.20870228  0.96586013  1
  N  N3  1  0.69579595  0.70159863  0.45852526  1
  Cl  Cl0  1  0.90912651  0.08553818  0.29767989  1
  Cl  Cl1  1  0.41475384  0.04849891  0.33504652  1
  Cl  Cl2  1  0.20024030  0.18119844  0.93267644  1
  Cl  Cl3  1  0.79975970  0.81880156  0.06732356  1
  Cl  Cl4  1  0.76321769  0.31070209  0.57585466  1
  Cl  Cl5  1  0.23678231  0.68929791  0.42414534  1
  Cl  Cl6  1  0.89446842  0.54312014  0.84225870  1
  Cl  Cl7  1  0.10553158  0.45687986  0.15774130  1
  Cl  Cl8  1  0.39742526  0.58730759  0.78635904  1
  Cl  Cl9  1  0.09087349  0.91446182  0.70232011  1
  Cl  Cl10  1  0.60257474  0.41269241  0.21364096  1
  Cl  Cl11  1  0.58524616  0.95150109  0.66495348  1
loop_
_geom_bond_atom_site_label_1
_geom_bond_atom_site_label_2
_geom_bond_distance
_geom_bond_site_symmetry_2
H0 N0 1.023643 1_555
H1 N3 1.023643 1_555
H2 N0 1.019762 1_555
H3 N3 1.019762 1_555
H4 N0 1.023819 1_555
H5 N3 1.023819 1_555
H6 N2 1.019351 1_554
H7 N1 1.019351 1_556
H8 N2 1.022701 1_555
H9 N1 1.022701 1_555
H10 N2 1.023924 1_555
H11 N1 1.023924 1_555
N0 Sc2 2.252501 1_555
N1 Sc1 2.251375 1_554
N2 Sc0 2.251375 1_556
N3 Sc3 2.252501 1_555
Cl0 Sc0 2.501183 1_555
Cl0 Sc2 2.534345 1_555
Cl1 Sc3 2.498386 1_545
Cl1 Sc2 2.572103 1_555
Cl2 Sc0 2.392390 1_456
Cl3 Sc1 2.392390 1_654
Cl4 Sc2 2.392702 1_555
Cl5 Sc3 2.392702 1_555
Cl6 Sc0 2.509782 1_556
Cl6 Sc1 2.540154 1_655
Cl7 Sc1 2.509782 1_554
Cl7 Sc0 2.540154 1_455
Cl8 Sc3 2.504740 1_555
Cl8 Sc1 2.565965 1_555
Cl9 Sc1 2.501183 1_555
Cl9 Sc3 2.534345 1_555
Cl10 Sc2 2.504740 1_555
Cl10 Sc0 2.565965 1_555
Cl11 Sc2 2.498386 1_565
Cl11 Sc3 2.572103 1_555
