# generated using pymatgen
data_BaSrMg(FeO2)4
_symmetry_space_group_name_H-M   'P 1'
_cell_length_a   5.78784150
_cell_length_b   5.81738850
_cell_length_c   8.05230948
_cell_angle_alpha   93.35639374
_cell_angle_beta   88.31395603
_cell_angle_gamma   120.16902589
_symmetry_Int_Tables_number   1
_chemical_formula_structural   BaSrMg(FeO2)4
_chemical_formula_sum   'Ba1 Sr1 Mg1 Fe4 O8'
_cell_volume   233.99575125
_cell_formula_units_Z   1
loop_
 _symmetry_equiv_pos_site_id
 _symmetry_equiv_pos_as_xyz
  1  'x, y, z'
loop_
 _atom_site_type_symbol
 _atom_site_label
 _atom_site_symmetry_multiplicity
 _atom_site_fract_x
 _atom_site_fract_y
 _atom_site_fract_z
 _atom_site_occupancy
  Ba  Ba0  1  0.00000000  0.88113400  0.03497200  1
  Sr  Sr0  1  0.00000000  0.99772700  0.50259300  1
  Mg  Mg0  1  0.00000000  0.35589400  0.85737500  1
  Fe  Fe0  1  0.66710500  0.30106200  0.23380400  1
  Fe  Fe1  1  0.61416500  0.37894800  0.73611700  1
  Fe  Fe2  1  0.38583500  0.76478200  0.73611700  1
  Fe  Fe3  1  0.33289500  0.63395600  0.23380400  1
  O  O0  1  0.28354100  0.36072500  0.70509600  1
  O  O1  1  0.71645900  0.07718300  0.70509600  1
  O  O2  1  0.99999900  0.67317100  0.72602700  1
  O  O3  1  0.64722400  0.62164500  0.29858800  1
  O  O4  1  0.00000100  0.32335000  0.29387700  1
  O  O5  1  0.35277600  0.97442200  0.29858800  1
  O  O6  1  0.30138400  0.63940700  0.00256400  1
  O  O7  1  0.69861600  0.33802400  0.00256400  1
loop_
_geom_bond_atom_site_label_1
_geom_bond_atom_site_label_2
_geom_bond_distance
_geom_bond_site_symmetry_2
Ba0 O2 2.701844 1_454
Ba0 O7 2.735699 1_455
Ba0 O6 2.735705 1_555
Ba0 O5 2.824157 1_555
Ba0 O3 2.824159 1_455
Ba0 O4 3.215010 1_565
Mg0 O0 2.009177 1_555
Mg0 O1 2.009179 1_455
Mg0 O6 2.032823 1_556
Mg0 O7 2.032826 1_456
Mg0 O2 2.180349 1_455
Fe0 O7 1.879916 1_555
Fe0 O4 1.938962 1_655
Fe0 O5 1.943770 1_545
Fe0 O3 1.965114 1_555
Fe1 O0 1.885902 1_555
Fe1 O2 2.021625 1_555
Fe1 O1 2.116428 1_555
Fe1 O7 2.266562 1_556
Fe2 O1 1.885902 1_565
Fe2 O2 2.021637 1_455
Fe2 O0 2.116417 1_555
Fe2 O6 2.266562 1_556
Fe3 O6 1.879916 1_555
Fe3 O4 1.938950 1_555
Fe3 O3 1.943770 1_555
Fe3 O5 1.965125 1_555
O0 Sr0 2.466264 1_545
O1 Sr0 2.466261 1_645
O2 Sr0 2.683193 1_655
O3 Sr0 2.634514 1_655
O4 Sr0 2.604922 1_545
O5 Sr0 2.634512 1_555
