# generated using pymatgen
data_Na6Nb8Si11SO48
_symmetry_space_group_name_H-M   'P 1'
_cell_length_a   17.93171018
_cell_length_b   8.96228025
_cell_length_c   22.93189276
_cell_angle_alpha   90.11460466
_cell_angle_beta   89.96768657
_cell_angle_gamma   120.10521471
_symmetry_Int_Tables_number   1
_chemical_formula_structural   Na6Nb8Si11SO48
_chemical_formula_sum   'Na18 Nb24 Si33 S3 O144'
_cell_volume   3188.22100353
_cell_formula_units_Z   3
loop_
 _symmetry_equiv_pos_site_id
 _symmetry_equiv_pos_as_xyz
  1  'x, y, z'
loop_
 _atom_site_type_symbol
 _atom_site_label
 _atom_site_symmetry_multiplicity
 _atom_site_fract_x
 _atom_site_fract_y
 _atom_site_fract_z
 _atom_site_occupancy
  Na  Na0  1  0.68271593  0.99919047  0.75023007  1
  Na  Na1  1  0.01642960  0.69622575  0.58252456  1
  Na  Na2  1  0.51659197  0.70076114  0.58334013  1
  Na  Na3  1  0.83203692  0.69531945  0.08227293  1
  Na  Na4  1  0.34979913  0.03258128  0.91721673  1
  Na  Na5  1  0.48413685  0.30414849  0.41721206  1
  Na  Na6  1  0.00101955  0.00611187  0.49883508  1
  Na  Na7  1  0.50097878  0.00003745  0.50164863  1
  Na  Na8  1  0.00403437  0.00676134  0.99882631  1
  Na  Na9  1  0.50327891  0.99950589  0.99956201  1
  Na  Na10  1  0.33462304  0.33918629  0.83397003  1
  Na  Na11  1  0.83623619  0.33938482  0.83486929  1
  Na  Na12  1  0.33208932  0.33594562  0.33262387  1
  Na  Na13  1  0.83522215  0.33628687  0.33426517  1
  Na  Na14  1  0.16744452  0.66545581  0.16509087  1
  Na  Na15  1  0.66398858  0.66355979  0.16589395  1
  Na  Na16  1  0.16982849  0.66952455  0.66711790  1
  Na  Na17  1  0.66864569  0.66074916  0.66748441  1
  Nb  Nb0  1  0.99244312  0.99463828  0.35730386  1
  Nb  Nb1  1  0.49303778  0.99151814  0.35550208  1
  Nb  Nb2  1  0.99212546  0.98920377  0.85802364  1
  Nb  Nb3  1  0.50167666  0.99766003  0.85425358  1
  Nb  Nb4  1  0.99498199  0.99107488  0.64417492  1
  Nb  Nb5  1  0.49923970  0.00475841  0.64676804  1
  Nb  Nb6  1  0.99772252  0.00938521  0.14351316  1
  Nb  Nb7  1  0.49331618  0.00359618  0.14231348  1
  Nb  Nb8  1  0.33756334  0.33255906  0.68577161  1
  Nb  Nb9  1  0.83601187  0.33902840  0.68812663  1
  Nb  Nb10  1  0.33849932  0.34208326  0.18531619  1
  Nb  Nb11  1  0.83894394  0.34382076  0.18550218  1
  Nb  Nb12  1  0.33275653  0.33853633  0.97961427  1
  Nb  Nb13  1  0.83266523  0.33128945  0.97760582  1
  Nb  Nb14  1  0.33023878  0.33457796  0.47929522  1
  Nb  Nb15  1  0.83473384  0.33194812  0.47810349  1
  Nb  Nb16  1  0.16664526  0.66430568  0.02127259  1
  Nb  Nb17  1  0.66339521  0.66561696  0.02053667  1
  Nb  Nb18  1  0.16823424  0.66561540  0.52037172  1
  Nb  Nb19  1  0.66904472  0.67012962  0.52081651  1
  Nb  Nb20  1  0.16623364  0.65637146  0.31417727  1
  Nb  Nb21  1  0.66788493  0.65717212  0.31372981  1
  Nb  Nb22  1  0.16696902  0.67550810  0.81494522  1
  Nb  Nb23  1  0.66589824  0.66187101  0.81325030  1
  Si  Si0  1  0.35385332  0.70846067  0.24896448  1
  Si  Si1  1  0.85564032  0.71116518  0.24934875  1
  Si  Si2  1  0.99918039  0.28941380  0.25100073  1
  Si  Si3  1  0.49919544  0.28872657  0.25015272  1
  Si  Si4  1  0.64467065  0.29234958  0.75013693  1
  Si  Si5  1  0.00178500  0.71348335  0.75026128  1
  Si  Si6  1  0.49758154  0.70738904  0.74947749  1
  Si  Si7  1  0.35437776  0.99779593  0.75108430  1
  Si  Si8  1  0.85595305  0.00040243  0.75058768  1
  Si  Si9  1  0.47803997  0.32999424  0.58114228  1
  Si  Si10  1  0.97759946  0.33052897  0.58321305  1
  Si  Si11  1  0.18948249  0.04568586  0.58400715  1
  Si  Si12  1  0.69012475  0.04875910  0.58363520  1
  Si  Si13  1  0.33148562  0.62099114  0.58452213  1
  Si  Si14  1  0.82961655  0.61510199  0.58276790  1
  Si  Si15  1  0.47929947  0.62594962  0.08277382  1
  Si  Si16  1  0.98053241  0.62433682  0.08173669  1
  Si  Si17  1  0.32966899  0.04584303  0.08254863  1
  Si  Si18  1  0.83051741  0.04754035  0.08325143  1
  Si  Si19  1  0.19011297  0.33437239  0.08409070  1
  Si  Si20  1  0.68825057  0.32949120  0.08340143  1
  Si  Si21  1  0.30985724  0.66298485  0.91613423  1
  Si  Si22  1  0.80750326  0.66066760  0.91815989  1
  Si  Si23  1  0.02302742  0.37949960  0.91632009  1
  Si  Si24  1  0.52188667  0.37746592  0.91670245  1
  Si  Si25  1  0.16483649  0.95673633  0.91833397  1
  Si  Si26  1  0.66671670  0.95472320  0.91600342  1
  Si  Si27  1  0.30741671  0.95370196  0.41609173  1
  Si  Si28  1  0.80792993  0.95456132  0.41600009  1
  Si  Si29  1  0.16578794  0.37442135  0.41711351  1
  Si  Si30  1  0.66834233  0.37533955  0.41774398  1
  Si  Si31  1  0.02321503  0.66747996  0.41656979  1
  Si  Si32  1  0.52365580  0.67005119  0.41650702  1
  S  S0  1  0.14373231  0.99991859  0.25015330  1
  S  S1  1  0.64362169  0.99979918  0.24979775  1
  S  S2  1  0.14376371  0.28712455  0.75026547  1
  O  O0  1  0.10432233  0.02723490  0.30292597  1
  O  O1  1  0.60359616  0.02662567  0.30319227  1
  O  O2  1  0.41672447  0.80420673  0.30625509  1
  O  O3  1  0.91738660  0.80501365  0.30616685  1
  O  O4  1  0.48756749  0.17008489  0.30817078  1
  O  O5  1  0.98757637  0.16521811  0.30664093  1
  O  O6  1  0.10479432  0.18192157  0.80259418  1
  O  O7  1  0.59907160  0.16350224  0.80595550  1
  O  O8  1  0.48471269  0.80347292  0.80635879  1
  O  O9  1  0.98789574  0.81111186  0.80598346  1
  O  O10  1  0.41451191  0.03080789  0.80878472  1
  O  O11  1  0.91829644  0.03096924  0.80641280  1
  O  O12  1  0.40193526  0.97114794  0.69351977  1
  O  O13  1  0.90504949  0.97450297  0.69382596  1
  O  O14  1  0.09055256  0.20701891  0.69680926  1
  O  O15  1  0.58350315  0.19637970  0.69299452  1
  O  O16  1  0.01526483  0.83126946  0.69151817  1
  O  O17  1  0.51662532  0.83074550  0.69179741  1
  O  O18  1  0.40433152  0.83409382  0.19376641  1
  O  O19  1  0.90242826  0.83048359  0.19176988  1
  O  O20  1  0.01483814  0.19574640  0.19382159  1
  O  O21  1  0.51509785  0.19493034  0.19403020  1
  O  O22  1  0.09040966  0.97295496  0.19717948  1
  O  O23  1  0.59077790  0.97204307  0.19739870  1
  O  O24  1  0.43326029  0.36800562  0.63850931  1
  O  O25  1  0.93259939  0.36840023  0.63953579  1
  O  O26  1  0.25031925  0.13829581  0.64073811  1
  O  O27  1  0.74870791  0.13368576  0.64222422  1
  O  O28  1  0.31843696  0.49763810  0.64066854  1
  O  O29  1  0.81860674  0.50099745  0.64083366  1
  O  O30  1  0.43312242  0.50145459  0.14005386  1
  O  O31  1  0.93311812  0.50225474  0.14005121  1
  O  O32  1  0.31905208  0.13953275  0.14067090  1
  O  O33  1  0.81840734  0.13847738  0.14137076  1
  O  O34  1  0.25074712  0.36163499  0.14111654  1
  O  O35  1  0.75211501  0.36655693  0.14017147  1
  O  O36  1  0.23479776  0.30142005  0.02666089  1
  O  O37  1  0.73540536  0.30280867  0.02654451  1
  O  O38  1  0.41678795  0.53172847  0.02666456  1
  O  O39  1  0.91419677  0.53474889  0.02744950  1
  O  O40  1  0.34891629  0.16415880  0.02433685  1
  O  O41  1  0.84960172  0.16881578  0.02641953  1
  O  O42  1  0.23513281  0.16741256  0.52665180  1
  O  O43  1  0.73623417  0.16944239  0.52658106  1
  O  O44  1  0.35041663  0.53104227  0.52755913  1
  O  O45  1  0.85264298  0.53404919  0.52675453  1
  O  O46  1  0.41842884  0.30343224  0.52395940  1
  O  O47  1  0.91693407  0.30094746  0.52640705  1
  O  O48  1  0.26606901  0.70245041  0.97247681  1
  O  O49  1  0.76728965  0.69827724  0.97629853  1
  O  O50  1  0.08406941  0.47016619  0.97343507  1
  O  O51  1  0.58374769  0.47017963  0.97347068  1
  O  O52  1  0.15074370  0.83245790  0.97377072  1
  O  O53  1  0.65186075  0.83220918  0.97318663  1
  O  O54  1  0.26534263  0.83250447  0.47351437  1
  O  O55  1  0.76476809  0.83184993  0.47331768  1
  O  O56  1  0.15095725  0.46864382  0.47352291  1
  O  O57  1  0.64757560  0.46698746  0.47259116  1
  O  O58  1  0.08177131  0.69754023  0.47535481  1
  O  O59  1  0.58122930  0.69755767  0.47539909  1
  O  O60  1  0.07030423  0.63837277  0.35971944  1
  O  O61  1  0.56898542  0.63343606  0.36034950  1
  O  O62  1  0.24943781  0.86240891  0.35865831  1
  O  O63  1  0.74889955  0.86114782  0.35885506  1
  O  O64  1  0.18247979  0.49891435  0.35997195  1
  O  O65  1  0.68173107  0.49829278  0.36016790  1
  O  O66  1  0.06959642  0.50151050  0.85901064  1
  O  O67  1  0.56863229  0.50078989  0.85990288  1
  O  O68  1  0.18415664  0.86745703  0.86078864  1
  O  O69  1  0.68138374  0.86718344  0.85737611  1
  O  O70  1  0.24928220  0.63652503  0.85897002  1
  O  O71  1  0.74984868  0.63788966  0.85988757  1
  O  O72  1  0.01421462  0.83916448  0.40729451  1
  O  O73  1  0.51408069  0.84063015  0.40780716  1
  O  O74  1  0.40592571  0.97970380  0.40943683  1
  O  O75  1  0.90404156  0.97335182  0.41004016  1
  O  O76  1  0.08205606  0.18502545  0.40716031  1
  O  O77  1  0.58009747  0.18999061  0.40735516  1
  O  O78  1  0.01420326  0.18977264  0.90704800  1
  O  O79  1  0.50923650  0.18454660  0.90956042  1
  O  O80  1  0.08188700  0.97944021  0.90729822  1
  O  O81  1  0.58100549  0.97412074  0.90927088  1
  O  O82  1  0.40375643  0.83973508  0.90915263  1
  O  O83  1  0.90392313  0.83439923  0.91021436  1
  O  O84  1  0.48732443  0.16061860  0.58962240  1
  O  O85  1  0.98990382  0.16398237  0.59278958  1
  O  O86  1  0.09281169  0.02073087  0.59170912  1
  O  O87  1  0.59185678  0.01663559  0.59016501  1
  O  O88  1  0.42027631  0.80732968  0.59056208  1
  O  O89  1  0.91876655  0.80677557  0.59064002  1
  O  O90  1  0.48920069  0.81424990  0.09330732  1
  O  O91  1  0.98553628  0.81021305  0.09320228  1
  O  O92  1  0.41654016  0.02632748  0.09038869  1
  O  O93  1  0.91599659  0.02078576  0.09074160  1
  O  O94  1  0.09497036  0.16088406  0.09277147  1
  O  O95  1  0.59369826  0.15963364  0.09263477  1
  O  O96  1  0.34346446  0.16837380  0.74189871  1
  O  O97  1  0.84324728  0.16764072  0.74277713  1
  O  O98  1  0.23112635  0.30651394  0.74351495  1
  O  O99  1  0.73755505  0.30109193  0.74283432  1
  O  O100  1  0.41161777  0.51739363  0.74309127  1
  O  O101  1  0.91536773  0.52362179  0.74254502  1
  O  O102  1  0.34358696  0.51718046  0.24334634  1
  O  O103  1  0.84329496  0.51776541  0.24303472  1
  O  O104  1  0.41275391  0.30523851  0.24332799  1
  O  O105  1  0.91280570  0.30506206  0.24302456  1
  O  O106  1  0.23109116  0.15567189  0.24405803  1
  O  O107  1  0.73098080  0.15589353  0.24457817  1
  O  O108  1  0.32071390  0.49437960  0.92324295  1
  O  O109  1  0.82130599  0.49592289  0.92356605  1
  O  O110  1  0.42534113  0.35122787  0.92360799  1
  O  O111  1  0.92792262  0.35880795  0.92425427  1
  O  O112  1  0.25425256  0.14196915  0.92344902  1
  O  O113  1  0.75165556  0.14503207  0.92385513  1
  O  O114  1  0.32560649  0.15016635  0.42314436  1
  O  O115  1  0.82104787  0.14591952  0.42341946  1
  O  O116  1  0.25246685  0.35955346  0.42394195  1
  O  O117  1  0.75342455  0.35903603  0.42362960  1
  O  O118  1  0.42946359  0.49436677  0.42353654  1
  O  O119  1  0.92791306  0.49741710  0.42403303  1
  O  O120  1  0.17924037  0.50242945  0.07606986  1
  O  O121  1  0.68285648  0.50614642  0.07672648  1
  O  O122  1  0.07428440  0.64203475  0.07708601  1
  O  O123  1  0.57331024  0.64127842  0.07666561  1
  O  O124  1  0.24781903  0.85292461  0.07628637  1
  O  O125  1  0.75060841  0.85016577  0.07733278  1
  O  O126  1  0.17509745  0.85153361  0.57654130  1
  O  O127  1  0.67589960  0.85249791  0.57600598  1
  O  O128  1  0.24705664  0.64134026  0.57638872  1
  O  O129  1  0.74736559  0.64253198  0.57632042  1
  O  O130  1  0.07096505  0.50737596  0.57638573  1
  O  O131  1  0.57097513  0.50816723  0.57634673  1
  O  O132  1  0.15295028  0.84406794  0.25576532  1
  O  O133  1  0.65299455  0.84407968  0.25666620  1
  O  O134  1  0.26026293  0.69500135  0.25746382  1
  O  O135  1  0.76071440  0.69495633  0.25719731  1
  O  O136  1  0.08459969  0.48186517  0.25704175  1
  O  O137  1  0.58427652  0.48193636  0.25754528  1
  O  O138  1  0.15322117  0.46190744  0.75522860  1
  O  O139  1  0.65423677  0.48134549  0.75634090  1
  O  O140  1  0.08572985  0.68863349  0.75701543  1
  O  O141  1  0.58593260  0.69742404  0.75676633  1
  O  O142  1  0.25924737  0.82461186  0.75708971  1
  O  O143  1  0.75927920  0.83324282  0.75609578  1
loop_
_geom_bond_atom_site_label_1
_geom_bond_atom_site_label_2
_geom_bond_distance
_geom_bond_site_symmetry_2
Na0 O141 2.375193 1_555
Na0 O99 2.376804 1_565
Na0 O143 2.482808 1_555
Na0 O97 2.497116 1_565
Na0 O69 2.724082 1_555
Na0 O27 2.750529 1_565
Na0 O7 2.873553 1_565
Na0 O17 2.903569 1_555
Na1 O130 2.345223 1_555
Na1 O89 2.413034 1_455
Na1 O126 2.465525 1_555
Na1 O86 2.525944 1_565
Na1 O58 2.719529 1_555
Na1 O16 2.779498 1_555
Na1 O45 2.844017 1_455
Na1 O25 2.860712 1_455
Na2 O88 2.361434 1_555
Na2 O131 2.375577 1_555
Na2 O87 2.454767 1_565
Na2 O127 2.478178 1_555
Na2 O59 2.738827 1_555
Na2 O17 2.744204 1_555
Na2 O24 2.875712 1_555
Na2 O44 2.877287 1_555
Na3 O121 2.344425 1_555
Na3 O91 2.419889 1_555
Na3 O125 2.470713 1_555
Na3 O93 2.530880 1_565
Na3 O49 2.699787 1_554
Na3 O19 2.796992 1_555
Na3 O39 2.817727 1_555
Na3 O35 2.876763 1_555
Na4 O112 2.366677 1_555
Na4 O82 2.373520 1_545
Na4 O110 2.475844 1_555
Na4 O79 2.480674 1_555
Na4 O40 2.726201 1_556
Na4 O10 2.746786 1_555
Na4 O48 2.858426 1_545
Na4 O68 2.876452 1_545
Na5 O118 2.358815 1_555
Na5 O77 2.413202 1_555
Na5 O114 2.463504 1_555
Na5 O74 2.522102 1_545
Na5 O46 2.714748 1_555
Na5 O4 2.786036 1_555
Na5 O57 2.835119 1_555
Na5 O61 2.869383 1_555
Na6 O75 2.597291 1_445
Na6 O76 2.602854 1_555
Na6 O85 2.637036 1_455
Na6 O72 2.653930 1_545
Na6 O86 2.654976 1_555
Na6 O89 2.677191 1_445
Na7 O84 2.557815 1_555
Na7 O87 2.560730 1_555
Na7 O88 2.595741 1_545
Na7 O73 2.655378 1_545
Na7 O74 2.664737 1_545
Na7 O77 2.678618 1_555
Na8 O80 2.598432 1_545
Na8 O78 2.620381 1_555
Na8 O94 2.634509 1_556
Na8 O83 2.635854 1_445
Na8 O93 2.673017 1_456
Na8 O91 2.706494 1_446
Na9 O81 2.567973 1_555
Na9 O79 2.618604 1_565
Na9 O95 2.627010 1_566
Na9 O82 2.638630 1_555
Na9 O90 2.652363 1_556
Na9 O92 2.680403 1_566
Na10 O108 2.554179 1_555
Na10 O100 2.568691 1_555
Na10 O110 2.590372 1_555
Na10 O112 2.620547 1_555
Na10 O96 2.656454 1_555
Na10 O98 2.699908 1_555
Na11 O109 2.557688 1_555
Na11 O111 2.578790 1_555
Na11 O113 2.618959 1_555
Na11 O101 2.623443 1_555
Na11 O97 2.650608 1_555
Na11 O99 2.663728 1_555
Na12 O102 2.559124 1_555
Na12 O104 2.599016 1_555
Na12 O116 2.601236 1_555
Na12 O114 2.629470 1_555
Na12 O118 2.629895 1_555
Na12 O106 2.659111 1_555
Na13 O119 2.582580 1_555
Na13 O117 2.586027 1_555
Na13 O115 2.594937 1_555
Na13 O105 2.603172 1_555
Na13 O103 2.611558 1_555
Na13 O107 2.701334 1_555
Na14 O122 2.560828 1_555
Na14 O124 2.574571 1_555
Na14 O120 2.577698 1_555
Na14 O134 2.624322 1_555
Na14 O136 2.630335 1_555
Na14 O132 2.712400 1_555
Na15 O123 2.558715 1_555
Na15 O125 2.595784 1_555
Na15 O121 2.598540 1_555
Na15 O137 2.605041 1_555
Na15 O135 2.642629 1_555
Na15 O133 2.700994 1_555
Na16 O142 2.552708 1_555
Na16 O128 2.579921 1_555
Na16 O140 2.609124 1_555
Na16 O126 2.615881 1_555
Na16 O130 2.644126 1_555
Na16 O138 2.663092 1_555
Na17 O139 2.529774 1_555
Na17 O129 2.572193 1_555
Na17 O143 2.575085 1_555
Na17 O131 2.625912 1_555
Na17 O141 2.642477 1_555
Na17 O127 2.675949 1_555
Nb0 O75 1.925389 1_555
Nb0 O3 1.942680 1_555
Nb0 O5 1.958476 1_565
Nb0 O72 1.990169 1_655
Nb0 O76 2.011082 1_665
Nb0 O0 2.252952 1_665
Nb1 O2 1.912004 1_555
Nb1 O74 1.952800 1_555
Nb1 O4 1.978238 1_565
Nb1 O73 1.982090 1_555
Nb1 O77 2.054991 1_565
Nb1 O1 2.200301 1_565
Nb2 O83 1.913635 1_555
Nb2 O11 1.947867 1_565
Nb2 O9 1.961763 1_555
Nb2 O78 1.982504 1_665
Nb2 O80 2.004731 1_655
Nb2 O6 2.277269 1_665
Nb3 O8 1.946620 1_555
Nb3 O7 1.971377 1_565
Nb3 O81 1.990960 1_555
Nb3 O10 2.021721 1_565
Nb3 O82 2.045195 1_555
Nb3 O79 2.048474 1_565
Nb4 O13 1.917655 1_555
Nb4 O89 1.957652 1_555
Nb4 O16 1.972675 1_655
Nb4 O85 1.986761 1_565
Nb4 O86 2.031442 1_665
Nb4 O14 2.192056 1_665
Nb5 O15 1.935849 1_555
Nb5 O12 1.938174 1_545
Nb5 O84 2.005298 1_555
Nb5 O17 2.022430 1_545
Nb5 O87 2.067643 1_555
Nb5 O88 2.067992 1_545
Nb6 O20 1.921779 1_655
Nb6 O93 1.943003 1_555
Nb6 O94 1.966526 1_655
Nb6 O19 1.992934 1_545
Nb6 O91 2.041060 1_545
Nb6 O22 2.220769 1_645
Nb7 O92 1.907592 1_555
Nb7 O18 1.954324 1_545
Nb7 O21 1.954497 1_555
Nb7 O95 1.993088 1_555
Nb7 O90 2.003731 1_545
Nb7 O23 2.286847 1_545
Nb8 O24 1.916420 1_555
Nb8 O26 1.951252 1_555
Nb8 O28 1.972772 1_555
Nb8 O96 1.999248 1_555
Nb8 O100 2.005439 1_555
Nb8 O98 2.236537 1_555
Nb9 O29 1.960086 1_555
Nb9 O25 1.962725 1_555
Nb9 O101 1.987776 1_555
Nb9 O27 2.012356 1_555
Nb9 O97 2.038289 1_555
Nb9 O99 2.050248 1_555
Nb10 O30 1.889222 1_555
Nb10 O34 1.952746 1_555
Nb10 O32 1.955264 1_555
Nb10 O102 2.022367 1_555
Nb10 O104 2.023994 1_555
Nb10 O106 2.256846 1_555
Nb11 O31 1.884870 1_555
Nb11 O33 1.964626 1_555
Nb11 O35 1.966542 1_555
Nb11 O103 2.011687 1_555
Nb11 O105 2.019960 1_555
Nb11 O107 2.270484 1_555
Nb12 O36 1.942490 1_556
Nb12 O38 1.951830 1_556
Nb12 O108 1.994648 1_555
Nb12 O40 2.009782 1_556
Nb12 O110 2.056075 1_555
Nb12 O112 2.061363 1_555
Nb13 O41 1.978923 1_556
Nb13 O37 1.979553 1_556
Nb13 O113 1.994295 1_555
Nb13 O111 2.012858 1_555
Nb13 O109 2.015779 1_555
Nb13 O39 2.021904 1_556
Nb14 O42 1.942577 1_555
Nb14 O44 1.951854 1_555
Nb14 O116 1.980534 1_555
Nb14 O46 2.018315 1_555
Nb14 O114 2.061648 1_555
Nb14 O118 2.073693 1_555
Nb15 O47 1.972493 1_555
Nb15 O43 1.974932 1_555
Nb15 O115 1.998493 1_555
Nb15 O45 2.009323 1_555
Nb15 O119 2.011900 1_555
Nb15 O117 2.025728 1_555
Nb16 O50 1.957799 1_554
Nb16 O48 1.983772 1_554
Nb16 O52 1.994249 1_554
Nb16 O120 2.017708 1_555
Nb16 O122 2.021873 1_555
Nb16 O124 2.023127 1_555
Nb17 O51 1.938377 1_554
Nb17 O53 1.941009 1_554
Nb17 O123 1.989738 1_555
Nb17 O49 2.009380 1_554
Nb17 O125 2.067984 1_555
Nb17 O121 2.081587 1_555
Nb18 O56 1.952088 1_555
Nb18 O54 1.953325 1_555
Nb18 O58 1.999847 1_555
Nb18 O128 2.001718 1_555
Nb18 O130 2.055905 1_555
Nb18 O126 2.058289 1_555
Nb19 O55 1.934405 1_555
Nb19 O57 1.993782 1_555
Nb19 O129 2.001346 1_555
Nb19 O59 2.003989 1_555
Nb19 O127 2.019551 1_555
Nb19 O131 2.065241 1_555
Nb20 O64 1.896787 1_555
Nb20 O60 1.948339 1_555
Nb20 O62 1.976532 1_555
Nb20 O136 2.000702 1_555
Nb20 O134 2.016918 1_555
Nb20 O132 2.256564 1_555
Nb21 O65 1.893215 1_555
Nb21 O63 1.962937 1_555
Nb21 O61 1.988359 1_555
Nb21 O135 2.000007 1_555
Nb21 O137 2.001568 1_555
Nb21 O133 2.246674 1_555
Nb22 O68 1.902852 1_555
Nb22 O66 1.942792 1_555
Nb22 O70 1.959679 1_555
Nb22 O142 2.017523 1_555
Nb22 O140 2.018774 1_555
Nb22 O138 2.262138 1_555
Nb23 O67 1.936194 1_555
Nb23 O71 1.945109 1_555
Nb23 O69 1.991774 1_555
Nb23 O139 2.004242 1_555
Nb23 O141 2.073045 1_555
Nb23 O143 2.075150 1_555
O0 S0 1.481648 1_545
O1 S1 1.497706 1_545
O2 Si0 1.661336 1_555
O3 Si1 1.641356 1_555
O4 Si3 1.651409 1_555
O5 Si2 1.638073 1_555
O6 S2 1.469662 1_555
O7 Si4 1.642573 1_555
O8 Si6 1.640353 1_555
O9 Si5 1.635299 1_655
O10 Si7 1.637402 1_545
O11 Si8 1.629919 1_555
O12 Si7 1.651859 1_555
O13 Si8 1.650987 1_565
O14 S2 1.496385 1_555
O15 Si4 1.646408 1_555
O16 Si5 1.654323 1_555
O17 Si6 1.647739 1_555
O18 Si0 1.634422 1_555
O19 Si1 1.641719 1_555
O20 Si2 1.653630 1_455
O21 Si3 1.637089 1_555
O22 S0 1.488860 1_555
O23 S1 1.472166 1_555
O24 Si9 1.662195 1_555
O25 Si10 1.645100 1_555
O26 Si11 1.631071 1_555
O27 Si12 1.638110 1_555
O28 Si13 1.637241 1_555
O29 Si14 1.631081 1_555
O30 Si15 1.653408 1_555
O31 Si16 1.667223 1_555
O32 Si17 1.635052 1_555
O33 Si18 1.631128 1_555
O34 Si19 1.638839 1_555
O35 Si20 1.653767 1_555
O36 Si19 1.642658 1_555
O37 Si20 1.634783 1_555
O38 Si15 1.634889 1_555
O39 Si16 1.627564 1_555
O40 Si17 1.632024 1_555
O41 Si18 1.621417 1_555
O42 Si11 1.642812 1_555
O43 Si12 1.634809 1_555
O44 Si13 1.655677 1_555
O45 Si14 1.626240 1_555
O46 Si9 1.632139 1_555
O47 Si10 1.631414 1_555
O48 Si21 1.639100 1_555
O49 Si22 1.628511 1_555
O50 Si23 1.636752 1_555
O51 Si24 1.639593 1_555
O52 Si25 1.625889 1_555
O53 Si26 1.645623 1_555
O54 Si27 1.632648 1_555
O55 Si28 1.639182 1_555
O56 Si29 1.636362 1_555
O57 Si30 1.642387 1_555
O58 Si31 1.645818 1_555
O59 Si32 1.641767 1_555
O60 Si31 1.642868 1_555
O61 Si32 1.640588 1_555
O62 Si27 1.621376 1_555
O63 Si28 1.626896 1_555
O64 Si29 1.649821 1_555
O65 Si30 1.659893 1_555
O66 Si23 1.645810 1_555
O67 Si24 1.641925 1_555
O68 Si25 1.665836 1_555
O69 Si26 1.641519 1_555
O70 Si21 1.642093 1_555
O71 Si22 1.638578 1_555
O72 Si31 1.639911 1_555
O73 Si32 1.634326 1_555
O74 Si27 1.668764 1_555
O75 Si28 1.651052 1_555
O76 Si29 1.621676 1_555
O77 Si30 1.637687 1_555
O78 Si23 1.640195 1_555
O79 Si24 1.634983 1_555
O80 Si25 1.619301 1_555
O81 Si26 1.638501 1_555
O82 Si21 1.641658 1_555
O83 Si22 1.657423 1_555
O84 Si9 1.620055 1_555
O85 Si10 1.629914 1_555
O86 Si11 1.642263 1_555
O87 Si12 1.643563 1_555
O88 Si13 1.635563 1_555
O89 Si14 1.668324 1_555
O90 Si15 1.623485 1_555
O91 Si16 1.643364 1_555
O92 Si17 1.662306 1_555
O93 Si18 1.674993 1_555
O94 Si19 1.645479 1_555
O95 Si20 1.627439 1_555
O96 Si7 1.649621 1_545
O97 Si8 1.635297 1_555
O98 S2 1.494998 1_555
O99 Si4 1.636200 1_555
O100 Si6 1.631931 1_555
O101 Si5 1.637662 1_655
O102 Si0 1.634590 1_555
O103 Si1 1.639639 1_555
O104 Si3 1.636921 1_555
O105 Si2 1.634129 1_555
O106 S0 1.492949 1_545
O107 S1 1.492433 1_545
O108 Si21 1.626036 1_555
O109 Si22 1.619881 1_555
O110 Si24 1.633696 1_555
O111 Si23 1.630454 1_655
O112 Si25 1.633933 1_545
O113 Si26 1.629217 1_545
O114 Si27 1.629611 1_545
O115 Si28 1.618550 1_545
O116 Si29 1.632867 1_555
O117 Si30 1.609714 1_555
O118 Si32 1.640359 1_555
O119 Si31 1.631113 1_655
O120 Si19 1.623618 1_555
O121 Si20 1.641349 1_555
O122 Si16 1.610934 1_455
O123 Si15 1.627209 1_555
O124 Si17 1.617937 1_565
O125 Si18 1.630103 1_565
O126 Si11 1.634687 1_565
O127 Si12 1.654778 1_565
O128 Si13 1.624054 1_555
O129 Si14 1.619183 1_555
O130 Si10 1.636543 1_455
O131 Si9 1.634040 1_555
O132 S0 1.492390 1_555
O133 S1 1.495652 1_555
O134 Si0 1.632684 1_555
O135 Si1 1.643967 1_555
O136 Si2 1.639898 1_455
O137 Si3 1.644290 1_555
O138 S2 1.492750 1_555
O139 Si4 1.620594 1_555
O140 Si5 1.635894 1_555
O141 Si6 1.639565 1_555
O142 Si7 1.637822 1_555
O143 Si8 1.631157 1_565
