# generated using pymatgen
data_YMgCu(WO4)2
_symmetry_space_group_name_H-M   'P 1'
_cell_length_a   5.38011310
_cell_length_b   6.08778128
_cell_length_c   5.97164794
_cell_angle_alpha   107.75985356
_cell_angle_beta   117.18311534
_cell_angle_gamma   89.82353075
_symmetry_Int_Tables_number   1
_chemical_formula_structural   YMgCu(WO4)2
_chemical_formula_sum   'Y1 Mg1 Cu1 W2 O8'
_cell_volume   163.53725980
_cell_formula_units_Z   1
loop_
 _symmetry_equiv_pos_site_id
 _symmetry_equiv_pos_as_xyz
  1  'x, y, z'
loop_
 _atom_site_type_symbol
 _atom_site_label
 _atom_site_symmetry_multiplicity
 _atom_site_fract_x
 _atom_site_fract_y
 _atom_site_fract_z
 _atom_site_occupancy
  Y  Y0  1  0.59537546  0.66719855  0.08129153  1
  Mg  Mg0  1  0.06735073  0.95875567  0.01001458  1
  Cu  Cu0  1  0.22088138  0.51820238  0.34024944  1
  W  W0  1  0.86151396  0.33056909  0.57877115  1
  W  W1  1  0.37922544  0.04170725  0.60467811  1
  O  O0  1  0.12992667  0.62875969  0.82201921  1
  O  O1  1  0.60308507  0.46408876  0.33932265  1
  O  O2  1  0.11892947  0.13103178  0.78003053  1
  O  O3  1  0.54156081  0.01327794  0.34847933  1
  O  O4  1  0.63202091  0.90640693  0.84500073  1
  O  O5  1  0.06721486  0.79386181  0.29434270  1
  O  O6  1  0.66013940  0.35249935  0.80078266  1
  O  O7  1  0.10627584  0.23672279  0.38236738  1
loop_
_geom_bond_atom_site_label_1
_geom_bond_atom_site_label_2
_geom_bond_distance
_geom_bond_site_symmetry_2
Mg0 O4 2.064569 1_454
Mg0 O2 2.071676 1_564
Mg0 O0 2.091604 1_554
Mg0 O5 2.220701 1_555
Mg0 O7 2.265586 1_565
Mg0 O3 2.364102 1_565
Cu0 O5 1.907850 1_555
Cu0 O7 1.947036 1_555
Cu0 O1 2.083755 1_555
O0 W0 1.995420 1_455
O0 Y0 2.227762 1_556
O1 W0 1.877257 1_555
O1 Y0 2.237971 1_555
O2 W0 2.048792 1_455
O2 W1 2.083547 1_555
O3 W1 2.047395 1_555
O3 W0 2.196018 1_555
O3 Y0 2.331525 1_545
O4 W1 1.875814 1_565
O4 Y0 2.379095 1_556
O5 W1 1.999067 1_565
O5 Y0 2.262777 1_455
O6 W0 2.037841 1_555
O6 W1 2.069827 1_555
O6 Y0 2.273569 1_556
O7 W0 2.105658 1_455
O7 W1 2.120832 1_555
