# generated using pymatgen
data_MgCr4O12
_symmetry_space_group_name_H-M   'P 1'
_cell_length_a   7.25479264
_cell_length_b   7.61163939
_cell_length_c   5.65056634
_cell_angle_alpha   77.51915343
_cell_angle_beta   103.20736568
_cell_angle_gamma   97.25556487
_symmetry_Int_Tables_number   1
_chemical_formula_structural   MgCr4O12
_chemical_formula_sum   'Mg1 Cr4 O12'
_cell_volume   295.62443182
_cell_formula_units_Z   1
loop_
 _symmetry_equiv_pos_site_id
 _symmetry_equiv_pos_as_xyz
  1  'x, y, z'
loop_
 _atom_site_type_symbol
 _atom_site_label
 _atom_site_symmetry_multiplicity
 _atom_site_fract_x
 _atom_site_fract_y
 _atom_site_fract_z
 _atom_site_occupancy
  Mg  Mg0  1  0.85872900  0.96464300  0.53414400  1
  Cr  Cr0  1  0.18878400  0.62135000  0.76914900  1
  Cr  Cr1  1  0.39350100  0.78996700  0.27959000  1
  Cr  Cr2  1  0.60453000  0.21913700  0.71166900  1
  Cr  Cr3  1  0.80634900  0.37935200  0.23085700  1
  O  O0  1  0.03122000  0.77596900  0.67364600  1
  O  O1  1  0.10977500  0.41366100  0.82011900  1
  O  O2  1  0.25212600  0.94577000  0.19604400  1
  O  O3  1  0.34963200  0.65313600  0.54896400  1
  O  O4  1  0.39298000  0.12534600  0.67638800  1
  O  O5  1  0.36369500  0.66891400  0.04674600  1
  O  O6  1  0.63939100  0.34236600  0.94188200  1
  O  O7  1  0.61614300  0.87992200  0.33275100  1
  O  O8  1  0.63315100  0.35605900  0.43415200  1
  O  O9  1  0.75520100  0.06183500  0.77839600  1
  O  O10  1  0.91027700  0.57988000  0.20072900  1
  O  O11  1  0.93711200  0.20417400  0.34560900  1
loop_
_geom_bond_atom_site_label_1
_geom_bond_atom_site_label_2
_geom_bond_distance
_geom_bond_site_symmetry_2
Mg0 O0 1.940015 1_655
Mg0 O7 1.980785 1_555
Mg0 O11 1.989435 1_565
Mg0 O9 2.017819 1_565
Cr0 O1 1.600113 1_555
Cr0 O0 1.663252 1_555
Cr0 O5 1.849760 1_556
Cr0 O3 1.852079 1_555
Cr1 O2 1.589091 1_555
Cr1 O7 1.660070 1_555
Cr1 O3 1.719097 1_555
Cr1 O5 1.723509 1_555
Cr2 O4 1.596813 1_555
Cr2 O9 1.648551 1_555
Cr2 O6 1.718445 1_555
Cr2 O8 1.725126 1_555
Cr3 O10 1.607124 1_555
Cr3 O11 1.662245 1_555
Cr3 O6 1.849713 1_554
Cr3 O8 1.856102 1_555
