# generated using pymatgen
data_Na6Zr6Zn2Si5S7O48
_symmetry_space_group_name_H-M   'P 1'
_cell_length_a   18.01896921
_cell_length_b   9.05753601
_cell_length_c   23.46406419
_cell_angle_alpha   90.00925303
_cell_angle_beta   89.80567969
_cell_angle_gamma   120.18875684
_symmetry_Int_Tables_number   1
_chemical_formula_structural   Na6Zr6Zn2Si5S7O48
_chemical_formula_sum   'Na18 Zr18 Zn6 Si15 S21 O144'
_cell_volume   3310.10294407
_cell_formula_units_Z   3
loop_
 _symmetry_equiv_pos_site_id
 _symmetry_equiv_pos_as_xyz
  1  'x, y, z'
loop_
 _atom_site_type_symbol
 _atom_site_label
 _atom_site_symmetry_multiplicity
 _atom_site_fract_x
 _atom_site_fract_y
 _atom_site_fract_z
 _atom_site_occupancy
  Na  Na0  1  0.65484840  0.34809743  0.58106692  1
  Na  Na1  1  0.52179598  0.69044268  0.58388136  1
  Na  Na2  1  0.82254697  0.95353320  0.58222702  1
  Na  Na3  1  0.15353006  0.95876934  0.08406585  1
  Na  Na4  1  0.32228299  0.69282221  0.08496912  1
  Na  Na5  1  0.02177955  0.35432888  0.08677283  1
  Na  Na6  1  0.00618466  0.99414221  0.49453024  1
  Na  Na7  1  0.49423984  0.00605540  0.49957977  1
  Na  Na8  1  0.99567148  0.98387600  0.00213540  1
  Na  Na9  1  0.50402568  0.00851498  0.99962778  1
  Na  Na10  1  0.32797702  0.32270256  0.81864474  1
  Na  Na11  1  0.82851686  0.32994794  0.83174352  1
  Na  Na12  1  0.32606417  0.32499636  0.33312513  1
  Na  Na13  1  0.83508432  0.34237553  0.32291925  1
  Na  Na14  1  0.16389941  0.66445069  0.16136438  1
  Na  Na15  1  0.67231318  0.67617780  0.17129542  1
  Na  Na16  1  0.17211998  0.66722424  0.66602615  1
  Na  Na17  1  0.66491947  0.66426360  0.65579757  1
  Zr  Zr0  1  0.00022963  0.99092176  0.35517645  1
  Zr  Zr1  1  0.50237490  0.99886105  0.35170381  1
  Zr  Zr2  1  0.00312495  0.00539424  0.85151904  1
  Zr  Zr3  1  0.49976201  0.99813447  0.85086077  1
  Zr  Zr4  1  0.00534786  0.00454773  0.64725334  1
  Zr  Zr5  1  0.49310549  0.00355523  0.64492141  1
  Zr  Zr6  1  0.99463534  0.98453616  0.14822146  1
  Zr  Zr7  1  0.50357941  0.00609854  0.15003070  1
  Zr  Zr8  1  0.32887296  0.31853683  0.98501781  1
  Zr  Zr9  1  0.83280266  0.34660750  0.97785762  1
  Zr  Zr10  1  0.33210223  0.31821650  0.47722649  1
  Zr  Zr11  1  0.83302864  0.34855775  0.48262742  1
  Zr  Zr12  1  0.67207555  0.67910437  0.01527481  1
  Zr  Zr13  1  0.16756060  0.66777758  0.51138812  1
  Zr  Zr14  1  0.16512717  0.66216422  0.31943860  1
  Zr  Zr15  1  0.67155649  0.67998828  0.30996708  1
  Zr  Zr16  1  0.17052877  0.66312951  0.80875185  1
  Zr  Zr17  1  0.67248411  0.67851745  0.81575304  1
  Zn  Zn0  1  0.33540403  0.31679940  0.68966396  1
  Zn  Zn1  1  0.82211630  0.32929480  0.67140103  1
  Zn  Zn2  1  0.31990441  0.31111804  0.17632013  1
  Zn  Zn3  1  0.83809715  0.35487002  0.19209591  1
  Zn  Zn4  1  0.16548490  0.66882755  0.02708154  1
  Zn  Zn5  1  0.66620863  0.66438971  0.52603228  1
  Si  Si0  1  0.65190275  0.01038593  0.24857860  1
  Si  Si1  1  0.85445410  0.70366633  0.25154827  1
  Si  Si2  1  0.15162637  0.29245637  0.74856708  1
  Si  Si3  1  0.35516148  0.00898025  0.75140176  1
  Si  Si4  1  0.47512873  0.33780553  0.58599787  1
  Si  Si5  1  0.68801722  0.03950747  0.58485830  1
  Si  Si6  1  0.83532011  0.63086484  0.58620355  1
  Si  Si7  1  0.97488966  0.61521296  0.08607425  1
  Si  Si8  1  0.33648857  0.04100461  0.08537570  1
  Si  Si9  1  0.18651030  0.33597476  0.08595986  1
  Si  Si10  1  0.81583846  0.67164084  0.91500965  1
  Si  Si11  1  0.66551320  0.96203349  0.91692331  1
  Si  Si12  1  0.31550740  0.95849789  0.41458816  1
  Si  Si13  1  0.16655864  0.37235694  0.41667364  1
  Si  Si14  1  0.01708373  0.66066031  0.41676624  1
  S  S0  1  0.14873663  0.00196857  0.24969911  1
  S  S1  1  0.35399522  0.70395841  0.24893776  1
  S  S2  1  0.00167454  0.29239238  0.24925771  1
  S  S3  1  0.49688972  0.29128670  0.25113823  1
  S  S4  1  0.64763654  0.29407663  0.75024697  1
  S  S5  1  0.99691526  0.70378082  0.75095762  1
  S  S6  1  0.50117516  0.70828408  0.74953014  1
  S  S7  1  0.85522821  0.00537743  0.74930929  1
  S  S8  1  0.98020984  0.33755042  0.58581453  1
  S  S9  1  0.18876186  0.03890052  0.58480388  1
  S  S10  1  0.32964357  0.61735296  0.58494626  1
  S  S11  1  0.47973290  0.62242441  0.08483635  1
  S  S12  1  0.83106743  0.04337437  0.08439124  1
  S  S13  1  0.68718545  0.33585404  0.08383298  1
  S  S14  1  0.31219939  0.66509073  0.91808894  1
  S  S15  1  0.02254474  0.37708067  0.91767205  1
  S  S16  1  0.52077228  0.37655505  0.91621969  1
  S  S17  1  0.16706956  0.95632785  0.91700239  1
  S  S18  1  0.81070415  0.95757186  0.41872913  1
  S  S19  1  0.66561692  0.37728312  0.41705613  1
  S  S20  1  0.52257908  0.66776358  0.41783935  1
  O  O0  1  0.10391609  0.01888362  0.30045845  1
  O  O1  1  0.59805909  0.02467883  0.30365987  1
  O  O2  1  0.40767964  0.79918014  0.29929051  1
  O  O3  1  0.91301416  0.81199248  0.30549347  1
  O  O4  1  0.48682992  0.18340362  0.30180392  1
  O  O5  1  0.99632959  0.18789729  0.29953350  1
  O  O6  1  0.09849014  0.17224904  0.80445254  1
  O  O7  1  0.60196771  0.18618386  0.80151973  1
  O  O8  1  0.49579186  0.80407412  0.80074109  1
  O  O9  1  0.98721667  0.79195898  0.80219784  1
  O  O10  1  0.41334582  0.01758072  0.80692684  1
  O  O11  1  0.90734833  0.01498311  0.80027575  1
  O  O12  1  0.39916274  0.97034137  0.69631742  1
  O  O13  1  0.89423084  0.97758118  0.69709357  1
  O  O14  1  0.08617585  0.19758709  0.69473967  1
  O  O15  1  0.59588741  0.21170552  0.69815389  1
  O  O16  1  0.01093511  0.81283216  0.69965692  1
  O  O17  1  0.51547368  0.81284358  0.69756279  1
  O  O18  1  0.39581672  0.81171214  0.19609574  1
  O  O19  1  0.89685679  0.82494893  0.19462506  1
  O  O20  1  0.01354437  0.21274562  0.19577004  1
  O  O21  1  0.51084008  0.20952550  0.19927879  1
  O  O22  1  0.09691076  0.98301410  0.19690293  1
  O  O23  1  0.58654109  0.97452402  0.19372008  1
  O  O24  1  0.43395910  0.38012824  0.63964974  1
  O  O25  1  0.94207576  0.35939490  0.63766556  1
  O  O26  1  0.23785819  0.11792770  0.63571074  1
  O  O27  1  0.74927540  0.11163087  0.64015887  1
  O  O28  1  0.31807374  0.52069141  0.63650575  1
  O  O29  1  0.81697477  0.51651231  0.64229196  1
  O  O30  1  0.44240364  0.52400561  0.13616862  1
  O  O31  1  0.93225771  0.48527661  0.13815824  1
  O  O32  1  0.31848582  0.12316649  0.14007271  1
  O  O33  1  0.81650059  0.11198766  0.13557352  1
  O  O34  1  0.25094431  0.38558655  0.13885255  1
  O  O35  1  0.73728512  0.36222302  0.13442451  1
  O  O36  1  0.23237528  0.29713761  0.02925435  1
  O  O37  1  0.72496891  0.30730588  0.03092026  1
  O  O38  1  0.42596440  0.54344046  0.03231639  1
  O  O39  1  0.91731038  0.53018123  0.02740836  1
  O  O40  1  0.35269246  0.16382270  0.02759217  1
  O  O41  1  0.84252097  0.14427631  0.03178028  1
  O  O42  1  0.22550527  0.14161206  0.53192520  1
  O  O43  1  0.73245047  0.16821425  0.52938604  1
  O  O44  1  0.34313567  0.54130834  0.53274536  1
  O  O45  1  0.85267535  0.54379400  0.52921103  1
  O  O46  1  0.41736632  0.30692743  0.52818301  1
  O  O47  1  0.92657234  0.30722689  0.53401210  1
  O  O48  1  0.27533056  0.69152469  0.96972633  1
  O  O49  1  0.76716517  0.69137787  0.97132780  1
  O  O50  1  0.07219909  0.44846155  0.96958137  1
  O  O51  1  0.57271681  0.45660283  0.96812893  1
  O  O52  1  0.15523957  0.86112444  0.96963518  1
  O  O53  1  0.65052000  0.83767394  0.97221423  1
  O  O54  1  0.27159015  0.84595205  0.47213963  1
  O  O55  1  0.77344251  0.85445700  0.46999953  1
  O  O56  1  0.15206052  0.46212192  0.47298716  1
  O  O57  1  0.65358385  0.44888189  0.46967745  1
  O  O58  1  0.07677312  0.69162304  0.47313473  1
  O  O59  1  0.57208474  0.69542394  0.46968588  1
  O  O60  1  0.06481648  0.63978195  0.36051574  1
  O  O61  1  0.56326709  0.64288790  0.36654392  1
  O  O62  1  0.25578236  0.86876179  0.35899496  1
  O  O63  1  0.75694407  0.87081048  0.36693124  1
  O  O64  1  0.18203550  0.49218450  0.36053274  1
  O  O65  1  0.67506060  0.48176358  0.36609564  1
  O  O66  1  0.06327708  0.48386649  0.86655354  1
  O  O67  1  0.56311436  0.47984710  0.86473757  1
  O  O68  1  0.17679754  0.87184483  0.86603848  1
  O  O69  1  0.67643422  0.86255896  0.86135492  1
  O  O70  1  0.25834012  0.64215241  0.86664512  1
  O  O71  1  0.75427162  0.64290357  0.85989656  1
  O  O72  1  0.00800906  0.83136851  0.41116894  1
  O  O73  1  0.51189605  0.82122889  0.40890012  1
  O  O74  1  0.41101183  0.98017234  0.40801043  1
  O  O75  1  0.89788337  0.97934472  0.40967720  1
  O  O76  1  0.08104027  0.18590131  0.40897722  1
  O  O77  1  0.58835614  0.20150932  0.40924568  1
  O  O78  1  0.01155612  0.20213030  0.90860006  1
  O  O79  1  0.51178224  0.20424769  0.91095484  1
  O  O80  1  0.09025231  0.97883545  0.90952034  1
  O  O81  1  0.58049074  0.98104787  0.91010281  1
  O  O82  1  0.39959421  0.82013646  0.90907621  1
  O  O83  1  0.90988830  0.84189305  0.90883190  1
  O  O84  1  0.48916013  0.16774071  0.59080379  1
  O  O85  1  0.98560967  0.17476316  0.59020328  1
  O  O86  1  0.09959415  0.01868799  0.58928429  1
  O  O87  1  0.59174204  0.02136377  0.59251347  1
  O  O88  1  0.41291842  0.79246840  0.58869669  1
  O  O89  1  0.91890571  0.82795482  0.59190392  1
  O  O90  1  0.48641418  0.79587485  0.08819895  1
  O  O91  1  0.98953899  0.81273329  0.09108724  1
  O  O92  1  0.41991894  0.01035932  0.08960041  1
  O  O93  1  0.91212894  0.03150411  0.08757367  1
  O  O94  1  0.09107046  0.16210403  0.09068942  1
  O  O95  1  0.59875339  0.17864906  0.08836718  1
  O  O96  1  0.34707259  0.17466403  0.74958523  1
  O  O97  1  0.84771955  0.15699549  0.74671852  1
  O  O98  1  0.24557285  0.32090329  0.74254190  1
  O  O99  1  0.73266719  0.31152955  0.74802508  1
  O  O100  1  0.42361504  0.54322320  0.74836718  1
  O  O101  1  0.92232974  0.53425216  0.74608427  1
  O  O102  1  0.34930972  0.53908392  0.24531866  1
  O  O103  1  0.84558085  0.51910126  0.24944350  1
  O  O104  1  0.42221027  0.31095053  0.24514849  1
  O  O105  1  0.92450483  0.30424139  0.24631253  1
  O  O106  1  0.23380988  0.15713405  0.24649657  1
  O  O107  1  0.74548594  0.16927442  0.24161917  1
  O  O108  1  0.32364934  0.51335793  0.92195058  1
  O  O109  1  0.82301318  0.49956535  0.92047832  1
  O  O110  1  0.43533894  0.36121943  0.92173423  1
  O  O111  1  0.93413245  0.35232437  0.92210676  1
  O  O112  1  0.24547798  0.13288809  0.92023624  1
  O  O113  1  0.75220128  0.14486703  0.92468106  1
  O  O114  1  0.32463120  0.14758599  0.42068235  1
  O  O115  1  0.81910170  0.12809735  0.42247683  1
  O  O116  1  0.25225594  0.35736796  0.42533594  1
  O  O117  1  0.74308783  0.35699962  0.42011812  1
  O  O118  1  0.43430306  0.51588340  0.42203573  1
  O  O119  1  0.92351889  0.48751510  0.42260285  1
  O  O120  1  0.17452424  0.49880184  0.07547828  1
  O  O121  1  0.67353621  0.48485022  0.07454236  1
  O  O122  1  0.07245585  0.64983381  0.07749575  1
  O  O123  1  0.56704066  0.64578665  0.07573202  1
  O  O124  1  0.25216032  0.85461200  0.07581807  1
  O  O125  1  0.75608566  0.86240607  0.07641728  1
  O  O126  1  0.17659736  0.86468655  0.57830626  1
  O  O127  1  0.67355422  0.84953924  0.57593222  1
  O  O128  1  0.25642509  0.64963194  0.57827617  1
  O  O129  1  0.75144514  0.65050889  0.57701629  1
  O  O130  1  0.06813319  0.48601710  0.57864168  1
  O  O131  1  0.57298321  0.49669507  0.57772503  1
  O  O132  1  0.15442580  0.84455626  0.25332809  1
  O  O133  1  0.65041501  0.82614255  0.25811871  1
  O  O134  1  0.26887516  0.69170969  0.25296041  1
  O  O135  1  0.75822569  0.68693837  0.25788379  1
  O  O136  1  0.08105763  0.46580451  0.25294730  1
  O  O137  1  0.57743958  0.46027642  0.25748078  1
  O  O138  1  0.15131051  0.47486499  0.75847450  1
  O  O139  1  0.65176489  0.46221271  0.75667063  1
  O  O140  1  0.07756382  0.69577641  0.75810953  1
  O  O141  1  0.57930882  0.69116834  0.75696216  1
  O  O142  1  0.25965666  0.83236158  0.75907866  1
  O  O143  1  0.76841043  0.84500541  0.75500443  1
loop_
_geom_bond_atom_site_label_1
_geom_bond_atom_site_label_2
_geom_bond_distance
_geom_bond_site_symmetry_2
Na0 O129 2.396975 1_555
Na0 O131 2.447697 1_555
Na0 O84 2.593216 1_555
Na0 O87 2.595583 1_555
Na0 O57 2.772560 1_555
Na0 O43 2.891280 1_555
Na0 O29 2.910507 1_555
Na0 O15 2.977259 1_555
Na1 O131 2.361780 1_555
Na1 O127 2.371207 1_555
Na1 O88 2.556831 1_555
Na1 O87 2.610710 1_565
Na1 O24 2.762339 1_555
Na1 O59 2.818735 1_555
Na1 O17 2.912260 1_555
Na2 O127 2.361371 1_555
Na2 O129 2.377816 1_555
Na2 O89 2.519704 1_555
Na2 O85 2.601120 1_565
Na2 O27 2.744087 1_565
Na2 O55 2.781911 1_555
Na2 O13 2.953071 1_555
Na2 O47 3.000670 1_565
Na3 O124 2.402036 1_555
Na3 O122 2.424477 1_555
Na3 O91 2.564054 1_455
Na3 O94 2.601156 1_565
Na3 O52 2.831694 1_554
Na3 O22 2.881970 1_555
Na3 O32 2.890277 1_565
Na3 O36 2.945379 1_565
Na4 O120 2.350513 1_555
Na4 O124 2.377854 1_555
Na4 O92 2.508254 1_565
Na4 O90 2.617038 1_555
Na4 O34 2.717984 1_555
Na4 O48 2.834322 1_554
Na4 O18 2.881278 1_555
Na5 O122 2.363464 1_555
Na5 O120 2.393911 1_555
Na5 O93 2.577496 1_455
Na5 O94 2.604947 1_555
Na5 O31 2.715332 1_455
Na5 O20 2.831000 1_555
Na5 O50 2.884174 1_554
Na6 O72 2.459272 1_555
Na6 O76 2.548028 1_565
Na6 O86 2.733938 1_565
Na6 O75 2.748367 1_455
Na6 O89 2.748688 1_455
Na6 O85 2.908008 1_465
Na7 O74 2.566818 1_545
Na7 O84 2.620534 1_555
Na7 O88 2.718787 1_545
Na7 O77 2.731346 1_555
Na7 O87 2.764382 1_555
Na7 O73 2.821488 1_545
Na8 O91 2.568777 1_555
Na8 O83 2.618956 1_554
Na8 O93 2.665233 1_565
Na8 O94 2.666584 1_665
Na8 O80 2.771664 1_654
Na8 O78 2.869622 1_664
Na9 O81 2.588015 1_545
Na9 O92 2.599550 1_556
Na9 O95 2.646020 1_556
Na9 O79 2.691020 1_555
Na9 O90 2.740690 1_546
Na9 O82 2.786315 1_545
Na10 O96 2.236420 1_555
Na10 O98 2.321058 1_555
Na10 O100 2.489688 1_555
Na10 O112 2.873131 1_555
Na10 O108 2.999434 1_555
Na10 O110 3.011309 1_555
Na11 O99 2.569563 1_555
Na11 O109 2.618386 1_555
Na11 O97 2.663326 1_555
Na11 O113 2.668165 1_555
Na11 O101 2.674659 1_555
Na11 O111 2.792446 1_555
Na12 O106 2.585882 1_555
Na12 O114 2.600487 1_555
Na12 O116 2.628407 1_555
Na12 O102 2.712746 1_555
Na12 O104 2.734262 1_555
Na12 O118 2.789366 1_555
Na13 O103 2.294456 1_555
Na13 O107 2.485558 1_555
Na13 O105 2.546834 1_555
Na13 O119 2.766910 1_555
Na13 O117 2.856929 1_555
Na13 O115 2.956612 1_555
Na14 O122 2.531334 1_555
Na14 O120 2.575700 1_555
Na14 O124 2.598005 1_555
Na14 O136 2.713248 1_555
Na14 O132 2.760983 1_555
Na14 O134 2.795672 1_555
Na15 O135 2.530488 1_555
Na15 O133 2.585280 1_555
Na15 O137 2.729809 1_555
Na15 O125 2.738172 1_555
Na15 O121 2.862572 1_555
Na15 O123 2.864518 1_555
Na16 O128 2.606627 1_555
Na16 O142 2.672445 1_555
Na16 O138 2.687076 1_555
Na16 O126 2.701244 1_555
Na16 O130 2.709416 1_555
Na16 O140 2.838349 1_555
Na17 O131 2.427920 1_555
Na17 O129 2.457459 1_555
Na17 O127 2.467501 1_555
Na17 O141 2.902877 1_555
Na17 O143 2.921322 1_555
Na17 O139 2.927268 1_555
O0 S0 1.487316 1_555
O0 Zr0 2.170517 1_545
O1 Si0 1.657165 1_555
O1 Zr1 1.969658 1_545
O2 S1 1.497953 1_555
O2 Zr1 2.145911 1_555
O3 Si1 1.626573 1_555
O3 Zr0 1.976268 1_655
O4 S3 1.490559 1_555
O4 Zr1 2.171864 1_545
O5 S2 1.484798 1_655
O5 Zr0 2.240554 1_645
O6 Si2 1.662895 1_555
O6 Zr2 1.957642 1_555
O7 S4 1.504809 1_555
O7 Zr3 2.112962 1_545
O8 S6 1.513134 1_555
O8 Zr3 2.085930 1_555
O9 S5 1.500865 1_555
O9 Zr2 2.145443 1_665
O10 Si3 1.652197 1_555
O10 Zr3 1.950678 1_545
O11 S7 1.498370 1_555
O11 Zr2 2.143939 1_655
O12 Si3 1.641228 1_565
O12 Zr5 1.970882 1_565
O13 S7 1.493452 1_565
O13 Zr4 2.220028 1_665
O14 Si2 1.647728 1_555
O14 Zr4 1.967017 1_555
O15 S4 1.492635 1_555
O15 Zr5 2.246761 1_555
O16 S5 1.495247 1_455
O16 Zr4 2.171343 1_565
O17 S6 1.484246 1_555
O17 Zr5 2.318666 1_565
O18 S1 1.520569 1_555
O18 Zr7 2.141677 1_565
O19 Si1 1.650432 1_555
O19 Zr6 1.950726 1_555
O20 S2 1.514711 1_555
O20 Zr6 2.219670 1_445
O21 S3 1.509020 1_555
O21 Zr7 2.122574 1_555
O22 S0 1.510876 1_565
O22 Zr6 2.177399 1_455
O23 Si0 1.665805 1_565
O23 Zr7 1.951359 1_565
O24 Si4 1.600493 1_555
O24 Zn0 1.954872 1_555
O25 S8 1.456876 1_555
O25 Zn1 2.183802 1_555
O26 S9 1.446314 1_555
O26 Zn0 2.183334 1_555
O27 Si5 1.616510 1_555
O27 Zn1 1.884298 1_555
O28 S10 1.445220 1_555
O28 Zn0 2.376379 1_555
O29 Si6 1.602258 1_555
O29 Zn1 1.873337 1_555
O30 S11 1.445561 1_555
O30 Zn2 2.276818 1_555
O31 Si7 1.598001 1_555
O31 Zn3 1.961131 1_555
O32 Si8 1.595569 1_555
O32 Zn2 1.891568 1_555
O33 S12 1.434942 1_555
O33 Zn3 2.427257 1_555
O34 Si9 1.604710 1_555
O34 Zn2 1.903255 1_555
O35 S13 1.439269 1_555
O35 Zn3 2.296465 1_555
O36 Si9 1.691700 1_555
O36 Zr8 1.946077 1_554
O37 S13 1.497674 1_555
O37 Zr9 2.177262 1_554
O38 S11 1.509920 1_555
O38 Zr8 2.206888 1_554
O39 Si7 1.664391 1_555
O39 Zr9 1.974900 1_554
O40 Si8 1.682911 1_555
O40 Zr8 1.937554 1_554
O41 S12 1.486843 1_555
O41 Zr9 2.305431 1_554
O42 S9 1.489509 1_555
O42 Zr10 2.188445 1_555
O43 Si5 1.657996 1_555
O43 Zr11 2.041150 1_555
O44 S10 1.483198 1_555
O44 Zr10 2.327340 1_555
O45 Si6 1.659194 1_555
O45 Zr11 1.954371 1_555
O46 Si4 1.648791 1_555
O46 Zr10 1.992725 1_555
O47 S8 1.492604 1_555
O47 Zr11 2.254658 1_555
O48 S14 1.456405 1_555
O48 Zn4 2.311677 1_556
O49 Si10 1.642298 1_555
O49 Zr12 1.951402 1_556
O50 S15 1.458573 1_555
O50 Zn4 2.295652 1_556
O51 S16 1.486685 1_555
O51 Zr12 2.207853 1_556
O52 S17 1.458727 1_555
O52 Zn4 2.282641 1_556
O53 Si11 1.648306 1_555
O53 Zr12 1.949025 1_556
O54 Si12 1.634272 1_555
O54 Zr13 1.978057 1_555
O55 S18 1.461013 1_555
O55 Zn5 2.250323 1_555
O56 Si13 1.638954 1_555
O56 Zr13 1.958981 1_555
O57 S19 1.459940 1_555
O57 Zn5 2.272681 1_555
O58 Si14 1.640420 1_555
O58 Zr13 1.973275 1_555
O59 S20 1.456349 1_555
O59 Zn5 2.279969 1_555
O60 Si14 1.635043 1_555
O60 Zr14 1.963885 1_555
O61 S20 1.482225 1_555
O61 Zr15 2.237365 1_555
O62 Si12 1.627836 1_555
O62 Zr14 1.991740 1_555
O63 S18 1.508374 1_555
O63 Zr15 2.116569 1_555
O64 Si13 1.638466 1_555
O64 Zr14 1.966507 1_555
O65 S19 1.480316 1_555
O65 Zr15 2.253305 1_555
O66 S15 1.480992 1_555
O66 Zr16 2.244498 1_555
O67 S16 1.480830 1_555
O67 Zr17 2.204936 1_555
O68 S17 1.476291 1_555
O68 Zr16 2.275700 1_555
O69 Si11 1.651290 1_555
O69 Zr17 1.951757 1_555
O70 S14 1.499047 1_555
O70 Zr16 2.168402 1_555
O71 Si10 1.640116 1_555
O71 Zr17 1.958912 1_555
O72 Si14 1.639874 1_555
O72 Zr0 2.009933 1_555
O73 S20 1.510850 1_555
O73 Zr1 2.167718 1_555
O74 Si12 1.637764 1_555
O74 Zr1 2.046811 1_555
O75 S18 1.495948 1_555
O75 Zr0 2.199293 1_655
O76 Si13 1.625988 1_555
O76 Zr0 2.063568 1_545
O77 S19 1.509629 1_555
O77 Zr1 2.178475 1_545
O78 S15 1.510021 1_555
O78 Zr2 2.172699 1_555
O79 S16 1.490986 1_555
O79 Zr3 2.261627 1_545
O80 S17 1.507896 1_555
O80 Zr2 2.183846 1_565
O81 Si11 1.633822 1_555
O81 Zr3 2.076635 1_555
O82 S14 1.506815 1_555
O82 Zr3 2.186400 1_555
O83 Si10 1.625153 1_555
O83 Zr2 2.075387 1_665
O84 Si4 1.685615 1_555
O84 Zr5 1.984075 1_555
O85 S8 1.529208 1_555
O85 Zr4 2.202433 1_655
O86 S9 1.526146 1_555
O86 Zr4 2.125117 1_555
O87 Si5 1.667307 1_555
O87 Zr5 2.096188 1_555
O88 S10 1.543489 1_555
O88 Zr5 2.171971 1_565
O89 Si6 1.664442 1_555
O89 Zr4 2.044176 1_665
O90 S11 1.516138 1_555
O90 Zr7 2.288240 1_565
O91 Si7 1.676129 1_555
O91 Zr6 2.020785 1_555
O92 Si8 1.663595 1_555
O92 Zr7 2.087475 1_555
O93 S12 1.519638 1_555
O93 Zr6 2.250967 1_545
O94 Si9 1.650735 1_555
O94 Zr6 2.145376 1_445
O95 S13 1.514906 1_555
O95 Zr7 2.182988 1_555
O96 Si3 1.579608 1_555
O96 Zn0 1.988275 1_555
O97 S7 1.447363 1_555
O97 Zn1 2.549907 1_555
O98 Si2 1.584848 1_555
O98 Zn0 2.051279 1_555
O99 S4 1.459832 1_555
O99 Zn1 2.361318 1_555
O100 S6 1.444987 1_555
O100 Zn0 2.316300 1_555
O101 S5 1.450051 1_555
O101 Zn1 2.535128 1_555
O102 S1 1.455219 1_555
O102 Zn2 2.463687 1_555
O103 Si1 1.598067 1_555
O103 Zn3 1.959704 1_555
O104 S3 1.450712 1_555
O104 Zn2 2.455505 1_555
O105 S2 1.449336 1_655
O105 Zn3 2.232597 1_555
O106 S0 1.470812 1_555
O106 Zn2 2.206956 1_555
O107 Si0 1.580789 1_555
O107 Zn3 2.031543 1_555
O108 S14 1.491602 1_555
O108 Zr8 2.341227 1_555
O109 Si10 1.632535 1_555
O109 Zr9 2.002788 1_555
O110 S16 1.479682 1_555
O110 Zr8 2.295566 1_555
O111 S15 1.496227 1_655
O111 Zr9 2.221804 1_555
O112 S17 1.512518 1_545
O112 Zr8 2.206710 1_555
O113 Si11 1.617346 1_545
O113 Zr9 2.085110 1_555
O114 Si12 1.642447 1_545
O114 Zr10 1.989537 1_555
O115 S18 1.476901 1_545
O115 Zr11 2.353682 1_555
O116 Si13 1.630092 1_555
O116 Zr10 2.050205 1_555
O117 S19 1.498729 1_555
O117 Zr11 2.219095 1_555
O118 S20 1.493521 1_555
O118 Zr10 2.223172 1_555
O119 Si14 1.630964 1_655
O119 Zr11 2.036540 1_555
O120 Si9 1.613388 1_555
O120 Zn4 1.985399 1_555
O121 S13 1.504503 1_555
O121 Zr12 2.253430 1_555
O122 Si7 1.634855 1_455
O122 Zn4 1.983792 1_555
O123 S11 1.492749 1_555
O123 Zr12 2.256757 1_555
O124 Si8 1.622238 1_565
O124 Zn4 1.986702 1_555
O125 S12 1.523672 1_565
O125 Zr12 2.143030 1_555
O126 S9 1.487789 1_565
O126 Zr13 2.319832 1_555
O127 Si5 1.619161 1_565
O127 Zn5 1.994475 1_555
O128 S10 1.496638 1_555
O128 Zr13 2.309984 1_555
O129 Si6 1.623250 1_555
O129 Zn5 2.003133 1_555
O130 S8 1.484011 1_455
O130 Zr13 2.329303 1_555
O131 Si4 1.632046 1_555
O131 Zn5 2.005192 1_555
O132 S0 1.482452 1_565
O132 Zr14 2.344329 1_555
O133 Si0 1.670563 1_565
O133 Zr15 1.971915 1_555
O134 S1 1.483770 1_555
O134 Zr14 2.340244 1_555
O135 Si1 1.669023 1_555
O135 Zr15 1.955643 1_555
O136 S2 1.503953 1_555
O136 Zr14 2.279825 1_555
O137 S3 1.496243 1_555
O137 Zr15 2.229857 1_555
O138 Si2 1.671249 1_555
O138 Zr16 1.956435 1_555
O139 S4 1.494504 1_555
O139 Zr17 2.273035 1_555
O140 S5 1.500945 1_455
O140 Zr16 2.194831 1_555
O141 S6 1.502588 1_555
O141 Zr17 2.223532 1_555
O142 Si3 1.668052 1_565
O142 Zr16 1.949199 1_555
O143 S7 1.512748 1_565
O143 Zr17 2.157791 1_555
