# generated using pymatgen
data_MgV4O7F5
_symmetry_space_group_name_H-M   'P 1'
_cell_length_a   5.23689606
_cell_length_b   5.30415574
_cell_length_c   8.97219544
_cell_angle_alpha   73.97627381
_cell_angle_beta   89.68347400
_cell_angle_gamma   63.55811601
_symmetry_Int_Tables_number   1
_chemical_formula_structural   MgV4O7F5
_chemical_formula_sum   'Mg1 V4 O7 F5'
_cell_volume   212.47656590
_cell_formula_units_Z   1
loop_
 _symmetry_equiv_pos_site_id
 _symmetry_equiv_pos_as_xyz
  1  'x, y, z'
loop_
 _atom_site_type_symbol
 _atom_site_label
 _atom_site_symmetry_multiplicity
 _atom_site_fract_x
 _atom_site_fract_y
 _atom_site_fract_z
 _atom_site_occupancy
  Mg  Mg0  1  0.81528700  0.39682700  0.60220300  1
  V  V0  1  0.65379200  0.53300600  0.23934000  1
  V  V1  1  0.42840800  0.02791200  0.48167000  1
  V  V2  1  0.27337500  0.52136700  0.77029800  1
  V  V3  1  0.96945100  0.00193900  0.00231900  1
  O  O0  1  0.56933700  0.71126100  0.38883300  1
  O  O1  1  0.38810000  0.78442200  0.09115900  1
  O  O2  1  0.47878800  0.71175100  0.67035300  1
  O  O3  1  0.55352700  0.26259600  0.31660100  1
  O  O4  1  0.62004300  0.22736600  0.91456200  1
  O  O5  1  0.07142900  0.71552800  0.88679800  1
  O  O6  1  0.06672100  0.22133100  0.44628900  1
  F  F0  1  0.99638400  0.67604100  0.58326300  1
  F  F1  1  0.91013400  0.74327300  0.17914300  1
  F  F2  1  0.93785800  0.27947000  0.12591700  1
  F  F3  1  0.54602000  0.20913300  0.62087400  1
  F  F4  1  0.09634700  0.22677500  0.80894900  1
loop_
_geom_bond_atom_site_label_1
_geom_bond_atom_site_label_2
_geom_bond_distance
_geom_bond_site_symmetry_2
Mg0 O6 2.040623 1_655
Mg0 O2 2.049383 1_555
Mg0 O0 2.111146 1_555
O0 V0 1.791578 1_555
O0 V1 1.929004 1_565
O1 V0 1.694435 1_555
O1 V3 2.008003 1_465
O2 V2 1.854160 1_555
O2 V1 1.947139 1_565
O3 V0 1.712084 1_555
O3 V1 1.967280 1_555
O4 V3 1.716255 1_556
O4 V2 1.947671 1_555
O5 V2 1.698157 1_555
O5 V3 1.951409 1_466
O6 V1 1.684407 1_555
O6 V0 2.454154 1_455
F0 V2 1.949433 1_655
F0 Mg0 2.057135 1_555
F1 V3 1.915282 1_565
F1 V0 2.080993 1_555
F2 V0 2.003564 1_555
F2 V3 2.026428 1_555
F3 V1 2.015382 1_555
F3 Mg0 2.040395 1_555
F3 V2 2.382756 1_555
F4 Mg0 2.084474 1_455
F4 V2 2.099699 1_555
F4 V3 2.103493 1_456
