# generated using pymatgen
data_LiCe2HO3
_symmetry_space_group_name_H-M   'P 1'
_cell_length_a   6.78071217
_cell_length_b   6.78071217
_cell_length_c   6.78071217
_cell_angle_alpha   150.09139611
_cell_angle_beta   147.89366797
_cell_angle_gamma   44.44809888
_symmetry_Int_Tables_number   1
_chemical_formula_structural   LiCe2HO3
_chemical_formula_sum   'Li1 Ce2 H1 O3'
_cell_volume   82.37666876
_cell_formula_units_Z   1
loop_
 _symmetry_equiv_pos_site_id
 _symmetry_equiv_pos_as_xyz
  1  'x, y, z'
loop_
 _atom_site_type_symbol
 _atom_site_label
 _atom_site_symmetry_multiplicity
 _atom_site_fract_x
 _atom_site_fract_y
 _atom_site_fract_z
 _atom_site_occupancy
  Li  Li0  1  0.00000000  0.00000000  0.00000000  1
  Ce  Ce0  1  0.36178500  0.36178500  0.00000000  1
  Ce  Ce1  1  0.63821500  0.63821500  0.00000000  1
  H  H0  1  0.00000000  0.50000000  0.50000000  1
  O  O0  1  0.50000000  0.00000000  0.50000000  1
  O  O1  1  0.82306200  0.82306200  0.00000000  1
  O  O2  1  0.17693800  0.17693800  0.00000000  1
loop_
_geom_bond_atom_site_label_1
_geom_bond_atom_site_label_2
_geom_bond_distance
_geom_bond_site_symmetry_2
Li0 O0 1.875065 1_454
Li0 O0 1.875065 1_555
Li0 O1 2.221275 1_445
Li0 O2 2.221275 1_555
Ce0 O2 2.320564 1_555
Ce0 O0 2.464218 1_565
Ce0 O0 2.464218 1_554
Ce0 H0 2.554722 1_655
Ce0 H0 2.554722 1_554
Ce0 O1 2.610330 1_444
Ce0 O1 2.610330 1_455
Ce0 O1 2.610330 1_556
Ce0 O1 2.610330 1_545
Ce1 O1 2.320564 1_555
Ce1 O0 2.464218 1_565
Ce1 O0 2.464218 1_554
Ce1 H0 2.554722 1_554
Ce1 H0 2.554722 1_655
Ce1 O2 2.610330 1_565
Ce1 O2 2.610330 1_666
Ce1 O2 2.610330 1_554
Ce1 O2 2.610330 1_655
H0 Li0 1.749753 1_555
H0 Li0 1.749753 1_566
