# generated using pymatgen
data_MgTi2(SiO3)4
_symmetry_space_group_name_H-M   'P 1'
_cell_length_a   6.88375678
_cell_length_b   6.88375692
_cell_length_c   5.29976823
_cell_angle_alpha   75.95336070
_cell_angle_beta   104.04662541
_cell_angle_gamma   100.21030952
_symmetry_Int_Tables_number   1
_chemical_formula_structural   MgTi2(SiO3)4
_chemical_formula_sum   'Mg1 Ti2 Si4 O12'
_cell_volume   234.46485816
_cell_formula_units_Z   1
loop_
 _symmetry_equiv_pos_site_id
 _symmetry_equiv_pos_as_xyz
  1  'x, y, z'
loop_
 _atom_site_type_symbol
 _atom_site_label
 _atom_site_symmetry_multiplicity
 _atom_site_fract_x
 _atom_site_fract_y
 _atom_site_fract_z
 _atom_site_occupancy
  Mg  Mg0  1  0.58153300  0.58153300  0.25000000  1
  Ti  Ti0  1  0.11476800  0.11476800  0.75000000  1
  Ti  Ti1  1  0.91367700  0.91367700  0.25000000  1
  Si  Si0  1  0.18291700  0.63120100  0.74315000  1
  Si  Si1  1  0.36196000  0.82876800  0.25120100  1
  Si  Si2  1  0.63120100  0.18291700  0.75685000  1
  Si  Si3  1  0.82876800  0.36196000  0.24879900  1
  O  O0  1  0.03491400  0.81138400  0.64401000  1
  O  O1  1  0.19391700  0.98164400  0.14533800  1
  O  O2  1  0.10234400  0.39407600  0.77207200  1
  O  O3  1  0.34443500  0.68236900  0.54228300  1
  O  O4  1  0.60634200  0.87249400  0.27823600  1
  O  O5  1  0.31435200  0.65690500  0.04905700  1
  O  O6  1  0.68236900  0.34443500  0.95771700  1
  O  O7  1  0.39407600  0.10234400  0.72792800  1
  O  O8  1  0.65690500  0.31435200  0.45094300  1
  O  O9  1  0.87249400  0.60634200  0.22176400  1
  O  O10  1  0.81138400  0.03491400  0.85599000  1
  O  O11  1  0.98164400  0.19391700  0.35466200  1
loop_
_geom_bond_atom_site_label_1
_geom_bond_atom_site_label_2
_geom_bond_distance
_geom_bond_site_symmetry_2
Mg0 O8 1.976187 1_555
Mg0 O5 1.976188 1_555
Mg0 O9 2.018665 1_555
Mg0 O4 2.018665 1_555
O0 Si0 1.650542 1_555
O0 Ti1 2.049728 1_455
O0 Ti0 2.234229 1_565
O1 Si1 1.609434 1_555
O1 Ti0 2.053616 1_564
O1 Ti1 2.078818 1_455
O2 Si0 1.610718 1_555
O2 Ti0 1.972323 1_555
O3 Si1 1.643945 1_555
O3 Si0 1.657480 1_555
O4 Si1 1.632655 1_555
O4 Ti1 2.121100 1_555
O5 Si0 1.687831 1_554
O5 Si1 1.721080 1_555
O6 Si3 1.643945 1_556
O6 Si2 1.657480 1_555
O7 Si2 1.610718 1_555
O7 Ti0 1.972323 1_555
O8 Si2 1.687831 1_555
O8 Si3 1.721080 1_555
O9 Si3 1.632655 1_555
O9 Ti1 2.121100 1_555
O10 Si2 1.650542 1_555
O10 Ti1 2.049728 1_546
O10 Ti0 2.234229 1_655
O11 Si3 1.609434 1_555
O11 Ti0 2.053616 1_655
O11 Ti1 2.078818 1_545
