# generated using pymatgen
data_Er2Si3Pd
_symmetry_space_group_name_H-M   'P 1'
_cell_length_a   8.08382163
_cell_length_b   8.08381363
_cell_length_c   8.01072297
_cell_angle_alpha   90.00002263
_cell_angle_beta   90.00008409
_cell_angle_gamma   120.00018505
_symmetry_Int_Tables_number   1
_chemical_formula_structural   Er2Si3Pd
_chemical_formula_sum   'Er8 Si12 Pd4'
_cell_volume   453.35097037
_cell_formula_units_Z   4
loop_
 _symmetry_equiv_pos_site_id
 _symmetry_equiv_pos_as_xyz
  1  'x, y, z'
loop_
 _atom_site_type_symbol
 _atom_site_label
 _atom_site_symmetry_multiplicity
 _atom_site_fract_x
 _atom_site_fract_y
 _atom_site_fract_z
 _atom_site_occupancy
  Er  Er0  1  0.50019098  0.00047451  0.25003381  1
  Er  Er1  1  0.49974261  0.99956095  0.74996932  1
  Er  Er2  1  0.99950562  0.49979269  0.25003855  1
  Er  Er3  1  0.00042475  0.50024383  0.74996822  1
  Er  Er4  1  0.50019252  0.49979562  0.25003542  1
  Er  Er5  1  0.49973568  0.50023764  0.74996221  1
  Er  Er6  1  0.00010347  0.99994061  0.24989207  1
  Er  Er7  1  0.00012399  0.99995109  0.75010448  1
  Si  Si0  1  0.16578402  0.33159309  0.00003024  1
  Si  Si1  1  0.83418006  0.66839939  0.99996922  1
  Si  Si2  1  0.66842246  0.83422120  0.00002563  1
  Si  Si3  1  0.83419184  0.66842158  0.50003247  1
  Si  Si4  1  0.33159973  0.16581652  0.99997396  1
  Si  Si5  1  0.16577401  0.33156758  0.49996394  1
  Si  Si6  1  0.16579683  0.83419427  0.00003226  1
  Si  Si7  1  0.33157756  0.16580335  0.50002834  1
  Si  Si8  1  0.83420917  0.16578659  0.99997720  1
  Si  Si9  1  0.66843902  0.83422679  0.49996988  1
  Si  Si10  1  0.83421534  0.16577769  0.50002833  1
  Si  Si11  1  0.16578697  0.83420242  0.49996464  1
  Pd  Pd0  1  0.33332850  0.66667183  0.00077497  1
  Pd  Pd1  1  0.66667126  0.33332631  0.99917864  1
  Pd  Pd2  1  0.66666698  0.33332292  0.50081746  1
  Pd  Pd3  1  0.33333762  0.66667153  0.49922873  1
loop_
_geom_bond_atom_site_label_1
_geom_bond_atom_site_label_2
_geom_bond_distance
_geom_bond_site_symmetry_2
Er0 Pd3 3.073428 1_545
Er0 Pd0 3.073755 1_545
Er0 Pd2 3.076641 1_555
Er0 Pd1 3.077037 1_554
Er0 Si7 3.078366 1_555
Er0 Si4 3.078656 1_554
Er0 Si10 3.078797 1_555
Er0 Si8 3.079093 1_554
Er0 Si11 3.080468 1_545
Er0 Si6 3.080778 1_545
Er0 Si9 3.080986 1_545
Er0 Si2 3.081304 1_545
Er1 Pd2 3.072985 1_565
Er1 Pd1 3.073299 1_565
Er1 Pd3 3.076633 1_555
Er1 Pd0 3.076976 1_556
Er1 Si11 3.078481 1_555
Er1 Si6 3.078738 1_556
Er1 Si9 3.078862 1_555
Er1 Si2 3.079098 1_556
Er1 Si7 3.080540 1_565
Er1 Si4 3.080826 1_565
Er1 Si10 3.080889 1_565
Er1 Si8 3.081198 1_565
Er2 Pd3 3.073554 1_655
Er2 Pd0 3.073894 1_655
Er2 Pd2 3.076571 1_555
Er2 Pd1 3.076966 1_554
Er2 Si3 3.078365 1_555
Er2 Si1 3.078701 1_554
Er2 Si10 3.078726 1_555
Er2 Si8 3.079047 1_554
Er2 Si11 3.080467 1_655
Er2 Si6 3.080845 1_655
Er2 Si5 3.080917 1_655
Er2 Si0 3.081268 1_655
Er3 Pd2 3.072954 1_455
Er3 Pd1 3.073248 1_455
Er3 Pd3 3.076758 1_555
Er3 Pd0 3.077056 1_556
Er3 Si11 3.078494 1_555
Er3 Si6 3.078762 1_556
Er3 Si5 3.078860 1_555
Er3 Si0 3.079076 1_556
Er3 Si3 3.080531 1_455
Er3 Si1 3.080816 1_455
Er3 Si10 3.080841 1_455
Er3 Si8 3.081158 1_455
Er4 Pd3 3.073040 1_555
Er4 Pd0 3.073438 1_555
Er4 Pd2 3.077163 1_555
Er4 Pd1 3.077560 1_554
Er4 Si7 3.078618 1_555
Er4 Si3 3.078674 1_555
Er4 Si4 3.078900 1_554
Er4 Si1 3.078977 1_554
Er4 Si5 3.080535 1_555
Er4 Si9 3.080627 1_555
Er4 Si0 3.080875 1_555
Er4 Si2 3.080993 1_555
Er5 Pd2 3.073401 1_555
Er5 Pd1 3.073776 1_555
Er5 Pd3 3.076298 1_555
Er5 Pd0 3.076764 1_556
Er5 Si5 3.078482 1_555
Er5 Si9 3.078601 1_555
Er5 Si0 3.078798 1_556
Er5 Si2 3.078938 1_556
Er5 Si7 3.080639 1_555
Er5 Si3 3.080741 1_555
Er5 Si4 3.080978 1_555
Er5 Si1 3.081074 1_555
Er6 Si6 3.064348 1_555
Er6 Si4 3.064951 1_564
Er6 Si1 3.065207 1_454
Er6 Si11 3.065364 1_555
Er6 Si0 3.065482 1_565
Er6 Si2 3.065654 1_455
Er6 Si7 3.065969 1_565
Er6 Si8 3.066228 1_464
Er6 Si3 3.066232 1_455
Er6 Si5 3.066442 1_565
Er6 Si9 3.066678 1_455
Er6 Si10 3.067308 1_465
Er7 Si4 3.064582 1_565
Er7 Si6 3.064648 1_556
Er7 Si1 3.064963 1_455
Er7 Si7 3.065552 1_565
Er7 Si11 3.065665 1_555
Er7 Si0 3.065757 1_566
Er7 Si3 3.065926 1_455
Er7 Si2 3.066055 1_456
Er7 Si8 3.066062 1_465
Er7 Si5 3.066750 1_565
Er7 Si10 3.067045 1_465
Er7 Si9 3.067078 1_455
Si0 Si8 2.321283 1_454
Si0 Si4 2.321411 1_554
Si1 Si2 2.321321 1_556
Si1 Si6 2.321577 1_656
Si2 Si8 2.321215 1_564
Si3 Si9 2.321171 1_555
Si4 Si6 2.321613 1_546
Si5 Si7 2.321239 1_555
Si10 Si9 2.321113 1_545
Si10 Si5 2.321170 1_655
Si11 Si3 2.321425 1_455
Si11 Si7 2.321464 1_565
Pd0 Si6 2.345654 1_555
Pd0 Si0 2.345818 1_555
Pd0 Si2 2.345927 1_555
Pd1 Si4 2.345771 1_555
Pd1 Si1 2.345780 1_555
Pd1 Si8 2.345820 1_555
Pd2 Si7 2.345896 1_555
Pd2 Si10 2.345931 1_555
Pd2 Si3 2.345959 1_555
Pd3 Si11 2.345846 1_555
Pd3 Si9 2.345979 1_555
Pd3 Si5 2.345995 1_555
