# generated using pymatgen
data_Sr2MgZrCoO6
_symmetry_space_group_name_H-M   'P 1'
_cell_length_a   5.76681597
_cell_length_b   6.44425385
_cell_length_c   6.44425385
_cell_angle_alpha   102.00780232
_cell_angle_beta   116.57793760
_cell_angle_gamma   116.57793760
_symmetry_Int_Tables_number   1
_chemical_formula_structural   Sr2MgZrCoO6
_chemical_formula_sum   'Sr2 Mg1 Zr1 Co1 O6'
_cell_volume   164.71819871
_cell_formula_units_Z   1
loop_
 _symmetry_equiv_pos_site_id
 _symmetry_equiv_pos_as_xyz
  1  'x, y, z'
loop_
 _atom_site_type_symbol
 _atom_site_label
 _atom_site_symmetry_multiplicity
 _atom_site_fract_x
 _atom_site_fract_y
 _atom_site_fract_z
 _atom_site_occupancy
  Sr  Sr0  1  0.50000000  0.18119300  0.81880700  1
  Sr  Sr1  1  0.50000000  0.81880700  0.18119300  1
  Mg  Mg0  1  0.50000000  0.50000000  0.50000000  1
  Zr  Zr0  1  0.00000000  0.50000000  0.50000000  1
  Co  Co0  1  0.00000000  0.00000000  0.00000000  1
  O  O0  1  0.00502200  0.24558200  0.24558200  1
  O  O1  1  0.99497800  0.75441800  0.75441800  1
  O  O2  1  0.48621800  0.24557800  0.24557800  1
  O  O3  1  0.51378200  0.75442200  0.75442200  1
  O  O4  1  0.00000000  0.71493700  0.28506300  1
  O  O5  1  0.00000000  0.28506300  0.71493700  1
loop_
_geom_bond_atom_site_label_1
_geom_bond_atom_site_label_2
_geom_bond_distance
_geom_bond_site_symmetry_2
Mg0 O1 2.007485 1_555
Mg0 O0 2.007485 1_555
Mg0 O2 2.007712 1_555
Mg0 O3 2.007712 1_555
Co0 O0 1.971262 1_555
Co0 O1 1.971262 1_444
Co0 O2 1.971677 1_555
Co0 O3 1.971677 1_444
O0 Zr0 2.084102 1_555
O0 Sr1 2.737587 1_445
O0 Sr0 2.737587 1_454
O1 Zr0 2.084102 1_655
O1 Sr0 2.737587 1_665
O1 Sr1 2.737587 1_656
O2 Zr0 2.083899 1_655
O2 Sr1 2.737240 1_545
O2 Sr0 2.737240 1_554
O3 Zr0 2.083899 1_555
O3 Sr0 2.737240 1_565
O3 Sr1 2.737240 1_556
O4 Zr0 2.152982 1_555
O4 Sr0 2.871482 1_454
O4 Sr0 2.871482 1_565
O4 Sr1 3.065382 1_455
O4 Sr1 3.065382 1_555
O5 Zr0 2.152982 1_555
O5 Sr1 2.871482 1_556
O5 Sr1 2.871482 1_445
O5 Sr0 3.065382 1_455
O5 Sr0 3.065382 1_555
