# generated using pymatgen
data_MgMnCo5O12
_symmetry_space_group_name_H-M   'P 1'
_cell_length_a   4.89653392
_cell_length_b   4.89805005
_cell_length_c   9.91136620
_cell_angle_alpha   93.79118251
_cell_angle_beta   97.60143537
_cell_angle_gamma   60.01022842
_symmetry_Int_Tables_number   1
_chemical_formula_structural   MgMnCo5O12
_chemical_formula_sum   'Mg1 Mn1 Co5 O12'
_cell_volume   204.07393699
_cell_formula_units_Z   1
loop_
 _symmetry_equiv_pos_site_id
 _symmetry_equiv_pos_as_xyz
  1  'x, y, z'
loop_
 _atom_site_type_symbol
 _atom_site_label
 _atom_site_symmetry_multiplicity
 _atom_site_fract_x
 _atom_site_fract_y
 _atom_site_fract_z
 _atom_site_occupancy
  Mg  Mg0  1  0.08579024  1.00000000  0.25459662  1
  Mn  Mn0  1  0.00892742  0.00000000  0.98138291  1
  Co  Co0  1  0.15523933  0.66562437  0.50490786  1
  Co  Co1  1  0.68136317  0.66660462  0.00189026  1
  Co  Co2  1  0.34796980  0.33339538  0.00189026  1
  Co  Co3  1  0.82086470  0.33437563  0.50490786  1
  Co  Co4  1  0.48930668  1.00000000  0.50506271  1
  O  O0  1  0.04133906  0.68129061  0.10169002  1
  O  O1  1  0.34042548  0.64710425  0.90122082  1
  O  O2  1  0.12743435  0.32204803  0.40067093  1
  O  O3  1  0.44948238  0.67795197  0.40067093  1
  O  O4  1  0.51221965  0.33393162  0.59585421  1
  O  O5  1  0.17929761  0.00000000  0.59774583  1
  O  O6  1  0.84615127  0.66606838  0.59585421  1
  O  O7  1  0.72263067  0.31870939  0.10169002  1
  O  O8  1  0.36004915  0.00000000  0.10155685  1
  O  O9  1  0.98753073  0.35289575  0.90122082  1
  O  O10  1  0.63478809  0.00000000  0.90104130  1
  O  O11  1  0.80502322  1.00000000  0.40077557  1
loop_
_geom_bond_atom_site_label_1
_geom_bond_atom_site_label_2
_geom_bond_distance
_geom_bond_site_symmetry_2
Mg0 O11 2.125116 1_455
Mg0 O2 2.137136 1_565
Mg0 O3 2.137136 1_555
Mg0 O8 2.154790 1_565
Mg0 O7 2.172691 1_465
Mg0 O0 2.172692 1_555
Mn0 O10 1.898503 1_455
Mn0 O1 1.899601 1_545
Mn0 O9 1.899604 1_455
Mn0 O7 1.957632 1_456
Mn0 O0 1.957635 1_546
Mn0 O8 1.957763 1_556
Co0 O4 1.856139 1_555
Co0 O6 1.860234 1_455
Co0 O5 1.872917 1_565
Co0 O3 1.906789 1_555
Co0 O11 1.906795 1_455
Co0 O2 1.969724 1_555
Co1 O9 1.869279 1_554
Co1 O1 1.870222 1_554
Co1 O10 1.871097 1_564
Co1 O0 1.935601 1_655
Co1 O8 1.935780 1_565
Co1 O7 1.936154 1_555
Co2 O1 1.869273 1_554
Co2 O9 1.870226 1_454
Co2 O10 1.871093 1_554
Co2 O7 1.935596 1_555
Co2 O8 1.935785 1_555
Co2 O0 1.936160 1_555
Co3 O6 1.856137 1_555
Co3 O4 1.860238 1_555
Co3 O5 1.872914 1_655
Co3 O2 1.906785 1_655
Co3 O11 1.906796 1_545
Co3 O3 1.969726 1_555
Co4 O4 1.860023 1_565
Co4 O6 1.860023 1_555
Co4 O5 1.875367 1_565
Co4 O3 1.906585 1_555
Co4 O2 1.906585 1_565
Co4 O11 1.970023 1_555
