# generated using pymatgen
data_MgTi4Pb2O9F2
_symmetry_space_group_name_H-M   'P 1'
_cell_length_a   3.75899027
_cell_length_b   8.61113036
_cell_length_c   7.98888701
_cell_angle_alpha   88.15670281
_cell_angle_beta   76.39283241
_cell_angle_gamma   77.39294174
_symmetry_Int_Tables_number   1
_chemical_formula_structural   MgTi4Pb2O9F2
_chemical_formula_sum   'Mg1 Ti4 Pb2 O9 F2'
_cell_volume   245.22531923
_cell_formula_units_Z   1
loop_
 _symmetry_equiv_pos_site_id
 _symmetry_equiv_pos_as_xyz
  1  'x, y, z'
loop_
 _atom_site_type_symbol
 _atom_site_label
 _atom_site_symmetry_multiplicity
 _atom_site_fract_x
 _atom_site_fract_y
 _atom_site_fract_z
 _atom_site_occupancy
  Mg  Mg0  1  0.00000000  0.50000000  0.50000000  1
  Ti  Ti0  1  0.33750207  0.11744027  0.20755659  1
  Ti  Ti1  1  0.66249793  0.88255973  0.79244341  1
  Ti  Ti2  1  0.35529313  0.78094214  0.50847159  1
  Ti  Ti3  1  0.64470687  0.21905786  0.49152841  1
  Pb  Pb0  1  0.91237240  0.31395195  0.86130425  1
  Pb  Pb1  1  0.08762760  0.68604805  0.13869575  1
  O  O0  1  0.79858361  0.17078409  0.23204869  1
  O  O1  1  0.20141639  0.82921591  0.76795131  1
  O  O2  1  0.14592616  0.27041346  0.43773322  1
  O  O3  1  0.85407384  0.72958654  0.56226678  1
  O  O4  1  0.50000000  -0.00000000  0.00000000  1
  O  O5  1  0.52591599  0.59330210  0.35486592  1
  O  O6  1  0.47408401  0.40669790  0.64513408  1
  O  O7  1  0.35984868  0.93188329  0.34841835  1
  O  O8  1  0.64015132  0.06811671  0.65158165  1
  F  F0  1  0.28072682  0.37349724  0.06505011  1
  F  F1  1  0.71927318  0.62650276  0.93494989  1
loop_
_geom_bond_atom_site_label_1
_geom_bond_atom_site_label_2
_geom_bond_distance
_geom_bond_site_symmetry_2
Mg0 O2 1.979482 1_555
Mg0 O3 1.979482 1_455
Mg0 O5 2.335153 1_455
Mg0 O6 2.335153 1_555
Mg0 O5 2.335153 1_555
Mg0 O6 2.335153 1_455
O0 Ti0 1.940660 1_555
O0 Ti0 1.940664 1_655
O0 Ti3 2.047145 1_555
O1 Ti1 1.940660 1_555
O1 Ti1 1.940664 1_455
O1 Ti2 2.047145 1_555
O2 Ti3 1.974971 1_455
O2 Ti3 1.974975 1_555
O2 Ti0 2.180330 1_555
O3 Ti2 1.974971 1_655
O3 Ti2 1.974975 1_555
O3 Ti1 2.180330 1_555
O4 Ti0 1.872679 1_555
O4 Ti1 1.872679 1_544
O5 Ti2 1.957769 1_555
O5 Pb1 2.647674 1_655
O5 Pb1 2.647677 1_555
O6 Ti3 1.957769 1_555
O6 Pb0 2.647674 1_455
O6 Pb0 2.647677 1_555
O7 Ti2 1.793639 1_555
O7 Ti0 1.922699 1_565
O8 Ti3 1.793639 1_555
O8 Ti1 1.922699 1_545
F0 Ti0 2.439433 1_555
F0 Pb0 2.500729 1_454
F0 Pb0 2.500729 1_554
F0 Pb1 2.676728 1_555
F1 Ti1 2.439433 1_555
F1 Pb1 2.500729 1_656
F1 Pb1 2.500729 1_556
F1 Pb0 2.676728 1_555
