# generated using pymatgen
data_Na8Zn2Ga2Si3(SO8)3
_symmetry_space_group_name_H-M   'P 1'
_cell_length_a   9.18728699
_cell_length_b   9.08099122
_cell_length_c   22.11093946
_cell_angle_alpha   92.96452290
_cell_angle_beta   89.11210748
_cell_angle_gamma   120.61172143
_symmetry_Int_Tables_number   1
_chemical_formula_structural   Na8Zn2Ga2Si3(SO8)3
_chemical_formula_sum   'Na24 Zn6 Ga6 Si9 S9 O72'
_cell_volume   1585.37520654
_cell_formula_units_Z   3
loop_
 _symmetry_equiv_pos_site_id
 _symmetry_equiv_pos_as_xyz
  1  'x, y, z'
loop_
 _atom_site_type_symbol
 _atom_site_label
 _atom_site_symmetry_multiplicity
 _atom_site_fract_x
 _atom_site_fract_y
 _atom_site_fract_z
 _atom_site_occupancy
  Na  Na0  1  0.63844775  0.01609179  0.25916560  1
  Na  Na1  1  0.35906457  0.35261915  0.25386816  1
  Na  Na2  1  0.00085114  0.62926111  0.24391230  1
  Na  Na3  1  0.63118777  0.63020522  0.73614273  1
  Na  Na4  1  0.99165051  0.35460558  0.73938145  1
  Na  Na5  1  0.38180513  0.02177866  0.74978187  1
  Na  Na6  1  0.30454354  0.34663411  0.59091204  1
  Na  Na7  1  0.02626752  0.68681092  0.58626411  1
  Na  Na8  1  0.66743841  0.95999279  0.57976306  1
  Na  Na9  1  0.28825436  0.95361517  0.08352236  1
  Na  Na10  1  0.67086503  0.69697160  0.08072994  1
  Na  Na11  1  0.03248248  0.34210987  0.09184351  1
  Na  Na12  1  0.97853937  0.68334916  0.91593744  1
  Na  Na13  1  0.69179249  0.02727023  0.90392524  1
  Na  Na14  1  0.32645055  0.28625282  0.90745846  1
  Na  Na15  1  0.95634778  0.28476096  0.41719565  1
  Na  Na16  1  0.33571410  0.03361020  0.41004262  1
  Na  Na17  1  0.69812522  0.67679909  0.42734533  1
  Na  Na18  1  0.98221752  0.99644820  0.50114111  1
  Na  Na19  1  0.00961640  0.99310913  0.99699881  1
  Na  Na20  1  0.65202435  0.32502617  0.82493345  1
  Na  Na21  1  0.66649456  0.31797263  0.33334545  1
  Na  Na22  1  0.31503883  0.66350237  0.16779166  1
  Na  Na23  1  0.34035641  0.65767773  0.66300177  1
  Zn  Zn0  1  0.00173894  0.01644417  0.34582483  1
  Zn  Zn1  1  0.01147859  0.01823827  0.83783287  1
  Zn  Zn2  1  0.67270198  0.33848396  0.68148812  1
  Zn  Zn3  1  0.68001591  0.32873887  0.18789179  1
  Zn  Zn4  1  0.31232174  0.67897112  0.01350835  1
  Zn  Zn5  1  0.35254152  0.66559320  0.52131776  1
  Ga  Ga0  1  0.97902559  0.01969535  0.64746473  1
  Ga  Ga1  1  0.01357238  0.98911430  0.15891166  1
  Ga  Ga2  1  0.66411764  0.33259439  0.98405301  1
  Ga  Ga3  1  0.67908473  0.32025400  0.49234589  1
  Ga  Ga4  1  0.32473759  0.68499434  0.31290291  1
  Ga  Ga5  1  0.35272712  0.68707945  0.80930800  1
  Si  Si0  1  0.29880094  0.00099698  0.25158473  1
  Si  Si1  1  0.00611194  0.29654874  0.25164320  1
  Si  Si2  1  0.29616039  0.29944470  0.75179984  1
  Si  Si3  1  0.70404288  -0.00008309  0.75240754  1
  Si  Si4  1  0.96924386  0.33778427  0.58404944  1
  Si  Si5  1  0.67563491  0.62693186  0.58498394  1
  Si  Si6  1  0.95373936  0.62720895  0.08554114  1
  Si  Si7  1  0.33597260  0.96767217  0.91977352  1
  Si  Si8  1  0.62548575  0.96158694  0.41877463  1
  S  S0  1  0.70266719  0.70706606  0.24925907  1
  S  S1  1  0.00564323  0.70735575  0.75279752  1
  S  S2  1  0.36807344  0.03966417  0.58254234  1
  S  S3  1  0.66791630  0.03555849  0.08094016  1
  S  S4  1  0.37141726  0.33359100  0.08252311  1
  S  S5  1  0.62232705  0.66006831  0.91933999  1
  S  S6  1  0.03467743  0.37089984  0.91912004  1
  S  S7  1  0.33551891  0.37268823  0.41454554  1
  S  S8  1  0.03572375  0.66380566  0.41593417  1
  O  O0  1  0.20866716  0.02663833  0.31121623  1
  O  O1  1  0.80805400  0.78635741  0.30438205  1
  O  O2  1  0.96209155  0.18228939  0.30975670  1
  O  O3  1  0.22763947  0.18868980  0.81200545  1
  O  O4  1  0.98561442  0.78740809  0.81059292  1
  O  O5  1  0.80998192  0.01902226  0.81383604  1
  O  O6  1  0.78638698  0.95739376  0.69217329  1
  O  O7  1  0.16691964  0.20214760  0.69233896  1
  O  O8  1  0.03010427  0.81017294  0.70000662  1
  O  O9  1  0.78549925  0.81330301  0.19475500  1
  O  O10  1  0.03499772  0.19806767  0.18897786  1
  O  O11  1  0.17986547  0.95733366  0.18952156  1
  O  O12  1  0.88461453  0.36871298  0.64417632  1
  O  O13  1  0.47231398  0.11747242  0.63805834  1
  O  O14  1  0.63738743  0.50967972  0.64202599  1
  O  O15  1  0.86636864  0.51173475  0.14277695  1
  O  O16  1  0.63626401  0.11148875  0.13686468  1
  O  O17  1  0.47024188  0.35542987  0.13751690  1
  O  O18  1  0.45436789  0.30772340  0.02664487  1
  O  O19  1  0.82998463  0.53717162  0.02308906  1
  O  O20  1  0.68783347  0.14003653  0.02747324  1
  O  O21  1  0.45215219  0.14578657  0.52823833  1
  O  O22  1  0.69950761  0.52842753  0.52135080  1
  O  O23  1  0.84804638  0.29231160  0.52270871  1
  O  O24  1  0.53944887  0.67606113  0.97571943  1
  O  O25  1  0.13845118  0.44889776  0.97594700  1
  O  O26  1  0.30730034  0.86610981  0.98125035  1
  O  O27  1  0.54004330  0.84781251  0.47665811  1
  O  O28  1  0.31281176  0.45459126  0.47062346  1
  O  O29  1  0.13723159  0.68505366  0.46984577  1
  O  O30  1  0.11633361  0.63813734  0.35877308  1
  O  O31  1  0.50260885  0.87195175  0.35621378  1
  O  O32  1  0.35145112  0.47206237  0.36040393  1
  O  O33  1  0.11695292  0.47400969  0.86664402  1
  O  O34  1  0.37172943  0.86911608  0.86080514  1
  O  O35  1  0.51844367  0.63670031  0.86482998  1
  O  O36  1  0.01926647  0.81801713  0.41243236  1
  O  O37  1  0.81441407  0.98259852  0.41224788  1
  O  O38  1  0.18308979  0.19640240  0.41249313  1
  O  O39  1  0.00702555  0.19457470  0.91496224  1
  O  O40  1  0.17096028  0.98925568  0.91394816  1
  O  O41  1  0.79450541  0.81336751  0.91759630  1
  O  O42  1  0.98602510  0.16350443  0.58563755  1
  O  O43  1  0.20119015  0.02694627  0.58587650  1
  O  O44  1  0.85810742  0.81719730  0.58908418  1
  O  O45  1  0.96959456  0.82301804  0.09027820  1
  O  O46  1  0.82545561  0.02794662  0.08431084  1
  O  O47  1  0.19852682  0.17724774  0.08233636  1
  O  O48  1  0.68502825  0.16783978  0.74803143  1
  O  O49  1  0.48697360  0.33153002  0.74483744  1
  O  O50  1  0.85271399  0.53413250  0.74896053  1
  O  O51  1  0.67737726  0.53303764  0.24185116  1
  O  O52  1  0.84772554  0.32926121  0.24607302  1
  O  O53  1  0.48628527  0.17249660  0.24477348  1
  O  O54  1  0.63749782  0.50131609  0.91919899  1
  O  O55  1  0.86441662  0.35951767  0.92407787  1
  O  O56  1  0.51959300  0.16236656  0.92475431  1
  O  O57  1  0.63713325  0.15590980  0.42353961  1
  O  O58  1  0.49117500  0.36030709  0.41670650  1
  O  O59  1  0.86399486  0.50637697  0.41557032  1
  O  O60  1  0.35714845  0.48939049  0.07826436  1
  O  O61  1  0.14326372  0.64846089  0.08103750  1
  O  O62  1  0.52004551  0.85690199  0.07518823  1
  O  O63  1  0.34366869  0.86531257  0.57501426  1
  O  O64  1  0.51548971  0.65851763  0.58101475  1
  O  O65  1  0.15670809  0.50843676  0.57687712  1
  O  O66  1  0.31571683  0.82664873  0.25260685  1
  O  O67  1  0.53478595  0.69422013  0.25228387  1
  O  O68  1  0.18891285  0.48669273  0.25683212  1
  O  O69  1  0.29806495  0.48660610  0.76000117  1
  O  O70  1  0.16038166  0.68967833  0.75613319  1
  O  O71  1  0.51123007  0.82419694  0.75215333  1
loop_
_geom_bond_atom_site_label_1
_geom_bond_atom_site_label_2
_geom_bond_distance
_geom_bond_site_symmetry_2
Na0 O53 2.481032 1_555
Na0 O52 2.523378 1_555
Na0 O31 2.533621 1_545
Na0 O66 2.562146 1_545
Na0 O67 2.568474 1_545
Na0 O2 2.780002 1_555
Na0 O16 2.885343 1_555
Na1 O68 2.420181 1_555
Na1 O53 2.446999 1_555
Na1 O51 2.539384 1_555
Na1 O32 2.556980 1_555
Na1 O67 2.671996 1_555
Na1 O17 2.749764 1_555
Na1 O0 2.906599 1_555
Na1 O10 2.925944 1_555
Na2 O52 2.347626 1_455
Na2 O15 2.482334 1_455
Na2 O66 2.513721 1_555
Na2 O51 2.636832 1_455
Na2 O68 2.659821 1_555
Na2 O30 2.749067 1_555
Na2 O11 2.888972 1_555
Na3 O14 2.314300 1_555
Na3 O49 2.352662 1_555
Na3 O71 2.518720 1_555
Na3 O50 2.614459 1_555
Na3 O69 2.702218 1_555
Na3 O6 2.783430 1_555
Na4 O12 2.373841 1_555
Na4 O48 2.449438 1_555
Na4 O69 2.473094 1_655
Na4 O50 2.531254 1_555
Na4 O70 2.626067 1_655
Na4 O7 2.767878 1_655
Na4 O33 2.988730 1_655
Na5 O48 2.400057 1_555
Na5 O49 2.473512 1_555
Na5 O71 2.611584 1_545
Na5 O13 2.640360 1_555
Na5 O70 2.653289 1_545
Na5 O3 2.847221 1_555
Na5 O34 2.858484 1_545
Na5 O8 2.985345 1_545
Na6 O65 2.488498 1_555
Na6 O64 2.507216 1_555
Na6 O42 2.525243 1_455
Na6 O43 2.550362 1_555
Na6 O7 2.622329 1_555
Na6 O14 2.853666 1_555
Na6 O28 2.868526 1_555
Na7 O44 2.375925 1_455
Na7 O65 2.457134 1_555
Na7 O63 2.529436 1_555
Na7 O43 2.658978 1_565
Na7 O8 2.693011 1_555
Na7 O29 2.756198 1_555
Na7 O12 2.860059 1_455
Na7 O22 2.943398 1_455
Na8 O64 2.357734 1_555
Na8 O27 2.496612 1_555
Na8 O42 2.545054 1_565
Na8 O63 2.644616 1_555
Na8 O44 2.672967 1_555
Na8 O6 2.736605 1_555
Na8 O23 2.946341 1_565
Na8 O13 3.044470 1_565
Na9 O61 2.384032 1_555
Na9 O26 2.391476 1_554
Na9 O11 2.537639 1_555
Na9 O45 2.543324 1_455
Na9 O47 2.552559 1_565
Na9 O62 2.686267 1_555
Na10 O45 2.383423 1_555
Na10 O62 2.473329 1_555
Na10 O60 2.514848 1_555
Na10 O46 2.586193 1_565
Na10 O24 2.587023 1_554
Na10 O9 2.693574 1_555
Na10 O19 2.789030 1_555
Na11 O61 2.451512 1_555
Na11 O46 2.493766 1_455
Na11 O10 2.578212 1_555
Na11 O60 2.593628 1_555
Na11 O47 2.626047 1_555
Na11 O25 2.770064 1_554
Na11 O15 2.851585 1_455
Na12 O40 2.419267 1_655
Na12 O41 2.506150 1_555
Na12 O4 2.546188 1_555
Na12 O55 2.586170 1_555
Na12 O54 2.699155 1_555
Na12 O19 2.760074 1_556
Na12 O33 2.936590 1_655
Na12 O26 2.957180 1_655
Na13 O5 2.270003 1_555
Na13 O56 2.472986 1_555
Na13 O39 2.501554 1_655
Na13 O41 2.586759 1_545
Na13 O55 2.612758 1_555
Na13 O34 2.694909 1_545
Na13 O20 2.873672 1_556
Na14 O3 2.260609 1_555
Na14 O40 2.333477 1_545
Na14 O54 2.516851 1_555
Na14 O56 2.580543 1_555
Na14 O39 2.616061 1_555
Na14 O18 2.858942 1_556
Na14 O35 2.944366 1_555
Na15 O37 2.360272 1_545
Na15 O2 2.515856 1_555
Na15 O23 2.533489 1_555
Na15 O57 2.549319 1_555
Na15 O59 2.553189 1_555
Na15 O38 2.584777 1_655
Na16 O57 2.418725 1_555
Na16 O0 2.476032 1_555
Na16 O38 2.500999 1_555
Na16 O36 2.548969 1_545
Na16 O58 2.551286 1_555
Na16 O21 2.777315 1_555
Na16 O31 2.824508 1_545
Na17 O37 2.455133 1_555
Na17 O58 2.511823 1_555
Na17 O22 2.538470 1_555
Na17 O36 2.572637 1_655
Na17 O59 2.670765 1_555
Na17 O27 2.789748 1_555
Na17 O1 2.928010 1_555
Na18 O42 2.334088 1_565
Na18 O44 2.469676 1_555
Na18 O37 2.475206 1_555
Na18 O36 2.607838 1_655
Na18 O43 2.670188 1_665
Na18 O38 2.718099 1_665
Na19 O40 2.352104 1_555
Na19 O41 2.485587 1_455
Na19 O47 2.487606 1_566
Na19 O45 2.549993 1_456
Na19 O39 2.650823 1_565
Na19 O46 2.659039 1_466
Na20 O48 2.279139 1_555
Na20 O49 2.371614 1_555
Na20 O50 2.548616 1_555
Na20 O54 2.605531 1_555
Na20 O56 2.637669 1_555
Na20 O55 2.854899 1_555
Na21 O53 2.434557 1_555
Na21 O57 2.469490 1_555
Na21 O59 2.478667 1_555
Na21 O52 2.500701 1_555
Na21 O58 2.569994 1_555
Na21 O51 2.849629 1_555
Na22 O66 2.327115 1_555
Na22 O61 2.456815 1_555
Na22 O68 2.481571 1_555
Na22 O60 2.616031 1_555
Na22 O67 2.670826 1_555
Na22 O62 2.776316 1_555
Na23 O64 2.402863 1_555
Na23 O65 2.411153 1_555
Na23 O71 2.450871 1_555
Na23 O69 2.620753 1_555
Na23 O70 2.716758 1_555
Na23 O63 2.767711 1_555
Ga0 O6 1.847557 1_545
Ga0 O42 1.916987 1_555
Ga0 O7 1.918261 1_655
Ga0 O44 2.000082 1_545
Ga0 O43 2.410616 1_655
Ga0 O8 2.518910 1_645
Ga1 O11 1.837602 1_555
Ga1 O10 1.890609 1_565
Ga1 O45 1.975557 1_455
Ga1 O9 2.059132 1_455
Ga1 O47 2.434419 1_565
Ga2 O19 1.873546 1_556
Ga2 O56 1.904121 1_555
Ga2 O18 2.043001 1_556
Ga2 O20 2.143595 1_556
Ga2 O55 2.168960 1_555
Ga2 O54 2.254635 1_555
Ga3 O23 1.837334 1_555
Ga3 O22 1.880767 1_555
Ga3 O57 1.971780 1_555
Ga3 O21 2.049741 1_555
Ga3 O59 2.430563 1_555
Ga4 O31 1.877422 1_555
Ga4 O66 1.930910 1_555
Ga4 O68 1.966081 1_555
Ga4 O30 2.007587 1_555
Ga4 O67 2.300949 1_555
Ga4 O32 2.367203 1_555
Ga5 O71 1.878061 1_555
Ga5 O34 1.891351 1_555
Ga5 O69 1.906716 1_555
Ga5 O70 2.148355 1_555
Ga5 O35 2.204485 1_555
Ga5 O33 2.437873 1_555
O0 Si0 1.615298 1_555
O0 Zn0 1.997840 1_555
O1 S0 1.475541 1_555
O1 Zn0 2.106586 1_665
O2 Si1 1.608000 1_655
O2 Zn0 1.931001 1_655
O3 Si2 1.627161 1_555
O3 Zn1 1.895150 1_555
O4 S1 1.492727 1_655
O4 Zn1 2.044435 1_665
O5 Si3 1.633046 1_555
O5 Zn1 1.937215 1_655
O6 Si3 1.645696 1_565
O7 Si2 1.666982 1_555
O8 S1 1.475011 1_555
O9 S0 1.518660 1_555
O10 Si1 1.700650 1_555
O11 Si0 1.668317 1_565
O12 Si4 1.613265 1_555
O12 Zn2 1.993929 1_555
O13 S2 1.476742 1_555
O13 Zn2 2.105217 1_555
O14 Si5 1.609996 1_555
O14 Zn2 1.986513 1_555
O15 Si6 1.610607 1_555
O15 Zn3 1.977064 1_555
O16 S3 1.481188 1_555
O16 Zn3 2.074332 1_555
O17 S4 1.472457 1_555
O17 Zn3 2.363024 1_555
O18 S4 1.511817 1_555
O19 Si6 1.689127 1_555
O20 S3 1.504575 1_555
O21 S2 1.516547 1_555
O22 Si5 1.699395 1_555
O23 Si4 1.664482 1_555
O24 S5 1.489750 1_555
O24 Zn4 2.247870 1_556
O25 S6 1.498924 1_555
O25 Zn4 2.017242 1_556
O26 Si7 1.624462 1_555
O26 Zn4 1.898704 1_556
O27 Si8 1.612874 1_555
O27 Zn5 1.973307 1_555
O28 S7 1.479445 1_555
O28 Zn5 2.034539 1_555
O29 S8 1.468091 1_555
O29 Zn5 2.384537 1_555
O30 S8 1.522016 1_555
O31 Si8 1.687168 1_555
O32 S7 1.496885 1_555
O33 S6 1.469272 1_555
O34 Si7 1.665650 1_555
O35 S5 1.487120 1_555
O36 S8 1.489018 1_555
O36 Zn0 2.453404 1_565
O37 Si8 1.651609 1_555
O37 Zn0 2.154760 1_665
O38 S7 1.495730 1_555
O38 Zn0 2.161831 1_555
O39 S6 1.485959 1_555
O39 Zn1 2.292674 1_555
O40 Si7 1.632357 1_555
O40 Zn1 2.358706 1_565
O41 S5 1.484138 1_555
O42 Si4 1.668576 1_555
O43 S2 1.478692 1_555
O44 Si5 1.685971 1_555
O45 Si6 1.706280 1_555
O46 S3 1.486925 1_555
O47 S4 1.497199 1_555
O48 Si3 1.628590 1_555
O48 Zn2 2.235774 1_555
O49 Si2 1.630299 1_555
O49 Zn2 2.168621 1_555
O50 S1 1.481454 1_655
O50 Zn2 2.219740 1_555
O51 S0 1.476065 1_555
O51 Zn3 2.163773 1_555
O52 Si1 1.634143 1_655
O52 Zn3 2.020486 1_555
O53 Si0 1.642942 1_555
O53 Zn3 2.075124 1_555
O54 S5 1.517196 1_555
O55 S6 1.516815 1_655
O56 Si7 1.712288 1_545
O57 Si8 1.710358 1_545
O58 S7 1.492116 1_555
O59 S8 1.495042 1_655
O60 S4 1.493587 1_555
O60 Zn4 2.485732 1_555
O61 Si6 1.653292 1_455
O61 Zn4 2.061855 1_555
O62 S3 1.494397 1_565
O62 Zn4 2.196604 1_555
O63 S2 1.482272 1_565
O63 Zn5 2.151847 1_555
O64 Si5 1.640456 1_555
O64 Zn5 2.038518 1_555
O65 Si4 1.640643 1_455
O65 Zn5 2.068993 1_555
O66 Si0 1.669060 1_565
O67 S0 1.487066 1_555
O68 Si1 1.687397 1_555
O69 Si2 1.691094 1_555
O70 S1 1.512985 1_555
O71 Si3 1.674773 1_565
