# generated using pymatgen
data_MgCr4O10
_symmetry_space_group_name_H-M   'P 1'
_cell_length_a   3.70479465
_cell_length_b   4.76682457
_cell_length_c   10.93996303
_cell_angle_alpha   90.00655130
_cell_angle_beta   89.99409189
_cell_angle_gamma   90.21703931
_symmetry_Int_Tables_number   1
_chemical_formula_structural   MgCr4O10
_chemical_formula_sum   'Mg1 Cr4 O10'
_cell_volume   193.19951968
_cell_formula_units_Z   1
loop_
 _symmetry_equiv_pos_site_id
 _symmetry_equiv_pos_as_xyz
  1  'x, y, z'
loop_
 _atom_site_type_symbol
 _atom_site_label
 _atom_site_symmetry_multiplicity
 _atom_site_fract_x
 _atom_site_fract_y
 _atom_site_fract_z
 _atom_site_occupancy
  Mg  Mg0  1  0.01320000  0.65651200  0.49997000  1
  Cr  Cr0  1  0.01849000  0.89014600  0.15364900  1
  Cr  Cr1  1  0.51836500  0.10042300  0.34571400  1
  Cr  Cr2  1  0.51833100  0.10048000  0.65430000  1
  Cr  Cr3  1  0.01850200  0.89017000  0.84629800  1
  O  O0  1  0.51885100  0.99332300  0.17836300  1
  O  O1  1  0.01820400  0.99821800  0.32491600  1
  O  O2  1  0.01828900  0.99838600  0.67512400  1
  O  O3  1  0.51882400  0.99344000  0.82167400  1
  O  O4  1  0.01792800  0.55825600  0.84924200  1
  O  O5  1  0.52286800  0.45116600  0.61974900  1
  O  O6  1  0.52242600  0.45110500  0.38027100  1
  O  O7  1  0.51683900  0.91980400  0.50002100  1
  O  O8  1  0.01882000  0.02772500  0.00001800  1
  O  O9  1  0.01791000  0.55834700  0.15069100  1
loop_
_geom_bond_atom_site_label_1
_geom_bond_atom_site_label_2
_geom_bond_distance
_geom_bond_site_symmetry_2
Mg0 O7 2.230311 1_455
Mg0 O7 2.244762 1_555
Mg0 O5 2.441624 1_455
Mg0 O6 2.442567 1_455
Mg0 O6 2.499176 1_555
Mg0 O5 2.501079 1_555
Mg0 O1 2.514265 1_555
Mg0 O2 2.515338 1_555
Cr0 O9 1.581948 1_555
Cr0 O8 1.804204 1_565
Cr0 O0 1.935069 1_555
Cr0 O0 1.936022 1_455
Cr0 O1 1.943130 1_555
Cr1 O6 1.713825 1_555
Cr1 O7 1.895082 1_545
Cr1 O0 1.900608 1_545
Cr1 O1 1.927676 1_545
Cr1 O1 1.930030 1_645
Cr2 O5 1.713922 1_555
Cr2 O7 1.894758 1_545
Cr2 O3 1.900887 1_545
Cr2 O2 1.927123 1_545
Cr2 O2 1.930410 1_645
Cr3 O4 1.582501 1_555
Cr3 O8 1.804930 1_566
Cr3 O3 1.934867 1_555
Cr3 O3 1.936206 1_455
Cr3 O2 1.942445 1_555
