# generated using pymatgen
data_MgAg2(BrO2)2
_symmetry_space_group_name_H-M   'P 1'
_cell_length_a   3.78170200
_cell_length_b   4.36305216
_cell_length_c   10.51834907
_cell_angle_alpha   80.55418476
_cell_angle_beta   90.00000000
_cell_angle_gamma   90.00000000
_symmetry_Int_Tables_number   1
_chemical_formula_structural   MgAg2(BrO2)2
_chemical_formula_sum   'Mg1 Ag2 Br2 O4'
_cell_volume   171.19714218
_cell_formula_units_Z   1
loop_
 _symmetry_equiv_pos_site_id
 _symmetry_equiv_pos_as_xyz
  1  'x, y, z'
loop_
 _atom_site_type_symbol
 _atom_site_label
 _atom_site_symmetry_multiplicity
 _atom_site_fract_x
 _atom_site_fract_y
 _atom_site_fract_z
 _atom_site_occupancy
  Mg  Mg0  1  0.75000000  0.90863800  0.40724900  1
  Ag  Ag0  1  0.25000000  0.21852600  0.11939900  1
  Ag  Ag1  1  0.75000000  0.86076100  0.85962200  1
  Br  Br0  1  0.25000000  0.36192400  0.85351900  1
  Br  Br1  1  0.75000000  0.70777000  0.14569200  1
  O  O0  1  0.25000000  0.75326500  0.41702600  1
  O  O1  1  0.75000000  0.95810600  0.61166300  1
  O  O2  1  0.25000000  0.08451000  0.35380200  1
  O  O3  1  0.75000000  0.24025100  0.54750300  1
loop_
_geom_bond_atom_site_label_1
_geom_bond_atom_site_label_2
_geom_bond_distance
_geom_bond_site_symmetry_2
Mg0 O0 2.005632 1_655
Mg0 O0 2.005632 1_555
Mg0 O2 2.082925 1_565
Mg0 O2 2.082925 1_665
Mg0 O1 2.195865 1_555
Mg0 O3 2.229413 1_565
Ag0 O2 2.438761 1_555
Ag0 Br0 2.763731 1_554
Ag0 Br1 2.898633 1_555
Ag0 Br1 2.898633 1_455
Ag0 Br1 2.900953 1_545
Ag0 Br1 2.900953 1_445
Ag1 O1 2.572759 1_555
Ag1 Br0 2.883503 1_565
Ag1 Br0 2.883503 1_665
Ag1 Br0 2.891754 1_555
Ag1 Br0 2.891754 1_655
Ag1 Br1 2.973264 1_556
Br1 Mg0 3.021305 1_555
O0 O2 1.488454 1_565
O1 O3 1.303130 1_565
