# generated using pymatgen
data_Mn(PbO2)2
_symmetry_space_group_name_H-M   'P 1'
_cell_length_a   13.08537900
_cell_length_b   13.08537900
_cell_length_c   5.24550100
_cell_angle_alpha   90.00000000
_cell_angle_beta   90.00000000
_cell_angle_gamma   90.00000000
_symmetry_Int_Tables_number   1
_chemical_formula_structural   Mn(PbO2)2
_chemical_formula_sum   'Mn8 Pb16 O32'
_cell_volume   898.17215284
_cell_formula_units_Z   8
loop_
 _symmetry_equiv_pos_site_id
 _symmetry_equiv_pos_as_xyz
  1  'x, y, z'
loop_
 _atom_site_type_symbol
 _atom_site_label
 _atom_site_symmetry_multiplicity
 _atom_site_fract_x
 _atom_site_fract_y
 _atom_site_fract_z
 _atom_site_occupancy
  Mn  Mn0  1  0.77103600  0.19381000  0.76065000  1
  Mn  Mn1  1  0.22896400  0.80619000  0.76065000  1
  Mn  Mn2  1  0.19381000  0.22896400  0.23935000  1
  Mn  Mn3  1  0.80619000  0.77103600  0.23935000  1
  Mn  Mn4  1  0.69381000  0.27103600  0.26065000  1
  Mn  Mn5  1  0.72896400  0.69381000  0.73935000  1
  Mn  Mn6  1  0.27103600  0.30619000  0.73935000  1
  Mn  Mn7  1  0.30619000  0.72896400  0.26065000  1
  Pb  Pb0  1  0.82738500  0.49422900  0.29353500  1
  Pb  Pb1  1  0.17261500  0.50577100  0.29353500  1
  Pb  Pb2  1  0.49422900  0.17261500  0.70646500  1
  Pb  Pb3  1  0.50577100  0.82738500  0.70646500  1
  Pb  Pb4  1  0.99422900  0.32738500  0.79353500  1
  Pb  Pb5  1  0.67261500  0.99422900  0.20646500  1
  Pb  Pb6  1  0.32738500  0.00577100  0.20646500  1
  Pb  Pb7  1  0.00577100  0.67261500  0.79353500  1
  Pb  Pb8  1  0.62338200  0.42042800  0.74333800  1
  Pb  Pb9  1  0.37661800  0.57957200  0.74333800  1
  Pb  Pb10  1  0.42042800  0.37661800  0.25666200  1
  Pb  Pb11  1  0.57957200  0.62338200  0.25666200  1
  Pb  Pb12  1  0.92042800  0.12338200  0.24333800  1
  Pb  Pb13  1  0.87661800  0.92042800  0.75666200  1
  Pb  Pb14  1  0.12338200  0.07957200  0.75666200  1
  Pb  Pb15  1  0.07957200  0.87661800  0.24333800  1
  O  O0  1  0.05793700  0.22648700  0.09991900  1
  O  O1  1  0.94206300  0.77351300  0.09991900  1
  O  O2  1  0.22648700  0.94206300  0.90008100  1
  O  O3  1  0.77351300  0.05793700  0.90008100  1
  O  O4  1  0.72648700  0.55793700  0.59991900  1
  O  O5  1  0.44206300  0.72648700  0.40008100  1
  O  O6  1  0.55793700  0.27351300  0.40008100  1
  O  O7  1  0.27351300  0.44206300  0.59991900  1
  O  O8  1  0.25651300  0.17605200  0.92690400  1
  O  O9  1  0.74348700  0.82394800  0.92690400  1
  O  O10  1  0.17605200  0.74348700  0.07309600  1
  O  O11  1  0.82394800  0.25651300  0.07309600  1
  O  O12  1  0.67605200  0.75651300  0.42690400  1
  O  O13  1  0.24348700  0.67605200  0.57309600  1
  O  O14  1  0.75651300  0.32394800  0.57309600  1
  O  O15  1  0.32394800  0.24348700  0.42690400  1
  O  O16  1  0.64126700  0.22033900  0.93329900  1
  O  O17  1  0.35873300  0.77966100  0.93329900  1
  O  O18  1  0.22033900  0.35873300  0.06670100  1
  O  O19  1  0.77966100  0.64126700  0.06670100  1
  O  O20  1  0.72033900  0.14126700  0.43329900  1
  O  O21  1  0.85873300  0.72033900  0.56670100  1
  O  O22  1  0.14126700  0.27966100  0.56670100  1
  O  O23  1  0.27966100  0.85873300  0.43329900  1
  O  O24  1  0.31485500  0.58745600  0.15488700  1
  O  O25  1  0.41254400  0.31485500  0.84511300  1
  O  O26  1  0.58745600  0.68514500  0.84511300  1
  O  O27  1  0.68514500  0.41254400  0.15488700  1
  O  O28  1  0.81485500  0.91254400  0.34511300  1
  O  O29  1  0.18514500  0.08745600  0.34511300  1
  O  O30  1  0.08745600  0.81485500  0.65488700  1
  O  O31  1  0.91254400  0.18514500  0.65488700  1
loop_
_geom_bond_atom_site_label_1
_geom_bond_atom_site_label_2
_geom_bond_distance
_geom_bond_site_symmetry_2
Mn0 O3 1.922779 1_555
Mn0 O31 1.936331 1_555
Mn0 O16 1.955540 1_555
Mn0 O11 1.959260 1_556
Mn0 O20 1.965020 1_555
Mn0 O14 1.975827 1_555
Mn1 O2 1.922779 1_555
Mn1 O30 1.936331 1_555
Mn1 O17 1.955540 1_555
Mn1 O10 1.959260 1_556
Mn1 O23 1.965020 1_555
Mn1 O13 1.975827 1_555
Mn2 O0 1.922779 1_555
Mn2 O29 1.936331 1_555
Mn2 O18 1.955540 1_555
Mn2 O8 1.959260 1_554
Mn2 O22 1.965020 1_555
Mn2 O15 1.975827 1_555
Mn3 O1 1.922779 1_555
Mn3 O28 1.936331 1_555
Mn3 O19 1.955540 1_555
Mn3 O9 1.959260 1_554
Mn3 O21 1.965020 1_555
Mn3 O12 1.975827 1_555
Mn4 O6 1.922779 1_555
Mn4 O27 1.936331 1_555
Mn4 O20 1.955540 1_555
Mn4 O14 1.959260 1_555
Mn4 O16 1.965020 1_554
Mn4 O11 1.975827 1_555
Mn5 O4 1.922779 1_555
Mn5 O26 1.936331 1_555
Mn5 O21 1.955540 1_555
Mn5 O12 1.959260 1_555
Mn5 O19 1.965020 1_556
Mn5 O9 1.975827 1_555
Mn6 O7 1.922779 1_555
Mn6 O25 1.936331 1_555
Mn6 O22 1.955540 1_555
Mn6 O15 1.959260 1_555
Mn6 O18 1.965020 1_556
Mn6 O8 1.975827 1_555
Mn7 O5 1.922779 1_555
Mn7 O24 1.936331 1_555
Mn7 O23 1.955540 1_555
Mn7 O13 1.959260 1_555
Mn7 O17 1.965020 1_554
Mn7 O10 1.975827 1_555
O0 Pb4 2.240762 1_454
O0 Pb12 2.371477 1_455
O1 Pb7 2.240762 1_654
O1 Pb15 2.371477 1_655
O2 Pb6 2.240762 1_566
O2 Pb14 2.371477 1_565
O3 Pb5 2.240762 1_546
O3 Pb13 2.371477 1_545
O4 Pb0 2.240762 1_555
O4 Pb8 2.371477 1_555
O5 Pb3 2.240762 1_555
O5 Pb11 2.371477 1_555
O6 Pb2 2.240762 1_555
O6 Pb10 2.371477 1_555
O7 Pb1 2.240762 1_555
O7 Pb9 2.371477 1_555
O8 Pb14 2.329402 1_555
O9 Pb13 2.329402 1_555
O10 Pb15 2.329402 1_555
O11 Pb12 2.329402 1_555
O12 Pb11 2.329402 1_555
O13 Pb9 2.329402 1_555
O14 Pb8 2.329402 1_555
O15 Pb10 2.329402 1_555
O16 Pb2 2.346850 1_555
O17 Pb3 2.346850 1_555
O18 Pb1 2.346850 1_555
O19 Pb0 2.346850 1_555
O20 Pb5 2.346850 1_545
O21 Pb7 2.346850 1_655
O22 Pb4 2.346850 1_455
O23 Pb6 2.346850 1_565
O24 Pb1 2.266217 1_555
O24 Pb9 2.307412 1_554
O25 Pb2 2.266217 1_555
O25 Pb10 2.307412 1_556
O26 Pb3 2.266217 1_555
O26 Pb11 2.307412 1_556
O27 Pb0 2.266217 1_555
O27 Pb8 2.307412 1_554
O28 Pb5 2.266217 1_555
O28 Pb13 2.307412 1_555
O29 Pb6 2.266217 1_555
O29 Pb14 2.307412 1_555
O30 Pb7 2.266217 1_555
O30 Pb15 2.307412 1_555
O31 Pb4 2.266217 1_555
O31 Pb12 2.307412 1_555
