# generated using pymatgen
data_Na6HfMg3Si2(SO6)4
_symmetry_space_group_name_H-M   'P 1'
_cell_length_a   9.01664653
_cell_length_b   9.02147719
_cell_length_c   22.42224049
_cell_angle_alpha   89.68177118
_cell_angle_beta   90.22917308
_cell_angle_gamma   119.99681168
_symmetry_Int_Tables_number   1
_chemical_formula_structural   Na6HfMg3Si2(SO6)4
_chemical_formula_sum   'Na18 Hf3 Mg9 Si6 S12 O72'
_cell_volume   1579.57102534
_cell_formula_units_Z   3
loop_
 _symmetry_equiv_pos_site_id
 _symmetry_equiv_pos_as_xyz
  1  'x, y, z'
loop_
 _atom_site_type_symbol
 _atom_site_label
 _atom_site_symmetry_multiplicity
 _atom_site_fract_x
 _atom_site_fract_y
 _atom_site_fract_z
 _atom_site_occupancy
  Na  Na0  1  0.63115755  0.99467447  0.25816733  1
  Na  Na1  1  0.36880005  0.36468439  0.24317223  1
  Na  Na2  1  0.64358075  0.64933594  0.74004536  1
  Na  Na3  1  0.31467384  0.34488177  0.58892702  1
  Na  Na4  1  0.02147958  0.69959222  0.58413410  1
  Na  Na5  1  0.66778709  0.94895078  0.58573882  1
  Na  Na6  1  0.29791553  0.97542548  0.07737175  1
  Na  Na7  1  0.05044694  0.33724372  0.07679561  1
  Na  Na8  1  0.98682620  0.67245655  0.91431650  1
  Na  Na9  1  0.70811900  0.03716544  0.90402355  1
  Na  Na10  1  0.30955181  0.28615983  0.91821319  1
  Na  Na11  1  0.69576390  0.68440584  0.42058106  1
  Na  Na12  1  0.98230532  0.99534283  0.49652153  1
  Na  Na13  1  0.01428373  0.01324098  0.99700112  1
  Na  Na14  1  0.67187585  0.30612119  0.82492835  1
  Na  Na15  1  0.67403908  0.32102004  0.33370525  1
  Na  Na16  1  0.33695153  0.65627464  0.16258047  1
  Na  Na17  1  0.35098499  0.67620639  0.66747629  1
  Hf  Hf0  1  0.65667923  0.32532127  0.98177418  1
  Hf  Hf1  1  0.66760848  0.32960398  0.47972384  1
  Hf  Hf2  1  0.32846374  0.67741113  0.81429494  1
  Mg  Mg0  1  0.99642679  0.00368046  0.35226318  1
  Mg  Mg1  1  0.00170398  0.01484190  0.84949264  1
  Mg  Mg2  1  0.98128367  0.98804666  0.65281774  1
  Mg  Mg3  1  0.00513767  0.00167806  0.14839765  1
  Mg  Mg4  1  0.66311834  0.32627283  0.68700708  1
  Mg  Mg5  1  0.66612693  0.34411425  0.18205119  1
  Mg  Mg6  1  0.32919476  0.65660563  0.01677671  1
  Mg  Mg7  1  0.35183696  0.67253646  0.51445704  1
  Mg  Mg8  1  0.33330959  0.67945798  0.32053950  1
  Si  Si0  1  0.70562093  0.00595980  0.74965442  1
  Si  Si1  1  0.66646106  0.62811755  0.58560594  1
  Si  Si2  1  0.36719790  0.33889090  0.08803375  1
  Si  Si3  1  0.03909378  0.36987031  0.91949316  1
  Si  Si4  1  0.32646211  0.95694309  0.92099021  1
  Si  Si5  1  0.63360513  0.96308195  0.41460191  1
  S  S0  1  0.29019558  0.99572191  0.24996575  1
  S  S1  1  0.71019553  0.70603355  0.25035978  1
  S  S2  1  0.00034957  0.29508929  0.24932179  1
  S  S3  1  0.29437718  0.29232726  0.74938062  1
  S  S4  1  0.99852679  0.70781763  0.74957739  1
  S  S5  1  0.96321803  0.33716073  0.58407568  1
  S  S6  1  0.37178121  0.03972440  0.58444851  1
  S  S7  1  0.95807348  0.62803725  0.08558756  1
  S  S8  1  0.66688698  0.03756365  0.08686582  1
  S  S9  1  0.62615950  0.66774717  0.91735726  1
  S  S10  1  0.32811856  0.37021723  0.41568945  1
  S  S11  1  0.04416912  0.66848881  0.41720142  1
  O  O0  1  0.20622240  0.02358942  0.30185581  1
  O  O1  1  0.80898164  0.78563808  0.30530930  1
  O  O2  1  0.97244151  0.18313781  0.30158837  1
  O  O3  1  0.21427169  0.19061858  0.80357564  1
  O  O4  1  0.98059025  0.79040413  0.80357533  1
  O  O5  1  0.80737701  0.01403784  0.81064099  1
  O  O6  1  0.77922759  0.96139810  0.68977053  1
  O  O7  1  0.19318253  0.21278959  0.69451183  1
  O  O8  1  0.02864732  0.81274613  0.69487415  1
  O  O9  1  0.79342900  0.81752128  0.19795119  1
  O  O10  1  0.02703511  0.21738899  0.19461642  1
  O  O11  1  0.19252035  0.97811645  0.19456307  1
  O  O12  1  0.88152872  0.36330978  0.63612821  1
  O  O13  1  0.48431458  0.11709592  0.63590773  1
  O  O14  1  0.63782915  0.50425560  0.64221936  1
  O  O15  1  0.87439801  0.51237693  0.13628309  1
  O  O16  1  0.64404634  0.12303833  0.13936442  1
  O  O17  1  0.47794780  0.35395113  0.14677463  1
  O  O18  1  0.46482854  0.30874676  0.02842983  1
  O  O19  1  0.85730233  0.54733929  0.02932489  1
  O  O20  1  0.69779693  0.15133070  0.03198703  1
  O  O21  1  0.45660264  0.14886103  0.52973580  1
  O  O22  1  0.69133892  0.53118494  0.52514175  1
  O  O23  1  0.84823457  0.30245571  0.53005507  1
  O  O24  1  0.54575052  0.69661521  0.96955577  1
  O  O25  1  0.15283630  0.45117293  0.97841184  1
  O  O26  1  0.30522547  0.84876808  0.98087652  1
  O  O27  1  0.54749003  0.84920220  0.47440257  1
  O  O28  1  0.30417109  0.44725213  0.47027311  1
  O  O29  1  0.13831301  0.68365215  0.47291390  1
  O  O30  1  0.12009919  0.63645464  0.36474216  1
  O  O31  1  0.52260712  0.88447787  0.35376780  1
  O  O32  1  0.35952566  0.47969197  0.36211803  1
  O  O33  1  0.13223382  0.49756925  0.86182080  1
  O  O34  1  0.37202915  0.87131690  0.86369243  1
  O  O35  1  0.51706968  0.63125897  0.86278263  1
  O  O36  1  0.02133701  0.81937117  0.41041985  1
  O  O37  1  0.82258408  0.97775411  0.41060251  1
  O  O38  1  0.18506310  0.19621673  0.40888968  1
  O  O39  1  0.00936745  0.17799981  0.91291448  1
  O  O40  1  0.15905882  0.97584516  0.90977698  1
  O  O41  1  0.79930334  0.81250619  0.91026051  1
  O  O42  1  0.98837730  0.18710851  0.58811616  1
  O  O43  1  0.20422521  0.03324479  0.58929826  1
  O  O44  1  0.84346773  0.81700802  0.58523308  1
  O  O45  1  0.97235877  0.79784738  0.09099286  1
  O  O46  1  0.82284284  0.02388729  0.09101811  1
  O  O47  1  0.17775577  0.15913322  0.08749857  1
  O  O48  1  0.67945875  0.16987987  0.74369303  1
  O  O49  1  0.47071306  0.32106698  0.74564075  1
  O  O50  1  0.84291862  0.53866191  0.74439389  1
  O  O51  1  0.68953255  0.53140179  0.24575500  1
  O  O52  1  0.84199068  0.30904306  0.24319608  1
  O  O53  1  0.46857601  0.15121359  0.24658519  1
  O  O54  1  0.64110451  0.50887665  0.92412181  1
  O  O55  1  0.84932012  0.36137361  0.92399768  1
  O  O56  1  0.50230581  0.15212544  0.92285694  1
  O  O57  1  0.65376160  0.15825376  0.42233025  1
  O  O58  1  0.49412182  0.36306854  0.42206492  1
  O  O59  1  0.86241351  0.51298917  0.42173318  1
  O  O60  1  0.34454493  0.50599025  0.08173506  1
  O  O61  1  0.13223738  0.64989031  0.08098073  1
  O  O62  1  0.51059963  0.87205675  0.07888741  1
  O  O63  1  0.34257665  0.86380659  0.57651736  1
  O  O64  1  0.49132059  0.64282685  0.57991051  1
  O  O65  1  0.13101291  0.49490121  0.57425733  1
  O  O66  1  0.30993003  0.84150988  0.25471291  1
  O  O67  1  0.53199662  0.68328311  0.25383822  1
  O  O68  1  0.15743724  0.46604695  0.25660018  1
  O  O69  1  0.31218507  0.46827891  0.75444193  1
  O  O70  1  0.15351933  0.68557544  0.75383474  1
  O  O71  1  0.51197683  0.81767961  0.75517922  1
loop_
_geom_bond_atom_site_label_1
_geom_bond_atom_site_label_2
_geom_bond_distance
_geom_bond_site_symmetry_2
Na0 O31 2.358259 1_555
Na0 O67 2.488245 1_555
Na0 O53 2.504731 1_565
Na0 O66 2.510382 1_555
Na0 O52 2.524572 1_565
Na0 O2 2.840945 1_565
Na0 O16 2.878222 1_565
Na0 O9 2.982598 1_555
Na1 O17 2.400920 1_555
Na1 O53 2.500841 1_555
Na1 O67 2.501901 1_555
Na1 O51 2.505838 1_555
Na1 O68 2.511786 1_555
Na1 O32 2.883715 1_555
Na1 O10 2.888245 1_555
Na1 O0 2.968051 1_555
Na2 O71 2.374998 1_555
Na2 O50 2.455362 1_555
Na2 O14 2.547588 1_555
Na2 O49 2.568547 1_555
Na2 O69 2.611974 1_555
Na2 O6 2.687971 1_555
Na3 O64 2.349118 1_555
Na3 O43 2.469048 1_555
Na3 O42 2.548497 1_455
Na3 O7 2.628499 1_555
Na3 O65 2.629438 1_555
Na3 O14 2.790599 1_555
Na3 O28 2.828110 1_555
Na3 O21 2.971341 1_555
Na4 O44 2.323689 1_455
Na4 O65 2.502860 1_555
Na4 O63 2.513681 1_555
Na4 O43 2.613782 1_565
Na4 O8 2.678177 1_555
Na4 O29 2.743350 1_555
Na4 O12 2.880940 1_455
Na4 O22 2.896151 1_455
Na5 O64 2.405051 1_555
Na5 O44 2.410775 1_555
Na5 O6 2.516892 1_555
Na5 O42 2.600937 1_565
Na5 O63 2.641202 1_555
Na5 O27 2.691778 1_555
Na6 O47 2.402845 1_565
Na6 O26 2.468847 1_554
Na6 O62 2.517067 1_555
Na6 O61 2.544519 1_555
Na6 O45 2.564385 1_455
Na6 O11 2.802177 1_555
Na6 O18 2.821882 1_565
Na7 O60 2.307535 1_555
Na7 O47 2.407267 1_555
Na7 O25 2.411927 1_554
Na7 O61 2.535863 1_555
Na7 O46 2.549347 1_455
Na7 O10 2.817329 1_555
Na7 O20 2.931503 1_455
Na8 O40 2.379369 1_655
Na8 O55 2.444700 1_555
Na8 O41 2.568474 1_555
Na8 O4 2.707463 1_555
Na8 O54 2.710252 1_555
Na8 O33 2.773996 1_655
Na8 O19 2.821626 1_556
Na8 O26 2.902664 1_655
Na9 O5 2.331365 1_555
Na9 O39 2.362148 1_655
Na9 O41 2.542716 1_545
Na9 O56 2.575513 1_555
Na9 O55 2.581231 1_555
Na9 O34 2.774743 1_545
Na10 O39 2.377001 1_555
Na10 O40 2.433042 1_545
Na10 O56 2.567512 1_555
Na10 O54 2.642995 1_555
Na10 O3 2.711941 1_555
Na10 O18 2.793157 1_556
Na10 O25 2.859314 1_555
Na10 O35 2.981495 1_555
Na11 O37 2.308860 1_555
Na11 O58 2.537680 1_555
Na11 O36 2.565217 1_655
Na11 O59 2.640589 1_555
Na11 O22 2.705273 1_555
Na11 O27 2.733921 1_555
Na11 O1 2.760303 1_555
Na11 O32 2.952481 1_555
Na12 O37 2.358666 1_555
Na12 O44 2.466294 1_555
Na12 O36 2.639964 1_655
Na12 O42 2.675390 1_565
Na12 O38 2.676494 1_665
Na12 O43 2.781865 1_665
Na13 O39 2.408342 1_555
Na13 O47 2.467446 1_556
Na13 O40 2.472033 1_545
Na13 O41 2.705284 1_445
Na13 O45 2.754410 1_446
Na13 O46 2.762233 1_456
Na14 O48 2.223293 1_555
Na14 O49 2.585493 1_555
Na14 O50 2.604880 1_555
Na14 O55 2.632331 1_555
Na14 O56 2.637851 1_555
Na15 O57 2.416712 1_555
Na15 O52 2.571796 1_555
Na15 O53 2.600244 1_555
Na15 O59 2.617235 1_555
Na15 O51 2.684437 1_555
Na15 O58 2.711129 1_555
Na16 O60 2.291281 1_555
Na16 O61 2.574081 1_555
Na16 O62 2.588024 1_555
Na16 O67 2.624397 1_555
Na16 O68 2.686796 1_555
Na16 O66 2.751182 1_555
Na17 O71 2.399113 1_555
Na17 O64 2.440138 1_555
Na17 O69 2.598475 1_555
Na17 O70 2.665815 1_555
Na17 O63 2.668026 1_555
Na17 O65 2.781917 1_555
Hf0 O18 1.965508 1_556
Hf0 O56 1.989365 1_555
Hf0 O55 2.061447 1_555
Hf0 O20 2.104231 1_556
Hf0 O54 2.154116 1_555
Hf0 O19 2.192313 1_556
Hf1 O57 1.972082 1_555
Hf1 O22 2.004936 1_555
Hf1 O23 2.089768 1_555
Hf1 O21 2.104945 1_555
Hf1 O59 2.145169 1_555
Hf1 O58 2.158984 1_555
Hf2 O34 1.942201 1_555
Hf2 O71 2.000366 1_555
Hf2 O33 2.005980 1_555
Hf2 O70 2.104615 1_555
Hf2 O35 2.221611 1_555
Hf2 O69 2.265354 1_555
Mg0 O37 1.967036 1_545
Mg0 O2 2.070406 1_555
Mg0 O1 2.125743 1_545
Mg0 O0 2.136163 1_655
Mg0 O38 2.138988 1_655
Mg0 O36 2.205126 1_645
Mg1 O5 1.950440 1_455
Mg1 O39 2.028388 1_555
Mg1 O3 2.051043 1_555
Mg1 O40 2.107699 1_545
Mg1 O4 2.198197 1_445
Mg1 O41 2.276045 1_445
Mg2 O6 1.906680 1_555
Mg2 O8 2.056260 1_655
Mg2 O44 2.077300 1_555
Mg2 O7 2.183712 1_665
Mg2 O42 2.278320 1_565
Mg2 O43 2.330764 1_665
Mg3 O47 2.022279 1_555
Mg3 O11 2.077010 1_545
Mg3 O9 2.112812 1_445
Mg3 O10 2.129923 1_555
Mg3 O45 2.145995 1_445
Mg3 O46 2.169482 1_455
Mg4 O48 1.953018 1_555
Mg4 O14 1.996250 1_555
Mg4 O13 2.107187 1_555
Mg4 O12 2.155727 1_555
Mg4 O49 2.162506 1_555
Mg4 O50 2.204532 1_555
Mg5 O17 1.910893 1_555
Mg5 O15 2.007907 1_555
Mg5 O16 2.134512 1_555
Mg5 O51 2.146498 1_555
Mg5 O52 2.230170 1_555
Mg5 O53 2.277771 1_555
Mg6 O25 1.939934 1_554
Mg6 O26 2.014384 1_554
Mg6 O60 2.037473 1_555
Mg6 O24 2.090834 1_554
Mg6 O61 2.267559 1_555
Mg6 O62 2.285991 1_555
Mg7 O27 1.909010 1_555
Mg7 O64 2.031106 1_555
Mg7 O28 2.107699 1_555
Mg7 O29 2.182214 1_555
Mg7 O63 2.256653 1_555
Mg7 O65 2.266597 1_555
Mg8 O31 1.933350 1_555
Mg8 O30 2.023325 1_555
Mg8 O32 2.139727 1_555
Mg8 O66 2.154517 1_555
Mg8 O68 2.288338 1_555
Mg8 O67 2.325182 1_555
O0 S0 1.480147 1_545
O1 S1 1.479396 1_555
O2 S2 1.480498 1_655
O3 S3 1.473846 1_555
O4 S4 1.476230 1_555
O5 Si0 1.625196 1_555
O6 Si0 1.638575 1_565
O7 S3 1.485658 1_555
O8 S4 1.485600 1_455
O9 S1 1.481521 1_555
O10 S2 1.494793 1_555
O11 S0 1.482440 1_555
O12 S5 1.464259 1_555
O13 S6 1.462703 1_555
O14 Si1 1.620205 1_555
O15 S7 1.468535 1_555
O16 S8 1.481042 1_555
O17 Si2 1.614376 1_555
O18 Si2 1.699356 1_555
O19 S7 1.512174 1_555
O20 S8 1.532287 1_555
O21 S6 1.516726 1_555
O22 Si1 1.692573 1_555
O23 S5 1.519757 1_555
O24 S9 1.470478 1_555
O25 Si3 1.607118 1_555
O26 Si4 1.610207 1_555
O27 Si5 1.628400 1_555
O28 S10 1.479566 1_555
O29 S11 1.475494 1_555
O30 S11 1.464197 1_555
O31 Si5 1.629507 1_555
O32 S10 1.486050 1_555
O33 Si3 1.652097 1_555
O34 Si4 1.657917 1_555
O35 S9 1.498122 1_555
O36 S11 1.481880 1_555
O37 Si5 1.644566 1_555
O38 S10 1.458639 1_555
O39 Si3 1.621240 1_555
O40 Si4 1.620027 1_555
O41 S9 1.459159 1_555
O42 S5 1.482459 1_555
O43 S6 1.486834 1_555
O44 Si1 1.652776 1_555
O45 S7 1.477413 1_555
O46 S8 1.474311 1_555
O47 Si2 1.666728 1_555
O48 Si0 1.614536 1_555
O49 S3 1.480153 1_555
O50 S4 1.473304 1_555
O51 S1 1.495170 1_555
O52 S2 1.500493 1_655
O53 S0 1.517972 1_545
O54 S9 1.511919 1_555
O55 Si3 1.677547 1_655
O56 Si4 1.680738 1_545
O57 Si5 1.687134 1_545
O58 S10 1.536128 1_555
O59 S11 1.537853 1_655
O60 Si2 1.624640 1_555
O61 S7 1.485638 1_455
O62 S8 1.464337 1_565
O63 S6 1.484772 1_565
O64 Si1 1.653923 1_555
O65 S5 1.486251 1_455
O66 S0 1.491381 1_555
O67 S1 1.516890 1_555
O68 S2 1.492697 1_555
O69 S3 1.518330 1_555
O70 S4 1.510474 1_455
O71 Si0 1.727138 1_565
