# generated using pymatgen
data_Na2GeSe3
_symmetry_space_group_name_H-M   'P 1'
_cell_length_a   16.11269333
_cell_length_b   6.08321983
_cell_length_c   7.11280388
_cell_angle_alpha   65.99246958
_cell_angle_beta   90.00000000
_cell_angle_gamma   90.00000000
_symmetry_Int_Tables_number   1
_chemical_formula_structural   Na2GeSe3
_chemical_formula_sum   'Na8 Ge4 Se12'
_cell_volume   636.86477800
_cell_formula_units_Z   4
loop_
 _symmetry_equiv_pos_site_id
 _symmetry_equiv_pos_as_xyz
  1  'x, y, z'
loop_
 _atom_site_type_symbol
 _atom_site_label
 _atom_site_symmetry_multiplicity
 _atom_site_fract_x
 _atom_site_fract_y
 _atom_site_fract_z
 _atom_site_occupancy
  Na  Na0  1  0.33259092  0.46967265  0.56997749  1
  Na  Na1  1  0.83259092  0.03032735  0.43002251  1
  Na  Na2  1  0.66740908  0.53032735  0.43002251  1
  Na  Na3  1  0.16740908  0.96967265  0.56997749  1
  Na  Na4  1  0.97552302  0.33307508  0.78369374  1
  Na  Na5  1  0.52447698  0.83307508  0.78369374  1
  Na  Na6  1  0.47552302  0.16692492  0.21630626  1
  Na  Na7  1  0.02447698  0.66692492  0.21630626  1
  Ge  Ge0  1  0.66980961  0.15874141  0.02882137  1
  Ge  Ge1  1  0.16980961  0.34125859  0.97117863  1
  Ge  Ge2  1  0.33019039  0.84125859  0.97117863  1
  Ge  Ge3  1  0.83019039  0.65874141  0.02882137  1
  Se  Se0  1  0.14681103  0.44503955  0.62303219  1
  Se  Se1  1  0.64681103  0.05496045  0.37696781  1
  Se  Se2  1  0.85318897  0.55496045  0.37696781  1
  Se  Se3  1  0.35318897  0.94503955  0.62303219  1
  Se  Se4  1  0.80720141  0.31930490  0.94361517  1
  Se  Se5  1  0.30720141  0.18069510  0.05638483  1
  Se  Se6  1  0.19279859  0.68069510  0.05638483  1
  Se  Se7  1  0.69279859  0.81930490  0.94361517  1
  Se  Se8  1  0.06105921  0.16179492  0.19600078  1
  Se  Se9  1  0.56105921  0.33820508  0.80399922  1
  Se  Se10  1  0.93894079  0.83820508  0.80399922  1
  Se  Se11  1  0.43894079  0.66179492  0.19600078  1
loop_
_geom_bond_atom_site_label_1
_geom_bond_atom_site_label_2
_geom_bond_distance
_geom_bond_site_symmetry_2
Na0 Se11 2.974610 1_555
Na0 Se0 3.013200 1_555
Na0 Se3 3.075381 1_545
Na0 Se3 3.082663 1_555
Na0 Se5 3.205989 1_556
Na1 Se10 2.974610 1_545
Na1 Se1 3.013200 1_555
Na1 Se2 3.075381 1_555
Na1 Se2 3.082663 1_545
Na1 Se4 3.205989 1_554
Na2 Se9 2.974610 1_555
Na2 Se2 3.013200 1_555
Na2 Se1 3.075381 1_565
Na2 Se1 3.082663 1_555
Na2 Se7 3.205989 1_554
Na3 Se8 2.974610 1_565
Na3 Se3 3.013200 1_555
Na3 Se0 3.075381 1_555
Na3 Se0 3.082663 1_565
Na3 Se6 3.205989 1_556
Na4 Se4 2.928981 1_555
Na4 Se0 2.958641 1_655
Na4 Se10 3.012811 1_545
Na4 Se8 3.016486 1_656
Na4 Se10 3.189299 1_555
Na4 Se2 3.301371 1_555
Na5 Se7 2.928981 1_555
Na5 Se3 2.958641 1_555
Na5 Se9 3.012811 1_555
Na5 Se11 3.016486 1_556
Na5 Se9 3.189299 1_565
Na5 Se1 3.301371 1_565
Na6 Se5 2.928981 1_555
Na6 Se1 2.958641 1_555
Na6 Se11 3.012811 1_555
Na6 Se9 3.016486 1_554
Na6 Se11 3.189299 1_545
Na6 Se3 3.301371 1_545
Na7 Se6 2.928981 1_555
Na7 Se2 2.958641 1_455
Na7 Se8 3.012811 1_565
Na7 Se10 3.016486 1_454
Na7 Se8 3.189299 1_555
Na7 Se0 3.301371 1_555
Ge0 Se1 2.322892 1_555
Ge0 Se9 2.323547 1_554
Ge0 Se4 2.395901 1_554
Ge0 Se7 2.405511 1_544
Ge1 Se0 2.322892 1_555
Ge1 Se8 2.323547 1_556
Ge1 Se5 2.395901 1_556
Ge1 Se6 2.405511 1_556
Ge2 Se3 2.322892 1_555
Ge2 Se11 2.323547 1_556
Ge2 Se6 2.395901 1_556
Ge2 Se5 2.405511 1_566
Ge3 Se2 2.322892 1_555
Ge3 Se10 2.323547 1_554
Ge3 Se7 2.395901 1_554
Ge3 Se4 2.405511 1_554
