# generated using pymatgen
data_MgFe6(O2F)4
_symmetry_space_group_name_H-M   'P 1'
_cell_length_a   5.26850571
_cell_length_b   5.26834160
_cell_length_c   8.99927574
_cell_angle_alpha   88.65012611
_cell_angle_beta   91.33938081
_cell_angle_gamma   103.31885474
_symmetry_Int_Tables_number   1
_chemical_formula_structural   MgFe6(O2F)4
_chemical_formula_sum   'Mg1 Fe6 O8 F4'
_cell_volume   242.95919684
_cell_formula_units_Z   1
loop_
 _symmetry_equiv_pos_site_id
 _symmetry_equiv_pos_as_xyz
  1  'x, y, z'
loop_
 _atom_site_type_symbol
 _atom_site_label
 _atom_site_symmetry_multiplicity
 _atom_site_fract_x
 _atom_site_fract_y
 _atom_site_fract_z
 _atom_site_occupancy
  Mg  Mg0  1  0.30095068  0.69855288  0.01140652  1
  Fe  Fe0  1  0.96667589  0.03267852  0.01485606  1
  Fe  Fe1  1  0.00893655  0.99024222  0.33499513  1
  Fe  Fe2  1  0.01057090  0.98858668  0.64036762  1
  Fe  Fe3  1  0.58973279  0.40949204  0.16457988  1
  Fe  Fe4  1  0.56363829  0.43557290  0.81830260  1
  Fe  Fe5  1  0.41541728  0.58373165  0.51988245  1
  O  O0  1  0.14285659  0.85661295  0.16015914  1
  O  O1  1  0.18756240  0.81140791  0.49579925  1
  O  O2  1  0.30728720  0.32088049  0.99950624  1
  O  O3  1  0.29834070  0.31070592  0.67092024  1
  O  O4  1  0.67851991  0.69201354  0.99961710  1
  O  O5  1  0.68813964  0.70124526  0.67103516  1
  O  O6  1  0.81162908  0.18751165  0.16822333  1
  O  O7  1  0.85665655  0.14278822  0.48562155  1
  F  F0  1  0.14823782  0.85097229  0.84623089  1
  F  F1  1  0.32153885  0.32007994  0.32989814  1
  F  F2  1  0.67924581  0.67749811  0.33006465  1
  F  F3  1  0.80183906  0.19776186  0.83853305  1
loop_
_geom_bond_atom_site_label_1
_geom_bond_atom_site_label_2
_geom_bond_distance
_geom_bond_site_symmetry_2
Mg0 O0 1.898263 1_555
Mg0 O4 2.002767 1_554
Mg0 O2 2.003080 1_554
Fe0 O6 1.910589 1_555
Fe0 O0 1.927341 1_645
Fe0 O2 2.071489 1_654
Fe0 O4 2.071515 1_544
Fe1 O7 1.877828 1_465
Fe1 O0 1.949861 1_555
Fe1 O1 2.036687 1_555
Fe1 O6 2.182777 1_465
Fe2 O7 1.858573 1_465
Fe2 O1 1.987064 1_555
Fe2 O5 2.017646 1_455
Fe2 O3 2.017719 1_565
Fe3 O6 1.833509 1_555
Fe3 O4 2.060498 1_554
Fe3 O2 2.061160 1_554
Fe4 O5 1.917276 1_555
Fe4 O3 1.917380 1_555
Fe4 O2 2.128125 1_555
Fe4 O4 2.129546 1_555
Fe5 O1 1.888339 1_555
Fe5 O3 1.958378 1_555
Fe5 O5 1.958717 1_555
F0 Mg0 1.920214 1_556
F0 Fe2 2.144775 1_555
F0 Fe0 2.166204 1_466
F1 Fe3 2.047042 1_555
F1 Fe1 2.101266 1_545
F1 Fe5 2.202940 1_555
F2 Fe3 2.047752 1_555
F2 Fe1 2.101197 1_655
F2 Fe5 2.202041 1_555
F3 Fe4 1.969963 1_555
F3 Fe0 2.060830 1_556
F3 Fe2 2.519271 1_645
