# generated using pymatgen
data_Sc7CI12
_symmetry_space_group_name_H-M   'P 1'
_cell_length_a   9.28736561
_cell_length_b   9.31002328
_cell_length_c   9.29722787
_cell_angle_alpha   108.01783817
_cell_angle_beta   108.00457617
_cell_angle_gamma   107.69484247
_symmetry_Int_Tables_number   1
_chemical_formula_structural   Sc7CI12
_chemical_formula_sum   'Sc7 C1 I12'
_cell_volume   652.23416492
_cell_formula_units_Z   1
loop_
 _symmetry_equiv_pos_site_id
 _symmetry_equiv_pos_as_xyz
  1  'x, y, z'
loop_
 _atom_site_type_symbol
 _atom_site_label
 _atom_site_symmetry_multiplicity
 _atom_site_fract_x
 _atom_site_fract_y
 _atom_site_fract_z
 _atom_site_occupancy
  Sc  Sc0  1  0.09469123  0.03477991  0.27268819  1
  Sc  Sc1  1  0.27409709  0.09637413  0.03478534  1
  Sc  Sc2  1  0.03689224  0.27429144  0.09318941  1
  Sc  Sc3  1  0.73017659  0.91222986  0.97581900  1
  Sc  Sc4  1  0.97361846  0.72988757  0.91606068  1
  Sc  Sc5  1  0.91465682  0.97669604  0.73119702  1
  Sc  Sc6  1  0.47896636  0.47853292  0.47898891  1
  C  C0  1  0.99868099  0.99869738  0.99857595  1
  I  I0  1  0.77919835  0.92503695  0.30413473  1
  I  I1  1  0.38517404  0.46114639  0.14696452  1
  I  I2  1  0.46133185  0.14647533  0.38270013  1
  I  I3  1  0.14518277  0.38285805  0.45791506  1
  I  I4  1  0.30181348  0.77995061  0.92489546  1
  I  I5  1  0.92442639  0.30378671  0.77822394  1
  I  I6  1  0.61738486  0.54448769  0.84236105  1
  I  I7  1  0.84266389  0.61880587  0.54656798  1
  I  I8  1  0.54445461  0.84163520  0.61873899  1
  I  I9  1  0.70083100  0.22407587  0.07480100  1
  I  I10  1  0.07610080  0.70063395  0.22758693  1
  I  I11  1  0.22520718  0.07516513  0.69935569  1
loop_
_geom_bond_atom_site_label_1
_geom_bond_atom_site_label_2
_geom_bond_distance
_geom_bond_site_symmetry_2
C0 Sc5 2.284547 1_555
C0 Sc4 2.292082 1_555
C0 Sc3 2.293359 1_555
C0 Sc0 2.299179 1_666
C0 Sc2 2.310899 1_666
C0 Sc1 2.312439 1_666
I0 Sc3 2.901991 1_554
I0 Sc0 2.934169 1_665
I0 Sc5 3.597472 1_555
I1 Sc6 2.873479 1_555
I1 Sc1 2.949426 1_555
I1 Sc2 2.963211 1_555
I2 Sc6 2.876612 1_555
I2 Sc0 2.959540 1_555
I2 Sc1 2.966602 1_555
I3 Sc6 2.877435 1_555
I3 Sc2 2.947048 1_555
I3 Sc0 2.968463 1_555
I4 Sc4 2.910778 1_455
I4 Sc1 2.924056 1_566
I4 Sc3 3.614521 1_555
I5 Sc5 2.908027 1_545
I5 Sc2 2.919311 1_656
I5 Sc4 3.602712 1_555
I6 Sc3 2.957513 1_555
I6 Sc4 2.964839 1_555
I6 Sc6 2.999164 1_555
I7 Sc4 2.967244 1_555
I7 Sc5 2.982208 1_555
I7 Sc6 3.001438 1_555
I8 Sc5 2.971845 1_555
I8 Sc3 2.974844 1_555
I8 Sc6 3.005038 1_555
I9 Sc3 2.886779 1_544
I9 Sc2 2.953454 1_655
I9 Sc1 3.634510 1_555
I10 Sc4 2.882746 1_454
I10 Sc0 2.950448 1_565
I10 Sc2 3.636044 1_555
I11 Sc5 2.887046 1_445
I11 Sc1 2.942756 1_556
I11 Sc0 3.629626 1_555
