# generated using pymatgen
data_Na5ZrSc3(PO4)6
_symmetry_space_group_name_H-M   'P 1'
_cell_length_a   9.00636675
_cell_length_b   8.99487193
_cell_length_c   22.92342879
_cell_angle_alpha   89.92876374
_cell_angle_beta   89.99196245
_cell_angle_gamma   120.02030062
_symmetry_Int_Tables_number   1
_chemical_formula_structural   Na5ZrSc3(PO4)6
_chemical_formula_sum   'Na15 Zr3 Sc9 P18 O72'
_cell_volume   1607.92371734
_cell_formula_units_Z   3
loop_
 _symmetry_equiv_pos_site_id
 _symmetry_equiv_pos_as_xyz
  1  'x, y, z'
loop_
 _atom_site_type_symbol
 _atom_site_label
 _atom_site_symmetry_multiplicity
 _atom_site_fract_x
 _atom_site_fract_y
 _atom_site_fract_z
 _atom_site_occupancy
  Na  Na0  1  0.63517443  0.99909626  0.25225735  1
  Na  Na1  1  0.36383555  0.36485902  0.25265449  1
  Na  Na2  1  0.00075587  0.63640400  0.25237307  1
  Na  Na3  1  0.64060590  0.63465580  0.74877662  1
  Na  Na4  1  0.99658158  0.36017046  0.74893669  1
  Na  Na5  1  0.03210831  0.69971212  0.58215949  1
  Na  Na6  1  0.66532573  0.96698530  0.58197362  1
  Na  Na7  1  0.66559799  0.69910451  0.08224850  1
  Na  Na8  1  0.03243685  0.33209425  0.08231567  1
  Na  Na9  1  0.00804557  0.00877692  0.49616106  1
  Na  Na10  1  0.00782900  0.99922690  0.99544735  1
  Na  Na11  1  0.65834066  0.32448469  0.83303305  1
  Na  Na12  1  0.66664603  0.33343558  0.33711575  1
  Na  Na13  1  0.33272389  0.67452908  0.16560228  1
  Na  Na14  1  0.33325242  0.66579711  0.66328125  1
  Zr  Zr0  1  0.66552191  0.33296314  0.97856268  1
  Zr  Zr1  1  0.66463678  0.33287110  0.47878068  1
  Zr  Zr2  1  0.33378032  0.67333806  0.81682579  1
  Sc  Sc0  1  0.99961224  0.99942416  0.35529073  1
  Sc  Sc1  1  0.00163436  0.00087356  0.85330133  1
  Sc  Sc2  1  0.00841665  0.00711323  0.64906312  1
  Sc  Sc3  1  0.00647522  0.99930238  0.14940898  1
  Sc  Sc4  1  0.65854170  0.32661901  0.68328311  1
  Sc  Sc5  1  0.66528643  0.33143319  0.18237655  1
  Sc  Sc6  1  0.33292262  0.67285500  0.01555802  1
  Sc  Sc7  1  0.33264199  0.65924119  0.51487440  1
  Sc  Sc8  1  0.33319015  0.66669078  0.32093316  1
  P  P0  1  0.29213046  -0.00017200  0.25071964  1
  P  P1  1  0.70796072  0.70809701  0.24940968  1
  P  P2  1  0.00011111  0.29210731  0.24945536  1
  P  P3  1  0.29254803  0.29060882  0.75116403  1
  P  P4  1  0.99911288  0.70812725  0.74933691  1
  P  P5  1  0.71064416  0.00130261  0.74945065  1
  P  P6  1  0.95960513  0.33408277  0.58455030  1
  P  P7  1  0.37251479  0.03900128  0.58306120  1
  P  P8  1  0.66544453  0.62688840  0.58473961  1
  P  P9  1  0.96053210  0.62648340  0.08406089  1
  P  P10  1  0.66553439  0.03808167  0.08435723  1
  P  P11  1  0.37222439  0.33316104  0.08385056  1
  P  P12  1  0.62896641  0.67047937  0.91747066  1
  P  P13  1  0.04108778  0.37110321  0.91778224  1
  P  P14  1  0.32957540  0.96013474  0.91768667  1
  P  P15  1  0.62820690  0.95898063  0.41688511  1
  P  P16  1  0.33081883  0.37147299  0.41554458  1
  P  P17  1  0.04093997  0.66880002  0.41706719  1
  O  O0  1  0.20900063  0.03327504  0.30322371  1
  O  O1  1  0.82541427  0.79321966  0.30158705  1
  O  O2  1  0.96792804  0.17452642  0.30166590  1
  O  O3  1  0.20691070  0.18134217  0.80466589  1
  O  O4  1  0.96920245  0.79356961  0.80205636  1
  O  O5  1  0.82491244  0.03012894  0.80250833  1
  O  O6  1  0.78633362  0.96747581  0.69355369  1
  O  O7  1  0.17802631  0.21217949  0.69683260  1
  O  O8  1  0.02704149  0.81372178  0.69304751  1
  O  O9  1  0.78659538  0.81742416  0.19329772  1
  O  O10  1  0.03091034  0.21369888  0.19340274  1
  O  O11  1  0.17825096  0.96765128  0.19616829  1
  O  O12  1  0.87865406  0.36358886  0.64008219  1
  O  O13  1  0.48862477  0.12341943  0.63672437  1
  O  O14  1  0.64117171  0.51986294  0.64050108  1
  O  O15  1  0.87913910  0.51543841  0.13955594  1
  O  O16  1  0.64090708  0.12060297  0.14007757  1
  O  O17  1  0.48363401  0.36370729  0.13907737  1
  O  O18  1  0.46414943  0.30926731  0.03091100  1
  O  O19  1  0.84089377  0.53648726  0.03131064  1
  O  O20  1  0.69581708  0.15852530  0.03181459  1
  O  O21  1  0.46159485  0.15350359  0.52953821  1
  O  O22  1  0.69579318  0.53750613  0.53204454  1
  O  O23  1  0.84051962  0.30417426  0.53155299  1
  O  O24  1  0.54241140  0.69053018  0.97257940  1
  O  O25  1  0.14801561  0.45762801  0.97279714  1
  O  O26  1  0.30759626  0.84906591  0.97125372  1
  O  O27  1  0.54235749  0.85178199  0.47210154  1
  O  O28  1  0.30861633  0.46109345  0.46911569  1
  O  O29  1  0.14818115  0.69032580  0.47219191  1
  O  O30  1  0.12093847  0.64027509  0.36100272  1
  O  O31  1  0.51959534  0.87878465  0.36089935  1
  O  O32  1  0.36014805  0.47887775  0.35918266  1
  O  O33  1  0.12517564  0.48370000  0.86220683  1
  O  O34  1  0.35943206  0.87492591  0.86312782  1
  O  O35  1  0.51671449  0.64240677  0.86199172  1
  O  O36  1  0.02179565  0.82814853  0.41075267  1
  O  O37  1  0.80652387  0.97808995  0.41064788  1
  O  O38  1  0.17143700  0.19303722  0.41037117  1
  O  O39  1  0.02162971  0.19339294  0.91097101  1
  O  O40  1  0.17112665  0.97811299  0.91078980  1
  O  O41  1  0.80660216  0.82872534  0.91060889  1
  O  O42  1  0.96944575  0.16786362  0.58980064  1
  O  O43  1  0.19084077  0.01436426  0.58903369  1
  O  O44  1  0.83036973  0.80690641  0.58939781  1
  O  O45  1  0.96958065  0.80188608  0.08931041  1
  O  O46  1  0.83032078  0.02361938  0.08922248  1
  O  O47  1  0.19008346  0.17608600  0.08893680  1
  O  O48  1  0.69486686  0.16462203  0.74346366  1
  O  O49  1  0.47728131  0.32187534  0.74433880  1
  O  O50  1  0.83790822  0.52490329  0.74403706  1
  O  O51  1  0.68705453  0.52557818  0.24315822  1
  O  O52  1  0.83859180  0.31297347  0.24330570  1
  O  O53  1  0.47372042  0.16132754  0.24333556  1
  O  O54  1  0.64269760  0.50495248  0.92282000  1
  O  O55  1  0.86197694  0.35726139  0.92320597  1
  O  O56  1  0.49506922  0.13832705  0.92298647  1
  O  O57  1  0.64420744  0.13931127  0.42276470  1
  O  O58  1  0.49515252  0.35675245  0.42258134  1
  O  O59  1  0.86080257  0.50454452  0.42316520  1
  O  O60  1  0.35639457  0.49694852  0.07771615  1
  O  O61  1  0.13561967  0.63657212  0.07739550  1
  O  O62  1  0.50972015  0.85577915  0.07798496  1
  O  O63  1  0.35571219  0.85889580  0.57746226  1
  O  O64  1  0.50991417  0.65386309  0.57803881  1
  O  O65  1  0.13550493  0.49887128  0.57748091  1
  O  O66  1  0.31267990  0.83789091  0.25567506  1
  O  O67  1  0.52584935  0.68799205  0.25521916  1
  O  O68  1  0.16186930  0.47469868  0.25519036  1
  O  O69  1  0.31116644  0.47479727  0.75679375  1
  O  O70  1  0.15660804  0.68001463  0.75604359  1
  O  O71  1  0.53135796  0.83515698  0.75648745  1
loop_
_geom_bond_atom_site_label_1
_geom_bond_atom_site_label_2
_geom_bond_distance
_geom_bond_site_symmetry_2
Na0 O67 2.459130 1_555
Na0 O52 2.488441 1_565
Na0 O66 2.516013 1_555
Na0 O53 2.531451 1_565
Na0 O31 2.705995 1_555
Na0 O16 2.783259 1_565
Na0 O2 2.833318 1_565
Na0 O9 2.931167 1_555
Na1 O68 2.467097 1_555
Na1 O53 2.488075 1_555
Na1 O67 2.517403 1_555
Na1 O51 2.529725 1_555
Na1 O32 2.656413 1_555
Na1 O17 2.820162 1_555
Na1 O0 2.830774 1_555
Na1 O10 2.934378 1_555
Na2 O66 2.467460 1_555
Na2 O51 2.490631 1_455
Na2 O68 2.517339 1_555
Na2 O52 2.527820 1_455
Na2 O30 2.708689 1_555
Na2 O15 2.808399 1_455
Na2 O1 2.826397 1_455
Na2 O11 2.883916 1_555
Na3 O50 2.428904 1_555
Na3 O49 2.439096 1_555
Na3 O71 2.455246 1_555
Na3 O69 2.575845 1_555
Na3 O14 2.690422 1_555
Na3 O35 2.839515 1_555
Na3 O4 2.840036 1_555
Na3 O6 2.888901 1_555
Na4 O48 2.389909 1_555
Na4 O69 2.490075 1_655
Na4 O70 2.496577 1_655
Na4 O50 2.523668 1_555
Na4 O12 2.718243 1_555
Na4 O33 2.835196 1_655
Na4 O7 2.837098 1_655
Na4 O5 2.847683 1_555
Na5 O65 2.413721 1_555
Na5 O44 2.451882 1_455
Na5 O43 2.455909 1_565
Na5 O63 2.525850 1_555
Na5 O29 2.746395 1_555
Na5 O8 2.751080 1_555
Na5 O22 2.864663 1_455
Na5 O12 2.936393 1_455
Na6 O42 2.418274 1_565
Na6 O64 2.440479 1_555
Na6 O63 2.453408 1_555
Na6 O44 2.540248 1_555
Na6 O27 2.739133 1_555
Na6 O6 2.779587 1_555
Na6 O23 2.868221 1_565
Na6 O13 2.886579 1_565
Na7 O45 2.417478 1_555
Na7 O62 2.438417 1_555
Na7 O60 2.450718 1_555
Na7 O46 2.532784 1_565
Na7 O24 2.733616 1_554
Na7 O9 2.765405 1_555
Na7 O19 2.882708 1_555
Na7 O17 2.920055 1_555
Na8 O61 2.414444 1_555
Na8 O46 2.445906 1_455
Na8 O47 2.449749 1_555
Na8 O60 2.528481 1_555
Na8 O25 2.734499 1_554
Na8 O10 2.756366 1_555
Na8 O20 2.870245 1_455
Na8 O15 2.937829 1_455
Na9 O38 2.516068 1_555
Na9 O36 2.587941 1_545
Na9 O37 2.591137 1_445
Na9 O43 2.676532 1_555
Na9 O42 2.698398 1_455
Na9 O44 2.740042 1_445
Na10 O40 2.498954 1_555
Na10 O39 2.567099 1_565
Na10 O41 2.577987 1_455
Na10 O47 2.685993 1_566
Na10 O45 2.697701 1_456
Na10 O46 2.752484 1_466
Na11 O56 2.597103 1_555
Na11 O49 2.599278 1_555
Na11 O48 2.621482 1_555
Na11 O50 2.664584 1_555
Na11 O54 2.669880 1_555
Na11 O55 2.680464 1_555
Na12 O57 2.565711 1_555
Na12 O58 2.567529 1_555
Na12 O59 2.575474 1_555
Na12 O51 2.707867 1_555
Na12 O52 2.709564 1_555
Na12 O53 2.712001 1_555
Na13 O62 2.573634 1_555
Na13 O66 2.593829 1_555
Na13 O61 2.598584 1_555
Na13 O60 2.646564 1_555
Na13 O68 2.653030 1_555
Na13 O67 2.655400 1_555
Na14 O64 2.555761 1_555
Na14 O63 2.562753 1_555
Na14 O65 2.574368 1_555
Na14 O69 2.689808 1_555
Na14 O70 2.696740 1_555
Na14 O71 2.712680 1_555
O0 P0 1.525019 1_555
O0 Sc0 2.120740 1_445
O1 P1 1.525797 1_555
O1 Sc0 2.124067 1_555
O2 P2 1.524806 1_655
O2 Sc0 2.125612 1_545
O3 P3 1.517644 1_555
O3 Sc1 2.070760 1_555
O4 P4 1.527450 1_555
O4 Sc1 2.098289 1_665
O5 P5 1.529637 1_555
O5 Sc1 2.092144 1_655
O6 P5 1.551580 1_565
O6 Sc2 2.110183 1_665
O7 P3 1.545043 1_555
O7 Sc2 2.030029 1_555
O8 P4 1.545382 1_455
O8 Sc2 2.087673 1_565
O9 P1 1.556550 1_555
O9 Sc3 2.088990 1_655
O10 P2 1.556689 1_555
O10 Sc3 2.089189 1_545
O11 P0 1.550386 1_565
O11 Sc3 2.015900 1_555
O12 P6 1.554564 1_555
O12 Sc4 2.088123 1_555
O13 P7 1.546457 1_555
O13 Sc4 2.007044 1_555
O14 P8 1.547492 1_555
O14 Sc4 2.067733 1_555
O15 P9 1.554768 1_555
O15 Sc5 2.053824 1_555
O16 P10 1.548765 1_555
O16 Sc5 2.042717 1_555
O17 P11 1.552540 1_555
O17 Sc5 2.054513 1_555
O18 P11 1.543618 1_555
O18 Zr0 2.094436 1_554
O19 P9 1.551947 1_555
O19 Zr0 2.102601 1_554
O20 P10 1.549132 1_555
O20 Zr0 2.109551 1_554
O21 P7 1.542582 1_555
O21 Zr1 2.084093 1_555
O22 P8 1.549985 1_555
O22 Zr1 2.108666 1_555
O23 P6 1.552768 1_555
O23 Zr1 2.109080 1_555
O24 P12 1.541775 1_555
O24 Sc6 2.062676 1_556
O25 P13 1.541561 1_555
O25 Sc6 2.064283 1_556
O26 P14 1.531052 1_555
O26 Sc6 1.988344 1_556
O27 P15 1.542853 1_555
O27 Sc7 2.061645 1_555
O28 P16 1.536742 1_555
O28 Sc7 1.985589 1_555
O29 P17 1.543047 1_555
O29 Sc7 2.063992 1_555
O30 P17 1.556341 1_555
O30 Sc8 2.024576 1_555
O31 P15 1.555922 1_555
O31 Sc8 2.024198 1_555
O32 P16 1.553656 1_555
O32 Sc8 2.021992 1_555
O33 P13 1.565679 1_555
O33 Zr2 2.076043 1_555
O34 P14 1.559629 1_555
O34 Zr2 2.013338 1_555
O35 P12 1.564915 1_555
O35 Zr2 2.079015 1_555
O36 P17 1.533578 1_555
O36 Sc0 2.081577 1_455
O37 P15 1.533898 1_555
O37 Sc0 2.082351 1_555
O38 P16 1.531610 1_555
O38 Sc0 2.081173 1_445
O39 P13 1.526617 1_555
O39 Sc1 2.114837 1_555
O40 P14 1.522670 1_555
O40 Sc1 2.102721 1_565
O41 P12 1.526789 1_555
O41 Sc1 2.116978 1_665
O42 P6 1.545921 1_555
O42 Sc2 2.135997 1_655
O43 P7 1.543412 1_555
O43 Sc2 2.118761 1_555
O44 P8 1.559968 1_555
O44 Sc2 2.191420 1_665
O45 P9 1.543424 1_555
O45 Sc3 2.139487 1_655
O46 P10 1.557301 1_555
O46 Sc3 2.194418 1_645
O47 P11 1.543115 1_555
O47 Sc3 2.132478 1_545
O48 P5 1.550959 1_555
O48 Sc4 2.146060 1_555
O49 P3 1.550270 1_555
O49 Sc4 2.134309 1_555
O50 P4 1.563690 1_555
O50 Sc4 2.203199 1_555
O51 P1 1.562869 1_555
O51 Sc5 2.166318 1_555
O52 P2 1.563473 1_655
O52 Sc5 2.161938 1_555
O53 P0 1.560676 1_555
O53 Sc5 2.150132 1_555
O54 P12 1.559143 1_555
O54 Zr0 2.093253 1_555
O55 P13 1.559523 1_655
O55 Zr0 2.097704 1_555
O56 P14 1.554169 1_545
O56 Zr0 2.088451 1_555
O57 P15 1.560974 1_545
O57 Zr1 2.097388 1_555
O58 P16 1.558912 1_555
O58 Zr1 2.088967 1_555
O59 P17 1.560608 1_655
O59 Zr1 2.096631 1_555
O60 P11 1.555705 1_555
O60 Sc6 2.215326 1_555
O61 P9 1.541076 1_455
O61 Sc6 2.165967 1_555
O62 P10 1.541961 1_565
O62 Sc6 2.162295 1_555
O63 P7 1.555336 1_565
O63 Sc7 2.227078 1_555
O64 P8 1.544232 1_555
O64 Sc7 2.173868 1_555
O65 P6 1.543619 1_455
O65 Sc7 2.173538 1_555
O66 P0 1.561471 1_565
O66 Sc8 2.218627 1_555
O67 P1 1.563220 1_555
O67 Sc8 2.232171 1_555
O68 P2 1.563184 1_555
O68 Sc8 2.230509 1_555
O69 P3 1.584978 1_555
O69 Zr2 2.183287 1_555
O70 P4 1.567952 1_455
O70 Zr2 2.141842 1_555
O71 P5 1.565713 1_565
O71 Zr2 2.144958 1_555
