# generated using pymatgen
data_Cr2NiO4
_symmetry_space_group_name_H-M   'P 1'
_cell_length_a   5.86179772
_cell_length_b   5.95466095
_cell_length_c   5.86840848
_cell_angle_alpha   59.51648684
_cell_angle_beta   91.72689172
_cell_angle_gamma   120.49720109
_symmetry_Int_Tables_number   1
_chemical_formula_structural   Cr2NiO4
_chemical_formula_sum   'Cr4 Ni2 O8'
_cell_volume   144.79990432
_cell_formula_units_Z   2
loop_
 _symmetry_equiv_pos_site_id
 _symmetry_equiv_pos_as_xyz
  1  'x, y, z'
loop_
 _atom_site_type_symbol
 _atom_site_label
 _atom_site_symmetry_multiplicity
 _atom_site_fract_x
 _atom_site_fract_y
 _atom_site_fract_z
 _atom_site_occupancy
  Cr  Cr0  1  0.50208130  0.00166786  -0.00126630  1
  Cr  Cr1  1  -0.00134537  0.49816805  0.50232257  1
  Cr  Cr2  1  0.00052251  0.50181833  0.00039838  1
  Cr  Cr3  1  0.00050054  -0.00166083  0.00037505  1
  Ni  Ni0  1  0.61937288  0.75051608  0.61830967  1
  Ni  Ni1  1  0.36852684  0.24973978  0.36881064  1
  O  O0  1  0.75768573  0.47746780  0.75842680  1
  O  O1  1  0.75784514  0.02201215  0.75820805  1
  O  O2  1  0.77588265  0.03158171  0.21296026  1
  O  O3  1  0.24463505  0.53106418  0.24475955  1
  O  O4  1  0.78016805  0.52225121  0.23597712  1
  O  O5  1  0.24433975  0.96851723  0.24484368  1
  O  O6  1  0.21402572  0.46907336  0.77573700  1
  O  O7  1  0.23575820  0.97778710  0.78013754  1
loop_
_geom_bond_atom_site_label_1
_geom_bond_atom_site_label_2
_geom_bond_distance
_geom_bond_site_symmetry_2
Cr0 O7 1.985451 1_544
Cr0 O5 1.986717 1_545
Cr0 O3 1.987158 1_545
Cr0 O2 2.000886 1_555
Cr0 O1 2.006099 1_554
Cr0 O0 2.006427 1_554
Cr1 O4 1.985501 1_455
Cr1 O5 1.986189 1_555
Cr1 O3 1.986524 1_555
Cr1 O6 2.004033 1_555
Cr1 O1 2.008072 1_455
Cr1 O0 2.008092 1_455
Cr2 O0 1.985248 1_454
Cr2 O2 1.985775 1_455
Cr2 O6 1.987572 1_554
Cr2 O3 2.002765 1_555
Cr2 O7 2.007192 1_554
Cr2 O4 2.008047 1_455
Cr3 O1 1.985230 1_454
Cr3 O2 1.985755 1_455
Cr3 O6 1.987699 1_554
Cr3 O5 2.002072 1_545
Cr3 O7 2.006568 1_544
Cr3 O4 2.007760 1_445
Ni0 O6 1.956404 1_555
Ni0 O2 1.958331 1_565
Ni0 O0 1.979501 1_555
Ni0 O1 1.980151 1_565
Ni1 O3 1.956857 1_555
Ni1 O5 1.957084 1_545
Ni1 O4 1.979635 1_555
Ni1 O7 1.980605 1_545
