# generated using pymatgen
data_VPt3
_symmetry_space_group_name_H-M   'P 1'
_cell_length_a   3.86952673
_cell_length_b   3.86952673
_cell_length_c   4.80270273
_cell_angle_alpha   113.75639171
_cell_angle_beta   113.75639995
_cell_angle_gamma   90.00000224
_symmetry_Int_Tables_number   1
_chemical_formula_structural   VPt3
_chemical_formula_sum   'V1 Pt3'
_cell_volume   59.10036440
_cell_formula_units_Z   1
loop_
 _symmetry_equiv_pos_site_id
 _symmetry_equiv_pos_as_xyz
  1  'x, y, z'
loop_
 _atom_site_type_symbol
 _atom_site_label
 _atom_site_symmetry_multiplicity
 _atom_site_fract_x
 _atom_site_fract_y
 _atom_site_fract_z
 _atom_site_occupancy
  V  V0  1  0.00000000  0.00000000  0.00000000  1
  Pt  Pt0  1  0.25000000  0.75000000  0.50000000  1
  Pt  Pt1  1  0.75000000  0.25000000  0.50000000  1
  Pt  Pt2  1  0.50000000  0.50000000  0.00000000  1
loop_
_geom_bond_atom_site_label_1
_geom_bond_atom_site_label_2
_geom_bond_distance
_geom_bond_site_symmetry_2
Pt0 Pt1 2.736169 1_565
Pt0 Pt1 2.736169 1_455
Pt0 Pt1 2.736169 1_555
Pt0 Pt1 2.736169 1_465
Pt0 Pt2 2.763719 1_455
Pt0 V0 2.763719 1_666
Pt0 V0 2.763719 1_565
Pt0 Pt2 2.763719 1_556
Pt0 Pt2 2.763719 1_566
Pt0 V0 2.763719 1_555
Pt0 Pt2 2.763719 1_555
Pt0 V0 2.763719 1_566
Pt1 V0 2.763719 1_555
Pt1 Pt2 2.763719 1_656
Pt1 V0 2.763719 1_656
Pt1 Pt2 2.763719 1_555
Pt1 V0 2.763719 1_666
Pt1 Pt2 2.763719 1_545
Pt1 V0 2.763719 1_655
Pt1 Pt2 2.763719 1_556
Pt2 V0 2.736169 1_665
Pt2 V0 2.736169 1_555
Pt2 V0 2.736169 1_655
Pt2 V0 2.736169 1_565
