# generated using pymatgen
data_Sr2MgVO4
_symmetry_space_group_name_H-M   'P 1'
_cell_length_a   4.06852807
_cell_length_b   4.06852713
_cell_length_c   7.61576494
_cell_angle_alpha   105.49250001
_cell_angle_beta   105.49249460
_cell_angle_gamma   89.99999386
_symmetry_Int_Tables_number   1
_chemical_formula_structural   Sr2MgVO4
_chemical_formula_sum   'Sr2 Mg1 V1 O4'
_cell_volume   116.72261958
_cell_formula_units_Z   1
loop_
 _symmetry_equiv_pos_site_id
 _symmetry_equiv_pos_as_xyz
  1  'x, y, z'
loop_
 _atom_site_type_symbol
 _atom_site_label
 _atom_site_symmetry_multiplicity
 _atom_site_fract_x
 _atom_site_fract_y
 _atom_site_fract_z
 _atom_site_occupancy
  Sr  Sr0  1  0.61013600  0.61013700  0.22027200  1
  Sr  Sr1  1  0.38986500  0.38986300  0.77972700  1
  Mg  Mg0  1  0.75000000  0.25000000  0.50000000  1
  V  V0  1  0.00000000  0.00000000  0.00000000  1
  O  O0  1  0.80770200  0.80770400  0.61540700  1
  O  O1  1  0.19229700  0.19229700  0.38459300  1
  O  O2  1  0.50959900  0.00959800  0.01919500  1
  O  O3  1  0.99040300  0.49040200  0.98080500  1
loop_
_geom_bond_atom_site_label_1
_geom_bond_atom_site_label_2
_geom_bond_distance
_geom_bond_site_symmetry_2
Mg0 O0 2.190999 1_545
Mg0 O1 2.190999 1_555
Mg0 O0 2.191002 1_555
Mg0 O1 2.191003 1_655
Mg0 Sr1 2.833535 1_555
Mg0 Sr0 2.833541 1_545
Mg0 Sr1 2.833544 1_655
Mg0 Sr0 2.833547 1_555
O0 V0 2.711951 1_666
O0 Sr0 2.786288 1_555
O0 Sr1 3.101447 1_565
O0 Sr1 3.101453 1_555
O0 Sr1 3.101464 1_665
O0 Sr1 3.101469 1_655
O1 V0 2.711951 1_555
O1 Sr1 2.786281 1_555
O1 Sr0 3.101458 1_545
O1 Sr0 3.101461 1_555
O1 Sr0 3.101461 1_445
O1 Sr0 3.101464 1_455
O2 V0 2.038756 1_655
O2 V0 2.038768 1_555
O2 Sr0 2.479644 1_545
O2 Sr0 2.479647 1_555
O2 Sr1 2.643785 1_554
O2 Sr1 2.643791 1_544
O3 V0 2.038760 1_656
O3 V0 2.038764 1_666
O3 Sr1 2.479647 1_555
O3 Sr1 2.479653 1_655
O3 Sr0 2.643782 1_656
O3 Sr0 2.643785 1_556
