# generated using pymatgen
data_Pr2MgTi2S2O5
_symmetry_space_group_name_H-M   'P 1'
_cell_length_a   3.98251653
_cell_length_b   3.98251441
_cell_length_c   11.74956585
_cell_angle_alpha   99.75729235
_cell_angle_beta   99.75729635
_cell_angle_gamma   90.00000223
_symmetry_Int_Tables_number   1
_chemical_formula_structural   Pr2MgTi2S2O5
_chemical_formula_sum   'Pr2 Mg1 Ti2 S2 O5'
_cell_volume   180.92161280
_cell_formula_units_Z   1
loop_
 _symmetry_equiv_pos_site_id
 _symmetry_equiv_pos_as_xyz
  1  'x, y, z'
loop_
 _atom_site_type_symbol
 _atom_site_label
 _atom_site_symmetry_multiplicity
 _atom_site_fract_x
 _atom_site_fract_y
 _atom_site_fract_z
 _atom_site_occupancy
  Pr  Pr0  1  0.66515500  0.66515500  0.33031100  1
  Pr  Pr1  1  0.33483900  0.33483900  0.66967700  1
  Mg  Mg0  1  0.49997500  0.49997500  0.99995000  1
  Ti  Ti0  1  0.08380600  0.08380600  0.16761200  1
  Ti  Ti1  1  0.91619200  0.91619200  0.83238300  1
  S  S0  1  0.79758100  0.79758100  0.59516200  1
  S  S1  1  0.20242200  0.20242200  0.40484400  1
  O  O0  1  0.59276700  0.09276700  0.18553200  1
  O  O1  1  0.40724500  0.90724500  0.81449000  1
  O  O2  1  0.00000700  0.00000700  0.00001500  1
  O  O3  1  0.90724500  0.40724500  0.81449000  1
  O  O4  1  0.09276700  0.59276700  0.18553300  1
loop_
_geom_bond_atom_site_label_1
_geom_bond_atom_site_label_2
_geom_bond_distance
_geom_bond_site_symmetry_2
Pr0 S1 2.941606 1_555
Pr0 S1 2.941609 1_565
Pr0 S1 2.941609 1_655
Pr0 S1 2.941612 1_665
Pr0 S0 3.021184 1_555
Pr1 S0 2.941547 1_555
Pr1 S0 2.941550 1_545
Pr1 S0 2.941550 1_455
Pr1 S0 2.941553 1_445
Pr1 S1 3.020978 1_555
S0 Ti1 2.706005 1_555
S1 Ti0 2.706131 1_555
O0 Ti0 2.001719 1_655
O0 Ti0 2.001727 1_555
O0 Pr0 2.586999 1_555
O0 Pr0 2.587008 1_545
O1 Ti1 2.001690 1_455
O1 Ti1 2.001694 1_555
O1 Pr1 2.587250 1_555
O1 Pr1 2.587253 1_565
O2 Ti0 1.911797 1_555
O2 Ti1 1.912196 1_444
O3 Ti1 2.001689 1_545
O3 Ti1 2.001693 1_555
O3 Pr1 2.587251 1_555
O3 Pr1 2.587254 1_655
O4 Ti0 2.001721 1_565
O4 Ti0 2.001725 1_555
O4 Pr0 2.586994 1_555
O4 Pr0 2.587000 1_455
