# generated using pymatgen
data_Na14La4Ga4Si7S5O48
_symmetry_space_group_name_H-M   'P 1'
_cell_length_a   18.64178990
_cell_length_b   9.31510791
_cell_length_c   22.83653069
_cell_angle_alpha   89.91906120
_cell_angle_beta   90.15995654
_cell_angle_gamma   120.02130869
_symmetry_Int_Tables_number   1
_chemical_formula_structural   Na14La4Ga4Si7S5O48
_chemical_formula_sum   'Na42 La12 Ga12 Si21 S15 O144'
_cell_volume   3433.53337711
_cell_formula_units_Z   3
loop_
 _symmetry_equiv_pos_site_id
 _symmetry_equiv_pos_as_xyz
  1  'x, y, z'
loop_
 _atom_site_type_symbol
 _atom_site_label
 _atom_site_symmetry_multiplicity
 _atom_site_fract_x
 _atom_site_fract_y
 _atom_site_fract_z
 _atom_site_occupancy
  Na  Na0  1  0.81304988  0.99381964  0.23500339  1
  Na  Na1  1  0.18513919  0.35862612  0.27174046  1
  Na  Na2  1  0.68992215  0.36220680  0.25985841  1
  Na  Na3  1  0.99403282  0.63933349  0.23951482  1
  Na  Na4  1  0.50958209  0.65759017  0.25286642  1
  Na  Na5  1  0.31568531  0.64066849  0.75235381  1
  Na  Na6  1  0.00752310  0.35372613  0.75897392  1
  Na  Na7  1  0.49578220  0.34907878  0.74933628  1
  Na  Na8  1  0.18527868  0.01026239  0.77022688  1
  Na  Na9  1  0.68813014  0.01506538  0.77219578  1
  Na  Na10  1  0.14003495  0.33311435  0.58103779  1
  Na  Na11  1  0.63426885  0.33095373  0.58396368  1
  Na  Na12  1  0.33779131  0.97275231  0.57804909  1
  Na  Na13  1  0.83762362  0.97676078  0.57564541  1
  Na  Na14  1  0.13230194  0.94120819  0.08617789  1
  Na  Na15  1  0.64702628  0.95393268  0.08583599  1
  Na  Na16  1  0.33671623  0.69839904  0.07561524  1
  Na  Na17  1  0.83763004  0.72108039  0.07634773  1
  Na  Na18  1  0.49136127  0.69415723  0.92629548  1
  Na  Na19  1  0.99361008  0.68105276  0.92854666  1
  Na  Na20  1  0.33799544  0.01030356  0.91220392  1
  Na  Na21  1  0.84415006  0.03216439  0.92426722  1
  Na  Na22  1  0.16903388  0.30611616  0.89913372  1
  Na  Na23  1  0.67547633  0.32099375  0.90496121  1
  Na  Na24  1  0.49559458  0.30471103  0.41527566  1
  Na  Na25  1  0.98965315  0.28707393  0.42058873  1
  Na  Na26  1  0.17006537  0.02823895  0.39489878  1
  Na  Na27  1  0.67145328  0.03348549  0.39572551  1
  Na  Na28  1  0.34568865  0.67012477  0.40271791  1
  Na  Na29  1  0.83718605  0.66299291  0.40618086  1
  Na  Na30  1  0.99606735  0.00873596  0.49064045  1
  Na  Na31  1  0.50056444  0.01875835  0.48903218  1
  Na  Na32  1  0.98458771  0.98078870  0.99637000  1
  Na  Na33  1  0.49989765  0.98657229  0.99150355  1
  Na  Na34  1  0.32865484  0.33220451  0.83411068  1
  Na  Na35  1  0.82643223  0.33601321  0.84297104  1
  Na  Na36  1  0.32903114  0.32167488  0.34058919  1
  Na  Na37  1  0.82880806  0.32421112  0.32884705  1
  Na  Na38  1  0.16352587  0.68551041  0.17264399  1
  Na  Na39  1  0.66441557  0.68589633  0.16685516  1
  Na  Na40  1  0.15426144  0.63975940  0.67512569  1
  Na  Na41  1  0.66643973  0.64644134  0.67513634  1
  La  La0  1  0.99844486  0.01288483  0.65240502  1
  La  La1  1  0.49515153  0.00130807  0.64950399  1
  La  La2  1  0.99160691  0.99726011  0.14605896  1
  La  La3  1  0.49940088  0.98460169  0.15104970  1
  La  La4  1  0.83649799  0.33695308  0.69207670  1
  La  La5  1  0.33567854  0.33199007  0.19202060  1
  La  La6  1  0.15687651  0.66389062  0.01111202  1
  La  La7  1  0.67108949  0.68697857  0.01424299  1
  La  La8  1  0.16814191  0.66428870  0.51055313  1
  La  La9  1  0.65877210  0.65145598  0.50981528  1
  La  La10  1  0.18041617  0.68991757  0.32079722  1
  La  La11  1  0.68058636  0.67096204  0.82353280  1
  Ga  Ga0  1  0.99378945  0.98446461  0.34836714  1
  Ga  Ga1  1  0.50358423  0.00608266  0.34640604  1
  Ga  Ga2  1  0.00396287  0.99540424  0.84650052  1
  Ga  Ga3  1  0.49594659  0.00596842  0.84967568  1
  Ga  Ga4  1  0.33299590  0.31622744  0.69181871  1
  Ga  Ga5  1  0.83475569  0.33655541  0.18381008  1
  Ga  Ga6  1  0.33278047  0.35238316  0.97455976  1
  Ga  Ga7  1  0.83457576  0.33865360  0.98704615  1
  Ga  Ga8  1  0.33452306  0.31943259  0.48247479  1
  Ga  Ga9  1  0.83295249  0.31373815  0.47423387  1
  Ga  Ga10  1  0.69245292  0.68930660  0.31891761  1
  Ga  Ga11  1  0.18942890  0.69031807  0.81937964  1
  Si  Si0  1  0.14135075  0.99871049  0.25108104  1
  Si  Si1  1  0.65322680  0.98965153  0.25224130  1
  Si  Si2  1  0.35377750  0.70351299  0.25274833  1
  Si  Si3  1  0.84681161  0.68925466  0.25256138  1
  Si  Si4  1  0.15597375  0.31587559  0.74800282  1
  Si  Si5  1  0.64336506  0.28905500  0.75108871  1
  Si  Si6  1  0.34616535  0.99886931  0.75363855  1
  Si  Si7  1  0.85478673  0.00198063  0.75221587  1
  Si  Si8  1  0.47258799  0.34581651  0.58709638  1
  Si  Si9  1  0.97886322  0.33599372  0.57686890  1
  Si  Si10  1  0.47698348  0.62232829  0.07736398  1
  Si  Si11  1  0.97598518  0.60744254  0.08634299  1
  Si  Si12  1  0.83317800  0.06163099  0.08198514  1
  Si  Si13  1  0.32315889  0.67405589  0.91596852  1
  Si  Si14  1  0.83412865  0.66830750  0.92372634  1
  Si  Si15  1  0.16718473  0.97989231  0.91602185  1
  Si  Si16  1  0.66378789  0.99626583  0.91599926  1
  Si  Si17  1  0.33356302  0.99298989  0.42569220  1
  Si  Si18  1  0.82354052  0.97208842  0.41711690  1
  Si  Si19  1  0.16784203  0.33685647  0.41966948  1
  Si  Si20  1  0.66723117  0.35365378  0.41795876  1
  S  S0  1  0.99423558  0.29977914  0.25720848  1
  S  S1  1  0.51165398  0.31353964  0.26115255  1
  S  S2  1  0.01245481  0.70680636  0.75970495  1
  S  S3  1  0.49235683  0.68419909  0.75352871  1
  S  S4  1  0.19570465  0.05214331  0.58623386  1
  S  S5  1  0.68694316  0.04831264  0.57463018  1
  S  S6  1  0.33074194  0.60507172  0.58303200  1
  S  S7  1  0.83435785  0.63139643  0.57513731  1
  S  S8  1  0.33453067  0.03788437  0.07441892  1
  S  S9  1  0.18896553  0.32777984  0.07433430  1
  S  S10  1  0.69510990  0.34101274  0.08590182  1
  S  S11  1  0.01336198  0.34878973  0.90581724  1
  S  S12  1  0.50256564  0.34529251  0.91507726  1
  S  S13  1  0.00186147  0.66092692  0.41590840  1
  S  S14  1  0.50817562  0.67165124  0.41050067  1
  O  O0  1  0.08205254  0.00284889  0.30449087  1
  O  O1  1  0.59984721  0.01714778  0.30463796  1
  O  O2  1  0.41073564  0.83360201  0.30513776  1
  O  O3  1  0.90523758  0.78496370  0.30993601  1
  O  O4  1  0.50812647  0.21772043  0.31427578  1
  O  O5  1  0.99098949  0.20380783  0.31050766  1
  O  O6  1  0.10567038  0.17728753  0.79960506  1
  O  O7  1  0.57978720  0.15998302  0.80094242  1
  O  O8  1  0.48648277  0.77179723  0.80594647  1
  O  O9  1  0.01153596  0.79845943  0.81237707  1
  O  O10  1  0.40670656  0.02069249  0.80908237  1
  O  O11  1  0.91833711  0.99193763  0.80027876  1
  O  O12  1  0.37800442  0.95935084  0.69241620  1
  O  O13  1  0.88409731  0.99160679  0.68524887  1
  O  O14  1  0.10455883  0.25958195  0.68588823  1
  O  O15  1  0.60870312  0.21881759  0.68454835  1
  O  O16  1  0.01591599  0.79645190  0.70530212  1
  O  O17  1  0.50174862  0.77860277  0.69954380  1
  O  O18  1  0.38651994  0.78175654  0.18767992  1
  O  O19  1  0.87830234  0.80305907  0.19381316  1
  O  O20  1  0.00581731  0.22596386  0.20430028  1
  O  O21  1  0.51497524  0.22883283  0.20750967  1
  O  O22  1  0.10682921  0.00494514  0.18590710  1
  O  O23  1  0.59986068  0.94189586  0.19078448  1
  O  O24  1  0.42464414  0.33812141  0.64970678  1
  O  O25  1  0.93516704  0.33149240  0.63897748  1
  O  O26  1  0.23714185  0.14285014  0.64113884  1
  O  O27  1  0.72786235  0.13441707  0.62920025  1
  O  O28  1  0.33395230  0.52148212  0.63747683  1
  O  O29  1  0.83817215  0.54783060  0.62878025  1
  O  O30  1  0.43138784  0.53869913  0.13908508  1
  O  O31  1  0.92815039  0.51921661  0.14837990  1
  O  O32  1  0.33757640  0.12826950  0.12781133  1
  O  O33  1  0.83141704  0.15570942  0.14327237  1
  O  O34  1  0.23105093  0.32493745  0.12829325  1
  O  O35  1  0.73639757  0.33561062  0.14127378  1
  O  O36  1  0.23552374  0.32698026  0.02099433  1
  O  O37  1  0.74173611  0.34753105  0.03247419  1
  O  O38  1  0.42010366  0.51442545  0.01964080  1
  O  O39  1  0.93132670  0.50150351  0.02706590  1
  O  O40  1  0.32772874  0.11995840  0.02046746  1
  O  O41  1  0.82500607  0.14546015  0.02042016  1
  O  O42  1  0.24140927  0.14095615  0.53272462  1
  O  O43  1  0.73427305  0.14411455  0.52194433  1
  O  O44  1  0.32299756  0.51108334  0.52873200  1
  O  O45  1  0.82766459  0.53629270  0.52144311  1
  O  O46  1  0.42414285  0.35880801  0.52906671  1
  O  O47  1  0.92119327  0.32974866  0.51962275  1
  O  O48  1  0.28742240  0.71193085  0.97555310  1
  O  O49  1  0.80092573  0.72424373  0.98112014  1
  O  O50  1  0.06206089  0.41964139  0.96016201  1
  O  O51  1  0.55858394  0.43456278  0.96389500  1
  O  O52  1  0.13806822  0.87053025  0.97654821  1
  O  O53  1  0.63702275  0.86462119  0.97071985  1
  O  O54  1  0.30284338  0.88339138  0.48618641  1
  O  O55  1  0.79035266  0.86764489  0.47808797  1
  O  O56  1  0.14521954  0.41731035  0.47570032  1
  O  O57  1  0.63869378  0.40110888  0.47974492  1
  O  O58  1  0.05462832  0.68321504  0.46721159  1
  O  O59  1  0.55651052  0.69708937  0.46493607  1
  O  O60  1  0.03867425  0.63481956  0.36271649  1
  O  O61  1  0.54935042  0.64271965  0.36046110  1
  O  O62  1  0.25289270  0.90121386  0.38184963  1
  O  O63  1  0.75329345  0.87427583  0.36592446  1
  O  O64  1  0.19237560  0.46737657  0.36480929  1
  O  O65  1  0.68662349  0.50589911  0.37025615  1
  O  O66  1  0.05837185  0.45902904  0.85564151  1
  O  O67  1  0.53608141  0.43618795  0.85952552  1
  O  O68  1  0.18763569  0.87179037  0.86643370  1
  O  O69  1  0.68426156  0.91032870  0.86085171  1
  O  O70  1  0.25617200  0.63188692  0.86205878  1
  O  O71  1  0.75874258  0.59876363  0.87535749  1
  O  O72  1  0.99354972  0.81162377  0.41264421  1
  O  O73  1  0.50218204  0.82517056  0.40419451  1
  O  O74  1  0.42007776  0.99860382  0.40620652  1
  O  O75  1  0.91532047  0.99186802  0.40353597  1
  O  O76  1  0.08451352  0.15349720  0.40791213  1
  O  O77  1  0.58871885  0.16808410  0.40259427  1
  O  O78  1  0.00490017  0.18103883  0.90049505  1
  O  O79  1  0.49202850  0.17546870  0.91342541  1
  O  O80  1  0.09084288  0.01338988  0.90024282  1
  O  O81  1  0.58124136  0.01811785  0.90547014  1
  O  O82  1  0.41529433  0.83698235  0.90354709  1
  O  O83  1  0.92280173  0.83507243  0.90577712  1
  O  O84  1  0.47636214  0.16995437  0.58092357  1
  O  O85  1  0.98804924  0.16664694  0.57096724  1
  O  O86  1  0.11215454  0.03367735  0.58261319  1
  O  O87  1  0.60296415  0.02963316  0.57020154  1
  O  O88  1  0.40416127  0.77448362  0.57801110  1
  O  O89  1  0.90805755  0.80121832  0.57116077  1
  O  O90  1  0.48593496  0.80985814  0.07097792  1
  O  O91  1  0.98011953  0.79014670  0.07967683  1
  O  O92  1  0.40864294  0.01734175  0.07042959  1
  O  O93  1  0.91268170  0.03308464  0.07553736  1
  O  O94  1  0.10559819  0.17917130  0.07004310  1
  O  O95  1  0.61253456  0.18784767  0.08199648  1
  O  O96  1  0.33720336  0.16860670  0.75120945  1
  O  O97  1  0.85682106  0.17951473  0.76338945  1
  O  O98  1  0.25021570  0.33398420  0.74161952  1
  O  O99  1  0.73296454  0.29950648  0.76185227  1
  O  O100  1  0.41298668  0.51934827  0.75162742  1
  O  O101  1  0.93853423  0.53916652  0.76148046  1
  O  O102  1  0.35738673  0.53172359  0.26357943  1
  O  O103  1  0.83902186  0.50294100  0.24687376  1
  O  O104  1  0.43812105  0.33486594  0.26208753  1
  O  O105  1  0.91505327  0.30427402  0.25487568  1
  O  O106  1  0.23234539  0.16467486  0.26326166  1
  O  O107  1  0.74439594  0.16220324  0.24683224  1
  O  O108  1  0.33250747  0.50541645  0.91787912  1
  O  O109  1  0.85028580  0.50992664  0.93163953  1
  O  O110  1  0.41798141  0.32530327  0.92190603  1
  O  O111  1  0.92979389  0.32933608  0.91009344  1
  O  O112  1  0.25393377  0.16479561  0.92225178  1
  O  O113  1  0.74655872  0.18096579  0.92619217  1
  O  O114  1  0.35338495  0.18703266  0.42803341  1
  O  O115  1  0.83388331  0.16027602  0.41826821  1
  O  O116  1  0.25104804  0.31521232  0.43017377  1
  O  O117  1  0.75331658  0.34009192  0.42254014  1
  O  O118  1  0.42230686  0.52779081  0.41638558  1
  O  O119  1  0.91677185  0.51323164  0.42155493  1
  O  O120  1  0.18493387  0.48269734  0.07549266  1
  O  O121  1  0.68711813  0.49137759  0.08807296  1
  O  O122  1  0.07430208  0.65095352  0.09065407  1
  O  O123  1  0.57037818  0.64855536  0.07985062  1
  O  O124  1  0.25867869  0.86853015  0.08042756  1
  O  O125  1  0.74922784  0.87358138  0.08792248  1
  O  O126  1  0.19078316  0.88771114  0.58846182  1
  O  O127  1  0.68269341  0.88526995  0.57559073  1
  O  O128  1  0.25439825  0.62248803  0.58765354  1
  O  O129  1  0.75781239  0.64728136  0.58135748  1
  O  O130  1  0.07326023  0.49847936  0.57817489  1
  O  O131  1  0.57034427  0.49734671  0.58872333  1
  O  O132  1  0.14148056  0.82267690  0.25338055  1
  O  O133  1  0.66402079  0.82343135  0.26468235  1
  O  O134  1  0.25536108  0.65221761  0.25206160  1
  O  O135  1  0.75175818  0.65778310  0.26062840  1
  O  O136  1  0.06481064  0.47212938  0.26100452  1
  O  O137  1  0.58786087  0.48064798  0.26261071  1
  O  O138  1  0.16571555  0.50085013  0.76215540  1
  O  O139  1  0.64371976  0.46479365  0.75387495  1
  O  O140  1  0.08834274  0.69030620  0.76062965  1
  O  O141  1  0.56337909  0.65522385  0.75755723  1
  O  O142  1  0.25216373  0.83815968  0.76025508  1
  O  O143  1  0.75719878  0.85410834  0.75365253  1
loop_
_geom_bond_atom_site_label_1
_geom_bond_atom_site_label_2
_geom_bond_distance
_geom_bond_site_symmetry_2
Na0 O107 2.486568 1_565
Na0 O33 2.501606 1_565
Na0 O133 2.508368 1_555
Na0 O105 2.584806 1_565
Na0 O19 2.774183 1_555
Na0 O135 2.804624 1_555
Na1 O64 2.330095 1_555
Na1 O106 2.380933 1_555
Na1 O134 2.410885 1_555
Na1 O102 2.786905 1_555
Na2 O135 2.394584 1_555
Na2 O103 2.426818 1_555
Na2 O107 2.546971 1_555
Na2 O137 2.634854 1_555
Na2 O65 2.871254 1_555
Na2 O35 2.894024 1_555
Na2 O1 2.965865 1_555
Na3 O31 2.389346 1_555
Na3 O132 2.423142 1_655
Na3 O103 2.514174 1_555
Na3 O136 2.541296 1_655
Na3 O105 2.726479 1_555
Na3 O60 2.937976 1_655
Na4 O102 2.481655 1_555
Na4 O133 2.508868 1_555
Na4 O61 2.587993 1_555
Na4 O104 2.617010 1_555
Na4 O137 2.701764 1_555
Na4 O23 2.720077 1_555
Na4 O30 2.911094 1_555
Na5 O138 2.433415 1_555
Na5 O98 2.494465 1_555
Na5 O100 2.572737 1_555
Na5 O142 2.645954 1_555
Na5 O70 2.727288 1_555
Na5 O12 2.929504 1_555
Na5 O28 2.936374 1_555
Na6 O66 2.407909 1_555
Na6 O97 2.444440 1_455
Na6 O138 2.556362 1_555
Na6 O101 2.620087 1_455
Na6 O140 2.715624 1_555
Na6 O14 2.904353 1_555
Na6 O25 3.012136 1_455
Na7 O139 2.408805 1_555
Na7 O141 2.481947 1_555
Na7 O96 2.568007 1_555
Na7 O24 2.606517 1_555
Na7 O67 2.634387 1_555
Na7 O100 2.711263 1_555
Na8 O142 2.485845 1_545
Na8 O96 2.492036 1_555
Na8 O68 2.557505 1_545
Na8 O140 2.608984 1_545
Na8 O98 2.707687 1_555
Na8 O6 2.718846 1_555
Na9 O69 2.231787 1_545
Na9 O99 2.357565 1_555
Na9 O143 2.453916 1_545
Na9 O97 2.731025 1_555
Na10 O130 2.417559 1_555
Na10 O128 2.466347 1_555
Na10 O85 2.466986 1_455
Na10 O14 2.488115 1_555
Na10 O56 2.516190 1_555
Na10 O86 2.569189 1_555
Na11 O131 2.384057 1_555
Na11 O57 2.457846 1_555
Na11 O15 2.468939 1_555
Na11 O84 2.549662 1_555
Na11 O87 2.584581 1_555
Na11 O129 2.683262 1_555
Na12 O54 2.229991 1_555
Na12 O84 2.302777 1_565
Na12 O126 2.454621 1_555
Na12 O88 2.688565 1_555
Na12 O12 2.735063 1_555
Na12 O128 2.834567 1_555
Na13 O55 2.423273 1_555
Na13 O85 2.457946 1_565
Na13 O89 2.560861 1_555
Na13 O127 2.569990 1_555
Na13 O13 2.627451 1_555
Na13 O129 2.660998 1_555
Na14 O122 2.358892 1_555
Na14 O91 2.460500 1_455
Na14 O22 2.461062 1_565
Na14 O94 2.529419 1_565
Na14 O52 2.605726 1_554
Na14 O124 2.761112 1_555
Na15 O125 2.370377 1_555
Na15 O123 2.466784 1_555
Na15 O23 2.538107 1_555
Na15 O95 2.563200 1_565
Na15 O90 2.626252 1_555
Na15 O53 2.736051 1_554
Na16 O90 2.436888 1_555
Na16 O48 2.487013 1_554
Na16 O120 2.520778 1_555
Na16 O92 2.579213 1_565
Na16 O124 2.635966 1_555
Na16 O18 2.699116 1_555
Na17 O49 2.282523 1_554
Na17 O91 2.400913 1_555
Na17 O93 2.517103 1_565
Na17 O121 2.552982 1_555
Na17 O125 2.673901 1_555
Na17 O19 2.787276 1_555
Na18 O82 2.435661 1_555
Na18 O53 2.568774 1_555
Na18 O108 2.585618 1_555
Na18 O38 2.625255 1_556
Na18 O81 2.661034 1_565
Na18 O8 2.853696 1_555
Na19 O109 2.328861 1_555
Na19 O83 2.441361 1_555
Na19 O52 2.608013 1_655
Na19 O39 2.695917 1_556
Na19 O80 2.770002 1_665
Na19 O9 2.824312 1_655
Na19 O111 2.903071 1_555
Na20 O79 2.488394 1_555
Na20 O110 2.550340 1_555
Na20 O112 2.615135 1_555
Na20 O68 2.642443 1_545
Na20 O82 2.655681 1_545
Na20 O10 2.662323 1_555
Na20 O40 2.719920 1_556
Na20 O48 2.842685 1_545
Na21 O111 2.427871 1_555
Na21 O41 2.539781 1_556
Na21 O78 2.654517 1_655
Na21 O113 2.785125 1_555
Na21 O49 2.871368 1_545
Na21 O83 2.897922 1_545
Na21 O69 2.977405 1_545
Na22 O80 2.362934 1_555
Na22 O6 2.564312 1_555
Na22 O112 2.568024 1_555
Na22 O78 2.674638 1_555
Na22 O108 2.692672 1_555
Na22 O70 2.762627 1_555
Na23 O113 2.327345 1_555
Na23 O71 2.354441 1_555
Na23 O81 2.467105 1_555
Na24 O114 2.325947 1_555
Na24 O74 2.477625 1_545
Na24 O4 2.495757 1_555
Na24 O77 2.632869 1_555
Na24 O57 2.770367 1_555
Na25 O75 2.412610 1_545
Na25 O115 2.529309 1_555
Na25 O5 2.635709 1_555
Na25 O76 2.639091 1_655
Na25 O47 2.725409 1_555
Na25 O56 2.815917 1_655
Na26 O62 2.388456 1_545
Na26 O76 2.420519 1_555
Na26 O116 2.456628 1_555
Na26 O0 2.569950 1_555
Na26 O72 2.902537 1_445
Na27 O77 2.431517 1_555
Na27 O1 2.431882 1_555
Na27 O117 2.549385 1_555
Na27 O115 2.691300 1_555
Na27 O63 2.694982 1_545
Na27 O73 2.763213 1_545
Na28 O118 2.405544 1_555
Na28 O73 2.526118 1_555
Na28 O2 2.629224 1_555
Na28 O74 2.654439 1_555
Na28 O64 2.659747 1_555
Na29 O3 2.509428 1_555
Na29 O119 2.517399 1_555
Na29 O72 2.528865 1_555
Na29 O65 2.563775 1_555
Na29 O117 2.631649 1_555
Na29 O75 2.654280 1_555
Na29 O45 2.852555 1_555
Na29 O55 2.962300 1_555
Na30 O85 2.404203 1_555
Na30 O76 2.427238 1_655
Na30 O75 2.448425 1_545
Na30 O72 2.543350 1_545
Na30 O89 2.577388 1_545
Na30 O86 2.936240 1_655
Na31 O74 2.359527 1_545
Na31 O77 2.500981 1_555
Na31 O87 2.622484 1_555
Na31 O73 2.659114 1_545
Na31 O84 2.690775 1_555
Na31 O88 2.907172 1_545
Na32 O83 2.424734 1_555
Na32 O93 2.443787 1_566
Na32 O91 2.573555 1_556
Na32 O94 2.674060 1_666
Na32 O78 2.775413 1_665
Na32 O80 2.873181 1_665
Na33 O90 2.374199 1_556
Na33 O81 2.411427 1_565
Na33 O82 2.500959 1_555
Na33 O79 2.558291 1_565
Na33 O92 2.594452 1_566
Na33 O95 2.870920 1_566
Na34 O108 2.481934 1_555
Na34 O96 2.486911 1_555
Na34 O112 2.501361 1_555
Na34 O100 2.514645 1_555
Na34 O98 2.570339 1_555
Na34 O110 2.623919 1_555
Na35 O113 2.402292 1_555
Na35 O99 2.444200 1_555
Na35 O111 2.483823 1_555
Na35 O109 2.491133 1_555
Na35 O97 2.566816 1_555
Na35 O101 2.732408 1_555
Na36 O106 2.420270 1_555
Na36 O102 2.482163 1_555
Na36 O116 2.496194 1_555
Na36 O114 2.514853 1_555
Na36 O118 2.521487 1_555
Na36 O104 2.670999 1_555
Na37 O105 2.405783 1_555
Na37 O107 2.424207 1_555
Na37 O103 2.447124 1_555
Na37 O115 2.577912 1_555
Na37 O117 2.608905 1_555
Na37 O119 2.715403 1_555
Na38 O132 2.395239 1_555
Na38 O122 2.413393 1_555
Na38 O134 2.613159 1_555
Na38 O124 2.733577 1_555
Na38 O136 2.785365 1_555
Na39 O125 2.458973 1_555
Na39 O123 2.552280 1_555
Na39 O133 2.578745 1_555
Na39 O121 2.734947 1_555
Na39 O135 2.776893 1_555
Na39 O137 2.783732 1_555
Na40 O138 2.436541 1_555
Na40 O140 2.477785 1_555
Na40 O130 2.629643 1_555
Na40 O142 2.672269 1_555
Na40 O128 2.796973 1_555
Na40 O126 2.852396 1_555
Na41 O139 2.356743 1_555
Na41 O131 2.555504 1_555
Na41 O143 2.556845 1_555
Na41 O141 2.723682 1_555
Na41 O129 2.737668 1_555
La0 O13 2.175195 1_545
La0 O14 2.286131 1_655
La0 O85 2.411633 1_555
La0 O16 2.505579 1_645
La0 O86 2.584228 1_655
La0 O89 2.614860 1_545
La1 O15 2.220351 1_555
La1 O12 2.244773 1_545
La1 O84 2.363046 1_555
La1 O17 2.423309 1_545
La1 O88 2.532799 1_545
La1 O87 2.622409 1_555
La2 O19 2.259869 1_555
La2 O22 2.298327 1_665
La2 O93 2.312201 1_565
La2 O91 2.378886 1_555
La2 O20 2.412276 1_665
La2 O94 2.609526 1_665
La3 O18 2.173662 1_555
La3 O23 2.285563 1_555
La3 O90 2.377648 1_555
La3 O21 2.503552 1_565
La3 O95 2.556120 1_565
La3 O92 2.615805 1_565
La4 O25 2.227670 1_555
La4 O97 2.343550 1_555
La4 O99 2.393265 1_555
La4 O29 2.424851 1_555
La4 O27 2.427068 1_555
La4 O101 2.466702 1_555
La5 O30 2.218123 1_555
La5 O102 2.355276 1_555
La5 O34 2.404722 1_555
La5 O106 2.406807 1_555
La5 O32 2.414095 1_555
La5 O104 2.477874 1_555
La6 O52 2.262869 1_554
La6 O122 2.347975 1_555
La6 O50 2.372009 1_554
La6 O48 2.387967 1_554
La6 O124 2.472400 1_555
La6 O120 2.481129 1_555
La7 O53 2.274378 1_554
La7 O123 2.288980 1_555
La7 O125 2.331372 1_555
La7 O49 2.391579 1_554
La7 O51 2.511739 1_554
La7 O121 2.604819 1_555
La8 O56 2.264626 1_555
La8 O130 2.274564 1_555
La8 O54 2.378435 1_555
La8 O58 2.418618 1_555
La8 O128 2.538906 1_555
La8 O126 2.608115 1_555
La9 O57 2.275872 1_555
La9 O55 2.379089 1_555
La9 O59 2.379903 1_555
La9 O131 2.380476 1_555
La9 O129 2.476759 1_555
La9 O127 2.496484 1_555
La10 O62 2.231491 1_555
La10 O134 2.245861 1_555
La10 O132 2.304994 1_555
La10 O64 2.410917 1_555
La10 O136 2.498221 1_555
La10 O60 2.611015 1_555
La11 O71 2.223591 1_555
La11 O143 2.250299 1_555
La11 O139 2.317940 1_555
La11 O69 2.356874 1_555
La11 O141 2.593691 1_555
La11 O67 2.612907 1_555
Ga0 O0 1.862080 1_665
Ga0 O75 1.960430 1_555
Ga0 O3 1.968660 1_555
Ga0 O76 2.125360 1_665
Ga0 O72 2.175548 1_555
Ga0 O5 2.241960 1_565
Ga1 O2 1.917786 1_545
Ga1 O1 1.991207 1_555
Ga1 O77 2.009993 1_555
Ga1 O74 2.048473 1_545
Ga1 O4 2.064292 1_555
Ga1 O73 2.128859 1_545
Ga2 O11 1.897956 1_455
Ga2 O80 1.968595 1_565
Ga2 O83 2.024040 1_455
Ga2 O9 2.063156 1_555
Ga2 O6 2.098588 1_565
Ga2 O78 2.118145 1_565
Ga3 O7 1.871108 1_555
Ga3 O10 1.965974 1_555
Ga3 O82 1.971928 1_545
Ga3 O81 1.993377 1_555
Ga3 O79 2.177202 1_555
Ga3 O8 2.325223 1_545
Ga4 O24 1.882904 1_555
Ga4 O96 1.959238 1_555
Ga4 O98 1.991954 1_555
Ga4 O26 2.060766 1_555
Ga4 O100 2.200399 1_555
Ga4 O28 2.270525 1_555
Ga5 O33 1.896817 1_555
Ga5 O31 1.902808 1_555
Ga5 O35 2.068714 1_555
Ga5 O103 2.089231 1_555
Ga5 O107 2.194514 1_555
Ga5 O105 2.323866 1_555
Ga6 O38 1.877363 1_556
Ga6 O108 1.926030 1_555
Ga6 O36 2.012037 1_556
Ga6 O112 2.016628 1_555
Ga6 O110 2.108219 1_555
Ga6 O40 2.363379 1_556
Ga7 O41 1.878017 1_556
Ga7 O39 1.909546 1_556
Ga7 O109 1.939317 1_555
Ga7 O37 2.057150 1_556
Ga7 O113 2.088640 1_555
Ga8 O46 1.853584 1_555
Ga8 O114 1.905545 1_555
Ga8 O116 1.943743 1_555
Ga8 O42 2.052291 1_555
Ga8 O44 2.177055 1_555
Ga8 O118 2.355870 1_555
Ga9 O47 1.883605 1_555
Ga9 O115 1.925452 1_555
Ga9 O117 2.002957 1_555
Ga9 O43 2.040960 1_555
Ga9 O119 2.107292 1_555
Ga9 O45 2.383533 1_555
Ga10 O135 1.847848 1_555
Ga10 O63 1.857534 1_555
Ga10 O133 2.007607 1_555
Ga10 O65 2.028405 1_555
Ga10 O137 2.331058 1_555
Ga11 O70 1.861082 1_555
Ga11 O142 1.865279 1_555
Ga11 O68 2.018718 1_555
Ga11 O138 2.059287 1_555
Ga11 O140 2.310142 1_555
Ga11 O66 2.456751 1_555
O0 Si0 1.661749 1_545
O1 Si1 1.658346 1_545
O2 Si2 1.654301 1_555
O3 Si3 1.649703 1_555
O4 S1 1.487073 1_555
O5 S0 1.492505 1_555
O6 Si4 1.650792 1_555
O7 Si5 1.650511 1_555
O8 S3 1.484463 1_555
O9 S2 1.481111 1_555
O10 Si6 1.637483 1_545
O11 Si7 1.649334 1_565
O12 Si6 1.633162 1_555
O13 Si7 1.644552 1_565
O14 Si4 1.642348 1_555
O15 Si5 1.651944 1_555
O16 S2 1.479383 1_555
O17 S3 1.472382 1_555
O18 Si2 1.633595 1_555
O19 Si3 1.626650 1_555
O20 S0 1.460001 1_455
O21 S1 1.476193 1_555
O22 Si0 1.632331 1_545
O23 Si1 1.645730 1_555
O24 Si8 1.670636 1_555
O25 Si9 1.627605 1_555
O26 S4 1.492387 1_555
O27 S5 1.470878 1_555
O28 S6 1.482978 1_555
O29 S7 1.471012 1_555
O30 Si10 1.630039 1_555
O31 Si11 1.657736 1_555
O32 S8 1.467469 1_555
O33 Si12 1.661452 1_555
O34 S9 1.466259 1_555
O35 S10 1.492329 1_555
O36 S9 1.499840 1_555
O37 S10 1.483489 1_555
O38 Si10 1.673835 1_555
O39 Si11 1.635475 1_555
O40 S8 1.487291 1_555
O41 Si12 1.650562 1_555
O42 S4 1.483640 1_555
O43 S5 1.495817 1_555
O44 S6 1.483446 1_555
O45 S7 1.481734 1_555
O46 Si8 1.639699 1_555
O47 Si9 1.672720 1_555
O48 Si13 1.631384 1_555
O49 Si14 1.643672 1_555
O50 S11 1.482033 1_555
O51 S12 1.466982 1_555
O52 Si15 1.640068 1_555
O53 Si16 1.643532 1_555
O54 Si17 1.641377 1_555
O55 Si18 1.632995 1_555
O56 Si19 1.642783 1_555
O57 Si20 1.646377 1_555
O58 S13 1.474184 1_555
O59 S14 1.481318 1_555
O60 S13 1.475846 1_555
O61 S14 1.476615 1_555
O62 Si17 1.643887 1_555
O63 Si18 1.646896 1_555
O64 Si19 1.642984 1_555
O65 Si20 1.677336 1_555
O66 S11 1.487059 1_555
O67 S12 1.479417 1_555
O68 Si15 1.682712 1_555
O69 Si16 1.638226 1_555
O70 Si13 1.652655 1_555
O71 Si14 1.642280 1_555
O72 S13 1.489089 1_655
O73 S14 1.495819 1_555
O74 Si17 1.649662 1_555
O75 Si18 1.656749 1_555
O76 Si19 1.657247 1_555
O77 Si20 1.649408 1_555
O78 S11 1.495061 1_555
O79 S12 1.493884 1_555
O80 Si15 1.641260 1_545
O81 Si16 1.666863 1_545
O82 Si13 1.651352 1_555
O83 Si14 1.657145 1_555
O84 Si8 1.680618 1_555
O85 Si9 1.675405 1_555
O86 S4 1.481060 1_555
O87 S5 1.489276 1_555
O88 S6 1.488576 1_555
O89 S7 1.491236 1_555
O90 Si10 1.675817 1_555
O91 Si11 1.671433 1_555
O92 S8 1.489629 1_555
O93 Si12 1.638498 1_555
O94 S9 1.479174 1_555
O95 S10 1.488315 1_555
O96 Si6 1.671814 1_545
O97 Si7 1.655239 1_555
O98 Si4 1.685528 1_555
O99 Si5 1.641596 1_555
O100 S3 1.508466 1_555
O101 S2 1.478503 1_655
O102 Si2 1.653176 1_555
O103 Si3 1.672834 1_555
O104 S1 1.480419 1_555
O105 S0 1.498286 1_555
O106 Si0 1.649032 1_545
O107 Si1 1.659631 1_545
O108 Si13 1.665440 1_555
O109 Si14 1.656377 1_555
O110 S12 1.500930 1_555
O111 S11 1.479058 1_655
O112 Si15 1.677591 1_545
O113 Si16 1.654639 1_545
O114 Si17 1.654806 1_545
O115 Si18 1.665151 1_545
O116 Si19 1.677751 1_555
O117 Si20 1.674554 1_555
O118 S14 1.493467 1_555
O119 S13 1.497485 1_655
O120 S9 1.482382 1_555
O121 S10 1.481742 1_555
O122 Si11 1.670003 1_455
O123 Si10 1.633404 1_555
O124 S8 1.508408 1_565
O125 Si12 1.671340 1_565
O126 S4 1.488728 1_565
O127 S5 1.480847 1_565
O128 S6 1.514871 1_555
O129 S7 1.513511 1_555
O130 Si9 1.650175 1_455
O131 Si8 1.655465 1_555
O132 Si0 1.641750 1_555
O133 Si1 1.681910 1_555
O134 Si2 1.648389 1_555
O135 Si3 1.655781 1_555
O136 S0 1.483955 1_455
O137 S1 1.493139 1_555
O138 Si4 1.671674 1_555
O139 Si5 1.635054 1_555
O140 S2 1.497602 1_555
O141 S3 1.480228 1_555
O142 Si6 1.646361 1_555
O143 Si7 1.643380 1_565
