# generated using pymatgen
data_RbTiPO5
_symmetry_space_group_name_H-M   'P 1'
_cell_length_a   8.03315531
_cell_length_b   11.34473686
_cell_length_c   10.39160626
_cell_angle_alpha   90.00000000
_cell_angle_beta   90.00000000
_cell_angle_gamma   90.00000000
_symmetry_Int_Tables_number   1
_chemical_formula_structural   RbTiPO5
_chemical_formula_sum   'Rb8 Ti8 P8 O40'
_cell_volume   947.02898935
_cell_formula_units_Z   8
loop_
 _symmetry_equiv_pos_site_id
 _symmetry_equiv_pos_as_xyz
  1  'x, y, z'
loop_
 _atom_site_type_symbol
 _atom_site_label
 _atom_site_symmetry_multiplicity
 _atom_site_fract_x
 _atom_site_fract_y
 _atom_site_fract_z
 _atom_site_occupancy
  Rb  Rb0  1  0.44115086  0.56840322  0.62629866  1
  Rb  Rb1  1  0.94115086  0.06840322  0.87370134  1
  Rb  Rb2  1  0.35278053  0.91366814  0.66529918  1
  Rb  Rb3  1  0.14721947  0.91366814  0.16529918  1
  Rb  Rb4  1  0.55884914  0.06840322  0.37370134  1
  Rb  Rb5  1  0.85278053  0.41366814  0.83470082  1
  Rb  Rb6  1  0.64721947  0.41366814  0.33470082  1
  Rb  Rb7  1  0.05884914  0.56840322  0.12629866  1
  Ti  Ti0  1  0.73019620  0.74788630  0.32838038  1
  Ti  Ti1  1  0.67130920  0.88236663  0.09324529  1
  Ti  Ti2  1  0.23019620  0.24788630  0.17161962  1
  Ti  Ti3  1  0.26980380  0.24788630  0.67161962  1
  Ti  Ti4  1  0.82869080  0.88236663  0.59324529  1
  Ti  Ti5  1  0.17130920  0.38236663  0.40675471  1
  Ti  Ti6  1  0.76980380  0.74788630  0.82838038  1
  Ti  Ti7  1  0.32869080  0.38236663  0.90675471  1
  P  P0  1  0.48111355  0.06402804  0.99335434  1
  P  P1  1  0.40014219  0.70520334  0.25312640  1
  P  P2  1  0.98111355  0.56402804  0.50664566  1
  P  P3  1  0.90014219  0.20520334  0.24687360  1
  P  P4  1  0.59985781  0.20520334  0.74687360  1
  P  P5  1  0.51888645  0.56402804  0.00664566  1
  P  P6  1  0.09985781  0.70520334  0.75312640  1
  P  P7  1  0.01888645  0.06402804  0.49335434  1
  O  O0  1  0.25127945  0.18436492  0.85468249  1
  O  O1  1  0.19245777  0.06567281  0.38891428  1
  O  O2  1  0.15137960  0.54623963  0.41349436  1
  O  O3  1  0.45829193  0.92706832  0.98885633  1
  O  O4  1  0.90816913  0.13683445  0.38889416  1
  O  O5  1  0.68243126  0.87257649  0.73185229  1
  O  O6  1  0.50426653  0.82403314  0.22577157  1
  O  O7  1  0.18317025  0.34967810  0.03650606  1
  O  O8  1  0.75127945  0.68436492  0.64531751  1
  O  O9  1  0.53217988  0.64290325  0.34356858  1
  O  O10  1  0.69245777  0.56567281  0.11108572  1
  O  O11  1  0.10962269  0.14587523  0.59568237  1
  O  O12  1  0.65137960  0.04623963  0.08650564  1
  O  O13  1  0.95829193  0.42706832  0.51114367  1
  O  O14  1  0.89037731  0.64587523  0.40431763  1
  O  O15  1  0.40816913  0.63683445  0.11110584  1
  O  O16  1  0.46782012  0.14290425  0.65643142  1
  O  O17  1  0.18243126  0.37257649  0.76814771  1
  O  O18  1  0.81682975  0.84967810  0.96349394  1
  O  O19  1  0.49573347  0.32403314  0.77422843  1
  O  O20  1  0.00426653  0.32403314  0.27422843  1
  O  O21  1  0.68317025  0.84967810  0.46349394  1
  O  O22  1  0.31756874  0.37257649  0.26814771  1
  O  O23  1  0.03217988  0.14290425  0.15643142  1
  O  O24  1  0.09183087  0.63683445  0.61110584  1
  O  O25  1  0.60962269  0.64587523  0.90431763  1
  O  O26  1  0.54170807  0.42706832  0.01114367  1
  O  O27  1  0.84862040  0.04623963  0.58650564  1
  O  O28  1  0.39037731  0.14587523  0.09568237  1
  O  O29  1  0.80754223  0.56567281  0.61108572  1
  O  O30  1  0.96782012  0.64290325  0.84356858  1
  O  O31  1  0.74872055  0.68436492  0.14531751  1
  O  O32  1  0.31682975  0.34967810  0.53650606  1
  O  O33  1  0.99573347  0.82403314  0.72577157  1
  O  O34  1  0.81756874  0.87257649  0.23185229  1
  O  O35  1  0.59183087  0.13683445  0.88889416  1
  O  O36  1  0.04170807  0.92706832  0.48885633  1
  O  O37  1  0.34862040  0.54623963  0.91349436  1
  O  O38  1  0.30754223  0.06567281  0.88891428  1
  O  O39  1  0.24872055  0.18436492  0.35468249  1
loop_
_geom_bond_atom_site_label_1
_geom_bond_atom_site_label_2
_geom_bond_distance
_geom_bond_site_symmetry_2
O0 O38 1.464226 1_555
O0 Ti3 2.039673 1_555
O0 Ti7 2.392754 1_555
O0 Rb1 2.824248 1_455
O1 O39 1.464226 1_555
O1 P7 1.767022 1_555
O1 Rb3 2.916415 1_545
O1 Rb4 2.947684 1_555
O2 P2 1.687761 1_455
O2 Ti5 1.867291 1_555
O2 Rb7 3.085859 1_555
O2 Rb0 3.220554 1_555
O3 P0 1.565248 1_565
O3 Ti1 2.088567 1_556
O3 Rb3 3.103126 1_556
O4 P7 1.628375 1_655
O4 P3 1.668474 1_555
O4 Rb4 2.915828 1_555
O5 Ti4 1.862094 1_555
O5 Ti6 1.870784 1_555
O5 Rb2 2.776372 1_555
O6 P1 1.611770 1_555
O6 Ti1 2.033510 1_555
O6 Ti0 2.275338 1_555
O6 Rb3 3.107347 1_555
O6 Rb4 3.200164 1_565
O7 Ti7 1.822646 1_554
O7 Ti2 1.856777 1_555
O7 Rb7 2.832893 1_555
O8 Ti6 2.039673 1_555
O8 Ti4 2.392754 1_555
O8 Rb0 2.824248 1_555
O9 P1 1.583627 1_555
O9 Ti0 1.993418 1_555
O9 Rb6 2.761466 1_555
O9 Rb0 3.143409 1_555
O10 O31 1.464226 1_555
O10 P5 1.767022 1_555
O10 Rb6 2.916415 1_555
O10 Rb7 2.947684 1_655
O11 P7 1.588769 1_555
O11 Ti3 1.902042 1_555
O11 Rb1 3.309190 1_455
O12 P0 1.687761 1_554
O12 Ti1 1.867291 1_545
O12 Rb4 3.085859 1_555
O12 Rb1 3.220554 1_554
O13 P2 1.565248 1_555
O13 Ti5 2.088567 1_655
O13 Rb6 3.103126 1_555
O14 P2 1.588769 1_555
O14 Ti0 1.902042 1_555
O14 Rb7 3.309190 1_655
O15 P5 1.628375 1_555
O15 P1 1.668474 1_555
O15 Rb7 2.915828 1_555
O16 P4 1.583622 1_555
O16 Ti3 1.993412 1_555
O16 Rb2 2.761476 1_545
O16 Rb4 3.143412 1_555
O17 Ti7 1.862094 1_555
O17 Ti3 1.870784 1_555
O17 Rb5 2.776372 1_455
O18 Ti1 1.822646 1_556
O18 Ti6 1.856777 1_555
O18 Rb1 2.832893 1_565
O19 P4 1.611770 1_555
O19 Ti7 2.033510 1_555
O19 Ti3 2.275338 1_555
O19 Rb5 3.107347 1_555
O19 Rb0 3.200164 1_555
O20 P3 1.611770 1_455
O20 Ti5 2.033510 1_555
O20 Ti2 2.275338 1_555
O20 Rb6 3.107347 1_455
O20 Rb7 3.200164 1_555
O21 Ti4 1.822646 1_555
O21 Ti0 1.856777 1_555
O21 Rb4 2.832893 1_565
O22 Ti5 1.862094 1_555
O22 Ti2 1.870784 1_555
O22 Rb6 2.776372 1_555
O23 P3 1.583622 1_455
O23 Ti2 1.993412 1_555
O23 Rb3 2.761476 1_545
O23 Rb1 3.143412 1_454
O24 P2 1.628375 1_455
O24 P6 1.668474 1_555
O24 Rb0 2.915828 1_555
O25 P5 1.588769 1_556
O25 Ti6 1.902042 1_555
O25 Rb0 3.309190 1_555
O26 P5 1.565248 1_555
O26 Ti7 2.088567 1_554
O26 Rb5 3.103126 1_554
O27 P7 1.687761 1_655
O27 Ti4 1.867291 1_545
O27 Rb1 3.085859 1_555
O27 Rb4 3.220554 1_555
O28 P0 1.588769 1_554
O28 Ti2 1.902042 1_555
O28 Rb4 3.309190 1_555
O29 O8 1.464226 1_555
O29 P2 1.767022 1_555
O29 Rb5 2.916415 1_555
O29 Rb0 2.947684 1_555
O30 P6 1.583627 1_655
O30 Ti6 1.993418 1_555
O30 Rb5 2.761466 1_555
O30 Rb7 3.143409 1_656
O31 Ti0 2.039673 1_555
O31 Ti1 2.392754 1_555
O31 Rb7 2.824248 1_655
O32 Ti5 1.822646 1_555
O32 Ti3 1.856777 1_555
O32 Rb0 2.832893 1_555
O33 P6 1.611770 1_655
O33 Ti4 2.033510 1_555
O33 Ti6 2.275338 1_555
O33 Rb2 3.107347 1_655
O33 Rb1 3.200164 1_565
O34 Ti1 1.862094 1_555
O34 Ti0 1.870784 1_555
O34 Rb3 2.776372 1_655
O35 P0 1.628375 1_555
O35 P4 1.668474 1_555
O35 Rb1 2.915828 1_555
O36 P7 1.565248 1_565
O36 Ti4 2.088567 1_455
O36 Rb2 3.103126 1_555
O37 P5 1.687761 1_556
O37 Ti7 1.867291 1_555
O37 Rb0 3.085859 1_555
O37 Rb7 3.220554 1_556
O38 P0 1.767022 1_555
O38 Rb2 2.916415 1_545
O38 Rb1 2.947684 1_455
O39 Ti2 2.039673 1_555
O39 Ti5 2.392754 1_555
O39 Rb4 2.824248 1_555
