# generated using pymatgen
data_MgZn2Bi3O8
_symmetry_space_group_name_H-M   'P 1'
_cell_length_a   6.79516511
_cell_length_b   8.37964023
_cell_length_c   6.62287131
_cell_angle_alpha   112.39502787
_cell_angle_beta   132.68638126
_cell_angle_gamma   97.39700649
_symmetry_Int_Tables_number   1
_chemical_formula_structural   MgZn2Bi3O8
_chemical_formula_sum   'Mg1 Zn2 Bi3 O8'
_cell_volume   210.67685002
_cell_formula_units_Z   1
loop_
 _symmetry_equiv_pos_site_id
 _symmetry_equiv_pos_as_xyz
  1  'x, y, z'
loop_
 _atom_site_type_symbol
 _atom_site_label
 _atom_site_symmetry_multiplicity
 _atom_site_fract_x
 _atom_site_fract_y
 _atom_site_fract_z
 _atom_site_occupancy
  Mg  Mg0  1  0.00000153  0.50000074  0.50000137  1
  Zn  Zn0  1  0.64149166  0.75709057  0.30322695  1
  Zn  Zn1  1  0.35850763  0.24290871  0.69677225  1
  Bi  Bi0  1  0.49999916  -0.00000088  -0.00000059  1
  Bi  Bi1  1  0.90012540  0.68561543  0.96568561  1
  Bi  Bi2  1  0.09987318  0.31438449  0.03431355  1
  O  O0  1  0.17916384  0.54562217  0.96702597  1
  O  O1  1  0.82083529  0.45437737  0.03297340  1
  O  O2  1  -0.00019863  0.76701853  0.67883719  1
  O  O3  1  0.00019754  0.23298025  0.32116123  1
  O  O4  1  0.49493178  0.29245076  0.11475921  1
  O  O5  1  0.71655758  0.04556696  0.48574204  1
  O  O6  1  0.28344323  0.95443307  0.51425919  1
  O  O7  1  0.50506783  0.70754884  0.88524063  1
loop_
_geom_bond_atom_site_label_1
_geom_bond_atom_site_label_2
_geom_bond_distance
_geom_bond_site_symmetry_2
Mg0 O2 2.095927 1_555
Mg0 O3 2.095936 1_555
Mg0 O7 2.126393 1_555
Mg0 O4 2.126408 1_455
Mg0 O0 2.251302 1_555
Mg0 O1 2.251305 1_455
Bi0 O6 2.271689 1_544
Bi0 O5 2.271691 1_555
Bi0 O2 2.283087 1_544
Bi0 O3 2.283093 1_655
Bi0 O7 2.285260 1_544
Bi0 O4 2.285267 1_555
Bi1 O6 2.116521 1_656
Bi1 O1 2.226717 1_556
Bi1 O0 2.351449 1_655
Bi1 O7 2.405490 1_555
Bi1 O2 2.673273 1_655
Bi2 O5 2.116515 1_454
Bi2 O0 2.226715 1_554
Bi2 O1 2.351445 1_455
Bi2 O4 2.405495 1_555
Bi2 O3 2.673272 1_555
O0 Zn0 2.010577 1_556
O1 Zn1 2.010576 1_554
O2 Zn0 1.923699 1_455
O3 Zn1 1.923700 1_555
O4 Zn1 2.059248 1_554
O5 Zn0 2.045662 1_545
O6 Zn1 2.045660 1_565
O7 Zn0 2.059246 1_556
