# generated using pymatgen
data_K2Zn3O4
_symmetry_space_group_name_H-M   'P 1'
_cell_length_a   5.71988835
_cell_length_b   6.36542834
_cell_length_c   8.02994791
_cell_angle_alpha   113.35054383
_cell_angle_beta   101.73864802
_cell_angle_gamma   90.00000293
_symmetry_Int_Tables_number   1
_chemical_formula_structural   K2Zn3O4
_chemical_formula_sum   'K4 Zn6 O8'
_cell_volume   261.74761246
_cell_formula_units_Z   2
loop_
 _symmetry_equiv_pos_site_id
 _symmetry_equiv_pos_as_xyz
  1  'x, y, z'
loop_
 _atom_site_type_symbol
 _atom_site_label
 _atom_site_symmetry_multiplicity
 _atom_site_fract_x
 _atom_site_fract_y
 _atom_site_fract_z
 _atom_site_occupancy
  K  K0  1  0.51325009  0.76014993  0.76341102  1
  K  K1  1  0.98674991  0.99673892  0.23658898  1
  K  K2  1  0.48674991  0.23985007  0.23658898  1
  K  K3  1  0.01325009  0.00326108  0.76341102  1
  Zn  Zn0  1  0.25000000  0.52011553  0.00000000  1
  Zn  Zn1  1  0.75000000  0.47988447  -0.00000000  1
  Zn  Zn2  1  0.08600316  0.57376643  0.38249596  1
  Zn  Zn3  1  0.41399684  0.19127047  0.61750404  1
  Zn  Zn4  1  0.91399684  0.42623357  0.61750404  1
  Zn  Zn5  1  0.58600316  0.80872953  0.38249596  1
  O  O0  1  0.95584593  0.62059157  0.88382625  1
  O  O1  1  0.54415407  0.73676632  0.11617375  1
  O  O2  1  0.04415407  0.37940843  0.11617375  1
  O  O3  1  0.45584593  0.26323368  0.88382625  1
  O  O4  1  0.28355118  0.85991056  0.47201196  1
  O  O5  1  0.21644882  0.38789760  0.52798804  1
  O  O6  1  0.71644882  0.14008944  0.52798804  1
  O  O7  1  0.78355118  0.61210240  0.47201196  1
loop_
_geom_bond_atom_site_label_1
_geom_bond_atom_site_label_2
_geom_bond_distance
_geom_bond_site_symmetry_2
K0 O5 2.685848 1_555
K0 O4 2.744384 1_555
K0 O0 2.796067 1_555
K0 O1 2.864942 1_556
K0 O7 2.911656 1_555
K0 O3 2.995391 1_565
K1 O4 2.685845 1_655
K1 O5 2.744380 1_665
K1 O1 2.796064 1_555
K1 O0 2.864945 1_554
K1 O6 2.911656 1_565
K1 O2 2.995397 1_665
K2 O7 2.685848 1_555
K2 O6 2.744384 1_555
K2 O2 2.796067 1_555
K2 O3 2.864942 1_554
K2 O5 2.911656 1_555
K2 O1 2.995391 1_545
K3 O6 2.685845 1_455
K3 O7 2.744380 1_445
K3 O3 2.796064 1_555
K3 O2 2.864945 1_556
K3 O4 2.911656 1_545
K3 O0 2.995397 1_445
O0 Zn4 1.963591 1_555
O0 Zn0 1.986078 1_656
O0 Zn1 2.041574 1_556
O1 Zn5 1.963592 1_555
O1 Zn0 1.986082 1_555
O1 Zn1 2.041577 1_555
O2 Zn2 1.963591 1_555
O2 Zn1 1.986078 1_455
O2 Zn0 2.041574 1_555
O3 Zn3 1.963592 1_555
O3 Zn1 1.986082 1_556
O3 Zn0 2.041577 1_556
O4 Zn2 1.934614 1_555
O4 Zn5 1.983947 1_555
O4 Zn3 2.015551 1_565
O5 Zn3 1.934609 1_555
O5 Zn4 1.983947 1_455
O5 Zn2 2.015556 1_555
O6 Zn4 1.934614 1_555
O6 Zn3 1.983947 1_555
O6 Zn5 2.015551 1_545
O7 Zn5 1.934609 1_555
O7 Zn2 1.983947 1_655
O7 Zn4 2.015556 1_555
