# generated using pymatgen
data_NaSc2Nb2P5SO24
_symmetry_space_group_name_H-M   'P 1'
_cell_length_a   8.83337207
_cell_length_b   8.83145986
_cell_length_c   22.92701440
_cell_angle_alpha   89.87348800
_cell_angle_beta   89.98657016
_cell_angle_gamma   119.92950250
_symmetry_Int_Tables_number   1
_chemical_formula_structural   NaSc2Nb2P5SO24
_chemical_formula_sum   'Na3 Sc6 Nb6 P15 S3 O72'
_cell_volume   1550.04269066
_cell_formula_units_Z   3
loop_
 _symmetry_equiv_pos_site_id
 _symmetry_equiv_pos_as_xyz
  1  'x, y, z'
loop_
 _atom_site_type_symbol
 _atom_site_label
 _atom_site_symmetry_multiplicity
 _atom_site_fract_x
 _atom_site_fract_y
 _atom_site_fract_z
 _atom_site_occupancy
  Na  Na0  1  0.00019269  0.99950096  0.00497727  1
  Na  Na1  1  0.66652543  0.33264411  0.83287308  1
  Na  Na2  1  0.66752499  0.33182465  0.33906581  1
  Sc  Sc0  1  0.99414477  0.99410160  0.64619776  1
  Sc  Sc1  1  0.00599204  0.00443416  0.14718303  1
  Sc  Sc2  1  0.66401471  0.33998001  0.68825135  1
  Sc  Sc3  1  0.66710872  0.33409580  0.97724745  1
  Sc  Sc4  1  0.66958816  0.34003709  0.47993377  1
  Sc  Sc5  1  0.32838973  0.66728676  0.31093731  1
  Nb  Nb0  1  0.00685488  0.00909701  0.35957967  1
  Nb  Nb1  1  0.99962759  0.00018058  0.85472226  1
  Nb  Nb2  1  0.66579409  0.32691792  0.18679049  1
  Nb  Nb3  1  0.33181121  0.66589531  0.02549434  1
  Nb  Nb4  1  0.33869745  0.66850136  0.51982998  1
  Nb  Nb5  1  0.33407362  0.66658761  0.80917951  1
  P  P0  1  0.28744172  0.00284078  0.25024128  1
  P  P1  1  0.99850461  0.28542321  0.25013361  1
  P  P2  1  0.28672602  0.28505645  0.74991612  1
  P  P3  1  0.99840422  0.71205922  0.75054541  1
  P  P4  1  0.71388389  0.00385351  0.75030628  1
  P  P5  1  0.66747269  0.62294847  0.58309542  1
  P  P6  1  0.95045316  0.62105737  0.08179554  1
  P  P7  1  0.66929799  0.04583529  0.08113324  1
  P  P8  1  0.37983632  0.33106570  0.08149084  1
  P  P9  1  0.61754398  0.66785826  0.91645026  1
  P  P10  1  0.04995026  0.38241266  0.91629397  1
  P  P11  1  0.33274366  0.95012293  0.91613045  1
  P  P12  1  0.61959666  0.95554300  0.41460566  1
  P  P13  1  0.33898466  0.38456994  0.41524141  1
  P  P14  1  0.04555594  0.66494198  0.41537187  1
  S  S0  1  0.71370671  0.71015924  0.25037331  1
  S  S1  1  0.95920450  0.33568077  0.58286516  1
  S  S2  1  0.37705118  0.04211517  0.58284048  1
  O  O0  1  0.19779624  0.03360785  0.30481779  1
  O  O1  1  0.82544015  0.79047546  0.30267229  1
  O  O2  1  0.96531132  0.16543647  0.30517441  1
  O  O3  1  0.19051936  0.16873996  0.80529347  1
  O  O4  1  0.97671623  0.80756589  0.80551968  1
  O  O5  1  0.83036285  0.02341729  0.80547045  1
  O  O6  1  0.78950029  0.96852200  0.69652876  1
  O  O7  1  0.17760182  0.20957738  0.69608060  1
  O  O8  1  0.03378195  0.82219025  0.69648000  1
  O  O9  1  0.79297408  0.81140252  0.19738355  1
  O  O10  1  0.01589834  0.19878458  0.19569551  1
  O  O11  1  0.18110495  0.97919678  0.19582051  1
  O  O12  1  0.88272577  0.36891324  0.63517997  1
  O  O13  1  0.48721144  0.11498575  0.63520622  1
  O  O14  1  0.62717049  0.50652722  0.63754692  1
  O  O15  1  0.86285744  0.50322454  0.13734436  1
  O  O16  1  0.63967743  0.13399154  0.13726692  1
  O  O17  1  0.49535132  0.35878240  0.13704994  1
  O  O18  1  0.46426259  0.30639120  0.02768303  1
  O  O19  1  0.84234563  0.53688733  0.02788540  1
  O  O20  1  0.69565244  0.15739701  0.02790741  1
  O  O21  1  0.45980270  0.14759212  0.53061709  1
  O  O22  1  0.69100769  0.53632605  0.52907161  1
  O  O23  1  0.85160968  0.30855146  0.53088862  1
  O  O24  1  0.53145863  0.69508393  0.97137464  1
  O  O25  1  0.16318690  0.46814669  0.97129579  1
  O  O26  1  0.30503476  0.83648391  0.97125536  1
  O  O27  1  0.53209527  0.83844341  0.47032159  1
  O  O28  1  0.30771932  0.46951124  0.47047128  1
  O  O29  1  0.16094076  0.69524237  0.47053202  1
  O  O30  1  0.12837426  0.63818187  0.36167607  1
  O  O31  1  0.50981766  0.87092001  0.36150669  1
  O  O32  1  0.36441362  0.49223668  0.36145984  1
  O  O33  1  0.14405886  0.49326325  0.86215352  1
  O  O34  1  0.34950895  0.85609338  0.86209599  1
  O  O35  1  0.50702779  0.65100447  0.86223804  1
  O  O36  1  0.03087742  0.83483042  0.40610765  1
  O  O37  1  0.80213042  0.96589673  0.40635256  1
  O  O38  1  0.16524742  0.20035052  0.40851382  1
  O  O39  1  0.03634536  0.19895987  0.90924382  1
  O  O40  1  0.16283046  0.96373501  0.90902335  1
  O  O41  1  0.80099028  0.83733300  0.90921474  1
  O  O42  1  0.98694908  0.18661487  0.59024912  1
  O  O43  1  0.20212215  0.01846172  0.59018067  1
  O  O44  1  0.82092668  0.80664313  0.59115601  1
  O  O45  1  0.97994560  0.80428214  0.09030854  1
  O  O46  1  0.82146148  0.01449960  0.09024181  1
  O  O47  1  0.19516494  0.17785395  0.08899148  1
  O  O48  1  0.69170846  0.16357910  0.74729260  1
  O  O49  1  0.46859865  0.30506450  0.74826280  1
  O  O50  1  0.83832093  0.52972932  0.74791024  1
  O  O51  1  0.69828536  0.53069388  0.24403578  1
  O  O52  1  0.82656125  0.30116261  0.24270147  1
  O  O53  1  0.47307946  0.17615267  0.24264593  1
  O  O54  1  0.63952239  0.50780243  0.91954485  1
  O  O55  1  0.86818988  0.36072882  0.91960395  1
  O  O56  1  0.49267839  0.13174905  0.91958718  1
  O  O57  1  0.65006799  0.13841884  0.42495530  1
  O  O58  1  0.48897714  0.34899078  0.42373504  1
  O  O59  1  0.86195289  0.51010054  0.42371488  1
  O  O60  1  0.36738476  0.50249388  0.07384010  1
  O  O61  1  0.13427512  0.63316350  0.07388351  1
  O  O62  1  0.49708260  0.86428186  0.07387582  1
  O  O63  1  0.35747577  0.86261797  0.57295799  1
  O  O64  1  0.49877942  0.64135283  0.57022661  1
  O  O65  1  0.13634047  0.49728283  0.57264610  1
  O  O66  1  0.31969290  0.85269183  0.25974868  1
  O  O67  1  0.53935288  0.68576168  0.25808224  1
  O  O68  1  0.15221035  0.46513640  0.25952882  1
  O  O69  1  0.30649915  0.46808523  0.76323875  1
  O  O70  1  0.16237649  0.69364312  0.76355014  1
  O  O71  1  0.53191281  0.83879504  0.76345486  1
loop_
_geom_bond_atom_site_label_1
_geom_bond_atom_site_label_2
_geom_bond_distance
_geom_bond_site_symmetry_2
Na0 O47 2.542711 1_565
Na0 O45 2.551296 1_455
Na0 O46 2.557345 1_465
Na0 O39 2.728311 1_564
Na0 O40 2.730903 1_554
Na0 O41 2.732917 1_454
Na1 O49 2.541238 1_555
Na1 O48 2.544175 1_555
Na1 O50 2.544570 1_555
Na1 O56 2.592833 1_555
Na1 O55 2.598427 1_555
Na1 O54 2.603847 1_555
Na2 O59 2.551825 1_555
Na2 O58 2.552889 1_555
Na2 O57 2.557561 1_555
Na2 O52 2.703492 1_555
Na2 O53 2.717715 1_555
Na2 O51 2.722505 1_555
Nb0 O38 1.928755 1_555
Nb0 O36 1.967315 1_545
Nb0 O37 1.968417 1_445
Nb0 O2 2.023636 1_455
Nb0 O0 2.025215 1_555
Nb0 O1 2.218729 1_445
Nb1 O3 1.957156 1_655
Nb1 O5 1.964358 1_555
Nb1 O4 1.967785 1_545
Nb1 O41 2.044731 1_545
Nb1 O39 2.047259 1_655
Nb1 O40 2.047908 1_645
Nb2 O16 1.965162 1_555
Nb2 O15 2.006581 1_555
Nb2 O52 2.008371 1_555
Nb2 O53 2.010059 1_555
Nb2 O17 2.017093 1_555
Nb2 O51 2.130454 1_555
Nb3 O61 1.963016 1_555
Nb3 O60 1.963518 1_555
Nb3 O62 1.971896 1_555
Nb3 O26 2.054131 1_554
Nb3 O25 2.056060 1_554
Nb3 O24 2.064003 1_554
Nb4 O64 1.931313 1_555
Nb4 O27 1.972933 1_555
Nb4 O28 1.993221 1_555
Nb4 O29 2.041674 1_555
Nb4 O63 2.043452 1_555
Nb4 O65 2.059540 1_555
Nb5 O71 1.950892 1_555
Nb5 O70 1.952701 1_555
Nb5 O69 1.955545 1_555
Nb5 O35 2.010662 1_555
Nb5 O33 2.015562 1_555
Nb5 O34 2.018119 1_555
O0 P0 1.575541 1_555
O1 S0 1.490210 1_555
O2 P1 1.576444 1_555
O3 P2 1.584939 1_555
O4 P3 1.581947 1_555
O5 P4 1.585013 1_555
O6 P4 1.507644 1_565
O6 Sc0 2.059312 1_555
O7 P2 1.503326 1_555
O7 Sc0 2.118638 1_445
O8 P3 1.507098 1_455
O8 Sc0 2.068698 1_455
O9 S0 1.461433 1_555
O9 Sc1 2.135629 1_665
O10 P1 1.512698 1_455
O10 Sc1 2.012305 1_555
O11 P0 1.512831 1_565
O11 Sc1 2.007386 1_565
O12 S1 1.476538 1_555
O12 Sc2 2.187051 1_555
O13 S2 1.477003 1_555
O13 Sc2 2.186633 1_555
O14 P5 1.539893 1_555
O14 Sc2 2.022636 1_555
O15 P6 1.579179 1_555
O16 P7 1.593251 1_555
O17 P8 1.573669 1_555
O18 P8 1.512771 1_555
O18 Sc3 2.041541 1_554
O19 P6 1.512764 1_555
O19 Sc3 2.048199 1_554
O20 P7 1.509885 1_555
O20 Sc3 2.057318 1_554
O21 S2 1.466573 1_555
O21 Sc4 2.126109 1_555
O22 P5 1.524911 1_555
O22 Sc4 1.997875 1_555
O23 S1 1.468109 1_555
O23 Sc4 2.114928 1_555
O24 P9 1.550842 1_555
O25 P10 1.553405 1_555
O26 P11 1.553566 1_555
O27 P12 1.579473 1_555
O28 P13 1.566263 1_555
O29 P14 1.561969 1_555
O30 P14 1.509965 1_555
O30 Sc5 2.021256 1_555
O31 P12 1.504110 1_555
O31 Sc5 2.069029 1_555
O32 P13 1.502184 1_555
O32 Sc5 2.077522 1_555
O33 P10 1.540222 1_555
O34 P11 1.540600 1_555
O35 P9 1.541568 1_555
O36 P14 1.582954 1_555
O37 P12 1.580070 1_555
O38 P13 1.592376 1_555
O39 P10 1.572371 1_555
O40 P11 1.572831 1_555
O41 P9 1.572298 1_555
O42 S1 1.463831 1_555
O42 Sc0 2.153667 1_545
O43 S2 1.461939 1_555
O43 Sc0 2.161965 1_445
O44 P5 1.520031 1_555
O44 Sc0 2.038846 1_555
O45 P6 1.518259 1_555
O45 Sc1 2.117139 1_665
O46 P7 1.515882 1_555
O46 Sc1 2.124682 1_655
O47 P8 1.522417 1_555
O47 Sc1 2.086647 1_555
O48 P4 1.519299 1_555
O48 Sc2 2.165710 1_555
O49 P2 1.526541 1_555
O49 Sc2 2.105639 1_555
O50 P3 1.524616 1_555
O50 Sc2 2.118063 1_555
O51 S0 1.528820 1_555
O52 P1 1.601849 1_555
O53 P0 1.598804 1_555
O54 P9 1.521246 1_555
O54 Sc3 2.127722 1_555
O55 P10 1.520959 1_655
O55 Sc3 2.130150 1_555
O56 P11 1.521319 1_545
O56 Sc3 2.139849 1_555
O57 P12 1.518258 1_545
O57 Sc4 2.119598 1_555
O58 P13 1.519012 1_555
O58 Sc4 2.082815 1_555
O59 P14 1.523986 1_655
O59 Sc4 2.061124 1_555
O60 P8 1.581121 1_555
O61 P6 1.583509 1_455
O62 P7 1.574821 1_565
O63 S2 1.523891 1_565
O64 P5 1.604879 1_555
O65 S1 1.519882 1_455
O66 P0 1.504247 1_565
O66 Sc5 2.044845 1_555
O67 S0 1.455416 1_555
O67 Sc5 2.159273 1_555
O68 P1 1.503386 1_455
O68 Sc5 2.058176 1_555
O69 P2 1.567505 1_555
O70 P3 1.564722 1_455
O71 P4 1.568204 1_565
