# generated using pymatgen
data_In2Co
_symmetry_space_group_name_H-M   'P 1'
_cell_length_a   5.16328621
_cell_length_b   5.40356093
_cell_length_c   9.21686418
_cell_angle_alpha   82.35745833
_cell_angle_beta   73.83467859
_cell_angle_gamma   61.46379636
_symmetry_Int_Tables_number   1
_chemical_formula_structural   In2Co
_chemical_formula_sum   'In8 Co4'
_cell_volume   216.97974287
_cell_formula_units_Z   4
loop_
 _symmetry_equiv_pos_site_id
 _symmetry_equiv_pos_as_xyz
  1  'x, y, z'
loop_
 _atom_site_type_symbol
 _atom_site_label
 _atom_site_symmetry_multiplicity
 _atom_site_fract_x
 _atom_site_fract_y
 _atom_site_fract_z
 _atom_site_occupancy
  In  In0  1  0.28318445  0.24979426  0.43322368  1
  In  In1  1  0.46696850  0.24980511  0.06688004  1
  In  In2  1  0.71681555  0.75020574  0.56677632  1
  In  In3  1  0.53303150  0.75019489  0.93311996  1
  In  In4  1  0.28173769  0.43668813  0.74985598  1
  In  In5  1  0.96853212  0.06298244  0.74984971  1
  In  In6  1  0.71826231  0.56331187  0.25014402  1
  In  In7  1  0.03146788  0.93701756  0.25015029  1
  Co  Co0  1  0.25404039  0.74960658  0.49231967  1
  Co  Co1  1  0.99632624  0.74961689  0.00771067  1
  Co  Co2  1  0.74595961  0.25039342  0.50768033  1
  Co  Co3  1  0.00367376  0.25038311  0.99228933  1
loop_
_geom_bond_atom_site_label_1
_geom_bond_atom_site_label_2
_geom_bond_distance
_geom_bond_site_symmetry_2
In0 In2 2.948169 1_545
In0 In2 2.950345 1_455
In0 In4 3.209566 1_555
In0 In5 3.212205 1_455
In0 In1 3.243051 1_555
In0 In7 3.386917 1_545
In0 In6 3.388878 1_455
In0 In7 3.394214 1_645
In0 In6 3.395416 1_555
In1 In3 2.948865 1_544
In1 In3 2.950873 1_554
In1 In4 3.212605 1_554
In1 In5 3.215149 1_554
In1 In7 3.388311 1_645
In1 In6 3.389390 1_555
In1 In7 3.394559 1_545
In1 In6 3.396392 1_455
In2 In6 3.209566 1_555
In2 In7 3.212205 1_655
In2 In3 3.243051 1_555
In2 In5 3.386917 1_565
In2 In4 3.388878 1_655
In2 In5 3.394214 1_465
In2 In4 3.395416 1_555
In3 In6 3.212605 1_556
In3 In7 3.215149 1_556
In3 In5 3.388311 1_465
In3 In4 3.389390 1_555
In3 In5 3.394559 1_565
In3 In4 3.396392 1_655
In4 In5 2.973089 1_465
In4 In5 3.132244 1_555
In4 In5 3.132591 1_455
In6 In7 2.973089 1_645
In6 In7 3.132244 1_555
In6 In7 3.132591 1_655
Co0 In7 2.653935 1_555
Co0 In6 2.655952 1_555
Co0 In2 2.664065 1_455
Co0 In2 2.664850 1_555
Co0 Co2 2.701930 1_555
Co0 Co2 2.708745 1_465
Co0 In4 2.721081 1_555
Co0 In5 2.722198 1_465
Co0 In0 2.751509 1_555
Co0 In0 2.752416 1_565
Co1 In7 2.656059 1_655
Co1 In6 2.657806 1_555
Co1 In3 2.664371 1_654
Co1 In3 2.665132 1_554
Co1 Co3 2.701871 1_654
Co1 Co3 2.708584 1_664
Co1 In4 2.723446 1_654
Co1 In5 2.724647 1_564
Co1 In1 2.751800 1_655
Co1 In1 2.752642 1_565
Co2 In5 2.653935 1_555
Co2 In4 2.655952 1_555
Co2 In0 2.664065 1_655
Co2 In0 2.664850 1_555
Co2 In6 2.721081 1_555
Co2 In7 2.722198 1_645
Co2 In2 2.751509 1_555
Co2 In2 2.752416 1_545
Co3 In5 2.656059 1_455
Co3 In4 2.657806 1_555
Co3 In1 2.664371 1_456
Co3 In1 2.665132 1_556
Co3 In6 2.723446 1_456
Co3 In7 2.724647 1_546
Co3 In3 2.751800 1_455
Co3 In3 2.752642 1_545
