# generated using pymatgen
data_Mo(CO)6
_symmetry_space_group_name_H-M   'P 1'
_cell_length_a   6.36387604
_cell_length_b   11.21369950
_cell_length_c   11.79276814
_cell_angle_alpha   90.00000000
_cell_angle_beta   90.00000000
_cell_angle_gamma   90.00000000
_symmetry_Int_Tables_number   1
_chemical_formula_structural   Mo(CO)6
_chemical_formula_sum   'Mo4 C24 O24'
_cell_volume   841.56251981
_cell_formula_units_Z   4
loop_
 _symmetry_equiv_pos_site_id
 _symmetry_equiv_pos_as_xyz
  1  'x, y, z'
loop_
 _atom_site_type_symbol
 _atom_site_label
 _atom_site_symmetry_multiplicity
 _atom_site_fract_x
 _atom_site_fract_y
 _atom_site_fract_z
 _atom_site_occupancy
  Mo  Mo0  1  0.56268801  0.75000000  0.37233802  1
  Mo  Mo1  1  0.06268701  0.25000000  0.12766298  1
  Mo  Mo2  1  0.43731199  0.25000000  0.62766298  1
  Mo  Mo3  1  0.93731199  0.75000000  0.87233702  1
  C  C0  1  0.06256688  0.88058529  0.77074525  1
  C  C1  1  0.56256788  0.11941471  0.72925475  1
  C  C2  1  0.43743212  0.61941371  0.27074525  1
  C  C3  1  0.93743212  0.38058629  0.22925475  1
  C  C4  1  0.66821803  0.75000000  0.77724489  1
  C  C5  1  0.16821703  0.25000000  0.72275511  1
  C  C6  1  0.33178197  0.25000000  0.22275511  1
  C  C7  1  0.83178197  0.75000000  0.27724389  1
  C  C8  1  0.20806280  0.75000000  0.96639887  1
  C  C9  1  0.70806280  0.25000000  0.53360013  1
  C  C10  1  0.79193620  0.25000000  0.03360013  1
  C  C11  1  0.29193720  0.75000000  0.46639987  1
  C  C12  1  0.81474862  0.62090507  0.97610594  1
  C  C13  1  0.31474862  0.37909493  0.52389406  1
  C  C14  1  0.18525238  0.12090407  0.02389406  1
  C  C15  1  0.68525238  0.87909593  0.47610594  1
  C  C16  1  0.18525238  0.37909493  0.02389406  1
  C  C17  1  0.68525238  0.62090507  0.47610594  1
  C  C18  1  0.81474862  0.87909593  0.97610594  1
  C  C19  1  0.31474862  0.12090407  0.52389406  1
  C  C20  1  0.06256688  0.61941371  0.77074525  1
  C  C21  1  0.56256788  0.38058629  0.72925475  1
  C  C22  1  0.93743212  0.11941471  0.22925475  1
  C  C23  1  0.43743212  0.88058529  0.27074525  1
  O  O0  1  0.86592814  0.45457098  0.28458044  1
  O  O1  1  0.36592814  0.54542902  0.21541956  1
  O  O2  1  0.36592814  0.95457098  0.21541956  1
  O  O3  1  0.13407286  0.95457098  0.71541956  1
  O  O4  1  0.51694558  0.75000000  0.72355425  1
  O  O5  1  0.01694558  0.25000000  0.77644575  1
  O  O6  1  0.48305542  0.25000000  0.27644575  1
  O  O7  1  0.98305442  0.75000000  0.22355325  1
  O  O8  1  0.36115582  0.75000000  0.01832547  1
  O  O9  1  0.86115582  0.25000000  0.48167453  1
  O  O10  1  0.63884518  0.25000000  0.98167353  1
  O  O11  1  0.13884518  0.75000000  0.51832647  1
  O  O12  1  0.74787578  0.54857632  0.03515545  1
  O  O13  1  0.24787578  0.45142268  0.46484555  1
  O  O14  1  0.25212522  0.04857632  0.96484555  1
  O  O15  1  0.75212522  0.95142368  0.53515445  1
  O  O16  1  0.25212522  0.45142268  0.96484555  1
  O  O17  1  0.75212522  0.54857632  0.53515445  1
  O  O18  1  0.74787578  0.95142368  0.03515545  1
  O  O19  1  0.24787578  0.04857632  0.46484555  1
  O  O20  1  0.13407286  0.54542902  0.71541956  1
  O  O21  1  0.63407286  0.45457098  0.78458044  1
  O  O22  1  0.86592814  0.04542902  0.28458044  1
  O  O23  1  0.63407286  0.04542902  0.78458044  1
loop_
_geom_bond_atom_site_label_1
_geom_bond_atom_site_label_2
_geom_bond_distance
_geom_bond_site_symmetry_2
C0 O3 1.149383 1_555
C0 Mo3 2.053047 1_455
C1 O23 1.149381 1_555
C1 Mo2 2.053050 1_555
C2 O1 1.149370 1_555
C2 Mo0 2.053064 1_555
C3 O0 1.149370 1_555
C3 Mo1 2.053055 1_655
C4 O4 1.152234 1_555
C4 Mo3 2.046980 1_555
C5 O5 1.152229 1_555
C5 Mo2 2.046985 1_555
C6 O6 1.152240 1_555
C6 Mo1 2.046985 1_555
C7 O7 1.152234 1_555
C7 Mo0 2.046993 1_555
C8 O8 1.150728 1_556
C8 Mo3 2.049207 1_455
C9 O9 1.150722 1_555
C9 Mo2 2.049213 1_555
C10 O10 1.150717 1_554
C10 Mo1 2.049213 1_655
C11 O11 1.150723 1_555
C11 Mo0 2.049207 1_555
C12 O12 1.150592 1_556
C12 Mo3 2.049756 1_555
C13 O13 1.150577 1_555
C13 Mo2 2.049756 1_555
C14 O14 1.150577 1_554
C14 Mo1 2.049769 1_555
C15 O15 1.150577 1_555
C15 Mo0 2.049760 1_555
C16 O16 1.150577 1_554
C16 Mo1 2.049761 1_555
C17 O17 1.150585 1_555
C17 Mo0 2.049752 1_555
C18 O18 1.150584 1_556
C18 Mo3 2.049764 1_555
C19 O19 1.150577 1_555
C19 Mo2 2.049764 1_555
C20 O20 1.149375 1_555
C20 Mo3 2.053055 1_455
C21 O21 1.149373 1_555
C21 Mo2 2.053058 1_555
C22 O22 1.149378 1_555
C22 Mo1 2.053047 1_655
C23 O2 1.149378 1_555
C23 Mo0 2.053056 1_555
