# generated using pymatgen
data_Na2TaAl3Si2(SO6)4
_symmetry_space_group_name_H-M   'P 1'
_cell_length_a   8.52597202
_cell_length_b   8.49443521
_cell_length_c   22.14577674
_cell_angle_alpha   90.17431236
_cell_angle_beta   89.32549389
_cell_angle_gamma   119.99505404
_symmetry_Int_Tables_number   1
_chemical_formula_structural   Na2TaAl3Si2(SO6)4
_chemical_formula_sum   'Na6 Ta3 Al9 Si6 S12 O72'
_cell_volume   1388.95817390
_cell_formula_units_Z   3
loop_
 _symmetry_equiv_pos_site_id
 _symmetry_equiv_pos_as_xyz
  1  'x, y, z'
loop_
 _atom_site_type_symbol
 _atom_site_label
 _atom_site_symmetry_multiplicity
 _atom_site_fract_x
 _atom_site_fract_y
 _atom_site_fract_z
 _atom_site_occupancy
  Na  Na0  1  0.00159821  0.99252098  0.49767865  1
  Na  Na1  1  0.99971308  0.97980905  0.99859725  1
  Na  Na2  1  0.64400747  0.32699107  0.83165402  1
  Na  Na3  1  0.68536370  0.33920147  0.33195401  1
  Na  Na4  1  0.31739194  0.65614122  0.15878873  1
  Na  Na5  1  0.32911166  0.65401343  0.66595150  1
  Ta  Ta0  1  0.66800479  0.34844160  0.97848801  1
  Ta  Ta1  1  0.31260663  0.65313346  0.31002133  1
  Ta  Ta2  1  0.34416914  0.66576981  0.81238531  1
  Al  Al0  1  0.99354403  0.99287512  0.35192452  1
  Al  Al1  1  0.01858279  0.00116885  0.85771494  1
  Al  Al2  1  0.00602462  0.00895601  0.64921569  1
  Al  Al3  1  0.00133532  0.00240266  0.14337347  1
  Al  Al4  1  0.65601196  0.33343319  0.68780125  1
  Al  Al5  1  0.69436811  0.33836585  0.18610179  1
  Al  Al6  1  0.67587365  0.34000835  0.48062158  1
  Al  Al7  1  0.33526486  0.68490313  0.02019961  1
  Al  Al8  1  0.32352612  0.67340167  0.51715448  1
  Si  Si0  1  0.98007822  0.25819640  0.24908329  1
  Si  Si1  1  0.28266576  0.27488398  0.74749032  1
  Si  Si2  1  0.97161089  0.63450917  0.08715945  1
  Si  Si3  1  0.62977549  0.68868171  0.92055724  1
  Si  Si4  1  0.32827423  0.95339995  0.91880107  1
  Si  Si5  1  0.03341224  0.67258570  0.42156277  1
  S  S0  1  0.28958395  0.01153914  0.24874883  1
  S  S1  1  0.71832842  0.71125600  0.24951457  1
  S  S2  1  0.99229893  0.71141015  0.74640435  1
  S  S3  1  0.72243726  0.00955383  0.74667630  1
  S  S4  1  0.95149089  0.33110357  0.58355998  1
  S  S5  1  0.38210122  0.04657310  0.58245148  1
  S  S6  1  0.66576153  0.62367355  0.58300841  1
  S  S7  1  0.66772113  0.04362505  0.08624132  1
  S  S8  1  0.37771466  0.33416306  0.08810277  1
  S  S9  1  0.04990172  0.37568039  0.91835304  1
  S  S10  1  0.62135789  0.95602306  0.42004096  1
  S  S11  1  0.33452604  0.37689889  0.42060992  1
  O  O0  1  0.20814555  0.02989415  0.30513513  1
  O  O1  1  0.82539749  0.78689717  0.30475522  1
  O  O2  1  0.96914538  0.15682384  0.31146129  1
  O  O3  1  0.18595768  0.15949456  0.80718905  1
  O  O4  1  0.95800322  0.78440816  0.80148454  1
  O  O5  1  0.82013148  0.03103234  0.80150416  1
  O  O6  1  0.79728872  0.96949319  0.69171282  1
  O  O7  1  0.16692867  0.19789277  0.68668609  1
  O  O8  1  0.01947523  0.82194085  0.69134737  1
  O  O9  1  0.79652099  0.82255392  0.19554076  1
  O  O10  1  0.02860998  0.18239432  0.19016927  1
  O  O11  1  0.17554852  0.96483662  0.19561677  1
  O  O12  1  0.86791736  0.36224204  0.63787121  1
  O  O13  1  0.49380900  0.13032296  0.63640640  1
  O  O14  1  0.63538321  0.51006059  0.63732112  1
  O  O15  1  0.86971160  0.50422896  0.14363569  1
  O  O16  1  0.63259481  0.12583782  0.14012306  1
  O  O17  1  0.49000832  0.35469778  0.14048589  1
  O  O18  1  0.45777594  0.30064611  0.03096454  1
  O  O19  1  0.83953867  0.53685204  0.02698104  1
  O  O20  1  0.69473897  0.15362291  0.03103413  1
  O  O21  1  0.46672631  0.16102937  0.52812533  1
  O  O22  1  0.69657301  0.54044776  0.52869805  1
  O  O23  1  0.84051368  0.30409589  0.52946968  1
  O  O24  1  0.52491764  0.69508397  0.97937027  1
  O  O25  1  0.15796427  0.45675242  0.97186860  1
  O  O26  1  0.29542005  0.83019894  0.97622374  1
  O  O27  1  0.53758667  0.83765730  0.47387472  1
  O  O28  1  0.30865139  0.46778737  0.47380883  1
  O  O29  1  0.16714050  0.70649254  0.47697109  1
  O  O30  1  0.13181432  0.63544575  0.36037890  1
  O  O31  1  0.51267152  0.87536063  0.36479256  1
  O  O32  1  0.37273276  0.49268696  0.36445007  1
  O  O33  1  0.12561145  0.48985295  0.86200879  1
  O  O34  1  0.36093076  0.86577165  0.85556411  1
  O  O35  1  0.50142207  0.63086888  0.85844627  1
  O  O36  1  0.01949300  0.85123125  0.40639213  1
  O  O37  1  0.80282904  0.97729603  0.41324572  1
  O  O38  1  0.17027984  0.20090688  0.41263513  1
  O  O39  1  0.02539568  0.19642077  0.90899257  1
  O  O40  1  0.15858491  0.98122334  0.91149032  1
  O  O41  1  0.81884979  0.86056097  0.90408831  1
  O  O42  1  0.96564290  0.16363138  0.58880526  1
  O  O43  1  0.19686093  0.02106635  0.58834503  1
  O  O44  1  0.83005605  0.80689941  0.59028177  1
  O  O45  1  0.98398737  0.83101757  0.09323845  1
  O  O46  1  0.83300297  0.03068464  0.09162119  1
  O  O47  1  0.19740635  0.17018701  0.09109723  1
  O  O48  1  0.70370101  0.17225412  0.73738321  1
  O  O49  1  0.48812019  0.30665496  0.74059120  1
  O  O50  1  0.83506189  0.52520149  0.73781704  1
  O  O51  1  0.68345928  0.52396346  0.24336391  1
  O  O52  1  0.81240892  0.29574959  0.24505608  1
  O  O53  1  0.46887459  0.17263911  0.24126725  1
  O  O54  1  0.64875986  0.50353871  0.92276609  1
  O  O55  1  0.86802366  0.36002717  0.92287102  1
  O  O56  1  0.51782110  0.14914815  0.92453903  1
  O  O57  1  0.63269922  0.13471006  0.42856581  1
  O  O58  1  0.49449447  0.35501218  0.42756744  1
  O  O59  1  0.83925814  0.48758501  0.42719219  1
  O  O60  1  0.36554275  0.49802589  0.07981194  1
  O  O61  1  0.16233844  0.64023095  0.07650001  1
  O  O62  1  0.50757805  0.86113857  0.08099592  1
  O  O63  1  0.36868563  0.86442918  0.57650321  1
  O  O64  1  0.50207194  0.64216864  0.57536144  1
  O  O65  1  0.13699016  0.49349856  0.57654198  1
  O  O66  1  0.31893752  0.84668434  0.25644252  1
  O  O67  1  0.53663008  0.70048184  0.25864051  1
  O  O68  1  0.17061725  0.47132768  0.25649420  1
  O  O69  1  0.30504492  0.48285939  0.75295034  1
  O  O70  1  0.15855334  0.69587910  0.75085528  1
  O  O71  1  0.53309298  0.84466713  0.75022051  1
loop_
_geom_bond_atom_site_label_1
_geom_bond_atom_site_label_2
_geom_bond_distance
_geom_bond_site_symmetry_2
Na0 O36 2.389910 1_555
Na0 O38 2.481904 1_565
Na0 O37 2.497800 1_455
Na0 O44 2.544443 1_455
Na0 O43 2.556181 1_565
Na0 O42 2.586947 1_465
Na1 O40 2.340620 1_655
Na1 O45 2.418325 1_556
Na1 O41 2.507149 1_555
Na1 O39 2.642040 1_665
Na1 O47 2.643532 1_666
Na1 O46 2.644014 1_566
Na2 O49 2.386348 1_555
Na2 O56 2.452077 1_555
Na2 O54 2.498944 1_555
Na2 O48 2.640515 1_555
Na2 O50 2.646898 1_555
Na2 O55 2.712722 1_555
Na3 O52 2.315009 1_555
Na3 O59 2.480749 1_555
Na3 O51 2.521396 1_555
Na3 O53 2.626969 1_555
Na3 O57 2.648909 1_555
Na3 O58 2.699163 1_555
Na4 O61 2.227877 1_555
Na4 O60 2.356177 1_555
Na4 O62 2.399761 1_555
Na4 O68 2.589415 1_555
Na4 O66 2.693486 1_555
Na4 O67 2.813180 1_555
Na5 O69 2.361625 1_555
Na5 O70 2.495014 1_555
Na5 O64 2.507386 1_555
Na5 O65 2.507913 1_555
Na5 O71 2.524282 1_555
Na5 O63 2.575910 1_555
Al0 O2 1.757091 1_565
Al0 O36 1.798013 1_655
Al0 O1 1.929751 1_555
Al0 O0 1.975448 1_665
Al0 O37 2.059034 1_555
Al0 O38 2.138172 1_665
Al1 O40 1.763138 1_545
Al1 O3 1.774771 1_555
Al1 O41 1.820388 1_445
Al1 O39 1.984312 1_555
Al1 O4 2.063497 1_445
Al1 O5 2.226532 1_455
Al2 O7 1.721524 1_555
Al2 O6 1.879188 1_445
Al2 O8 1.897634 1_545
Al2 O42 2.026933 1_455
Al2 O43 2.063239 1_555
Al2 O44 2.087576 1_445
Al3 O10 1.762447 1_555
Al3 O45 1.775596 1_445
Al3 O47 1.936077 1_555
Al3 O46 1.953504 1_455
Al3 O9 2.003456 1_445
Al3 O11 2.040401 1_545
Al4 O49 1.761863 1_555
Al4 O50 1.937340 1_555
Al4 O14 1.952027 1_555
Al4 O48 1.954930 1_555
Al4 O13 1.955538 1_555
Al4 O12 2.014760 1_555
Al5 O15 1.724357 1_555
Al5 O52 1.801819 1_555
Al5 O16 1.903704 1_555
Al5 O51 2.057652 1_555
Al5 O17 2.087957 1_555
Al5 O53 2.102278 1_555
Al6 O59 1.770937 1_555
Al6 O23 1.923443 1_555
Al6 O22 1.938191 1_555
Al6 O21 1.962856 1_555
Al6 O57 1.965087 1_555
Al6 O58 2.007212 1_555
Al7 O26 1.738227 1_554
Al7 O24 1.807179 1_554
Al7 O61 1.809008 1_555
Al7 O62 2.011836 1_555
Al7 O25 2.069517 1_554
Al7 O60 2.181711 1_555
Al8 O29 1.747255 1_555
Al8 O27 1.901888 1_555
Al8 O28 1.938882 1_555
Al8 O63 1.970536 1_555
Al8 O65 2.031584 1_555
Al8 O64 2.121656 1_555
O0 S0 1.467093 1_555
O1 S1 1.475738 1_555
O2 Si0 1.606994 1_555
O3 Si1 1.600820 1_555
O4 S2 1.458142 1_555
O5 S3 1.439405 1_555
O6 S3 1.483576 1_565
O7 Si1 1.611000 1_555
O8 S2 1.484808 1_455
O9 S1 1.457706 1_555
O10 Si0 1.592677 1_455
O11 S0 1.457953 1_565
O12 S4 1.480086 1_555
O13 S5 1.478204 1_555
O14 S6 1.481548 1_555
O15 Si2 1.601653 1_555
O16 S7 1.482184 1_555
O17 S8 1.466546 1_555
O18 S8 1.523138 1_555
O18 Ta0 1.988550 1_554
O19 Si2 1.681322 1_555
O19 Ta0 1.881443 1_554
O20 S7 1.485258 1_555
O20 Ta0 2.130684 1_554
O21 S5 1.482758 1_555
O22 S6 1.479347 1_555
O23 S4 1.480127 1_555
O24 Si3 1.587258 1_555
O25 S9 1.453971 1_555
O26 Si4 1.580325 1_555
O27 S10 1.487146 1_555
O28 S11 1.480323 1_555
O29 Si5 1.609675 1_555
O30 Si5 1.695468 1_555
O30 Ta1 1.836098 1_555
O31 S10 1.487254 1_555
O31 Ta1 2.181639 1_555
O32 S11 1.515866 1_555
O32 Ta1 2.072755 1_555
O33 S9 1.508868 1_555
O33 Ta2 2.022536 1_555
O34 Si4 1.668678 1_555
O34 Ta2 1.889880 1_555
O35 Si3 1.680692 1_555
O35 Ta2 1.832330 1_555
O36 Si5 1.616739 1_555
O37 S10 1.471164 1_555
O38 S11 1.462237 1_555
O39 S9 1.444391 1_555
O40 Si4 1.588343 1_555
O41 Si3 1.580977 1_555
O42 S4 1.491559 1_555
O43 S5 1.487116 1_555
O44 S6 1.494804 1_555
O45 Si2 1.624326 1_555
O46 S7 1.473431 1_555
O47 S8 1.471401 1_555
O48 S3 1.483635 1_555
O49 Si1 1.638873 1_555
O50 S2 1.489724 1_555
O51 S1 1.471315 1_555
O52 Si0 1.616301 1_555
O53 S0 1.463110 1_555
O54 Si3 1.660452 1_555
O54 Ta0 1.875153 1_555
O55 S9 1.490836 1_655
O55 Ta0 2.053884 1_555
O56 Si4 1.646036 1_545
O56 Ta0 1.946590 1_555
O57 S10 1.483504 1_545
O58 S11 1.475514 1_555
O59 Si5 1.618841 1_655
O60 S8 1.458890 1_555
O61 Si2 1.616917 1_455
O62 S7 1.472099 1_565
O63 S5 1.498821 1_565
O64 S6 1.491995 1_555
O65 S4 1.497510 1_455
O66 S0 1.550969 1_565
O66 Ta1 2.008859 1_555
O67 S1 1.516603 1_555
O67 Ta1 2.070797 1_555
O68 Si0 1.734215 1_455
O68 Ta1 1.846362 1_555
O69 Si1 1.683518 1_555
O69 Ta2 1.933257 1_555
O70 S2 1.492219 1_455
O70 Ta2 2.210033 1_555
O71 S3 1.520179 1_565
O71 Ta2 2.076589 1_555
