# generated using pymatgen
data_Mn3H2Se3O10
_symmetry_space_group_name_H-M   'P 1'
_cell_length_a   8.46156400
_cell_length_b   8.46262857
_cell_length_c   9.12874751
_cell_angle_alpha   65.63018686
_cell_angle_beta   68.89062140
_cell_angle_gamma   68.02033113
_symmetry_Int_Tables_number   1
_chemical_formula_structural   Mn3H2Se3O10
_chemical_formula_sum   'Mn6 H4 Se6 O20'
_cell_volume   535.53737738
_cell_formula_units_Z   2
loop_
 _symmetry_equiv_pos_site_id
 _symmetry_equiv_pos_as_xyz
  1  'x, y, z'
loop_
 _atom_site_type_symbol
 _atom_site_label
 _atom_site_symmetry_multiplicity
 _atom_site_fract_x
 _atom_site_fract_y
 _atom_site_fract_z
 _atom_site_occupancy
  Mn  Mn0  1  0.82795400  0.69696700  0.42240900  1
  Mn  Mn1  1  0.17204600  0.30303300  0.57759100  1
  Mn  Mn2  1  0.00000000  0.00000000  0.00000000  1
  Mn  Mn3  1  0.50000000  0.50000000  0.50000000  1
  Mn  Mn4  1  0.96379200  0.34256800  0.20054800  1
  Mn  Mn5  1  0.03620800  0.65743200  0.79945200  1
  H  H0  1  0.19039000  0.04664500  0.39838700  1
  H  H1  1  0.80961000  0.95335500  0.60161300  1
  H  H2  1  0.12648200  0.96921500  0.30198200  1
  H  H3  1  0.87351800  0.03078500  0.69801800  1
  Se  Se0  1  0.33511400  0.21861800  0.89937300  1
  Se  Se1  1  0.66488600  0.78138200  0.10062700  1
  Se  Se2  1  0.67006300  0.16272000  0.31114600  1
  Se  Se3  1  0.32993700  0.83728000  0.68885400  1
  Se  Se4  1  0.79163400  0.42513800  0.78027400  1
  Se  Se5  1  0.20836600  0.57486200  0.21972600  1
  O  O0  1  0.14538300  0.07741700  0.30006700  1
  O  O1  1  0.85461700  0.92258300  0.69993300  1
  O  O2  1  0.25039700  0.04653200  0.94608100  1
  O  O3  1  0.74960300  0.95346800  0.05391900  1
  O  O4  1  0.35856200  0.30581900  0.68443100  1
  O  O5  1  0.64143800  0.69418100  0.31556900  1
  O  O6  1  0.15641400  0.38715500  0.96021200  1
  O  O7  1  0.84358600  0.61284500  0.03978800  1
  O  O8  1  0.31925400  0.49386800  0.37244700  1
  O  O9  1  0.68074600  0.50613200  0.62755300  1
  O  O10  1  0.05573200  0.44488500  0.33536300  1
  O  O11  1  0.94426800  0.55511500  0.66463700  1
  O  O12  1  0.06332400  0.77719900  0.24101700  1
  O  O13  1  0.93667600  0.22280100  0.75898300  1
  O  O14  1  0.29422100  0.70008800  0.61185500  1
  O  O15  1  0.70577900  0.29991200  0.38814500  1
  O  O16  1  0.14645300  0.81790500  0.85715200  1
  O  O17  1  0.85354700  0.18209500  0.14284800  1
  O  O18  1  0.26630100  0.04716700  0.54878800  1
  O  O19  1  0.73369900  0.95283300  0.45121200  1
loop_
_geom_bond_atom_site_label_1
_geom_bond_atom_site_label_2
_geom_bond_distance
_geom_bond_site_symmetry_2
Mn0 O19 2.102339 1_555
Mn0 O5 2.144323 1_555
Mn0 O12 2.208704 1_655
Mn0 O9 2.235271 1_555
Mn0 O11 2.406632 1_555
Mn0 O10 2.472856 1_655
Mn1 O18 2.102339 1_555
Mn1 O4 2.144323 1_555
Mn1 O13 2.208704 1_455
Mn1 O8 2.235271 1_555
Mn1 O10 2.406632 1_555
Mn1 O11 2.472856 1_455
Mn2 O3 2.144725 1_445
Mn2 O2 2.144725 1_554
Mn2 O17 2.162341 1_455
Mn2 O16 2.162341 1_544
Mn2 O12 2.313525 1_545
Mn2 O13 2.313525 1_454
Mn3 O4 2.169070 1_555
Mn3 O5 2.169070 1_555
Mn3 O15 2.209258 1_555
Mn3 O14 2.209258 1_555
Mn3 O9 2.256006 1_555
Mn3 O8 2.256006 1_555
Mn4 O6 2.194047 1_654
Mn4 O17 2.210066 1_555
Mn4 O10 2.223245 1_655
Mn4 O0 2.227914 1_655
Mn4 O7 2.232354 1_555
Mn4 O15 2.283883 1_555
Mn5 O7 2.194047 1_456
Mn5 O16 2.210066 1_555
Mn5 O11 2.223245 1_455
Mn5 O1 2.227914 1_455
Mn5 O6 2.232354 1_555
Mn5 O14 2.283883 1_555
H0 O0 0.998751 1_555
H0 O18 1.714647 1_555
H1 O1 0.998751 1_555
H1 O19 1.714647 1_555
H2 O0 0.979153 1_565
H3 O1 0.979153 1_545
O2 Se0 1.692725 1_555
O3 Se1 1.692725 1_555
O4 Se0 1.751634 1_555
O5 Se1 1.751634 1_555
O6 Se0 1.750292 1_555
O7 Se1 1.750292 1_555
O8 Se5 1.722228 1_555
O9 Se4 1.722228 1_555
O10 Se5 1.765051 1_555
O11 Se4 1.765051 1_555
O12 Se5 1.733706 1_555
O13 Se4 1.733706 1_555
O14 Se3 1.738523 1_555
O15 Se2 1.738523 1_555
O16 Se3 1.749931 1_555
O17 Se2 1.749931 1_555
O18 Se3 1.727852 1_545
O19 Se2 1.727852 1_565
