# generated using pymatgen
data_Mn3VCr2(PO4)6
_symmetry_space_group_name_H-M   'P 1'
_cell_length_a   8.53878006
_cell_length_b   8.68444547
_cell_length_c   8.69816005
_cell_angle_alpha   59.71817790
_cell_angle_beta   58.38267963
_cell_angle_gamma   58.35431922
_symmetry_Int_Tables_number   1
_chemical_formula_structural   Mn3VCr2(PO4)6
_chemical_formula_sum   'Mn3 V1 Cr2 P6 O24'
_cell_volume   443.61193398
_cell_formula_units_Z   1
loop_
 _symmetry_equiv_pos_site_id
 _symmetry_equiv_pos_as_xyz
  1  'x, y, z'
loop_
 _atom_site_type_symbol
 _atom_site_label
 _atom_site_symmetry_multiplicity
 _atom_site_fract_x
 _atom_site_fract_y
 _atom_site_fract_z
 _atom_site_occupancy
  Mn  Mn0  1  0.05708400  0.64624700  0.64686400  1
  Mn  Mn1  1  0.43730000  0.85684600  0.85051800  1
  Mn  Mn2  1  0.93416300  0.35191900  0.35901200  1
  V  V0  1  0.56129300  0.14867900  0.14518700  1
  Cr  Cr0  1  0.99508100  0.99875600  0.00347800  1
  Cr  Cr1  1  0.50039200  0.50088200  0.49830700  1
  P  P0  1  0.25483400  0.24696900  0.55075900  1
  P  P1  1  0.25310600  0.95428300  0.24628600  1
  P  P2  1  0.24438200  0.54631700  0.95718200  1
  P  P3  1  0.74279600  0.45378900  0.05088100  1
  P  P4  1  0.75352500  0.05283900  0.74811000  1
  P  P5  1  0.75271800  0.74690500  0.44672900  1
  O  O0  1  0.06287700  0.10680700  0.32157700  1
  O  O1  1  0.06271600  0.49725900  0.11167900  1
  O  O2  1  0.06710600  0.31666200  0.52130200  1
  O  O3  1  0.23009200  0.08502300  0.75275100  1
  O  O4  1  0.43606100  0.16606100  0.38951000  1
  O  O5  1  0.30268100  0.39384500  0.55487900  1
  O  O6  1  0.22096800  0.93880200  0.09172200  1
  O  O7  1  0.29905800  0.75378300  0.39583400  1
  O  O8  1  0.56291100  0.61304900  0.99839900  1
  O  O9  1  0.29681300  0.54872200  0.75659100  1
  O  O10  1  0.76623900  0.24891600  0.07151200  1
  O  O11  1  0.56987000  0.01605200  0.81616700  1
  O  O12  1  0.43151000  0.01243300  0.16653300  1
  O  O13  1  0.20307900  0.74964200  0.94567100  1
  O  O14  1  0.69828400  0.43889800  0.25548100  1
  O  O15  1  0.42830700  0.39321400  0.01309500  1
  O  O16  1  0.72297300  0.25828500  0.59096700  1
  O  O17  1  0.77165900  0.07700800  0.90911900  1
  O  O18  1  0.72045200  0.59337100  0.42885600  1
  O  O19  1  0.56574700  0.81639600  0.60437500  1
  O  O20  1  0.77082900  0.90963500  0.24319800  1
  O  O21  1  0.94179300  0.68210700  0.46974700  1
  O  O22  1  0.93535300  0.47580400  0.90641100  1
  O  O23  1  0.94594400  0.90379600  0.68130900  1
loop_
_geom_bond_atom_site_label_1
_geom_bond_atom_site_label_2
_geom_bond_distance
_geom_bond_site_symmetry_2
Mn0 O23 2.035550 1_455
Mn0 O22 2.037664 1_455
Mn0 O21 2.055271 1_455
Mn0 O5 2.242467 1_555
Mn0 O7 2.268677 1_555
Mn0 O9 2.287445 1_555
Mn1 O8 1.898610 1_555
Mn1 O19 1.949956 1_555
Mn1 O3 1.994845 1_565
Mn1 O11 2.037977 1_565
Mn1 O6 2.093669 1_556
Mn1 O13 2.234461 1_555
Mn2 O1 1.914589 1_655
Mn2 O0 1.927180 1_655
Mn2 O16 2.013252 1_555
Mn2 O18 2.050153 1_555
Mn2 O2 2.062658 1_655
Mn2 O14 2.248880 1_555
Cr0 O13 2.053387 1_654
Cr0 O20 2.086789 1_555
Cr0 O17 2.119847 1_564
Cr0 O10 2.125512 1_565
Cr0 O6 2.162387 1_655
Cr0 O3 2.164613 1_664
Cr1 O14 2.014024 1_555
Cr1 O7 2.060096 1_555
Cr1 O5 2.066559 1_555
Cr1 O9 2.080957 1_555
Cr1 O16 2.095796 1_555
Cr1 O18 2.108344 1_555
O0 P1 1.524354 1_545
O1 P2 1.524496 1_554
O2 P0 1.502552 1_555
O3 P0 1.593770 1_555
O4 P0 1.559750 1_555
O4 V0 1.858501 1_555
O5 P0 1.550316 1_555
O6 P1 1.583881 1_555
O7 P1 1.553024 1_555
O8 P3 1.532913 1_556
O9 P2 1.548921 1_555
O10 P3 1.606175 1_555
O10 V0 2.022621 1_555
O11 P4 1.507767 1_555
O12 P1 1.550097 1_545
O12 V0 1.897680 1_555
O13 P2 1.567670 1_555
O14 P3 1.561598 1_555
O15 P2 1.558325 1_554
O15 V0 1.869813 1_555
O16 P4 1.595510 1_555
O17 P4 1.608511 1_555
O17 V0 2.019601 1_556
O18 P5 1.586617 1_555
O19 P5 1.523660 1_555
O20 P5 1.604473 1_555
O20 V0 2.038258 1_565
O21 P5 1.495065 1_555
O22 P3 1.496762 1_556
O23 P4 1.496145 1_565
