# generated using pymatgen
data_MgGa4(CuO4)2
_symmetry_space_group_name_H-M   'P 1'
_cell_length_a   6.40965169
_cell_length_b   6.40966209
_cell_length_c   6.07922274
_cell_angle_alpha   56.93719385
_cell_angle_beta   56.93731999
_cell_angle_gamma   56.01632275
_symmetry_Int_Tables_number   1
_chemical_formula_structural   MgGa4(CuO4)2
_chemical_formula_sum   'Mg1 Ga4 Cu2 O8'
_cell_volume   162.82731612
_cell_formula_units_Z   1
loop_
 _symmetry_equiv_pos_site_id
 _symmetry_equiv_pos_as_xyz
  1  'x, y, z'
loop_
 _atom_site_type_symbol
 _atom_site_label
 _atom_site_symmetry_multiplicity
 _atom_site_fract_x
 _atom_site_fract_y
 _atom_site_fract_z
 _atom_site_occupancy
  Mg  Mg0  1  0.12500000  0.12500000  0.12500000  1
  Ga  Ga0  1  0.99545200  0.99545200  0.92456600  1
  Ga  Ga1  1  0.25454700  0.25454800  0.32543400  1
  Ga  Ga2  1  0.12500000  0.62500000  0.62500000  1
  Ga  Ga3  1  0.62500000  0.12500000  0.62500000  1
  Cu  Cu0  1  0.62499900  0.62500100  0.12499900  1
  Cu  Cu1  1  0.62499900  0.62500100  0.62499900  1
  O  O0  1  0.39638100  0.39638100  0.38814600  1
  O  O1  1  0.34389000  0.88141400  0.39916400  1
  O  O2  1  0.35168400  0.35168400  0.88808100  1
  O  O3  1  0.88141400  0.34389000  0.39916300  1
  O  O4  1  0.36858600  0.90610900  0.85083700  1
  O  O5  1  0.89831600  0.89831600  0.36191900  1
  O  O6  1  0.90611000  0.36858600  0.85083600  1
  O  O7  1  0.85361900  0.85361800  0.86185400  1
loop_
_geom_bond_atom_site_label_1
_geom_bond_atom_site_label_2
_geom_bond_distance
_geom_bond_site_symmetry_2
Mg0 O5 2.022367 1_445
Mg0 O2 2.022367 1_554
Mg0 O1 2.108865 1_545
Mg0 O6 2.108865 1_454
Mg0 O3 2.108866 1_455
Mg0 O4 2.108871 1_544
Ga0 O7 1.865084 1_555
Ga0 O4 1.956574 1_655
Ga0 O6 1.956577 1_565
Ga0 O5 2.159925 1_556
Ga1 O0 1.865084 1_555
Ga1 O3 1.956570 1_455
Ga1 O1 1.956575 1_545
Ga1 O2 2.159923 1_554
Ga2 O7 1.991526 1_455
Ga2 O0 1.991530 1_555
Ga2 O5 2.090658 1_455
Ga2 O2 2.090658 1_555
Ga2 O1 2.137419 1_555
Ga2 O6 2.137419 1_455
Ga3 O0 1.991524 1_555
Ga3 O7 1.991525 1_545
Ga3 O2 2.090664 1_555
Ga3 O5 2.090664 1_545
Ga3 O3 2.137418 1_555
Ga3 O4 2.137423 1_545
Cu0 O7 2.034371 1_554
Cu0 O0 2.034376 1_555
Cu0 O4 2.264327 1_554
Cu0 O3 2.264344 1_555
Cu0 O1 2.264346 1_555
Cu0 O6 2.264346 1_554
Cu1 O1 2.181549 1_555
Cu1 O4 2.181563 1_555
Cu1 O6 2.181566 1_555
Cu1 O3 2.181569 1_555
Cu1 O2 2.452063 1_555
Cu1 O5 2.452065 1_555
