# generated using pymatgen
data_Na3ZrScSi2SO12
_symmetry_space_group_name_H-M   'P 1'
_cell_length_a   9.17127691
_cell_length_b   9.17127659
_cell_length_c   22.88575543
_cell_angle_alpha   89.83043536
_cell_angle_beta   90.16956464
_cell_angle_gamma   119.94864023
_symmetry_Int_Tables_number   1
_chemical_formula_structural   Na3ZrScSi2SO12
_chemical_formula_sum   'Na18 Zr6 Sc6 Si12 S6 O72'
_cell_volume   1667.92867441
_cell_formula_units_Z   6
loop_
 _symmetry_equiv_pos_site_id
 _symmetry_equiv_pos_as_xyz
  1  'x, y, z'
loop_
 _atom_site_type_symbol
 _atom_site_label
 _atom_site_symmetry_multiplicity
 _atom_site_fract_x
 _atom_site_fract_y
 _atom_site_fract_z
 _atom_site_occupancy
  Na  Na0  1  0.62815019  0.99982892  0.24354937  1
  Na  Na1  1  0.99716069  0.64507709  0.24539139  1
  Na  Na2  1  0.00017108  0.37184981  0.74354937  1
  Na  Na3  1  0.35492291  0.00283931  0.74539139  1
  Na  Na4  1  0.29481719  0.33316192  0.57688237  1
  Na  Na5  1  0.66382769  0.97841009  0.57872439  1
  Na  Na6  1  0.66683808  0.70518281  0.07688237  1
  Na  Na7  1  0.02158991  0.33617231  0.07872439  1
  Na  Na8  1  0.96148319  0.66649592  0.91021637  1
  Na  Na9  1  0.33049369  0.31174409  0.91205839  1
  Na  Na10  1  0.33350408  0.03851681  0.41021637  1
  Na  Na11  1  0.68825591  0.66950631  0.41205839  1
  Na  Na12  1  0.00469858  0.02645626  0.49486908  1
  Na  Na13  1  0.97354374  0.99530142  0.99486908  1
  Na  Na14  1  0.67136558  0.35978926  0.82820208  1
  Na  Na15  1  0.64021074  0.32863442  0.32820208  1
  Na  Na16  1  0.33803158  0.69312326  0.16153608  1
  Na  Na17  1  0.30687674  0.66196842  0.66153608  1
  Zr  Zr0  1  0.01828317  0.00401364  0.64755943  1
  Zr  Zr1  1  0.99598636  0.98171683  0.14755943  1
  Zr  Zr2  1  0.68495017  0.33734664  0.98089243  1
  Zr  Zr3  1  0.66265336  0.31504983  0.48089243  1
  Zr  Zr4  1  0.35161617  0.67068064  0.31422643  1
  Zr  Zr5  1  0.32931936  0.64838383  0.81422643  1
  Sc  Sc0  1  0.00554549  0.00652923  0.35167305  1
  Sc  Sc1  1  0.99347077  0.99445451  0.85167305  1
  Sc  Sc2  1  0.67221249  0.33986223  0.68500605  1
  Sc  Sc3  1  0.66013777  0.32778751  0.18500605  1
  Sc  Sc4  1  0.33887849  0.67319623  0.01834005  1
  Sc  Sc5  1  0.32680377  0.66112151  0.51834005  1
  Si  Si0  1  0.29704621  0.00179722  0.25370388  1
  Si  Si1  1  0.70855779  0.70125234  0.25207124  1
  Si  Si2  1  0.29874766  0.29144221  0.75207124  1
  Si  Si3  1  0.99820278  0.70295379  0.75370388  1
  Si  Si4  1  0.96371321  0.33513022  0.58703688  1
  Si  Si5  1  0.37522479  0.03458534  0.58540424  1
  Si  Si6  1  0.96541466  0.62477521  0.08540424  1
  Si  Si7  1  0.66486978  0.03628679  0.08703688  1
  Si  Si8  1  0.63037921  0.66846422  0.92037088  1
  Si  Si9  1  0.04189079  0.36791934  0.91873824  1
  Si  Si10  1  0.63208066  0.95810921  0.41873824  1
  Si  Si11  1  0.33153578  0.36962079  0.42037088  1
  S  S0  1  0.00101874  0.29410834  0.24928158  1
  S  S1  1  0.70589166  0.99898126  0.74928158  1
  S  S2  1  0.66768574  0.62744134  0.58261458  1
  S  S3  1  0.37255866  0.33231426  0.08261458  1
  S  S4  1  0.33435174  0.96077534  0.91594858  1
  S  S5  1  0.03922466  0.66564826  0.41594858  1
  O  O0  1  0.20925712  0.02115158  0.31261577  1
  O  O1  1  0.82360757  0.79552401  0.30911958  1
  O  O2  1  0.97991691  0.18696089  0.30017415  1
  O  O3  1  0.20447599  0.17639243  0.80911958  1
  O  O4  1  0.97884842  0.79074288  0.81261577  1
  O  O5  1  0.81303911  0.02008309  0.80017415  1
  O  O6  1  0.77879575  0.97385815  0.69489537  1
  O  O7  1  0.17673866  0.20645076  0.69356487  1
  O  O8  1  0.02180229  0.82689786  0.69753190  1
  O  O9  1  0.79354924  0.82326134  0.19356487  1
  O  O10  1  0.02614185  0.22120425  0.19489537  1
  O  O11  1  0.17310214  0.97819771  0.19753190  1
  O  O12  1  0.87592412  0.35448458  0.64594877  1
  O  O13  1  0.49027457  0.12885701  0.64245258  1
  O  O14  1  0.64658391  0.52029389  0.63350715  1
  O  O15  1  0.87114299  0.50972543  0.14245258  1
  O  O16  1  0.64551542  0.12407588  0.14594877  1
  O  O17  1  0.47970611  0.35341609  0.13350715  1
  O  O18  1  0.44546275  0.30719115  0.02822837  1
  O  O19  1  0.84340566  0.53978376  0.02689787  1
  O  O20  1  0.68846929  0.16023086  0.03086490  1
  O  O21  1  0.46021624  0.15659434  0.52689787  1
  O  O22  1  0.69280885  0.55453725  0.52822837  1
  O  O23  1  0.83976914  0.31153071  0.53086490  1
  O  O24  1  0.54259012  0.68781858  0.97928277  1
  O  O25  1  0.15694057  0.46219101  0.97578658  1
  O  O26  1  0.31324991  0.85362789  0.96684115  1
  O  O27  1  0.53780899  0.84305943  0.47578658  1
  O  O28  1  0.31218142  0.45740988  0.47928277  1
  O  O29  1  0.14637211  0.68675009  0.46684115  1
  O  O30  1  0.11212875  0.64052515  0.36156237  1
  O  O31  1  0.51007166  0.87311776  0.36023187  1
  O  O32  1  0.35513529  0.49356486  0.36419890  1
  O  O33  1  0.12688224  0.48992834  0.86023187  1
  O  O34  1  0.35947485  0.88787125  0.86156237  1
  O  O35  1  0.50643514  0.64486471  0.86419890  1
  O  O36  1  0.02528282  0.82019207  0.41264418  1
  O  O37  1  0.81326796  0.96808292  0.41183026  1
  O  O38  1  0.17692305  0.17638320  0.41406284  1
  O  O39  1  0.03191708  0.18673204  0.91183026  1
  O  O40  1  0.17980793  0.97471718  0.91264418  1
  O  O41  1  0.82361680  0.82307695  0.91406284  1
  O  O42  1  0.96435066  0.15299386  0.58851044  1
  O  O43  1  0.19036362  0.02591518  0.58773600  1
  O  O44  1  0.81358727  0.80088103  0.58921562  1
  O  O45  1  0.97408482  0.80963638  0.08773600  1
  O  O46  1  0.84700614  0.03564934  0.08851044  1
  O  O47  1  0.19911897  0.18641273  0.08921562  1
  O  O48  1  0.69194982  0.15352507  0.74597718  1
  O  O49  1  0.47993496  0.30141592  0.74516326  1
  O  O50  1  0.84359005  0.50971620  0.74739584  1
  O  O51  1  0.69858408  0.52006504  0.24516326  1
  O  O52  1  0.84647493  0.30805018  0.24597718  1
  O  O53  1  0.49028380  0.15640995  0.24739584  1
  O  O54  1  0.63101766  0.48632686  0.92184344  1
  O  O55  1  0.85703062  0.35924818  0.92106900  1
  O  O56  1  0.48025427  0.13421403  0.92254862  1
  O  O57  1  0.64075182  0.14296938  0.42106900  1
  O  O58  1  0.51367314  0.36898234  0.42184344  1
  O  O59  1  0.86578597  0.51974573  0.42254862  1
  O  O60  1  0.35861582  0.48685907  0.07931118  1
  O  O61  1  0.14660096  0.63474992  0.07849726  1
  O  O62  1  0.51025605  0.84305020  0.08072984  1
  O  O63  1  0.36525008  0.85339904  0.57849726  1
  O  O64  1  0.51314093  0.64138418  0.57931118  1
  O  O65  1  0.15694980  0.48974395  0.58072984  1
  O  O66  1  0.29768366  0.81966086  0.25517744  1
  O  O67  1  0.52369662  0.69258218  0.25440300  1
  O  O68  1  0.14692027  0.46754803  0.25588262  1
  O  O69  1  0.30741782  0.47630338  0.75440300  1
  O  O70  1  0.18033914  0.70231634  0.75517744  1
  O  O71  1  0.53245197  0.85307973  0.75588262  1
loop_
_geom_bond_atom_site_label_1
_geom_bond_atom_site_label_2
_geom_bond_distance
_geom_bond_site_symmetry_2
Na0 O53 2.341593 1_565
Na0 O16 2.473647 1_565
Na0 O67 2.494334 1_555
Na0 O52 2.520319 1_565
Na0 O66 2.643641 1_555
Na0 O31 2.897639 1_555
Na0 O9 2.950554 1_555
Na1 O51 2.382909 1_555
Na1 O66 2.408866 1_655
Na1 O68 2.612197 1_655
Na1 O15 2.644877 1_555
Na1 O52 2.683089 1_555
Na1 O11 2.864579 1_655
Na1 O30 2.865081 1_655
Na1 O1 2.963601 1_555
Na2 O50 2.341593 1_455
Na2 O12 2.473647 1_455
Na2 O69 2.494334 1_555
Na2 O48 2.520319 1_455
Na2 O70 2.643641 1_555
Na2 O33 2.897639 1_555
Na2 O7 2.950554 1_555
Na3 O49 2.382909 1_555
Na3 O70 2.408865 1_545
Na3 O71 2.612197 1_545
Na3 O13 2.644877 1_555
Na3 O48 2.683090 1_555
Na3 O8 2.864579 1_545
Na3 O34 2.865081 1_545
Na3 O3 2.963601 1_555
Na4 O65 2.341610 1_555
Na4 O28 2.473631 1_555
Na4 O43 2.494334 1_555
Na4 O64 2.520324 1_555
Na4 O42 2.643641 1_455
Na4 O7 2.897639 1_555
Na4 O21 2.950554 1_555
Na5 O63 2.382919 1_555
Na5 O42 2.408866 1_565
Na5 O44 2.612197 1_555
Na5 O27 2.644856 1_555
Na5 O64 2.683081 1_555
Na5 O23 2.864579 1_565
Na5 O6 2.865081 1_555
Na5 O13 2.963601 1_565
Na6 O62 2.341610 1_555
Na6 O24 2.473631 1_554
Na6 O45 2.494334 1_555
Na6 O60 2.520324 1_555
Na6 O46 2.643641 1_565
Na6 O9 2.897639 1_555
Na6 O19 2.950554 1_555
Na7 O61 2.382919 1_555
Na7 O46 2.408865 1_455
Na7 O47 2.612197 1_555
Na7 O25 2.644856 1_554
Na7 O60 2.683081 1_555
Na7 O20 2.864579 1_455
Na7 O10 2.865081 1_555
Na7 O15 2.963601 1_455
Na8 O41 2.341593 1_555
Na8 O4 2.473647 1_555
Na8 O55 2.494342 1_555
Na8 O40 2.520319 1_655
Na8 O54 2.643632 1_555
Na8 O19 2.897618 1_556
Na8 O33 2.950554 1_655
Na9 O39 2.382909 1_555
Na9 O54 2.408870 1_555
Na9 O56 2.612211 1_555
Na9 O3 2.644877 1_555
Na9 O40 2.683089 1_545
Na9 O35 2.864579 1_555
Na9 O18 2.865065 1_556
Na9 O25 2.963601 1_555
Na10 O38 2.341593 1_555
Na10 O0 2.473647 1_555
Na10 O57 2.494342 1_555
Na10 O36 2.520319 1_545
Na10 O58 2.643632 1_555
Na10 O21 2.897618 1_555
Na10 O31 2.950554 1_545
Na11 O37 2.382909 1_555
Na11 O58 2.408870 1_555
Na11 O59 2.612211 1_555
Na11 O1 2.644877 1_555
Na11 O36 2.683090 1_655
Na11 O32 2.864579 1_555
Na11 O22 2.865065 1_555
Na11 O27 2.963601 1_555
Na12 O38 2.374712 1_555
Na12 O37 2.455266 1_445
Na12 O42 2.554326 1_455
Na12 O43 2.720934 1_555
Na12 O36 2.745000 1_545
Na12 O44 2.896496 1_445
Na13 O41 2.374712 1_555
Na13 O39 2.455266 1_665
Na13 O46 2.554326 1_566
Na13 O45 2.720934 1_556
Na13 O40 2.745000 1_655
Na13 O47 2.896496 1_666
Na14 O50 2.374712 1_555
Na14 O49 2.455266 1_555
Na14 O54 2.554326 1_555
Na14 O55 2.720934 1_555
Na14 O48 2.745000 1_555
Na14 O56 2.896496 1_555
Na15 O53 2.374712 1_555
Na15 O51 2.455266 1_555
Na15 O58 2.554326 1_555
Na15 O57 2.720934 1_555
Na15 O52 2.745000 1_555
Na15 O59 2.896496 1_555
Na16 O62 2.374712 1_555
Na16 O61 2.455266 1_555
Na16 O66 2.554326 1_555
Na16 O67 2.720934 1_555
Na16 O60 2.745000 1_555
Na16 O68 2.896496 1_555
Na17 O65 2.374712 1_555
Na17 O63 2.455266 1_555
Na17 O70 2.554326 1_555
Na17 O69 2.720934 1_555
Na17 O64 2.745000 1_555
Na17 O71 2.896496 1_555
O0 Si0 1.627283 1_555
O0 Sc0 2.016558 1_555
O1 Si1 1.628837 1_555
O1 Sc0 2.062789 1_665
O2 S0 1.471173 1_655
O2 Sc0 2.134904 1_655
O3 Si2 1.628837 1_555
O3 Sc1 2.062789 1_445
O4 Si3 1.627283 1_555
O4 Sc1 2.016558 1_555
O5 S1 1.471173 1_545
O5 Sc1 2.134904 1_545
O6 S1 1.486537 1_555
O6 Zr0 2.340955 1_665
O7 Si2 1.667023 1_555
O7 Zr0 1.994000 1_555
O8 Si3 1.654977 1_455
O8 Zr0 1.997180 1_565
O9 Si1 1.667023 1_555
O9 Zr1 1.994000 1_555
O10 S0 1.486537 1_555
O10 Zr1 2.340955 1_445
O11 Si0 1.654977 1_565
O11 Zr1 1.997180 1_455
O12 Si4 1.627283 1_555
O12 Sc2 2.016558 1_555
O13 Si5 1.628837 1_555
O13 Sc2 2.062789 1_555
O14 S2 1.471173 1_555
O14 Sc2 2.134904 1_555
O15 Si6 1.628837 1_555
O15 Sc3 2.062789 1_555
O16 Si7 1.627283 1_555
O16 Sc3 2.016558 1_555
O17 S3 1.471173 1_555
O17 Sc3 2.134904 1_555
O18 S3 1.486537 1_555
O18 Zr2 2.340955 1_554
O19 Si6 1.667023 1_555
O19 Zr2 1.994000 1_554
O20 Si7 1.654977 1_555
O20 Zr2 1.997180 1_554
O21 Si5 1.667023 1_555
O21 Zr3 1.994000 1_555
O22 S2 1.486537 1_555
O22 Zr3 2.340955 1_555
O23 Si4 1.654977 1_555
O23 Zr3 1.997180 1_555
O24 Si8 1.627283 1_555
O24 Sc4 2.016558 1_556
O25 Si9 1.628837 1_555
O25 Sc4 2.062789 1_556
O26 S4 1.471173 1_555
O26 Sc4 2.134904 1_556
O27 Si10 1.628837 1_555
O27 Sc5 2.062789 1_555
O28 Si11 1.627283 1_555
O28 Sc5 2.016558 1_555
O29 S5 1.471173 1_555
O29 Sc5 2.134904 1_555
O30 S5 1.486537 1_555
O30 Zr4 2.340955 1_555
O31 Si10 1.667023 1_555
O31 Zr4 1.994000 1_555
O32 Si11 1.654977 1_555
O32 Zr4 1.997180 1_555
O33 Si9 1.667023 1_555
O33 Zr5 1.994000 1_555
O34 S4 1.486537 1_555
O34 Zr5 2.340955 1_555
O35 Si8 1.654977 1_555
O35 Zr5 1.997180 1_555
O36 S5 1.487026 1_555
O36 Sc0 2.278946 1_565
O37 Si10 1.626154 1_555
O37 Sc0 2.126055 1_665
O38 Si11 1.632040 1_555
O38 Sc0 2.119207 1_555
O39 Si9 1.626154 1_555
O39 Sc1 2.126055 1_445
O40 S4 1.487026 1_555
O40 Sc1 2.278946 1_455
O41 Si8 1.632040 1_555
O41 Sc1 2.119207 1_555
O42 Si4 1.673589 1_555
O42 Zr0 2.144217 1_655
O43 Si5 1.658162 1_555
O43 Zr0 2.024883 1_555
O44 S2 1.489501 1_555
O44 Zr0 2.299091 1_665
O45 Si6 1.658162 1_555
O45 Zr1 2.024883 1_555
O46 Si7 1.673589 1_555
O46 Zr1 2.144217 1_545
O47 S3 1.489501 1_555
O47 Zr1 2.299091 1_445
O48 S1 1.487026 1_545
O48 Sc2 2.278946 1_555
O49 Si2 1.626154 1_555
O49 Sc2 2.126055 1_555
O50 Si3 1.632040 1_555
O50 Sc2 2.119207 1_555
O51 Si1 1.626154 1_555
O51 Sc3 2.126055 1_555
O52 S0 1.487026 1_655
O52 Sc3 2.278946 1_555
O53 Si0 1.632040 1_555
O53 Sc3 2.119207 1_555
O54 Si8 1.673602 1_555
O54 Zr2 2.144217 1_555
O55 Si9 1.658148 1_655
O55 Zr2 2.024883 1_555
O56 S4 1.489496 1_545
O56 Zr2 2.299091 1_555
O57 Si10 1.658148 1_545
O57 Zr3 2.024883 1_555
O58 Si11 1.673602 1_555
O58 Zr3 2.144217 1_555
O59 S5 1.489496 1_655
O59 Zr3 2.299091 1_555
O60 S3 1.487039 1_555
O60 Sc4 2.278946 1_555
O61 Si6 1.626138 1_455
O61 Sc4 2.126055 1_555
O62 Si7 1.632035 1_565
O62 Sc4 2.119207 1_555
O63 Si5 1.626138 1_565
O63 Sc5 2.126055 1_555
O64 S2 1.487039 1_555
O64 Sc5 2.278946 1_555
O65 Si4 1.632035 1_455
O65 Sc5 2.119207 1_555
O66 Si0 1.673589 1_565
O66 Zr4 2.144217 1_555
O67 Si1 1.658162 1_555
O67 Zr4 2.024883 1_555
O68 S0 1.489501 1_555
O68 Zr4 2.299091 1_555
O69 Si2 1.658162 1_555
O69 Zr5 2.024883 1_555
O70 Si3 1.673589 1_455
O70 Zr5 2.144217 1_555
O71 S1 1.489501 1_555
O71 Zr5 2.299091 1_555
