# generated using pymatgen
data_BeAlH5
_symmetry_space_group_name_H-M   'P 1'
_cell_length_a   4.66286056
_cell_length_b   4.66286056
_cell_length_c   6.30702325
_cell_angle_alpha   73.29555980
_cell_angle_beta   73.29555980
_cell_angle_gamma   99.53280763
_symmetry_Int_Tables_number   1
_chemical_formula_structural   BeAlH5
_chemical_formula_sum   'Be2 Al2 H10'
_cell_volume   121.10669799
_cell_formula_units_Z   2
loop_
 _symmetry_equiv_pos_site_id
 _symmetry_equiv_pos_as_xyz
  1  'x, y, z'
loop_
 _atom_site_type_symbol
 _atom_site_label
 _atom_site_symmetry_multiplicity
 _atom_site_fract_x
 _atom_site_fract_y
 _atom_site_fract_z
 _atom_site_occupancy
  Be  Be0  1  0.66950500  0.33049500  0.25000000  1
  Be  Be1  1  0.33049500  0.66950500  0.75000000  1
  Al  Al0  1  0.00000000  0.00000000  0.50000000  1
  Al  Al1  1  0.00000000  0.00000000  0.00000000  1
  H  H0  1  0.73755000  0.64220400  0.09007100  1
  H  H1  1  0.35779600  0.26245000  0.40992900  1
  H  H2  1  0.26245000  0.35779600  0.90992900  1
  H  H3  1  0.64220400  0.73755000  0.59007100  1
  H  H4  1  0.09219900  0.90780100  0.25000000  1
  H  H5  1  0.90780100  0.09219900  0.75000000  1
  H  H6  1  0.12483500  0.68452900  0.61942400  1
  H  H7  1  0.31547100  0.87516500  0.88057600  1
  H  H8  1  0.87516500  0.31547100  0.38057600  1
  H  H9  1  0.68452900  0.12483500  0.11942400  1
loop_
_geom_bond_atom_site_label_1
_geom_bond_atom_site_label_2
_geom_bond_distance
_geom_bond_site_symmetry_2
Be0 H8 1.430327 1_555
Be0 H9 1.430327 1_555
Be0 H0 1.432168 1_555
Be0 H1 1.432168 1_555
Be1 H7 1.430327 1_555
Be1 H6 1.430327 1_555
Be1 H2 1.432168 1_555
Be1 H3 1.432168 1_555
Al0 H5 1.707930 1_455
Al0 H4 1.707930 1_545
Al0 H6 1.722992 1_545
Al0 H8 1.722992 1_455
Al0 H1 1.727132 1_555
Al0 H3 1.727132 1_445
Al1 H4 1.707930 1_545
Al1 H5 1.707930 1_454
Al1 H9 1.722992 1_455
Al1 H7 1.722992 1_544
Al1 H0 1.727132 1_445
Al1 H2 1.727132 1_554
