# generated using pymatgen
data_MgSb4(WO6)2
_symmetry_space_group_name_H-M   'P 1'
_cell_length_a   5.42899730
_cell_length_b   5.67614945
_cell_length_c   9.62823964
_cell_angle_alpha   93.85779142
_cell_angle_beta   90.46653354
_cell_angle_gamma   89.47769307
_symmetry_Int_Tables_number   1
_chemical_formula_structural   MgSb4(WO6)2
_chemical_formula_sum   'Mg1 Sb4 W2 O12'
_cell_volume   296.00888511
_cell_formula_units_Z   1
loop_
 _symmetry_equiv_pos_site_id
 _symmetry_equiv_pos_as_xyz
  1  'x, y, z'
loop_
 _atom_site_type_symbol
 _atom_site_label
 _atom_site_symmetry_multiplicity
 _atom_site_fract_x
 _atom_site_fract_y
 _atom_site_fract_z
 _atom_site_occupancy
  Mg  Mg0  1  0.02820900  0.48802300  0.91987000  1
  Sb  Sb0  1  0.40723500  0.81836200  0.68969000  1
  Sb  Sb1  1  0.05177800  0.31891500  0.61948500  1
  Sb  Sb2  1  0.94213800  0.64703500  0.32046600  1
  Sb  Sb3  1  0.58724700  0.12953800  0.33742000  1
  W  W0  1  0.00507300  0.99771300  0.00606300  1
  W  W1  1  0.51198500  0.49956900  0.01220200  1
  O  O0  1  0.77510300  0.73954200  0.94812900  1
  O  O1  1  0.76794700  0.24444600  0.94709600  1
  O  O2  1  0.22465900  0.25649100  0.04901400  1
  O  O3  1  0.23406000  0.75389000  0.05749200  1
  O  O4  1  0.86214400  0.00599400  0.19009200  1
  O  O5  1  0.12655000  0.96127400  0.81389500  1
  O  O6  1  0.64866700  0.50848200  0.20736500  1
  O  O7  1  0.34430200  0.50482300  0.81766500  1
  O  O8  1  0.19573200  0.61712200  0.55612800  1
  O  O9  1  0.31722800  0.10588200  0.55305400  1
  O  O10  1  0.72559600  0.85940400  0.43979800  1
  O  O11  1  0.84834800  0.34678500  0.43389100  1
loop_
_geom_bond_atom_site_label_1
_geom_bond_atom_site_label_2
_geom_bond_distance
_geom_bond_site_symmetry_2
Mg0 O0 1.979514 1_455
Mg0 O7 1.991345 1_555
Mg0 O1 2.016710 1_455
Mg0 O2 2.140907 1_556
Mg0 O3 2.240463 1_556
O0 W0 1.982267 1_656
O0 W1 2.106982 1_556
O1 W0 2.000806 1_646
O1 W1 2.067939 1_556
O2 W0 1.921435 1_545
O2 W1 2.139307 1_555
O3 W0 1.938266 1_555
O3 W1 2.106411 1_555
O4 W0 1.937624 1_645
O4 Sb3 2.147736 1_555
O4 Sb2 2.496975 1_545
O5 W0 1.966467 1_556
O5 Sb0 2.070467 1_555
O6 W1 2.012288 1_555
O6 Sb2 2.054787 1_555
O6 Sb3 2.586127 1_555
O7 W1 2.077786 1_556
O7 Sb0 2.261707 1_555
O7 Sb1 2.643263 1_555
O8 Sb1 2.004707 1_555
O8 Sb0 2.019696 1_555
O8 Sb2 2.658837 1_455
O9 Sb1 1.956349 1_555
O9 Sb0 2.212877 1_545
O9 Sb3 2.562842 1_555
O10 Sb2 1.991238 1_555
O10 Sb3 2.014246 1_565
O11 Sb3 2.061313 1_555
O11 Sb1 2.107285 1_655
O11 Sb2 2.152150 1_555
