# generated using pymatgen
data_YH5(SeO4)2
_symmetry_space_group_name_H-M   'P 1'
_cell_length_a   6.68413200
_cell_length_b   7.02897100
_cell_length_c   16.31565500
_cell_angle_alpha   90.00000000
_cell_angle_beta   90.00000000
_cell_angle_gamma   90.00000000
_symmetry_Int_Tables_number   1
_chemical_formula_structural   YH5(SeO4)2
_chemical_formula_sum   'Y4 H20 Se8 O32'
_cell_volume   766.55140294
_cell_formula_units_Z   4
loop_
 _symmetry_equiv_pos_site_id
 _symmetry_equiv_pos_as_xyz
  1  'x, y, z'
loop_
 _atom_site_type_symbol
 _atom_site_label
 _atom_site_symmetry_multiplicity
 _atom_site_fract_x
 _atom_site_fract_y
 _atom_site_fract_z
 _atom_site_occupancy
  Y  Y0  1  0.12508300  0.39153900  0.78400600  1
  Y  Y1  1  0.62508300  0.10846100  0.21599400  1
  Y  Y2  1  0.87491700  0.89153900  0.71599400  1
  Y  Y3  1  0.37491700  0.60846100  0.28400600  1
  H  H0  1  0.19085200  0.40432100  0.08139100  1
  H  H1  1  0.69085200  0.09567900  0.91860900  1
  H  H2  1  0.80914800  0.90432100  0.41860900  1
  H  H3  1  0.30914800  0.59567900  0.58139100  1
  H  H4  1  0.05529700  0.22944900  0.10139000  1
  H  H5  1  0.55529700  0.27055100  0.89861000  1
  H  H6  1  0.94470300  0.72944900  0.39861000  1
  H  H7  1  0.44470300  0.77055100  0.60139000  1
  H  H8  1  0.88860300  0.74022700  0.54065500  1
  H  H9  1  0.38860300  0.75977300  0.45934500  1
  H  H10  1  0.02722400  0.08149200  0.89610000  1
  H  H11  1  0.52722400  0.41850800  0.10390000  1
  H  H12  1  0.97277600  0.58149200  0.60390000  1
  H  H13  1  0.47277600  0.91850800  0.39610000  1
  H  H14  1  0.80005400  0.83036000  0.04641600  1
  H  H15  1  0.30005400  0.66964000  0.95358400  1
  H  H16  1  0.19994600  0.33036000  0.45358400  1
  H  H17  1  0.69994600  0.16964000  0.54641600  1
  H  H18  1  0.11139700  0.24022700  0.95934500  1
  H  H19  1  0.61139700  0.25977300  0.04065500  1
  Se  Se0  1  0.86735500  0.68836200  0.92096500  1
  Se  Se1  1  0.36735500  0.81163800  0.07903500  1
  Se  Se2  1  0.13264500  0.18836200  0.57903500  1
  Se  Se3  1  0.63264500  0.31163800  0.42096500  1
  Se  Se4  1  0.65495800  0.38883400  0.72815900  1
  Se  Se5  1  0.15495800  0.11116600  0.27184100  1
  Se  Se6  1  0.84504200  0.61116600  0.22815900  1
  Se  Se7  1  0.34504200  0.88883400  0.77184100  1
  O  O0  1  0.03214000  0.60951600  0.30036700  1
  O  O1  1  0.53214000  0.89048400  0.69963300  1
  O  O2  1  0.96786000  0.10951600  0.19963300  1
  O  O3  1  0.46786000  0.39048400  0.80036700  1
  O  O4  1  0.39995100  0.40255200  0.40132500  1
  O  O5  1  0.81485300  0.56911800  0.76253700  1
  O  O6  1  0.60004900  0.90255200  0.09867500  1
  O  O7  1  0.10004900  0.59744800  0.90132500  1
  O  O8  1  0.63828100  0.10591100  0.36247800  1
  O  O9  1  0.13828100  0.39408900  0.63752200  1
  O  O10  1  0.36171900  0.60591100  0.13752200  1
  O  O11  1  0.86171900  0.89408900  0.86247800  1
  O  O12  1  0.31485300  0.93088200  0.23746300  1
  O  O13  1  0.07035400  0.29465400  0.48218700  1
  O  O14  1  0.42964600  0.70534600  0.98218700  1
  O  O15  1  0.92964600  0.79465400  0.01781300  1
  O  O16  1  0.18514700  0.06911800  0.73746300  1
  O  O17  1  0.68514700  0.43088200  0.26253700  1
  O  O18  1  0.81176800  0.21095400  0.76376900  1
  O  O19  1  0.31176800  0.28904600  0.23623100  1
  O  O20  1  0.38798600  0.80330400  0.40057100  1
  O  O21  1  0.88798600  0.69669600  0.59942900  1
  O  O22  1  0.61201400  0.30330400  0.09942900  1
  O  O23  1  0.11201400  0.19669600  0.90057100  1
  O  O24  1  0.18823200  0.71095400  0.73623100  1
  O  O25  1  0.68823200  0.78904600  0.26376900  1
  O  O26  1  0.39586600  0.69134800  0.55584500  1
  O  O27  1  0.89586600  0.80865200  0.44415500  1
  O  O28  1  0.60413400  0.19134800  0.94415500  1
  O  O29  1  0.10413400  0.30865200  0.05584500  1
  O  O30  1  0.89995100  0.09744800  0.59867500  1
  O  O31  1  0.57035400  0.20534600  0.51781300  1
loop_
_geom_bond_atom_site_label_1
_geom_bond_atom_site_label_2
_geom_bond_distance
_geom_bond_site_symmetry_2
H0 O29 0.980762 1_555
H1 O28 0.980762 1_555
H2 O27 0.980762 1_555
H3 O26 0.980762 1_555
H4 O29 0.984217 1_555
H5 O28 0.984217 1_555
H6 O27 0.984217 1_555
H7 O26 0.984217 1_555
H8 O21 1.006578 1_555
H8 O27 1.646998 1_555
H9 O20 1.006578 1_555
H9 O26 1.646998 1_555
H10 O23 0.991082 1_555
H11 O22 0.991082 1_555
H12 O21 0.991082 1_555
H13 O20 0.991082 1_555
H14 O15 1.015429 1_555
H14 O6 1.664836 1_555
H15 O14 1.015429 1_555
H15 O7 1.664836 1_555
H16 O13 1.015429 1_555
H16 O4 1.664836 1_555
H17 O31 1.015429 1_555
H17 O30 1.664836 1_555
H18 O23 1.006578 1_555
H18 O29 1.646998 1_556
H19 O22 1.006578 1_555
H19 O28 1.646998 1_554
O0 Se6 1.718160 1_455
O0 Y3 2.306677 1_555
O1 Se7 1.718160 1_555
O1 Y2 2.306677 1_555
O2 Se5 1.718160 1_655
O2 Y1 2.306677 1_555
O3 Se4 1.718160 1_555
O3 Y0 2.306677 1_555
O4 Se3 1.711777 1_555
O4 Y3 2.405551 1_555
O5 Se4 1.750051 1_555
O5 Y2 2.423613 1_555
O5 Y0 2.445524 1_655
O6 Se1 1.711777 1_555
O6 Y1 2.405551 1_565
O7 Se0 1.711777 1_455
O7 Y0 2.405551 1_555
O8 Se3 1.732939 1_555
O8 Y1 2.391677 1_555
O9 Se2 1.732939 1_555
O9 Y0 2.391677 1_555
O10 Se1 1.732939 1_555
O10 Y3 2.391677 1_555
O11 Se0 1.732939 1_555
O11 Y2 2.391677 1_555
O12 Se5 1.750051 1_565
O12 Y3 2.423613 1_555
O12 Y1 2.445524 1_565
O13 Se2 1.796772 1_555
O14 Se1 1.796772 1_556
O15 Se0 1.796772 1_554
O16 Se7 1.750051 1_545
O16 Y0 2.423613 1_555
O16 Y2 2.445524 1_445
O17 Se6 1.750051 1_555
O17 Y1 2.423613 1_555
O17 Y3 2.445524 1_555
O18 Se4 1.731889 1_555
O18 Y2 2.413813 1_545
O18 Y0 2.471041 1_655
O19 Se5 1.731889 1_555
O19 Y3 2.413813 1_555
O19 Y1 2.471041 1_555
O20 Y3 2.345263 1_555
O21 Y2 2.345263 1_555
O22 Y1 2.345263 1_555
O23 Y0 2.345263 1_555
O24 Se7 1.731889 1_555
O24 Y0 2.413813 1_555
O24 Y2 2.471041 1_455
O25 Se6 1.731889 1_555
O25 Y1 2.413813 1_565
O25 Y3 2.471041 1_555
O30 Se2 1.711777 1_655
O30 Y2 2.405551 1_545
O31 Se3 1.796772 1_555
