# generated using pymatgen
data_Ba2Mg(NiO3)2
_symmetry_space_group_name_H-M   'P 1'
_cell_length_a   5.53699872
_cell_length_b   6.27109859
_cell_length_c   5.27663158
_cell_angle_alpha   107.09340086
_cell_angle_beta   89.95618853
_cell_angle_gamma   116.24368374
_symmetry_Int_Tables_number   1
_chemical_formula_structural   Ba2Mg(NiO3)2
_chemical_formula_sum   'Ba2 Mg1 Ni2 O6'
_cell_volume   155.28127907
_cell_formula_units_Z   1
loop_
 _symmetry_equiv_pos_site_id
 _symmetry_equiv_pos_as_xyz
  1  'x, y, z'
loop_
 _atom_site_type_symbol
 _atom_site_label
 _atom_site_symmetry_multiplicity
 _atom_site_fract_x
 _atom_site_fract_y
 _atom_site_fract_z
 _atom_site_occupancy
  Ba  Ba0  1  0.70685700  0.41296800  0.67962100  1
  Ba  Ba1  1  0.29289500  0.58469400  0.30091000  1
  Mg  Mg0  1  0.49979300  0.99858200  0.98997400  1
  Ni  Ni0  1  0.00009000  0.99935200  0.49038200  1
  Ni  Ni1  1  0.99979700  0.99878000  0.99000000  1
  O  O0  1  0.82684400  0.12921800  0.25722300  1
  O  O1  1  0.69709700  0.86882900  0.72288100  1
  O  O2  1  0.15415800  0.30724600  0.78632100  1
  O  O3  1  0.84619300  0.69154600  0.19357300  1
  O  O4  1  0.17308500  0.86898600  0.72292900  1
  O  O5  1  0.30319100  0.12938300  0.25729700  1
loop_
_geom_bond_atom_site_label_1
_geom_bond_atom_site_label_2
_geom_bond_distance
_geom_bond_site_symmetry_2
Ba0 O3 2.651017 1_556
Ba0 O5 2.699428 1_555
Ba0 O0 2.699484 1_555
Ba0 O1 2.824972 1_555
Ba0 O4 2.825303 1_655
Ba0 O2 2.923077 1_555
Ba0 O2 2.926494 1_655
Ba1 O2 2.652188 1_554
Ba1 O4 2.699483 1_555
Ba1 O1 2.700021 1_555
Ba1 O0 2.822429 1_455
Ba1 O5 2.822518 1_555
Ba1 O3 2.925823 1_555
Ba1 O3 2.928895 1_455
Mg0 O4 1.987200 1_555
Mg0 O1 1.987843 1_555
Mg0 O0 1.987911 1_566
Mg0 O5 1.988645 1_566
Ni0 O2 1.914993 1_565
Ni0 O3 1.917066 1_455
Ni0 O1 2.088625 1_455
Ni0 O5 2.090529 1_565
Ni0 O4 2.091807 1_555
Ni0 O0 2.092552 1_465
Ni1 O1 1.892179 1_555
Ni1 O4 1.892988 1_655
Ni1 O0 1.893953 1_566
Ni1 O5 1.894701 1_666
Ni1 O3 2.314178 1_556
Ni1 O2 2.320803 1_665
