# generated using pymatgen
data_Na4ScGaSi2SO12
_symmetry_space_group_name_H-M   'P 1'
_cell_length_a   9.07190845
_cell_length_b   9.07368693
_cell_length_c   22.33473070
_cell_angle_alpha   89.97086452
_cell_angle_beta   89.91929215
_cell_angle_gamma   119.65001962
_symmetry_Int_Tables_number   1
_chemical_formula_structural   Na4ScGaSi2SO12
_chemical_formula_sum   'Na24 Sc6 Ga6 Si12 S6 O72'
_cell_volume   1597.76820081
_cell_formula_units_Z   6
loop_
 _symmetry_equiv_pos_site_id
 _symmetry_equiv_pos_as_xyz
  1  'x, y, z'
loop_
 _atom_site_type_symbol
 _atom_site_label
 _atom_site_symmetry_multiplicity
 _atom_site_fract_x
 _atom_site_fract_y
 _atom_site_fract_z
 _atom_site_occupancy
  Na  Na0  1  0.64110525  0.99971050  0.25314249  1
  Na  Na1  1  0.36551129  0.37329293  0.24537081  1
  Na  Na2  1  0.99454678  0.62531911  0.25316391  1
  Na  Na3  1  0.62598204  0.63253544  0.74312105  1
  Na  Na4  1  0.99991113  0.35596868  0.75258681  1
  Na  Na5  1  0.37764899  0.00823903  0.75189533  1
  Na  Na6  1  0.30830932  0.33216851  0.58695181  1
  Na  Na7  1  0.03460174  0.70969940  0.57824944  1
  Na  Na8  1  0.66170755  0.95673896  0.58657534  1
  Na  Na9  1  0.29119051  0.96683135  0.07797376  1
  Na  Na10  1  0.66829462  0.68905629  0.08729115  1
  Na  Na11  1  0.04395090  0.34111696  0.08644184  1
  Na  Na12  1  0.98000399  0.66563824  0.92049250  1
  Na  Na13  1  0.69869951  0.04212206  0.91048673  1
  Na  Na14  1  0.32462841  0.28929043  0.91933547  1
  Na  Na15  1  0.95896029  0.30029720  0.41149956  1
  Na  Na16  1  0.33288759  0.02433692  0.41963851  1
  Na  Na17  1  0.70842624  0.67213171  0.41944601  1
  Na  Na18  1  0.99459325  0.98533217  0.49982941  1
  Na  Na19  1  0.01758538  0.00653226  0.00031657  1
  Na  Na20  1  0.66121331  0.31680918  0.83221759  1
  Na  Na21  1  0.67997153  0.33855370  0.33365859  1
  Na  Na22  1  0.32665970  0.65093542  0.16832693  1
  Na  Na23  1  0.34982210  0.67287863  0.66634731  1
  Sc  Sc0  1  0.01097001  0.01900450  0.84969562  1
  Sc  Sc1  1  -0.00114388  0.00324119  0.15090270  1
  Sc  Sc2  1  0.66427862  0.33347211  0.98281983  1
  Sc  Sc3  1  0.31519678  0.65464202  0.01880838  1
  Sc  Sc4  1  0.34446936  0.68552133  0.51768498  1
  Sc  Sc5  1  0.33267068  0.66957857  0.81443492  1
  Ga  Ga0  1  0.96399070  0.97954981  0.35011467  1
  Ga  Ga1  1  0.99861937  0.99905846  0.64885728  1
  Ga  Ga2  1  0.63451001  0.31299929  0.68361451  1
  Ga  Ga3  1  0.68705455  0.36885710  0.18547555  1
  Ga  Ga4  1  0.66750385  0.33621379  0.48346367  1
  Ga  Ga5  1  0.32956562  0.66694962  0.31748827  1
  Si  Si0  1  0.69748398  0.70320980  0.25112597  1
  Si  Si1  1  0.99951785  0.29580409  0.25192040  1
  Si  Si2  1  0.29397103  0.29336292  0.74639065  1
  Si  Si3  1  0.70986901  0.00614167  0.74605707  1
  Si  Si4  1  0.37197236  0.04448925  0.58291096  1
  Si  Si5  1  0.67071022  0.62131061  0.58482386  1
  Si  Si6  1  0.96042928  0.62969244  0.08384654  1
  Si  Si7  1  0.37682046  0.33290085  0.08592343  1
  Si  Si8  1  0.03499783  0.36997306  0.91575762  1
  Si  Si9  1  0.33258627  0.96195331  0.91662584  1
  Si  Si10  1  0.62708342  0.96522108  0.41524781  1
  Si  Si11  1  0.03813793  0.66890625  0.41504989  1
  S  S0  1  0.29396098  0.00066916  0.25132781  1
  S  S1  1  0.99741212  0.70606284  0.74885989  1
  S  S2  1  0.95592161  0.33231755  0.58357826  1
  S  S3  1  0.66634797  0.04182773  0.08477357  1
  S  S4  1  0.62729141  0.66732899  0.91661974  1
  S  S5  1  0.33244503  0.37263175  0.41613403  1
  O  O0  1  0.21523699  0.03045859  0.30468892  1
  O  O1  1  0.82541273  0.78206459  0.30857566  1
  O  O2  1  0.96932645  0.17143575  0.31047265  1
  O  O3  1  0.21675629  0.17569599  0.80644289  1
  O  O4  1  0.96922095  0.78291299  0.80314170  1
  O  O5  1  0.82120680  0.03431102  0.80705652  1
  O  O6  1  0.79857629  0.96631311  0.68851045  1
  O  O7  1  0.16920214  0.20203974  0.68871471  1
  O  O8  1  0.02820671  0.81425208  0.69512748  1
  O  O9  1  0.78059255  0.82171634  0.19188889  1
  O  O10  1  0.03872940  0.21589244  0.19241971  1
  O  O11  1  0.18777043  0.97238774  0.19703287  1
  O  O12  1  0.88063425  0.36332998  0.63744670  1
  O  O13  1  0.49458224  0.11883939  0.64161447  1
  O  O14  1  0.64390683  0.50318493  0.64444996  1
  O  O15  1  0.88091816  0.50490128  0.14242393  1
  O  O16  1  0.63694690  0.11893677  0.13834330  1
  O  O17  1  0.49683858  0.35715429  0.14500717  1
  O  O18  1  0.45649896  0.29803150  0.02540439  1
  O  O19  1  0.84341254  0.54501737  0.02459360  1
  O  O20  1  0.69387011  0.14571818  0.03016588  1
  O  O21  1  0.45970723  0.16657675  0.52386862  1
  O  O22  1  0.70663327  0.53850101  0.52437508  1
  O  O23  1  0.85070403  0.30395020  0.52898786  1
  O  O24  1  0.55088441  0.69605744  0.97070256  1
  O  O25  1  0.15661196  0.45191490  0.97466697  1
  O  O26  1  0.30878250  0.84671423  0.97620690  1
  O  O27  1  0.54986827  0.84314226  0.47416657  1
  O  O28  1  0.30309339  0.44973165  0.47021520  1
  O  O29  1  0.15486226  0.70033886  0.47473242  1
  O  O30  1  0.12563790  0.62926794  0.35689360  1
  O  O31  1  0.50332205  0.87590773  0.35688904  1
  O  O32  1  0.36226191  0.48105244  0.36231154  1
  O  O33  1  0.12418095  0.48987400  0.85711541  1
  O  O34  1  0.36762489  0.87651541  0.85741599  1
  O  O35  1  0.52132234  0.64036743  0.86288899  1
  O  O36  1  0.02777937  0.84748479  0.40768937  1
  O  O37  1  0.81997018  0.98688498  0.41148861  1
  O  O38  1  0.18192299  0.20118970  0.41005528  1
  O  O39  1  0.01232545  0.17849417  0.91357934  1
  O  O40  1  0.15488680  0.96874311  0.91242097  1
  O  O41  1  0.79857118  0.81706315  0.91019477  1
  O  O42  1  0.97290707  0.17673201  0.58732732  1
  O  O43  1  0.18098963  0.02642467  0.58986436  1
  O  O44  1  0.84060715  0.81502166  0.58969621  1
  O  O45  1  0.97690390  0.81750277  0.08942198  1
  O  O46  1  0.82221386  0.02603964  0.08863527  1
  O  O47  1  0.18478020  0.16625770  0.08944367  1
  O  O48  1  0.69993116  0.18496385  0.74034335  1
  O  O49  1  0.48735960  0.31646162  0.74469362  1
  O  O50  1  0.84816308  0.53474626  0.74334672  1
  O  O51  1  0.67832052  0.51158855  0.24730832  1
  O  O52  1  0.81987479  0.30434446  0.24474894  1
  O  O53  1  0.46604778  0.15055580  0.24492342  1
  O  O54  1  0.64252182  0.51206914  0.92086144  1
  O  O55  1  0.84767237  0.35433448  0.92078360  1
  O  O56  1  0.50028518  0.15257780  0.91989189  1
  O  O57  1  0.64427523  0.15538617  0.42351067  1
  O  O58  1  0.48898980  0.35755111  0.42063375  1
  O  O59  1  0.84661912  0.49706868  0.42156242  1
  O  O60  1  0.36864308  0.51030951  0.08199801  1
  O  O61  1  0.15196975  0.65159969  0.08174876  1
  O  O62  1  0.51721268  0.86944186  0.07831612  1
  O  O63  1  0.34791979  0.85175802  0.57950622  1
  O  O64  1  0.49517581  0.63400203  0.58007457  1
  O  O65  1  0.12917596  0.48288149  0.57714758  1
  O  O66  1  0.30884059  0.84367511  0.25503880  1
  O  O67  1  0.50828574  0.68656878  0.25946037  1
  O  O68  1  0.16972355  0.48712858  0.25828252  1
  O  O69  1  0.31183210  0.48228082  0.75194757  1
  O  O70  1  0.15373632  0.69072629  0.75335971  1
  O  O71  1  0.51936688  0.83720906  0.75104322  1
loop_
_geom_bond_atom_site_label_1
_geom_bond_atom_site_label_2
_geom_bond_distance
_geom_bond_site_symmetry_2
Na0 O52 2.422630 1_565
Na0 O67 2.481292 1_555
Na0 O53 2.565226 1_565
Na0 O31 2.606421 1_555
Na0 O66 2.620941 1_555
Na0 O16 2.789934 1_565
Na0 O9 2.846189 1_555
Na0 O2 2.890651 1_565
Na1 O51 2.471165 1_555
Na1 O68 2.473636 1_555
Na1 O67 2.493218 1_555
Na1 O17 2.575077 1_555
Na1 O53 2.596219 1_555
Na1 O32 2.794552 1_555
Na1 O10 2.837147 1_555
Na2 O68 2.466328 1_655
Na2 O51 2.526664 1_555
Na2 O52 2.542396 1_555
Na2 O66 2.543229 1_655
Na2 O30 2.597830 1_655
Na2 O15 2.696193 1_555
Na2 O1 2.839782 1_555
Na3 O69 2.484673 1_555
Na3 O71 2.488539 1_555
Na3 O49 2.497844 1_555
Na3 O14 2.539909 1_555
Na3 O50 2.572847 1_555
Na3 O35 2.849890 1_555
Na3 O6 2.900130 1_555
Na4 O48 2.390188 1_555
Na4 O69 2.472276 1_655
Na4 O50 2.603676 1_555
Na4 O33 2.617767 1_655
Na4 O70 2.642021 1_655
Na4 O12 2.804952 1_555
Na4 O5 2.817087 1_555
Na4 O7 2.909071 1_655
Na5 O71 2.456736 1_545
Na5 O49 2.466403 1_555
Na5 O48 2.558294 1_555
Na5 O70 2.576245 1_545
Na5 O34 2.623014 1_545
Na5 O13 2.671346 1_555
Na5 O3 2.848616 1_555
Na6 O64 2.409017 1_555
Na6 O43 2.421548 1_555
Na6 O7 2.582146 1_555
Na6 O65 2.599699 1_555
Na6 O42 2.646031 1_455
Na6 O28 2.825868 1_555
Na6 O21 2.857908 1_555
Na6 O14 2.943628 1_555
Na7 O44 2.395606 1_455
Na7 O63 2.473207 1_555
Na7 O43 2.513099 1_565
Na7 O29 2.574434 1_555
Na7 O65 2.592186 1_555
Na7 O8 2.788243 1_555
Na7 O22 2.855251 1_455
Na8 O63 2.520770 1_555
Na8 O44 2.521402 1_555
Na8 O42 2.525791 1_565
Na8 O64 2.550077 1_555
Na8 O6 2.575663 1_555
Na8 O27 2.714802 1_555
Na8 O13 2.859407 1_565
Na9 O47 2.449491 1_565
Na9 O45 2.491149 1_455
Na9 O61 2.491754 1_555
Na9 O26 2.559921 1_554
Na9 O62 2.603476 1_555
Na9 O11 2.827331 1_555
Na9 O18 2.862034 1_565
Na10 O60 2.381833 1_555
Na10 O45 2.443530 1_555
Na10 O9 2.596290 1_555
Na10 O62 2.611079 1_555
Na10 O46 2.660072 1_565
Na10 O24 2.827335 1_554
Na10 O19 2.871029 1_555
Na10 O17 2.916575 1_555
Na11 O47 2.481892 1_555
Na11 O61 2.485151 1_555
Na11 O46 2.555745 1_455
Na11 O60 2.562814 1_555
Na11 O10 2.615268 1_555
Na11 O25 2.694673 1_554
Na11 O15 2.851460 1_455
Na12 O40 2.407310 1_655
Na12 O55 2.462701 1_555
Na12 O19 2.605142 1_556
Na12 O41 2.624523 1_555
Na12 O54 2.663484 1_555
Na12 O4 2.848231 1_555
Na12 O26 2.882374 1_655
Na12 O33 2.884243 1_655
Na13 O56 2.464277 1_555
Na13 O55 2.473519 1_555
Na13 O39 2.479583 1_655
Na13 O5 2.578283 1_555
Na13 O41 2.611849 1_545
Na13 O20 2.841378 1_556
Na13 O34 2.868854 1_545
Na14 O56 2.456461 1_555
Na14 O39 2.497440 1_555
Na14 O40 2.534660 1_545
Na14 O54 2.576188 1_555
Na14 O18 2.638943 1_556
Na14 O3 2.718319 1_555
Na14 O25 2.872244 1_555
Na15 O59 2.465176 1_555
Na15 O37 2.475751 1_545
Na15 O57 2.496854 1_555
Na15 O2 2.564809 1_555
Na15 O38 2.588542 1_655
Na15 O23 2.806489 1_555
Na15 O30 2.865194 1_655
Na16 O36 2.432191 1_545
Na16 O57 2.465505 1_555
Na16 O38 2.582909 1_555
Na16 O58 2.628925 1_555
Na16 O21 2.636326 1_555
Na16 O0 2.792823 1_555
Na16 O29 2.838717 1_545
Na16 O31 2.867891 1_545
Na17 O59 2.463242 1_555
Na17 O37 2.520266 1_555
Na17 O36 2.535868 1_655
Na17 O58 2.547344 1_555
Na17 O22 2.634436 1_555
Na17 O1 2.682512 1_555
Na17 O27 2.859342 1_555
Na18 O44 2.494247 1_555
Na18 O36 2.502716 1_655
Na18 O43 2.535484 1_665
Na18 O37 2.536461 1_555
Na18 O42 2.685949 1_565
Na18 O38 2.727228 1_665
Na19 O40 2.437063 1_544
Na19 O47 2.490012 1_555
Na19 O39 2.502140 1_554
Na19 O45 2.531192 1_445
Na19 O46 2.713790 1_455
Na19 O41 2.754996 1_444
Na20 O56 2.454177 1_555
Na20 O48 2.486247 1_555
Na20 O49 2.512495 1_555
Na20 O55 2.516023 1_555
Na20 O54 2.717975 1_555
Na20 O50 2.719371 1_555
Na21 O52 2.456379 1_555
Na21 O59 2.463478 1_555
Na21 O51 2.491010 1_555
Na21 O57 2.521256 1_555
Na21 O58 2.662972 1_555
Na21 O53 2.709771 1_555
Na22 O60 2.443807 1_555
Na22 O68 2.483542 1_555
Na22 O61 2.503758 1_555
Na22 O67 2.538795 1_555
Na22 O66 2.667896 1_555
Na22 O62 2.748808 1_555
Na23 O71 2.430923 1_555
Na23 O64 2.455576 1_555
Na23 O69 2.483940 1_555
Na23 O63 2.534025 1_555
Na23 O70 2.691285 1_555
Na23 O65 2.747424 1_555
Ga0 O1 1.851566 1_555
Ga0 O37 1.916136 1_555
Ga0 O2 1.932011 1_565
Ga0 O36 2.027571 1_655
Ga0 O0 2.321458 1_665
Ga0 O38 2.412844 1_665
Ga1 O6 1.904667 1_555
Ga1 O7 1.940363 1_665
Ga1 O43 2.030261 1_665
Ga1 O44 2.056343 1_555
Ga1 O8 2.096732 1_655
Ga1 O42 2.216471 1_565
Ga2 O13 1.840508 1_555
Ga2 O14 1.898186 1_555
Ga2 O49 1.918449 1_555
Ga2 O48 1.997514 1_555
Ga2 O12 2.289419 1_555
Ga2 O50 2.395097 1_555
Ga3 O15 1.840512 1_555
Ga3 O17 1.905042 1_555
Ga3 O51 1.921930 1_555
Ga3 O52 2.061230 1_555
Ga3 O16 2.332619 1_555
Ga3 O53 2.401423 1_555
Ga4 O22 1.920399 1_555
Ga4 O21 1.964737 1_555
Ga4 O57 2.047069 1_555
Ga4 O59 2.080188 1_555
Ga4 O23 2.089864 1_555
Ga4 O58 2.223895 1_555
Ga5 O30 1.919196 1_555
Ga5 O31 1.975503 1_555
Ga5 O67 2.012064 1_555
Ga5 O68 2.044561 1_555
Ga5 O32 2.104652 1_555
Ga5 O66 2.202030 1_555
O0 S0 1.480688 1_555
O1 Si0 1.639754 1_555
O2 Si1 1.658425 1_555
O3 Si2 1.638747 1_555
O3 Sc0 1.951222 1_555
O4 S1 1.482541 1_555
O4 Sc0 2.239263 1_665
O5 Si3 1.640267 1_555
O5 Sc0 2.032458 1_655
O6 Si3 1.647874 1_565
O7 Si2 1.644513 1_555
O8 S1 1.486098 1_455
O9 Si0 1.633634 1_555
O9 Sc1 2.058676 1_665
O10 Si1 1.634994 1_455
O10 Sc1 2.006481 1_555
O11 S0 1.491128 1_565
O11 Sc1 2.134583 1_565
O12 S2 1.476956 1_555
O13 Si4 1.635228 1_555
O14 Si5 1.649619 1_555
O15 Si6 1.643729 1_555
O16 S3 1.475395 1_555
O17 Si7 1.656071 1_555
O18 Si7 1.635110 1_555
O18 Sc2 1.988970 1_554
O19 Si6 1.632983 1_555
O19 Sc2 2.028713 1_554
O20 S3 1.484456 1_555
O20 Sc2 2.131683 1_554
O21 Si4 1.650099 1_555
O22 Si5 1.653979 1_555
O23 S2 1.491469 1_555
O24 S4 1.477916 1_555
O24 Sc3 2.250642 1_556
O25 Si8 1.641534 1_555
O25 Sc3 1.952669 1_556
O26 Si9 1.638659 1_555
O26 Sc3 2.011192 1_556
O27 Si10 1.636334 1_555
O27 Sc4 1.954243 1_555
O28 S5 1.484443 1_555
O28 Sc4 2.247492 1_555
O29 Si11 1.638616 1_555
O29 Sc4 2.032356 1_555
O30 Si11 1.651261 1_555
O31 Si10 1.649608 1_555
O32 S5 1.490183 1_555
O33 Si8 1.636566 1_555
O33 Sc5 2.021592 1_555
O34 Si9 1.641505 1_555
O34 Sc5 1.990318 1_555
O35 S4 1.481564 1_555
O35 Sc5 2.150386 1_555
O36 Si11 1.676863 1_555
O37 Si10 1.663404 1_555
O38 S5 1.483927 1_555
O39 Si8 1.646161 1_555
O39 Sc0 2.028496 1_555
O40 Si9 1.646232 1_555
O40 Sc0 2.113970 1_565
O41 S4 1.480319 1_555
O41 Sc0 2.322288 1_665
O42 S2 1.496294 1_555
O43 Si4 1.664646 1_555
O44 Si5 1.672461 1_555
O45 Si6 1.640178 1_555
O45 Sc1 2.106326 1_665
O46 S3 1.492685 1_555
O46 Sc1 2.208808 1_655
O47 Si7 1.649492 1_555
O47 Sc1 2.107137 1_555
O48 Si3 1.673835 1_555
O49 Si2 1.661112 1_555
O50 S1 1.477514 1_555
O51 Si0 1.661846 1_555
O52 Si1 1.677282 1_555
O53 S0 1.485194 1_555
O54 S4 1.484996 1_555
O54 Sc2 2.212466 1_555
O55 Si8 1.637545 1_655
O55 Sc2 2.098870 1_555
O56 Si9 1.645744 1_545
O56 Sc2 2.115426 1_555
O57 Si10 1.664293 1_545
O58 S5 1.496107 1_555
O59 Si11 1.670244 1_655
O60 Si7 1.650004 1_555
O60 Sc3 2.137838 1_555
O61 Si6 1.648972 1_455
O61 Sc3 2.030585 1_555
O62 S3 1.484879 1_565
O62 Sc3 2.323638 1_555
O63 Si4 1.653564 1_565
O63 Sc4 2.034260 1_555
O64 Si5 1.655975 1_555
O64 Sc4 2.160213 1_555
O65 S2 1.494017 1_455
O65 Sc4 2.323005 1_555
O66 S0 1.498165 1_565
O67 Si0 1.657134 1_555
O68 Si1 1.663393 1_455
O69 Si2 1.644852 1_555
O69 Sc5 2.134727 1_555
O70 S1 1.495422 1_455
O70 Sc5 2.201538 1_555
O71 Si3 1.651369 1_565
O71 Sc5 2.151491 1_555
