# generated using pymatgen
data_MgV4O8
_symmetry_space_group_name_H-M   'P 1'
_cell_length_a   5.96694673
_cell_length_b   5.96661133
_cell_length_c   5.96676346
_cell_angle_alpha   117.75678644
_cell_angle_beta   87.14394250
_cell_angle_gamma   61.00927504
_symmetry_Int_Tables_number   1
_chemical_formula_structural   MgV4O8
_chemical_formula_sum   'Mg1 V4 O8'
_cell_volume   153.66088468
_cell_formula_units_Z   1
loop_
 _symmetry_equiv_pos_site_id
 _symmetry_equiv_pos_as_xyz
  1  'x, y, z'
loop_
 _atom_site_type_symbol
 _atom_site_label
 _atom_site_symmetry_multiplicity
 _atom_site_fract_x
 _atom_site_fract_y
 _atom_site_fract_z
 _atom_site_occupancy
  Mg  Mg0  1  0.12363100  0.25000900  0.12642000  1
  V  V0  1  0.50532100  0.50366600  0.99831500  1
  V  V1  1  0.49361800  0.49609200  0.51022600  1
  V  V2  1  0.98589300  0.00386800  0.51028300  1
  V  V3  1  0.50534800  0.99638100  0.49105000  1
  O  O0  1  0.25649900  0.52732500  0.27092000  1
  O  O1  1  0.25837000  0.97750700  0.26411800  1
  O  O2  1  0.25636100  0.97256300  0.71610000  1
  O  O3  1  0.71338300  0.52250100  0.26417500  1
  O  O4  1  0.29504500  0.47422600  0.73071900  1
  O  O5  1  0.74409400  0.04119100  0.29718500  1
  O  O6  1  0.74344900  0.02585400  0.73075600  1
  O  O7  1  0.74398900  0.45881700  0.71473400  1
loop_
_geom_bond_atom_site_label_1
_geom_bond_atom_site_label_2
_geom_bond_distance
_geom_bond_site_symmetry_2
Mg0 O1 2.002002 1_545
Mg0 O3 2.002040 1_455
Mg0 O0 2.029943 1_555
Mg0 O2 2.030414 1_544
O0 V0 2.052394 1_554
O0 V2 2.066156 1_465
O0 V1 2.066167 1_555
O1 V2 2.030886 1_465
O1 V0 2.057227 1_554
O1 V3 2.058066 1_555
O2 V3 2.052862 1_555
O2 V2 2.065564 1_465
O2 V1 2.065899 1_555
O3 V1 2.030694 1_555
O3 V3 2.057467 1_555
O3 V0 2.058109 1_554
O4 V1 1.818298 1_555
O4 V3 2.074609 1_545
O4 V0 2.075230 1_555
O5 V1 1.970124 1_555
O5 V2 1.970560 1_555
O5 V3 1.982937 1_545
O6 V2 1.818304 1_555
O6 V0 2.074449 1_555
O6 V3 2.074968 1_545
O7 V2 1.970346 1_555
O7 V1 1.970467 1_555
O7 V0 1.982803 1_555
