# generated using pymatgen
data_Hg3(SeI)2
_symmetry_space_group_name_H-M   'P 1'
_cell_length_a   12.10719576
_cell_length_b   12.10502416
_cell_length_c   12.10650287
_cell_angle_alpha   132.23761228
_cell_angle_beta   131.51063525
_cell_angle_gamma   70.42795366
_symmetry_Int_Tables_number   1
_chemical_formula_structural   Hg3(SeI)2
_chemical_formula_sum   'Hg12 Se8 I8'
_cell_volume   963.94531792
_cell_formula_units_Z   4
loop_
 _symmetry_equiv_pos_site_id
 _symmetry_equiv_pos_as_xyz
  1  'x, y, z'
loop_
 _atom_site_type_symbol
 _atom_site_label
 _atom_site_symmetry_multiplicity
 _atom_site_fract_x
 _atom_site_fract_y
 _atom_site_fract_z
 _atom_site_occupancy
  Hg  Hg0  1  0.15089408  0.65088630  0.00001012  1
  Hg  Hg1  1  0.34908191  0.34912770  0.49998492  1
  Hg  Hg2  1  0.84913088  0.34911385  0.00002660  1
  Hg  Hg3  1  0.65091483  0.65084498  0.50001129  1
  Hg  Hg4  1  0.02577430  0.74614241  0.27186421  1
  Hg  Hg5  1  0.47429697  0.74614001  0.72041296  1
  Hg  Hg6  1  0.52570226  0.25383480  0.27958554  1
  Hg  Hg7  1  0.97425424  0.25385225  0.72816047  1
  Hg  Hg8  1  0.11772157  0.07428725  0.95655823  1
  Hg  Hg9  1  0.38227159  0.33889861  0.95667426  1
  Hg  Hg10  1  0.88222597  0.92566994  0.04339255  1
  Hg  Hg11  1  0.61774433  0.66111995  0.04338093  1
  Se  Se0  1  0.13177153  0.88548782  0.26148134  1
  Se  Se1  1  0.36823354  0.62954061  0.75358348  1
  Se  Se2  1  0.37593984  0.11462801  0.24640389  1
  Se  Se3  1  0.12407522  0.37051027  0.73877896  1
  Se  Se4  1  0.86825331  0.11455992  0.73859251  1
  Se  Se5  1  0.63171728  0.37041785  0.24635191  1
  Se  Se6  1  0.62396917  0.88532685  0.75355975  1
  Se  Se7  1  0.87593826  0.62947568  0.26118790  1
  I  I0  1  0.99948162  0.74533458  0.74581205  1
  I  I1  1  0.50052994  0.24629522  0.74583163  1
  I  I2  1  0.00049656  0.25467525  0.25411863  1
  I  I3  1  0.49946567  0.75368549  0.25420010  1
  I  I4  1  0.75031523  0.49252229  0.74221001  1
  I  I5  1  0.24988251  0.50776056  0.25779853  1
  I  I6  1  0.75000693  0.00306339  0.25309788  1
  I  I7  1  0.24991148  0.99680015  0.74692936  1
loop_
_geom_bond_atom_site_label_1
_geom_bond_atom_site_label_2
_geom_bond_distance
_geom_bond_site_symmetry_2
Hg0 Se3 2.563787 1_554
Hg0 Se0 2.565936 1_555
Hg0 I3 3.159809 1_555
Hg0 I0 3.160140 1_454
Hg1 Se1 2.564128 1_555
Hg1 Se2 2.564604 1_555
Hg1 I2 3.159890 1_555
Hg1 I1 3.160385 1_555
Hg2 Se7 2.563510 1_555
Hg2 Se4 2.565546 1_554
Hg2 I2 3.159080 1_655
Hg2 I1 3.160134 1_554
Hg3 Se5 2.564261 1_555
Hg3 Se6 2.564920 1_555
Hg3 I0 3.159930 1_555
Hg3 I3 3.160110 1_555
Hg4 Se0 2.541092 1_555
Hg4 Se7 2.542119 1_455
Hg4 I5 3.228625 1_555
Hg4 I7 3.319081 1_555
Hg5 Se6 2.540908 1_555
Hg5 Se1 2.542106 1_555
Hg5 I5 3.229717 1_555
Hg5 I7 3.318703 1_555
Hg6 Se2 2.541687 1_555
Hg6 Se5 2.542137 1_555
Hg6 I4 3.229805 1_555
Hg6 I6 3.318906 1_555
Hg7 Se4 2.541064 1_555
Hg7 Se3 2.542438 1_655
Hg7 I4 3.229459 1_555
Hg7 I6 3.319069 1_555
Hg8 Se4 2.549889 1_455
Hg8 Se2 2.550154 1_556
Hg8 I0 3.119968 1_445
Hg8 I7 3.325631 1_545
Hg9 Se5 2.549403 1_556
Hg9 Se3 2.549963 1_555
Hg9 I1 3.121601 1_555
Hg9 I7 3.328661 1_545
Hg10 Se6 2.550253 1_554
Hg10 Se0 2.550322 1_655
Hg10 I2 3.120740 1_665
Hg10 I6 3.327217 1_565
Hg11 Se7 2.549775 1_555
Hg11 Se1 2.550093 1_554
Hg11 I3 3.121726 1_555
Hg11 I6 3.326656 1_565
