# generated using pymatgen
data_Na9Ca10Ta2P3(S5O24)3
_symmetry_space_group_name_H-M   'P 1'
_cell_length_a   9.18750749
_cell_length_b   9.15257116
_cell_length_c   23.94039011
_cell_angle_alpha   89.80605797
_cell_angle_beta   90.02419369
_cell_angle_gamma   119.94297421
_symmetry_Int_Tables_number   1
_chemical_formula_structural   Na9Ca10Ta2P3(S5O24)3
_chemical_formula_sum   'Na9 Ca10 Ta2 P3 S15 O72'
_cell_volume   1744.41171165
_cell_formula_units_Z   1
loop_
 _symmetry_equiv_pos_site_id
 _symmetry_equiv_pos_as_xyz
  1  'x, y, z'
loop_
 _atom_site_type_symbol
 _atom_site_label
 _atom_site_symmetry_multiplicity
 _atom_site_fract_x
 _atom_site_fract_y
 _atom_site_fract_z
 _atom_site_occupancy
  Na  Na0  1  0.66692447  0.97092454  0.58828262  1
  Na  Na1  1  0.30363738  0.97067215  0.08812211  1
  Na  Na2  1  0.33144244  0.04527519  0.41237520  1
  Na  Na3  1  0.00896411  0.01222862  0.50200385  1
  Na  Na4  1  0.98770979  0.00216605  0.00248541  1
  Na  Na5  1  0.66941449  0.32340387  0.83021166  1
  Na  Na6  1  0.65848548  0.33492059  0.32983789  1
  Na  Na7  1  0.33231854  0.66023822  0.16285723  1
  Na  Na8  1  0.32472817  0.65704581  0.66221270  1
  Ca  Ca0  1  0.00099770  0.00372642  0.34792737  1
  Ca  Ca1  1  0.99575124  0.00157807  0.84921042  1
  Ca  Ca2  1  0.00136748  0.99861687  0.65578055  1
  Ca  Ca3  1  0.99870418  0.99782259  0.15562449  1
  Ca  Ca4  1  0.66563729  0.33242416  0.68553740  1
  Ca  Ca5  1  0.66457352  0.33067542  0.18545914  1
  Ca  Ca6  1  0.67236069  0.33810754  0.97978445  1
  Ca  Ca7  1  0.67026606  0.34818849  0.48026322  1
  Ca  Ca8  1  0.33253014  0.65855118  0.01793763  1
  Ca  Ca9  1  0.32524985  0.65052210  0.51798118  1
  Ta  Ta0  1  0.33335538  0.66183578  0.31545045  1
  Ta  Ta1  1  0.33891730  0.67204219  0.81524411  1
  P  P0  1  0.30458509  0.99416570  0.25377646  1
  P  P1  1  0.69479665  0.99798974  0.75162675  1
  P  P2  1  0.33319557  0.37249311  0.41430082  1
  S  S0  1  0.69084288  0.69884671  0.25385909  1
  S  S1  1  0.00764031  0.31057500  0.25305777  1
  S  S2  1  0.30127032  0.31001009  0.75403463  1
  S  S3  1  0.00926097  0.69918388  0.75436590  1
  S  S4  1  0.96067513  0.32952812  0.58397728  1
  S  S5  1  0.36854582  0.03519626  0.58138202  1
  S  S6  1  0.67000513  0.63801654  0.58415088  1
  S  S7  1  0.96653143  0.63529509  0.08330803  1
  S  S8  1  0.66668889  0.03573909  0.08263935  1
  S  S9  1  0.36848197  0.32945301  0.08348841  1
  S  S10  1  0.61989867  0.66522494  0.91374047  1
  S  S11  1  0.04619891  0.38002786  0.91352226  1
  S  S12  1  0.33356268  0.95442450  0.91471708  1
  S  S13  1  0.61860067  0.95175617  0.41517959  1
  S  S14  1  0.04858630  0.66660887  0.41340772  1
  O  O0  1  0.21733982  0.01221336  0.30543096  1
  O  O1  1  0.79273738  0.78140900  0.30300009  1
  O  O2  1  0.98301066  0.20597970  0.30226826  1
  O  O3  1  0.22029230  0.20374982  0.80282913  1
  O  O4  1  0.98904120  0.78302639  0.80308771  1
  O  O5  1  0.80437310  0.01413557  0.80103869  1
  O  O6  1  0.74760289  0.95302244  0.69629098  1
  O  O7  1  0.20092425  0.24791367  0.70281106  1
  O  O8  1  0.04961832  0.80034181  0.70298478  1
  O  O9  1  0.75341670  0.80047639  0.20268612  1
  O  O10  1  0.04459277  0.24574340  0.20217616  1
  O  O11  1  0.20217770  0.95354177  0.19929758  1
  O  O12  1  0.87794452  0.34532607  0.63433334  1
  O  O13  1  0.47473983  0.12258999  0.63019584  1
  O  O14  1  0.65306338  0.53885064  0.63441978  1
  O  O15  1  0.88566540  0.53741006  0.13389499  1
  O  O16  1  0.64622256  0.11764939  0.13277402  1
  O  O17  1  0.46696899  0.34721319  0.13404666  1
  O  O18  1  0.45084160  0.31048975  0.03269540  1
  O  O19  1  0.87036175  0.55346824  0.03220044  1
  O  O20  1  0.68387931  0.13462212  0.03143817  1
  O  O21  1  0.44616759  0.12947019  0.52842964  1
  O  O22  1  0.68447496  0.55669820  0.53285759  1
  O  O23  1  0.86033829  0.31119243  0.53285378  1
  O  O24  1  0.54259187  0.68253589  0.96464106  1
  O  O25  1  0.13812244  0.45772682  0.96485869  1
  O  O26  1  0.31811435  0.86276314  0.96677838  1
  O  O27  1  0.54397153  0.86211925  0.46736864  1
  O  O28  1  0.31894600  0.45627586  0.46630847  1
  O  O29  1  0.14661410  0.69035478  0.46398233  1
  O  O30  1  0.14706156  0.65522137  0.36316531  1
  O  O31  1  0.50452145  0.85034706  0.36565632  1
  O  O32  1  0.33859549  0.49000811  0.36189756  1
  O  O33  1  0.14853666  0.49040969  0.86357540  1
  O  O34  1  0.34223573  0.84820595  0.86528510  1
  O  O35  1  0.50742768  0.65626220  0.86367809  1
  O  O36  1  0.03422698  0.81966330  0.40657298  1
  O  O37  1  0.78552874  0.97221218  0.40749311  1
  O  O38  1  0.17939240  0.19362247  0.40954094  1
  O  O39  1  0.02945224  0.21221195  0.90826989  1
  O  O40  1  0.18363726  0.96977500  0.90702032  1
  O  O41  1  0.78648852  0.81454282  0.90725198  1
  O  O42  1  0.97117786  0.17033537  0.58742802  1
  O  O43  1  0.19779746  0.01331266  0.58667030  1
  O  O44  1  0.82189517  0.81188882  0.58683339  1
  O  O45  1  0.98939127  0.81022649  0.08604414  1
  O  O46  1  0.81471957  0.01177306  0.08715192  1
  O  O47  1  0.19985704  0.17021683  0.08728289  1
  O  O48  1  0.65776579  0.14269211  0.74847771  1
  O  O49  1  0.47294803  0.34143870  0.74810655  1
  O  O50  1  0.86620159  0.52852388  0.74862333  1
  O  O51  1  0.66370770  0.52802566  0.24822498  1
  O  O52  1  0.86814643  0.34308826  0.24729711  1
  O  O53  1  0.48423706  0.14188339  0.24924360  1
  O  O54  1  0.62494523  0.50718662  0.91160906  1
  O  O55  1  0.88194727  0.37251136  0.91157625  1
  O  O56  1  0.49049830  0.11776692  0.91208207  1
  O  O57  1  0.62067811  0.11562526  0.41334420  1
  O  O58  1  0.49480669  0.35933138  0.41032307  1
  O  O59  1  0.88440011  0.51132858  0.41287301  1
  O  O60  1  0.34529996  0.47853731  0.07993174  1
  O  O61  1  0.14163272  0.66008488  0.08019893  1
  O  O62  1  0.50657238  0.86750763  0.07918272  1
  O  O63  1  0.36043184  0.86689171  0.57916062  1
  O  O64  1  0.52015773  0.66314496  0.58131118  1
  O  O65  1  0.13144957  0.47905804  0.58117903  1
  O  O66  1  0.32152955  0.82672813  0.26754283  1
  O  O67  1  0.51462972  0.68131176  0.26412754  1
  O  O68  1  0.16820864  0.48597586  0.26318814  1
  O  O69  1  0.31640563  0.48579280  0.76502824  1
  O  O70  1  0.16711991  0.68024806  0.76534152  1
  O  O71  1  0.50884527  0.82930458  0.76743959  1
loop_
_geom_bond_atom_site_label_1
_geom_bond_atom_site_label_2
_geom_bond_distance
_geom_bond_site_symmetry_2
Na0 O64 2.447961 1_555
Na0 O42 2.460109 1_565
Na0 O63 2.491571 1_555
Na0 O44 2.493269 1_555
Na0 O6 2.716467 1_555
Na1 O47 2.446058 1_565
Na1 O61 2.472201 1_555
Na1 O62 2.484497 1_555
Na1 O45 2.502490 1_455
Na1 O11 2.798376 1_555
Na2 O38 2.385870 1_555
Na2 O57 2.401797 1_555
Na2 O36 2.472345 1_545
Na2 O58 2.491935 1_555
Na2 O0 2.726153 1_555
Na2 O21 2.936911 1_555
Na3 O42 2.630417 1_455
Na3 O43 2.664302 1_555
Na3 O44 2.696699 1_445
Na3 O38 2.736978 1_555
Na3 O37 2.952760 1_445
Na3 O36 2.969154 1_545
Na4 O46 2.604942 1_555
Na4 O45 2.662962 1_545
Na4 O47 2.703895 1_655
Na4 O39 2.857592 1_654
Na4 O41 2.901458 1_544
Na4 O40 3.015356 1_644
Na5 O48 2.533962 1_555
Na5 O55 2.633581 1_555
Na5 O56 2.641081 1_555
Na5 O50 2.682965 1_555
Na5 O49 2.727882 1_555
Na5 O54 2.739091 1_555
Na6 O58 2.522862 1_555
Na6 O53 2.569852 1_555
Na6 O51 2.614496 1_555
Na6 O57 2.724575 1_555
Na6 O52 2.734839 1_555
Na6 O59 2.745814 1_555
Na7 O60 2.634718 1_555
Na7 O61 2.641935 1_555
Na7 O62 2.668294 1_555
Na7 O68 2.857112 1_555
Na7 O67 2.897924 1_555
Na7 O66 2.964757 1_555
Na8 O65 2.588684 1_555
Na8 O64 2.623046 1_555
Na8 O63 2.663741 1_555
Na8 O69 2.894082 1_555
Na8 O70 2.924227 1_555
Na8 O71 3.009036 1_555
Ca0 O0 2.199744 1_555
Ca0 O2 2.222704 1_455
Ca0 O38 2.248213 1_555
Ca0 O1 2.254932 1_445
Ca0 O36 2.323686 1_545
Ca0 O37 2.337786 1_445
Ca1 O5 2.152650 1_555
Ca1 O3 2.256117 1_655
Ca1 O4 2.261875 1_545
Ca1 O39 2.287744 1_655
Ca1 O41 2.293092 1_545
Ca1 O40 2.340255 1_645
Ca2 O8 2.357039 1_555
Ca2 O44 2.359634 1_455
Ca2 O6 2.361856 1_455
Ca2 O42 2.375333 1_465
Ca2 O7 2.382200 1_565
Ca2 O43 2.402330 1_565
Ca3 O11 2.346052 1_655
Ca3 O9 2.352739 1_555
Ca3 O45 2.367018 1_555
Ca3 O10 2.372839 1_665
Ca3 O47 2.378246 1_665
Ca3 O46 2.402601 1_565
Ca4 O12 2.256653 1_555
Ca4 O48 2.268984 1_555
Ca4 O13 2.274324 1_555
Ca4 O14 2.298405 1_555
Ca4 O49 2.352354 1_555
Ca4 O50 2.369027 1_555
Ca5 O17 2.259437 1_555
Ca5 O16 2.260330 1_555
Ca5 O53 2.277934 1_555
Ca5 O15 2.319417 1_555
Ca5 O52 2.342941 1_555
Ca5 O51 2.356543 1_555
Ca6 O20 2.278167 1_556
Ca6 O19 2.281331 1_556
Ca6 O18 2.301514 1_556
Ca6 O55 2.422262 1_555
Ca6 O54 2.429760 1_555
Ca6 O56 2.478287 1_555
Ca7 O22 2.238720 1_555
Ca7 O23 2.309742 1_555
Ca7 O21 2.334100 1_555
Ca7 O58 2.360792 1_555
Ca7 O59 2.399326 1_555
Ca7 O57 2.521767 1_555
Ca8 O25 2.218109 1_554
Ca8 O24 2.231176 1_554
Ca8 O60 2.259939 1_555
Ca8 O26 2.289650 1_554
Ca8 O61 2.307587 1_555
Ca8 O62 2.308349 1_555
Ca9 O28 2.146272 1_555
Ca9 O29 2.256113 1_555
Ca9 O65 2.262523 1_555
Ca9 O64 2.304578 1_555
Ca9 O27 2.314756 1_555
Ca9 O63 2.356199 1_555
O0 P0 1.527561 1_545
O1 S0 1.459571 1_555
O2 S1 1.460123 1_655
O3 S2 1.461060 1_555
O4 S3 1.460294 1_655
O5 P1 1.512073 1_545
O6 P1 1.537309 1_555
O7 S2 1.468845 1_555
O8 S3 1.468935 1_555
O9 S0 1.468213 1_555
O10 S1 1.468854 1_555
O11 P0 1.541933 1_555
O12 S4 1.470933 1_555
O13 S5 1.477733 1_555
O14 S6 1.465623 1_555
O15 S7 1.466378 1_555
O16 S8 1.478169 1_555
O17 S9 1.470980 1_555
O18 S9 1.488175 1_555
O19 S7 1.477606 1_555
O20 S8 1.482066 1_555
O21 S5 1.496407 1_555
O22 S6 1.478057 1_555
O23 S4 1.490616 1_555
O24 S10 1.459069 1_555
O25 S11 1.461145 1_555
O26 S12 1.466832 1_555
O27 S13 1.461676 1_555
O28 P2 1.504067 1_555
O29 S14 1.459386 1_555
O30 S14 1.540164 1_555
O30 Ta0 2.033662 1_555
O31 S13 1.549493 1_555
O31 Ta0 2.049007 1_555
O32 P2 1.634275 1_555
O32 Ta0 1.943129 1_555
O33 S11 1.542407 1_555
O33 Ta1 2.061015 1_555
O34 S12 1.561139 1_555
O34 Ta1 1.999946 1_555
O35 S10 1.557539 1_555
O35 Ta1 1.995702 1_555
O36 S14 1.479681 1_555
O37 S13 1.460948 1_555
O38 P2 1.543267 1_555
O39 S11 1.471052 1_555
O40 S12 1.464185 1_555
O41 S10 1.464607 1_555
O42 S4 1.509497 1_555
O43 S5 1.484405 1_555
O44 S6 1.505887 1_555
O45 S7 1.508922 1_555
O46 S8 1.485598 1_555
O47 S9 1.509204 1_555
O48 P1 1.524657 1_545
O49 S2 1.462092 1_555
O50 S3 1.462210 1_655
O51 S0 1.461856 1_555
O52 S1 1.459578 1_655
O53 P0 1.528222 1_545
O54 S10 1.471205 1_555
O55 S11 1.476652 1_655
O56 S12 1.471573 1_545
O57 S13 1.490887 1_545
O58 P2 1.551443 1_555
O59 S14 1.468137 1_655
O60 S9 1.484521 1_555
O61 S7 1.510194 1_455
O62 S8 1.510402 1_565
O63 S5 1.505720 1_565
O64 S6 1.506250 1_555
O65 S4 1.481593 1_455
O66 P0 1.648047 1_555
O66 Ta0 1.938238 1_555
O67 S0 1.564580 1_555
O67 Ta0 2.004767 1_555
O68 S1 1.565391 1_555
O68 Ta0 2.008081 1_555
O69 S2 1.567338 1_555
O69 Ta1 2.013853 1_555
O70 S3 1.566152 1_555
O70 Ta1 2.010068 1_555
O71 P1 1.676057 1_555
O71 Ta1 1.888388 1_555
