# generated using pymatgen
data_NaCaTa3Si3(SO8)3
_symmetry_space_group_name_H-M   'P 1'
_cell_length_a   8.93782279
_cell_length_b   8.94035894
_cell_length_c   23.24954442
_cell_angle_alpha   90.06629457
_cell_angle_beta   89.73478151
_cell_angle_gamma   119.98658660
_symmetry_Int_Tables_number   1
_chemical_formula_structural   NaCaTa3Si3(SO8)3
_chemical_formula_sum   'Na3 Ca3 Ta9 Si9 S9 O72'
_cell_volume   1609.10883242
_cell_formula_units_Z   3
loop_
 _symmetry_equiv_pos_site_id
 _symmetry_equiv_pos_as_xyz
  1  'x, y, z'
loop_
 _atom_site_type_symbol
 _atom_site_label
 _atom_site_symmetry_multiplicity
 _atom_site_fract_x
 _atom_site_fract_y
 _atom_site_fract_z
 _atom_site_occupancy
  Na  Na0  1  0.99614523  0.00082925  0.99282379  1
  Na  Na1  1  0.69007676  0.34092046  0.84012996  1
  Na  Na2  1  0.65328672  0.33326101  0.33786346  1
  Ca  Ca0  1  0.99214006  0.00032134  0.85408865  1
  Ca  Ca1  1  0.68105707  0.34342337  0.97842205  1
  Ca  Ca2  1  0.65358936  0.32977963  0.47848706  1
  Ta  Ta0  1  0.00973012  0.01028442  0.35318225  1
  Ta  Ta1  1  0.99557465  0.98493460  0.65022634  1
  Ta  Ta2  1  0.00077101  0.99281548  0.15132891  1
  Ta  Ta3  1  0.66114122  0.31576953  0.68627271  1
  Ta  Ta4  1  0.68009171  0.34252340  0.19024094  1
  Ta  Ta5  1  0.31888172  0.65413589  0.02215393  1
  Ta  Ta6  1  0.33002740  0.66335602  0.52177574  1
  Ta  Ta7  1  0.33427233  0.65712144  0.30515068  1
  Ta  Ta8  1  0.32219454  0.66567594  0.80811106  1
  Si  Si0  1  0.29140253  0.00322829  0.25095745  1
  Si  Si1  1  0.71994266  0.71528398  0.25244984  1
  Si  Si2  1  0.99732395  0.28148510  0.24965962  1
  Si  Si3  1  0.98949186  0.69883922  0.75140988  1
  Si  Si4  1  0.70926659  0.99543200  0.75171753  1
  Si  Si5  1  0.36865357  0.03996697  0.58153834  1
  Si  Si6  1  0.95877455  0.63097420  0.08295194  1
  Si  Si7  1  0.04360544  0.37150385  0.91471932  1
  Si  Si8  1  0.33176075  0.38096420  0.41419434  1
  S  S0  1  0.29556568  0.29401518  0.74793322  1
  S  S1  1  0.96162323  0.33083837  0.58415483  1
  S  S2  1  0.66634086  0.62969651  0.58377324  1
  S  S3  1  0.66894432  0.03916434  0.08532092  1
  S  S4  1  0.37203703  0.33159915  0.08478502  1
  S  S5  1  0.60850556  0.66550747  0.91677640  1
  S  S6  1  0.33306224  0.94311129  0.91702368  1
  S  S7  1  0.61784983  0.94219461  0.41411479  1
  S  S8  1  0.05718415  0.67444836  0.41457830  1
  O  O0  1  0.19675305  0.03607387  0.30712880  1
  O  O1  1  0.83985567  0.80366840  0.30846146  1
  O  O2  1  0.96428039  0.15933102  0.30651514  1
  O  O3  1  0.23867809  0.19183659  0.79987696  1
  O  O4  1  0.94913180  0.76521207  0.80806332  1
  O  O5  1  0.82445356  0.06133798  0.80648385  1
  O  O6  1  0.80798426  0.97744848  0.69363957  1
  O  O7  1  0.18206936  0.20909240  0.69745262  1
  O  O8  1  0.02289629  0.82872168  0.69461543  1
  O  O9  1  0.80718970  0.83339536  0.19535590  1
  O  O10  1  0.02869668  0.19584362  0.19347024  1
  O  O11  1  0.16645968  0.97185225  0.19586416  1
  O  O12  1  0.87735856  0.36563621  0.63448951  1
  O  O13  1  0.49803049  0.13926886  0.63714063  1
  O  O14  1  0.63322885  0.51843500  0.63423284  1
  O  O15  1  0.85883968  0.50099663  0.14000696  1
  O  O16  1  0.64033017  0.12511809  0.13667391  1
  O  O17  1  0.48306014  0.35730963  0.13571410  1
  O  O18  1  0.43519551  0.29351174  0.03243727  1
  O  O19  1  0.84641539  0.56535657  0.02761627  1
  O  O20  1  0.70314658  0.14173302  0.03354753  1
  O  O21  1  0.44044789  0.14921007  0.52558537  1
  O  O22  1  0.70789743  0.56852811  0.53199185  1
  O  O23  1  0.86225148  0.29922954  0.53211640  1
  O  O24  1  0.51759309  0.67732773  0.97094537  1
  O  O25  1  0.16520123  0.49278683  0.97337639  1
  O  O26  1  0.32900029  0.84220010  0.97025970  1
  O  O27  1  0.53026305  0.83853783  0.46809480  1
  O  O28  1  0.30958651  0.48080368  0.47261588  1
  O  O29  1  0.16203673  0.69620171  0.46879693  1
  O  O30  1  0.14778073  0.65900947  0.36388960  1
  O  O31  1  0.50808814  0.85711244  0.36354768  1
  O  O32  1  0.33844894  0.50483388  0.36060840  1
  O  O33  1  0.16407303  0.49835266  0.85971696  1
  O  O34  1  0.34782684  0.85539441  0.86321013  1
  O  O35  1  0.51075256  0.66265112  0.86451101  1
  O  O36  1  0.04358472  0.83281870  0.40920630  1
  O  O37  1  0.78627280  0.94737615  0.40875899  1
  O  O38  1  0.15103965  0.19289368  0.40530803  1
  O  O39  1  0.05134204  0.19979359  0.92384024  1
  O  O40  1  0.17310320  0.94683813  0.91698750  1
  O  O41  1  0.77831246  0.81954035  0.91844759  1
  O  O42  1  0.99277528  0.18862218  0.59832684  1
  O  O43  1  0.18027282  0.01510347  0.60138806  1
  O  O44  1  0.81509660  0.80776471  0.59598159  1
  O  O45  1  0.99477151  0.82778693  0.09756960  1
  O  O46  1  0.82344485  0.01850694  0.09631864  1
  O  O47  1  0.19295071  0.18613139  0.09598768  1
  O  O48  1  0.67324827  0.15887701  0.73373016  1
  O  O49  1  0.47518230  0.32471059  0.73423956  1
  O  O50  1  0.83060472  0.51168343  0.72899999  1
  O  O51  1  0.69056074  0.52092264  0.23956973  1
  O  O52  1  0.82567574  0.30198386  0.24039098  1
  O  O53  1  0.47887888  0.17141507  0.23665233  1
  O  O54  1  0.61042676  0.50317310  0.91746422  1
  O  O55  1  0.86664801  0.37190733  0.91129751  1
  O  O56  1  0.48864649  0.11161546  0.91862157  1
  O  O57  1  0.64333590  0.11559086  0.41812581  1
  O  O58  1  0.50012597  0.36507237  0.41085761  1
  O  O59  1  0.88881944  0.52017425  0.41958320  1
  O  O60  1  0.35992268  0.49361775  0.07753569  1
  O  O61  1  0.15522086  0.65354934  0.07439030  1
  O  O62  1  0.51536759  0.86446228  0.07821699  1
  O  O63  1  0.34703900  0.84400915  0.57015842  1
  O  O64  1  0.50950785  0.65070006  0.57432157  1
  O  O65  1  0.13734539  0.49403300  0.57600910  1
  O  O66  1  0.30968046  0.83659688  0.26605002  1
  O  O67  1  0.52911258  0.69400461  0.26158851  1
  O  O68  1  0.16041015  0.47404426  0.26133174  1
  O  O69  1  0.31561667  0.46823712  0.75457382  1
  O  O70  1  0.16565392  0.68146768  0.75791235  1
  O  O71  1  0.51772042  0.82487777  0.76055465  1
loop_
_geom_bond_atom_site_label_1
_geom_bond_atom_site_label_2
_geom_bond_distance
_geom_bond_site_symmetry_2
Na0 O39 2.258744 1_655
Na0 O41 2.505617 1_545
Na0 O40 2.564878 1_645
Na0 O45 2.883340 1_546
Na0 O46 2.899310 1_556
Na0 O47 2.951014 1_656
Na1 O55 2.211600 1_555
Na1 O54 2.618808 1_555
Na1 O56 2.657663 1_555
Na1 O48 2.922386 1_555
Na1 O50 2.940455 1_555
Na2 O58 2.280673 1_555
Na2 O57 2.666658 1_555
Na2 O59 2.710569 1_555
Na2 O51 2.755269 1_555
Na2 O53 2.798608 1_555
Na2 O52 2.825722 1_555
Ca0 O5 2.145421 1_555
Ca0 O4 2.214043 1_545
Ca0 O39 2.268969 1_655
Ca0 O41 2.322757 1_545
Ca0 O3 2.362980 1_655
Ca0 O40 2.404118 1_645
Ca1 O19 2.123316 1_556
Ca1 O55 2.192401 1_555
Ca1 O20 2.301437 1_556
Ca1 O54 2.315408 1_555
Ca1 O18 2.366572 1_556
Ca1 O56 2.374531 1_555
Ca2 O21 2.084454 1_555
Ca2 O58 2.215163 1_555
Ca2 O22 2.302807 1_555
Ca2 O57 2.337592 1_555
Ca2 O59 2.365303 1_555
Ca2 O23 2.374640 1_555
O0 Si0 1.656686 1_555
O0 Ta0 1.895396 1_555
O1 Si1 1.622622 1_555
O1 Ta0 2.001299 1_665
O2 Si2 1.644553 1_555
O2 Ta0 1.914775 1_655
O3 S0 1.443631 1_555
O4 Si3 1.557221 1_555
O5 Si4 1.559615 1_545
O6 Si4 1.660687 1_555
O6 Ta1 1.925283 1_555
O7 S0 1.490645 1_555
O7 Ta1 2.161701 1_445
O8 Si3 1.683579 1_455
O8 Ta1 1.849804 1_455
O9 Si1 1.629634 1_555
O9 Ta2 1.895978 1_655
O10 Si2 1.606361 1_455
O10 Ta2 1.965266 1_545
O11 Si0 1.632703 1_565
O11 Ta2 1.895353 1_555
O12 S1 1.502905 1_555
O12 Ta3 2.121630 1_555
O13 Si5 1.667773 1_555
O13 Ta3 1.905759 1_555
O14 S2 1.469211 1_555
O14 Ta3 2.295387 1_555
O15 Si6 1.691995 1_555
O15 Ta4 1.909899 1_555
O16 S3 1.507618 1_555
O16 Ta4 2.182490 1_555
O17 S4 1.490568 1_555
O17 Ta4 2.231501 1_555
O18 S4 1.449369 1_555
O19 Si6 1.558569 1_555
O20 S3 1.449894 1_555
O21 Si5 1.557784 1_555
O22 S2 1.443522 1_555
O23 S1 1.445944 1_555
O24 S5 1.527603 1_555
O24 Ta5 2.056137 1_556
O25 Si7 1.746148 1_555
O25 Ta5 1.812091 1_556
O26 S6 1.522042 1_555
O26 Ta5 2.035320 1_556
O27 S7 1.521553 1_555
O27 Ta6 2.096553 1_555
O28 Si8 1.688922 1_555
O28 Ta6 1.924307 1_555
O29 S8 1.527505 1_555
O29 Ta6 2.077620 1_555
O30 S8 1.471758 1_555
O30 Ta7 2.156527 1_555
O31 S7 1.478475 1_555
O31 Ta7 2.165888 1_555
O32 Si8 1.648777 1_555
O32 Ta7 1.890203 1_555
O33 Si7 1.688416 1_555
O33 Ta8 1.884102 1_555
O34 S6 1.515723 1_555
O34 Ta8 2.044434 1_555
O35 S5 1.492661 1_555
O35 Ta8 2.150929 1_555
O36 S8 1.485830 1_555
O36 Ta0 2.189474 1_565
O37 S7 1.487365 1_555
O37 Ta0 2.197678 1_665
O38 Si8 1.663239 1_555
O38 Ta0 1.917731 1_555
O39 Si7 1.585383 1_555
O40 S6 1.446630 1_555
O41 S5 1.453475 1_555
O42 S1 1.469150 1_555
O42 Ta1 2.196293 1_545
O43 Si5 1.648092 1_555
O43 Ta1 1.904063 1_445
O44 S2 1.506448 1_555
O44 Ta1 2.040023 1_555
O45 Si6 1.657970 1_555
O45 Ta2 1.912901 1_655
O46 S3 1.504883 1_555
O46 Ta2 2.140977 1_645
O47 S4 1.495781 1_555
O47 Ta2 2.147129 1_545
O48 Si4 1.699024 1_545
O48 Ta3 1.831128 1_555
O49 S0 1.519542 1_555
O49 Ta3 2.031745 1_555
O50 Si3 1.648488 1_555
O50 Ta3 1.925324 1_555
O51 Si1 1.649692 1_555
O51 Ta4 1.927570 1_555
O52 Si2 1.648597 1_555
O52 Ta4 1.915831 1_555
O53 Si0 1.629961 1_555
O53 Ta4 1.993644 1_555
O54 S5 1.460092 1_555
O55 Si7 1.585785 1_655
O56 S6 1.452897 1_545
O57 S7 1.452811 1_545
O58 Si8 1.582180 1_555
O59 S8 1.450666 1_655
O60 S4 1.515191 1_555
O60 Ta5 2.094470 1_555
O61 Si6 1.675060 1_455
O61 Ta5 1.894880 1_555
O62 S3 1.486404 1_565
O62 Ta5 2.243550 1_555
O63 Si5 1.684541 1_565
O63 Ta6 1.910217 1_555
O64 S2 1.521348 1_555
O64 Ta6 2.068457 1_555
O65 S1 1.529255 1_455
O65 Ta6 2.055643 1_555
O66 Si0 1.616839 1_565
O66 Ta7 1.951192 1_555
O67 Si1 1.631813 1_555
O67 Ta7 1.891448 1_555
O68 Si2 1.629810 1_455
O68 Ta7 1.897379 1_555
O69 S0 1.484171 1_555
O69 Ta8 2.135526 1_555
O70 Si3 1.665153 1_455
O70 Ta8 1.884827 1_555
O71 Si4 1.638986 1_555
O71 Ta8 1.949810 1_555
