# generated using pymatgen
data_Na2LaAlP2SO12
_symmetry_space_group_name_H-M   'P 1'
_cell_length_a   8.95421581
_cell_length_b   8.93217582
_cell_length_c   22.96082405
_cell_angle_alpha   91.36134076
_cell_angle_beta   88.95529882
_cell_angle_gamma   120.42977288
_symmetry_Int_Tables_number   1
_chemical_formula_structural   Na2LaAlP2SO12
_chemical_formula_sum   'Na12 La6 Al6 P12 S6 O72'
_cell_volume   1582.96738000
_cell_formula_units_Z   6
loop_
 _symmetry_equiv_pos_site_id
 _symmetry_equiv_pos_as_xyz
  1  'x, y, z'
loop_
 _atom_site_type_symbol
 _atom_site_label
 _atom_site_symmetry_multiplicity
 _atom_site_fract_x
 _atom_site_fract_y
 _atom_site_fract_z
 _atom_site_occupancy
  Na  Na0  1  0.99330077  0.63660499  0.26283470  1
  Na  Na1  1  0.37123699  0.01174857  0.74176061  1
  Na  Na2  1  0.66313631  0.95083658  0.58877403  1
  Na  Na3  1  0.04354714  0.33931468  0.09733824  1
  Na  Na4  1  0.32686637  0.30877010  0.92163247  1
  Na  Na5  1  0.68932230  0.66721585  0.41869386  1
  Na  Na6  1  0.04193244  0.99695845  0.49919626  1
  Na  Na7  1  0.01425116  0.97389964  0.00566545  1
  Na  Na8  1  0.69231081  0.32375722  0.82675228  1
  Na  Na9  1  0.66594163  0.30355020  0.33784621  1
  Na  Na10  1  0.36305692  0.65802381  0.18237190  1
  Na  Na11  1  0.33819944  0.63833416  0.65697542  1
  La  La0  1  0.98727860  0.00390636  0.84097697  1
  La  La1  1  0.00237170  0.99944001  0.17257300  1
  La  La2  1  0.67124163  0.32161225  0.98410098  1
  La  La3  1  0.33680491  0.69490996  0.02747426  1
  La  La4  1  0.32202025  0.66968903  0.50918163  1
  La  La5  1  0.34123366  0.66024316  0.80493358  1
  Al  Al0  1  0.97783250  0.99687756  0.34575354  1
  Al  Al1  1  0.00449536  0.98731359  0.64273566  1
  Al  Al2  1  0.65694538  0.33521474  0.67620951  1
  Al  Al3  1  0.65920234  0.35633248  0.18948116  1
  Al  Al4  1  0.66966640  0.32936152  0.48469525  1
  Al  Al5  1  0.33083837  0.66930341  0.32558247  1
  P  P0  1  0.67648006  0.68959536  0.25642359  1
  P  P1  1  0.00815011  0.31517844  0.25615735  1
  P  P2  1  0.30159140  0.28682406  0.73552521  1
  P  P3  1  0.70858091  0.01991599  0.72977849  1
  P  P4  1  0.37793850  0.06563310  0.58177549  1
  P  P5  1  0.68622350  0.62184134  0.58068435  1
  P  P6  1  0.95804208  0.62812550  0.09919844  1
  P  P7  1  0.37404917  0.33466901  0.09224485  1
  P  P8  1  0.03492372  0.36134915  0.92005668  1
  P  P9  1  0.33133501  0.97806734  0.90639276  1
  P  P10  1  0.63832837  0.97488855  0.41713359  1
  P  P11  1  0.02279251  0.67864456  0.41175921  1
  S  S0  1  0.31478589  0.99138290  0.25717323  1
  S  S1  1  0.98004197  0.68753085  0.73475140  1
  S  S2  1  0.93913792  0.32130429  0.58102855  1
  S  S3  1  0.66341347  0.04606343  0.10261697  1
  S  S4  1  0.64705388  0.67209433  0.91698809  1
  S  S5  1  0.31690728  0.34927882  0.41238423  1
  O  O0  1  0.20399650  0.01441005  0.30092467  1
  O  O1  1  0.83249587  0.79745612  0.29919920  1
  O  O2  1  0.98471198  0.16074797  0.29387375  1
  O  O3  1  0.24720950  0.21136631  0.79797901  1
  O  O4  1  0.95920796  0.74574053  0.79388091  1
  O  O5  1  0.78756407  0.03381180  0.79021311  1
  O  O6  1  0.81861411  0.00111570  0.68012618  1
  O  O7  1  0.17135261  0.15225400  0.69177415  1
  O  O8  1  0.98696306  0.80678600  0.69005056  1
  O  O9  1  0.71840666  0.78258966  0.19794904  1
  O  O10  1  0.04892925  0.27860503  0.19334981  1
  O  O11  1  0.22164849  0.93447735  0.20043623  1
  O  O12  1  0.84294555  0.32619034  0.63266141  1
  O  O13  1  0.48699476  0.15027264  0.63643159  1
  O  O14  1  0.67126083  0.51004680  0.63226281  1
  O  O15  1  0.85070967  0.52922987  0.15377348  1
  O  O16  1  0.68085967  0.17487483  0.14777131  1
  O  O17  1  0.48636875  0.32959071  0.14218780  1
  O  O18  1  0.44476033  0.32675491  0.03069784  1
  O  O19  1  0.87225953  0.53051405  0.04220228  1
  O  O20  1  0.64424262  0.09712075  0.04306027  1
  O  O21  1  0.47051194  0.17447189  0.52689085  1
  O  O22  1  0.69902570  0.53484867  0.52181088  1
  O  O23  1  0.84432751  0.31278121  0.52654357  1
  O  O24  1  0.54163687  0.65915537  0.96900777  1
  O  O25  1  0.11430844  0.45196744  0.97924038  1
  O  O26  1  0.35005573  0.88325044  0.95869246  1
  O  O27  1  0.60181105  0.87136075  0.47468573  1
  O  O28  1  0.27092399  0.39009124  0.47082490  1
  O  O29  1  0.12497058  0.72831098  0.46916993  1
  O  O30  1  0.12796776  0.65272896  0.36220832  1
  O  O31  1  0.49063885  0.85839621  0.37426562  1
  O  O32  1  0.35017045  0.49180258  0.37195912  1
  O  O33  1  0.16216171  0.45831129  0.86945220  1
  O  O34  1  0.32249585  0.88722868  0.84705682  1
  O  O35  1  0.57380039  0.70004199  0.86348871  1
  O  O36  1  0.98960922  0.83115794  0.39784843  1
  O  O37  1  0.81440512  0.00062975  0.39452570  1
  O  O38  1  0.17218583  0.17799701  0.39350356  1
  O  O39  1  0.01369217  0.17861157  0.92325161  1
  O  O40  1  0.16822354  0.99225049  0.91626088  1
  O  O41  1  0.82474955  0.81733613  0.92526844  1
  O  O42  1  0.95692438  0.16406846  0.58031337  1
  O  O43  1  0.19089683  0.03560551  0.58799780  1
  O  O44  1  0.84964586  0.81103964  0.58697176  1
  O  O45  1  0.98428680  0.81110549  0.09558682  1
  O  O46  1  0.82513924  0.03834536  0.09967781  1
  O  O47  1  0.18767729  0.17575379  0.09530086  1
  O  O48  1  0.68518748  0.18037557  0.72622379  1
  O  O49  1  0.48781521  0.31763075  0.72890519  1
  O  O50  1  0.83409552  0.50922773  0.72703576  1
  O  O51  1  0.66588683  0.50847181  0.24903562  1
  O  O52  1  0.84360275  0.33261160  0.25590855  1
  O  O53  1  0.48392155  0.15478584  0.25057718  1
  O  O54  1  0.64420955  0.50557360  0.90837405  1
  O  O55  1  0.86097221  0.34784246  0.90723056  1
  O  O56  1  0.48810912  0.16540418  0.90320017  1
  O  O57  1  0.64900474  0.15282961  0.42889972  1
  O  O58  1  0.48256379  0.34721235  0.41613282  1
  O  O59  1  0.84161053  0.50844163  0.41975122  1
  O  O60  1  0.36217301  0.50181226  0.09730317  1
  O  O61  1  0.13430435  0.63461134  0.10421289  1
  O  O62  1  0.51066638  0.87504597  0.11406157  1
  O  O63  1  0.36750894  0.88547187  0.57754019  1
  O  O64  1  0.52593715  0.64678148  0.57892515  1
  O  O65  1  0.11392016  0.47882741  0.58201117  1
  O  O66  1  0.34181605  0.84530698  0.27286564  1
  O  O67  1  0.50500199  0.66706897  0.27960588  1
  O  O68  1  0.16569624  0.49397887  0.27474760  1
  O  O69  1  0.30493208  0.45964364  0.73036006  1
  O  O70  1  0.14788303  0.68996352  0.73156757  1
  O  O71  1  0.52252777  0.85697095  0.72730288  1
loop_
_geom_bond_atom_site_label_1
_geom_bond_atom_site_label_2
_geom_bond_distance
_geom_bond_site_symmetry_2
Na0 O52 2.344225 1_555
Na0 O68 2.470774 1_655
Na0 O30 2.567048 1_655
Na0 O51 2.573539 1_555
Na0 O1 2.613312 1_555
Na0 O66 2.716567 1_655
Na0 O15 2.753686 1_555
Na0 O11 2.806430 1_655
Na1 O71 2.390738 1_545
Na1 O49 2.404107 1_555
Na1 O48 2.449185 1_555
Na1 O70 2.545210 1_545
Na1 O34 2.621132 1_545
Na1 O13 2.684369 1_555
Na1 O3 2.814773 1_555
Na1 O7 2.917959 1_555
Na2 O42 2.347172 1_565
Na2 O64 2.353202 1_555
Na2 O63 2.422148 1_555
Na2 O6 2.442917 1_565
Na2 O44 2.541147 1_555
Na2 O27 2.690131 1_555
Na3 O10 2.289840 1_555
Na3 O61 2.335827 1_555
Na3 O47 2.388852 1_555
Na3 O46 2.394154 1_455
Na3 O60 2.460042 1_555
Na3 O25 2.861476 1_554
Na4 O56 2.393400 1_555
Na4 O39 2.431566 1_555
Na4 O40 2.438821 1_545
Na4 O54 2.488229 1_555
Na4 O18 2.704972 1_556
Na4 O33 2.744194 1_555
Na4 O24 2.914511 1_555
Na4 O3 2.941860 1_555
Na5 O36 2.366680 1_555
Na5 O59 2.415190 1_555
Na5 O58 2.497322 1_555
Na5 O27 2.625088 1_555
Na5 O37 2.666197 1_565
Na5 O22 2.693658 1_555
Na5 O32 2.836877 1_555
Na5 O1 3.006229 1_555
Na6 O43 2.378024 1_565
Na6 O44 2.630641 1_455
Na6 O36 2.645936 1_455
Na6 O42 2.691375 1_465
Na6 O38 2.835015 1_565
Na6 O29 2.914844 1_555
Na7 O40 2.413618 1_554
Na7 O41 2.414628 1_454
Na7 O45 2.485260 1_455
Na7 O47 2.646154 1_565
Na7 O39 2.664264 1_564
Na7 O46 2.941669 1_465
Na8 O55 2.344223 1_555
Na8 O56 2.409601 1_555
Na8 O48 2.598906 1_555
Na8 O54 2.621010 1_555
Na8 O50 2.746304 1_555
Na8 O49 2.906203 1_555
Na9 O52 2.373468 1_555
Na9 O57 2.474198 1_555
Na9 O53 2.497188 1_555
Na9 O59 2.527562 1_555
Na9 O58 2.566538 1_555
Na9 O51 2.772514 1_555
Na10 O62 2.332007 1_555
Na10 O60 2.371077 1_555
Na10 O67 2.568511 1_555
Na10 O61 2.672479 1_555
Na10 O68 2.675215 1_555
Na10 O66 2.700854 1_555
Na10 O9 2.815430 1_555
Na11 O69 2.259038 1_555
Na11 O64 2.410665 1_555
Na11 O71 2.414083 1_555
Na11 O65 2.477259 1_555
Na11 O70 2.588859 1_555
Na11 O63 2.802756 1_555
La0 O5 2.280917 1_555
La0 O3 2.336656 1_655
La0 O39 2.358416 1_655
La0 O4 2.419584 1_545
La0 O40 2.430122 1_645
La0 O41 2.496944 1_545
La1 O10 2.348807 1_565
La1 O9 2.359492 1_455
La1 O45 2.360929 1_455
La1 O47 2.399934 1_565
La1 O11 2.412190 1_555
La1 O46 2.474627 1_465
La2 O19 2.251316 1_556
La2 O18 2.296158 1_556
La2 O20 2.353276 1_556
La2 O55 2.358703 1_555
La2 O56 2.399278 1_555
La2 O54 2.517114 1_555
La3 O26 2.292496 1_554
La3 O25 2.343416 1_554
La3 O61 2.371036 1_555
La3 O24 2.398184 1_554
La3 O60 2.477636 1_555
La3 O62 2.527571 1_555
La4 O29 2.291118 1_555
La4 O63 2.329955 1_555
La4 O27 2.360676 1_555
La4 O28 2.444339 1_555
La4 O65 2.445165 1_555
La4 O64 2.537885 1_555
La5 O33 2.264867 1_555
La5 O34 2.306457 1_555
La5 O69 2.352144 1_555
La5 O35 2.366451 1_555
La5 O71 2.460485 1_555
La5 O70 2.549261 1_555
Al0 O37 1.839772 1_565
Al0 O2 1.885224 1_565
Al0 O1 1.902945 1_555
Al0 O36 1.969726 1_555
Al0 O38 1.995310 1_665
Al0 O0 2.189866 1_665
Al1 O7 1.850244 1_565
Al1 O8 1.904114 1_455
Al1 O6 1.916577 1_465
Al1 O43 1.942028 1_565
Al1 O44 1.948975 1_455
Al1 O42 2.353579 1_465
Al2 O13 1.819724 1_555
Al2 O14 1.827757 1_555
Al2 O49 1.866380 1_555
Al2 O48 1.932841 1_555
Al2 O50 1.943658 1_555
Al2 O12 1.962543 1_555
Al3 O17 1.818174 1_555
Al3 O15 1.823202 1_555
Al3 O51 1.884787 1_555
Al3 O16 1.954399 1_555
Al3 O53 2.202206 1_555
Al3 O52 2.357778 1_555
Al4 O21 1.879985 1_555
Al4 O22 1.899817 1_555
Al4 O23 1.920244 1_555
Al4 O57 1.943957 1_555
Al4 O59 2.165090 1_555
Al4 O58 2.385205 1_555
Al5 O67 1.875460 1_555
Al5 O68 1.905724 1_555
Al5 O31 1.915773 1_555
Al5 O30 1.925296 1_555
Al5 O66 1.968707 1_555
Al5 O32 2.010602 1_555
O0 S0 1.481932 1_545
O1 P0 1.576757 1_555
O2 P1 1.566407 1_655
O3 P2 1.560682 1_555
O4 S1 1.484541 1_555
O5 P3 1.542653 1_555
O6 P3 1.554417 1_555
O7 P2 1.542516 1_555
O8 S1 1.474686 1_555
O9 P0 1.533712 1_555
O10 P1 1.548866 1_555
O11 S0 1.493228 1_555
O12 S2 1.465490 1_555
O13 P4 1.533562 1_555
O14 P5 1.527253 1_555
O15 P6 1.556572 1_555
O16 S3 1.479959 1_555
O17 P7 1.555406 1_555
O18 P7 1.552709 1_555
O19 P6 1.538464 1_555
O20 S3 1.491617 1_555
O21 P4 1.556965 1_555
O22 P5 1.574455 1_555
O23 S2 1.503430 1_555
O24 S4 1.478486 1_555
O25 P8 1.551517 1_555
O26 P9 1.544952 1_555
O27 P10 1.563417 1_555
O28 S5 1.487155 1_555
O29 P11 1.541616 1_555
O30 P11 1.550539 1_555
O31 P10 1.550901 1_555
O32 S5 1.494283 1_555
O33 P8 1.548615 1_555
O34 P9 1.551486 1_555
O35 S4 1.487049 1_555
O36 P11 1.574883 1_655
O37 P10 1.554576 1_545
O38 S5 1.479377 1_555
O39 P8 1.548094 1_555
O40 P9 1.540957 1_555
O41 S4 1.469430 1_555
O42 S2 1.491149 1_555
O43 P4 1.560580 1_555
O44 P5 1.584044 1_555
O45 P6 1.532990 1_555
O46 S3 1.484494 1_555
O47 P7 1.551022 1_555
O48 P3 1.554043 1_555
O49 P2 1.551545 1_555
O50 S1 1.470521 1_555
O51 P0 1.577098 1_555
O52 P1 1.558178 1_655
O53 S0 1.486568 1_545
O54 S4 1.483218 1_555
O55 P8 1.533652 1_655
O56 P9 1.548756 1_545
O57 P10 1.560431 1_545
O58 S5 1.496818 1_555
O59 P11 1.575098 1_655
O60 P7 1.551076 1_555
O61 P6 1.556054 1_455
O62 S3 1.470635 1_565
O63 P4 1.564758 1_565
O64 P5 1.561276 1_555
O65 S2 1.482820 1_455
O66 S0 1.495412 1_555
O67 P0 1.530933 1_555
O68 P1 1.558940 1_555
O69 P2 1.536107 1_555
O70 S1 1.492471 1_455
O71 P3 1.562165 1_565
