# generated using pymatgen
data_K2FeH2Cl5O
_symmetry_space_group_name_H-M   'P 1'
_cell_length_a   7.40059000
_cell_length_b   9.55290300
_cell_length_c   13.97823300
_cell_angle_alpha   90.00000000
_cell_angle_beta   90.00000000
_cell_angle_gamma   90.00000000
_symmetry_Int_Tables_number   1
_chemical_formula_structural   K2FeH2Cl5O
_chemical_formula_sum   'K8 Fe4 H8 Cl20 O4'
_cell_volume   988.22079360
_cell_formula_units_Z   4
loop_
 _symmetry_equiv_pos_site_id
 _symmetry_equiv_pos_as_xyz
  1  'x, y, z'
loop_
 _atom_site_type_symbol
 _atom_site_label
 _atom_site_symmetry_multiplicity
 _atom_site_fract_x
 _atom_site_fract_y
 _atom_site_fract_z
 _atom_site_occupancy
  K  K0  1  0.13364700  0.99742900  0.35144600  1
  K  K1  1  0.63364700  0.00257100  0.14855400  1
  K  K2  1  0.86635300  0.49742900  0.64855400  1
  K  K3  1  0.36635300  0.50257100  0.85144600  1
  K  K4  1  0.63364700  0.49742900  0.14855400  1
  K  K5  1  0.13364700  0.50257100  0.35144600  1
  K  K6  1  0.36635300  0.99742900  0.85144600  1
  K  K7  1  0.86635300  0.00257100  0.64855400  1
  Fe  Fe0  1  0.18933600  0.75000000  0.10956500  1
  Fe  Fe1  1  0.68933600  0.25000000  0.39043500  1
  Fe  Fe2  1  0.81066400  0.25000000  0.89043500  1
  Fe  Fe3  1  0.31066400  0.75000000  0.60956500  1
  H  H0  1  0.46011000  0.16612200  0.53475800  1
  H  H1  1  0.96011000  0.83387800  0.96524200  1
  H  H2  1  0.53989000  0.66612200  0.46524200  1
  H  H3  1  0.03989000  0.33387800  0.03475800  1
  H  H4  1  0.53989000  0.83387800  0.46524200  1
  H  H5  1  0.03989000  0.16612200  0.03475800  1
  H  H6  1  0.46011000  0.33387800  0.53475800  1
  H  H7  1  0.96011000  0.66612200  0.96524200  1
  Cl  Cl0  1  0.92500200  0.75000000  0.20999500  1
  Cl  Cl1  1  0.42500200  0.25000000  0.29000500  1
  Cl  Cl2  1  0.07499800  0.25000000  0.79000500  1
  Cl  Cl3  1  0.57499800  0.75000000  0.70999500  1
  Cl  Cl4  1  0.37891600  0.75000000  0.24691100  1
  Cl  Cl5  1  0.87891600  0.25000000  0.25308900  1
  Cl  Cl6  1  0.62108400  0.25000000  0.75308900  1
  Cl  Cl7  1  0.12108400  0.75000000  0.74691100  1
  Cl  Cl8  1  0.45654900  0.75000000  0.00814100  1
  Cl  Cl9  1  0.95654900  0.25000000  0.49185900  1
  Cl  Cl10  1  0.54345100  0.25000000  0.99185900  1
  Cl  Cl11  1  0.04345100  0.75000000  0.50814100  1
  Cl  Cl12  1  0.18680800  0.00112900  0.10176200  1
  Cl  Cl13  1  0.68680800  0.99887100  0.39823800  1
  Cl  Cl14  1  0.81319200  0.50112900  0.89823800  1
  Cl  Cl15  1  0.31319200  0.49887100  0.60176200  1
  Cl  Cl16  1  0.81319200  0.99887100  0.89823800  1
  Cl  Cl17  1  0.31319200  0.00112900  0.60176200  1
  Cl  Cl18  1  0.18680800  0.49887100  0.10176200  1
  Cl  Cl19  1  0.68680800  0.50112900  0.39823800  1
  O  O0  1  0.47352900  0.75000000  0.48753500  1
  O  O1  1  0.97352900  0.25000000  0.01246500  1
  O  O2  1  0.52647100  0.25000000  0.51246500  1
  O  O3  1  0.02647100  0.75000000  0.98753500  1
loop_
_geom_bond_atom_site_label_1
_geom_bond_atom_site_label_2
_geom_bond_distance
_geom_bond_site_symmetry_2
Fe0 O3 2.088629 1_554
Fe1 O2 2.088629 1_555
Fe2 O1 2.088629 1_556
Fe3 O0 2.088629 1_555
H0 O2 0.990122 1_555
H1 O3 0.990122 1_655
H2 O0 0.990122 1_555
H3 O1 0.990122 1_455
H4 O0 0.990122 1_555
H5 O1 0.990122 1_455
H6 O2 0.990122 1_555
H7 O3 0.990122 1_655
Cl0 Fe0 2.407816 1_655
Cl0 K1 3.347885 1_565
Cl0 K4 3.347885 1_555
Cl0 K5 3.446825 1_655
Cl0 K0 3.446825 1_655
Cl1 Fe1 2.407816 1_555
Cl1 K0 3.347885 1_545
Cl1 K5 3.347885 1_555
Cl1 K4 3.446825 1_555
Cl1 K1 3.446825 1_555
Cl2 Fe2 2.407816 1_455
Cl2 K6 3.347885 1_545
Cl2 K3 3.347885 1_555
Cl2 K2 3.446825 1_455
Cl2 K7 3.446825 1_455
Cl3 Fe3 2.407816 1_555
Cl3 K7 3.347885 1_565
Cl3 K2 3.347885 1_555
Cl3 K6 3.446825 1_555
Cl3 K3 3.446825 1_555
Cl4 Fe0 2.377869 1_555
Cl4 K5 3.319153 1_555
Cl4 K0 3.319153 1_555
Cl4 K1 3.356426 1_565
Cl4 K4 3.356426 1_555
Cl5 Fe1 2.377869 1_555
Cl5 K4 3.319153 1_555
Cl5 K1 3.319153 1_555
Cl5 K0 3.356426 1_645
Cl5 K5 3.356426 1_655
Cl6 Fe2 2.377869 1_555
Cl6 K2 3.319153 1_555
Cl6 K7 3.319153 1_555
Cl6 K3 3.356426 1_555
Cl6 K6 3.356426 1_545
Cl7 Fe3 2.377869 1_555
Cl7 K6 3.319153 1_555
Cl7 K3 3.319153 1_555
Cl7 K7 3.356426 1_465
Cl7 K2 3.356426 1_455
Cl8 Fe0 2.433227 1_555
Cl8 K3 3.290892 1_554
Cl8 K6 3.290892 1_554
Cl8 K1 3.375141 1_565
Cl8 K4 3.375141 1_555
Cl9 Fe1 2.433227 1_555
Cl9 K2 3.290892 1_555
Cl9 K7 3.290892 1_555
Cl9 K0 3.375141 1_645
Cl9 K5 3.375141 1_655
Cl10 Fe2 2.433227 1_555
Cl10 K4 3.290892 1_556
Cl10 K1 3.290892 1_556
Cl10 K3 3.375141 1_555
Cl10 K6 3.375141 1_545
Cl11 Fe3 2.433227 1_555
Cl11 K0 3.290892 1_555
Cl11 K5 3.290892 1_555
Cl11 K7 3.375141 1_465
Cl11 K2 3.375141 1_455
Cl12 Fe0 2.401562 1_545
Cl12 K1 3.370964 1_555
Cl12 K0 3.512423 1_545
Cl13 Fe1 2.401562 1_565
Cl13 K0 3.370964 1_655
Cl13 K1 3.512423 1_565
Cl14 Fe2 2.401562 1_555
Cl14 K3 3.370964 1_555
Cl14 K2 3.512423 1_555
Cl15 Fe3 2.401562 1_555
Cl15 K2 3.370964 1_455
Cl15 K3 3.512423 1_555
Cl16 Fe2 2.401562 1_565
Cl16 K6 3.370964 1_555
Cl16 K7 3.512423 1_565
Cl17 Fe3 2.401562 1_545
Cl17 K7 3.370964 1_455
Cl17 K6 3.512423 1_545
Cl18 Fe0 2.401562 1_555
Cl18 K4 3.370964 1_555
Cl18 K5 3.512423 1_555
Cl19 Fe1 2.401562 1_555
Cl19 K5 3.370964 1_655
Cl19 K4 3.512423 1_555
