# generated using pymatgen
data_Ga2FeS4
_symmetry_space_group_name_H-M   'P 1'
_cell_length_a   3.65894670
_cell_length_b   3.65894670
_cell_length_c   12.41000800
_cell_angle_alpha   90.00000000
_cell_angle_beta   90.00000000
_cell_angle_gamma   120.00001273
_symmetry_Int_Tables_number   1
_chemical_formula_structural   Ga2FeS4
_chemical_formula_sum   'Ga2 Fe1 S4'
_cell_volume   143.88476264
_cell_formula_units_Z   1
loop_
 _symmetry_equiv_pos_site_id
 _symmetry_equiv_pos_as_xyz
  1  'x, y, z'
loop_
 _atom_site_type_symbol
 _atom_site_label
 _atom_site_symmetry_multiplicity
 _atom_site_fract_x
 _atom_site_fract_y
 _atom_site_fract_z
 _atom_site_occupancy
  Ga  Ga0  1  0.33333300  0.66666700  0.78339100  1
  Ga  Ga1  1  0.66666700  0.33333300  0.21660900  1
  Fe  Fe0  1  0.00000000  0.00000000  0.50000000  1
  S  S0  1  0.66666700  0.33333300  0.39554700  1
  S  S1  1  0.33333300  0.66666700  0.60445300  1
  S  S2  1  0.66666700  0.33333300  0.86678500  1
  S  S3  1  0.33333300  0.66666700  0.13321500  1
loop_
_geom_bond_atom_site_label_1
_geom_bond_atom_site_label_2
_geom_bond_distance
_geom_bond_site_symmetry_2
Ga0 S1 2.220622 1_555
Ga0 S2 2.352378 1_455
Ga0 S2 2.352378 1_565
Ga0 S2 2.352384 1_555
Ga1 S0 2.220622 1_555
Ga1 S3 2.352378 1_545
Ga1 S3 2.352378 1_655
Ga1 S3 2.352384 1_555
Fe0 S0 2.478491 1_455
Fe0 S1 2.478491 1_545
Fe0 S0 2.478494 1_445
Fe0 S1 2.478494 1_555
Fe0 S1 2.478494 1_445
Fe0 S0 2.478494 1_555
