# generated using pymatgen
data_MgMnCo3O8
_symmetry_space_group_name_H-M   'P 1'
_cell_length_a   5.93319278
_cell_length_b   5.81595613
_cell_length_c   5.91577853
_cell_angle_alpha   61.32311561
_cell_angle_beta   61.36821379
_cell_angle_gamma   57.41361547
_symmetry_Int_Tables_number   1
_chemical_formula_structural   MgMnCo3O8
_chemical_formula_sum   'Mg1 Mn1 Co3 O8'
_cell_volume   144.01940517
_cell_formula_units_Z   1
loop_
 _symmetry_equiv_pos_site_id
 _symmetry_equiv_pos_as_xyz
  1  'x, y, z'
loop_
 _atom_site_type_symbol
 _atom_site_label
 _atom_site_symmetry_multiplicity
 _atom_site_fract_x
 _atom_site_fract_y
 _atom_site_fract_z
 _atom_site_occupancy
  Mg  Mg0  1  0.50000000  0.50000000  0.50000000  1
  Mn  Mn0  1  0.00000000  0.00000000  0.00000000  1
  Co  Co0  1  0.50000000  0.00000000  0.00000000  1
  Co  Co1  1  0.00000000  0.50000000  0.00000000  1
  Co  Co2  1  0.50000000  0.50000000  0.00000000  1
  O  O0  1  0.25814300  0.25562700  0.78255300  1
  O  O1  1  0.71760500  0.23089700  0.79645200  1
  O  O2  1  0.25559900  0.73394400  0.78852900  1
  O  O3  1  0.71376800  0.72680300  0.81281600  1
  O  O4  1  0.28623200  0.27319700  0.18718400  1
  O  O5  1  0.74440100  0.26605600  0.21147100  1
  O  O6  1  0.28239500  0.76910300  0.20354800  1
  O  O7  1  0.74185700  0.74437300  0.21744700  1
loop_
_geom_bond_atom_site_label_1
_geom_bond_atom_site_label_2
_geom_bond_distance
_geom_bond_site_symmetry_2
Mg0 O0 2.119250 1_555
Mg0 O7 2.119250 1_555
Mg0 O6 2.133352 1_555
Mg0 O1 2.133352 1_555
Mg0 O2 2.144543 1_555
Mg0 O5 2.144543 1_555
Mn0 O2 1.941970 1_544
Mn0 O5 1.941970 1_455
Mn0 O1 2.004657 1_454
Mn0 O6 2.004657 1_545
Mn0 O0 2.222609 1_554
Mn0 O7 2.222609 1_445
Co0 O4 1.879199 1_555
Co0 O3 1.879199 1_544
Co0 O0 1.886754 1_554
Co0 O7 1.886754 1_545
Co0 O6 1.935437 1_545
Co0 O1 1.935437 1_554
Co1 O0 1.882102 1_554
Co1 O7 1.882102 1_455
Co1 O4 1.959010 1_555
Co1 O3 1.959010 1_454
Co1 O2 2.118226 1_554
Co1 O5 2.118226 1_455
Co2 O2 1.870495 1_554
Co2 O5 1.870495 1_555
Co2 O3 1.905008 1_554
Co2 O4 1.905008 1_555
Co2 O1 1.925783 1_554
Co2 O6 1.925783 1_555
