# generated using pymatgen
data_NaTi3NbSi3(SO8)3
_symmetry_space_group_name_H-M   'P 1'
_cell_length_a   8.76215365
_cell_length_b   8.74604328
_cell_length_c   22.64338095
_cell_angle_alpha   89.58554543
_cell_angle_beta   90.69012146
_cell_angle_gamma   119.79558918
_symmetry_Int_Tables_number   1
_chemical_formula_structural   NaTi3NbSi3(SO8)3
_chemical_formula_sum   'Na3 Ti9 Nb3 Si9 S9 O72'
_cell_volume   1505.75151144
_cell_formula_units_Z   3
loop_
 _symmetry_equiv_pos_site_id
 _symmetry_equiv_pos_as_xyz
  1  'x, y, z'
loop_
 _atom_site_type_symbol
 _atom_site_label
 _atom_site_symmetry_multiplicity
 _atom_site_fract_x
 _atom_site_fract_y
 _atom_site_fract_z
 _atom_site_occupancy
  Na  Na0  1  0.00396906  0.99680254  0.99438455  1
  Na  Na1  1  0.66373050  0.32680598  0.83194932  1
  Na  Na2  1  0.67312909  0.33493191  0.33395423  1
  Ti  Ti0  1  0.99153704  0.00087028  0.35778002  1
  Ti  Ti1  1  0.01671242  0.01565575  0.85098367  1
  Ti  Ti2  1  0.63934951  0.31769557  0.69082418  1
  Ti  Ti3  1  0.68225928  0.34926385  0.18355671  1
  Ti  Ti4  1  0.64858782  0.33536399  0.97808293  1
  Ti  Ti5  1  0.66844627  0.34842963  0.48305899  1
  Ti  Ti6  1  0.31394458  0.66393649  0.02286470  1
  Ti  Ti7  1  0.30748214  0.65304365  0.31100353  1
  Ti  Ti8  1  0.34960747  0.68643978  0.80713367  1
  Nb  Nb0  1  0.99718113  0.99976548  0.64497331  1
  Nb  Nb1  1  0.01084835  0.01232220  0.14239687  1
  Nb  Nb2  1  0.33055993  0.67682458  0.52678765  1
  Si  Si0  1  0.99187596  0.28532893  0.25167575  1
  Si  Si1  1  0.28836739  0.29728808  0.75070362  1
  Si  Si2  1  0.71789431  0.00792403  0.75131571  1
  Si  Si3  1  0.38280532  0.06003000  0.58283468  1
  Si  Si4  1  0.66832713  0.61699322  0.58581944  1
  Si  Si5  1  0.95062566  0.61724698  0.08038914  1
  Si  Si6  1  0.39044622  0.34763275  0.08295335  1
  Si  Si7  1  0.33193175  0.95323287  0.91592854  1
  Si  Si8  1  0.03570882  0.66267256  0.41584102  1
  S  S0  1  0.29041389  0.00195764  0.25221513  1
  S  S1  1  0.70926022  0.71248227  0.25142581  1
  S  S2  1  0.99882593  0.70947203  0.75154475  1
  S  S3  1  0.94935845  0.33345924  0.58393096  1
  S  S4  1  0.66150306  0.04556218  0.08273885  1
  S  S5  1  0.62132371  0.67043392  0.91700669  1
  S  S6  1  0.04342567  0.37941357  0.91627846  1
  S  S7  1  0.61920578  0.95401403  0.41514596  1
  S  S8  1  0.33263949  0.37786930  0.41534891  1
  O  O0  1  0.20430432  0.02812120  0.30359661  1
  O  O1  1  0.82471978  0.79314965  0.30439032  1
  O  O2  1  0.97243104  0.16006113  0.30817401  1
  O  O3  1  0.19962979  0.16380988  0.80765155  1
  O  O4  1  0.96943533  0.79262534  0.80383105  1
  O  O5  1  0.83943307  0.02666533  0.80904314  1
  O  O6  1  0.80369873  0.97014978  0.69280756  1
  O  O7  1  0.16635546  0.19662641  0.69310503  1
  O  O8  1  0.03094297  0.82052694  0.69712346  1
  O  O9  1  0.79211022  0.81941187  0.19781660  1
  O  O10  1  0.02571447  0.19180609  0.19415143  1
  O  O11  1  0.17801482  0.96759635  0.19740422  1
  O  O12  1  0.87984333  0.36807508  0.63615378  1
  O  O13  1  0.50576094  0.13516259  0.64098615  1
  O  O14  1  0.63881323  0.49291547  0.64157148  1
  O  O15  1  0.86499220  0.49901896  0.14084931  1
  O  O16  1  0.63935109  0.12601065  0.13709658  1
  O  O17  1  0.50324527  0.35772623  0.14208545  1
  O  O18  1  0.46852165  0.29635218  0.02594526  1
  O  O19  1  0.82523909  0.52220515  0.02435604  1
  O  O20  1  0.70138470  0.15734871  0.03013614  1
  O  O21  1  0.47995681  0.17193786  0.52366459  1
  O  O22  1  0.70016273  0.53039369  0.52544946  1
  O  O23  1  0.84421815  0.30619325  0.52888902  1
  O  O24  1  0.54032922  0.69224112  0.97039087  1
  O  O25  1  0.15381442  0.45699841  0.97091212  1
  O  O26  1  0.30942590  0.83087259  0.97443567  1
  O  O27  1  0.54393227  0.84446054  0.46919039  1
  O  O28  1  0.30390010  0.45538690  0.46827726  1
  O  O29  1  0.16690889  0.69399179  0.47215187  1
  O  O30  1  0.14067568  0.63809409  0.35905162  1
  O  O31  1  0.51081756  0.86935033  0.36217949  1
  O  O32  1  0.36379113  0.49091302  0.36218695  1
  O  O33  1  0.12365846  0.48547006  0.86377082  1
  O  O34  1  0.35935715  0.85603033  0.85930269  1
  O  O35  1  0.51231048  0.63564068  0.86316435  1
  O  O36  1  0.02303171  0.83894097  0.40125990  1
  O  O37  1  0.79659365  0.96936056  0.40805166  1
  O  O38  1  0.17535585  0.20054109  0.40670752  1
  O  O39  1  0.02595017  0.19935701  0.91211613  1
  O  O40  1  0.15564623  0.97311253  0.90962461  1
  O  O41  1  0.80000386  0.82416482  0.91111603  1
  O  O42  1  0.97220469  0.17673679  0.58825998  1
  O  O43  1  0.18680141  0.02597798  0.59242147  1
  O  O44  1  0.83689695  0.81210883  0.59234674  1
  O  O45  1  0.97018042  0.81131122  0.09386811  1
  O  O46  1  0.82426543  0.02485811  0.09116315  1
  O  O47  1  0.19176540  0.16638957  0.09175872  1
  O  O48  1  0.70242034  0.18360120  0.74257537  1
  O  O49  1  0.48122803  0.31213262  0.74486587  1
  O  O50  1  0.84303839  0.53523655  0.74382014  1
  O  O51  1  0.69215724  0.53395863  0.24517924  1
  O  O52  1  0.81914332  0.30641222  0.24342031  1
  O  O53  1  0.46453499  0.15766729  0.24439406  1
  O  O54  1  0.63992456  0.50656730  0.92255743  1
  O  O55  1  0.86585849  0.35825018  0.92408367  1
  O  O56  1  0.50961303  0.14865677  0.92560123  1
  O  O57  1  0.64196875  0.13131384  0.42188864  1
  O  O58  1  0.49073873  0.35660831  0.42083188  1
  O  O59  1  0.84497606  0.48622625  0.42282247  1
  O  O60  1  0.36294856  0.51148622  0.07012316  1
  O  O61  1  0.14509779  0.64181069  0.07373040  1
  O  O62  1  0.51140354  0.86847867  0.07609359  1
  O  O63  1  0.36266471  0.86182345  0.57358265  1
  O  O64  1  0.49464234  0.63433133  0.56943710  1
  O  O65  1  0.13104221  0.48863307  0.57410437  1
  O  O66  1  0.30921956  0.84281011  0.25948988  1
  O  O67  1  0.53596041  0.69583507  0.26018604  1
  O  O68  1  0.17159635  0.47694992  0.26143433  1
  O  O69  1  0.30425951  0.48389261  0.76498167  1
  O  O70  1  0.15723241  0.69312352  0.75868894  1
  O  O71  1  0.52448513  0.83349579  0.75995612  1
loop_
_geom_bond_atom_site_label_1
_geom_bond_atom_site_label_2
_geom_bond_distance
_geom_bond_site_symmetry_2
Na0 O40 2.415286 1_555
Na0 O39 2.503487 1_565
Na0 O41 2.511389 1_455
Na0 O45 2.698115 1_456
Na0 O47 2.702494 1_566
Na0 O46 2.795824 1_466
Na1 O49 2.487094 1_555
Na1 O48 2.500852 1_555
Na1 O56 2.584245 1_555
Na1 O50 2.636339 1_555
Na1 O55 2.645742 1_555
Na1 O54 2.666005 1_555
Na2 O59 2.460260 1_555
Na2 O52 2.507845 1_555
Na2 O57 2.586342 1_555
Na2 O51 2.601464 1_555
Na2 O58 2.615739 1_555
Na2 O53 2.645160 1_555
Nb0 O6 1.928250 1_555
Nb0 O44 1.945088 1_555
Nb0 O7 1.949707 1_665
Nb0 O43 1.973372 1_665
Nb0 O8 2.089276 1_655
Nb0 O42 2.096141 1_565
Nb1 O47 1.882009 1_555
Nb1 O10 1.916827 1_555
Nb1 O45 1.954772 1_445
Nb1 O46 2.039918 1_455
Nb1 O11 2.090048 1_545
Nb1 O9 2.215493 1_445
Nb2 O63 1.839867 1_555
Nb2 O64 1.905297 1_555
Nb2 O29 1.943649 1_555
Nb2 O65 2.018220 1_555
Nb2 O27 2.157046 1_555
Nb2 O28 2.267318 1_555
O0 S0 1.473716 1_555
O0 Ti0 2.155684 1_455
O1 S1 1.494398 1_555
O1 Ti0 2.061231 1_565
O2 Si0 1.632624 1_555
O2 Ti0 1.852747 1_555
O3 Si1 1.652417 1_555
O3 Ti1 1.779350 1_555
O4 S2 1.484207 1_555
O4 Ti1 2.081579 1_665
O5 Si2 1.632692 1_555
O5 Ti1 1.853601 1_655
O6 Si2 1.645214 1_565
O7 Si1 1.632995 1_555
O8 S2 1.503500 1_455
O9 S1 1.485007 1_555
O10 Si0 1.649037 1_455
O11 S0 1.510764 1_565
O12 S3 1.437626 1_555
O12 Ti2 2.302015 1_555
O13 Si3 1.612790 1_555
O13 Ti2 1.824663 1_555
O14 Si4 1.596042 1_555
O14 Ti2 1.890662 1_555
O15 Si5 1.655184 1_555
O15 Ti3 1.774575 1_555
O16 S4 1.483819 1_555
O16 Ti3 2.085973 1_555
O17 Si6 1.631123 1_555
O17 Ti3 1.851087 1_555
O18 Si6 1.634027 1_555
O18 Ti4 1.811395 1_554
O19 Si5 1.606825 1_555
O19 Ti4 1.906830 1_554
O20 S4 1.466410 1_555
O20 Ti4 2.168733 1_554
O21 Si3 1.630390 1_555
O21 Ti5 1.854248 1_555
O22 Si4 1.659591 1_555
O22 Ti5 1.762801 1_555
O23 S3 1.489040 1_555
O23 Ti5 2.026517 1_555
O24 S5 1.469607 1_555
O24 Ti6 2.229868 1_556
O25 S6 1.502479 1_555
O25 Ti6 2.023745 1_556
O26 Si7 1.647814 1_555
O26 Ti6 1.835490 1_556
O27 S7 1.491668 1_555
O28 S8 1.465640 1_555
O29 Si8 1.636824 1_555
O30 Si8 1.665728 1_555
O30 Ti7 1.784190 1_555
O31 S7 1.474854 1_555
O31 Ti7 2.174480 1_555
O32 S8 1.491159 1_555
O32 Ti7 2.062791 1_555
O33 S6 1.457512 1_555
O33 Ti8 2.285603 1_555
O34 Si7 1.628110 1_555
O34 Ti8 1.870758 1_555
O35 S5 1.476420 1_555
O35 Ti8 2.101719 1_555
O36 Si8 1.630943 1_555
O36 Ti0 1.847400 1_465
O37 S7 1.502678 1_555
O37 Ti0 1.965677 1_565
O38 S8 1.488840 1_555
O38 Ti0 2.015178 1_455
O39 S6 1.508120 1_555
O39 Ti1 2.098636 1_555
O40 Si7 1.642484 1_555
O40 Ti1 1.946179 1_565
O41 S5 1.478907 1_555
O41 Ti1 2.265669 1_665
O42 S3 1.482828 1_555
O43 Si3 1.607814 1_555
O44 Si4 1.615246 1_555
O45 Si5 1.649404 1_555
O46 S4 1.533842 1_555
O47 Si6 1.686541 1_555
O48 Si2 1.618738 1_555
O48 Ti2 1.913808 1_555
O49 Si1 1.636184 1_555
O49 Ti2 1.841828 1_555
O50 S2 1.465241 1_555
O50 Ti2 2.202741 1_555
O51 S1 1.500168 1_555
O51 Ti3 2.110525 1_555
O52 Si0 1.621635 1_555
O52 Ti3 1.953627 1_555
O53 S0 1.466904 1_555
O53 Ti3 2.279915 1_555
O54 S5 1.524933 1_555
O54 Ti4 1.977881 1_555
O55 S6 1.485321 1_655
O55 Ti4 2.198465 1_555
O56 Si7 1.657050 1_545
O56 Ti4 1.891722 1_555
O57 S7 1.470712 1_545
O57 Ti5 2.273909 1_555
O58 S8 1.490149 1_555
O58 Ti5 2.114576 1_555
O59 Si8 1.624568 1_655
O59 Ti5 1.969719 1_555
O60 Si6 1.591093 1_555
O60 Ti6 1.909059 1_555
O61 Si5 1.616908 1_455
O61 Ti6 1.818277 1_555
O62 S4 1.457860 1_565
O62 Ti6 2.133405 1_555
O63 Si3 1.667473 1_565
O64 Si4 1.640600 1_555
O65 S3 1.510853 1_455
O66 S0 1.488513 1_565
O66 Ti7 2.015628 1_555
O67 S1 1.467462 1_555
O67 Ti7 2.185551 1_555
O68 Si0 1.646666 1_455
O68 Ti7 1.794395 1_555
O69 Si1 1.602560 1_555
O69 Ti8 1.876922 1_555
O70 S2 1.471257 1_455
O70 Ti8 2.024967 1_555
O71 Si2 1.634587 1_565
O71 Ti8 1.790055 1_555
