# generated using pymatgen
data_MgSc4Ti2O10
_symmetry_space_group_name_H-M   'P 1'
_cell_length_a   3.89384830
_cell_length_b   5.58774020
_cell_length_c   10.59223836
_cell_angle_alpha   93.32212360
_cell_angle_beta   90.11580543
_cell_angle_gamma   110.56908480
_symmetry_Int_Tables_number   1
_chemical_formula_structural   MgSc4Ti2O10
_chemical_formula_sum   'Mg1 Sc4 Ti2 O10'
_cell_volume   215.34732317
_cell_formula_units_Z   1
loop_
 _symmetry_equiv_pos_site_id
 _symmetry_equiv_pos_as_xyz
  1  'x, y, z'
loop_
 _atom_site_type_symbol
 _atom_site_label
 _atom_site_symmetry_multiplicity
 _atom_site_fract_x
 _atom_site_fract_y
 _atom_site_fract_z
 _atom_site_occupancy
  Mg  Mg0  1  0.00196531  0.00191354  0.69701968  1
  Sc  Sc0  1  0.38580946  0.77182583  0.44256116  1
  Sc  Sc1  1  0.29820019  0.59261493  0.76218757  1
  Sc  Sc2  1  0.69579366  0.39892932  0.25771740  1
  Sc  Sc3  1  0.61066500  0.22229458  0.95070013  1
  Ti  Ti0  1  0.37362988  0.72890903  0.08833784  1
  Ti  Ti1  1  0.66311462  0.32576466  0.55259404  1
  O  O0  1  0.43044505  0.84406222  0.91073712  1
  O  O1  1  0.17215457  0.34200061  0.58667767  1
  O  O2  1  0.27289922  0.55092849  0.25928846  1
  O  O3  1  0.13194310  0.25805056  0.86262364  1
  O  O4  1  0.47797028  0.95417304  0.63572151  1
  O  O5  1  0.80437640  0.60509140  0.71737570  1
  O  O6  1  0.78695144  0.58438843  0.07482824  1
  O  O7  1  0.56397525  0.12649242  0.39011106  1
  O  O8  1  0.52573023  0.08560360  0.12615470  1
  O  O9  1  0.82104334  0.64267035  0.44161808  1
loop_
_geom_bond_atom_site_label_1
_geom_bond_atom_site_label_2
_geom_bond_distance
_geom_bond_site_symmetry_2
Mg0 O4 2.061044 1_445
Mg0 O4 2.064069 1_545
Mg0 O5 2.100563 1_445
Mg0 O3 2.139612 1_555
Mg0 O1 2.189074 1_555
O0 Sc1 1.986751 1_555
O0 Sc3 1.997831 1_565
O0 Ti0 2.010916 1_556
O1 Ti1 1.978413 1_555
O1 Ti1 1.983517 1_455
O1 Sc1 2.206715 1_555
O1 Sc0 2.795858 1_555
O2 Ti0 2.087868 1_555
O2 Sc2 2.101057 1_555
O2 Sc2 2.104394 1_455
O2 Sc0 2.196104 1_555
O3 Sc1 2.104427 1_555
O3 Sc3 2.159005 1_555
O3 Sc3 2.185078 1_455
O4 Ti1 2.183784 1_565
O4 Sc0 2.202626 1_555
O4 Sc1 2.385314 1_555
O5 Sc1 2.005480 1_655
O5 Sc1 2.006480 1_555
O5 Ti1 2.205048 1_555
O6 Ti0 2.040488 1_555
O6 Ti0 2.140155 1_655
O6 Sc2 2.220281 1_555
O6 Sc3 2.237340 1_554
O7 Ti1 1.955525 1_555
O7 Sc0 1.969897 1_545
O7 Sc2 2.061245 1_555
O8 Ti0 1.887004 1_545
O8 Sc3 2.033746 1_554
O8 Sc2 2.084360 1_555
O9 Sc0 2.059348 1_655
O9 Sc0 2.061967 1_555
O9 Ti1 2.091556 1_555
O9 Sc2 2.260338 1_555
