# generated using pymatgen
data_MgMn4CuO8
_symmetry_space_group_name_H-M   'P 1'
_cell_length_a   6.08800216
_cell_length_b   6.07908652
_cell_length_c   6.10751260
_cell_angle_alpha   90.75218074
_cell_angle_beta   62.01346981
_cell_angle_gamma   59.05808184
_symmetry_Int_Tables_number   1
_chemical_formula_structural   MgMn4CuO8
_chemical_formula_sum   'Mg1 Mn4 Cu1 O8'
_cell_volume   161.25005864
_cell_formula_units_Z   1
loop_
 _symmetry_equiv_pos_site_id
 _symmetry_equiv_pos_as_xyz
  1  'x, y, z'
loop_
 _atom_site_type_symbol
 _atom_site_label
 _atom_site_symmetry_multiplicity
 _atom_site_fract_x
 _atom_site_fract_y
 _atom_site_fract_z
 _atom_site_occupancy
  Mg  Mg0  1  0.50000000  0.00000000  0.50000000  1
  Mn  Mn0  1  0.00000000  0.50000000  0.50000000  1
  Mn  Mn1  1  0.00000000  0.00000000  0.00000000  1
  Mn  Mn2  1  0.50000000  0.00000000  0.00000000  1
  Mn  Mn3  1  0.00000000  0.50000000  0.00000000  1
  Cu  Cu0  1  0.50000000  0.50000000  0.00000000  1
  O  O0  1  0.45340800  0.25974400  0.80583500  1
  O  O1  1  0.02384000  0.26624100  0.76069600  1
  O  O2  1  0.50510600  0.78437700  0.76140000  1
  O  O3  1  0.95200000  0.75309200  0.80015300  1
  O  O4  1  0.04800000  0.24690800  0.19984700  1
  O  O5  1  0.49489400  0.21562300  0.23860000  1
  O  O6  1  0.97616000  0.73375900  0.23930400  1
  O  O7  1  0.54659200  0.74025600  0.19416500  1
loop_
_geom_bond_atom_site_label_1
_geom_bond_atom_site_label_2
_geom_bond_distance
_geom_bond_site_symmetry_2
Mg0 O5 2.080284 1_555
Mg0 O2 2.080284 1_545
Mg0 O6 2.081775 1_545
Mg0 O1 2.081775 1_555
Mg0 O0 2.242199 1_555
Mg0 O7 2.242199 1_545
Mn0 O1 2.154004 1_555
Mn0 O6 2.154004 1_455
Mn0 O2 2.161476 1_455
Mn0 O5 2.161476 1_555
Mn0 O4 2.184947 1_555
Mn0 O3 2.184947 1_455
Mn1 O3 2.136776 1_444
Mn1 O4 2.136776 1_555
Mn1 O1 2.209374 1_554
Mn1 O6 2.209374 1_445
Mn1 O5 2.212924 1_455
Mn1 O2 2.212924 1_544
Mn2 O5 1.925657 1_555
Mn2 O2 1.925657 1_544
Mn2 O3 1.966528 1_544
Mn2 O4 1.966528 1_555
Mn2 O0 1.970856 1_554
Mn2 O7 1.970856 1_545
Mn3 O1 1.926356 1_554
Mn3 O6 1.926356 1_455
Mn3 O4 1.965728 1_555
Mn3 O3 1.965728 1_454
Mn3 O0 1.973697 1_554
Mn3 O7 1.973697 1_455
Cu0 O7 2.077534 1_555
Cu0 O0 2.077534 1_554
Cu0 O5 2.278602 1_555
Cu0 O2 2.278602 1_554
Cu0 O6 2.288380 1_455
Cu0 O1 2.288380 1_654
