# generated using pymatgen
data_Na18Nb8Zn16Si9(S3O16)9
_symmetry_space_group_name_H-M   'P 1'
_cell_length_a   17.72490430
_cell_length_b   8.91241324
_cell_length_c   22.58566780
_cell_angle_alpha   89.98251217
_cell_angle_beta   90.47651021
_cell_angle_gamma   120.06704394
_symmetry_Int_Tables_number   1
_chemical_formula_structural   Na18Nb8Zn16Si9(S3O16)9
_chemical_formula_sum   'Na18 Nb8 Zn16 Si9 S27 O144'
_cell_volume   3087.66121046
_cell_formula_units_Z   1
loop_
 _symmetry_equiv_pos_site_id
 _symmetry_equiv_pos_as_xyz
  1  'x, y, z'
loop_
 _atom_site_type_symbol
 _atom_site_label
 _atom_site_symmetry_multiplicity
 _atom_site_fract_x
 _atom_site_fract_y
 _atom_site_fract_z
 _atom_site_occupancy
  Na  Na0  1  0.35468974  0.03765810  0.90796097  1
  Na  Na1  1  0.84878362  0.03797254  0.90944407  1
  Na  Na2  1  0.66435446  0.28639893  0.90745340  1
  Na  Na3  1  0.16487658  0.04351107  0.41165402  1
  Na  Na4  1  0.34614415  0.65423028  0.42142947  1
  Na  Na5  1  0.85450698  0.67263581  0.41123837  1
  Na  Na6  1  0.00589330  0.03266949  0.49610680  1
  Na  Na7  1  0.50967212  0.01278327  0.49942281  1
  Na  Na8  1  0.00813747  0.00461100  0.99342678  1
  Na  Na9  1  0.50369846  0.97883606  0.99040980  1
  Na  Na10  1  0.32667530  0.33206795  0.82153801  1
  Na  Na11  1  0.82682462  0.32023428  0.82282509  1
  Na  Na12  1  0.32612606  0.32060417  0.32909105  1
  Na  Na13  1  0.82646060  0.32192183  0.32278069  1
  Na  Na14  1  0.16494605  0.66980663  0.15977691  1
  Na  Na15  1  0.67166591  0.67460246  0.15844395  1
  Na  Na16  1  0.16941170  0.66971281  0.65936154  1
  Na  Na17  1  0.66818272  0.66263560  0.66262415  1
  Nb  Nb0  1  0.99897353  0.00799595  0.65030509  1
  Nb  Nb1  1  0.49884329  0.01102886  0.65191835  1
  Nb  Nb2  1  0.99960606  0.98548723  0.15010100  1
  Nb  Nb3  1  0.50402337  0.99813152  0.14661456  1
  Nb  Nb4  1  0.16416941  0.66047229  0.31255912  1
  Nb  Nb5  1  0.66927845  0.67502452  0.30872566  1
  Nb  Nb6  1  0.16809606  0.66273448  0.80865974  1
  Nb  Nb7  1  0.67124942  0.68044552  0.80936837  1
  Zn  Zn0  1  0.01035391  0.01372276  0.34562225  1
  Zn  Zn1  1  0.50851384  0.01230778  0.34985533  1
  Zn  Zn2  1  0.00436423  0.01534629  0.84286092  1
  Zn  Zn3  1  0.50930391  0.00506753  0.84602062  1
  Zn  Zn4  1  0.32630499  0.31532567  0.68736770  1
  Zn  Zn5  1  0.82357461  0.31662856  0.68794645  1
  Zn  Zn6  1  0.32333950  0.31674620  0.18213539  1
  Zn  Zn7  1  0.82789744  0.33532327  0.18815709  1
  Zn  Zn8  1  0.33018269  0.33839681  0.98306941  1
  Zn  Zn9  1  0.83071186  0.31795761  0.97943623  1
  Zn  Zn10  1  0.32680062  0.33691642  0.48539039  1
  Zn  Zn11  1  0.82911824  0.32161457  0.49032355  1
  Zn  Zn12  1  0.16459977  0.66578226  0.01676651  1
  Zn  Zn13  1  0.66625912  0.67900958  0.01255371  1
  Zn  Zn14  1  0.16574957  0.65106442  0.51910090  1
  Zn  Zn15  1  0.66386615  0.66458971  0.51866414  1
  Si  Si0  1  0.15510622  0.00855227  0.25460226  1
  Si  Si1  1  0.64988115  0.00848920  0.25408984  1
  Si  Si2  1  0.85936953  0.70542003  0.25747744  1
  Si  Si3  1  0.15142994  0.29063486  0.75404364  1
  Si  Si4  1  0.65217946  0.30312657  0.75545363  1
  Si  Si5  1  0.35838007  0.01158985  0.75779937  1
  Si  Si6  1  0.85652222  0.01245068  0.75566206  1
  Si  Si7  1  0.66216838  0.96085838  0.92024957  1
  Si  Si8  1  0.16284926  0.36265515  0.41996698  1
  S  S0  1  0.35440015  0.70966929  0.25162174  1
  S  S1  1  0.00043380  0.29133690  0.24938265  1
  S  S2  1  0.49831939  0.28920290  0.25105735  1
  S  S3  1  0.99968851  0.71068797  0.75125515  1
  S  S4  1  0.49908914  0.70801755  0.74938918  1
  S  S5  1  0.47863647  0.33466030  0.58222613  1
  S  S6  1  0.97881841  0.33458403  0.58491030  1
  S  S7  1  0.18245427  0.02709006  0.58073476  1
  S  S8  1  0.68258448  0.03141738  0.58215149  1
  S  S9  1  0.33608431  0.63348367  0.58343235  1
  S  S10  1  0.83415113  0.62898559  0.58072970  1
  S  S11  1  0.47688272  0.61836626  0.08700491  1
  S  S12  1  0.97867224  0.62040041  0.08266302  1
  S  S13  1  0.33236864  0.03474040  0.08178048  1
  S  S14  1  0.83536686  0.03960688  0.08426295  1
  S  S15  1  0.18476324  0.33617582  0.08303640  1
  S  S16  1  0.68465456  0.34033267  0.08231769  1
  S  S17  1  0.30936711  0.65917172  0.91907944  1
  S  S18  1  0.81503253  0.66793342  0.91822428  1
  S  S19  1  0.02252838  0.37766280  0.91917048  1
  S  S20  1  0.51838278  0.38058177  0.92045204  1
  S  S21  1  0.16502974  0.95582996  0.91893305  1
  S  S22  1  0.31611296  0.95893424  0.41572911  1
  S  S23  1  0.80952981  0.96055639  0.41915167  1
  S  S24  1  0.66547300  0.37667478  0.41874597  1
  S  S25  1  0.01914333  0.65634433  0.41959330  1
  S  S26  1  0.52128487  0.66655649  0.41751252  1
  O  O0  1  0.11616817  0.02747308  0.31544962  1
  O  O1  1  0.60463859  0.03224720  0.30996412  1
  O  O2  1  0.40056066  0.78867628  0.30707929  1
  O  O3  1  0.90749341  0.79877336  0.31770248  1
  O  O4  1  0.48324630  0.18663131  0.30462954  1
  O  O5  1  0.98959435  0.19634198  0.30381841  1
  O  O6  1  0.11263929  0.17927035  0.81165480  1
  O  O7  1  0.61499951  0.19717660  0.81480780  1
  O  O8  1  0.48737266  0.78137487  0.80331608  1
  O  O9  1  0.98814725  0.78527042  0.80509814  1
  O  O10  1  0.40697346  0.01497889  0.81767196  1
  O  O11  1  0.90053308  0.01542512  0.81781503  1
  O  O12  1  0.40360308  0.97116445  0.69804241  1
  O  O13  1  0.90591648  0.97403528  0.69767584  1
  O  O14  1  0.08511559  0.19045790  0.69466142  1
  O  O15  1  0.58359680  0.19062184  0.69730939  1
  O  O16  1  0.01643707  0.82692676  0.69780930  1
  O  O17  1  0.51405044  0.82485113  0.69619514  1
  O  O18  1  0.39937291  0.82725465  0.19933308  1
  O  O19  1  0.90571234  0.83717793  0.19814940  1
  O  O20  1  0.01685589  0.20913539  0.19669732  1
  O  O21  1  0.51105243  0.19918817  0.19794450  1
  O  O22  1  0.08627609  0.98037897  0.19663618  1
  O  O23  1  0.58408457  0.97865973  0.19426935  1
  O  O24  1  0.43802074  0.35265308  0.63552414  1
  O  O25  1  0.93298012  0.34516408  0.63633174  1
  O  O26  1  0.23745986  0.11581523  0.63222615  1
  O  O27  1  0.73622540  0.11606223  0.63433019  1
  O  O28  1  0.32929362  0.52351521  0.63309420  1
  O  O29  1  0.82691629  0.52160268  0.63147811  1
  O  O30  1  0.43157065  0.52013588  0.13979244  1
  O  O31  1  0.93893387  0.52374836  0.13659011  1
  O  O32  1  0.32372883  0.12222954  0.13402856  1
  O  O33  1  0.82776433  0.13235304  0.13505865  1
  O  O34  1  0.23756172  0.36215395  0.13662858  1
  O  O35  1  0.73640286  0.35736033  0.13504190  1
  O  O36  1  0.22156247  0.30336827  0.02928234  1
  O  O37  1  0.71565000  0.30365499  0.02741185  1
  O  O38  1  0.42762981  0.55089788  0.03162977  1
  O  O39  1  0.92682714  0.54611418  0.02860203  1
  O  O40  1  0.34878973  0.13458622  0.02664315  1
  O  O41  1  0.84809901  0.13188467  0.02740461  1
  O  O42  1  0.21632140  0.12475668  0.52447327  1
  O  O43  1  0.71746201  0.13332377  0.52684592  1
  O  O44  1  0.34767147  0.56660255  0.52551907  1
  O  O45  1  0.84635974  0.55827560  0.52350740  1
  O  O46  1  0.42720350  0.30691999  0.52742273  1
  O  O47  1  0.93080745  0.30703266  0.52819471  1
  O  O48  1  0.26709045  0.68293560  0.97110154  1
  O  O49  1  0.77315559  0.68997568  0.97084213  1
  O  O50  1  0.07306136  0.46000152  0.97297993  1
  O  O51  1  0.57141052  0.45855877  0.97393523  1
  O  O52  1  0.15867051  0.85886428  0.97313464  1
  O  O53  1  0.65343849  0.85591355  0.97949300  1
  O  O54  1  0.27606404  0.85493980  0.46840021  1
  O  O55  1  0.76586685  0.84954422  0.46999856  1
  O  O56  1  0.15779427  0.46594702  0.47544224  1
  O  O57  1  0.65883599  0.46220007  0.47212625  1
  O  O58  1  0.07485288  0.68427404  0.47108579  1
  O  O59  1  0.57369074  0.69163054  0.47085520  1
  O  O60  1  0.06736555  0.64831880  0.36339635  1
  O  O61  1  0.56869719  0.65679769  0.36342231  1
  O  O62  1  0.25686704  0.86589563  0.36122309  1
  O  O63  1  0.75433475  0.86411452  0.36290916  1
  O  O64  1  0.17489060  0.49613757  0.35996388  1
  O  O65  1  0.67289973  0.48604660  0.36467888  1
  O  O66  1  0.06984371  0.48197907  0.86517660  1
  O  O67  1  0.56356779  0.48219069  0.86613735  1
  O  O68  1  0.17447186  0.86098039  0.86574996  1
  O  O69  1  0.67415142  0.85119862  0.86176968  1
  O  O70  1  0.25441014  0.64486088  0.86385465  1
  O  O71  1  0.75771917  0.64602755  0.86347577  1
  O  O72  1  0.00806278  0.80928059  0.41452946  1
  O  O73  1  0.50542185  0.81613718  0.41313241  1
  O  O74  1  0.40127372  0.96822305  0.40701821  1
  O  O75  1  0.89523088  0.97555786  0.41358622  1
  O  O76  1  0.07912823  0.17040487  0.41335860  1
  O  O77  1  0.58706213  0.20327425  0.41428997  1
  O  O78  1  0.00967368  0.19988782  0.91621766  1
  O  O79  1  0.50579128  0.20274307  0.91700007  1
  O  O80  1  0.08768101  0.97365353  0.91329211  1
  O  O81  1  0.57924085  0.98778364  0.91234750  1
  O  O82  1  0.39517218  0.81436943  0.91390942  1
  O  O83  1  0.90157661  0.82404630  0.91254744  1
  O  O84  1  0.48734841  0.16848644  0.58831216  1
  O  O85  1  0.98801676  0.16895446  0.59000630  1
  O  O86  1  0.09251391  0.00839552  0.58863522  1
  O  O87  1  0.59262783  0.01233694  0.58888991  1
  O  O88  1  0.41806077  0.81181119  0.58981828  1
  O  O89  1  0.91561042  0.80816211  0.58767976  1
  O  O90  1  0.48483387  0.80328889  0.09328551  1
  O  O91  1  0.98749744  0.80547172  0.08908381  1
  O  O92  1  0.41302144  0.01509462  0.09187365  1
  O  O93  1  0.91864809  0.02664568  0.09207406  1
  O  O94  1  0.09496429  0.17467972  0.09029378  1
  O  O95  1  0.59140154  0.17381822  0.09164260  1
  O  O96  1  0.34634344  0.17265958  0.74517919  1
  O  O97  1  0.84783518  0.17720211  0.74349074  1
  O  O98  1  0.24939408  0.34705582  0.74078007  1
  O  O99  1  0.74867006  0.34824630  0.74172612  1
  O  O100  1  0.42740850  0.53594684  0.73835831  1
  O  O101  1  0.92884500  0.53824605  0.73978980  1
  O  O102  1  0.34530567  0.53971348  0.24265604  1
  O  O103  1  0.84634531  0.51919937  0.24527614  1
  O  O104  1  0.42833589  0.32513399  0.24024048  1
  O  O105  1  0.92910781  0.32290486  0.23972514  1
  O  O106  1  0.25019582  0.16947407  0.24365185  1
  O  O107  1  0.74725044  0.15266182  0.24232306  1
  O  O108  1  0.31301519  0.49703994  0.91978861  1
  O  O109  1  0.81858418  0.50603137  0.91967042  1
  O  O110  1  0.42989125  0.36482136  0.92231452  1
  O  O111  1  0.93621299  0.36758477  0.91836506  1
  O  O112  1  0.24884641  0.12725100  0.91976700  1
  O  O113  1  0.75486176  0.15075269  0.91726008  1
  O  O114  1  0.32201429  0.12939469  0.41658065  1
  O  O115  1  0.81296631  0.12936452  0.41974880  1
  O  O116  1  0.25521038  0.35579187  0.41820710  1
  O  O117  1  0.74812694  0.36980665  0.41896721  1
  O  O118  1  0.43561990  0.50375907  0.41776948  1
  O  O119  1  0.93333007  0.49542860  0.41919569  1
  O  O120  1  0.17209598  0.48784245  0.07763120  1
  O  O121  1  0.66828956  0.48632385  0.07820667  1
  O  O122  1  0.06962326  0.65614854  0.07840122  1
  O  O123  1  0.56601072  0.65018215  0.08561002  1
  O  O124  1  0.25676849  0.85703257  0.07810716  1
  O  O125  1  0.76148620  0.85917558  0.08224242  1
  O  O126  1  0.17037375  0.85023457  0.57646318  1
  O  O127  1  0.67104134  0.85503181  0.57742932  1
  O  O128  1  0.26086326  0.66318036  0.58215361  1
  O  O129  1  0.75797797  0.65585053  0.57754889  1
  O  O130  1  0.06806829  0.48406355  0.58341837  1
  O  O131  1  0.56939829  0.48181663  0.57796135  1
  O  O132  1  0.15519655  0.81947044  0.25624830  1
  O  O133  1  0.64629085  0.81436064  0.25733966  1
  O  O134  1  0.26532758  0.69569388  0.25246154  1
  O  O135  1  0.75935204  0.69100169  0.26034343  1
  O  O136  1  0.08445130  0.47056807  0.25343573  1
  O  O137  1  0.58394358  0.45915835  0.25563806  1
  O  O138  1  0.14660265  0.47682051  0.75868543  1
  O  O139  1  0.64558113  0.48338877  0.75837073  1
  O  O140  1  0.08457233  0.70456513  0.75584308  1
  O  O141  1  0.58348452  0.70212879  0.75222545  1
  O  O142  1  0.25900597  0.82649728  0.76081603  1
  O  O143  1  0.75901759  0.82625908  0.75541758  1
loop_
_geom_bond_atom_site_label_1
_geom_bond_atom_site_label_2
_geom_bond_distance
_geom_bond_site_symmetry_2
Na0 O10 2.297290 1_555
Na0 O79 2.328532 1_555
Na0 O112 2.395370 1_555
Na0 O82 2.433570 1_545
Na0 O110 2.546116 1_555
Na0 O40 2.835307 1_556
Na0 O68 2.915881 1_545
Na1 O11 2.319721 1_555
Na1 O113 2.344055 1_555
Na1 O78 2.471365 1_655
Na1 O83 2.510419 1_545
Na1 O111 2.550564 1_555
Na1 O41 2.794784 1_556
Na1 O69 2.879955 1_545
Na2 O7 2.247118 1_555
Na2 O81 2.313128 1_545
Na2 O109 2.450868 1_555
Na2 O113 2.453858 1_555
Na2 O79 2.532126 1_555
Na2 O37 2.830197 1_556
Na2 O71 2.951058 1_555
Na3 O76 2.305187 1_555
Na3 O0 2.309194 1_555
Na3 O116 2.421292 1_555
Na3 O114 2.492900 1_555
Na3 O72 2.505308 1_545
Na3 O42 2.673849 1_555
Na4 O116 2.319519 1_555
Na4 O73 2.452397 1_555
Na4 O44 2.481239 1_555
Na4 O74 2.481267 1_555
Na4 O118 2.540458 1_555
Na4 O2 2.813853 1_555
Na4 O54 2.849175 1_555
Na4 O64 2.961749 1_555
Na5 O72 2.360498 1_655
Na5 O3 2.362713 1_555
Na5 O117 2.403323 1_555
Na5 O75 2.420604 1_555
Na5 O119 2.585590 1_555
Na5 O45 2.710412 1_555
Na6 O76 2.264297 1_555
Na6 O85 2.543981 1_455
Na6 O75 2.553336 1_445
Na6 O86 2.655295 1_555
Na6 O72 2.727665 1_545
Na6 O89 2.772384 1_445
Na7 O77 2.483820 1_555
Na7 O87 2.490301 1_555
Na7 O84 2.584169 1_555
Na7 O73 2.596711 1_545
Na7 O88 2.674283 1_545
Na7 O74 2.715544 1_545
Na8 O80 2.402541 1_545
Na8 O78 2.453986 1_555
Na8 O83 2.528401 1_445
Na8 O94 2.657259 1_556
Na8 O91 2.704006 1_446
Na8 O93 2.808878 1_456
Na9 O81 2.199978 1_555
Na9 O82 2.440311 1_555
Na9 O79 2.580198 1_565
Na9 O90 2.728525 1_556
Na9 O95 2.810779 1_566
Na9 O92 2.919138 1_566
Na10 O98 2.315754 1_555
Na10 O96 2.371084 1_555
Na10 O100 2.611868 1_555
Na10 O108 2.740849 1_555
Na10 O112 2.771710 1_555
Na10 O110 2.830004 1_555
Na11 O97 2.337202 1_555
Na11 O99 2.374958 1_555
Na11 O113 2.563286 1_555
Na11 O101 2.663816 1_555
Na11 O111 2.775742 1_555
Na11 O109 2.792413 1_555
Na12 O106 2.343340 1_555
Na12 O116 2.483332 1_555
Na12 O114 2.586485 1_555
Na12 O102 2.661490 1_555
Na12 O118 2.684309 1_555
Na12 O104 2.701466 1_555
Na13 O107 2.320774 1_555
Na13 O103 2.380592 1_555
Na13 O105 2.621067 1_555
Na13 O115 2.719188 1_555
Na13 O117 2.733846 1_555
Na13 O119 2.778429 1_555
Na14 O122 2.447425 1_555
Na14 O124 2.482427 1_555
Na14 O120 2.509978 1_555
Na14 O132 2.606827 1_555
Na14 O134 2.669844 1_555
Na14 O136 2.678193 1_555
Na15 O125 2.371143 1_555
Na15 O123 2.408543 1_555
Na15 O121 2.450074 1_555
Na15 O133 2.706035 1_555
Na15 O135 2.728888 1_555
Na15 O137 2.825949 1_555
Na16 O128 2.411097 1_555
Na16 O130 2.424599 1_555
Na16 O126 2.462837 1_555
Na16 O142 2.728173 1_555
Na16 O138 2.732682 1_555
Na16 O140 2.762109 1_555
Na17 O129 2.525145 1_555
Na17 O131 2.537320 1_555
Na17 O127 2.560828 1_555
Na17 O143 2.589264 1_555
Na17 O139 2.599999 1_555
Na17 O141 2.655848 1_555
Nb0 O14 1.861979 1_655
Nb0 O13 1.867034 1_545
Nb0 O85 2.055213 1_555
Nb0 O16 2.084502 1_645
Nb0 O89 2.164656 1_545
Nb0 O86 2.172900 1_655
Nb1 O15 1.853565 1_555
Nb1 O12 1.867956 1_545
Nb1 O17 2.066062 1_545
Nb1 O84 2.086870 1_555
Nb1 O88 2.142557 1_545
Nb1 O87 2.193136 1_555
Nb2 O22 1.873471 1_655
Nb2 O19 1.876024 1_555
Nb2 O91 2.042221 1_555
Nb2 O93 2.099330 1_565
Nb2 O20 2.135259 1_665
Nb2 O94 2.169200 1_665
Nb3 O23 1.850297 1_555
Nb3 O90 1.996136 1_555
Nb3 O95 1.998185 1_565
Nb3 O21 2.084614 1_565
Nb3 O92 2.089086 1_565
Nb3 O18 2.093503 1_555
Nb4 O64 1.897919 1_555
Nb4 O132 1.967798 1_555
Nb4 O60 2.029937 1_555
Nb4 O62 2.053418 1_555
Nb4 O136 2.053756 1_555
Nb4 O134 2.152225 1_555
Nb5 O133 1.885037 1_555
Nb5 O135 1.887975 1_555
Nb5 O63 2.008805 1_555
Nb5 O61 2.115933 1_555
Nb5 O137 2.117114 1_555
Nb5 O65 2.131557 1_555
Nb6 O138 1.877773 1_555
Nb6 O142 1.888327 1_555
Nb6 O70 2.032831 1_555
Nb6 O140 2.068123 1_555
Nb6 O66 2.117068 1_555
Nb6 O68 2.143834 1_555
Nb7 O143 1.896981 1_555
Nb7 O69 1.908128 1_555
Nb7 O139 1.951911 1_555
Nb7 O71 2.091958 1_555
Nb7 O141 2.095394 1_555
Nb7 O67 2.251436 1_555
O0 Si0 1.589325 1_555
O0 Zn0 1.946277 1_555
O1 Si1 1.570856 1_555
O1 Zn1 1.862340 1_555
O2 S0 1.462985 1_555
O2 Zn1 2.171670 1_565
O3 Si2 1.593829 1_555
O3 Zn0 1.968111 1_665
O4 S2 1.459812 1_555
O4 Zn1 2.084805 1_555
O5 S1 1.451067 1_655
O5 Zn0 2.066214 1_655
O6 Si3 1.575190 1_555
O6 Zn2 1.877957 1_555
O7 Si4 1.585371 1_555
O7 Zn3 1.935290 1_555
O8 S4 1.447335 1_555
O8 Zn3 2.067457 1_565
O9 S3 1.450318 1_555
O9 Zn2 2.102646 1_665
O10 Si5 1.589330 1_555
O10 Zn3 1.961838 1_555
O11 Si6 1.594016 1_555
O11 Zn2 1.921206 1_655
O12 Si5 1.703396 1_565
O13 Si6 1.708403 1_565
O14 Si3 1.703074 1_555
O15 Si4 1.720632 1_555
O16 S3 1.521678 1_455
O17 S4 1.525066 1_555
O18 S0 1.518619 1_555
O19 Si2 1.702934 1_555
O20 S1 1.502454 1_555
O21 S2 1.523178 1_555
O22 Si0 1.712354 1_565
O23 Si1 1.708671 1_565
O24 S5 1.457141 1_555
O24 Zn4 2.186543 1_555
O25 S6 1.452709 1_555
O25 Zn5 2.174260 1_555
O26 S7 1.462029 1_555
O26 Zn4 2.087003 1_555
O27 S8 1.457779 1_555
O27 Zn5 2.062949 1_555
O28 S9 1.454823 1_555
O28 Zn4 2.202130 1_555
O29 S10 1.457709 1_555
O29 Zn5 2.204257 1_555
O30 S11 1.464128 1_555
O30 Zn6 2.103716 1_555
O31 S12 1.458517 1_555
O31 Zn7 2.185222 1_555
O32 S13 1.465333 1_555
O32 Zn6 2.049210 1_555
O33 S14 1.460263 1_555
O33 Zn7 2.169690 1_555
O34 S15 1.469264 1_555
O34 Zn6 2.030289 1_555
O35 S16 1.457684 1_555
O35 Zn7 2.096279 1_555
O36 S15 1.479663 1_555
O36 Zn8 2.079554 1_554
O37 S16 1.462200 1_555
O37 Zn9 2.264051 1_554
O38 S11 1.464311 1_555
O38 Zn8 2.113060 1_554
O39 S12 1.464870 1_555
O39 Zn9 2.183793 1_554
O40 S13 1.474180 1_555
O40 Zn8 2.229480 1_554
O41 S14 1.481428 1_555
O41 Zn9 2.127052 1_554
O42 S7 1.490351 1_555
O42 Zn10 2.122896 1_555
O43 S8 1.488921 1_555
O43 Zn11 2.027749 1_555
O44 S9 1.495322 1_555
O44 Zn10 2.094154 1_555
O45 S10 1.502025 1_555
O45 Zn11 2.110732 1_555
O46 S5 1.476438 1_555
O46 Zn10 2.142022 1_555
O47 S6 1.482569 1_555
O47 Zn11 2.050920 1_555
O48 S17 1.469940 1_555
O48 Zn12 2.034713 1_556
O49 S18 1.470644 1_555
O49 Zn13 2.081142 1_556
O50 S19 1.463422 1_555
O50 Zn12 1.991689 1_556
O51 S20 1.467195 1_555
O51 Zn13 2.028361 1_556
O52 S21 1.470442 1_555
O52 Zn12 2.030239 1_556
O53 Si7 1.595868 1_555
O53 Zn13 1.857542 1_556
O54 S22 1.460215 1_555
O54 Zn14 2.216308 1_555
O55 S23 1.464076 1_555
O55 Zn15 2.059053 1_555
O56 Si8 1.584484 1_555
O56 Zn14 1.865408 1_555
O57 S24 1.463269 1_555
O57 Zn15 2.050563 1_555
O58 S25 1.457513 1_555
O58 Zn14 2.075564 1_555
O59 S26 1.462128 1_555
O59 Zn15 2.033687 1_555
O60 S25 1.557572 1_555
O61 S26 1.515468 1_555
O62 S22 1.553199 1_555
O63 S23 1.564258 1_555
O64 Si8 1.745514 1_555
O65 S24 1.527107 1_555
O66 S19 1.513238 1_555
O67 S20 1.501768 1_555
O68 S21 1.526812 1_555
O69 Si7 1.719966 1_555
O70 S17 1.541517 1_555
O71 S18 1.542610 1_555
O72 S25 1.475562 1_555
O72 Zn0 2.380944 1_565
O73 S26 1.497036 1_555
O73 Zn1 2.237407 1_565
O74 S22 1.484508 1_555
O74 Zn1 2.174050 1_565
O75 S23 1.463157 1_555
O75 Zn0 2.447873 1_665
O76 Si8 1.615199 1_555
O76 Zn0 2.010240 1_555
O77 S24 1.474996 1_555
O77 Zn1 2.132233 1_555
O78 S19 1.484849 1_555
O78 Zn2 2.302808 1_555
O79 S20 1.487735 1_555
O79 Zn3 2.406446 1_555
O80 S21 1.461647 1_555
O80 Zn2 2.315129 1_565
O81 Si7 1.612155 1_555
O81 Zn3 1.991187 1_565
O82 S17 1.461116 1_555
O82 Zn3 2.436571 1_565
O83 S18 1.473066 1_555
O83 Zn2 2.374215 1_665
O84 S5 1.569972 1_555
O85 S6 1.568317 1_555
O86 S7 1.529571 1_555
O87 S8 1.525369 1_555
O88 S9 1.529931 1_555
O89 S10 1.531490 1_555
O90 S11 1.588492 1_555
O91 S12 1.583464 1_555
O92 S13 1.540013 1_555
O93 S14 1.545966 1_555
O94 S15 1.529891 1_555
O95 S16 1.589490 1_555
O96 Si5 1.578957 1_555
O96 Zn4 1.972699 1_555
O97 Si6 1.575080 1_555
O97 Zn5 1.956610 1_555
O98 Si3 1.578399 1_555
O98 Zn4 1.951291 1_555
O99 Si4 1.581934 1_555
O99 Zn5 1.928580 1_555
O100 S4 1.439000 1_555
O100 Zn4 2.200052 1_555
O101 S3 1.437667 1_555
O101 Zn5 2.241880 1_555
O102 S0 1.454763 1_555
O102 Zn6 2.277369 1_555
O103 Si2 1.580842 1_555
O103 Zn7 1.978417 1_555
O104 S2 1.447032 1_555
O104 Zn6 2.238609 1_555
O105 S1 1.441124 1_655
O105 Zn7 2.179708 1_555
O106 Si0 1.594803 1_555
O106 Zn6 1.912522 1_555
O107 Si1 1.576574 1_555
O107 Zn7 1.971370 1_555
O108 S17 1.478517 1_555
O108 Zn8 2.134726 1_555
O109 S18 1.475824 1_555
O109 Zn9 2.243382 1_555
O110 S20 1.504006 1_555
O110 Zn8 2.164459 1_555
O111 S19 1.486920 1_655
O111 Zn9 2.192906 1_555
O112 S21 1.505593 1_545
O112 Zn8 2.216457 1_555
O113 Si7 1.668458 1_545
O113 Zn9 1.990620 1_555
O114 S22 1.469719 1_545
O114 Zn10 2.384434 1_555
O115 S23 1.474974 1_545
O115 Zn11 2.249679 1_555
O116 Si8 1.669376 1_555
O116 Zn10 2.030429 1_555
O117 S24 1.496606 1_555
O117 Zn11 2.328433 1_555
O118 S26 1.484367 1_555
O118 Zn10 2.331875 1_555
O119 S25 1.477963 1_655
O119 Zn11 2.360727 1_555
O120 S15 1.481892 1_555
O120 Zn12 2.151543 1_555
O121 S16 1.470840 1_555
O121 Zn13 2.282242 1_555
O122 S12 1.482409 1_455
O122 Zn12 2.161777 1_555
O123 S11 1.459135 1_555
O123 Zn13 2.353084 1_555
O124 S13 1.477349 1_565
O124 Zn12 2.160363 1_555
O125 S14 1.480480 1_565
O125 Zn13 2.268536 1_555
O126 S7 1.483628 1_565
O126 Zn14 2.165639 1_555
O127 S8 1.483893 1_565
O127 Zn15 2.107335 1_555
O128 S9 1.483740 1_555
O128 Zn14 2.158617 1_555
O129 S10 1.485843 1_555
O129 Zn15 2.156547 1_555
O130 S6 1.472274 1_455
O130 Zn14 2.186668 1_555
O131 S5 1.485175 1_555
O131 Zn15 2.133944 1_555
O132 Si0 1.686376 1_565
O133 Si1 1.700748 1_565
O134 S0 1.520507 1_555
O135 Si2 1.713814 1_555
O136 S1 1.546580 1_555
O137 S2 1.517363 1_555
O138 Si3 1.707139 1_555
O139 Si4 1.669599 1_555
O140 S3 1.535279 1_455
O141 S4 1.523695 1_555
O142 Si5 1.708454 1_565
O143 Si6 1.693136 1_565
