# generated using pymatgen
data_Sr2MgCu(OF)2
_symmetry_space_group_name_H-M   'P 1'
_cell_length_a   4.05083341
_cell_length_b   4.05083341
_cell_length_c   9.91554858
_cell_angle_alpha   101.78657764
_cell_angle_beta   101.78657764
_cell_angle_gamma   90.00000000
_symmetry_Int_Tables_number   1
_chemical_formula_structural   Sr2MgCu(OF)2
_chemical_formula_sum   'Sr2 Mg1 Cu1 O2 F2'
_cell_volume   155.76993632
_cell_formula_units_Z   1
loop_
 _symmetry_equiv_pos_site_id
 _symmetry_equiv_pos_as_xyz
  1  'x, y, z'
loop_
 _atom_site_type_symbol
 _atom_site_label
 _atom_site_symmetry_multiplicity
 _atom_site_fract_x
 _atom_site_fract_y
 _atom_site_fract_z
 _atom_site_occupancy
  Sr  Sr0  1  0.32679026  0.32679026  0.65358252  1
  Sr  Sr1  1  0.67320974  0.67320974  0.34641748  1
  Mg  Mg0  1  0.50000000  0.50000000  0.00000000  1
  Cu  Cu0  1  -0.00000000  0.00000000  0.00000000  1
  O  O0  1  -0.00000000  0.50000000  0.00000000  1
  O  O1  1  0.50000000  0.00000000  0.00000000  1
  F  F0  1  0.25000000  0.75000000  0.50000000  1
  F  F1  1  0.75000000  0.25000000  0.50000000  1
loop_
_geom_bond_atom_site_label_1
_geom_bond_atom_site_label_2
_geom_bond_distance
_geom_bond_site_symmetry_2
Mg0 O1 2.025417 1_565
Mg0 O0 2.025417 1_655
Mg0 O0 2.025417 1_555
Mg0 O1 2.025417 1_555
Cu0 O1 2.025417 1_455
Cu0 O0 2.025417 1_555
Cu0 O0 2.025417 1_545
Cu0 O1 2.025417 1_555
F0 Sr1 2.495567 1_455
F0 Sr0 2.495567 1_565
F0 Sr0 2.495574 1_555
F0 Sr1 2.495574 1_555
F1 Sr1 2.495567 1_545
F1 Sr0 2.495567 1_655
F1 Sr0 2.495574 1_555
F1 Sr1 2.495574 1_555
