# generated using pymatgen
data_MgMn6(O5F)2
_symmetry_space_group_name_H-M   'P 1'
_cell_length_a   5.17902402
_cell_length_b   5.16030488
_cell_length_c   8.82430558
_cell_angle_alpha   92.34162945
_cell_angle_beta   87.23699020
_cell_angle_gamma   104.51651929
_symmetry_Int_Tables_number   1
_chemical_formula_structural   MgMn6(O5F)2
_chemical_formula_sum   'Mg1 Mn6 O10 F2'
_cell_volume   227.93733080
_cell_formula_units_Z   1
loop_
 _symmetry_equiv_pos_site_id
 _symmetry_equiv_pos_as_xyz
  1  'x, y, z'
loop_
 _atom_site_type_symbol
 _atom_site_label
 _atom_site_symmetry_multiplicity
 _atom_site_fract_x
 _atom_site_fract_y
 _atom_site_fract_z
 _atom_site_occupancy
  Mg  Mg0  1  0.69664848  0.29581994  0.67744664  1
  Mn  Mn0  1  0.00087063  0.00058329  0.00679960  1
  Mn  Mn1  1  0.98865953  0.00947088  0.32144428  1
  Mn  Mn2  1  0.03342524  0.96469055  0.65923073  1
  Mn  Mn3  1  0.41386718  0.59632454  0.85686572  1
  Mn  Mn4  1  0.55254056  0.44516979  0.16313417  1
  Mn  Mn5  1  0.45101821  0.54554679  0.48994239  1
  O  O0  1  0.14368850  0.85761716  0.15488693  1
  O  O1  1  0.16633372  0.83037897  0.83187172  1
  O  O2  1  0.31216926  0.30464166  -0.00194168  1
  O  O3  1  0.31966626  0.28656873  0.33124013  1
  O  O4  1  0.31418913  0.30247496  0.66486084  1
  O  O5  1  0.68901506  0.70107957  0.00497871  1
  O  O6  1  0.71125361  0.68017523  0.33124165  1
  O  O7  1  0.68830728  0.68535369  0.67036833  1
  O  O8  1  0.83715641  0.16786812  0.17321163  1
  O  O9  1  0.86457453  0.13241705  0.51330480  1
  F  F0  1  0.19786347  0.79667343  0.47130767  1
  F  F1  1  0.82708594  0.17492364  0.85123573  1
loop_
_geom_bond_atom_site_label_1
_geom_bond_atom_site_label_2
_geom_bond_distance
_geom_bond_site_symmetry_2
Mg0 O9 1.926583 1_555
Mg0 O4 1.998142 1_555
Mg0 O7 2.024938 1_555
Mn0 O0 1.801259 1_545
Mn0 O5 1.935608 1_445
Mn0 O8 1.940050 1_455
Mn0 O2 1.948546 1_555
Mn0 O1 2.006868 1_544
Mn1 O8 1.871522 1_555
Mn1 O0 1.877870 1_645
Mn1 O9 1.921873 1_555
Mn1 O6 1.932670 1_545
Mn1 O3 1.940676 1_655
Mn2 O1 1.923951 1_555
Mn2 O9 1.936770 1_465
Mn2 O4 1.970884 1_565
Mn2 O7 1.996299 1_455
Mn3 O5 1.940805 1_556
Mn3 O2 1.946236 1_556
Mn3 O1 1.994025 1_555
Mn3 O7 2.109153 1_555
Mn3 O4 2.217762 1_555
Mn4 O3 1.938253 1_555
Mn4 O5 1.943912 1_555
Mn4 O6 1.953892 1_555
Mn4 O2 1.957927 1_555
Mn4 O8 2.304080 1_555
Mn5 O6 1.920530 1_555
Mn5 O3 1.921752 1_555
Mn5 O4 2.016222 1_555
Mn5 O7 2.053275 1_555
F0 Mn5 2.077329 1_555
F0 Mn2 2.084093 1_555
F0 Mn1 2.232003 1_465
F1 Mg0 1.893865 1_555
F1 Mn0 2.032195 1_656
F1 Mn2 2.333675 1_645
