# generated using pymatgen
data_Na6Ca7Sn(SO4)12
_symmetry_space_group_name_H-M   'P 1'
_cell_length_a   18.39182695
_cell_length_b   9.18742141
_cell_length_c   24.08164221
_cell_angle_alpha   90.07097512
_cell_angle_beta   89.91379611
_cell_angle_gamma   119.95357194
_symmetry_Int_Tables_number   1
_chemical_formula_structural   Na6Ca7Sn(SO4)12
_chemical_formula_sum   'Na18 Ca21 Sn3 S36 O144'
_cell_volume   3525.63760862
_cell_formula_units_Z   3
loop_
 _symmetry_equiv_pos_site_id
 _symmetry_equiv_pos_as_xyz
  1  'x, y, z'
loop_
 _atom_site_type_symbol
 _atom_site_label
 _atom_site_symmetry_multiplicity
 _atom_site_fract_x
 _atom_site_fract_y
 _atom_site_fract_z
 _atom_site_occupancy
  Na  Na0  1  0.32110674  0.64052371  0.74916849  1
  Na  Na1  1  0.65069639  0.33163915  0.58430994  1
  Na  Na2  1  0.98752390  0.66793761  0.91844288  1
  Na  Na3  1  0.66496690  0.30280909  0.91538663  1
  Na  Na4  1  0.16666468  0.02845365  0.41752879  1
  Na  Na5  1  0.66662648  0.02861232  0.41799001  1
  Na  Na6  1  0.99443750  0.00391079  0.49839105  1
  Na  Na7  1  0.48304875  0.98025646  0.50193532  1
  Na  Na8  1  0.00349199  0.01879481  0.00071336  1
  Na  Na9  1  0.48956103  0.98234796  0.99738011  1
  Na  Na10  1  0.33857852  0.32403370  0.83796694  1
  Na  Na11  1  0.82870906  0.31396638  0.82995274  1
  Na  Na12  1  0.34089315  0.34856934  0.33508920  1
  Na  Na13  1  0.84164624  0.34848190  0.33444880  1
  Na  Na14  1  0.16774536  0.66703520  0.16651915  1
  Na  Na15  1  0.66580444  0.66604794  0.16658516  1
  Na  Na16  1  0.16467560  0.67118661  0.66321728  1
  Na  Na17  1  0.66230055  0.67561126  0.67044317  1
  Ca  Ca0  1  0.99579511  0.99979081  0.35067105  1
  Ca  Ca1  1  0.49525849  0.00046522  0.35112224  1
  Ca  Ca2  1  0.00173503  0.01082406  0.85118731  1
  Ca  Ca3  1  0.49675653  0.99560643  0.84919716  1
  Ca  Ca4  1  0.49824632  0.99479974  0.65121490  1
  Ca  Ca5  1  0.33650158  0.32779498  0.68073747  1
  Ca  Ca6  1  0.83256665  0.33139828  0.68449977  1
  Ca  Ca7  1  0.33287013  0.33249664  0.18284795  1
  Ca  Ca8  1  0.83274397  0.33251965  0.18288371  1
  Ca  Ca9  1  0.33362914  0.33546345  0.98589579  1
  Ca  Ca10  1  0.83280452  0.32243153  0.99013001  1
  Ca  Ca11  1  0.33645586  0.34090400  0.48600091  1
  Ca  Ca12  1  0.84297655  0.34442254  0.48589550  1
  Ca  Ca13  1  0.17058779  0.66819959  0.01841109  1
  Ca  Ca14  1  0.66588607  0.67125142  0.01832091  1
  Ca  Ca15  1  0.16657301  0.65935096  0.51810768  1
  Ca  Ca16  1  0.66684244  0.67117591  0.51587528  1
  Ca  Ca17  1  0.16717267  0.66143020  0.31402468  1
  Ca  Ca18  1  0.66669353  0.66114965  0.31389649  1
  Ca  Ca19  1  0.16495324  0.66868103  0.81701697  1
  Ca  Ca20  1  0.66684369  0.66970106  0.81570743  1
  Sn  Sn0  1  0.00070773  0.00187742  0.65184932  1
  Sn  Sn1  1  0.00062851  0.00022120  0.15188945  1
  Sn  Sn2  1  0.49962043  0.99963133  0.15139211  1
  S  S0  1  0.14481015  0.99772406  0.24854507  1
  S  S1  1  0.64447801  0.99818792  0.24846465  1
  S  S2  1  0.35411853  0.71002928  0.24671178  1
  S  S3  1  0.85436412  0.71055237  0.24648427  1
  S  S4  1  0.00090306  0.29226400  0.24656363  1
  S  S5  1  0.50111652  0.29200712  0.24638577  1
  S  S6  1  0.14716320  0.29549606  0.74644939  1
  S  S7  1  0.65170120  0.30276384  0.75032326  1
  S  S8  1  0.00098128  0.71144135  0.74829480  1
  S  S9  1  0.49850644  0.69715497  0.74950732  1
  S  S10  1  0.34830256  0.99632674  0.75027940  1
  S  S11  1  0.85469224  0.99790165  0.74702270  1
  S  S12  1  0.48674579  0.33300757  0.58273556  1
  S  S13  1  0.98413423  0.32165476  0.58773789  1
  S  S14  1  0.17518830  0.02859709  0.58554949  1
  S  S15  1  0.68401547  0.03766307  0.58154136  1
  S  S16  1  0.33263987  0.63573034  0.58603655  1
  S  S17  1  0.83876345  0.64312875  0.58672706  1
  S  S18  1  0.48389960  0.64631111  0.08737726  1
  S  S19  1  0.98480262  0.64725045  0.08553435  1
  S  S20  1  0.33926658  0.03260160  0.08710325  1
  S  S21  1  0.83934809  0.02961901  0.08776043  1
  S  S22  1  0.17677120  0.32118975  0.08729401  1
  S  S23  1  0.67610706  0.32182243  0.08583613  1
  S  S24  1  0.31667559  0.66327767  0.91480799  1
  S  S25  1  0.81605670  0.66327103  0.91795514  1
  S  S26  1  0.01628193  0.37193782  0.91812896  1
  S  S27  1  0.51831426  0.36863095  0.91709158  1
  S  S28  1  0.16575595  0.96492996  0.91747576  1
  S  S29  1  0.66781450  0.97160750  0.91681688  1
  S  S30  1  0.31318860  0.96506643  0.41739607  1
  S  S31  1  0.81439416  0.96652203  0.41665782  1
  S  S32  1  0.16708481  0.36372291  0.41622378  1
  S  S33  1  0.66819325  0.36431421  0.41861624  1
  S  S34  1  0.01943377  0.66875021  0.41592552  1
  S  S35  1  0.51799522  0.66800722  0.41521605  1
  O  O0  1  0.10489850  0.01347382  0.29972520  1
  O  O1  1  0.60490396  0.01403486  0.29985755  1
  O  O2  1  0.40366114  0.79283008  0.29642519  1
  O  O3  1  0.90380219  0.79277123  0.29630776  1
  O  O4  1  0.49339561  0.19350900  0.29615658  1
  O  O5  1  0.99283222  0.19312888  0.29618796  1
  O  O6  1  0.10600304  0.19572013  0.79618041  1
  O  O7  1  0.60897793  0.20546733  0.80115685  1
  O  O8  1  0.48933009  0.78128576  0.79949333  1
  O  O9  1  0.99329602  0.79148527  0.79962442  1
  O  O10  1  0.39714405  0.01403863  0.80083655  1
  O  O11  1  0.90430750  0.01257991  0.79650977  1
  O  O12  1  0.39046849  0.97884445  0.70018811  1
  O  O13  1  0.89722434  0.97898917  0.69456653  1
  O  O14  1  0.09438387  0.21110440  0.69477418  1
  O  O15  1  0.60415925  0.21891912  0.69884444  1
  O  O16  1  0.01104065  0.82065996  0.69707868  1
  O  O17  1  0.50679713  0.79480778  0.69888528  1
  O  O18  1  0.39636659  0.81459935  0.19452891  1
  O  O19  1  0.89682070  0.81539071  0.19441586  1
  O  O20  1  0.01062038  0.20719437  0.19431885  1
  O  O21  1  0.51100286  0.20696836  0.19424045  1
  O  O22  1  0.09051342  0.97749140  0.19737243  1
  O  O23  1  0.59037695  0.97883169  0.19742293  1
  O  O24  1  0.44619856  0.34828446  0.63347386  1
  O  O25  1  0.94233265  0.33941297  0.63702009  1
  O  O26  1  0.22718920  0.11699924  0.63371833  1
  O  O27  1  0.73580687  0.12604408  0.63062428  1
  O  O28  1  0.32679908  0.54378652  0.63849215  1
  O  O29  1  0.82778933  0.53867299  0.63560099  1
  O  O30  1  0.44256350  0.54587968  0.13688273  1
  O  O31  1  0.94008409  0.54078727  0.13316890  1
  O  O32  1  0.33020621  0.11460572  0.13683030  1
  O  O33  1  0.82993926  0.11385557  0.13661219  1
  O  O34  1  0.22648768  0.33836918  0.13696103  1
  O  O35  1  0.72926470  0.33930539  0.13345983  1
  O  O36  1  0.21310889  0.29436615  0.03624974  1
  O  O37  1  0.71058805  0.29596577  0.03288738  1
  O  O38  1  0.43442670  0.57375136  0.03624778  1
  O  O39  1  0.93738571  0.57880249  0.03255386  1
  O  O40  1  0.35183287  0.13167321  0.03612596  1
  O  O41  1  0.85298990  0.12790044  0.03623936  1
  O  O42  1  0.20893449  0.12197491  0.53276476  1
  O  O43  1  0.72437451  0.13562415  0.52972318  1
  O  O44  1  0.33790532  0.54392993  0.53697838  1
  O  O45  1  0.85354918  0.57350819  0.53560988  1
  O  O46  1  0.43778512  0.31908764  0.53266963  1
  O  O47  1  0.93548262  0.29402161  0.53628341  1
  O  O48  1  0.27111225  0.67684505  0.96352657  1
  O  O49  1  0.77634408  0.68338432  0.96815924  1
  O  O50  1  0.06599841  0.45452266  0.96814725  1
  O  O51  1  0.57005432  0.45324009  0.96716071  1
  O  O52  1  0.15489788  0.85925071  0.96695167  1
  O  O53  1  0.66120336  0.87538505  0.96740898  1
  O  O54  1  0.27223800  0.86707675  0.46775648  1
  O  O55  1  0.77410751  0.86890622  0.46722839  1
  O  O56  1  0.15909768  0.44497818  0.46663314  1
  O  O57  1  0.66077356  0.44079343  0.47102010  1
  O  O58  1  0.06920617  0.68519957  0.46646277  1
  O  O59  1  0.56867092  0.68720255  0.46553515  1
  O  O60  1  0.06037676  0.65277037  0.36535683  1
  O  O61  1  0.55957399  0.65190789  0.36480047  1
  O  O62  1  0.26317847  0.88185134  0.36674891  1
  O  O63  1  0.76353308  0.88216375  0.36649603  1
  O  O64  1  0.17416624  0.45936698  0.36568397  1
  O  O65  1  0.67488447  0.46599797  0.36960680  1
  O  O66  1  0.05658150  0.47027020  0.86719042  1
  O  O67  1  0.55909236  0.46727313  0.86653110  1
  O  O68  1  0.17347165  0.88472381  0.86626972  1
  O  O69  1  0.67652268  0.89102300  0.86629813  1
  O  O70  1  0.27093802  0.64914908  0.86194082  1
  O  O71  1  0.76621891  0.64398967  0.86767636  1
  O  O72  1  0.01544087  0.82874001  0.41323225  1
  O  O73  1  0.51420677  0.82803690  0.41226103  1
  O  O74  1  0.39927270  0.98936590  0.41406065  1
  O  O75  1  0.90026209  0.99016215  0.41333045  1
  O  O76  1  0.09171268  0.18845185  0.41377732  1
  O  O77  1  0.59283322  0.19042709  0.41449433  1
  O  O78  1  0.00389371  0.19904454  0.91459573  1
  O  O79  1  0.51502355  0.20179028  0.91390160  1
  O  O80  1  0.08557210  0.97289523  0.91432076  1
  O  O81  1  0.59263574  0.99457347  0.91396240  1
  O  O82  1  0.40144010  0.81671860  0.91400699  1
  O  O83  1  0.90413051  0.80868456  0.91337965  1
  O  O84  1  0.49795784  0.18210598  0.58502443  1
  O  O85  1  0.99134991  0.16058229  0.59281692  1
  O  O86  1  0.08765450  0.01466415  0.59191772  1
  O  O87  1  0.60121756  0.03178078  0.58553583  1
  O  O88  1  0.40928582  0.80504960  0.58597477  1
  O  O89  1  0.91535963  0.81892218  0.59335818  1
  O  O90  1  0.49145979  0.82167713  0.09245946  1
  O  O91  1  0.99153054  0.82082469  0.09194798  1
  O  O92  1  0.41948703  0.01809784  0.09198856  1
  O  O93  1  0.91918290  0.01547529  0.09289742  1
  O  O94  1  0.08901533  0.16052475  0.09232076  1
  O  O95  1  0.58978121  0.16210834  0.09218966  1
  O  O96  1  0.33540155  0.14307602  0.74645866  1
  O  O97  1  0.84832836  0.15163808  0.74258972  1
  O  O98  1  0.23179230  0.31640939  0.74083229  1
  O  O99  1  0.73657687  0.31763135  0.74878245  1
  O  O100  1  0.41850702  0.52992231  0.74672778  1
  O  O101  1  0.92484056  0.54613924  0.74207885  1
  O  O102  1  0.34672733  0.54272229  0.24169662  1
  O  O103  1  0.84706531  0.54334264  0.24127789  1
  O  O104  1  0.42508363  0.30702103  0.24150251  1
  O  O105  1  0.92490186  0.30756614  0.24160014  1
  O  O106  1  0.22766081  0.15041640  0.24242179  1
  O  O107  1  0.72754223  0.15103654  0.24233553  1
  O  O108  1  0.32505261  0.51009405  0.91926962  1
  O  O109  1  0.82282619  0.50585915  0.92236120  1
  O  O110  1  0.43256645  0.34436295  0.92176611  1
  O  O111  1  0.93262069  0.36446688  0.92179431  1
  O  O112  1  0.23950339  0.13532376  0.92228695  1
  O  O113  1  0.74329335  0.14697691  0.92010964  1
  O  O114  1  0.31720795  0.13281295  0.42055149  1
  O  O115  1  0.81861650  0.13433449  0.41984559  1
  O  O116  1  0.24227073  0.33938500  0.41912979  1
  O  O117  1  0.74377088  0.34146379  0.42038593  1
  O  O118  1  0.43233618  0.52049742  0.41901344  1
  O  O119  1  0.93339161  0.52131329  0.41926805  1
  O  O120  1  0.16392810  0.46741511  0.08271441  1
  O  O121  1  0.66424952  0.46930635  0.08201174  1
  O  O122  1  0.07020266  0.67132744  0.08173120  1
  O  O123  1  0.56983269  0.67181668  0.08277539  1
  O  O124  1  0.26629952  0.86036444  0.08264132  1
  O  O125  1  0.76582720  0.85825446  0.08289329  1
  O  O126  1  0.16245545  0.85685893  0.58233816  1
  O  O127  1  0.67235550  0.86667449  0.57929801  1
  O  O128  1  0.25639191  0.65326038  0.58315424  1
  O  O129  1  0.76127199  0.65649174  0.58129940  1
  O  O130  1  0.06961593  0.46796162  0.58319183  1
  O  O131  1  0.57395694  0.48331506  0.58033715  1
  O  O132  1  0.15203730  0.84420885  0.24890437  1
  O  O133  1  0.65196027  0.84487119  0.24883083  1
  O  O134  1  0.27026331  0.69574859  0.24797864  1
  O  O135  1  0.77053185  0.69626459  0.24781829  1
  O  O136  1  0.07768201  0.46005900  0.24773919  1
  O  O137  1  0.57800544  0.45976274  0.24753054  1
  O  O138  1  0.15590776  0.46595515  0.74857401  1
  O  O139  1  0.66059134  0.47295577  0.75231770  1
  O  O140  1  0.07741263  0.69673291  0.74851206  1
  O  O141  1  0.57275868  0.67459035  0.75304699  1
  O  O142  1  0.26526067  0.83500020  0.75287976  1
  O  O143  1  0.77073372  0.84601472  0.74795368  1
loop_
_geom_bond_atom_site_label_1
_geom_bond_atom_site_label_2
_geom_bond_distance
_geom_bond_site_symmetry_2
Na0 O100 2.462167 1_555
Na0 O142 2.467247 1_555
Na0 O98 2.592428 1_555
Na0 O138 2.633969 1_555
Na0 O28 2.826787 1_555
Na0 O70 2.880598 1_555
Na0 O12 2.953823 1_555
Na0 O8 2.953884 1_555
Na1 O131 2.430589 1_555
Na1 O87 2.432126 1_555
Na1 O84 2.434138 1_555
Na1 O129 2.643422 1_555
Na1 O57 2.881459 1_555
Na1 O15 2.920178 1_555
Na2 O111 2.447169 1_555
Na2 O83 2.453744 1_555
Na2 O80 2.463022 1_655
Na2 O109 2.626199 1_555
Na2 O39 2.883784 1_556
Na2 O52 2.921081 1_655
Na2 O66 2.954252 1_655
Na2 O9 3.061662 1_555
Na3 O79 2.431479 1_555
Na3 O81 2.455280 1_545
Na3 O113 2.489654 1_555
Na3 O109 2.555333 1_555
Na3 O7 2.917208 1_555
Na3 O37 2.962251 1_556
Na3 O71 2.964266 1_555
Na3 O51 2.984993 1_555
Na4 O114 2.437239 1_555
Na4 O72 2.453006 1_545
Na4 O76 2.468495 1_555
Na4 O116 2.475631 1_555
Na4 O42 2.894341 1_555
Na4 O62 2.972750 1_545
Na4 O58 2.984112 1_545
Na4 O0 3.034807 1_555
Na5 O115 2.459361 1_555
Na5 O77 2.464696 1_555
Na5 O73 2.472891 1_545
Na5 O117 2.491068 1_555
Na5 O43 2.879916 1_555
Na5 O59 2.958888 1_545
Na5 O63 2.984715 1_545
Na5 O1 3.042461 1_555
Na6 O75 2.646408 1_545
Na6 O76 2.682511 1_655
Na6 O85 2.705365 1_555
Na6 O72 2.748666 1_645
Na6 O89 2.786618 1_545
Na6 O86 2.804230 1_655
Na7 O88 2.519224 1_555
Na7 O74 2.645418 1_555
Na7 O84 2.646248 1_565
Na7 O73 2.781502 1_555
Na7 O87 2.825608 1_565
Na7 O77 2.888496 1_565
Na8 O94 2.644689 1_555
Na8 O78 2.653225 1_554
Na8 O93 2.697410 1_455
Na8 O80 2.721983 1_544
Na8 O91 2.791522 1_445
Na8 O83 2.822744 1_444
Na9 O82 2.552025 1_555
Na9 O92 2.715078 1_566
Na9 O79 2.718399 1_565
Na9 O81 2.723657 1_555
Na9 O90 2.735490 1_556
Na9 O95 2.881209 1_566
Na10 O110 2.604332 1_555
Na10 O108 2.689285 1_555
Na10 O112 2.700414 1_555
Na10 O96 2.741879 1_555
Na10 O100 2.791150 1_555
Na11 O99 2.600078 1_555
Na11 O113 2.669582 1_555
Na11 O97 2.703313 1_555
Na11 O111 2.807843 1_555
Na11 O109 2.872644 1_555
Na11 O101 2.896186 1_555
Na12 O118 2.599541 1_555
Na12 O116 2.688793 1_555
Na12 O114 2.738584 1_555
Na12 O102 2.840708 1_555
Na12 O104 2.863593 1_555
Na12 O106 2.974757 1_555
Na13 O119 2.620588 1_555
Na13 O117 2.720408 1_555
Na13 O115 2.730333 1_555
Na13 O105 2.836869 1_555
Na13 O103 2.842590 1_555
Na13 O107 2.969478 1_555
Na14 O134 2.643105 1_555
Na14 O136 2.653188 1_555
Na14 O132 2.670040 1_555
Na14 O124 2.702461 1_555
Na14 O120 2.702609 1_555
Na14 O122 2.733295 1_555
Na15 O137 2.634914 1_555
Na15 O135 2.662685 1_555
Na15 O133 2.663645 1_555
Na15 O123 2.701151 1_555
Na15 O125 2.705211 1_555
Na15 O121 2.712101 1_555
Na16 O126 2.604450 1_555
Na16 O128 2.618539 1_555
Na16 O130 2.645395 1_555
Na16 O140 2.686073 1_555
Na16 O138 2.740707 1_555
Na16 O142 2.751960 1_555
Na17 O141 2.577593 1_555
Na17 O143 2.607384 1_555
Na17 O139 2.702878 1_555
Na17 O131 2.757588 1_555
Na17 O127 2.759965 1_555
Na17 O129 2.873895 1_555
Ca0 O3 2.231820 1_555
Ca0 O5 2.232093 1_565
Ca0 O75 2.282326 1_555
Ca0 O0 2.299684 1_665
Ca0 O76 2.318190 1_665
Ca0 O72 2.333349 1_655
Ca1 O4 2.228331 1_555
Ca1 O2 2.236821 1_545
Ca1 O74 2.288376 1_545
Ca1 O1 2.312587 1_555
Ca1 O73 2.314606 1_545
Ca1 O77 2.338690 1_555
Ca2 O11 2.231780 1_455
Ca2 O6 2.250058 1_555
Ca2 O78 2.290997 1_555
Ca2 O9 2.304098 1_445
Ca2 O80 2.314162 1_545
Ca2 O83 2.363094 1_445
Ca3 O8 2.248245 1_555
Ca3 O10 2.249028 1_565
Ca3 O82 2.308937 1_555
Ca3 O7 2.310900 1_565
Ca3 O79 2.342633 1_565
Ca3 O81 2.359489 1_555
Ca4 O17 2.238972 1_555
Ca4 O12 2.246072 1_555
Ca4 O88 2.310212 1_555
Ca4 O15 2.312014 1_565
Ca4 O84 2.349061 1_565
Ca4 O87 2.356575 1_565
Ca5 O24 2.239572 1_555
Ca5 O26 2.277721 1_555
Ca5 O96 2.314661 1_555
Ca5 O28 2.315997 1_555
Ca5 O100 2.334895 1_555
Ca5 O98 2.367444 1_555
Ca6 O27 2.248965 1_555
Ca6 O29 2.278983 1_555
Ca6 O25 2.287602 1_555
Ca6 O97 2.292062 1_555
Ca6 O99 2.301829 1_555
Ca6 O101 2.313428 1_555
Ca7 O32 2.265969 1_555
Ca7 O34 2.272495 1_555
Ca7 O30 2.277683 1_555
Ca7 O102 2.303587 1_555
Ca7 O104 2.308828 1_555
Ca7 O106 2.316459 1_555
Ca8 O35 2.273331 1_555
Ca8 O33 2.274065 1_555
Ca8 O31 2.284373 1_555
Ca8 O103 2.298569 1_555
Ca8 O105 2.306694 1_555
Ca8 O107 2.312902 1_555
Ca9 O108 2.330917 1_555
Ca9 O110 2.355008 1_555
Ca9 O112 2.355133 1_555
Ca9 O38 2.376389 1_556
Ca9 O36 2.384014 1_556
Ca9 O40 2.390317 1_556
Ca10 O41 2.287737 1_556
Ca10 O113 2.345967 1_555
Ca10 O111 2.347750 1_555
Ca10 O37 2.370599 1_556
Ca10 O39 2.401474 1_556
Ca10 O109 2.419420 1_555
Ca11 O44 2.220771 1_555
Ca11 O46 2.270733 1_555
Ca11 O118 2.350942 1_555
Ca11 O116 2.361846 1_555
Ca11 O114 2.362823 1_555
Ca11 O42 2.470112 1_555
Ca12 O119 2.297946 1_555
Ca12 O43 2.317656 1_555
Ca12 O47 2.318566 1_555
Ca12 O45 2.342364 1_555
Ca12 O115 2.363734 1_555
Ca12 O117 2.403661 1_555
Ca13 O48 2.240012 1_554
Ca13 O52 2.283020 1_554
Ca13 O50 2.291160 1_554
Ca13 O124 2.346518 1_555
Ca13 O120 2.365737 1_555
Ca13 O122 2.403976 1_555
Ca14 O51 2.260825 1_554
Ca14 O53 2.279312 1_554
Ca14 O49 2.316363 1_554
Ca14 O123 2.351811 1_555
Ca14 O125 2.365770 1_555
Ca14 O121 2.397263 1_555
Ca15 O56 2.271258 1_555
Ca15 O54 2.276879 1_555
Ca15 O58 2.289559 1_555
Ca15 O128 2.299135 1_555
Ca15 O130 2.365488 1_555
Ca15 O126 2.412654 1_555
Ca16 O55 2.232486 1_555
Ca16 O59 2.241388 1_555
Ca16 O131 2.315470 1_555
Ca16 O127 2.319672 1_555
Ca16 O57 2.327686 1_555
Ca16 O129 2.399882 1_555
Ca17 O60 2.286763 1_555
Ca17 O64 2.292423 1_555
Ca17 O62 2.293587 1_555
Ca17 O134 2.370485 1_555
Ca17 O136 2.374796 1_555
Ca17 O132 2.414812 1_555
Ca18 O61 2.284131 1_555
Ca18 O63 2.299728 1_555
Ca18 O65 2.305103 1_555
Ca18 O137 2.371703 1_555
Ca18 O135 2.379147 1_555
Ca18 O133 2.417071 1_555
Ca19 O68 2.248394 1_555
Ca19 O66 2.263953 1_555
Ca19 O142 2.303509 1_555
Ca19 O70 2.314799 1_555
Ca19 O140 2.409062 1_555
Ca19 O138 2.428397 1_555
Ca20 O67 2.280787 1_555
Ca20 O69 2.298617 1_555
Ca20 O141 2.314932 1_555
Ca20 O139 2.323143 1_555
Ca20 O71 2.324059 1_555
Ca20 O143 2.417318 1_555
O0 S0 1.477067 1_545
O1 S1 1.478285 1_545
O2 S2 1.466640 1_555
O3 S3 1.467007 1_555
O4 S5 1.466115 1_555
O5 S4 1.465213 1_655
O6 S6 1.467875 1_555
O7 S7 1.487767 1_555
O8 S9 1.484008 1_555
O9 S8 1.479783 1_655
O10 S10 1.473950 1_545
O11 S11 1.466656 1_545
O12 S10 1.484390 1_555
O13 S11 1.539500 1_555
O13 Sn0 2.078409 1_665
O14 S6 1.530258 1_555
O14 Sn0 2.103612 1_555
O15 S7 1.490995 1_555
O16 S8 1.542500 1_555
O16 Sn0 2.077379 1_565
O17 S9 1.476425 1_555
O18 S2 1.536399 1_555
O18 Sn2 2.085664 1_555
O19 S3 1.535810 1_555
O19 Sn1 2.082883 1_665
O20 S4 1.536907 1_555
O20 Sn1 2.083380 1_555
O21 S5 1.535939 1_555
O21 Sn2 2.082003 1_545
O22 S0 1.538886 1_555
O22 Sn1 2.080133 1_565
O23 S1 1.535897 1_555
O23 Sn2 2.091903 1_555
O24 S12 1.473134 1_555
O25 S13 1.465674 1_555
O26 S14 1.464658 1_555
O27 S15 1.480683 1_555
O28 S16 1.494135 1_555
O29 S17 1.468205 1_555
O30 S18 1.466334 1_555
O31 S19 1.464802 1_555
O32 S20 1.466953 1_555
O33 S21 1.464154 1_555
O34 S22 1.466380 1_555
O35 S23 1.463904 1_555
O36 S22 1.476358 1_555
O37 S23 1.493894 1_555
O38 S18 1.477833 1_555
O39 S19 1.495834 1_555
O40 S20 1.476750 1_555
O41 S21 1.480962 1_555
O42 S14 1.485135 1_555
O43 S15 1.500347 1_555
O44 S16 1.481612 1_555
O45 S17 1.472801 1_555
O46 S12 1.472664 1_555
O47 S13 1.475196 1_555
O48 S24 1.481624 1_555
O49 S25 1.469985 1_555
O50 S26 1.473396 1_555
O51 S27 1.492002 1_555
O52 S28 1.486834 1_555
O53 S29 1.474972 1_555
O54 S30 1.473563 1_555
O55 S31 1.474050 1_555
O56 S32 1.469442 1_555
O57 S33 1.482545 1_555
O58 S34 1.485494 1_555
O59 S35 1.485554 1_555
O60 S34 1.476064 1_555
O61 S35 1.479995 1_555
O62 S30 1.488939 1_555
O63 S31 1.487288 1_555
O64 S32 1.469112 1_555
O65 S33 1.472522 1_555
O66 S26 1.483787 1_555
O67 S27 1.479037 1_555
O68 S28 1.478304 1_555
O69 S29 1.472900 1_555
O70 S24 1.496360 1_555
O71 S25 1.475886 1_555
O72 S34 1.509381 1_555
O73 S35 1.508031 1_555
O74 S30 1.486490 1_555
O75 S31 1.484864 1_555
O76 S32 1.512961 1_555
O77 S33 1.507314 1_555
O78 S26 1.490175 1_555
O79 S27 1.505401 1_555
O80 S28 1.514619 1_555
O81 S29 1.500896 1_555
O82 S24 1.491119 1_555
O83 S25 1.503213 1_555
O84 S12 1.501122 1_555
O85 S13 1.555349 1_555
O85 Sn0 2.105481 1_655
O86 S14 1.557311 1_555
O86 Sn0 2.111826 1_555
O87 S15 1.499500 1_555
O88 S16 1.489046 1_555
O89 S17 1.531847 1_555
O89 Sn0 2.153927 1_665
O90 S18 1.551131 1_555
O90 Sn2 2.111758 1_555
O91 S19 1.544225 1_555
O91 Sn1 2.132516 1_665
O92 S20 1.550900 1_555
O92 Sn2 2.122249 1_545
O93 S21 1.542477 1_555
O93 Sn1 2.120885 1_655
O94 S22 1.555402 1_555
O94 Sn1 2.115867 1_555
O95 S23 1.539707 1_555
O95 Sn2 2.130004 1_545
O96 S10 1.484036 1_545
O97 S11 1.478371 1_545
O98 S6 1.476024 1_555
O99 S7 1.497907 1_555
O100 S9 1.507497 1_555
O101 S8 1.471802 1_655
O102 S2 1.478761 1_555
O103 S3 1.478977 1_555
O104 S5 1.476987 1_555
O105 S4 1.478067 1_655
O106 S0 1.475409 1_545
O107 S1 1.478240 1_545
O108 S24 1.494289 1_555
O109 S25 1.516082 1_555
O110 S27 1.482531 1_555
O111 S26 1.508042 1_655
O112 S28 1.477668 1_545
O113 S29 1.515196 1_545
O114 S30 1.507437 1_545
O115 S31 1.506361 1_545
O116 S32 1.508690 1_555
O117 S33 1.506527 1_555
O118 S35 1.481482 1_555
O119 S34 1.484884 1_655
O120 S22 1.479899 1_555
O121 S23 1.479024 1_555
O122 S19 1.475455 1_455
O123 S18 1.481476 1_555
O124 S20 1.481870 1_565
O125 S21 1.481554 1_565
O126 S14 1.476870 1_565
O127 S15 1.476544 1_565
O128 S16 1.491030 1_555
O129 S17 1.496232 1_555
O130 S13 1.476500 1_455
O131 S12 1.507015 1_555
O132 S0 1.481296 1_555
O133 S1 1.482137 1_555
O134 S2 1.481380 1_555
O135 S3 1.480963 1_555
O136 S4 1.482412 1_555
O137 S5 1.483072 1_555
O138 S6 1.493117 1_555
O139 S7 1.489463 1_555
O140 S8 1.477846 1_555
O141 S9 1.482669 1_555
O142 S10 1.507578 1_555
O143 S11 1.476617 1_555
