# generated using pymatgen
data_CaAl2Si3O13
_symmetry_space_group_name_H-M   'P 1'
_cell_length_a   9.86379111
_cell_length_b   9.86379111
_cell_length_c   9.47307291
_cell_angle_alpha   84.71736636
_cell_angle_beta   84.71736636
_cell_angle_gamma   140.50434218
_symmetry_Int_Tables_number   1
_chemical_formula_structural   CaAl2Si3O13
_chemical_formula_sum   'Ca2 Al4 Si6 O26'
_cell_volume   564.02199922
_cell_formula_units_Z   2
loop_
 _symmetry_equiv_pos_site_id
 _symmetry_equiv_pos_as_xyz
  1  'x, y, z'
loop_
 _atom_site_type_symbol
 _atom_site_label
 _atom_site_symmetry_multiplicity
 _atom_site_fract_x
 _atom_site_fract_y
 _atom_site_fract_z
 _atom_site_occupancy
  Ca  Ca0  1  0.12024409  0.96900204  0.44779691  1
  Ca  Ca1  1  0.96900204  0.12024409  0.94779691  1
  Al  Al0  1  0.18678116  0.63163887  0.40617102  1
  Al  Al1  1  0.63163887  0.18678116  0.90617102  1
  Al  Al2  1  0.37875602  0.31805428  0.05271452  1
  Al  Al3  1  0.31805428  0.37875602  0.55271452  1
  Si  Si0  1  0.65889857  0.90452608  0.46980773  1
  Si  Si1  1  0.90452608  0.65889857  0.96980773  1
  Si  Si2  1  0.12507891  0.31147578  0.27541254  1
  Si  Si3  1  0.31147578  0.12507891  0.77541254  1
  Si  Si4  1  0.23721234  0.90751010  0.16864430  1
  Si  Si5  1  0.90751010  0.23721234  0.66864430  1
  O  O0  1  0.43174572  0.97826719  0.06756052  1
  O  O1  1  0.97826719  0.43174572  0.56756052  1
  O  O2  1  0.16546480  0.78843741  0.34120312  1
  O  O3  1  0.78843741  0.16546480  0.84120312  1
  O  O4  1  0.30177091  0.11762566  0.18467037  1
  O  O5  1  0.11762566  0.30177091  0.68467037  1
  O  O6  1  0.67652215  0.58408581  0.01238457  1
  O  O7  1  0.58408581  0.67652215  0.51238457  1
  O  O8  1  0.20808093  0.32172399  0.11154474  1
  O  O9  1  0.32172399  0.20808093  0.61154474  1
  O  O10  1  0.23264600  0.29832562  0.39090713  1
  O  O11  1  0.29832562  0.23264600  0.89090713  1
  O  O12  1  0.85671188  0.06599738  0.31945117  1
  O  O13  1  0.06599738  0.85671188  0.81945117  1
  O  O14  1  0.16914386  0.50456691  0.27760873  1
  O  O15  1  0.50456691  0.16914386  0.77760873  1
  O  O16  1  0.01508752  0.74201293  0.10627688  1
  O  O17  1  0.74201293  0.01508752  0.60627688  1
  O  O18  1  0.43744483  0.80010163  0.45169588  1
  O  O19  1  0.80010163  0.43744483  0.95169588  1
  O  O20  1  0.60543345  0.27585971  0.39556307  1
  O  O21  1  0.27585971  0.60543345  0.89556307  1
  O  O22  1  0.72856067  0.76666464  0.03124084  1
  O  O23  1  0.76666464  0.72856067  0.53124084  1
  O  O24  1  0.71038895  0.27814920  0.31134496  1
  O  O25  1  0.27814920  0.71038895  0.81134496  1
loop_
_geom_bond_atom_site_label_1
_geom_bond_atom_site_label_2
_geom_bond_distance
_geom_bond_site_symmetry_2
Ca0 O23 2.189657 1_455
Ca0 O2 2.421787 1_555
Ca0 O9 2.434166 1_565
Ca0 O4 2.454069 1_565
Ca0 O10 2.465946 1_565
Ca0 O20 3.040080 1_565
Ca1 O22 2.189657 1_546
Ca1 O3 2.421787 1_555
Ca1 O8 2.434166 1_656
Ca1 O5 2.454069 1_655
Ca1 O11 2.465946 1_655
Ca1 O21 3.040080 1_655
Al0 O18 1.745814 1_555
Al0 O1 1.749972 1_455
Al0 O14 1.751600 1_555
Al0 O2 1.779180 1_555
Al1 O19 1.745814 1_555
Al1 O0 1.749972 1_546
Al1 O15 1.751600 1_555
Al1 O3 1.779180 1_555
Al2 O8 1.752450 1_555
Al2 O4 1.760931 1_555
Al2 O11 1.766023 1_554
Al2 O6 1.836366 1_555
Al3 O9 1.752450 1_555
Al3 O5 1.760931 1_555
Al3 O10 1.766023 1_555
Al3 O7 1.836366 1_555
O0 Si4 1.599285 1_555
O1 Si5 1.599285 1_555
O2 Si4 1.644095 1_555
O3 Si5 1.644095 1_555
O4 Si4 1.662176 1_545
O5 Si5 1.662176 1_455
O6 Si1 1.726838 1_554
O7 Si0 1.726838 1_555
O8 Si2 1.643046 1_555
O9 Si3 1.643046 1_555
O10 Si2 1.655187 1_555
O11 Si3 1.655187 1_555
O12 Si0 1.626932 1_545
O12 Si2 1.662115 1_655
O13 Si1 1.626932 1_455
O13 Si3 1.662115 1_565
O14 Si2 1.596315 1_555
O15 Si3 1.596315 1_555
O16 Si1 1.614814 1_454
O16 Si4 1.646296 1_555
O17 Si0 1.614814 1_545
O17 Si5 1.646296 1_555
O18 Si0 1.578281 1_555
O19 Si1 1.578281 1_555
O20 O24 1.231778 1_555
O21 O25 1.231778 1_555
O22 O6 1.479234 1_555
O23 O7 1.479234 1_555
