# generated using pymatgen
data_MgFe2(CoO3)4
_symmetry_space_group_name_H-M   'P 1'
_cell_length_a   5.00219592
_cell_length_b   5.00615578
_cell_length_c   9.93334793
_cell_angle_alpha   82.67082552
_cell_angle_beta   86.75204574
_cell_angle_gamma   60.08519082
_symmetry_Int_Tables_number   1
_chemical_formula_structural   MgFe2(CoO3)4
_chemical_formula_sum   'Mg1 Fe2 Co4 O12'
_cell_volume   213.83871497
_cell_formula_units_Z   1
loop_
 _symmetry_equiv_pos_site_id
 _symmetry_equiv_pos_as_xyz
  1  'x, y, z'
loop_
 _atom_site_type_symbol
 _atom_site_label
 _atom_site_symmetry_multiplicity
 _atom_site_fract_x
 _atom_site_fract_y
 _atom_site_fract_z
 _atom_site_occupancy
  Mg  Mg0  1  0.32246807  0.92091435  0.24690386  1
  Fe  Fe0  1  0.98686068  0.99640204  0.98136292  1
  Fe  Fe1  1  0.99526623  0.51671423  0.50017549  1
  Co  Co0  1  0.32409448  0.32414878  0.99931005  1
  Co  Co1  1  0.32924699  0.84579465  0.51595511  1
  Co  Co2  1  0.66213671  0.18429433  0.49784768  1
  Co  Co3  1  0.65783330  0.65811365  0.99889398  1
  O  O0  1  0.98696623  0.14663290  0.60020005  1
  O  O1  1  0.00944517  0.29199940  0.10200632  1
  O  O2  1  0.98640672  0.65843291  0.90158691  1
  O  O3  1  0.35258222  0.01796187  0.89928284  1
  O  O4  1  0.01055510  0.88947509  0.39747569  1
  O  O5  1  0.33899886  0.18121125  0.39820541  1
  O  O6  1  0.35140076  0.48093350  0.59933877  1
  O  O7  1  0.33558811  0.63769138  0.10121389  1
  O  O8  1  0.63686247  0.96313889  0.10422115  1
  O  O9  1  0.62876958  0.37430472  0.90184920  1
  O  O10  1  0.63114239  0.56025193  0.39795713  1
  O  O11  1  0.65337592  0.84533413  0.59926953  1
loop_
_geom_bond_atom_site_label_1
_geom_bond_atom_site_label_2
_geom_bond_distance
_geom_bond_site_symmetry_2
Mg0 O7 2.128129 1_555
Mg0 O8 2.128216 1_555
Mg0 O5 2.141240 1_565
Mg0 O4 2.148640 1_555
Mg0 O1 2.155532 1_565
Mg0 O10 2.164740 1_555
Fe0 O9 1.952053 1_565
Fe0 O2 1.958750 1_555
Fe0 O3 2.007145 1_665
Fe0 O7 2.061661 1_656
Fe0 O1 2.067192 1_666
Fe0 O8 2.139878 1_556
Fe1 O6 2.002868 1_655
Fe1 O11 2.004071 1_555
Fe1 O0 2.005930 1_555
Fe1 O10 2.037936 1_555
Fe1 O5 2.039512 1_655
Fe1 O4 2.043693 1_655
Co0 O9 1.864262 1_555
Co0 O3 1.873970 1_555
Co0 O2 1.883604 1_455
Co0 O1 1.890148 1_556
Co0 O8 1.919367 1_546
Co0 O7 1.998428 1_556
Co1 O6 1.859335 1_555
Co1 O11 1.860522 1_555
Co1 O0 1.867404 1_465
Co1 O5 1.940137 1_565
Co1 O10 1.942045 1_555
Co1 O4 1.942546 1_555
Co2 O11 1.878648 1_545
Co2 O6 1.881431 1_555
Co2 O0 1.882055 1_555
Co2 O10 1.949566 1_555
Co2 O5 1.950057 1_555
Co2 O4 1.955198 1_645
Co3 O2 1.859538 1_555
Co3 O3 1.878461 1_565
Co3 O9 1.881593 1_555
Co3 O7 1.895791 1_556
Co3 O8 1.916455 1_556
Co3 O1 2.002915 1_656
