# generated using pymatgen
data_MgTiV4FeO12
_symmetry_space_group_name_H-M   'P 1'
_cell_length_a   6.90595374
_cell_length_b   6.90750936
_cell_length_c   5.81393253
_cell_angle_alpha   73.67499581
_cell_angle_beta   106.31324392
_cell_angle_gamma   103.16391102
_symmetry_Int_Tables_number   1
_chemical_formula_structural   MgTiV4FeO12
_chemical_formula_sum   'Mg1 Ti1 V4 Fe1 O12'
_cell_volume   252.08963561
_cell_formula_units_Z   1
loop_
 _symmetry_equiv_pos_site_id
 _symmetry_equiv_pos_as_xyz
  1  'x, y, z'
loop_
 _atom_site_type_symbol
 _atom_site_label
 _atom_site_symmetry_multiplicity
 _atom_site_fract_x
 _atom_site_fract_y
 _atom_site_fract_z
 _atom_site_occupancy
  Mg  Mg0  1  0.29180291  0.29121607  0.24994796  1
  Ti  Ti0  1  0.91591411  0.91541069  0.25008794  1
  V  V0  1  0.18449145  0.62312303  0.71088629  1
  V  V1  1  0.38088788  0.82721837  0.18765904  1
  V  V2  1  0.62362639  0.18420097  0.78905277  1
  V  V3  1  0.82789066  0.38059316  0.31225767  1
  Fe  Fe0  1  0.09186344  0.09133902  0.75002360  1
  O  O0  1  0.03824367  0.81957311  0.62032656  1
  O  O1  1  0.01791246  0.39696945  0.67938663  1
  O  O2  1  0.20251007  0.02527939  0.14035877  1
  O  O3  1  0.35094404  0.66220483  0.52625016  1
  O  O4  1  0.39749549  0.01748663  0.82050336  1
  O  O5  1  0.30217782  0.58200078  0.03937644  1
  O  O6  1  0.66253966  0.35045462  0.97386027  1
  O  O7  1  0.66302658  0.91547682  0.28334759  1
  O  O8  1  0.58261197  0.30189902  0.46056911  1
  O  O9  1  0.82008629  0.03796690  0.87987673  1
  O  O10  1  0.91659462  0.66267602  0.21670265  1
  O  O11  1  0.02567751  0.20194713  0.35952646  1
loop_
_geom_bond_atom_site_label_1
_geom_bond_atom_site_label_2
_geom_bond_distance
_geom_bond_site_symmetry_2
Mg0 O2 2.020381 1_555
Mg0 O11 2.021024 1_555
Mg0 O5 2.034630 1_555
Mg0 O8 2.034700 1_555
Fe0 O2 2.131828 1_556
Fe0 O11 2.132602 1_555
Fe0 O0 2.133536 1_545
Fe0 O9 2.133763 1_455
Fe0 O4 2.184070 1_555
Fe0 O1 2.184550 1_555
O0 V0 1.750007 1_555
O0 Ti0 2.053641 1_455
O1 V0 1.738164 1_555
O1 V3 2.187553 1_455
O2 V1 1.957206 1_545
O2 Ti0 2.157140 1_445
O3 V0 1.713341 1_555
O3 V1 2.019177 1_555
O4 V2 1.738175 1_555
O4 V1 2.188332 1_546
O5 V0 1.821219 1_554
O5 V1 2.011491 1_555
O6 V2 1.713590 1_555
O6 V3 2.019385 1_556
O7 Ti0 1.810397 1_555
O7 V1 1.875701 1_555
O8 V2 1.821156 1_555
O8 V3 2.011437 1_555
O9 V2 1.749800 1_555
O9 Ti0 2.053777 1_546
O10 Ti0 1.811116 1_555
O10 V3 1.876031 1_555
O11 V3 1.957083 1_455
O11 Ti0 2.156510 1_445
