# generated using pymatgen
data_Zr2Te
_symmetry_space_group_name_H-M   'P 1'
_cell_length_a   3.86287968
_cell_length_b   10.72595291
_cell_length_c   20.03551192
_cell_angle_alpha   90.00000000
_cell_angle_beta   90.00000000
_cell_angle_gamma   90.00000000
_symmetry_Int_Tables_number   1
_chemical_formula_structural   Zr2Te
_chemical_formula_sum   'Zr24 Te12'
_cell_volume   830.13267860
_cell_formula_units_Z   12
loop_
 _symmetry_equiv_pos_site_id
 _symmetry_equiv_pos_as_xyz
  1  'x, y, z'
loop_
 _atom_site_type_symbol
 _atom_site_label
 _atom_site_symmetry_multiplicity
 _atom_site_fract_x
 _atom_site_fract_y
 _atom_site_fract_z
 _atom_site_occupancy
  Zr  Zr0  1  0.25000000  0.60868991  0.98471432  1
  Zr  Zr1  1  0.75000000  0.39131009  0.01528568  1
  Zr  Zr2  1  0.75000000  0.10868991  0.51528568  1
  Zr  Zr3  1  0.25000000  0.89131009  0.48471432  1
  Zr  Zr4  1  0.25000000  0.07781719  0.64546164  1
  Zr  Zr5  1  0.75000000  0.92218281  0.35453836  1
  Zr  Zr6  1  0.75000000  0.57781719  0.85453836  1
  Zr  Zr7  1  0.25000000  0.42218281  0.14546164  1
  Zr  Zr8  1  0.25000000  0.38919673  0.53270853  1
  Zr  Zr9  1  0.75000000  0.61080327  0.46729147  1
  Zr  Zr10  1  0.75000000  0.88919673  0.96729147  1
  Zr  Zr11  1  0.25000000  0.11080327  0.03270853  1
  Zr  Zr12  1  0.25000000  0.14716013  0.39538650  1
  Zr  Zr13  1  0.75000000  0.85284087  0.60461350  1
  Zr  Zr14  1  0.75000000  0.64715913  0.10461350  1
  Zr  Zr15  1  0.25000000  0.35283987  0.89538650  1
  Zr  Zr16  1  0.25000000  0.45855044  0.34174591  1
  Zr  Zr17  1  0.75000000  0.54144956  0.65825409  1
  Zr  Zr18  1  0.75000000  0.95855044  0.15825409  1
  Zr  Zr19  1  0.25000000  0.04144956  0.84174591  1
  Zr  Zr20  1  0.25000000  0.75210847  0.22426504  1
  Zr  Zr21  1  0.75000000  0.24789153  0.77573496  1
  Zr  Zr22  1  0.75000000  0.25210847  0.27573496  1
  Zr  Zr23  1  0.25000000  0.74789153  0.72426504  1
  Te  Te0  1  0.25000000  0.46311368  0.76021517  1
  Te  Te1  1  0.75000000  0.53688632  0.23978483  1
  Te  Te2  1  0.75000000  0.96311368  0.73978483  1
  Te  Te3  1  0.25000000  0.03688632  0.26021517  1
  Te  Te4  1  0.25000000  0.77996744  0.86951263  1
  Te  Te5  1  0.75000000  0.22003256  0.13048737  1
  Te  Te6  1  0.75000000  0.27996744  0.63048737  1
  Te  Te7  1  0.25000000  0.72003256  0.36951263  1
  Te  Te8  1  0.25000000  0.66166986  0.57303663  1
  Te  Te9  1  0.75000000  0.33833014  0.42696337  1
  Te  Te10  1  0.75000000  0.16166986  0.92696337  1
  Te  Te11  1  0.25000000  0.83833014  0.07303663  1
loop_
_geom_bond_atom_site_label_1
_geom_bond_atom_site_label_2
_geom_bond_distance
_geom_bond_site_symmetry_2
Te0 Zr17 2.934220 1_555
Te0 Zr17 2.934220 1_455
Te0 Zr15 2.955248 1_555
Te0 Zr6 2.969091 1_455
Te0 Zr6 2.969091 1_555
Te0 Zr21 3.025913 1_455
Te0 Zr21 3.025913 1_555
Te0 Zr23 3.138289 1_555
Te1 Zr16 2.934220 1_555
Te1 Zr16 2.934220 1_655
Te1 Zr14 2.955243 1_555
Te1 Zr7 2.969091 1_655
Te1 Zr7 2.969091 1_555
Te1 Zr20 3.025913 1_555
Te1 Zr20 3.025913 1_655
Te1 Zr22 3.138289 1_555
Te2 Zr19 2.934220 1_565
Te2 Zr19 2.934220 1_665
Te2 Zr13 2.955243 1_555
Te2 Zr4 2.969091 1_665
Te2 Zr4 2.969091 1_565
Te2 Zr23 3.025913 1_555
Te2 Zr23 3.025913 1_655
Te2 Zr21 3.138289 1_565
Te3 Zr18 2.934220 1_445
Te3 Zr18 2.934220 1_545
Te3 Zr12 2.955248 1_555
Te3 Zr5 2.969091 1_545
Te3 Zr5 2.969091 1_445
Te3 Zr22 3.025913 1_455
Te3 Zr22 3.025913 1_555
Te3 Zr20 3.138289 1_545
Te4 Zr19 2.859288 1_565
Te4 Zr6 2.919212 1_455
Te4 Zr6 2.919212 1_555
Te4 Zr23 2.930376 1_555
Te4 Zr0 2.949988 1_555
Te4 Zr10 2.990143 1_555
Te4 Zr10 2.990143 1_455
Te5 Zr18 2.859288 1_545
Te5 Zr7 2.919212 1_655
Te5 Zr7 2.919212 1_555
Te5 Zr22 2.930376 1_555
Te5 Zr1 2.949988 1_555
Te5 Zr11 2.990143 1_555
Te5 Zr11 2.990143 1_655
Te6 Zr17 2.859288 1_555
Te6 Zr4 2.919212 1_655
Te6 Zr4 2.919212 1_555
Te6 Zr21 2.930376 1_555
Te6 Zr2 2.949988 1_555
Te6 Zr8 2.990143 1_555
Te6 Zr8 2.990143 1_655
Te7 Zr16 2.859288 1_555
Te7 Zr5 2.919212 1_455
Te7 Zr5 2.919212 1_555
Te7 Zr20 2.930376 1_555
Te7 Zr3 2.949988 1_555
Te7 Zr9 2.990143 1_455
Te7 Zr9 2.990143 1_555
Te8 Zr17 2.882420 1_555
Te8 Zr17 2.882420 1_455
Te8 Zr13 2.887080 1_455
Te8 Zr13 2.887080 1_555
Te8 Zr9 2.918363 1_455
Te8 Zr9 2.918363 1_555
Te8 Zr8 3.032171 1_555
Te8 Zr3 3.032876 1_555
Te8 Zr23 3.167933 1_555
Te9 Zr16 2.882420 1_555
Te9 Zr16 2.882420 1_655
Te9 Zr12 2.887072 1_655
Te9 Zr12 2.887072 1_555
Te9 Zr8 2.918363 1_655
Te9 Zr8 2.918363 1_555
Te9 Zr9 3.032171 1_555
Te9 Zr2 3.032876 1_555
Te9 Zr22 3.167933 1_555
Te10 Zr19 2.882420 1_555
Te10 Zr19 2.882420 1_655
Te10 Zr15 2.887072 1_555
Te10 Zr15 2.887072 1_655
Te10 Zr11 2.918363 1_556
Te10 Zr11 2.918363 1_656
Te10 Zr10 3.032171 1_545
Te10 Zr1 3.032876 1_556
Te10 Zr21 3.167933 1_555
Te11 Zr18 2.882420 1_555
Te11 Zr18 2.882420 1_455
Te11 Zr14 2.887080 1_455
Te11 Zr14 2.887080 1_555
Te11 Zr10 2.918363 1_454
Te11 Zr10 2.918363 1_554
Te11 Zr11 3.032171 1_565
Te11 Zr0 3.032876 1_554
Te11 Zr20 3.167933 1_555
