# generated using pymatgen
data_BaGe2O5
_symmetry_space_group_name_H-M   'P 1'
_cell_length_a   5.74273479
_cell_length_b   5.74273479
_cell_length_c   14.61231300
_cell_angle_alpha   90.00000000
_cell_angle_beta   90.00000000
_cell_angle_gamma   121.44549764
_symmetry_Int_Tables_number   1
_chemical_formula_structural   BaGe2O5
_chemical_formula_sum   'Ba4 Ge8 O20'
_cell_volume   411.12620946
_cell_formula_units_Z   4
loop_
 _symmetry_equiv_pos_site_id
 _symmetry_equiv_pos_as_xyz
  1  'x, y, z'
loop_
 _atom_site_type_symbol
 _atom_site_label
 _atom_site_symmetry_multiplicity
 _atom_site_fract_x
 _atom_site_fract_y
 _atom_site_fract_z
 _atom_site_occupancy
  Ba  Ba0  1  0.16205700  0.83794300  0.58122900  1
  Ba  Ba1  1  0.83794300  0.16205700  0.41877100  1
  Ba  Ba2  1  0.33794300  0.66205700  0.08122900  1
  Ba  Ba3  1  0.66205700  0.33794300  0.91877100  1
  Ge  Ge0  1  0.49475700  0.50524300  0.64152600  1
  Ge  Ge1  1  0.50524300  0.49475700  0.35847400  1
  Ge  Ge2  1  0.00524300  0.99475700  0.14152600  1
  Ge  Ge3  1  0.99475700  0.00524300  0.85847400  1
  Ge  Ge4  1  0.82716800  0.17283200  0.68327100  1
  Ge  Ge5  1  0.17283200  0.82716800  0.31672900  1
  Ge  Ge6  1  0.67283200  0.32716800  0.18327100  1
  Ge  Ge7  1  0.32716800  0.67283200  0.81672900  1
  O  O0  1  0.33505900  0.15276000  0.40619500  1
  O  O1  1  0.15276000  0.33505900  0.59380500  1
  O  O2  1  0.16494100  0.34724000  0.90619500  1
  O  O3  1  0.34724000  0.16494100  0.09380500  1
  O  O4  1  0.66494100  0.84724000  0.59380500  1
  O  O5  1  0.84724000  0.66494100  0.40619500  1
  O  O6  1  0.83505900  0.65276000  0.09380500  1
  O  O7  1  0.65276000  0.83505900  0.90619500  1
  O  O8  1  0.00166900  0.49833100  0.75000000  1
  O  O9  1  0.49833100  0.00166900  0.25000000  1
  O  O10  1  0.99833100  0.50166900  0.25000000  1
  O  O11  1  0.50166900  0.99833100  0.75000000  1
  O  O12  1  0.49388500  0.50611500  0.76124500  1
  O  O13  1  0.50611500  0.49388500  0.23875500  1
  O  O14  1  0.00611500  0.99388500  0.26124500  1
  O  O15  1  0.99388500  0.00611500  0.73875500  1
  O  O16  1  0.16612300  0.83387700  0.89867500  1
  O  O17  1  0.83387700  0.16612300  0.10132500  1
  O  O18  1  0.33387700  0.66612300  0.39867500  1
  O  O19  1  0.66612300  0.33387700  0.60132500  1
loop_
_geom_bond_atom_site_label_1
_geom_bond_atom_site_label_2
_geom_bond_distance
_geom_bond_site_symmetry_2
Ba0 O19 2.824009 1_565
Ba0 O19 2.824009 1_455
Ba0 O15 2.852533 1_465
Ba0 O4 2.866336 1_555
Ba0 O1 2.866336 1_555
Ba0 O1 2.888869 1_565
Ba0 O4 2.888869 1_455
Ba0 O8 2.976506 1_555
Ba0 O11 2.976506 1_555
Ba0 O5 2.987156 1_455
Ba0 O0 2.987156 1_565
Ba0 O18 3.174714 1_555
Ba1 O18 2.824009 1_655
Ba1 O18 2.824009 1_545
Ba1 O14 2.852533 1_645
Ba1 O0 2.866336 1_555
Ba1 O5 2.866336 1_555
Ba1 O5 2.888869 1_545
Ba1 O0 2.888869 1_655
Ba1 O9 2.976506 1_555
Ba1 O10 2.976506 1_555
Ba1 O1 2.987156 1_655
Ba1 O4 2.987156 1_545
Ba1 O19 3.174714 1_555
Ba2 O17 2.824009 1_455
Ba2 O17 2.824009 1_565
Ba2 O13 2.852533 1_555
Ba2 O6 2.866336 1_455
Ba2 O3 2.866336 1_565
Ba2 O3 2.888869 1_555
Ba2 O6 2.888869 1_555
Ba2 O9 2.976506 1_565
Ba2 O10 2.976506 1_455
Ba2 O7 2.987156 1_554
Ba2 O2 2.987156 1_554
Ba2 O16 3.174714 1_554
Ba3 O16 2.824009 1_655
Ba3 O16 2.824009 1_545
Ba3 O12 2.852533 1_555
Ba3 O2 2.866336 1_655
Ba3 O7 2.866336 1_545
Ba3 O7 2.888869 1_555
Ba3 O2 2.888869 1_555
Ba3 O8 2.976506 1_655
Ba3 O11 2.976506 1_545
Ba3 O6 2.987156 1_556
Ba3 O3 2.987156 1_556
Ba3 O17 3.174714 1_556
Ge0 O12 1.749393 1_555
Ge0 O19 1.814523 1_555
Ge0 O1 1.815483 1_555
Ge0 O4 1.815483 1_555
Ge1 O13 1.749393 1_555
Ge1 O18 1.814523 1_555
Ge1 O5 1.815483 1_555
Ge1 O0 1.815483 1_555
Ge2 O14 1.749393 1_555
Ge2 O17 1.814523 1_465
Ge2 O3 1.815483 1_565
Ge2 O6 1.815483 1_455
Ge3 O15 1.749393 1_555
Ge3 O16 1.814523 1_645
Ge3 O7 1.815483 1_545
Ge3 O2 1.815483 1_655
Ge4 O15 1.856606 1_555
Ge4 O8 1.869396 1_655
Ge4 O11 1.869396 1_545
Ge4 O19 2.009203 1_555
Ge4 O4 2.062907 1_545
Ge4 O1 2.062907 1_655
Ge5 O14 1.856606 1_555
Ge5 O10 1.869396 1_455
Ge5 O9 1.869396 1_565
Ge5 O18 2.009203 1_555
Ge5 O5 2.062907 1_455
Ge5 O0 2.062907 1_565
Ge6 O13 1.856606 1_555
Ge6 O10 1.869396 1_555
Ge6 O9 1.869396 1_555
Ge6 O17 2.009203 1_555
Ge6 O6 2.062907 1_555
Ge6 O3 2.062907 1_555
Ge7 O12 1.856606 1_555
Ge7 O11 1.869396 1_555
Ge7 O8 1.869396 1_555
Ge7 O16 2.009203 1_555
Ge7 O7 2.062907 1_555
Ge7 O2 2.062907 1_555
