# generated using pymatgen
data_Pb(IO3)2
_symmetry_space_group_name_H-M   'P 1'
_cell_length_a   5.55944789
_cell_length_b   6.06716521
_cell_length_c   16.76739742
_cell_angle_alpha   90.00000000
_cell_angle_beta   90.00000000
_cell_angle_gamma   90.00000000
_symmetry_Int_Tables_number   1
_chemical_formula_structural   Pb(IO3)2
_chemical_formula_sum   'Pb4 I8 O24'
_cell_volume   565.56580434
_cell_formula_units_Z   4
loop_
 _symmetry_equiv_pos_site_id
 _symmetry_equiv_pos_as_xyz
  1  'x, y, z'
loop_
 _atom_site_type_symbol
 _atom_site_label
 _atom_site_symmetry_multiplicity
 _atom_site_fract_x
 _atom_site_fract_y
 _atom_site_fract_z
 _atom_site_occupancy
  Pb  Pb0  1  0.75705237  0.25000000  0.50000000  1
  Pb  Pb1  1  0.74294763  0.75000000  -0.00000000  1
  Pb  Pb2  1  0.24294763  0.75000000  0.50000000  1
  Pb  Pb3  1  0.25705237  0.25000000  -0.00000000  1
  I  I0  1  0.75549495  0.70130961  0.33778343  1
  I  I1  1  0.75549495  0.79869039  0.66221657  1
  I  I2  1  0.74450505  0.20130961  0.16221657  1
  I  I3  1  0.74450505  0.29869039  0.83778343  1
  I  I4  1  0.24450505  0.29869039  0.66221657  1
  I  I5  1  0.24450505  0.20130961  0.33778343  1
  I  I6  1  0.25549495  0.79869039  0.83778343  1
  I  I7  1  0.25549495  0.70130961  0.16221657  1
  O  O0  1  0.59285290  0.92485357  0.38714590  1
  O  O1  1  0.59285290  0.57514643  0.61285410  1
  O  O2  1  0.90714710  0.42485357  0.11285410  1
  O  O3  1  0.90714710  0.07514643  0.88714590  1
  O  O4  1  0.40714710  0.07514643  0.61285410  1
  O  O5  1  0.40714710  0.42485357  0.38714590  1
  O  O6  1  0.09285290  0.57514643  0.88714590  1
  O  O7  1  0.09285290  0.92485357  0.11285410  1
  O  O8  1  0.00238525  0.85137664  0.29184761  1
  O  O9  1  0.00238525  0.64862336  0.70815239  1
  O  O10  1  0.49761475  0.35137664  0.20815239  1
  O  O11  1  0.49761475  0.14862336  0.79184761  1
  O  O12  1  0.39777215  0.60292678  0.06996619  1
  O  O13  1  0.39777215  0.89707322  0.93003381  1
  O  O14  1  0.10222785  0.10292678  0.43003381  1
  O  O15  1  0.10222785  0.39707322  0.56996619  1
  O  O16  1  0.60222785  0.39707322  0.93003381  1
  O  O17  1  0.60222785  0.10292678  0.06996619  1
  O  O18  1  0.89777215  0.89707322  0.56996619  1
  O  O19  1  0.89777215  0.60292678  0.43003381  1
  O  O20  1  0.50238525  0.85137664  0.20815239  1
  O  O21  1  0.50238525  0.64862336  0.79184761  1
  O  O22  1  0.99761475  0.35137664  0.29184761  1
  O  O23  1  0.99761475  0.14862336  0.70815239  1
loop_
_geom_bond_atom_site_label_1
_geom_bond_atom_site_label_2
_geom_bond_distance
_geom_bond_site_symmetry_2
I0 O8 1.818291 1_655
I0 O0 1.828147 1_555
I0 O19 1.836991 1_555
I1 O9 1.818291 1_655
I1 O1 1.828147 1_555
I1 O18 1.836991 1_555
I2 O10 1.818291 1_555
I2 O2 1.828147 1_555
I2 O17 1.836991 1_555
I3 O11 1.818291 1_555
I3 O3 1.828147 1_555
I3 O16 1.836991 1_555
I4 O23 1.818291 1_455
I4 O4 1.828147 1_555
I4 O15 1.836991 1_555
I5 O22 1.818291 1_455
I5 O5 1.828147 1_555
I5 O14 1.836991 1_555
I6 O21 1.818291 1_555
I6 O6 1.828147 1_555
I6 O13 1.836991 1_555
I7 O20 1.818291 1_555
I7 O7 1.828147 1_555
I7 O12 1.836991 1_555
O12 Pb1 2.419714 1_555
O12 Pb3 2.563851 1_555
O13 Pb1 2.419714 1_556
O13 Pb3 2.563851 1_566
O14 Pb0 2.419714 1_455
O14 Pb2 2.563851 1_545
O15 Pb0 2.419714 1_455
O15 Pb2 2.563851 1_555
O16 Pb3 2.419714 1_556
O16 Pb1 2.563851 1_556
O17 Pb3 2.419714 1_555
O17 Pb1 2.563851 1_545
O18 Pb2 2.419714 1_655
O18 Pb0 2.563851 1_565
O19 Pb2 2.419714 1_655
O19 Pb0 2.563851 1_555
