# generated using pymatgen
data_MgMn6(O2F)4
_symmetry_space_group_name_H-M   'P 1'
_cell_length_a   5.12745918
_cell_length_b   7.63154131
_cell_length_c   5.69429828
_cell_angle_alpha   97.21103323
_cell_angle_beta   98.51013830
_cell_angle_gamma   83.97447234
_symmetry_Int_Tables_number   1
_chemical_formula_structural   MgMn6(O2F)4
_chemical_formula_sum   'Mg1 Mn6 O8 F4'
_cell_volume   217.77475790
_cell_formula_units_Z   1
loop_
 _symmetry_equiv_pos_site_id
 _symmetry_equiv_pos_as_xyz
  1  'x, y, z'
loop_
 _atom_site_type_symbol
 _atom_site_label
 _atom_site_symmetry_multiplicity
 _atom_site_fract_x
 _atom_site_fract_y
 _atom_site_fract_z
 _atom_site_occupancy
  Mg  Mg0  1  0.50058700  0.17116100  0.17098300  1
  Mn  Mn0  1  0.44162300  0.97942900  0.55409600  1
  Mn  Mn1  1  0.50070100  0.67107600  0.17105500  1
  Mn  Mn2  1  0.55993000  0.36274600  0.78803200  1
  Mn  Mn3  1  0.00072800  0.67101700  0.67105900  1
  Mn  Mn4  1  0.00672000  0.35334100  0.34259400  1
  Mn  Mn5  1  0.99471700  0.98868500  0.99954700  1
  O  O0  1  0.86659200  0.43898700  0.62347000  1
  O  O1  1  0.64744900  0.10039600  0.84536900  1
  O  O2  1  0.65941500  0.76184900  0.49075100  1
  O  O3  1  0.66186500  0.41346400  0.14256500  1
  O  O4  1  0.34220300  0.58031300  0.85126100  1
  O  O5  1  0.35401500  0.24170400  0.49674000  1
  O  O6  1  0.33953100  0.92870700  0.19961100  1
  O  O7  1  0.13500700  0.90297500  0.71878900  1
  F  F0  1  0.82473000  0.75092400  0.99505700  1
  F  F1  1  0.85718500  0.08734500  0.30624500  1
  F  F2  1  0.17688400  0.59093700  0.34709300  1
  F  F3  1  0.14400600  0.25494600  0.03568000  1
loop_
_geom_bond_atom_site_label_1
_geom_bond_atom_site_label_2
_geom_bond_distance
_geom_bond_site_symmetry_2
Mg0 O5 2.091044 1_555
Mg0 O1 2.091179 1_554
Mg0 O3 2.136615 1_555
Mg0 O6 2.137403 1_545
Mn0 O2 1.927147 1_555
Mn0 O1 2.004755 1_565
Mn0 O6 2.007990 1_555
Mn0 O5 2.060737 1_565
Mn0 O7 2.111381 1_555
Mn1 O2 1.954345 1_555
Mn1 O4 1.954434 1_554
Mn1 O3 2.047630 1_555
Mn1 O6 2.047778 1_555
Mn2 O4 1.926789 1_555
Mn2 O5 2.005272 1_555
Mn2 O3 2.008139 1_556
Mn2 O1 2.061222 1_555
Mn2 O0 2.110473 1_555
Mn3 O7 1.939387 1_555
Mn3 O0 1.939606 1_455
Mn3 O2 1.997398 1_455
Mn3 O4 1.997462 1_555
Mn4 O0 1.865633 1_455
Mn4 O3 1.999829 1_455
Mn4 O5 2.018401 1_555
Mn5 O7 1.865542 1_655
Mn5 O6 1.999529 1_656
Mn5 O1 2.018576 1_565
F0 Mn5 2.089611 1_555
F0 Mn3 2.164447 1_655
F0 Mn1 2.234899 1_556
F1 Mg0 1.951132 1_555
F1 Mn5 2.009261 1_544
F1 Mn4 2.219408 1_655
F2 Mn4 2.088917 1_555
F2 Mn3 2.164876 1_555
F2 Mn1 2.235028 1_555
F3 Mg0 1.951062 1_555
F3 Mn4 2.009320 1_555
F3 Mn5 2.220858 1_444
