# generated using pymatgen
data_MgNb4(IO2)4
_symmetry_space_group_name_H-M   'P 1'
_cell_length_a   3.96977600
_cell_length_b   3.83742859
_cell_length_c   24.96437526
_cell_angle_alpha   90.06525709
_cell_angle_beta   90.00000000
_cell_angle_gamma   90.00000000
_symmetry_Int_Tables_number   1
_chemical_formula_structural   MgNb4(IO2)4
_chemical_formula_sum   'Mg1 Nb4 I4 O8'
_cell_volume   380.30035360
_cell_formula_units_Z   1
loop_
 _symmetry_equiv_pos_site_id
 _symmetry_equiv_pos_as_xyz
  1  'x, y, z'
loop_
 _atom_site_type_symbol
 _atom_site_label
 _atom_site_symmetry_multiplicity
 _atom_site_fract_x
 _atom_site_fract_y
 _atom_site_fract_z
 _atom_site_occupancy
  Mg  Mg0  1  0.25000000  0.99963700  0.24849300  1
  Nb  Nb0  1  0.25000000  0.49909600  0.93272500  1
  Nb  Nb1  1  0.75000000  0.99781100  0.56833100  1
  Nb  Nb2  1  0.75000000  0.50106800  0.04082500  1
  Nb  Nb3  1  0.25000000  0.99778000  0.46033400  1
  I  I0  1  0.25000000  0.99971800  0.65893300  1
  I  I1  1  0.75000000  0.01403300  0.32284400  1
  I  I2  1  0.25000000  0.49979100  0.17182400  1
  I  I3  1  0.75000000  0.49994400  0.84204400  1
  O  O0  1  0.25000000  0.49760300  0.43603600  1
  O  O1  1  0.75000000  0.49804200  0.57317800  1
  O  O2  1  0.25000000  0.99939300  0.92769300  1
  O  O3  1  0.75000000  0.99764400  0.48322500  1
  O  O4  1  0.25000000  0.99781200  0.53929000  1
  O  O5  1  0.25000000  0.49989600  0.01777700  1
  O  O6  1  0.75000000  0.00060900  0.06467400  1
  O  O7  1  0.75000000  0.50012100  0.96177300  1
loop_
_geom_bond_atom_site_label_1
_geom_bond_atom_site_label_2
_geom_bond_distance
_geom_bond_site_symmetry_2
Nb0 O2 1.921542 1_545
Nb0 O2 1.924102 1_555
Nb0 O7 2.113209 1_455
Nb0 O7 2.113209 1_555
Nb0 O5 2.123269 1_556
Nb1 O1 1.921779 1_555
Nb1 O1 1.923273 1_565
Nb1 O4 2.113147 1_655
Nb1 O4 2.113147 1_555
Nb1 O3 2.124617 1_555
Nb2 O7 1.973483 1_554
Nb2 O6 2.006634 1_565
Nb2 O6 2.011294 1_555
Nb2 O5 2.066605 1_655
Nb2 O5 2.066605 1_555
Nb3 O4 1.971087 1_555
Nb3 O0 2.012303 1_555
Nb3 O0 2.012325 1_565
Nb3 O3 2.065514 1_455
Nb3 O3 2.065514 1_555
I0 Nb1 3.009258 1_455
I0 Nb1 3.009258 1_555
I1 Mg0 2.718051 1_545
I1 Mg0 2.718051 1_645
I2 Mg0 2.708174 1_555
I2 Mg0 2.712097 1_545
I3 Nb0 3.010743 1_655
I3 Nb0 3.010743 1_555
