# generated using pymatgen
data_MgTe4Mo2W2(SeS)2
_symmetry_space_group_name_H-M   'P 1'
_cell_length_a   3.40053029
_cell_length_b   3.40057563
_cell_length_c   44.99614159
_cell_angle_alpha   90.06950632
_cell_angle_beta   89.95603406
_cell_angle_gamma   120.00497081
_symmetry_Int_Tables_number   1
_chemical_formula_structural   MgTe4Mo2W2(SeS)2
_chemical_formula_sum   'Mg1 Te4 Mo2 W2 Se2 S2'
_cell_volume   450.59141106
_cell_formula_units_Z   1
loop_
 _symmetry_equiv_pos_site_id
 _symmetry_equiv_pos_as_xyz
  1  'x, y, z'
loop_
 _atom_site_type_symbol
 _atom_site_label
 _atom_site_symmetry_multiplicity
 _atom_site_fract_x
 _atom_site_fract_y
 _atom_site_fract_z
 _atom_site_occupancy
  Mg  Mg0  1  0.99746000  0.00013600  0.38604800  1
  Te  Te0  1  0.33367300  0.66770800  0.31727900  1
  Te  Te1  1  0.33328600  0.66725900  0.69931000  1
  Te  Te2  1  0.33382800  0.66662900  0.23379100  1
  Te  Te3  1  0.33350200  0.66606300  0.61556900  1
  Mo  Mo0  1  0.33398200  0.66623100  0.47686000  1
  Mo  Mo1  1  0.66707900  0.33385000  0.27532100  1
  W  W0  1  0.33304200  0.66651600  0.09374700  1
  W  W1  1  0.66671500  0.33335200  0.65744500  1
  Se  Se0  1  0.66646400  0.33274700  0.05698400  1
  Se  Se1  1  0.66620900  0.33361400  0.13050600  1
  S  S0  1  0.66756100  0.33247200  0.44312400  1
  S  S1  1  0.66719900  0.33342300  0.50991800  1
loop_
_geom_bond_atom_site_label_1
_geom_bond_atom_site_label_2
_geom_bond_distance
_geom_bond_site_symmetry_2
Te1 W1 2.720776 1_555
Te1 W1 2.720841 1_455
Te1 W1 2.720894 1_565
Te3 W1 2.721138 1_455
Te3 W1 2.721174 1_565
Te3 W1 2.721227 1_555
Mo0 S1 2.463055 1_555
Mo0 S1 2.463130 1_455
Mo0 S1 2.463196 1_565
Mo0 S0 2.481271 1_455
Mo0 S0 2.481799 1_565
Mo0 S0 2.481938 1_555
Mo1 Te2 2.710282 1_545
Mo1 Te2 2.710302 1_655
Mo1 Te2 2.710683 1_555
Mo1 Te0 2.723519 1_555
Mo1 Te0 2.723789 1_655
Mo1 Te0 2.723899 1_545
Se0 W0 2.567054 1_555
Se0 W0 2.567232 1_655
Se0 W0 2.567447 1_545
Se1 W0 2.566861 1_545
Se1 W0 2.567221 1_655
Se1 W0 2.567304 1_555
