# generated using pymatgen
data_MgFe3Co5O16
_symmetry_space_group_name_H-M   'P 1'
_cell_length_a   5.77144614
_cell_length_b   5.85588660
_cell_length_c   8.91372377
_cell_angle_alpha   89.75154092
_cell_angle_beta   90.70114996
_cell_angle_gamma   120.38629802
_symmetry_Int_Tables_number   1
_chemical_formula_structural   MgFe3Co5O16
_chemical_formula_sum   'Mg1 Fe3 Co5 O16'
_cell_volume   259.85427025
_cell_formula_units_Z   1
loop_
 _symmetry_equiv_pos_site_id
 _symmetry_equiv_pos_as_xyz
  1  'x, y, z'
loop_
 _atom_site_type_symbol
 _atom_site_label
 _atom_site_symmetry_multiplicity
 _atom_site_fract_x
 _atom_site_fract_y
 _atom_site_fract_z
 _atom_site_occupancy
  Mg  Mg0  1  0.33815600  0.16785300  0.44917400  1
  Fe  Fe0  1  0.67320000  0.83707000  0.20273400  1
  Fe  Fe1  1  0.83150900  0.66649000  0.70947700  1
  Fe  Fe2  1  0.83705400  0.16660100  0.70775300  1
  Co  Co0  1  0.16899400  0.82762700  0.19758700  1
  Co  Co1  1  0.33158500  0.66415100  0.48236800  1
  Co  Co2  1  0.16990500  0.34284800  0.19767900  1
  Co  Co3  1  0.34092700  0.16556900  0.73804400  1
  Co  Co4  1  0.67599400  0.33919600  0.99038900  1
  O  O0  1  0.17679900  0.84016900  0.59645200  1
  O  O1  1  0.04862300  0.52437600  0.32678100  1
  O  O2  1  0.32292000  0.66252100  0.09399500  1
  O  O3  1  0.02282300  0.01150400  0.30745100  1
  O  O4  1  0.00973900  0.00329600  0.81890200  1
  O  O5  1  0.17864100  0.33342100  0.59528800  1
  O  O6  1  0.46315800  0.95224800  0.33997300  1
  O  O7  1  0.46328500  0.51005000  0.33981200  1
  O  O8  1  0.34353900  0.17314400  0.10562100  1
  O  O9  1  0.64835500  0.82184500  0.59936600  1
  O  O10  1  0.51237000  0.46550600  0.85487600  1
  O  O11  1  0.51301800  0.04734700  0.85599200  1
  O  O12  1  0.63564900  0.31753100  0.60638400  1
  O  O13  1  0.84351700  0.66250200  0.09885300  1
  O  O14  1  0.94977600  0.48035000  0.84777400  1
  O  O15  1  0.84421300  0.18365000  0.09830900  1
loop_
_geom_bond_atom_site_label_1
_geom_bond_atom_site_label_2
_geom_bond_distance
_geom_bond_site_symmetry_2
Mg0 O6 2.002833 1_545
Mg0 O3 2.003585 1_555
Mg0 O7 2.005886 1_555
Mg0 O12 2.027127 1_555
Mg0 O5 2.104087 1_555
Mg0 O0 2.114958 1_545
Fe0 O3 1.965530 1_665
Fe0 O13 1.978811 1_555
Fe0 O15 1.984741 1_565
Fe0 O2 1.985291 1_555
Fe0 O6 2.071603 1_555
Fe0 O7 2.072872 1_555
Fe1 O4 1.959370 1_665
Fe1 O9 1.961652 1_555
Fe1 O14 1.973354 1_555
Fe1 O12 1.987967 1_555
Fe1 O0 2.002639 1_655
Fe1 O10 2.075964 1_555
Fe2 O4 1.954788 1_655
Fe2 O5 1.984299 1_655
Fe2 O12 1.988837 1_555
Fe2 O9 1.990506 1_545
Fe2 O14 2.036520 1_555
Fe2 O11 2.112442 1_555
Co0 O13 1.835093 1_455
Co0 O2 1.863704 1_555
Co0 O1 1.927713 1_555
Co0 O8 1.929877 1_565
Co0 O6 1.930714 1_555
Co0 O3 1.943826 1_565
Co1 O9 1.880561 1_555
Co1 O7 1.932422 1_555
Co1 O6 1.934645 1_555
Co1 O5 1.954104 1_555
Co1 O0 1.964040 1_555
Co1 O1 1.965319 1_555
Co2 O15 1.838642 1_455
Co2 O2 1.863025 1_555
Co2 O8 1.923498 1_555
Co2 O7 1.926623 1_555
Co2 O1 1.930625 1_555
Co2 O3 1.944326 1_555
Co3 O11 1.798565 1_555
Co3 O4 1.807290 1_555
Co3 O10 1.838750 1_555
Co3 O12 1.889704 1_555
Co3 O0 2.070442 1_545
Co3 O5 2.086617 1_555
Co4 O14 1.874771 1_555
Co4 O15 1.887275 1_556
Co4 O10 1.889163 1_555
Co4 O13 1.896072 1_556
Co4 O11 1.898580 1_555
Co4 O8 1.958115 1_556
