# generated using pymatgen
data_Na4Ti2(SiO4)3
_symmetry_space_group_name_H-M   'P 1'
_cell_length_a   8.99969584
_cell_length_b   8.99969553
_cell_length_c   21.86092223
_cell_angle_alpha   90.00000000
_cell_angle_beta   90.00000000
_cell_angle_gamma   120.00000113
_symmetry_Int_Tables_number   1
_chemical_formula_structural   Na4Ti2(SiO4)3
_chemical_formula_sum   'Na24 Ti12 Si18 O72'
_cell_volume   1533.39751521
_cell_formula_units_Z   6
loop_
 _symmetry_equiv_pos_site_id
 _symmetry_equiv_pos_as_xyz
  1  'x, y, z'
loop_
 _atom_site_type_symbol
 _atom_site_label
 _atom_site_symmetry_multiplicity
 _atom_site_fract_x
 _atom_site_fract_y
 _atom_site_fract_z
 _atom_site_occupancy
  Na  Na0  1  0.62766514  0.00000000  0.25000000  1
  Na  Na1  1  0.37233486  0.37233486  0.25000000  1
  Na  Na2  1  1.00000000  0.62766514  0.25000000  1
  Na  Na3  1  0.62766514  0.62766514  0.75000000  1
  Na  Na4  1  0.00000000  0.37233486  0.75000000  1
  Na  Na5  1  0.37233486  0.00000000  0.75000000  1
  Na  Na6  1  0.29433214  0.33333300  0.58333300  1
  Na  Na7  1  0.03900186  0.70566786  0.58333300  1
  Na  Na8  1  0.66666700  0.96099814  0.58333300  1
  Na  Na9  1  0.29433214  0.96099814  0.08333300  1
  Na  Na10  1  0.66666700  0.70566786  0.08333300  1
  Na  Na11  1  0.03900186  0.33333300  0.08333300  1
  Na  Na12  1  0.96099814  0.66666700  0.91666700  1
  Na  Na13  1  0.70566786  0.03900186  0.91666700  1
  Na  Na14  1  0.33333300  0.29433214  0.91666700  1
  Na  Na15  1  0.96099814  0.29433214  0.41666700  1
  Na  Na16  1  0.33333300  0.03900186  0.41666700  1
  Na  Na17  1  0.70566786  0.66666700  0.41666700  1
  Na  Na18  1  -0.00000000  0.00000000  0.50000000  1
  Na  Na19  1  -0.00000000  0.00000000  0.00000000  1
  Na  Na20  1  0.66666700  0.33333300  0.83333300  1
  Na  Na21  1  0.66666700  0.33333300  0.33333300  1
  Na  Na22  1  0.33333300  0.66666700  0.16666700  1
  Na  Na23  1  0.33333300  0.66666700  0.66666700  1
  Ti  Ti0  1  -0.00000000  0.00000000  0.35348722  1
  Ti  Ti1  1  -0.00000000  0.00000000  0.85348722  1
  Ti  Ti2  1  -0.00000000  0.00000000  0.64651278  1
  Ti  Ti3  1  -0.00000000  0.00000000  0.14651278  1
  Ti  Ti4  1  0.66666700  0.33333300  0.68682022  1
  Ti  Ti5  1  0.66666700  0.33333300  0.18682022  1
  Ti  Ti6  1  0.66666700  0.33333300  0.97984578  1
  Ti  Ti7  1  0.66666700  0.33333300  0.47984578  1
  Ti  Ti8  1  0.33333300  0.66666700  0.02015422  1
  Ti  Ti9  1  0.33333300  0.66666700  0.52015422  1
  Ti  Ti10  1  0.33333300  0.66666700  0.31317978  1
  Ti  Ti11  1  0.33333300  0.66666700  0.81317978  1
  Si  Si0  1  0.28897410  0.00000000  0.25000000  1
  Si  Si1  1  0.71102590  0.71102590  0.25000000  1
  Si  Si2  1  0.00000000  0.28897410  0.25000000  1
  Si  Si3  1  0.28897410  0.28897410  0.75000000  1
  Si  Si4  1  1.00000000  0.71102590  0.75000000  1
  Si  Si5  1  0.71102590  0.00000000  0.75000000  1
  Si  Si6  1  0.95564110  0.33333300  0.58333300  1
  Si  Si7  1  0.37769290  0.04435890  0.58333300  1
  Si  Si8  1  0.66666700  0.62230710  0.58333300  1
  Si  Si9  1  0.95564110  0.62230710  0.08333300  1
  Si  Si10  1  0.66666700  0.04435890  0.08333300  1
  Si  Si11  1  0.37769290  0.33333300  0.08333300  1
  Si  Si12  1  0.62230710  0.66666700  0.91666700  1
  Si  Si13  1  0.04435890  0.37769290  0.91666700  1
  Si  Si14  1  0.33333300  0.95564110  0.91666700  1
  Si  Si15  1  0.62230710  0.95564110  0.41666700  1
  Si  Si16  1  0.33333300  0.37769290  0.41666700  1
  Si  Si17  1  0.04435890  0.66666700  0.41666700  1
  O  O0  1  0.19615594  0.02905383  0.31011997  1
  O  O1  1  0.83289789  0.80384406  0.31011997  1
  O  O2  1  0.97094617  0.16710211  0.31011997  1
  O  O3  1  0.19615594  0.16710211  0.81011997  1
  O  O4  1  0.97094617  0.80384406  0.81011997  1
  O  O5  1  0.83289789  0.02905383  0.81011997  1
  O  O6  1  0.80384406  0.97094617  0.68988003  1
  O  O7  1  0.16710211  0.19615594  0.68988003  1
  O  O8  1  0.02905383  0.83289789  0.68988003  1
  O  O9  1  0.80384406  0.83289789  0.18988003  1
  O  O10  1  0.02905383  0.19615594  0.18988003  1
  O  O11  1  0.16710211  0.97094617  0.18988003  1
  O  O12  1  0.86282294  0.36238683  0.64345297  1
  O  O13  1  0.49956489  0.13717706  0.64345297  1
  O  O14  1  0.63761317  0.50043511  0.64345297  1
  O  O15  1  0.86282294  0.50043511  0.14345297  1
  O  O16  1  0.63761317  0.13717706  0.14345297  1
  O  O17  1  0.49956489  0.36238683  0.14345297  1
  O  O18  1  0.47051106  0.30427917  0.02321303  1
  O  O19  1  0.83376911  0.52948894  0.02321303  1
  O  O20  1  0.69572083  0.16623089  0.02321303  1
  O  O21  1  0.47051106  0.16623089  0.52321303  1
  O  O22  1  0.69572083  0.52948894  0.52321303  1
  O  O23  1  0.83376911  0.30427917  0.52321303  1
  O  O24  1  0.52948894  0.69572083  0.97678697  1
  O  O25  1  0.16623089  0.47051106  0.97678697  1
  O  O26  1  0.30427917  0.83376911  0.97678697  1
  O  O27  1  0.52948894  0.83376911  0.47678697  1
  O  O28  1  0.30427917  0.47051106  0.47678697  1
  O  O29  1  0.16623089  0.69572083  0.47678697  1
  O  O30  1  0.13717706  0.63761317  0.35654703  1
  O  O31  1  0.50043511  0.86282294  0.35654703  1
  O  O32  1  0.36238683  0.49956489  0.35654703  1
  O  O33  1  0.13717706  0.49956489  0.85654703  1
  O  O34  1  0.36238683  0.86282294  0.85654703  1
  O  O35  1  0.50043511  0.63761317  0.85654703  1
  O  O36  1  0.02683445  0.83862259  0.41315270  1
  O  O37  1  0.81178814  0.97316555  0.41315270  1
  O  O38  1  0.16137741  0.18821186  0.41315270  1
  O  O39  1  0.02683445  0.18821186  0.91315270  1
  O  O40  1  0.16137741  0.97316555  0.91315270  1
  O  O41  1  0.81178814  0.83862259  0.91315270  1
  O  O42  1  0.97316555  0.16137741  0.58684730  1
  O  O43  1  0.18821186  0.02683445  0.58684730  1
  O  O44  1  0.83862259  0.81178814  0.58684730  1
  O  O45  1  0.97316555  0.81178814  0.08684730  1
  O  O46  1  0.83862259  0.02683445  0.08684730  1
  O  O47  1  0.18821186  0.16137741  0.08684730  1
  O  O48  1  0.69350145  0.17195559  0.74648570  1
  O  O49  1  0.47845514  0.30649855  0.74648570  1
  O  O50  1  0.82804441  0.52154486  0.74648570  1
  O  O51  1  0.69350145  0.52154486  0.24648570  1
  O  O52  1  0.82804441  0.30649855  0.24648570  1
  O  O53  1  0.47845514  0.17195559  0.24648570  1
  O  O54  1  0.63983255  0.49471041  0.92018030  1
  O  O55  1  0.85487886  0.36016745  0.92018030  1
  O  O56  1  0.50528959  0.14512114  0.92018030  1
  O  O57  1  0.63983255  0.14512114  0.42018030  1
  O  O58  1  0.50528959  0.36016745  0.42018030  1
  O  O59  1  0.85487886  0.49471041  0.42018030  1
  O  O60  1  0.36016745  0.50528959  0.07981970  1
  O  O61  1  0.14512114  0.63983255  0.07981970  1
  O  O62  1  0.49471041  0.85487886  0.07981970  1
  O  O63  1  0.36016745  0.85487886  0.57981970  1
  O  O64  1  0.49471041  0.63983255  0.57981970  1
  O  O65  1  0.14512114  0.50528959  0.57981970  1
  O  O66  1  0.30649855  0.82804441  0.25351430  1
  O  O67  1  0.52154486  0.69350145  0.25351430  1
  O  O68  1  0.17195559  0.47845514  0.25351430  1
  O  O69  1  0.30649855  0.47845514  0.75351430  1
  O  O70  1  0.17195559  0.69350145  0.75351430  1
  O  O71  1  0.52154486  0.82804441  0.75351430  1
loop_
_geom_bond_atom_site_label_1
_geom_bond_atom_site_label_2
_geom_bond_distance
_geom_bond_site_symmetry_2
Na0 O67 2.427417 1_545
Na0 O52 2.427419 1_555
Na0 O53 2.506423 1_555
Na0 O66 2.506430 1_545
Na0 O16 2.616649 1_555
Na0 O31 2.616651 1_545
Na1 O53 2.427426 1_555
Na1 O68 2.427426 1_555
Na1 O67 2.506431 1_555
Na1 O51 2.506431 1_555
Na1 O32 2.616653 1_555
Na1 O17 2.616653 1_555
Na2 O51 2.427417 1_555
Na2 O66 2.427419 1_655
Na2 O68 2.506423 1_655
Na2 O52 2.506430 1_555
Na2 O30 2.616649 1_655
Na2 O15 2.616651 1_555
Na3 O71 2.427426 1_555
Na3 O50 2.427426 1_555
Na3 O49 2.506431 1_555
Na3 O69 2.506431 1_555
Na3 O14 2.616653 1_555
Na3 O35 2.616653 1_555
Na4 O69 2.427417 1_555
Na4 O48 2.427419 1_455
Na4 O50 2.506423 1_455
Na4 O70 2.506430 1_555
Na4 O12 2.616649 1_455
Na4 O33 2.616651 1_555
Na5 O49 2.427417 1_555
Na5 O70 2.427419 1_545
Na5 O71 2.506423 1_545
Na5 O48 2.506430 1_555
Na5 O34 2.616649 1_545
Na5 O13 2.616651 1_555
Na6 O43 2.427417 1_555
Na6 O64 2.427423 1_555
Na6 O42 2.506430 1_455
Na6 O65 2.506438 1_555
Na6 O28 2.616636 1_555
Na6 O7 2.616651 1_555
Na7 O65 2.427410 1_555
Na7 O44 2.427426 1_455
Na7 O63 2.506422 1_555
Na7 O43 2.506431 1_565
Na7 O29 2.616628 1_555
Na7 O8 2.616653 1_555
Na8 O42 2.427419 1_565
Na8 O63 2.427427 1_555
Na8 O64 2.506422 1_555
Na8 O44 2.506423 1_555
Na8 O27 2.616632 1_555
Na8 O6 2.616649 1_555
Na9 O62 2.427410 1_555
Na9 O47 2.427426 1_565
Na9 O61 2.506422 1_555
Na9 O45 2.506431 1_455
Na9 O26 2.616628 1_554
Na9 O11 2.616653 1_555
Na10 O45 2.427417 1_555
Na10 O60 2.427423 1_555
Na10 O46 2.506430 1_565
Na10 O62 2.506438 1_555
Na10 O24 2.616636 1_554
Na10 O9 2.616651 1_555
Na11 O46 2.427419 1_455
Na11 O61 2.427426 1_555
Na11 O60 2.506422 1_555
Na11 O47 2.506423 1_555
Na11 O25 2.616632 1_554
Na11 O10 2.616649 1_555
Na12 O40 2.427419 1_655
Na12 O55 2.427426 1_555
Na12 O54 2.506422 1_555
Na12 O41 2.506423 1_555
Na12 O19 2.616632 1_556
Na12 O4 2.616649 1_555
Na13 O56 2.427410 1_555
Na13 O41 2.427426 1_545
Na13 O55 2.506422 1_555
Na13 O39 2.506431 1_655
Na13 O20 2.616628 1_556
Na13 O5 2.616653 1_555
Na14 O39 2.427417 1_555
Na14 O54 2.427423 1_555
Na14 O40 2.506430 1_545
Na14 O56 2.506438 1_555
Na14 O18 2.616636 1_556
Na14 O3 2.616651 1_555
Na15 O59 2.427410 1_555
Na15 O38 2.427426 1_655
Na15 O57 2.506422 1_555
Na15 O37 2.506431 1_545
Na15 O23 2.616628 1_555
Na15 O2 2.616653 1_555
Na16 O36 2.427419 1_545
Na16 O57 2.427427 1_555
Na16 O58 2.506422 1_555
Na16 O38 2.506423 1_555
Na16 O21 2.616632 1_555
Na16 O0 2.616649 1_555
Na17 O37 2.427417 1_555
Na17 O58 2.427423 1_555
Na17 O36 2.506430 1_655
Na17 O59 2.506438 1_555
Na17 O22 2.616636 1_555
Na17 O1 2.616651 1_555
Na18 O44 2.474453 1_445
Na18 O38 2.474453 1_555
Na18 O42 2.474453 1_455
Na18 O36 2.474453 1_545
Na18 O43 2.474453 1_555
Na18 O37 2.474453 1_445
Na19 O39 2.474453 1_554
Na19 O45 2.474453 1_445
Na19 O41 2.474453 1_444
Na19 O47 2.474453 1_555
Na19 O40 2.474453 1_544
Na19 O46 2.474453 1_455
Na20 O56 2.474453 1_555
Na20 O50 2.474453 1_555
Na20 O54 2.474453 1_555
Na20 O48 2.474453 1_555
Na20 O55 2.474453 1_555
Na20 O49 2.474453 1_555
Na21 O51 2.474453 1_555
Na21 O57 2.474453 1_555
Na21 O53 2.474453 1_555
Na21 O59 2.474453 1_555
Na21 O52 2.474453 1_555
Na21 O58 2.474453 1_555
Na22 O62 2.474453 1_555
Na22 O68 2.474453 1_555
Na22 O66 2.474453 1_555
Na22 O60 2.474453 1_555
Na22 O67 2.474453 1_555
Na22 O61 2.474453 1_555
Na23 O69 2.474453 1_555
Na23 O63 2.474453 1_555
Na23 O71 2.474453 1_555
Na23 O65 2.474453 1_555
Na23 O70 2.474453 1_555
Na23 O64 2.474453 1_555
O0 Si0 1.646785 1_555
O0 Ti0 1.903158 1_555
O1 Si1 1.646785 1_555
O1 Ti0 1.903158 1_665
O2 Si2 1.646785 1_655
O2 Ti0 1.903158 1_655
O3 Si3 1.646785 1_555
O3 Ti1 1.903158 1_555
O4 Si4 1.646785 1_555
O4 Ti1 1.903158 1_665
O5 Si5 1.646785 1_555
O5 Ti1 1.903158 1_655
O6 Si5 1.646785 1_565
O6 Ti2 1.903158 1_665
O7 Si3 1.646785 1_555
O7 Ti2 1.903158 1_555
O8 Si4 1.646785 1_455
O8 Ti2 1.903158 1_565
O9 Si1 1.646785 1_555
O9 Ti3 1.903158 1_665
O10 Si2 1.646785 1_555
O10 Ti3 1.903158 1_555
O11 Si0 1.646785 1_565
O11 Ti3 1.903158 1_565
O12 Si6 1.646785 1_555
O12 Ti4 1.903158 1_555
O13 Si7 1.646785 1_555
O13 Ti4 1.903158 1_555
O14 Si8 1.646785 1_555
O14 Ti4 1.903158 1_555
O15 Si9 1.646785 1_555
O15 Ti5 1.903158 1_555
O16 Si10 1.646785 1_555
O16 Ti5 1.903158 1_555
O17 Si11 1.646785 1_555
O17 Ti5 1.903158 1_555
O18 Si11 1.646785 1_555
O18 Ti6 1.903158 1_554
O19 Si9 1.646785 1_555
O19 Ti6 1.903158 1_554
O20 Si10 1.646785 1_555
O20 Ti6 1.903158 1_554
O21 Si7 1.646785 1_555
O21 Ti7 1.903158 1_555
O22 Si8 1.646785 1_555
O22 Ti7 1.903158 1_555
O23 Si6 1.646785 1_555
O23 Ti7 1.903158 1_555
O24 Si12 1.646785 1_555
O24 Ti8 1.903158 1_556
O25 Si13 1.646785 1_555
O25 Ti8 1.903158 1_556
O26 Si14 1.646785 1_555
O26 Ti8 1.903158 1_556
O27 Si15 1.646785 1_555
O27 Ti9 1.903158 1_555
O28 Si16 1.646785 1_555
O28 Ti9 1.903158 1_555
O29 Si17 1.646785 1_555
O29 Ti9 1.903158 1_555
O30 Si17 1.646785 1_555
O30 Ti10 1.903158 1_555
O31 Si15 1.646785 1_555
O31 Ti10 1.903158 1_555
O32 Si16 1.646785 1_555
O32 Ti10 1.903158 1_555
O33 Si13 1.646785 1_555
O33 Ti11 1.903158 1_555
O34 Si14 1.646785 1_555
O34 Ti11 1.903158 1_555
O35 Si12 1.646785 1_555
O35 Ti11 1.903158 1_555
O36 Si17 1.633938 1_555
O36 Ti0 2.054189 1_565
O37 Si15 1.633947 1_555
O37 Ti0 2.054189 1_665
O38 Si16 1.633943 1_555
O38 Ti0 2.054188 1_555
O39 Si13 1.633946 1_555
O39 Ti1 2.054188 1_555
O40 Si14 1.633938 1_555
O40 Ti1 2.054189 1_565
O41 Si12 1.633943 1_555
O41 Ti1 2.054189 1_665
O42 Si6 1.633938 1_555
O42 Ti2 2.054189 1_655
O43 Si7 1.633947 1_555
O43 Ti2 2.054189 1_555
O44 Si8 1.633943 1_555
O44 Ti2 2.054188 1_665
O45 Si9 1.633946 1_555
O45 Ti3 2.054188 1_665
O46 Si10 1.633938 1_555
O46 Ti3 2.054189 1_655
O47 Si11 1.633943 1_555
O47 Ti3 2.054189 1_555
O48 Si5 1.633938 1_555
O48 Ti4 2.054189 1_555
O49 Si3 1.633947 1_555
O49 Ti4 2.054189 1_555
O50 Si4 1.633943 1_555
O50 Ti4 2.054188 1_555
O51 Si1 1.633946 1_555
O51 Ti5 2.054188 1_555
O52 Si2 1.633938 1_655
O52 Ti5 2.054189 1_555
O53 Si0 1.633943 1_555
O53 Ti5 2.054189 1_555
O54 Si12 1.633951 1_555
O54 Ti6 2.054189 1_555
O55 Si13 1.633933 1_655
O55 Ti6 2.054189 1_555
O56 Si14 1.633940 1_545
O56 Ti6 2.054188 1_555
O57 Si15 1.633933 1_545
O57 Ti7 2.054188 1_555
O58 Si16 1.633951 1_555
O58 Ti7 2.054189 1_555
O59 Si17 1.633940 1_655
O59 Ti7 2.054189 1_555
O60 Si11 1.633951 1_555
O60 Ti8 2.054189 1_555
O61 Si9 1.633933 1_455
O61 Ti8 2.054189 1_555
O62 Si10 1.633940 1_565
O62 Ti8 2.054188 1_555
O63 Si7 1.633933 1_565
O63 Ti9 2.054188 1_555
O64 Si8 1.633951 1_555
O64 Ti9 2.054189 1_555
O65 Si6 1.633940 1_455
O65 Ti9 2.054189 1_555
O66 Si0 1.633938 1_565
O66 Ti10 2.054189 1_555
O67 Si1 1.633947 1_555
O67 Ti10 2.054189 1_555
O68 Si2 1.633943 1_555
O68 Ti10 2.054188 1_555
O69 Si3 1.633946 1_555
O69 Ti11 2.054188 1_555
O70 Si4 1.633938 1_455
O70 Ti11 2.054189 1_555
O71 Si5 1.633943 1_565
O71 Ti11 2.054189 1_555
