# generated using pymatgen
data_Te3MoCl16
_symmetry_space_group_name_H-M   'P 1'
_cell_length_a   10.15533351
_cell_length_b   10.16496632
_cell_length_c   12.12868069
_cell_angle_alpha   90.00200334
_cell_angle_beta   89.99334498
_cell_angle_gamma   100.75729621
_symmetry_Int_Tables_number   1
_chemical_formula_structural   Te3MoCl16
_chemical_formula_sum   'Te6 Mo2 Cl32'
_cell_volume   1230.02467457
_cell_formula_units_Z   2
loop_
 _symmetry_equiv_pos_site_id
 _symmetry_equiv_pos_as_xyz
  1  'x, y, z'
loop_
 _atom_site_type_symbol
 _atom_site_label
 _atom_site_symmetry_multiplicity
 _atom_site_fract_x
 _atom_site_fract_y
 _atom_site_fract_z
 _atom_site_occupancy
  Te  Te0  1  0.54192134  0.25862163  -0.00003042  1
  Te  Te1  1  0.45809816  0.74135159  0.49995299  1
  Te  Te2  1  0.73802925  0.45624904  0.49707470  1
  Te  Te3  1  0.26196625  0.54377201  0.99703601  1
  Te  Te4  1  0.13325807  0.13342195  0.73316295  1
  Te  Te5  1  0.86670233  0.86657908  0.23318450  1
  Mo  Mo0  1  0.67053902  0.67455928  0.97413220  1
  Mo  Mo1  1  0.32947208  0.32543112  0.47412294  1
  Cl  Cl0  1  0.73765755  0.23699935  0.09497900  1
  Cl  Cl1  1  0.26232523  0.76296067  0.59498828  1
  Cl  Cl2  1  0.75467535  0.25995392  0.59276433  1
  Cl  Cl3  1  0.24535651  0.74003200  0.09281369  1
  Cl  Cl4  1  0.57002083  0.10788709  0.86158306  1
  Cl  Cl5  1  0.42996953  0.89210679  0.36164406  1
  Cl  Cl6  1  0.89079977  0.43003451  0.35994728  1
  Cl  Cl7  1  0.10922832  0.57003346  0.85996078  1
  Cl  Cl8  1  0.40059597  0.10480066  0.11136762  1
  Cl  Cl9  1  0.59933612  0.89512069  0.61143506  1
  Cl  Cl10  1  0.89335605  0.59506761  0.61278215  1
  Cl  Cl11  1  0.10663452  0.40497624  0.11278492  1
  Cl  Cl12  1  -0.00035585  -0.00544204  0.60713672  1
  Cl  Cl13  1  0.00037077  0.00539333  0.10712796  1
  Cl  Cl14  1  0.17410034  0.95163895  0.84061224  1
  Cl  Cl15  1  0.82590950  0.04839432  0.34057529  1
  Cl  Cl16  1  0.04853522  0.82059244  0.33574453  1
  Cl  Cl17  1  0.95146041  0.17943310  0.83577528  1
  Cl  Cl18  1  0.63421687  0.85459693  0.08607391  1
  Cl  Cl19  1  0.36582604  0.14538578  0.58606699  1
  Cl  Cl20  1  0.13482793  0.34836458  0.58422628  1
  Cl  Cl21  1  0.86517151  0.65156822  0.08420641  1
  Cl  Cl22  1  0.79894580  0.80566792  0.84924632  1
  Cl  Cl23  1  0.20104720  0.19436517  0.34923794  1
  Cl  Cl24  1  0.69205080  0.47468627  0.87512601  1
  Cl  Cl25  1  0.30794745  0.52533965  0.37511998  1
  Cl  Cl26  1  0.53151892  0.30708787  0.36943707  1
  Cl  Cl27  1  0.46850381  0.69293896  0.86941608  1
  Cl  Cl28  1  0.53026251  0.52568232  0.10806482  1
  Cl  Cl29  1  0.46973897  0.47428489  0.60809557  1
  Cl  Cl30  1  0.31180958  0.30730271  0.88335918  1
  Cl  Cl31  1  0.68816999  0.69275994  0.38336930  1
loop_
_geom_bond_atom_site_label_1
_geom_bond_atom_site_label_2
_geom_bond_distance
_geom_bond_site_symmetry_2
Cl0 Te0 2.343299 1_555
Cl1 Te1 2.343507 1_555
Cl2 Te2 2.341585 1_555
Cl3 Te3 2.341632 1_554
Cl4 Te0 2.325771 1_556
Cl5 Te1 2.325433 1_555
Cl6 Te2 2.323317 1_555
Cl7 Te3 2.323022 1_555
Cl8 Te0 2.343525 1_555
Cl9 Te1 2.343517 1_555
Cl10 Te2 2.370292 1_555
Cl11 Te3 2.370350 1_554
Cl12 Te4 2.335676 1_555
Cl13 Te5 2.335784 1_445
Cl14 Te4 2.360346 1_565
Cl15 Te5 2.359936 1_545
Cl16 Te5 2.344883 1_455
Cl17 Te4 2.344766 1_655
Cl18 Mo0 2.362268 1_554
Cl18 Te5 2.943840 1_555
Cl19 Mo1 2.362567 1_555
Cl19 Te4 2.944091 1_555
Cl20 Mo1 2.432342 1_555
Cl20 Te4 2.832727 1_555
Cl21 Mo0 2.432456 1_554
Cl21 Te5 2.833541 1_555
Cl22 Mo0 2.263147 1_555
Cl23 Mo1 2.263157 1_555
Cl24 Mo0 2.404776 1_555
Cl24 Te0 2.861925 1_556
Cl25 Mo1 2.405197 1_555
Cl25 Te1 2.861689 1_555
Cl26 Mo1 2.449328 1_555
Cl26 Te2 2.811976 1_555
Cl27 Mo0 2.449757 1_555
Cl27 Te3 2.811850 1_555
Cl28 Mo0 2.480555 1_554
Cl28 Te0 3.036770 1_555
Cl28 Te3 3.075513 1_554
Cl29 Mo1 2.480856 1_555
Cl29 Te1 3.037129 1_555
Cl29 Te2 3.075010 1_555
Cl30 Te0 2.852825 1_556
Cl30 Te3 2.896333 1_555
Cl30 Te4 2.921401 1_555
Cl31 Te1 2.851736 1_555
Cl31 Te2 2.897052 1_555
Cl31 Te5 2.920724 1_555
