# generated using pymatgen
data_MgMnV4CuO12
_symmetry_space_group_name_H-M   'P 1'
_cell_length_a   7.02593559
_cell_length_b   6.76972068
_cell_length_c   5.90966181
_cell_angle_alpha   74.22370183
_cell_angle_beta   106.74688506
_cell_angle_gamma   99.63624827
_symmetry_Int_Tables_number   1
_chemical_formula_structural   MgMnV4CuO12
_chemical_formula_sum   'Mg1 Mn1 V4 Cu1 O12'
_cell_volume   257.81175874
_cell_formula_units_Z   1
loop_
 _symmetry_equiv_pos_site_id
 _symmetry_equiv_pos_as_xyz
  1  'x, y, z'
loop_
 _atom_site_type_symbol
 _atom_site_label
 _atom_site_symmetry_multiplicity
 _atom_site_fract_x
 _atom_site_fract_y
 _atom_site_fract_z
 _atom_site_occupancy
  Mg  Mg0  1  0.28450600  0.27368700  0.29222800  1
  Mn  Mn0  1  0.91761700  0.91819500  0.26092600  1
  V  V0  1  0.19210700  0.60523400  0.77071100  1
  V  V1  1  0.38488800  0.80244500  0.27202300  1
  V  V2  1  0.62785600  0.20843200  0.72584100  1
  V  V3  1  0.80689800  0.39286200  0.22338100  1
  Cu  Cu0  1  0.10115900  0.07399700  0.77899000  1
  O  O0  1  0.04209700  0.80732200  0.66017600  1
  O  O1  1  0.06183100  0.36868100  0.76520300  1
  O  O2  1  0.21618100  0.00529800  0.17366400  1
  O  O3  1  0.35502000  0.64520500  0.57950400  1
  O  O4  1  0.37703100  0.12462600  0.66772700  1
  O  O5  1  0.30856700  0.57855700  0.09958400  1
  O  O6  1  0.67075200  0.38434000  0.92154600  1
  O  O7  1  0.62367000  0.89678100  0.26745500  1
  O  O8  1  0.62308200  0.32805700  0.40435300  1
  O  O9  1  0.78344400  0.02130400  0.85139700  1
  O  O10  1  0.92130300  0.62902200  0.21799500  1
  O  O11  1  0.99198800  0.22595100  0.31729300  1
loop_
_geom_bond_atom_site_label_1
_geom_bond_atom_site_label_2
_geom_bond_distance
_geom_bond_site_symmetry_2
Mg0 O2 2.056451 1_555
Mg0 O11 2.068171 1_455
Mg0 O5 2.073822 1_555
Mg0 O4 2.129745 1_555
Mg0 O8 2.272534 1_555
Mn0 O10 2.046495 1_555
Mn0 O7 2.056799 1_555
Mn0 O11 2.153428 1_565
Mn0 O0 2.227734 1_655
Mn0 O2 2.248976 1_665
Mn0 O9 2.284746 1_564
Cu0 O1 2.036152 1_555
Cu0 O0 2.048155 1_545
Cu0 O4 2.167064 1_555
Cu0 O2 2.181552 1_556
Cu0 O9 2.343958 1_455
Cu0 O11 2.573515 1_455
O0 V0 1.734705 1_555
O1 V0 1.709907 1_555
O2 V1 1.828263 1_545
O3 V0 1.770763 1_555
O3 V1 1.890028 1_555
O4 V2 1.722759 1_555
O5 V0 1.849755 1_554
O5 V1 1.968782 1_555
O6 V3 1.776022 1_556
O6 V2 1.809542 1_555
O7 V1 1.697403 1_555
O8 V3 1.831760 1_555
O8 V2 1.844520 1_555
O9 V2 1.683861 1_555
O10 V3 1.661302 1_555
O11 V3 1.735199 1_555
