# generated using pymatgen
data_Na2HfSiGe(PO6)2
_symmetry_space_group_name_H-M   'P 1'
_cell_length_a   8.75539240
_cell_length_b   8.73977884
_cell_length_c   22.30837457
_cell_angle_alpha   90.04018006
_cell_angle_beta   89.80114873
_cell_angle_gamma   119.78987563
_symmetry_Int_Tables_number   1
_chemical_formula_structural   Na2HfSiGe(PO6)2
_chemical_formula_sum   'Na12 Hf6 Si6 Ge6 P12 O72'
_cell_volume   1481.45125470
_cell_formula_units_Z   6
loop_
 _symmetry_equiv_pos_site_id
 _symmetry_equiv_pos_as_xyz
  1  'x, y, z'
loop_
 _atom_site_type_symbol
 _atom_site_label
 _atom_site_symmetry_multiplicity
 _atom_site_fract_x
 _atom_site_fract_y
 _atom_site_fract_z
 _atom_site_occupancy
  Na  Na0  1  0.00021381  0.63014044  0.25041646  1
  Na  Na1  1  0.36776890  0.00134534  0.74868631  1
  Na  Na2  1  0.66600623  0.96579250  0.58406779  1
  Na  Na3  1  0.02915529  0.33511074  0.08633324  1
  Na  Na4  1  0.97452018  0.66989534  0.91859619  1
  Na  Na5  1  0.33192841  0.02977973  0.41832762  1
  Na  Na6  1  0.00069093  0.99931145  0.50036010  1
  Na  Na7  1  0.00309279  0.99727646  0.00160720  1
  Na  Na8  1  0.66551061  0.32871151  0.83150396  1
  Na  Na9  1  0.67160349  0.33392373  0.33657937  1
  Na  Na10  1  0.34375254  0.67115672  0.16694833  1
  Na  Na11  1  0.32747497  0.65435149  0.66377354  1
  Hf  Hf0  1  0.99829066  0.00598790  0.85051830  1
  Hf  Hf1  1  0.66655282  0.32938687  0.18955905  1
  Hf  Hf2  1  0.66120949  0.33013415  0.98231414  1
  Hf  Hf3  1  0.33408524  0.67425482  0.02081847  1
  Hf  Hf4  1  0.32889348  0.65829952  0.31417308  1
  Hf  Hf5  1  0.34125423  0.67014815  0.80974060  1
  Si  Si0  1  0.00049158  0.27386737  0.25088385  1
  Si  Si1  1  0.71778577  0.01053754  0.74279137  1
  Si  Si2  1  0.37426087  0.04656162  0.58239257  1
  Si  Si3  1  0.95962466  0.63899201  0.08574917  1
  Si  Si4  1  0.33654398  0.96607858  0.91451507  1
  Si  Si5  1  0.03081869  0.66111788  0.41855209  1
  Ge  Ge0  1  0.99168786  0.99572273  0.35452758  1
  Ge  Ge1  1  0.00528534  0.99944539  0.64604012  1
  Ge  Ge2  1  0.00115543  0.99743206  0.14860850  1
  Ge  Ge3  1  0.66960751  0.33124475  0.68256108  1
  Ge  Ge4  1  0.66907772  0.33912530  0.48327576  1
  Ge  Ge5  1  0.32334219  0.66947902  0.51868926  1
  P  P0  1  0.28006294  0.00292127  0.25201742  1
  P  P1  1  0.72013885  0.72421811  0.25036579  1
  P  P2  1  0.29208701  0.28765072  0.74379859  1
  P  P3  1  0.98798024  0.70262265  0.74546551  1
  P  P4  1  0.95713401  0.33749990  0.58244365  1
  P  P5  1  0.66544738  0.61738933  0.58330466  1
  P  P6  1  0.67258653  0.03823628  0.08606102  1
  P  P7  1  0.36764870  0.32564367  0.08663520  1
  P  P8  1  0.62540173  0.66620128  0.91633913  1
  P  P9  1  0.04306016  0.37471541  0.91736551  1
  P  P10  1  0.62842179  0.95885513  0.41954776  1
  P  P11  1  0.33395356  0.37672874  0.42079521  1
  O  O0  1  0.19855912  0.02769570  0.31027311  1
  O  O1  1  0.83709945  0.79843598  0.30684097  1
  O  O2  1  0.96939940  0.15532085  0.31062970  1
  O  O3  1  0.21656722  0.17243287  0.80115895  1
  O  O4  1  0.96213638  0.78144160  0.80447842  1
  O  O5  1  0.82850891  0.03997563  0.80376014  1
  O  O6  1  0.80854207  0.97208883  0.68470522  1
  O  O7  1  0.17140820  0.19894803  0.69027275  1
  O  O8  1  0.03578988  0.83407371  0.69272464  1
  O  O9  1  0.80252857  0.83350024  0.19339857  1
  O  O10  1  0.03009263  0.19238340  0.18830745  1
  O  O11  1  0.16245025  0.96263197  0.19571454  1
  O  O12  1  0.87637317  0.37318838  0.63927481  1
  O  O13  1  0.50396783  0.13013084  0.64118328  1
  O  O14  1  0.63343589  0.50101614  0.63980367  1
  O  O15  1  0.87184567  0.50799947  0.14303849  1
  O  O16  1  0.63815676  0.12275131  0.14028209  1
  O  O17  1  0.48286116  0.35564122  0.14058363  1
  O  O18  1  0.45062860  0.29625925  0.02955068  1
  O  O19  1  0.84671719  0.55140616  0.02476337  1
  O  O20  1  0.70587097  0.15595789  0.03017324  1
  O  O21  1  0.46695598  0.16760170  0.52249664  1
  O  O22  1  0.70144692  0.53702317  0.52721949  1
  O  O23  1  0.83258243  0.29507655  0.52784789  1
  O  O24  1  0.54135476  0.69248951  0.97245265  1
  O  O25  1  0.15085700  0.45446850  0.97475972  1
  O  O26  1  0.29781518  0.83709500  0.97195040  1
  O  O27  1  0.54505899  0.84204977  0.47653267  1
  O  O28  1  0.30167747  0.46667003  0.47560833  1
  O  O29  1  0.17334490  0.71191662  0.47392502  1
  O  O30  1  0.11657578  0.63009210  0.35765071  1
  O  O31  1  0.50761099  0.87638386  0.36444069  1
  O  O32  1  0.36800628  0.48916109  0.36366625  1
  O  O33  1  0.13018031  0.49248710  0.86231718  1
  O  O34  1  0.36043240  0.87396738  0.85428543  1
  O  O35  1  0.51190412  0.63664900  0.86041858  1
  O  O36  1  0.02436705  0.84792821  0.40908312  1
  O  O37  1  0.81176209  0.97638169  0.41153424  1
  O  O38  1  0.17053955  0.18954107  0.41305356  1
  O  O39  1  0.02233161  0.19084122  0.91203843  1
  O  O40  1  0.15497328  0.97289566  0.91067095  1
  O  O41  1  0.80960312  0.82919612  0.91046173  1
  O  O42  1  0.97058032  0.16652754  0.58912183  1
  O  O43  1  0.17678481  0.02256073  0.59163465  1
  O  O44  1  0.82962809  0.80693543  0.58952904  1
  O  O45  1  0.97934695  0.83256321  0.09387222  1
  O  O46  1  0.84392627  0.02982654  0.09158558  1
  O  O47  1  0.18076588  0.16166343  0.09122240  1
  O  O48  1  0.68926704  0.18371969  0.73827445  1
  O  O49  1  0.47758694  0.30533917  0.73812162  1
  O  O50  1  0.82185034  0.52124297  0.73775772  1
  O  O51  1  0.70019312  0.53833940  0.24543201  1
  O  O52  1  0.83114473  0.30610114  0.24782257  1
  O  O53  1  0.46179169  0.16502307  0.24677543  1
  O  O54  1  0.65146755  0.50547187  0.92066004  1
  O  O55  1  0.86309592  0.36363884  0.92258175  1
  O  O56  1  0.50983085  0.15549748  0.92020037  1
  O  O57  1  0.63960663  0.14228352  0.42633655  1
  O  O58  1  0.49834518  0.35219544  0.42644838  1
  O  O59  1  0.83865537  0.48554302  0.42859850  1
  O  O60  1  0.34535617  0.48838183  0.07954479  1
  O  O61  1  0.14870240  0.64402365  0.08093504  1
  O  O62  1  0.51143873  0.85523790  0.07965189  1
  O  O63  1  0.36393424  0.85026109  0.57475726  1
  O  O64  1  0.50067987  0.64183505  0.57620764  1
  O  O65  1  0.14322227  0.50196240  0.57462807  1
  O  O66  1  0.30019744  0.83579651  0.25617935  1
  O  O67  1  0.53614254  0.70460599  0.25598071  1
  O  O68  1  0.17132593  0.47553253  0.25364348  1
  O  O69  1  0.30754708  0.46862061  0.75141662  1
  O  O70  1  0.15561825  0.68614890  0.75199158  1
  O  O71  1  0.51933927  0.83733255  0.74870745  1
loop_
_geom_bond_atom_site_label_1
_geom_bond_atom_site_label_2
_geom_bond_distance
_geom_bond_site_symmetry_2
Na0 O66 2.335968 1_555
Na0 O51 2.337504 1_455
Na0 O52 2.459634 1_455
Na0 O68 2.467361 1_555
Na0 O30 2.603462 1_555
Na0 O15 2.638892 1_455
Na0 O11 2.800465 1_555
Na0 O1 2.803495 1_455
Na1 O49 2.345169 1_555
Na1 O71 2.388720 1_545
Na1 O70 2.441161 1_545
Na1 O48 2.460842 1_555
Na1 O34 2.593178 1_545
Na1 O13 2.662817 1_555
Na1 O3 2.704124 1_555
Na1 O8 2.818604 1_545
Na2 O63 2.325394 1_555
Na2 O42 2.356879 1_565
Na2 O44 2.443859 1_555
Na2 O64 2.463971 1_555
Na2 O6 2.559638 1_555
Na2 O27 2.630949 1_555
Na2 O13 2.776455 1_565
Na2 O23 2.793562 1_565
Na3 O46 2.337149 1_455
Na3 O61 2.364491 1_555
Na3 O60 2.407109 1_555
Na3 O47 2.464242 1_555
Na3 O10 2.597199 1_555
Na3 O25 2.701773 1_554
Na3 O20 2.766048 1_455
Na3 O15 2.798834 1_455
Na4 O40 2.319826 1_655
Na4 O55 2.351387 1_555
Na4 O54 2.455154 1_555
Na4 O41 2.460868 1_555
Na4 O19 2.601448 1_556
Na4 O26 2.734074 1_655
Na4 O4 2.748381 1_555
Na4 O33 2.814753 1_655
Na5 O36 2.360216 1_545
Na5 O57 2.372068 1_555
Na5 O38 2.433492 1_555
Na5 O58 2.453066 1_555
Na5 O21 2.617052 1_555
Na5 O0 2.678210 1_555
Na5 O29 2.709964 1_545
Na5 O31 2.764480 1_545
Na6 O36 2.491091 1_555
Na6 O43 2.504861 1_565
Na6 O38 2.509331 1_565
Na6 O37 2.528982 1_455
Na6 O42 2.549773 1_465
Na6 O44 2.551247 1_455
Na7 O45 2.460869 1_455
Na7 O40 2.488232 1_554
Na7 O47 2.505498 1_565
Na7 O46 2.534915 1_465
Na7 O39 2.569448 1_564
Na7 O41 2.590198 1_454
Na8 O56 2.449475 1_555
Na8 O48 2.495959 1_555
Na8 O54 2.557387 1_555
Na8 O55 2.590922 1_555
Na8 O50 2.602912 1_555
Na8 O49 2.603437 1_555
Na9 O59 2.490051 1_555
Na9 O52 2.499683 1_555
Na9 O57 2.535287 1_555
Na9 O58 2.562248 1_555
Na9 O53 2.625651 1_555
Na9 O51 2.635551 1_555
Na10 O62 2.484734 1_555
Na10 O61 2.504832 1_555
Na10 O68 2.522371 1_555
Na10 O60 2.524181 1_555
Na10 O67 2.529981 1_555
Na10 O66 2.591202 1_555
Na11 O69 2.491736 1_555
Na11 O65 2.492952 1_555
Na11 O64 2.504320 1_555
Na11 O71 2.513542 1_555
Na11 O63 2.536586 1_555
Na11 O70 2.570695 1_555
Hf0 O5 1.958555 1_555
Hf0 O40 2.042989 1_645
Hf0 O39 2.049125 1_655
Hf0 O3 2.050893 1_655
Hf0 O41 2.087110 1_545
Hf0 O4 2.094898 1_545
Hf1 O15 1.986430 1_555
Hf1 O16 2.021058 1_555
Hf1 O52 2.027871 1_555
Hf1 O17 2.052360 1_555
Hf1 O53 2.081947 1_555
Hf1 O51 2.107190 1_555
Hf2 O56 2.001490 1_555
Hf2 O18 2.010461 1_556
Hf2 O19 2.040028 1_556
Hf2 O20 2.051029 1_556
Hf2 O54 2.093070 1_555
Hf2 O55 2.110847 1_555
Hf3 O26 1.941242 1_554
Hf3 O61 2.015462 1_555
Hf3 O24 2.045011 1_554
Hf3 O62 2.050959 1_555
Hf3 O25 2.065389 1_554
Hf3 O60 2.127958 1_555
Hf4 O30 1.997391 1_555
Hf4 O32 2.007341 1_555
Hf4 O68 2.024436 1_555
Hf4 O31 2.093928 1_555
Hf4 O67 2.096742 1_555
Hf4 O66 2.129726 1_555
Hf5 O34 1.972385 1_555
Hf5 O35 2.010733 1_555
Hf5 O71 2.035734 1_555
Hf5 O33 2.082819 1_555
Hf5 O69 2.089294 1_555
Hf5 O70 2.135772 1_555
Ge0 O2 1.793436 1_565
Ge0 O36 1.898257 1_655
Ge0 O1 1.903983 1_555
Ge0 O0 1.954071 1_665
Ge0 O37 1.961963 1_555
Ge0 O38 2.097984 1_665
Ge1 O6 1.830066 1_455
Ge1 O43 1.858706 1_565
Ge1 O7 1.901840 1_565
Ge1 O8 1.905909 1_555
Ge1 O44 2.055410 1_455
Ge1 O42 2.069573 1_465
Ge2 O10 1.822652 1_565
Ge2 O45 1.824692 1_455
Ge2 O9 1.894626 1_455
Ge2 O11 1.904901 1_555
Ge2 O47 1.979353 1_565
Ge2 O46 1.998332 1_465
Ge3 O48 1.860377 1_555
Ge3 O13 1.875870 1_555
Ge3 O12 1.916521 1_555
Ge3 O14 1.919030 1_555
Ge3 O50 1.964573 1_555
Ge3 O49 2.005425 1_555
Ge4 O59 1.852431 1_555
Ge4 O21 1.870714 1_555
Ge4 O22 1.882893 1_555
Ge4 O23 1.935008 1_555
Ge4 O58 2.009409 1_555
Ge4 O57 2.048850 1_555
Ge5 O29 1.831157 1_555
Ge5 O63 1.905128 1_555
Ge5 O28 1.940671 1_555
Ge5 O65 1.970396 1_555
Ge5 O27 2.001912 1_555
Ge5 O64 2.121929 1_555
O0 P0 1.546523 1_555
O1 P1 1.550632 1_555
O2 Si0 1.625780 1_655
O3 P2 1.556588 1_555
O4 P3 1.552544 1_555
O5 Si1 1.617628 1_555
O6 Si1 1.637374 1_565
O7 P2 1.528644 1_555
O8 P3 1.549199 1_455
O9 P1 1.535700 1_555
O10 Si0 1.643950 1_555
O11 P0 1.552428 1_565
O12 P4 1.554664 1_555
O13 Si2 1.651679 1_555
O14 P5 1.554898 1_555
O15 Si3 1.629619 1_555
O16 P6 1.522175 1_555
O17 P7 1.509931 1_555
O18 P7 1.547258 1_555
O19 Si3 1.634046 1_555
O20 P6 1.548954 1_555
O21 Si2 1.644534 1_555
O22 P5 1.540817 1_555
O23 P4 1.554630 1_555
O24 P8 1.523970 1_555
O25 P9 1.539294 1_555
O26 Si4 1.626853 1_555
O27 P10 1.563948 1_555
O28 P11 1.552402 1_555
O29 Si5 1.655188 1_555
O30 Si5 1.636402 1_555
O31 P10 1.549154 1_555
O32 P11 1.544897 1_555
O33 P9 1.537693 1_555
O34 Si4 1.631253 1_555
O35 P8 1.537386 1_555
O36 Si5 1.675012 1_555
O37 P10 1.544625 1_555
O38 P11 1.558470 1_555
O39 P9 1.529594 1_555
O40 Si4 1.622710 1_555
O41 P8 1.537352 1_555
O42 P4 1.563362 1_555
O43 Si2 1.647149 1_555
O44 P5 1.569967 1_555
O45 Si3 1.623039 1_555
O46 P6 1.543336 1_555
O47 P7 1.552623 1_555
O48 Si1 1.655089 1_555
O49 P2 1.557831 1_555
O50 P3 1.538965 1_555
O51 P1 1.549105 1_555
O52 Si0 1.642618 1_655
O53 P0 1.520372 1_555
O54 P8 1.534130 1_555
O55 P9 1.533880 1_655
O56 Si4 1.601220 1_545
O57 P10 1.564066 1_545
O58 P11 1.562513 1_555
O59 Si5 1.633440 1_655
O60 P7 1.537012 1_555
O61 Si3 1.637198 1_455
O62 P6 1.525762 1_565
O63 Si2 1.681106 1_565
O64 P5 1.568345 1_555
O65 P4 1.556395 1_455
O66 P0 1.558622 1_565
O67 P1 1.537699 1_555
O68 Si0 1.651799 1_555
O69 P2 1.528344 1_555
O70 P3 1.551665 1_455
O71 Si1 1.647125 1_565
