# generated using pymatgen
data_Sr3Fe2Cl2O5
_symmetry_space_group_name_H-M   'P 1'
_cell_length_a   3.99982363
_cell_length_b   3.99982182
_cell_length_c   12.49101295
_cell_angle_alpha   80.78517034
_cell_angle_beta   80.78903738
_cell_angle_gamma   90.00154325
_symmetry_Int_Tables_number   1
_chemical_formula_structural   Sr3Fe2Cl2O5
_chemical_formula_sum   'Sr3 Fe2 Cl2 O5'
_cell_volume   194.64848173
_cell_formula_units_Z   1
loop_
 _symmetry_equiv_pos_site_id
 _symmetry_equiv_pos_as_xyz
  1  'x, y, z'
loop_
 _atom_site_type_symbol
 _atom_site_label
 _atom_site_symmetry_multiplicity
 _atom_site_fract_x
 _atom_site_fract_y
 _atom_site_fract_z
 _atom_site_occupancy
  Sr  Sr0  1  0.65530900  0.65536600  0.68932400  1
  Sr  Sr1  1  0.34469200  0.34463500  0.31067300  1
  Sr  Sr2  1  0.50000200  0.50000200  0.99999800  1
  Fe  Fe0  1  0.92099900  0.92101500  0.15798700  1
  Fe  Fe1  1  0.07899700  0.07898300  0.84202000  1
  Cl  Cl0  1  0.20278500  0.20284200  0.59437200  1
  Cl  Cl1  1  0.79721700  0.79716000  0.40562300  1
  O  O0  1  0.90987300  0.40999400  0.18010900  1
  O  O1  1  0.40989800  0.91001800  0.18010900  1
  O  O2  1  0.09012700  0.59000700  0.81989000  1
  O  O3  1  0.99999900  0.99999800  0.00000300  1
  O  O4  1  0.59010300  0.08998200  0.81989000  1
loop_
_geom_bond_atom_site_label_1
_geom_bond_atom_site_label_2
_geom_bond_distance
_geom_bond_site_symmetry_2
Fe0 O3 1.922129 1_555
Fe0 O0 2.017773 1_555
Fe0 O1 2.017774 1_655
Fe0 O0 2.018108 1_565
Fe0 O1 2.018110 1_555
Fe1 O3 1.922117 1_446
Fe1 O2 2.017782 1_555
Fe1 O4 2.017783 1_455
Fe1 O2 2.018125 1_545
Fe1 O4 2.018126 1_555
Cl0 Fe1 3.013036 1_555
Cl0 Sr0 3.055104 1_555
Cl0 Sr0 3.055105 1_445
Cl0 Sr0 3.055123 1_545
Cl0 Sr0 3.055227 1_455
Cl0 Sr1 3.451655 1_555
Cl1 Fe0 3.012890 1_555
Cl1 Sr1 3.055095 1_555
Cl1 Sr1 3.055096 1_665
Cl1 Sr1 3.055114 1_565
Cl1 Sr1 3.055218 1_655
Cl1 Sr0 3.451679 1_555
O0 Sr1 2.553752 1_555
O0 Sr1 2.554299 1_655
O0 Sr2 2.966503 1_554
O0 Sr2 2.967001 1_654
O1 Sr1 2.553751 1_565
O1 Sr1 2.554299 1_555
O1 Sr2 2.966509 1_564
O1 Sr2 2.966994 1_554
O2 Sr0 2.553767 1_555
O2 Sr0 2.554314 1_455
O2 Sr2 2.966483 1_555
O2 Sr2 2.966968 1_455
O3 Sr2 2.828258 1_554
O3 Sr2 2.828269 1_664
O3 Sr2 2.828337 1_654
O3 Sr2 2.828343 1_564
O4 Sr0 2.553766 1_545
O4 Sr0 2.554314 1_555
O4 Sr2 2.966475 1_545
O4 Sr2 2.966974 1_555
