# generated using pymatgen
data_K8MgCo2(Mo4O15)2
_symmetry_space_group_name_H-M   'P 1'
_cell_length_a   10.64000867
_cell_length_b   10.36087863
_cell_length_c   8.54648238
_cell_angle_alpha   92.17597197
_cell_angle_beta   87.10503928
_cell_angle_gamma   120.39363230
_symmetry_Int_Tables_number   1
_chemical_formula_structural   K8MgCo2(Mo4O15)2
_chemical_formula_sum   'K8 Mg1 Co2 Mo8 O30'
_cell_volume   811.55985919
_cell_formula_units_Z   1
loop_
 _symmetry_equiv_pos_site_id
 _symmetry_equiv_pos_as_xyz
  1  'x, y, z'
loop_
 _atom_site_type_symbol
 _atom_site_label
 _atom_site_symmetry_multiplicity
 _atom_site_fract_x
 _atom_site_fract_y
 _atom_site_fract_z
 _atom_site_occupancy
  K  K0  1  0.03059900  0.66358800  0.16534700  1
  K  K1  1  0.72279400  0.98443700  0.13357400  1
  K  K2  1  0.41504000  0.12283700  0.83857700  1
  K  K3  1  0.05611000  0.01242500  0.03341800  1
  K  K4  1  0.90367200  0.31036900  0.83231900  1
  K  K5  1  0.68838200  0.59061400  0.86733000  1
  K  K6  1  0.31423300  0.42227600  0.12936100  1
  K  K7  1  0.98608400  0.99794500  0.56739600  1
  Mg  Mg0  1  0.39075700  0.93129700  0.12359900  1
  Co  Co0  1  0.34027200  0.69009000  0.45499800  1
  Co  Co1  1  0.67882200  0.34641400  0.51781800  1
  Mo  Mo0  1  0.00200500  0.33291700  0.36253800  1
  Mo  Mo1  1  0.01506000  0.68331900  0.63895600  1
  Mo  Mo2  1  0.32818900  0.03392900  0.40309400  1
  Mo  Mo3  1  0.63273900  0.30701600  0.15714000  1
  Mo  Mo4  1  0.65266300  0.99069000  0.63042700  1
  Mo  Mo5  1  0.32148400  0.65846500  0.82811300  1
  Mo  Mo6  1  0.67732300  0.67046600  0.36014700  1
  Mo  Mo7  1  0.32960200  0.34037900  0.62214000  1
  O  O0  1  0.46839200  0.81961000  0.64856900  1
  O  O1  1  0.67314700  0.49095600  0.33788200  1
  O  O2  1  0.73735500  0.99758900  0.44627000  1
  O  O3  1  0.50065000  0.65130300  0.32793200  1
  O  O4  1  0.17369900  0.49764200  0.91324500  1
  O  O5  1  0.15841100  0.52045600  0.32982500  1
  O  O6  1  0.25315300  0.97869200  0.59549700  1
  O  O7  1  0.37482100  0.87204900  0.34469100  1
  O  O8  1  0.50152500  0.34011800  0.06370200  1
  O  O9  1  0.85140800  0.49952600  0.65321400  1
  O  O10  1  0.33227600  0.52087100  0.62399000  1
  O  O11  1  0.83151000  0.33371100  0.36115200  1
  O  O12  1  0.02258900  0.27410300  0.54690500  1
  O  O13  1  0.72720000  0.73382700  0.55398600  1
  O  O14  1  0.30855600  0.80500900  0.94122000  1
  O  O15  1  0.80461700  0.42275900  0.05595400  1
  O  O16  1  0.24423300  0.99285600  0.20373400  1
  O  O17  1  0.00847600  0.75119400  0.45546100  1
  O  O18  1  0.57330500  0.11048700  0.06526800  1
  O  O19  1  0.76859900  0.00184000  0.78037600  1
  O  O20  1  0.00742800  0.21461600  0.20579700  1
  O  O21  1  0.52538800  0.19879000  0.36841000  1
  O  O22  1  0.51105300  0.37503600  0.65037200  1
  O  O23  1  0.17788100  0.66155700  0.64970900  1
  O  O24  1  0.27412600  0.22766300  0.44460000  1
  O  O25  1  0.64275200  0.16013400  0.65191400  1
  O  O26  1  0.80686300  0.79199600  0.21322200  1
  O  O27  1  0.99280700  0.78794200  0.79831900  1
  O  O28  1  0.47053400  0.66084700  0.91311600  1
  O  O29  1  0.22266400  0.22985000  0.78312600  1
loop_
_geom_bond_atom_site_label_1
_geom_bond_atom_site_label_2
_geom_bond_distance
_geom_bond_site_symmetry_2
K0 O15 2.619270 1_455
K0 O17 2.648267 1_555
K0 O5 2.901152 1_555
K0 O16 3.009402 1_555
K0 O14 3.133481 1_554
K0 O26 3.266418 1_455
K1 O18 2.613410 1_565
K1 O2 2.679062 1_555
K1 O26 2.684810 1_555
K1 O20 2.830037 1_665
K1 O19 3.030808 1_564
K2 O6 2.652571 1_545
K2 O18 2.678057 1_556
K2 O25 2.696960 1_555
K2 O8 2.714847 1_556
K2 O22 2.812605 1_555
K2 O29 2.842175 1_555
K2 O14 3.039845 1_545
K3 O16 2.625601 1_545
K3 O20 2.759306 1_555
K3 O27 2.845528 1_444
K3 O26 2.887318 1_445
K3 O29 2.955418 1_554
K4 O4 2.637372 1_655
K4 O15 2.643705 1_556
K4 O19 2.790879 1_555
K4 O12 2.791405 1_655
K4 O9 2.812446 1_555
K4 O25 2.895659 1_555
K5 O28 2.765644 1_555
K5 O22 2.785954 1_555
K5 O27 2.866557 1_555
K5 O8 2.877113 1_556
K5 O9 2.907382 1_555
K5 O13 3.018908 1_555
K5 O15 3.121464 1_556
K6 O8 2.564747 1_555
K6 O3 2.777897 1_555
K6 O4 2.797696 1_554
K6 O5 2.829505 1_555
K6 O28 2.857978 1_554
K6 O20 2.914900 1_555
K7 O12 2.697195 1_665
K7 O13 2.733087 1_555
K7 O17 2.813453 1_655
K7 O19 2.886712 1_565
K7 O2 2.888264 1_555
K7 O24 2.939856 1_665
K7 O6 2.969579 1_655
K7 O27 3.021944 1_555
K7 O29 3.085648 1_665
Mg0 O14 1.931682 1_554
Mg0 O18 1.947193 1_565
Mg0 O7 1.981516 1_555
Mg0 O16 2.042429 1_555
Co0 O7 1.994186 1_555
Co0 O5 2.145400 1_555
Co0 O0 2.145728 1_555
Co0 O3 2.174001 1_555
Co0 O23 2.252133 1_555
Co0 O10 2.279487 1_555
Co1 O21 2.042233 1_555
Co1 O9 2.086916 1_555
Co1 O11 2.105392 1_555
Co1 O25 2.135355 1_555
Co1 O22 2.205370 1_555
Co1 O1 2.210668 1_555
Mo0 O12 1.773388 1_555
Mo0 O20 1.799787 1_555
Mo0 O11 1.818882 1_455
Mo0 O5 1.829041 1_555
Mo1 O17 1.761682 1_555
Mo1 O27 1.789171 1_455
Mo1 O9 1.820448 1_455
Mo1 O23 1.863722 1_555
Mo2 O6 1.773529 1_545
Mo2 O16 1.896342 1_545
Mo2 O21 1.938311 1_555
Mo2 O7 2.015405 1_545
Mo2 O24 2.362088 1_555
Mo3 O15 1.797293 1_555
Mo3 O8 1.822745 1_555
Mo3 O18 1.946375 1_555
Mo3 O21 2.114635 1_555
Mo3 O1 2.284163 1_555
Mo3 O11 2.708035 1_555
Mo4 O2 1.759086 1_555
Mo4 O19 1.783702 1_565
Mo4 O25 1.813237 1_565
Mo4 O0 1.866450 1_555
Mo5 O4 1.761719 1_555
Mo5 O28 1.766025 1_555
Mo5 O14 1.828967 1_555
Mo5 O0 2.212912 1_555
Mo5 O23 2.224628 1_555
Mo5 O10 2.246209 1_555
Mo6 O13 1.763732 1_555
Mo6 O26 1.803080 1_555
Mo6 O3 1.821908 1_555
Mo6 O1 1.840571 1_555
Mo7 O29 1.772599 1_555
Mo7 O22 1.803751 1_555
Mo7 O24 1.809135 1_555
Mo7 O10 1.855298 1_555
