# generated using pymatgen
data_MgTe4Mo2W2(SeS)2
_symmetry_space_group_name_H-M   'P 1'
_cell_length_a   3.43527501
_cell_length_b   3.43739420
_cell_length_c   38.99263929
_cell_angle_alpha   90.03561553
_cell_angle_beta   89.99648578
_cell_angle_gamma   119.98676414
_symmetry_Int_Tables_number   1
_chemical_formula_structural   MgTe4Mo2W2(SeS)2
_chemical_formula_sum   'Mg1 Te4 Mo2 W2 Se2 S2'
_cell_volume   398.80621669
_cell_formula_units_Z   1
loop_
 _symmetry_equiv_pos_site_id
 _symmetry_equiv_pos_as_xyz
  1  'x, y, z'
loop_
 _atom_site_type_symbol
 _atom_site_label
 _atom_site_symmetry_multiplicity
 _atom_site_fract_x
 _atom_site_fract_y
 _atom_site_fract_z
 _atom_site_occupancy
  Mg  Mg0  1  0.00058500  0.00086300  0.36988300  1
  Te  Te0  1  0.33362900  0.66726100  0.70554700  1
  Te  Te1  1  0.66635900  0.33279300  0.04604300  1
  Te  Te2  1  0.66674700  0.33360900  0.14187400  1
  Te  Te3  1  0.33320200  0.66613000  0.60975900  1
  Mo  Mo0  1  0.33325600  0.66648600  0.47110700  1
  Mo  Mo1  1  0.66741100  0.33465500  0.28032100  1
  W  W0  1  0.33329800  0.66665000  0.09394700  1
  W  W1  1  0.66666100  0.33322900  0.65765800  1
  Se  Se0  1  0.66625900  0.33253600  0.42725000  1
  Se  Se1  1  0.66674100  0.33350400  0.51266900  1
  S  S0  1  0.33188100  0.66458800  0.32121900  1
  S  S1  1  0.33397300  0.66769600  0.24299900  1
loop_
_geom_bond_atom_site_label_1
_geom_bond_atom_site_label_2
_geom_bond_distance
_geom_bond_site_symmetry_2
Mg0 S0 2.740564 1_555
Mg0 S0 2.746643 1_545
Mg0 S0 2.749065 1_445
Mg0 Se0 2.987338 1_555
Mg0 Se0 2.987964 1_455
Mg0 Se0 2.994831 1_445
Te0 W1 2.724529 1_455
Te0 W1 2.724571 1_565
Te0 W1 2.724749 1_555
Te1 W0 2.724833 1_555
Te1 W0 2.724867 1_655
Te1 W0 2.725352 1_545
Te2 W0 2.725424 1_655
Te2 W0 2.725593 1_555
Te2 W0 2.725879 1_545
Te3 W1 2.724562 1_555
Te3 W1 2.724654 1_455
Te3 W1 2.725435 1_565
Mo0 Se1 2.561484 1_455
Mo0 Se1 2.561672 1_555
Mo0 Se1 2.562373 1_565
Mo0 Se0 2.619305 1_555
Mo0 Se0 2.619379 1_455
Mo0 Se0 2.619427 1_565
Mo1 S1 2.460291 1_655
Mo1 S1 2.460389 1_555
Mo1 S1 2.461092 1_545
Mo1 S0 2.539733 1_655
Mo1 S0 2.542073 1_555
Mo1 S0 2.554873 1_545
