# generated using pymatgen
data_Na6MgTi7Si6(SO8)6
_symmetry_space_group_name_H-M   'P 1'
_cell_length_a   17.55482154
_cell_length_b   8.75650838
_cell_length_c   22.48755649
_cell_angle_alpha   89.91821101
_cell_angle_beta   90.10786996
_cell_angle_gamma   119.96340098
_symmetry_Int_Tables_number   1
_chemical_formula_structural   Na6MgTi7Si6(SO8)6
_chemical_formula_sum   'Na18 Mg3 Ti21 Si18 S18 O144'
_cell_volume   2994.74256453
_cell_formula_units_Z   3
loop_
 _symmetry_equiv_pos_site_id
 _symmetry_equiv_pos_as_xyz
  1  'x, y, z'
loop_
 _atom_site_type_symbol
 _atom_site_label
 _atom_site_symmetry_multiplicity
 _atom_site_fract_x
 _atom_site_fract_y
 _atom_site_fract_z
 _atom_site_occupancy
  Na  Na0  1  0.68577818  0.37502059  0.25075843  1
  Na  Na1  1  0.99731373  0.64002352  0.25052819  1
  Na  Na2  1  0.99802294  0.36215974  0.75160229  1
  Na  Na3  1  0.49494779  0.36169366  0.74922763  1
  Na  Na4  1  0.18902602  0.00960543  0.75097453  1
  Na  Na5  1  0.68491932  0.00686180  0.74913240  1
  Na  Na6  1  0.99877239  0.99873617  0.49582168  1
  Na  Na7  1  0.50269595  0.00025526  0.50035088  1
  Na  Na8  1  0.00394156  0.00507827  0.99949595  1
  Na  Na9  1  0.50085127  0.99646218  0.99825748  1
  Na  Na10  1  0.33247084  0.33625823  0.82942964  1
  Na  Na11  1  0.83001750  0.33404176  0.83039615  1
  Na  Na12  1  0.33338328  0.33138738  0.33020586  1
  Na  Na13  1  0.83333829  0.33175989  0.33423937  1
  Na  Na14  1  0.17117313  0.66801739  0.16521611  1
  Na  Na15  1  0.66549072  0.66816022  0.16950936  1
  Na  Na16  1  0.17339172  0.66748932  0.66710047  1
  Na  Na17  1  0.66921853  0.66391703  0.66478793  1
  Mg  Mg0  1  0.33315815  0.33625020  0.68833843  1
  Mg  Mg1  1  0.82942435  0.33246472  0.68537554  1
  Mg  Mg2  1  0.83367273  0.33349095  0.18499516  1
  Ti  Ti0  1  0.00089355  0.98554951  0.35755185  1
  Ti  Ti1  1  0.50294598  0.01289563  0.35718283  1
  Ti  Ti2  1  0.00873496  0.02412032  0.85642549  1
  Ti  Ti3  1  0.50484139  0.00011999  0.84837202  1
  Ti  Ti4  1  0.99698066  0.00832580  0.65020124  1
  Ti  Ti5  1  0.50030401  0.00372433  0.65437008  1
  Ti  Ti6  1  0.00494664  0.99339052  0.15007345  1
  Ti  Ti7  1  0.49976688  0.00280696  0.14624452  1
  Ti  Ti8  1  0.33408167  0.33951655  0.18692650  1
  Ti  Ti9  1  0.32478789  0.33239497  0.98313113  1
  Ti  Ti10  1  0.83294918  0.32335526  0.97400759  1
  Ti  Ti11  1  0.33580166  0.35001563  0.47611619  1
  Ti  Ti12  1  0.83044434  0.32912231  0.47166836  1
  Ti  Ti13  1  0.15983341  0.65428496  0.01784577  1
  Ti  Ti14  1  0.65776022  0.67224824  0.02015611  1
  Ti  Ti15  1  0.16068258  0.65562506  0.51624357  1
  Ti  Ti16  1  0.66663000  0.67024046  0.51257242  1
  Ti  Ti17  1  0.16244402  0.66067938  0.31555607  1
  Ti  Ti18  1  0.66796896  0.66284609  0.31639432  1
  Ti  Ti19  1  0.17149484  0.67295798  0.81592675  1
  Ti  Ti20  1  0.66990098  0.67983302  0.80791707  1
  Si  Si0  1  0.14868407  0.00535794  0.25240507  1
  Si  Si1  1  0.85415536  0.71382972  0.24980526  1
  Si  Si2  1  0.49758320  0.29043060  0.24997786  1
  Si  Si3  1  0.14728594  0.29678999  0.75007107  1
  Si  Si4  1  0.64845593  0.29580188  0.75073069  1
  Si  Si5  1  0.49603592  0.70743154  0.75013224  1
  Si  Si6  1  0.35445829  0.99376790  0.75184258  1
  Si  Si7  1  0.85768792  0.00058807  0.75204391  1
  Si  Si8  1  0.47458500  0.62090843  0.08348209  1
  Si  Si9  1  0.18563715  0.33428584  0.08555813  1
  Si  Si10  1  0.02284256  0.38114175  0.91522388  1
  Si  Si11  1  0.16776919  0.95795701  0.91767254  1
  Si  Si12  1  0.66232494  0.95410385  0.91543824  1
  Si  Si13  1  0.81184362  0.95205465  0.41526858  1
  Si  Si14  1  0.16526732  0.37473944  0.41530664  1
  Si  Si15  1  0.66575739  0.38050703  0.41722560  1
  Si  Si16  1  0.02181192  0.66465046  0.41737613  1
  Si  Si17  1  0.52396716  0.67046375  0.41473955  1
  S  S0  1  0.64295051  0.99703017  0.24948739  1
  S  S1  1  0.35651616  0.71445654  0.25055733  1
  S  S2  1  -0.00013307  0.28543657  0.25006124  1
  S  S3  1  0.99824293  0.71279690  0.75025921  1
  S  S4  1  0.47879101  0.33371791  0.58314954  1
  S  S5  1  0.97818879  0.33417591  0.58359594  1
  S  S6  1  0.18806568  0.04146632  0.58322759  1
  S  S7  1  0.68750839  0.04111301  0.58305332  1
  S  S8  1  0.33328320  0.62484512  0.58333505  1
  S  S9  1  0.83356569  0.62372592  0.58330690  1
  S  S10  1  0.97737871  0.62184898  0.08286576  1
  S  S11  1  0.33301378  0.04472601  0.08363392  1
  S  S12  1  0.83339536  0.04315022  0.08281244  1
  S  S13  1  0.68896523  0.33483911  0.08277457  1
  S  S14  1  0.31198200  0.66866411  0.91792740  1
  S  S15  1  0.80992485  0.66626044  0.91789981  1
  S  S16  1  0.52148954  0.37782589  0.91689154  1
  S  S17  1  0.30989162  0.95466927  0.41733192  1
  O  O0  1  0.09898296  0.03192629  0.30838271  1
  O  O1  1  0.60305155  0.02972263  0.30276117  1
  O  O2  1  0.41017151  0.79371206  0.30396976  1
  O  O3  1  0.92066058  0.80850455  0.30612243  1
  O  O4  1  0.48651237  0.15910381  0.30657228  1
  O  O5  1  0.98646452  0.18279130  0.30401312  1
  O  O6  1  0.09772587  0.16393614  0.80706874  1
  O  O7  1  0.59966168  0.16391672  0.80738345  1
  O  O8  1  0.48569963  0.80503129  0.80868233  1
  O  O9  1  0.98517988  0.79046252  0.80368034  1
  O  O10  1  0.41877240  0.02998705  0.80902135  1
  O  O11  1  0.92085066  0.02737410  0.80813621  1
  O  O12  1  0.40107416  0.96052265  0.69254109  1
  O  O13  1  0.90179633  0.96466840  0.69163663  1
  O  O14  1  0.07785205  0.19221216  0.69302477  1
  O  O15  1  0.58081826  0.20397929  0.69299612  1
  O  O16  1  0.01558090  0.82615098  0.69603736  1
  O  O17  1  0.52206965  0.84358633  0.69281674  1
  O  O18  1  0.39824195  0.82295871  0.19614444  1
  O  O19  1  0.90415550  0.83899145  0.19073907  1
  O  O20  1  0.01562776  0.20986887  0.19585238  1
  O  O21  1  0.51390990  0.18492493  0.19324909  1
  O  O22  1  0.08176532  0.96108205  0.19376462  1
  O  O23  1  0.58813577  0.97226728  0.19530423  1
  O  O24  1  0.43972844  0.35857878  0.63724908  1
  O  O25  1  0.94226493  0.36254636  0.63834963  1
  O  O26  1  0.23966710  0.11738190  0.63743039  1
  O  O27  1  0.73926851  0.11749782  0.63764223  1
  O  O28  1  0.31806509  0.51687150  0.63539714  1
  O  O29  1  0.82132367  0.51887983  0.63698415  1
  O  O30  1  0.43235275  0.49789192  0.14173137  1
  O  O31  1  0.94070175  0.51883976  0.13778458  1
  O  O32  1  0.31893388  0.12313886  0.13726008  1
  O  O33  1  0.81741733  0.12080903  0.13601954  1
  O  O34  1  0.25145274  0.36226870  0.14091151  1
  O  O35  1  0.73953303  0.35991375  0.13788858  1
  O  O36  1  0.23293875  0.30105808  0.02636991  1
  O  O37  1  0.73096484  0.30616379  0.03049585  1
  O  O38  1  0.41549348  0.52626207  0.02443344  1
  O  O39  1  0.92214192  0.53555935  0.03037933  1
  O  O40  1  0.34974471  0.15436939  0.02975978  1
  O  O41  1  0.84507443  0.15605761  0.02929476  1
  O  O42  1  0.23023278  0.15243850  0.53000055  1
  O  O43  1  0.73164496  0.15358406  0.53049091  1
  O  O44  1  0.34551967  0.53805066  0.52893874  1
  O  O45  1  0.84677611  0.54047803  0.52985760  1
  O  O46  1  0.42234315  0.30931204  0.53001769  1
  O  O47  1  0.92448160  0.30875276  0.53076630  1
  O  O48  1  0.26960826  0.69261997  0.97085116  1
  O  O49  1  0.76833657  0.69092602  0.97130416  1
  O  O50  1  0.08381845  0.46875454  0.97438117  1
  O  O51  1  0.57918905  0.46477822  0.97050333  1
  O  O52  1  0.15534667  0.82991226  0.97460349  1
  O  O53  1  0.65315839  0.83129738  0.97384124  1
  O  O54  1  0.26999497  0.84466585  0.47092165  1
  O  O55  1  0.76479911  0.83063590  0.47452576  1
  O  O56  1  0.15549758  0.47927210  0.47379555  1
  O  O57  1  0.64853676  0.46740696  0.47553366  1
  O  O58  1  0.08614835  0.69624266  0.47472466  1
  O  O59  1  0.58324186  0.70146578  0.47466865  1
  O  O60  1  0.06780613  0.63384793  0.35810991  1
  O  O61  1  0.56643029  0.62976833  0.35749684  1
  O  O62  1  0.25599398  0.87694363  0.36306700  1
  O  O63  1  0.74714223  0.86520355  0.35815445  1
  O  O64  1  0.18568290  0.50899790  0.35872656  1
  O  O65  1  0.68457569  0.49419405  0.35647932  1
  O  O66  1  0.06577185  0.49892879  0.85606645  1
  O  O67  1  0.56273784  0.48526498  0.86297837  1
  O  O68  1  0.18258190  0.86517802  0.85758391  1
  O  O69  1  0.68315119  0.86705822  0.85814493  1
  O  O70  1  0.25641959  0.63681320  0.86340042  1
  O  O71  1  0.75554176  0.63250689  0.86387290  1
  O  O72  1  0.01412130  0.83888437  0.41243888  1
  O  O73  1  0.50716353  0.83585618  0.40552304  1
  O  O74  1  0.39762172  0.97034666  0.41093738  1
  O  O75  1  0.90881233  0.97919081  0.40781597  1
  O  O76  1  0.07925290  0.18724610  0.40949968  1
  O  O77  1  0.57965719  0.18262003  0.40873964  1
  O  O78  1  0.00962514  0.18400051  0.91153565  1
  O  O79  1  0.51369649  0.20252209  0.91336100  1
  O  O80  1  0.07831348  0.96839682  0.90918919  1
  O  O81  1  0.57706118  0.97691482  0.91248657  1
  O  O82  1  0.39852900  0.82652474  0.91205559  1
  O  O83  1  0.89839129  0.81991440  0.91123321  1
  O  O84  1  0.48696992  0.17146454  0.58650151  1
  O  O85  1  0.98876642  0.17387230  0.58827856  1
  O  O86  1  0.09807877  0.01956032  0.58880627  1
  O  O87  1  0.59891638  0.02499492  0.58705036  1
  O  O88  1  0.41367560  0.80116112  0.58639975  1
  O  O89  1  0.91496532  0.80292358  0.58889827  1
  O  O90  1  0.48961298  0.82035975  0.09379480  1
  O  O91  1  0.98599503  0.79967563  0.08717699  1
  O  O92  1  0.41352952  0.02553155  0.09047757  1
  O  O93  1  0.91230815  0.02762906  0.08730831  1
  O  O94  1  0.08816217  0.15960638  0.09245866  1
  O  O95  1  0.59934893  0.17319846  0.08855009  1
  O  O96  1  0.34441210  0.16359807  0.74362415  1
  O  O97  1  0.84911833  0.17335327  0.74385413  1
  O  O98  1  0.23728579  0.30061757  0.74343645  1
  O  O99  1  0.74092241  0.30599653  0.74501345  1
  O  O100  1  0.41730266  0.51334646  0.74469769  1
  O  O101  1  0.92332009  0.53448599  0.74226951  1
  O  O102  1  0.34726277  0.53771394  0.24433832  1
  O  O103  1  0.84486500  0.51862368  0.24422045  1
  O  O104  1  0.41067133  0.30561270  0.24222390  1
  O  O105  1  0.92350889  0.31334666  0.24258120  1
  O  O106  1  0.24341305  0.17577302  0.24111428  1
  O  O107  1  0.73026320  0.15805055  0.24273348  1
  O  O108  1  0.31975954  0.50738262  0.92245773  1
  O  O109  1  0.81921993  0.50464552  0.92591369  1
  O  O110  1  0.43458217  0.36230359  0.92408087  1
  O  O111  1  0.92564494  0.36194642  0.92729737  1
  O  O112  1  0.25632454  0.15213452  0.92549878  1
  O  O113  1  0.75147841  0.14859581  0.92775641  1
  O  O114  1  0.31996794  0.13187192  0.42468328  1
  O  O115  1  0.82024639  0.14595755  0.42779803  1
  O  O116  1  0.25346419  0.35701401  0.42801312  1
  O  O117  1  0.75103459  0.35445600  0.42635621  1
  O  O118  1  0.42608855  0.49223706  0.42791655  1
  O  O119  1  0.92627601  0.49068271  0.42667294  1
  O  O120  1  0.18024629  0.51417993  0.07542382  1
  O  O121  1  0.67881895  0.49178959  0.07475009  1
  O  O122  1  0.06726697  0.64401523  0.07680071  1
  O  O123  1  0.57423622  0.64174936  0.07438988  1
  O  O124  1  0.25579296  0.86703824  0.07692111  1
  O  O125  1  0.75411566  0.86370617  0.07455029  1
  O  O126  1  0.17916600  0.86230979  0.57575763  1
  O  O127  1  0.67800963  0.86243226  0.57720319  1
  O  O128  1  0.25452871  0.64681485  0.57466704  1
  O  O129  1  0.75473416  0.64509753  0.57758065  1
  O  O130  1  0.06936381  0.49328041  0.57710381  1
  O  O131  1  0.56783867  0.49231586  0.57700096  1
  O  O132  1  0.15351739  0.82083928  0.25845495  1
  O  O133  1  0.65067681  0.83916762  0.25435616  1
  O  O134  1  0.26827107  0.69769942  0.25518488  1
  O  O135  1  0.75648643  0.69169565  0.25484353  1
  O  O136  1  0.08043483  0.46914787  0.25496684  1
  O  O137  1  0.58805594  0.47779888  0.25501277  1
  O  O138  1  0.14674486  0.48075794  0.75648317  1
  O  O139  1  0.64879680  0.47988625  0.76052719  1
  O  O140  1  0.08037675  0.69817247  0.75405016  1
  O  O141  1  0.58774417  0.69696461  0.75887565  1
  O  O142  1  0.25539772  0.81971898  0.75747602  1
  O  O143  1  0.75960806  0.82606635  0.75636373  1
loop_
_geom_bond_atom_site_label_1
_geom_bond_atom_site_label_2
_geom_bond_distance
_geom_bond_site_symmetry_2
Na0 O137 2.303282 1_555
Na0 O107 2.394908 1_555
Na0 O135 2.408453 1_555
Na0 O103 2.428038 1_555
Na0 O65 2.602068 1_555
Na0 O35 2.735863 1_555
Na0 O1 2.868601 1_555
Na0 O21 2.919089 1_555
Na1 O103 2.338698 1_555
Na1 O132 2.391661 1_655
Na1 O105 2.488334 1_555
Na1 O136 2.560846 1_655
Na1 O60 2.728049 1_655
Na1 O31 2.736122 1_555
Na1 O3 2.746784 1_555
Na1 O22 2.750374 1_655
Na2 O138 2.279842 1_655
Na2 O97 2.297583 1_555
Na2 O101 2.452661 1_555
Na2 O140 2.549782 1_655
Na2 O66 2.634765 1_655
Na2 O25 2.727282 1_555
Na2 O14 2.830081 1_655
Na2 O11 2.841531 1_555
Na3 O96 2.329969 1_555
Na3 O100 2.332137 1_555
Na3 O139 2.374034 1_555
Na3 O141 2.557932 1_555
Na3 O24 2.691831 1_555
Na3 O67 2.800082 1_555
Na3 O15 2.805401 1_555
Na3 O10 2.854581 1_555
Na4 O98 2.254526 1_555
Na4 O96 2.369232 1_555
Na4 O140 2.425668 1_545
Na4 O142 2.465259 1_545
Na4 O68 2.684981 1_545
Na4 O26 2.713683 1_555
Na4 O6 2.856981 1_555
Na4 O16 2.912609 1_545
Na5 O99 2.294247 1_555
Na5 O141 2.386941 1_545
Na5 O97 2.500269 1_555
Na5 O143 2.514710 1_545
Na5 O27 2.685773 1_555
Na5 O69 2.731823 1_545
Na5 O17 2.780175 1_545
Na5 O7 2.813511 1_555
Na6 O72 2.435965 1_655
Na6 O75 2.481744 1_555
Na6 O76 2.482058 1_665
Na6 O89 2.639491 1_555
Na6 O85 2.642927 1_565
Na6 O86 2.667294 1_665
Na7 O87 2.514868 1_555
Na7 O77 2.542720 1_555
Na7 O84 2.549652 1_555
Na7 O88 2.550718 1_545
Na7 O73 2.597689 1_545
Na7 O74 2.649313 1_545
Na8 O78 2.492567 1_555
Na8 O80 2.522404 1_545
Na8 O94 2.526884 1_556
Na8 O91 2.578405 1_446
Na8 O93 2.618466 1_456
Na8 O83 2.645005 1_445
Na9 O81 2.403899 1_555
Na9 O82 2.554144 1_555
Na9 O79 2.556689 1_565
Na9 O90 2.592430 1_556
Na9 O95 2.613501 1_566
Na9 O92 2.668059 1_566
Na10 O100 2.438947 1_555
Na10 O98 2.469339 1_555
Na10 O96 2.525749 1_555
Na10 O112 2.627087 1_555
Na10 O108 2.648814 1_555
Na10 O110 2.715565 1_555
Na11 O99 2.408217 1_555
Na11 O97 2.522145 1_555
Na11 O101 2.611784 1_555
Na11 O113 2.663851 1_555
Na11 O109 2.678602 1_555
Na11 O111 2.684060 1_555
Na12 O104 2.474572 1_555
Na12 O106 2.492235 1_555
Na12 O102 2.569863 1_555
Na12 O118 2.676949 1_555
Na12 O116 2.680249 1_555
Na12 O114 2.683610 1_555
Na13 O103 2.545094 1_555
Na13 O119 2.578094 1_555
Na13 O117 2.591782 1_555
Na13 O115 2.597083 1_555
Na13 O105 2.654854 1_555
Na13 O107 2.658531 1_555
Na14 O120 2.478002 1_555
Na14 O124 2.569324 1_555
Na14 O134 2.571425 1_555
Na14 O132 2.589937 1_555
Na14 O136 2.621927 1_555
Na14 O122 2.632311 1_555
Na15 O135 2.436666 1_555
Na15 O137 2.461851 1_555
Na15 O133 2.519798 1_555
Na15 O123 2.610274 1_555
Na15 O125 2.693218 1_555
Na15 O121 2.711616 1_555
Na16 O142 2.461613 1_555
Na16 O138 2.482467 1_555
Na16 O128 2.579131 1_555
Na16 O126 2.637766 1_555
Na16 O130 2.640074 1_555
Na16 O140 2.648267 1_555
Na17 O129 2.527003 1_555
Na17 O143 2.553463 1_555
Na17 O131 2.578048 1_555
Na17 O127 2.578391 1_555
Na17 O139 2.603159 1_555
Na17 O141 2.651906 1_555
Mg0 O100 1.975713 1_555
Mg0 O98 1.986778 1_555
Mg0 O96 2.040187 1_555
Mg0 O28 2.097872 1_555
Mg0 O24 2.121365 1_555
Mg0 O26 2.129426 1_555
Mg1 O99 1.978219 1_555
Mg1 O29 2.023655 1_555
Mg1 O27 2.055197 1_555
Mg1 O97 2.065004 1_555
Mg1 O101 2.137540 1_555
Mg1 O25 2.144182 1_555
Mg2 O103 2.031604 1_555
Mg2 O33 2.058289 1_555
Mg2 O31 2.061060 1_555
Mg2 O35 2.069162 1_555
Mg2 O105 2.112985 1_555
Mg2 O107 2.135131 1_555
O0 Si0 1.614831 1_555
O0 Ti0 1.913097 1_545
O1 S0 1.487334 1_545
O1 Ti1 2.087243 1_555
O2 S1 1.468559 1_555
O2 Ti1 2.155203 1_565
O3 Si1 1.638533 1_555
O3 Ti0 1.882183 1_655
O4 Si2 1.659333 1_555
O4 Ti1 1.838791 1_555
O5 S2 1.456679 1_655
O5 Ti0 2.219601 1_645
O6 Si3 1.655921 1_555
O6 Ti2 1.806512 1_555
O7 Si4 1.643844 1_555
O7 Ti3 1.815133 1_555
O8 Si5 1.629693 1_555
O8 Ti3 1.804885 1_565
O9 S3 1.455127 1_555
O9 Ti2 2.219018 1_665
O10 Si6 1.632976 1_545
O10 Ti3 1.877063 1_555
O11 Si7 1.615965 1_555
O11 Ti2 1.896768 1_655
O12 Si6 1.666115 1_555
O12 Ti5 1.805768 1_565
O13 Si7 1.670998 1_565
O13 Ti4 1.781344 1_565
O14 Si3 1.688922 1_555
O14 Ti4 1.803177 1_455
O15 Si4 1.668973 1_555
O15 Ti5 1.830599 1_555
O16 S3 1.503585 1_455
O16 Ti4 2.056234 1_465
O17 Si5 1.656831 1_555
O17 Ti5 1.841269 1_565
O18 S1 1.497113 1_555
O18 Ti7 2.028434 1_565
O19 Si1 1.665885 1_555
O19 Ti6 1.846036 1_655
O20 S2 1.478811 1_555
O20 Ti6 2.082792 1_545
O21 Si2 1.682942 1_555
O21 Ti7 1.824933 1_555
O22 Si0 1.676287 1_565
O22 Ti6 1.799784 1_555
O23 S0 1.498498 1_555
O23 Ti7 2.025407 1_565
O24 S4 1.466517 1_555
O25 S5 1.461421 1_555
O26 S6 1.464517 1_555
O27 S7 1.473430 1_555
O28 S8 1.442794 1_555
O29 S9 1.465201 1_555
O30 Si8 1.621015 1_555
O30 Ti8 1.882829 1_555
O31 S10 1.474129 1_555
O32 S11 1.469626 1_555
O32 Ti8 2.099930 1_555
O33 S12 1.472014 1_555
O34 Si9 1.630044 1_555
O34 Ti8 1.870004 1_555
O35 S13 1.474529 1_555
O36 Si9 1.671028 1_555
O36 Ti9 1.784303 1_554
O37 S13 1.475727 1_555
O37 Ti10 2.140168 1_554
O38 Si8 1.632586 1_555
O38 Ti9 1.891765 1_554
O39 S10 1.473311 1_555
O39 Ti10 2.145784 1_554
O40 S11 1.480579 1_555
O40 Ti9 2.096988 1_554
O41 S12 1.504306 1_555
O41 Ti10 2.010566 1_554
O42 S6 1.485392 1_555
O42 Ti11 2.166965 1_555
O43 S7 1.485021 1_555
O43 Ti12 2.111967 1_555
O44 S8 1.512219 1_555
O44 Ti11 1.968601 1_555
O45 S9 1.483998 1_555
O45 Ti12 2.166834 1_555
O46 S4 1.496633 1_555
O46 Ti11 2.106419 1_555
O47 S5 1.461751 1_555
O47 Ti12 2.192788 1_555
O48 S14 1.474330 1_555
O48 Ti13 2.074515 1_556
O49 S15 1.477651 1_555
O49 Ti14 2.166110 1_556
O50 Si10 1.637476 1_555
O50 Ti13 1.791498 1_556
O51 S16 1.512224 1_555
O51 Ti14 1.986610 1_556
O52 Si11 1.642079 1_555
O52 Ti13 1.852919 1_556
O53 Si12 1.652592 1_555
O53 Ti14 1.771679 1_556
O54 S17 1.482099 1_555
O54 Ti15 2.071427 1_555
O55 Si13 1.646556 1_555
O55 Ti16 1.805244 1_555
O56 Si14 1.660815 1_555
O56 Ti15 1.779775 1_555
O57 Si15 1.619815 1_555
O57 Ti16 1.840902 1_555
O58 Si16 1.642768 1_555
O58 Ti15 1.780317 1_555
O59 Si17 1.638974 1_555
O59 Ti16 1.827192 1_555
O60 Si16 1.650310 1_555
O60 Ti17 1.829331 1_555
O61 Si17 1.615527 1_555
O61 Ti18 1.898741 1_555
O62 S17 1.484021 1_555
O62 Ti17 2.077812 1_555
O63 Si13 1.628646 1_555
O63 Ti18 1.869009 1_555
O64 Si14 1.644994 1_555
O64 Ti17 1.846366 1_555
O65 Si15 1.623429 1_555
O65 Ti18 1.871829 1_555
O66 Si10 1.620148 1_555
O66 Ti19 1.938762 1_555
O67 S16 1.482850 1_555
O67 Ti20 2.185416 1_555
O68 Si11 1.664029 1_555
O68 Ti19 1.850696 1_555
O69 Si12 1.630188 1_555
O69 Ti20 1.908145 1_555
O70 S14 1.502471 1_555
O70 Ti19 1.981627 1_555
O71 S15 1.479745 1_555
O71 Ti20 2.151522 1_555
O72 Si16 1.601083 1_555
O72 Ti0 1.875901 1_555
O73 Si17 1.628829 1_555
O73 Ti1 1.923531 1_565
O74 S17 1.483570 1_555
O74 Ti1 2.082704 1_565
O75 Si13 1.605984 1_555
O75 Ti0 1.952046 1_655
O76 Si14 1.586218 1_555
O76 Ti0 1.987264 1_545
O77 Si15 1.645368 1_555
O77 Ti1 1.834745 1_555
O78 Si10 1.625102 1_555
O78 Ti2 1.865234 1_555
O79 S16 1.473747 1_555
O79 Ti3 2.243321 1_555
O80 Si11 1.628822 1_555
O80 Ti2 1.930303 1_565
O81 Si12 1.607146 1_555
O81 Ti3 1.994231 1_565
O82 S14 1.462508 1_555
O82 Ti3 2.239343 1_565
O83 S15 1.468910 1_555
O83 Ti2 2.238631 1_665
O84 S4 1.499438 1_555
O84 Ti5 2.208437 1_555
O85 S5 1.508578 1_555
O85 Ti4 2.064817 1_555
O86 S6 1.498663 1_555
O86 Ti4 2.213596 1_455
O87 S7 1.492626 1_555
O87 Ti5 2.238353 1_555
O88 S8 1.484444 1_555
O88 Ti5 2.258245 1_565
O89 S9 1.509990 1_555
O89 Ti4 2.149702 1_565
O90 Si8 1.647519 1_555
O90 Ti7 1.922335 1_565
O91 S10 1.490661 1_555
O91 Ti6 2.104724 1_655
O92 S11 1.512004 1_555
O92 Ti7 2.048696 1_555
O93 S12 1.461250 1_555
O93 Ti6 2.281207 1_645
O94 Si9 1.636344 1_555
O94 Ti6 1.951652 1_545
O95 S13 1.507047 1_555
O95 Ti7 2.088791 1_555
O96 Si6 1.593064 1_545
O97 Si7 1.603623 1_555
O98 Si3 1.570842 1_555
O99 Si4 1.585998 1_555
O100 Si5 1.570726 1_555
O101 S3 1.465830 1_555
O102 S1 1.480057 1_555
O102 Ti8 2.082428 1_555
O103 Si1 1.638971 1_555
O104 Si2 1.605443 1_555
O104 Ti8 1.957941 1_555
O105 S2 1.486978 1_655
O106 Si0 1.605735 1_555
O106 Ti8 1.948537 1_555
O107 S0 1.483898 1_545
O108 S14 1.488506 1_555
O108 Ti9 2.084692 1_555
O109 S15 1.513826 1_555
O109 Ti10 2.030792 1_555
O110 S16 1.471709 1_555
O110 Ti9 2.247501 1_555
O111 Si10 1.651821 1_655
O111 Ti10 1.822536 1_555
O112 Si11 1.642629 1_545
O112 Ti9 1.928891 1_555
O113 Si12 1.662489 1_545
O113 Ti10 1.811562 1_555
O114 S17 1.480801 1_545
O114 Ti11 2.130375 1_555
O115 Si13 1.653808 1_545
O115 Ti12 1.815154 1_555
O116 Si14 1.655646 1_555
O116 Ti11 1.829075 1_555
O117 Si15 1.635576 1_555
O117 Ti12 1.825842 1_555
O118 Si17 1.672653 1_555
O118 Ti11 1.807987 1_555
O119 Si16 1.620316 1_655
O119 Ti12 1.865570 1_555
O120 Si9 1.640149 1_555
O120 Ti13 1.934648 1_555
O121 S13 1.482156 1_555
O121 Ti14 2.171898 1_555
O122 S10 1.497018 1_455
O122 Ti13 2.065936 1_555
O123 Si8 1.678605 1_555
O123 Ti14 1.822979 1_555
O124 S11 1.474571 1_565
O124 Ti13 2.221944 1_555
O125 S12 1.501962 1_565
O125 Ti14 2.081690 1_555
O126 S6 1.506501 1_565
O126 Ti15 2.142567 1_555
O127 S7 1.494336 1_565
O127 Ti16 2.157443 1_555
O128 S8 1.500306 1_555
O128 Ti15 2.136502 1_555
O129 S9 1.491530 1_555
O129 Ti16 2.215490 1_555
O130 S5 1.515579 1_455
O130 Ti15 2.046982 1_555
O131 S4 1.491026 1_555
O131 Ti16 2.199590 1_555
O132 Si0 1.665110 1_565
O132 Ti17 1.963122 1_555
O133 S0 1.458767 1_555
O133 Ti18 2.209673 1_555
O134 S1 1.485146 1_555
O134 Ti17 2.192298 1_555
O135 Si1 1.630597 1_555
O135 Ti18 2.002309 1_555
O136 S2 1.525646 1_555
O136 Ti17 2.080660 1_555
O137 Si2 1.619910 1_555
O137 Ti18 2.056053 1_555
O138 Si3 1.622309 1_555
O138 Ti19 2.020385 1_555
O139 Si4 1.624278 1_555
O139 Ti20 1.922048 1_555
O140 S3 1.512126 1_455
O140 Ti19 2.210658 1_555
O141 Si5 1.668849 1_555
O141 Ti20 1.878418 1_555
O142 Si6 1.647963 1_555
O142 Ti19 1.913205 1_555
O143 Si7 1.637450 1_565
O143 Ti20 1.857952 1_555
