# generated using pymatgen
data_MgCo7O12
_symmetry_space_group_name_H-M   'P 1'
_cell_length_a   5.04577009
_cell_length_b   5.04959232
_cell_length_c   9.72882666
_cell_angle_alpha   83.64876831
_cell_angle_beta   95.91534878
_cell_angle_gamma   60.07993253
_symmetry_Int_Tables_number   1
_chemical_formula_structural   MgCo7O12
_chemical_formula_sum   'Mg1 Co7 O12'
_cell_volume   209.89224094
_cell_formula_units_Z   1
loop_
 _symmetry_equiv_pos_site_id
 _symmetry_equiv_pos_as_xyz
  1  'x, y, z'
loop_
 _atom_site_type_symbol
 _atom_site_label
 _atom_site_symmetry_multiplicity
 _atom_site_fract_x
 _atom_site_fract_y
 _atom_site_fract_z
 _atom_site_occupancy
  Mg  Mg0  1  0.93336000  0.93419000  0.75037800  1
  Co  Co0  1  0.07872000  0.07762000  0.25066000  1
  Co  Co1  1  0.99965900  0.51396700  0.98298500  1
  Co  Co2  1  0.25262700  0.25345500  0.75020000  1
  Co  Co3  1  0.51498400  0.00328200  0.51782900  1
  Co  Co4  1  0.41320000  0.41385400  0.24939700  1
  Co  Co5  1  0.58184100  0.58306400  0.75004200  1
  Co  Co6  1  0.74428500  0.74506200  0.24958700  1
  O  O0  1  0.96364500  0.24044100  0.86002000  1
  O  O1  1  0.23984800  0.96627200  0.64028600  1
  O  O2  1  0.17906500  0.33823800  0.36653200  1
  O  O3  1  0.33872300  0.17959600  0.13343500  1
  O  O4  1  0.29099900  0.52289900  0.85802600  1
  O  O5  1  0.52271300  0.29297400  0.64223500  1
  O  O6  1  0.45885100  0.70778500  0.34979200  1
  O  O7  1  0.71049400  0.45987400  0.14920400  1
  O  O8  1  0.63568500  0.84423300  0.86386400  1
  O  O9  1  0.84457800  0.63771400  0.63619500  1
  O  O10  1  0.76175700  0.03837700  0.35326700  1
  O  O11  1  0.03854800  0.76318400  0.14606500  1
loop_
_geom_bond_atom_site_label_1
_geom_bond_atom_site_label_2
_geom_bond_distance
_geom_bond_site_symmetry_2
Mg0 O4 2.014214 1_655
Mg0 O5 2.016589 1_565
Mg0 O1 2.029269 1_655
Mg0 O0 2.029721 1_565
Mg0 O8 2.143088 1_555
Mg0 O9 2.147177 1_555
Co0 O6 1.934832 1_545
Co0 O7 1.942924 1_455
Co0 O2 2.033309 1_555
Co0 O3 2.034531 1_555
Co0 O10 2.048184 1_455
Co0 O11 2.057573 1_545
Co1 O8 1.890890 1_555
Co1 O0 1.985702 1_555
Co1 O3 1.993896 1_656
Co1 O4 2.015774 1_655
Co1 O11 2.182505 1_656
Co1 O7 2.367426 1_556
Co2 O5 1.876239 1_555
Co2 O4 1.877718 1_555
Co2 O1 1.916440 1_545
Co2 O0 1.916552 1_455
Co2 O8 2.073214 1_545
Co2 O9 2.074147 1_455
Co3 O9 1.889939 1_545
Co3 O1 1.982937 1_545
Co3 O2 1.993828 1_555
Co3 O5 2.011259 1_555
Co3 O10 2.171006 1_555
Co3 O6 2.417673 1_545
Co4 O3 1.861342 1_555
Co4 O2 1.863159 1_555
Co4 O11 1.893476 1_555
Co4 O10 1.895371 1_555
Co4 O6 1.955868 1_555
Co4 O7 1.963011 1_555
Co5 O8 1.912536 1_555
Co5 O9 1.913223 1_555
Co5 O0 1.920951 1_555
Co5 O1 1.922063 1_555
Co5 O4 2.010353 1_555
Co5 O5 2.011517 1_555
Co6 O7 1.891681 1_555
Co6 O6 1.891914 1_555
Co6 O11 1.910676 1_655
Co6 O10 1.913480 1_565
Co6 O3 2.185094 1_565
Co6 O2 2.190878 1_655
