# generated using pymatgen
data_NaCaSc(SO4)3
_symmetry_space_group_name_H-M   'P 1'
_cell_length_a   8.97235322
_cell_length_b   8.97235292
_cell_length_c   23.84157068
_cell_angle_alpha   90.00000000
_cell_angle_beta   90.00000000
_cell_angle_gamma   120.00000112
_symmetry_Int_Tables_number   1
_chemical_formula_structural   NaCaSc(SO4)3
_chemical_formula_sum   'Na6 Ca6 Sc6 S18 O72'
_cell_volume   1662.18056550
_cell_formula_units_Z   6
loop_
 _symmetry_equiv_pos_site_id
 _symmetry_equiv_pos_as_xyz
  1  'x, y, z'
loop_
 _atom_site_type_symbol
 _atom_site_label
 _atom_site_symmetry_multiplicity
 _atom_site_fract_x
 _atom_site_fract_y
 _atom_site_fract_z
 _atom_site_occupancy
  Na  Na0  1  0.00000000  -0.00000000  0.49913781  1
  Na  Na1  1  0.00000000  -0.00000000  0.99913781  1
  Na  Na2  1  0.66666700  0.33333300  0.83247081  1
  Na  Na3  1  0.66666700  0.33333300  0.33247081  1
  Na  Na4  1  0.33333300  0.66666700  0.16580481  1
  Na  Na5  1  0.33333300  0.66666700  0.66580481  1
  Ca  Ca0  1  0.00000000  -0.00000000  0.35134762  1
  Ca  Ca1  1  0.00000000  -0.00000000  0.85134762  1
  Ca  Ca2  1  0.66666700  0.33333300  0.68468062  1
  Ca  Ca3  1  0.66666700  0.33333300  0.18468062  1
  Ca  Ca4  1  0.33333300  0.66666700  0.01801462  1
  Ca  Ca5  1  0.33333300  0.66666700  0.51801462  1
  Sc  Sc0  1  0.00000000  -0.00000000  0.65051957  1
  Sc  Sc1  1  0.00000000  -0.00000000  0.15051957  1
  Sc  Sc2  1  0.66666700  0.33333300  0.98385257  1
  Sc  Sc3  1  0.66666700  0.33333300  0.48385257  1
  Sc  Sc4  1  0.33333300  0.66666700  0.31718657  1
  Sc  Sc5  1  0.33333300  0.66666700  0.81718657  1
  S  S0  1  0.29080360  0.99104245  0.25031325  1
  S  S1  1  0.70023885  0.70919640  0.25031325  1
  S  S2  1  0.00895755  0.29976115  0.25031325  1
  S  S3  1  0.29080360  0.29976115  0.75031325  1
  S  S4  1  0.00895755  0.70919640  0.75031325  1
  S  S5  1  0.70023885  0.99104245  0.75031325  1
  S  S6  1  0.95747060  0.32437545  0.58364625  1
  S  S7  1  0.36690585  0.04252940  0.58364625  1
  S  S8  1  0.67562455  0.63309415  0.58364625  1
  S  S9  1  0.95747060  0.63309415  0.08364625  1
  S  S10  1  0.67562455  0.04252940  0.08364625  1
  S  S11  1  0.36690585  0.32437545  0.08364625  1
  S  S12  1  0.62413660  0.65770945  0.91698025  1
  S  S13  1  0.03357185  0.37586340  0.91698025  1
  S  S14  1  0.34229055  0.96642815  0.91698025  1
  S  S15  1  0.62413660  0.96642815  0.41698025  1
  S  S16  1  0.34229055  0.37586340  0.41698025  1
  S  S17  1  0.03357185  0.65770945  0.41698025  1
  O  O0  1  0.21192961  0.01209322  0.30077247  1
  O  O1  1  0.80016361  0.78807039  0.30077247  1
  O  O2  1  0.98790678  0.19983639  0.30077247  1
  O  O3  1  0.21192961  0.19983639  0.80077247  1
  O  O4  1  0.98790678  0.78807039  0.80077247  1
  O  O5  1  0.80016361  0.01209322  0.80077247  1
  O  O6  1  0.78940616  0.97295318  0.69930497  1
  O  O7  1  0.18354701  0.21059384  0.69930497  1
  O  O8  1  0.02704682  0.81645299  0.69930497  1
  O  O9  1  0.78940616  0.81645299  0.19930497  1
  O  O10  1  0.02704682  0.21059384  0.19930497  1
  O  O11  1  0.18354701  0.97295318  0.19930497  1
  O  O12  1  0.87859661  0.34542622  0.63410547  1
  O  O13  1  0.46683061  0.12140339  0.63410547  1
  O  O14  1  0.65457378  0.53316939  0.63410547  1
  O  O15  1  0.87859661  0.53316939  0.13410547  1
  O  O16  1  0.65457378  0.12140339  0.13410547  1
  O  O17  1  0.46683061  0.34542622  0.13410547  1
  O  O18  1  0.45607316  0.30628618  0.03263797  1
  O  O19  1  0.85021401  0.54392684  0.03263797  1
  O  O20  1  0.69371382  0.14978599  0.03263797  1
  O  O21  1  0.45607316  0.14978599  0.53263797  1
  O  O22  1  0.69371382  0.54392684  0.53263797  1
  O  O23  1  0.85021401  0.30628618  0.53263797  1
  O  O24  1  0.54526261  0.67876022  0.96743947  1
  O  O25  1  0.13349661  0.45473739  0.96743947  1
  O  O26  1  0.32123978  0.86650339  0.96743947  1
  O  O27  1  0.54526261  0.86650339  0.46743947  1
  O  O28  1  0.32123978  0.45473739  0.46743947  1
  O  O29  1  0.13349661  0.67876022  0.46743947  1
  O  O30  1  0.12273916  0.63962018  0.36597197  1
  O  O31  1  0.51688001  0.87726084  0.36597197  1
  O  O32  1  0.36037982  0.48311999  0.36597197  1
  O  O33  1  0.12273916  0.48311999  0.86597197  1
  O  O34  1  0.36037982  0.87726084  0.86597197  1
  O  O35  1  0.51688001  0.63962018  0.86597197  1
  O  O36  1  0.00898844  0.80711417  0.41080034  1
  O  O37  1  0.79812572  0.99101156  0.41080034  1
  O  O38  1  0.19288583  0.20187428  0.41080034  1
  O  O39  1  0.00898844  0.20187428  0.91080034  1
  O  O40  1  0.19288583  0.99101156  0.91080034  1
  O  O41  1  0.79812572  0.80711417  0.91080034  1
  O  O42  1  0.96957932  0.16325358  0.58847398  1
  O  O43  1  0.19367425  0.03042068  0.58847398  1
  O  O44  1  0.83674642  0.80632575  0.58847398  1
  O  O45  1  0.96957932  0.80632575  0.08847398  1
  O  O46  1  0.83674642  0.03042068  0.08847398  1
  O  O47  1  0.19367425  0.16325358  0.08847398  1
  O  O48  1  0.67565544  0.14044717  0.74413334  1
  O  O49  1  0.46479272  0.32434456  0.74413334  1
  O  O50  1  0.85955283  0.53520728  0.74413334  1
  O  O51  1  0.67565544  0.53520728  0.24413334  1
  O  O52  1  0.85955283  0.32434456  0.24413334  1
  O  O53  1  0.46479272  0.14044717  0.24413334  1
  O  O54  1  0.63624632  0.49658658  0.92180698  1
  O  O55  1  0.86034125  0.36375368  0.92180698  1
  O  O56  1  0.50341342  0.13965875  0.92180698  1
  O  O57  1  0.63624632  0.13965875  0.42180698  1
  O  O58  1  0.50341342  0.36375368  0.42180698  1
  O  O59  1  0.86034125  0.49658658  0.42180698  1
  O  O60  1  0.34232144  0.47378117  0.07746734  1
  O  O61  1  0.13145872  0.65767856  0.07746734  1
  O  O62  1  0.52621883  0.86854128  0.07746734  1
  O  O63  1  0.34232144  0.86854128  0.57746734  1
  O  O64  1  0.52621883  0.65767856  0.57746734  1
  O  O65  1  0.13145872  0.47378117  0.57746734  1
  O  O66  1  0.30291232  0.82992058  0.25514098  1
  O  O67  1  0.52700725  0.69708768  0.25514098  1
  O  O68  1  0.17007942  0.47299275  0.25514098  1
  O  O69  1  0.30291232  0.47299275  0.75514098  1
  O  O70  1  0.17007942  0.69708768  0.75514098  1
  O  O71  1  0.52700725  0.82992058  0.75514098  1
loop_
_geom_bond_atom_site_label_1
_geom_bond_atom_site_label_2
_geom_bond_distance
_geom_bond_site_symmetry_2
Na0 O44 2.675142 1_445
Na0 O43 2.675142 1_555
Na0 O42 2.675142 1_455
Na0 O36 2.752610 1_545
Na0 O38 2.752610 1_555
Na0 O37 2.752610 1_445
Na1 O45 2.675142 1_446
Na1 O47 2.675142 1_556
Na1 O46 2.675142 1_456
Na1 O41 2.752610 1_445
Na1 O40 2.752610 1_545
Na1 O39 2.752610 1_555
Na2 O56 2.675142 1_555
Na2 O55 2.675142 1_555
Na2 O54 2.675142 1_555
Na2 O48 2.752610 1_555
Na2 O50 2.752610 1_555
Na2 O49 2.752610 1_555
Na3 O57 2.675142 1_555
Na3 O59 2.675142 1_555
Na3 O58 2.675142 1_555
Na3 O53 2.752610 1_555
Na3 O52 2.752610 1_555
Na3 O51 2.752610 1_555
Na4 O68 2.675142 1_555
Na4 O67 2.675142 1_555
Na4 O66 2.675142 1_555
Na4 O60 2.752610 1_555
Na4 O62 2.752610 1_555
Na4 O61 2.752610 1_555
Na5 O69 2.675142 1_555
Na5 O71 2.675142 1_555
Na5 O70 2.675142 1_555
Na5 O65 2.752610 1_555
Na5 O64 2.752610 1_555
Na5 O63 2.752610 1_555
Ca0 O1 2.207966 1_445
Ca0 O2 2.207966 1_455
Ca0 O0 2.207966 1_555
Ca0 O36 2.269437 1_545
Ca0 O38 2.269437 1_555
Ca0 O37 2.269437 1_445
Ca1 O4 2.207966 1_445
Ca1 O3 2.207966 1_555
Ca1 O5 2.207966 1_455
Ca1 O41 2.269437 1_445
Ca1 O40 2.269437 1_545
Ca1 O39 2.269437 1_555
Ca2 O13 2.207966 1_555
Ca2 O14 2.207966 1_555
Ca2 O12 2.207966 1_555
Ca2 O48 2.269437 1_555
Ca2 O50 2.269437 1_555
Ca2 O49 2.269437 1_555
Ca3 O16 2.207966 1_555
Ca3 O15 2.207966 1_555
Ca3 O17 2.207966 1_555
Ca3 O53 2.269437 1_555
Ca3 O52 2.269437 1_555
Ca3 O51 2.269437 1_555
Ca4 O25 2.207966 1_554
Ca4 O26 2.207966 1_554
Ca4 O24 2.207966 1_554
Ca4 O60 2.269437 1_555
Ca4 O62 2.269437 1_555
Ca4 O61 2.269437 1_555
Ca5 O28 2.207966 1_555
Ca5 O27 2.207966 1_555
Ca5 O29 2.207966 1_555
Ca5 O65 2.269437 1_555
Ca5 O64 2.269437 1_555
Ca5 O63 2.269437 1_555
O0 S0 1.455139 1_545
O1 S1 1.455139 1_555
O2 S2 1.455139 1_655
O3 S3 1.455139 1_555
O4 S4 1.455139 1_655
O5 S5 1.455139 1_545
O6 S5 1.508376 1_555
O6 Sc0 2.126851 1_665
O7 S3 1.508376 1_555
O7 Sc0 2.126851 1_555
O8 S4 1.508376 1_555
O8 Sc0 2.126851 1_565
O9 S1 1.508376 1_555
O9 Sc1 2.126851 1_665
O10 S2 1.508376 1_555
O10 Sc1 2.126851 1_555
O11 S0 1.508376 1_555
O11 Sc1 2.126851 1_565
O12 S6 1.455139 1_555
O13 S7 1.455139 1_555
O14 S8 1.455139 1_555
O15 S9 1.455139 1_555
O16 S10 1.455139 1_555
O17 S11 1.455139 1_555
O18 S11 1.508376 1_555
O18 Sc2 2.126851 1_554
O19 S9 1.508376 1_555
O19 Sc2 2.126851 1_554
O20 S10 1.508376 1_555
O20 Sc2 2.126851 1_554
O21 S7 1.508376 1_555
O21 Sc3 2.126851 1_555
O22 S8 1.508376 1_555
O22 Sc3 2.126851 1_555
O23 S6 1.508376 1_555
O23 Sc3 2.126851 1_555
O24 S12 1.455139 1_555
O25 S13 1.455139 1_555
O26 S14 1.455139 1_555
O27 S15 1.455139 1_555
O28 S16 1.455139 1_555
O29 S17 1.455139 1_555
O30 S17 1.508376 1_555
O30 Sc4 2.126851 1_555
O31 S15 1.508376 1_555
O31 Sc4 2.126851 1_555
O32 S16 1.508376 1_555
O32 Sc4 2.126851 1_555
O33 S13 1.508376 1_555
O33 Sc5 2.126851 1_555
O34 S14 1.508376 1_555
O34 Sc5 2.126851 1_555
O35 S12 1.508376 1_555
O35 Sc5 2.126851 1_555
O36 S17 1.470718 1_555
O37 S15 1.470726 1_555
O38 S16 1.470723 1_555
O39 S13 1.470726 1_555
O40 S14 1.470718 1_555
O41 S12 1.470723 1_555
O42 S6 1.507313 1_555
O42 Sc0 2.192731 1_655
O43 S7 1.507322 1_555
O43 Sc0 2.192731 1_555
O44 S8 1.507318 1_555
O44 Sc0 2.192731 1_665
O45 S9 1.507322 1_555
O45 Sc1 2.192731 1_665
O46 S10 1.507313 1_555
O46 Sc1 2.192731 1_655
O47 S11 1.507318 1_555
O47 Sc1 2.192731 1_555
O48 S5 1.470718 1_545
O49 S3 1.470726 1_555
O50 S4 1.470723 1_655
O51 S1 1.470726 1_555
O52 S2 1.470718 1_655
O53 S0 1.470723 1_545
O54 S12 1.507325 1_555
O54 Sc2 2.192731 1_555
O55 S13 1.507308 1_655
O55 Sc2 2.192731 1_555
O56 S14 1.507315 1_545
O56 Sc2 2.192731 1_555
O57 S15 1.507308 1_545
O57 Sc3 2.192731 1_555
O58 S16 1.507325 1_555
O58 Sc3 2.192731 1_555
O59 S17 1.507315 1_655
O59 Sc3 2.192731 1_555
O60 S11 1.470730 1_555
O61 S9 1.470712 1_455
O62 S10 1.470719 1_565
O63 S7 1.470712 1_565
O64 S8 1.470730 1_555
O65 S6 1.470719 1_455
O66 S0 1.507313 1_555
O66 Sc4 2.192731 1_555
O67 S1 1.507322 1_555
O67 Sc4 2.192731 1_555
O68 S2 1.507318 1_555
O68 Sc4 2.192731 1_555
O69 S3 1.507322 1_555
O69 Sc5 2.192731 1_555
O70 S4 1.507313 1_555
O70 Sc5 2.192731 1_555
O71 S5 1.507318 1_555
O71 Sc5 2.192731 1_555
