# generated using pymatgen
data_LiTiPCO7
_symmetry_space_group_name_H-M   'P 1'
_cell_length_a   6.33638500
_cell_length_b   5.68612600
_cell_length_c   8.59221966
_cell_angle_alpha   86.88150843
_cell_angle_beta   90.00000000
_cell_angle_gamma   90.00000000
_symmetry_Int_Tables_number   1
_chemical_formula_structural   LiTiPCO7
_chemical_formula_sum   'Li2 Ti2 P2 C2 O14'
_cell_volume   309.11480952
_cell_formula_units_Z   2
loop_
 _symmetry_equiv_pos_site_id
 _symmetry_equiv_pos_as_xyz
  1  'x, y, z'
loop_
 _atom_site_type_symbol
 _atom_site_label
 _atom_site_symmetry_multiplicity
 _atom_site_fract_x
 _atom_site_fract_y
 _atom_site_fract_z
 _atom_site_occupancy
  Li  Li0  1  0.89568200  0.24775400  0.16518900  1
  Li  Li1  1  0.39568200  0.75224600  0.83481100  1
  Ti  Ti0  1  0.77433500  0.78629600  0.33804200  1
  Ti  Ti1  1  0.27433500  0.21370400  0.66195800  1
  P  P0  1  0.27603900  0.73563300  0.45627800  1
  P  P1  1  0.77603900  0.26436700  0.54372200  1
  C  C0  1  0.73630200  0.73781500  0.05532200  1
  C  C1  1  0.23630200  0.26218500  0.94467800  1
  O  O0  1  0.57947600  0.20307100  0.64280800  1
  O  O1  1  0.76609100  0.94230400  0.12046000  1
  O  O2  1  0.26804900  0.43687500  0.83599600  1
  O  O3  1  0.76804900  0.56312500  0.16400400  1
  O  O4  1  0.47116800  0.79612600  0.35521700  1
  O  O5  1  0.78227200  0.12317000  0.39420800  1
  O  O6  1  0.97116800  0.20387400  0.64478300  1
  O  O7  1  0.28227200  0.87683000  0.60579200  1
  O  O8  1  0.07947600  0.79692900  0.35719200  1
  O  O9  1  0.27535800  0.47000000  0.50758300  1
  O  O10  1  0.67842900  0.71138700  0.92075200  1
  O  O11  1  0.17842900  0.28861300  0.07924800  1
  O  O12  1  0.77535800  0.53000000  0.49241700  1
  O  O13  1  0.26609100  0.05769600  0.87954000  1
loop_
_geom_bond_atom_site_label_1
_geom_bond_atom_site_label_2
_geom_bond_distance
_geom_bond_site_symmetry_2
Li0 O11 1.946892 1_655
Li0 O3 1.966690 1_555
Li0 O1 1.977667 1_545
Li0 O5 2.176862 1_555
Li1 O10 1.946892 1_555
Li1 O2 1.966690 1_555
Li1 O13 1.977667 1_565
Li1 O7 2.176862 1_555
C0 O10 1.229994 1_554
C0 O1 1.331038 1_555
C0 O3 1.340980 1_555
C1 O11 1.229994 1_556
C1 O13 1.331038 1_555
C1 O2 1.340980 1_555
O0 P1 1.537949 1_555
O0 Ti1 1.941700 1_555
O1 Ti0 2.025902 1_555
O2 Ti1 2.013578 1_555
O3 Ti0 2.013578 1_555
O4 P0 1.539008 1_555
O4 Ti0 1.927686 1_555
O5 P1 1.552003 1_555
O5 Ti0 2.001292 1_545
O6 P1 1.539008 1_555
O6 Ti1 1.927686 1_655
O7 P0 1.552003 1_555
O7 Ti1 2.001292 1_565
O8 P0 1.537949 1_555
O8 Ti0 1.941700 1_455
O9 P0 1.550251 1_555
O9 Ti1 1.916491 1_555
O12 P1 1.550251 1_555
O12 Ti0 1.916491 1_555
O13 Ti1 2.025902 1_555
