# generated using pymatgen
data_Na3YIn(PO4)3
_symmetry_space_group_name_H-M   'P 1'
_cell_length_a   9.26195346
_cell_length_b   9.27200832
_cell_length_c   22.66114839
_cell_angle_alpha   89.92532833
_cell_angle_beta   90.12428400
_cell_angle_gamma   120.12267128
_symmetry_Int_Tables_number   1
_chemical_formula_structural   Na3YIn(PO4)3
_chemical_formula_sum   'Na18 Y6 In6 P18 O72'
_cell_volume   1683.25437137
_cell_formula_units_Z   6
loop_
 _symmetry_equiv_pos_site_id
 _symmetry_equiv_pos_as_xyz
  1  'x, y, z'
loop_
 _atom_site_type_symbol
 _atom_site_label
 _atom_site_symmetry_multiplicity
 _atom_site_fract_x
 _atom_site_fract_y
 _atom_site_fract_z
 _atom_site_occupancy
  Na  Na0  1  0.99828231  0.99798441  0.49859680  1
  Na  Na1  1  0.00327642  0.00276369  0.99572129  1
  Na  Na2  1  0.62127817  0.31171882  0.83620292  1
  Na  Na3  1  0.68830135  0.37726778  0.33363865  1
  Na  Na4  1  0.33819846  0.66696804  0.16181270  1
  Na  Na5  1  0.33377605  0.66563178  0.66671155  1
  Na  Na6  1  0.63936474  0.00433891  0.25220357  1
  Na  Na7  1  0.35737169  0.35647962  0.25131463  1
  Na  Na8  1  0.64466391  0.64620169  0.75337763  1
  Na  Na9  1  0.99773597  0.36425756  0.75532326  1
  Na  Na10  1  0.02385998  0.68426660  0.57980742  1
  Na  Na11  1  0.66750907  0.97400191  0.57907362  1
  Na  Na12  1  0.31350215  0.97630582  0.07643123  1
  Na  Na13  1  0.02857758  0.33207695  0.07618852  1
  Na  Na14  1  0.97009121  0.66436980  0.91572971  1
  Na  Na15  1  0.69455988  0.02949828  0.91563468  1
  Na  Na16  1  0.97041113  0.30275235  0.41714114  1
  Na  Na17  1  0.33374219  0.02494065  0.41652698  1
  Y  Y0  1  0.01403397  0.00752182  0.65108430  1
  Y  Y1  1  0.99251692  0.98569803  0.14612948  1
  Y  Y2  1  0.65550209  0.32816057  0.68444813  1
  Y  Y3  1  0.67322328  0.34553231  0.18197106  1
  Y  Y4  1  0.65757851  0.33705284  0.48387041  1
  Y  Y5  1  0.32637081  0.66440217  0.31547420  1
  In  In0  1  0.99186389  0.98688118  0.35030411  1
  In  In1  1  0.01210029  0.00764230  0.85036300  1
  In  In2  1  0.66444280  0.34125073  0.98234036  1
  In  In3  1  0.34013215  0.66247408  0.01317630  1
  In  In4  1  0.33712585  0.65883489  0.51571000  1
  In  In5  1  0.33665432  0.67141881  0.81908614  1
  P  P0  1  0.30368064  0.00449272  0.25075866  1
  P  P1  1  0.69730215  0.69712357  0.25306034  1
  P  P2  1  0.99505400  0.29118656  0.25006642  1
  P  P3  1  0.30274816  0.31000466  0.75657923  1
  P  P4  1  0.00243543  0.69708459  0.75387750  1
  P  P5  1  0.70125683  0.99920551  0.75332596  1
  P  P6  1  0.97158966  0.33759363  0.58278114  1
  P  P7  1  0.36052794  0.01816441  0.57705347  1
  P  P8  1  0.66289606  0.64044555  0.58853716  1
  P  P9  1  0.97764558  0.63494709  0.07371796  1
  P  P10  1  0.66266399  0.03385371  0.07915638  1
  P  P11  1  0.36548572  0.33700165  0.08335957  1
  P  P12  1  0.63931467  0.67052466  0.91241962  1
  P  P13  1  0.02764018  0.36178291  0.91729216  1
  P  P14  1  0.33455253  0.96575865  0.92028780  1
  P  P15  1  0.64048695  0.96877302  0.41798595  1
  P  P16  1  0.32295623  0.35704684  0.41164387  1
  P  P17  1  0.03428982  0.67194512  0.42231047  1
  O  O0  1  0.21489243  0.01338309  0.30779294  1
  O  O1  1  0.78987431  0.77823375  0.31100714  1
  O  O2  1  0.97745173  0.18987751  0.30731200  1
  O  O3  1  0.22362721  0.21275301  0.81375058  1
  O  O4  1  0.98350378  0.78273312  0.80989625  1
  O  O5  1  0.80529114  0.02104963  0.81029161  1
  O  O6  1  0.79155051  0.98268990  0.69842866  1
  O  O7  1  0.19646381  0.21835439  0.70223341  1
  O  O8  1  0.01690100  0.79765903  0.69764891  1
  O  O9  1  0.79325338  0.79861824  0.19871726  1
  O  O10  1  0.00343064  0.19856375  0.19463543  1
  O  O11  1  0.20467977  0.99447808  0.19465746  1
  O  O12  1  0.88366519  0.35754768  0.63815248  1
  O  O13  1  0.47719817  0.12605124  0.62742364  1
  O  O14  1  0.65259320  0.55374331  0.64794143  1
  O  O15  1  0.87372245  0.52236803  0.12515619  1
  O  O16  1  0.64276121  0.11946154  0.13500606  1
  O  O17  1  0.45234748  0.34943219  0.14293223  1
  O  O18  1  0.46019082  0.31401238  0.03164199  1
  O  O19  1  0.88717376  0.56021713  0.01445231  1
  O  O20  1  0.68321940  0.13960392  0.02290861  1
  O  O21  1  0.43271242  0.10463494  0.51740367  1
  O  O22  1  0.68021617  0.54046836  0.53753011  1
  O  O23  1  0.86762228  0.32083797  0.52665155  1
  O  O24  1  0.54798468  0.69820753  0.96430626  1
  O  O25  1  0.12593428  0.44528686  0.97461250  1
  O  O26  1  0.31234680  0.86712604  0.97854061  1
  O  O27  1  0.55375553  0.87185078  0.47546823  1
  O  O28  1  0.30249316  0.45381871  0.46365275  1
  O  O29  1  0.12934110  0.68626137  0.48095616  1
  O  O30  1  0.13022331  0.65414124  0.36997556  1
  O  O31  1  0.53666934  0.87833029  0.36277298  1
  O  O32  1  0.33388509  0.44377773  0.35249172  1
  O  O33  1  0.11677397  0.46905808  0.86210822  1
  O  O34  1  0.36774333  0.87830285  0.86806923  1
  O  O35  1  0.54784018  0.65425554  0.85334017  1
  O  O36  1  0.02845192  0.83591365  0.41800343  1
  O  O37  1  0.82007160  0.99602727  0.41678479  1
  O  O38  1  0.16323985  0.17995967  0.41401723  1
  O  O39  1  0.00099385  0.18236521  0.91516515  1
  O  O40  1  0.16983848  0.96984705  0.91431143  1
  O  O41  1  0.81838686  0.82842893  0.91292073  1
  O  O42  1  0.98049267  0.17546652  0.58590801  1
  O  O43  1  0.18049147  0.98678746  0.58286078  1
  O  O44  1  0.82177239  0.81730894  0.58624424  1
  O  O45  1  0.01130328  0.81598753  0.07810483  1
  O  O46  1  0.82358694  0.02208108  0.08173379  1
  O  O47  1  0.18727178  0.17885093  0.08194709  1
  O  O48  1  0.68584756  0.15782309  0.74947977  1
  O  O49  1  0.48243772  0.33951167  0.75263411  1
  O  O50  1  0.84240754  0.52102459  0.75131728  1
  O  O51  1  0.66664077  0.51721796  0.25124481  1
  O  O52  1  0.83672599  0.30805345  0.24838328  1
  O  O53  1  0.47798865  0.16680560  0.25008396  1
  O  O54  1  0.65891678  0.51421904  0.91798306  1
  O  O55  1  0.85031208  0.34549567  0.91755275  1
  O  O56  1  0.49133633  0.14250974  0.92172583  1
  O  O57  1  0.65713998  0.14539593  0.41851007  1
  O  O58  1  0.47696415  0.33418720  0.41680420  1
  O  O59  1  0.85916434  0.51420609  0.42114869  1
  O  O60  1  0.34350370  0.49189369  0.07837191  1
  O  O61  1  0.14965749  0.64180667  0.07746382  1
  O  O62  1  0.50161012  0.86055679  0.07697242  1
  O  O63  1  0.35359403  0.84650917  0.58100834  1
  O  O64  1  0.50832188  0.66225476  0.58262858  1
  O  O65  1  0.14530943  0.49779318  0.58067269  1
  O  O66  1  0.33467407  0.85488718  0.25097769  1
  O  O67  1  0.52364920  0.68611899  0.25056753  1
  O  O68  1  0.15701767  0.46317522  0.25014492  1
  O  O69  1  0.31259066  0.48363698  0.75566459  1
  O  O70  1  0.15613224  0.67203152  0.75640457  1
  O  O71  1  0.52894984  0.83634308  0.75477990  1
loop_
_geom_bond_atom_site_label_1
_geom_bond_atom_site_label_2
_geom_bond_distance
_geom_bond_site_symmetry_2
Na0 O36 2.470343 1_655
Na0 O37 2.473588 1_555
Na0 O38 2.504324 1_665
Na0 O43 2.581944 1_655
Na0 O44 2.584677 1_555
Na0 O42 2.632868 1_565
Na1 O39 2.476537 1_555
Na1 O41 2.506328 1_445
Na1 O40 2.522474 1_545
Na1 O47 2.566911 1_556
Na1 O45 2.571023 1_546
Na1 O46 2.629682 1_456
Na2 O49 2.372161 1_555
Na2 O56 2.402694 1_555
Na2 O54 2.535866 1_555
Na2 O48 2.669246 1_555
Na2 O55 2.704469 1_555
Na2 O50 2.771123 1_555
Na3 O51 2.337440 1_555
Na3 O59 2.454646 1_555
Na3 O58 2.602315 1_555
Na3 O52 2.633338 1_555
Na3 O53 2.714010 1_555
Na3 O57 2.788063 1_555
Na4 O60 2.510242 1_555
Na4 O61 2.516989 1_555
Na4 O62 2.546717 1_555
Na4 O67 2.589767 1_555
Na4 O66 2.680724 1_555
Na4 O68 2.686148 1_555
Na5 O63 2.510439 1_555
Na5 O64 2.511858 1_555
Na5 O65 2.556732 1_555
Na5 O69 2.570970 1_555
Na5 O71 2.622357 1_555
Na5 O70 2.637175 1_555
Na6 O66 2.441224 1_545
Na6 O52 2.472324 1_555
Na6 O67 2.584927 1_545
Na6 O53 2.600945 1_555
Na6 O31 2.726763 1_545
Na6 O16 2.855359 1_555
Na7 O51 2.478169 1_555
Na7 O32 2.478529 1_555
Na7 O68 2.503037 1_555
Na7 O53 2.512749 1_555
Na7 O17 2.622563 1_555
Na7 O67 2.643716 1_555
Na8 O35 2.453097 1_555
Na8 O49 2.460826 1_555
Na8 O71 2.480834 1_555
Na8 O14 2.553113 1_555
Na8 O50 2.614906 1_555
Na8 O69 2.661133 1_555
Na9 O70 2.468675 1_655
Na9 O50 2.507730 1_555
Na9 O48 2.544622 1_555
Na9 O69 2.547429 1_655
Na9 O33 2.633401 1_655
Na9 O12 2.844750 1_555
Na10 O43 2.427554 1_555
Na10 O29 2.442134 1_555
Na10 O65 2.491377 1_555
Na10 O63 2.641794 1_555
Na10 O44 2.713935 1_455
Na10 O8 2.883884 1_555
Na10 O22 2.925163 1_455
Na10 O12 2.942783 1_455
Na11 O64 2.501558 1_555
Na11 O44 2.502099 1_555
Na11 O63 2.530494 1_555
Na11 O42 2.545657 1_565
Na11 O27 2.552026 1_555
Na11 O6 2.921661 1_555
Na11 O13 2.966744 1_565
Na11 O23 3.034030 1_565
Na12 O45 2.422705 1_555
Na12 O26 2.437353 1_554
Na12 O62 2.462523 1_555
Na12 O47 2.667288 1_565
Na12 O61 2.683012 1_555
Na12 O11 2.899210 1_555
Na12 O18 2.899715 1_565
Na12 O16 2.957685 1_565
Na13 O25 2.503203 1_554
Na13 O61 2.504669 1_555
Na13 O47 2.508074 1_555
Na13 O60 2.523385 1_555
Na13 O46 2.530761 1_455
Na13 O10 2.914792 1_555
Na13 O15 2.992234 1_455
Na13 O20 3.022172 1_455
Na14 O19 2.405146 1_556
Na14 O40 2.487304 1_655
Na14 O54 2.494069 1_555
Na14 O41 2.537094 1_555
Na14 O55 2.584890 1_555
Na14 O4 2.613300 1_555
Na15 O39 2.454941 1_655
Na15 O55 2.534789 1_555
Na15 O56 2.577013 1_555
Na15 O5 2.616947 1_555
Na15 O41 2.634667 1_545
Na15 O20 2.660450 1_556
Na15 O34 2.831999 1_545
Na15 O24 2.882213 1_545
Na16 O37 2.460151 1_545
Na16 O57 2.509911 1_555
Na16 O38 2.555905 1_655
Na16 O59 2.634831 1_555
Na16 O23 2.695281 1_555
Na16 O2 2.714768 1_555
Na16 O28 2.863327 1_655
Na16 O30 3.017579 1_655
Na17 O21 2.434634 1_555
Na17 O36 2.468657 1_545
Na17 O58 2.482670 1_555
Na17 O38 2.615460 1_555
Na17 O57 2.619735 1_555
Na17 O0 2.676791 1_555
In0 O1 2.097661 1_555
In0 O0 2.180368 1_665
In0 O2 2.180924 1_565
In0 O36 2.212703 1_655
In0 O38 2.225675 1_665
In0 O37 2.225912 1_555
In1 O3 2.099210 1_555
In1 O4 2.170107 1_445
In1 O5 2.177192 1_455
In1 O40 2.204679 1_545
In1 O39 2.228379 1_555
In1 O41 2.236600 1_445
In2 O18 2.102304 1_556
In2 O20 2.166160 1_556
In2 O19 2.168107 1_556
In2 O54 2.185773 1_555
In2 O56 2.210121 1_555
In2 O55 2.250213 1_555
In3 O24 2.100097 1_554
In3 O60 2.174516 1_555
In3 O25 2.177599 1_554
In3 O26 2.183640 1_554
In3 O62 2.222734 1_555
In3 O61 2.223165 1_555
In4 O28 2.121365 1_555
In4 O64 2.180371 1_555
In4 O27 2.187232 1_555
In4 O29 2.207421 1_555
In4 O65 2.212702 1_555
In4 O63 2.231641 1_555
In5 O34 2.108180 1_555
In5 O35 2.181581 1_555
In5 O69 2.182282 1_555
In5 O33 2.187910 1_555
In5 O70 2.193723 1_555
In5 O71 2.214925 1_555
O0 P0 1.557705 1_555
O1 P1 1.541281 1_555
O2 P2 1.560714 1_555
O3 P3 1.538325 1_555
O4 P4 1.554430 1_655
O5 P5 1.560550 1_545
O6 P5 1.550489 1_555
O6 Y0 2.232269 1_665
O7 P3 1.538085 1_555
O7 Y0 2.168412 1_555
O8 P4 1.543825 1_555
O8 Y0 2.224160 1_565
O9 P1 1.534347 1_555
O9 Y1 2.150834 1_555
O10 P2 1.546457 1_455
O10 Y1 2.217848 1_445
O11 P0 1.541247 1_565
O11 Y1 2.215322 1_455
O12 P6 1.558246 1_555
O12 Y2 2.252016 1_555
O13 P7 1.543991 1_555
O13 Y2 2.190826 1_555
O14 P8 1.545406 1_555
O14 Y2 2.260949 1_555
O15 P9 1.538845 1_555
O15 Y3 2.177907 1_555
O16 P10 1.554449 1_555
O16 Y3 2.239861 1_555
O17 P11 1.544540 1_555
O17 Y3 2.243950 1_555
O18 P11 1.543097 1_555
O19 P9 1.549440 1_555
O20 P10 1.559741 1_555
O21 P7 1.542744 1_555
O21 Y4 2.248737 1_555
O22 P8 1.540763 1_555
O22 Y4 2.165135 1_555
O23 P6 1.553809 1_555
O23 Y4 2.243239 1_555
O24 P12 1.544985 1_555
O25 P13 1.550982 1_555
O26 P14 1.559005 1_555
O27 P15 1.557758 1_555
O28 P16 1.550639 1_555
O29 P17 1.561067 1_555
O30 P17 1.541286 1_555
O30 Y5 2.161206 1_555
O31 P15 1.543201 1_555
O31 Y5 2.235127 1_555
O32 P16 1.539426 1_555
O32 Y5 2.243058 1_555
O33 P13 1.552984 1_555
O34 P14 1.551323 1_555
O35 P12 1.549288 1_555
O36 P17 1.551101 1_555
O37 P15 1.552251 1_555
O38 P16 1.565051 1_555
O39 P13 1.555232 1_555
O40 P14 1.550577 1_555
O41 P12 1.567542 1_555
O42 P6 1.547797 1_555
O42 Y0 2.276034 1_655
O43 P7 1.548036 1_565
O43 Y0 2.261120 1_565
O44 P8 1.560547 1_555
O44 Y0 2.298612 1_665
O45 P9 1.549150 1_455
O45 Y1 2.272648 1_455
O46 P10 1.549097 1_555
O46 Y1 2.282526 1_545
O47 P11 1.564066 1_555
O47 Y1 2.310557 1_445
O48 P5 1.549588 1_545
O48 Y2 2.276587 1_555
O49 P3 1.547975 1_555
O49 Y2 2.269023 1_555
O50 P4 1.560894 1_655
O50 Y2 2.319340 1_555
O51 P1 1.545805 1_555
O51 Y3 2.259746 1_555
O52 P2 1.551208 1_555
O52 Y3 2.279458 1_555
O53 P0 1.559784 1_555
O53 Y3 2.322965 1_555
O54 P12 1.553303 1_555
O55 P13 1.572077 1_655
O56 P14 1.551397 1_545
O57 P15 1.565995 1_545
O57 Y4 2.313281 1_555
O58 P16 1.547877 1_555
O58 Y4 2.247966 1_555
O59 P17 1.545805 1_655
O59 Y4 2.265280 1_555
O60 P11 1.552334 1_555
O61 P9 1.564338 1_455
O62 P10 1.550338 1_565
O63 P7 1.562809 1_565
O64 P8 1.548593 1_555
O65 P6 1.548804 1_455
O66 P0 1.551206 1_565
O66 Y5 2.262499 1_555
O67 P1 1.560559 1_555
O67 Y5 2.276879 1_555
O68 P2 1.546693 1_455
O68 Y5 2.278787 1_555
O69 P3 1.566269 1_555
O70 P4 1.554091 1_555
O71 P5 1.552265 1_555
