# generated using pymatgen
data_InPd2
_symmetry_space_group_name_H-M   'P 1'
_cell_length_a   4.22059205
_cell_length_b   5.68637337
_cell_length_c   8.30609245
_cell_angle_alpha   90.00000000
_cell_angle_beta   90.00000000
_cell_angle_gamma   90.00000000
_symmetry_Int_Tables_number   1
_chemical_formula_structural   InPd2
_chemical_formula_sum   'In4 Pd8'
_cell_volume   199.34507454
_cell_formula_units_Z   4
loop_
 _symmetry_equiv_pos_site_id
 _symmetry_equiv_pos_as_xyz
  1  'x, y, z'
loop_
 _atom_site_type_symbol
 _atom_site_label
 _atom_site_symmetry_multiplicity
 _atom_site_fract_x
 _atom_site_fract_y
 _atom_site_fract_z
 _atom_site_occupancy
  In  In0  1  0.25000000  0.32464315  0.09950312  1
  In  In1  1  0.75000000  0.67535685  0.90049688  1
  In  In2  1  0.25000000  0.82464315  0.40049688  1
  In  In3  1  0.75000000  0.17535685  0.59950312  1
  Pd  Pd0  1  0.25000000  0.42845056  0.76896881  1
  Pd  Pd1  1  0.75000000  0.57154944  0.23103119  1
  Pd  Pd2  1  0.25000000  0.92845056  0.73103119  1
  Pd  Pd3  1  0.75000000  0.07154944  0.26896881  1
  Pd  Pd4  1  0.75000000  0.15533703  0.92729024  1
  Pd  Pd5  1  0.25000000  0.84466297  0.07270976  1
  Pd  Pd6  1  0.75000000  0.65533703  0.57270976  1
  Pd  Pd7  1  0.25000000  0.34466297  0.42729024  1
loop_
_geom_bond_atom_site_label_1
_geom_bond_atom_site_label_2
_geom_bond_distance
_geom_bond_site_symmetry_2
In0 Pd7 2.725009 1_555
In0 Pd4 2.725125 1_554
In0 Pd4 2.725125 1_454
In0 Pd5 2.738405 1_545
In0 Pd1 2.760089 1_555
In0 Pd1 2.760089 1_455
In0 Pd0 2.808189 1_554
In0 Pd3 2.916494 1_455
In0 Pd3 2.916494 1_555
In0 Pd5 2.965390 1_555
In1 Pd6 2.725009 1_555
In1 Pd5 2.725125 1_656
In1 Pd5 2.725125 1_556
In1 Pd4 2.738405 1_565
In1 Pd0 2.760089 1_655
In1 Pd0 2.760089 1_555
In1 Pd1 2.808189 1_556
In1 Pd2 2.916494 1_555
In1 Pd2 2.916494 1_655
In1 Pd4 2.965390 1_555
In2 Pd5 2.725009 1_555
In2 Pd6 2.725125 1_555
In2 Pd6 2.725125 1_455
In2 Pd7 2.738405 1_555
In2 Pd3 2.760089 1_565
In2 Pd3 2.760089 1_465
In2 Pd2 2.808189 1_555
In2 Pd1 2.916494 1_455
In2 Pd1 2.916494 1_555
In2 Pd7 2.965390 1_565
In3 Pd4 2.725009 1_555
In3 Pd7 2.725125 1_555
In3 Pd7 2.725125 1_655
In3 Pd6 2.738405 1_555
In3 Pd2 2.760089 1_545
In3 Pd2 2.760089 1_645
In3 Pd3 2.808189 1_555
In3 Pd0 2.916494 1_655
In3 Pd0 2.916494 1_555
In3 Pd6 2.965390 1_545
Pd0 Pd2 2.860596 1_545
Pd0 Pd2 2.860596 1_555
Pd0 Pd7 2.877729 1_555
Pd0 Pd4 2.931646 1_455
Pd0 Pd4 2.931646 1_555
Pd0 Pd6 2.962303 1_555
Pd0 Pd6 2.962303 1_455
Pd1 Pd3 2.860596 1_555
Pd1 Pd3 2.860596 1_565
Pd1 Pd6 2.877729 1_555
Pd1 Pd5 2.931646 1_655
Pd1 Pd5 2.931646 1_555
Pd1 Pd7 2.962303 1_555
Pd1 Pd7 2.962303 1_655
Pd2 Pd5 2.877729 1_556
Pd2 Pd6 2.931646 1_555
Pd2 Pd6 2.931646 1_455
Pd2 Pd4 2.962303 1_565
Pd2 Pd4 2.962303 1_465
Pd3 Pd4 2.877729 1_554
Pd3 Pd7 2.931646 1_555
Pd3 Pd7 2.931646 1_655
Pd3 Pd5 2.962303 1_545
Pd3 Pd5 2.962303 1_645
Pd4 Pd5 3.005528 1_546
Pd4 Pd5 3.005528 1_646
Pd6 Pd7 3.005528 1_555
Pd6 Pd7 3.005528 1_655
