# generated using pymatgen
data_H4N2O3
_symmetry_space_group_name_H-M   'P 1'
_cell_length_a   4.93735300
_cell_length_b   5.67510300
_cell_length_c   5.75321100
_cell_angle_alpha   90.00000000
_cell_angle_beta   90.00000000
_cell_angle_gamma   90.00000000
_symmetry_Int_Tables_number   1
_chemical_formula_structural   H4N2O3
_chemical_formula_sum   'H8 N4 O6'
_cell_volume   161.20489641
_cell_formula_units_Z   2
loop_
 _symmetry_equiv_pos_site_id
 _symmetry_equiv_pos_as_xyz
  1  'x, y, z'
loop_
 _atom_site_type_symbol
 _atom_site_label
 _atom_site_symmetry_multiplicity
 _atom_site_fract_x
 _atom_site_fract_y
 _atom_site_fract_z
 _atom_site_occupancy
  H  H0  1  0.55387300  0.50000000  0.14793100  1
  H  H1  1  0.31225200  0.64669400  0.00000000  1
  H  H2  1  0.31225200  0.35330600  0.00000000  1
  H  H3  1  0.68774800  0.14669400  0.50000000  1
  H  H4  1  0.55387300  0.50000000  0.85206900  1
  H  H5  1  0.44612700  0.00000000  0.35206900  1
  H  H6  1  0.44612700  0.00000000  0.64793100  1
  H  H7  1  0.68774800  0.85330600  0.50000000  1
  N  N0  1  0.02693100  0.50000000  0.50000000  1
  N  N1  1  0.43427400  0.50000000  0.00000000  1
  N  N2  1  0.56572600  0.00000000  0.50000000  1
  N  N3  1  0.97306900  0.00000000  0.00000000  1
  O  O0  1  0.89815800  0.50000000  0.69168900  1
  O  O1  1  0.10184200  0.00000000  0.19168900  1
  O  O2  1  0.10184200  0.00000000  0.80831100  1
  O  O3  1  0.28244500  0.50000000  0.50000000  1
  O  O4  1  0.71755500  0.00000000  0.00000000  1
  O  O5  1  0.89815800  0.50000000  0.30831100  1
loop_
_geom_bond_atom_site_label_1
_geom_bond_atom_site_label_2
_geom_bond_distance
_geom_bond_site_symmetry_2
H0 N1 1.035870 1_555
H1 N1 1.027632 1_555
H2 N1 1.027632 1_555
H3 N2 1.027632 1_555
H4 N1 1.035870 1_556
H5 N2 1.035870 1_555
H6 N2 1.035870 1_555
H7 N2 1.027632 1_565
N0 O3 1.261563 1_555
N0 O5 1.272976 1_455
N0 O0 1.272976 1_455
N3 O4 1.261563 1_555
N3 O2 1.272976 1_654
N3 O1 1.272976 1_655
