# generated using pymatgen
data_Na6Y2Ta2Si5SO24
_symmetry_space_group_name_H-M   'P 1'
_cell_length_a   9.26913193
_cell_length_b   9.25328511
_cell_length_c   22.86607902
_cell_angle_alpha   89.64304387
_cell_angle_beta   90.52811898
_cell_angle_gamma   120.00157369
_symmetry_Int_Tables_number   1
_chemical_formula_structural   Na6Y2Ta2Si5SO24
_chemical_formula_sum   'Na18 Y6 Ta6 Si15 S3 O72'
_cell_volume   1698.36582382
_cell_formula_units_Z   3
loop_
 _symmetry_equiv_pos_site_id
 _symmetry_equiv_pos_as_xyz
  1  'x, y, z'
loop_
 _atom_site_type_symbol
 _atom_site_label
 _atom_site_symmetry_multiplicity
 _atom_site_fract_x
 _atom_site_fract_y
 _atom_site_fract_z
 _atom_site_occupancy
  Na  Na0  1  0.65107961  0.02025776  0.24848547  1
  Na  Na1  1  0.36075163  0.34203510  0.25607802  1
  Na  Na2  1  0.98916305  0.63138771  0.24844765  1
  Na  Na3  1  0.98809105  0.35039955  0.74787407  1
  Na  Na4  1  0.29767283  0.34371737  0.58055334  1
  Na  Na5  1  0.65898846  0.95488304  0.57946048  1
  Na  Na6  1  0.67848099  0.69646527  0.07323925  1
  Na  Na7  1  0.01569601  0.33829035  0.08010357  1
  Na  Na8  1  0.95239843  0.66362264  0.90819941  1
  Na  Na9  1  0.72064911  0.03652085  0.91681482  1
  Na  Na10  1  0.32587897  0.30867350  0.90813678  1
  Na  Na11  1  0.69666094  0.67784295  0.41696746  1
  Na  Na12  1  0.01268301  0.02258645  0.49604437  1
  Na  Na13  1  0.98551386  0.99457199  0.99717944  1
  Na  Na14  1  0.66398264  0.34746538  0.82879357  1
  Na  Na15  1  0.66090300  0.31656154  0.33430898  1
  Na  Na16  1  0.33088672  0.69870381  0.16252809  1
  Na  Na17  1  0.32927168  0.67961124  0.66239689  1
  Y  Y0  1  0.00644930  0.01314745  0.35482085  1
  Y  Y1  1  0.99336746  0.99675067  0.84104402  1
  Y  Y2  1  0.66933940  0.32946659  0.18219046  1
  Y  Y3  1  0.68591155  0.34402567  0.98226335  1
  Y  Y4  1  0.33700266  0.67577276  0.01772515  1
  Y  Y5  1  0.32623008  0.66505625  0.52377346  1
  Ta  Ta0  1  0.99376902  0.99094834  0.64832359  1
  Ta  Ta1  1  0.99388073  0.99370095  0.15395093  1
  Ta  Ta2  1  0.66625229  0.33598756  0.68608603  1
  Ta  Ta3  1  0.65263162  0.31983415  0.48241857  1
  Ta  Ta4  1  0.34750997  0.67142705  0.31435520  1
  Ta  Ta5  1  0.33586558  0.65289148  0.80527915  1
  Si  Si0  1  0.29229816  0.99188631  0.25257923  1
  Si  Si1  1  0.69990407  0.70352207  0.25455323  1
  Si  Si2  1  0.00912790  0.30267187  0.24970558  1
  Si  Si3  1  0.30029680  0.29083546  0.74892177  1
  Si  Si4  1  0.00191071  0.69993565  0.75057571  1
  Si  Si5  1  0.69643161  0.99811299  0.74791637  1
  Si  Si6  1  0.94737650  0.32300067  0.58625550  1
  Si  Si7  1  0.36990208  0.04860078  0.58695783  1
  Si  Si8  1  0.68012694  0.62486080  0.58244001  1
  Si  Si9  1  0.97483506  0.65081592  0.08640170  1
  Si  Si10  1  0.67472544  0.02534686  0.08615481  1
  Si  Si11  1  0.62691274  0.66499281  0.91511462  1
  Si  Si12  1  0.04214322  0.37249753  0.91400280  1
  Si  Si13  1  0.62348184  0.96620698  0.42119248  1
  Si  Si14  1  0.34492496  0.37508227  0.42138268  1
  S  S0  1  0.35364731  0.32027182  0.08328026  1
  S  S1  1  0.33431545  0.95959726  0.91131230  1
  S  S2  1  0.03269289  0.65175185  0.41441633  1
  O  O0  1  0.21343961  0.03224133  0.30704397  1
  O  O1  1  0.81285620  0.77261192  0.31206172  1
  O  O2  1  0.95959006  0.17343502  0.30232815  1
  O  O3  1  0.23706260  0.19891878  0.81080704  1
  O  O4  1  0.96861616  0.76010880  0.81204650  1
  O  O5  1  0.80731931  0.04882320  0.80722265  1
  O  O6  1  0.80267440  0.97216940  0.69392383  1
  O  O7  1  0.16159970  0.19121187  0.69593000  1
  O  O8  1  0.02186609  0.83497461  0.69760160  1
  O  O9  1  0.80328530  0.83645289  0.19799711  1
  O  O10  1  0.03985178  0.20920821  0.19129628  1
  O  O11  1  0.16485329  0.96898769  0.19561454  1
  O  O12  1  0.85113183  0.33610637  0.64353233  1
  O  O13  1  0.49494871  0.15884018  0.63942036  1
  O  O14  1  0.66634346  0.50527496  0.63700662  1
  O  O15  1  0.88026049  0.54090537  0.14316734  1
  O  O16  1  0.65393472  0.11029985  0.14408116  1
  O  O17  1  0.45395438  0.34115651  0.13619660  1
  O  O18  1  0.43486374  0.30436306  0.03036479  1
  O  O19  1  0.85666064  0.57341206  0.02732341  1
  O  O20  1  0.70174618  0.13825750  0.02679482  1
  O  O21  1  0.46471060  0.17048492  0.52701705  1
  O  O22  1  0.69776760  0.53215129  0.52281939  1
  O  O23  1  0.82325772  0.30309935  0.52912093  1
  O  O24  1  0.55300381  0.69042629  0.97566338  1
  O  O25  1  0.13988223  0.45666144  0.97456719  1
  O  O26  1  0.31416049  0.86692542  0.96629599  1
  O  O27  1  0.53610079  0.86294604  0.47939583  1
  O  O28  1  0.33032828  0.46248747  0.47971730  1
  O  O29  1  0.13081764  0.67040494  0.46696676  1
  O  O30  1  0.12200910  0.64258159  0.36052330  1
  O  O31  1  0.49874410  0.86111084  0.36193797  1
  O  O32  1  0.36078840  0.50309612  0.36286990  1
  O  O33  1  0.15292623  0.49473440  0.85701103  1
  O  O34  1  0.34824055  0.86924165  0.86061050  1
  O  O35  1  0.50180399  0.66132178  0.85967337  1
  O  O36  1  0.00399297  0.79431222  0.41145548  1
  O  O37  1  0.79961702  0.96946174  0.41586077  1
  O  O38  1  0.19243701  0.18708670  0.41746874  1
  O  O39  1  0.02514845  0.18785842  0.91126906  1
  O  O40  1  0.18635794  0.98092549  0.90798048  1
  O  O41  1  0.81566754  0.82522819  0.91063491  1
  O  O42  1  0.95444220  0.14620674  0.59086592  1
  O  O43  1  0.19073285  0.04437616  0.59317481  1
  O  O44  1  0.84697505  0.81377234  0.59131365  1
  O  O45  1  0.98733824  0.83575050  0.09425788  1
  O  O46  1  0.85653383  0.02651920  0.09226052  1
  O  O47  1  0.18520411  0.16941599  0.08792688  1
  O  O48  1  0.67524285  0.16174330  0.73640631  1
  O  O49  1  0.48953677  0.32954384  0.73727468  1
  O  O50  1  0.84591244  0.50909783  0.73855324  1
  O  O51  1  0.64804348  0.51238187  0.24229999  1
  O  O52  1  0.85802876  0.34309579  0.24437602  1
  O  O53  1  0.48109099  0.14581949  0.24464888  1
  O  O54  1  0.62191990  0.48550636  0.91299474  1
  O  O55  1  0.85914348  0.36159352  0.91156422  1
  O  O56  1  0.48844095  0.12630002  0.91480372  1
  O  O57  1  0.63936819  0.15360187  0.42399636  1
  O  O58  1  0.52964463  0.38168122  0.42129171  1
  O  O59  1  0.86713532  0.49379990  0.41626567  1
  O  O60  1  0.33286944  0.46899789  0.08023862  1
  O  O61  1  0.15221265  0.65595306  0.08313437  1
  O  O62  1  0.52870281  0.82976924  0.08525709  1
  O  O63  1  0.36468349  0.87318379  0.58609956  1
  O  O64  1  0.51535931  0.64520559  0.58417107  1
  O  O65  1  0.13611307  0.47679544  0.58584243  1
  O  O66  1  0.29333632  0.81287147  0.25827278  1
  O  O67  1  0.52309376  0.71101775  0.25899013  1
  O  O68  1  0.18731635  0.48292628  0.25923733  1
  O  O69  1  0.30780207  0.47738675  0.75331130  1
  O  O70  1  0.17017595  0.67983766  0.75440494  1
  O  O71  1  0.51226425  0.82824799  0.75513935  1
loop_
_geom_bond_atom_site_label_1
_geom_bond_atom_site_label_2
_geom_bond_distance
_geom_bond_site_symmetry_2
Na0 O53 2.380593 1_555
Na0 O67 2.501009 1_545
Na0 O16 2.519625 1_555
Na0 O52 2.623295 1_555
Na0 O2 2.757838 1_555
Na0 O66 2.893611 1_545
Na0 O9 2.944492 1_545
Na0 O31 2.972008 1_545
Na1 O51 2.342375 1_555
Na1 O68 2.527543 1_555
Na1 O53 2.577921 1_555
Na1 O0 2.741050 1_555
Na1 O32 2.868602 1_555
Na1 O17 2.882991 1_555
Na1 O67 2.964663 1_555
Na1 O10 2.972837 1_555
Na2 O52 2.315336 1_555
Na2 O66 2.465323 1_655
Na2 O15 2.578837 1_555
Na2 O51 2.782375 1_555
Na2 O68 2.798626 1_655
Na2 O30 2.812857 1_655
Na2 O1 2.949134 1_555
Na2 O11 2.961757 1_655
Na3 O50 2.421762 1_555
Na3 O48 2.540562 1_555
Na3 O69 2.586671 1_655
Na3 O70 2.649401 1_655
Na3 O12 2.664910 1_555
Na3 O5 2.784814 1_555
Na3 O33 2.876875 1_655
Na3 O7 2.931416 1_655
Na4 O65 2.371265 1_555
Na4 O43 2.446976 1_555
Na4 O64 2.496281 1_555
Na4 O28 2.502886 1_555
Na4 O42 2.776892 1_455
Na4 O7 2.962666 1_555
Na4 O21 3.001114 1_555
Na5 O42 2.417887 1_565
Na5 O63 2.445423 1_555
Na5 O64 2.485754 1_555
Na5 O27 2.502731 1_555
Na5 O44 2.660230 1_555
Na5 O6 2.894427 1_555
Na5 O23 3.017500 1_565
Na6 O62 2.290911 1_555
Na6 O24 2.494537 1_554
Na6 O45 2.525941 1_555
Na6 O19 2.655942 1_555
Na6 O46 2.683847 1_565
Na6 O60 2.824981 1_555
Na7 O46 2.513511 1_455
Na7 O61 2.554888 1_555
Na7 O60 2.559283 1_555
Na7 O25 2.665651 1_554
Na7 O47 2.718302 1_555
Na7 O20 2.820702 1_455
Na7 O10 2.856648 1_555
Na8 O4 2.345453 1_555
Na8 O41 2.396488 1_555
Na8 O55 2.479203 1_555
Na8 O40 2.637423 1_655
Na8 O54 2.658369 1_555
Na8 O19 2.859956 1_556
Na9 O39 2.448477 1_655
Na9 O41 2.519143 1_545
Na9 O55 2.616696 1_555
Na9 O5 2.623013 1_555
Na9 O56 2.666612 1_555
Na9 O20 2.728329 1_556
Na10 O54 2.392892 1_555
Na10 O3 2.412571 1_555
Na10 O39 2.431338 1_555
Na10 O40 2.635873 1_545
Na10 O56 2.770749 1_555
Na10 O18 2.969894 1_556
Na11 O37 2.370066 1_555
Na11 O58 2.381865 1_555
Na11 O36 2.495424 1_655
Na11 O1 2.600009 1_555
Na11 O22 2.765627 1_555
Na11 O59 2.844167 1_555
Na11 O32 2.959177 1_555
Na12 O38 2.409584 1_555
Na12 O37 2.545051 1_445
Na12 O42 2.640271 1_455
Na12 O43 2.702297 1_555
Na12 O44 2.807046 1_445
Na12 O36 2.843821 1_545
Na13 O41 2.522751 1_555
Na13 O39 2.550539 1_665
Na13 O46 2.579321 1_566
Na13 O45 2.659156 1_556
Na13 O47 2.706588 1_666
Na13 O40 2.819588 1_655
Na14 O54 2.456233 1_555
Na14 O55 2.564181 1_555
Na14 O49 2.587500 1_555
Na14 O50 2.615696 1_555
Na14 O56 2.717066 1_555
Na14 O48 2.766903 1_555
Na15 O57 2.487454 1_555
Na15 O58 2.567482 1_555
Na15 O59 2.587067 1_555
Na15 O53 2.611753 1_555
Na15 O52 2.691107 1_555
Na15 O51 2.808502 1_555
Na16 O61 2.343808 1_555
Na16 O62 2.400819 1_555
Na16 O66 2.537878 1_555
Na16 O67 2.789244 1_555
Na16 O68 2.826607 1_555
Na16 O60 2.854528 1_555
Na17 O63 2.396546 1_555
Na17 O65 2.532743 1_555
Na17 O70 2.580942 1_555
Na17 O64 2.624726 1_555
Na17 O71 2.627339 1_555
Na17 O69 2.729385 1_555
O0 Si0 1.587537 1_545
O0 Y0 2.145471 1_555
O1 Si1 1.596807 1_555
O1 Y0 2.265068 1_665
O2 Si2 1.591200 1_655
O2 Y0 2.107528 1_655
O3 Si3 1.603475 1_555
O3 Y1 2.206084 1_445
O4 Si4 1.603296 1_655
O4 Y1 2.190896 1_555
O5 Si5 1.617266 1_545
O5 Y1 2.146142 1_545
O6 Si5 1.677551 1_555
O6 Ta0 1.994702 1_555
O7 Si3 1.664584 1_555
O7 Ta0 2.037156 1_445
O8 Si4 1.678393 1_555
O8 Ta0 1.941840 1_455
O9 Si1 1.711124 1_555
O9 Ta1 1.922622 1_555
O10 Si2 1.697226 1_555
O10 Ta1 2.012998 1_445
O11 Si0 1.691683 1_555
O11 Ta1 1.950195 1_455
O12 Si6 1.630206 1_555
O12 Ta2 1.977958 1_555
O13 Si7 1.621818 1_555
O13 Ta2 1.932476 1_555
O14 Si8 1.625414 1_555
O14 Ta2 1.920951 1_555
O15 Si9 1.612631 1_555
O15 Y2 2.152094 1_555
O16 Si10 1.605829 1_555
O16 Y2 2.150050 1_555
O17 S0 1.472536 1_555
O17 Y2 2.297685 1_555
O18 S0 1.477243 1_555
O18 Y3 2.438739 1_554
O19 Si9 1.654671 1_555
O19 Y3 2.170141 1_554
O20 Si10 1.650326 1_555
O20 Y3 2.221777 1_554
O21 Si7 1.713072 1_555
O21 Ta3 1.895199 1_555
O22 Si8 1.667391 1_555
O22 Ta3 2.020331 1_555
O23 Si6 1.681581 1_555
O23 Ta3 1.969119 1_555
O24 Si11 1.619989 1_555
O24 Y4 2.171263 1_556
O25 Si12 1.621685 1_555
O25 Y4 2.170266 1_556
O26 S1 1.477036 1_555
O26 Y4 2.213683 1_556
O27 Si13 1.603225 1_555
O27 Y5 2.148940 1_555
O28 Si14 1.605580 1_555
O28 Y5 2.150627 1_555
O29 S2 1.458210 1_555
O29 Y5 2.239645 1_555
O30 S2 1.517094 1_555
O30 Ta4 2.243629 1_555
O31 Si13 1.726685 1_555
O31 Ta4 1.940286 1_555
O32 Si14 1.739138 1_555
O32 Ta4 1.959495 1_555
O33 Si12 1.696131 1_555
O33 Ta5 1.987479 1_555
O34 S1 1.477347 1_555
O34 Ta5 2.328295 1_555
O35 Si11 1.699149 1_555
O35 Ta5 1.940309 1_555
O36 S2 1.471397 1_555
O36 Y0 2.387413 1_565
O37 Si13 1.623475 1_555
O37 Y0 2.248171 1_665
O38 Si14 1.603946 1_555
O38 Y0 2.196124 1_555
O39 Si12 1.636996 1_555
O39 Y1 2.301767 1_445
O40 S1 1.481268 1_555
O40 Y1 2.402665 1_455
O41 Si11 1.636196 1_555
O41 Y1 2.273036 1_555
O42 Si6 1.672281 1_555
O42 Ta0 2.101040 1_545
O43 Si7 1.648989 1_555
O43 Ta0 2.073594 1_445
O44 Si8 1.668446 1_555
O44 Ta0 2.000413 1_555
O45 Si9 1.667093 1_555
O45 Ta1 1.984341 1_555
O46 Si10 1.684318 1_555
O46 Ta1 2.012708 1_545
O47 S0 1.489706 1_555
O47 Ta1 2.281020 1_445
O48 Si5 1.640691 1_545
O48 Ta2 2.009972 1_555
O49 Si3 1.629468 1_555
O49 Ta2 1.998357 1_555
O50 Si4 1.652246 1_655
O50 Ta2 2.024320 1_555
O51 Si1 1.609731 1_555
O51 Y2 2.271788 1_555
O52 Si2 1.623738 1_655
O52 Y2 2.198312 1_555
O53 Si0 1.622956 1_545
O53 Y2 2.241095 1_555
O54 Si11 1.639199 1_555
O54 Y3 2.303883 1_555
O55 Si12 1.648551 1_655
O55 Y3 2.236449 1_555
O56 S1 1.490766 1_545
O56 Y3 2.467288 1_555
O57 Si13 1.666875 1_545
O57 Ta3 1.999803 1_555
O58 Si14 1.682510 1_555
O58 Ta3 2.047881 1_555
O59 S2 1.500111 1_655
O59 Ta3 2.378438 1_555
O60 S0 1.483067 1_555
O60 Y4 2.366280 1_555
O61 Si9 1.623295 1_455
O61 Y4 2.221284 1_555
O62 Si10 1.630302 1_565
O62 Y4 2.239892 1_555
O63 Si7 1.599784 1_565
O63 Y5 2.281539 1_555
O64 Si8 1.630412 1_555
O64 Y5 2.299679 1_555
O65 Si6 1.611275 1_455
O65 Y5 2.258261 1_555
O66 Si0 1.665588 1_555
O66 Ta4 2.057704 1_555
O67 Si1 1.678647 1_555
O67 Ta4 1.954905 1_555
O68 Si2 1.673439 1_555
O68 Ta4 2.058749 1_555
O69 Si3 1.696072 1_555
O69 Ta5 1.926907 1_555
O70 Si4 1.661981 1_555
O70 Ta5 2.029903 1_555
O71 Si5 1.652453 1_555
O71 Ta5 1.994733 1_555
