# generated using pymatgen
data_CaCuBi
_symmetry_space_group_name_H-M   'P 1'
_cell_length_a   4.61243262
_cell_length_b   4.61243262
_cell_length_c   8.29880400
_cell_angle_alpha   90.00000000
_cell_angle_beta   90.00000000
_cell_angle_gamma   120.00000888
_symmetry_Int_Tables_number   1
_chemical_formula_structural   CaCuBi
_chemical_formula_sum   'Ca2 Cu2 Bi2'
_cell_volume   152.89953690
_cell_formula_units_Z   2
loop_
 _symmetry_equiv_pos_site_id
 _symmetry_equiv_pos_as_xyz
  1  'x, y, z'
loop_
 _atom_site_type_symbol
 _atom_site_label
 _atom_site_symmetry_multiplicity
 _atom_site_fract_x
 _atom_site_fract_y
 _atom_site_fract_z
 _atom_site_occupancy
  Ca  Ca0  1  0.00000000  0.00000000  0.00000000  1
  Ca  Ca1  1  0.00000000  0.00000000  0.50000000  1
  Cu  Cu0  1  0.33333300  0.66666700  0.25000000  1
  Cu  Cu1  1  0.66666700  0.33333300  0.75000000  1
  Bi  Bi0  1  0.33333300  0.66666700  0.75000000  1
  Bi  Bi1  1  0.66666700  0.33333300  0.25000000  1
loop_
_geom_bond_atom_site_label_1
_geom_bond_atom_site_label_2
_geom_bond_distance
_geom_bond_site_symmetry_2
Ca0 Cu0 3.375779 1_545
Ca0 Cu1 3.375779 1_454
Ca0 Cu1 3.375782 1_444
Ca0 Cu0 3.375782 1_555
Ca0 Cu0 3.375782 1_445
Ca0 Cu1 3.375782 1_554
Ca1 Cu0 3.375779 1_545
Ca1 Cu1 3.375779 1_455
Ca1 Cu0 3.375782 1_555
Ca1 Cu0 3.375782 1_445
Ca1 Cu1 3.375782 1_555
Ca1 Cu1 3.375782 1_445
Bi0 Cu1 2.662986 1_455
Bi0 Cu1 2.662986 1_565
Bi0 Cu1 2.662995 1_555
Bi0 Ca1 3.375779 1_565
Bi0 Ca0 3.375779 1_566
Bi0 Ca1 3.375782 1_665
Bi0 Ca1 3.375782 1_555
Bi0 Ca0 3.375782 1_556
Bi0 Ca0 3.375782 1_666
Bi1 Cu0 2.662986 1_545
Bi1 Cu0 2.662986 1_655
Bi1 Cu0 2.662995 1_555
Bi1 Ca0 3.375779 1_655
Bi1 Ca1 3.375779 1_655
Bi1 Ca0 3.375782 1_555
Bi1 Ca1 3.375782 1_665
Bi1 Ca0 3.375782 1_665
Bi1 Ca1 3.375782 1_555
