# generated using pymatgen
data_BiSI
_symmetry_space_group_name_H-M   'P 1'
_cell_length_a   4.19671630
_cell_length_b   8.74615388
_cell_length_c   10.60828543
_cell_angle_alpha   90.00000000
_cell_angle_beta   90.00000000
_cell_angle_gamma   90.00000000
_symmetry_Int_Tables_number   1
_chemical_formula_structural   BiSI
_chemical_formula_sum   'Bi4 S4 I4'
_cell_volume   389.37845919
_cell_formula_units_Z   4
loop_
 _symmetry_equiv_pos_site_id
 _symmetry_equiv_pos_as_xyz
  1  'x, y, z'
loop_
 _atom_site_type_symbol
 _atom_site_label
 _atom_site_symmetry_multiplicity
 _atom_site_fract_x
 _atom_site_fract_y
 _atom_site_fract_z
 _atom_site_occupancy
  Bi  Bi0  1  0.25000000  0.37895146  0.37646968  1
  Bi  Bi1  1  0.75000000  0.62104854  0.62353032  1
  Bi  Bi2  1  0.25000000  0.87895146  0.12353032  1
  Bi  Bi3  1  0.75000000  0.12104854  0.87646968  1
  S  S0  1  0.75000000  0.34122621  0.54317871  1
  S  S1  1  0.25000000  0.15877379  0.04317871  1
  S  S2  1  0.75000000  0.84122621  0.95682129  1
  S  S3  1  0.25000000  0.65877379  0.45682129  1
  I  I0  1  0.25000000  0.48730799  0.82431426  1
  I  I1  1  0.75000000  0.01269201  0.32431426  1
  I  I2  1  0.25000000  0.98730799  0.67568574  1
  I  I3  1  0.75000000  0.51269201  0.17568574  1
loop_
_geom_bond_atom_site_label_1
_geom_bond_atom_site_label_2
_geom_bond_distance
_geom_bond_site_symmetry_2
Bi0 S3 2.591561 1_555
Bi0 S0 2.763975 1_455
Bi0 S0 2.763975 1_555
Bi0 I3 3.210627 1_555
Bi0 I3 3.210627 1_455
Bi1 S0 2.591561 1_555
Bi1 S3 2.763975 1_555
Bi1 S3 2.763975 1_655
Bi1 I0 3.210627 1_555
Bi1 I0 3.210627 1_655
Bi2 S1 2.591561 1_565
Bi2 S2 2.763975 1_554
Bi2 S2 2.763975 1_454
Bi2 I1 3.210627 1_565
Bi2 I1 3.210627 1_465
Bi3 S2 2.591561 1_545
Bi3 S1 2.763975 1_656
Bi3 S1 2.763975 1_556
Bi3 I2 3.210627 1_645
Bi3 I2 3.210627 1_545
