# generated using pymatgen
data_RbMgV4O10
_symmetry_space_group_name_H-M   'P 1'
_cell_length_a   3.85603503
_cell_length_b   6.01844186
_cell_length_c   10.99255322
_cell_angle_alpha   98.61501977
_cell_angle_beta   89.98652092
_cell_angle_gamma   108.68426618
_symmetry_Int_Tables_number   1
_chemical_formula_structural   RbMgV4O10
_chemical_formula_sum   'Rb1 Mg1 V4 O10'
_cell_volume   238.62572412
_cell_formula_units_Z   1
loop_
 _symmetry_equiv_pos_site_id
 _symmetry_equiv_pos_as_xyz
  1  'x, y, z'
loop_
 _atom_site_type_symbol
 _atom_site_label
 _atom_site_symmetry_multiplicity
 _atom_site_fract_x
 _atom_site_fract_y
 _atom_site_fract_z
 _atom_site_occupancy
  Rb  Rb0  1  0.50557200  0.01165500  0.49965200  1
  Mg  Mg0  1  0.43665100  0.87384500  0.05173200  1
  V  V0  1  0.19492300  0.38997100  0.81908000  1
  V  V1  1  0.89811800  0.79633200  0.81801600  1
  V  V2  1  0.10716300  0.21506700  0.18962100  1
  V  V3  1  0.79692400  0.59457400  0.18944300  1
  O  O0  1  0.04939700  0.09914800  0.88647300  1
  O  O1  1  0.15659400  0.31304700  0.66913400  1
  O  O2  1  0.37611800  0.75246600  0.86510400  1
  O  O3  1  0.73794100  0.47607200  0.85951200  1
  O  O4  1  0.89192200  0.78346200  0.66925600  1
  O  O5  1  0.10976600  0.22078200  0.33909200  1
  O  O6  1  0.27319600  0.54713100  0.13949000  1
  O  O7  1  0.61523600  0.23118500  0.14215100  1
  O  O8  1  0.84043700  0.68194600  0.33879200  1
  O  O9  1  0.93861200  0.87789900  0.10470100  1
loop_
_geom_bond_atom_site_label_1
_geom_bond_atom_site_label_2
_geom_bond_distance
_geom_bond_site_symmetry_2
Mg0 O9 2.012985 1_555
Mg0 O9 2.013211 1_455
Mg0 O2 2.058847 1_554
Mg0 O7 2.120937 1_565
Mg0 O6 2.228944 1_555
O0 V1 1.770929 1_445
O0 V0 1.919958 1_555
O1 V0 1.637283 1_555
O1 Rb0 3.020319 1_555
O1 Rb0 3.022480 1_455
O2 V1 2.021910 1_455
O2 V1 2.022170 1_555
O2 V0 2.048563 1_555
O3 V1 1.950691 1_555
O3 V0 2.021561 1_555
O3 V0 2.021602 1_655
O4 V1 1.625271 1_555
O4 Rb0 3.105497 1_665
O4 Rb0 3.108180 1_565
O5 V2 1.638234 1_555
O5 Rb0 2.985294 1_455
O5 Rb0 2.987672 1_555
O6 V3 2.011068 1_455
O6 V3 2.011363 1_555
O6 V2 2.053678 1_555
O7 V2 2.003217 1_555
O7 V2 2.003350 1_655
O7 V3 2.054765 1_555
O8 V3 1.638566 1_555
O8 Rb0 3.053039 1_565
O8 Rb0 3.054927 1_665
O9 V3 1.988117 1_555
O9 V2 1.999839 1_665
