# generated using pymatgen
data_MgCo6(O5F)2
_symmetry_space_group_name_H-M   'P 1'
_cell_length_a   4.90914925
_cell_length_b   13.65033274
_cell_length_c   2.87577200
_cell_angle_alpha   90.00000420
_cell_angle_beta   90.00000000
_cell_angle_gamma   90.87919969
_symmetry_Int_Tables_number   1
_chemical_formula_structural   MgCo6(O5F)2
_chemical_formula_sum   'Mg1 Co6 O10 F2'
_cell_volume   192.68716693
_cell_formula_units_Z   1
loop_
 _symmetry_equiv_pos_site_id
 _symmetry_equiv_pos_as_xyz
  1  'x, y, z'
loop_
 _atom_site_type_symbol
 _atom_site_label
 _atom_site_symmetry_multiplicity
 _atom_site_fract_x
 _atom_site_fract_y
 _atom_site_fract_z
 _atom_site_occupancy
  Mg  Mg0  1  0.55354600  0.67930300  0.50000000  1
  Co  Co0  1  0.92860100  0.01238700  0.00000000  1
  Co  Co1  1  0.02090500  0.34054700  0.00000000  1
  Co  Co2  1  0.07172100  0.63683500  0.00000000  1
  Co  Co3  1  0.43318700  0.16006800  0.50000000  1
  Co  Co4  1  0.54594400  0.48433900  0.50000000  1
  Co  Co5  1  0.41165200  0.87408700  0.50000000  1
  O  O0  1  0.15634700  0.26815700  0.50000000  1
  O  O1  1  0.08917100  0.93992900  0.50000000  1
  O  O2  1  0.25615900  0.57499400  0.50000000  1
  O  O3  1  0.39050700  0.76354500  0.00000000  1
  O  O4  1  0.23840700  0.09551200  0.00000000  1
  O  O5  1  0.38828200  0.42006900  0.00000000  1
  O  O6  1  0.69890100  0.57091400  0.00000000  1
  O  O7  1  0.62838500  0.92646500  0.00000000  1
  O  O8  1  0.76433800  0.07656900  0.50000000  1
  O  O9  1  0.85988300  0.40738000  0.50000000  1
  F  F0  1  0.63212100  0.23584100  0.00000000  1
  F  F1  1  0.91805400  0.72750200  0.50000000  1
loop_
_geom_bond_atom_site_label_1
_geom_bond_atom_site_label_2
_geom_bond_distance
_geom_bond_site_symmetry_2
Mg0 O3 2.014626 1_556
Mg0 O3 2.014626 1_555
Mg0 O2 2.023591 1_555
Mg0 O6 2.190469 1_555
Mg0 O6 2.190469 1_556
Co0 O7 1.869402 1_545
Co0 O8 1.872705 1_555
Co0 O8 1.872705 1_554
Co0 O4 1.883517 1_655
Co0 O1 1.921216 1_644
Co0 O1 1.921216 1_645
Co1 O0 1.872489 1_554
Co1 O0 1.872489 1_555
Co1 O9 1.883291 1_455
Co1 O9 1.883291 1_454
Co1 O5 2.090664 1_555
Co1 F0 2.366823 1_455
Co2 O2 1.903516 1_554
Co2 O2 1.903516 1_555
Co2 O6 2.027046 1_455
Co2 F1 2.048655 1_455
Co2 F1 2.048655 1_454
Co2 O3 2.314668 1_555
Co3 O4 1.931972 1_555
Co3 O4 1.931972 1_556
Co3 O8 1.999696 1_555
Co3 F0 2.014966 1_556
Co3 F0 2.014966 1_555
Co3 O0 2.021264 1_555
Co4 O5 1.848080 1_555
Co4 O5 1.848080 1_556
Co4 O9 1.878426 1_555
Co4 O2 1.899775 1_555
Co4 O6 2.000179 1_556
Co4 O6 2.000179 1_555
Co5 O1 1.832395 1_555
Co5 O7 1.920262 1_556
Co5 O7 1.920262 1_555
Co5 O3 2.085754 1_555
Co5 O3 2.085754 1_556
F1 Mg0 1.897046 1_555
