# generated using pymatgen
data_Na9Mg4Ta2(PO4)9
_symmetry_space_group_name_H-M   'P 1'
_cell_length_a   8.96438851
_cell_length_b   26.82273174
_cell_length_c   22.05525983
_cell_angle_alpha   89.99934929
_cell_angle_beta   90.00059797
_cell_angle_gamma   120.09151599
_symmetry_Int_Tables_number   1
_chemical_formula_structural   Na9Mg4Ta2(PO4)9
_chemical_formula_sum   'Na54 Mg24 Ta12 P54 O216'
_cell_volume   4588.44205427
_cell_formula_units_Z   6
loop_
 _symmetry_equiv_pos_site_id
 _symmetry_equiv_pos_as_xyz
  1  'x, y, z'
loop_
 _atom_site_type_symbol
 _atom_site_label
 _atom_site_symmetry_multiplicity
 _atom_site_fract_x
 _atom_site_fract_y
 _atom_site_fract_z
 _atom_site_occupancy
  Na  Na0  1  0.02779018  0.00482384  0.49264195  1
  Na  Na1  1  0.01040921  0.33073338  0.49306922  1
  Na  Na2  1  0.98292934  0.66980840  0.50561432  1
  Na  Na3  1  0.99708879  0.00423390  0.99587986  1
  Na  Na4  1  0.01817230  0.33807341  0.00776839  1
  Na  Na5  1  0.99711830  0.66092039  0.00940905  1
  Na  Na6  1  0.65023112  0.10548210  0.82996836  1
  Na  Na7  1  0.68253055  0.44981263  0.83668601  1
  Na  Na8  1  0.66752029  0.77812769  0.83317665  1
  Na  Na9  1  0.65250254  0.10214919  0.32287162  1
  Na  Na10  1  0.67832352  0.45224945  0.34351098  1
  Na  Na11  1  0.69703661  0.78404831  0.33206184  1
  Na  Na12  1  0.32215801  0.22398105  0.17361097  1
  Na  Na13  1  0.30562063  0.54982776  0.17342345  1
  Na  Na14  1  0.33739180  0.89299594  0.16069739  1
  Na  Na15  1  0.31469844  0.21702673  0.65884369  1
  Na  Na16  1  0.33664654  0.55159312  0.67147414  1
  Na  Na17  1  0.33435056  0.89435751  0.65672505  1
  Na  Na18  1  0.64826984  0.32871327  0.26496454  1
  Na  Na19  1  0.62193517  0.66529203  0.24478439  1
  Na  Na20  1  0.37261107  0.12371535  0.25615408  1
  Na  Na21  1  0.34415308  0.45065640  0.25859872  1
  Na  Na22  1  0.36145583  0.78558599  0.23613527  1
  Na  Na23  1  0.99604558  0.21257586  0.24768898  1
  Na  Na24  1  0.62647970  0.20897106  0.74878436  1
  Na  Na25  1  0.62553681  0.54288384  0.74451371  1
  Na  Na26  1  0.64336042  0.87580363  0.74146400  1
  Na  Na27  1  0.99979216  0.12564989  0.74935919  1
  Na  Na28  1  0.99559599  0.45585533  0.75672423  1
  Na  Na29  1  0.38019495  0.33385405  0.74891849  1
  Na  Na30  1  0.37712965  0.66662454  0.74617798  1
  Na  Na31  1  0.30185971  0.77875365  0.58218180  1
  Na  Na32  1  0.01275065  0.56541568  0.58881284  1
  Na  Na33  1  0.01464672  0.88963371  0.57314064  1
  Na  Na34  1  0.65391953  0.32294731  0.56937920  1
  Na  Na35  1  0.68357157  0.66711427  0.59257978  1
  Na  Na36  1  0.31886305  0.66595564  0.09381292  1
  Na  Na37  1  0.32107638  0.99113825  0.07767472  1
  Na  Na38  1  0.67854994  0.23199980  0.09759596  1
  Na  Na39  1  0.65075945  0.89022319  0.07403744  1
  Na  Na40  1  0.03140772  0.77776907  0.08374884  1
  Na  Na41  1  0.95304484  0.22157226  0.91798824  1
  Na  Na42  1  0.95670541  0.88945031  0.92030151  1
  Na  Na43  1  0.70784901  0.01259097  0.92227586  1
  Na  Na44  1  0.70646547  0.34642589  0.91787825  1
  Na  Na45  1  0.68992782  0.68010058  0.92481458  1
  Na  Na46  1  0.33770006  0.09959061  0.91026450  1
  Na  Na47  1  0.33332822  0.42966976  0.91716613  1
  Na  Na48  1  0.98770631  0.10412020  0.40766022  1
  Na  Na49  1  0.95976785  0.43127663  0.41089304  1
  Na  Na50  1  0.33637972  0.34217038  0.41909495  1
  Na  Na51  1  0.35299751  0.68220830  0.42192906  1
  Na  Na52  1  0.68446195  0.22636978  0.40160425  1
  Na  Na53  1  0.70753073  0.88947927  0.42027018  1
  Mg  Mg0  1  0.00495276  0.00001573  0.35295073  1
  Mg  Mg1  1  0.99920043  0.33436931  0.34862281  1
  Mg  Mg2  1  0.00387647  0.00121791  0.85202614  1
  Mg  Mg3  1  0.99939294  0.33323466  0.85517572  1
  Mg  Mg4  1  0.00218019  0.66934349  0.64891604  1
  Mg  Mg5  1  0.00656353  0.33411267  0.14832851  1
  Mg  Mg6  1  0.99949975  0.66634946  0.14726288  1
  Mg  Mg7  1  0.65954118  0.10914244  0.68629872  1
  Mg  Mg8  1  0.66333136  0.44570970  0.68287929  1
  Mg  Mg9  1  0.68427657  0.77714773  0.68449992  1
  Mg  Mg10  1  0.67455433  0.11172579  0.18230617  1
  Mg  Mg11  1  0.66508826  0.77878213  0.18476861  1
  Mg  Mg12  1  0.66970766  0.10965661  0.98395964  1
  Mg  Mg13  1  0.67375221  0.44636957  0.98032687  1
  Mg  Mg14  1  0.65215602  0.77945893  0.98206607  1
  Mg  Mg15  1  0.65760583  0.44344370  0.48444380  1
  Mg  Mg16  1  0.68909742  0.77924870  0.48186592  1
  Mg  Mg17  1  0.33165162  0.88633413  0.01819278  1
  Mg  Mg18  1  0.32610251  0.22119642  0.51833335  1
  Mg  Mg19  1  0.33020458  0.88816547  0.51836932  1
  Mg  Mg20  1  0.33356226  0.22077293  0.31807210  1
  Mg  Mg21  1  0.32688427  0.55423262  0.31347465  1
  Mg  Mg22  1  0.33379393  0.22220638  0.81149792  1
  Mg  Mg23  1  0.32957877  0.55446221  0.81482903  1
  Ta  Ta0  1  0.99448648  0.66293526  0.35254370  1
  Ta  Ta1  1  0.99922479  0.66544227  0.85364939  1
  Ta  Ta2  1  0.00306684  0.00162897  0.64604435  1
  Ta  Ta3  1  0.00482081  0.33148090  0.64721906  1
  Ta  Ta4  1  0.99149113  0.99950455  0.15009251  1
  Ta  Ta5  1  0.67259452  0.44531423  0.18285605  1
  Ta  Ta6  1  0.66037896  0.11000314  0.48367979  1
  Ta  Ta7  1  0.32810574  0.22381952  0.01950131  1
  Ta  Ta8  1  0.33032556  0.55388032  0.02045240  1
  Ta  Ta9  1  0.34127589  0.55475820  0.51766398  1
  Ta  Ta10  1  0.33273708  0.89409076  0.31468193  1
  Ta  Ta11  1  0.33418829  0.89027910  0.81294472  1
  P  P0  1  0.29110942  0.00051674  0.24925027  1
  P  P1  1  0.29617932  0.33411908  0.25174379  1
  P  P2  1  0.29423336  0.66476298  0.24810887  1
  P  P3  1  0.70292920  0.23341553  0.24843450  1
  P  P4  1  0.70493223  0.56874075  0.24673456  1
  P  P5  1  0.70125807  0.90080541  0.25559428  1
  P  P6  1  0.99659686  0.09851073  0.25577223  1
  P  P7  1  0.00010787  0.43174282  0.24960377  1
  P  P8  1  0.99856144  0.76446729  0.24894245  1
  P  P9  1  0.29587649  0.09863825  0.75373256  1
  P  P10  1  0.29547104  0.43011894  0.75433486  1
  P  P11  1  0.29455708  0.76466800  0.74917446  1
  P  P12  1  0.99521583  0.23392143  0.75572126  1
  P  P13  1  0.00217873  0.56890001  0.74653539  1
  P  P14  1  0.00322839  0.90274644  0.75179757  1
  P  P15  1  0.71033523  0.00098888  0.75480219  1
  P  P16  1  0.70983813  0.33454436  0.75126087  1
  P  P17  1  0.70322468  0.66620760  0.74902071  1
  P  P18  1  0.95920359  0.11190184  0.58820031  1
  P  P19  1  0.96193858  0.44462749  0.58407615  1
  P  P20  1  0.96984067  0.77784429  0.58382546  1
  P  P21  1  0.37062943  0.01241417  0.58802918  1
  P  P22  1  0.37251311  0.34456939  0.58386744  1
  P  P23  1  0.37429709  0.68020549  0.58167449  1
  P  P24  1  0.66372287  0.20900481  0.58864700  1
  P  P25  1  0.66914013  0.54343113  0.58564001  1
  P  P26  1  0.66383419  0.87439286  0.58505504  1
  P  P27  1  0.96072087  0.21088102  0.08284053  1
  P  P28  1  0.96295279  0.54313304  0.07874288  1
  P  P29  1  0.95866853  0.87528258  0.08169526  1
  P  P30  1  0.66519403  0.01208533  0.08113473  1
  P  P31  1  0.66937780  0.34642993  0.07785288  1
  P  P32  1  0.66879934  0.68111941  0.08172637  1
  P  P33  1  0.36929880  0.11044597  0.08255481  1
  P  P34  1  0.37424339  0.44369785  0.07846344  1
  P  P35  1  0.36456827  0.77766979  0.08579087  1
  P  P36  1  0.62360655  0.22107560  0.91546046  1
  P  P37  1  0.62331784  0.55457983  0.91193260  1
  P  P38  1  0.62911097  0.88907636  0.91773836  1
  P  P39  1  0.03760953  0.12538320  0.91233777  1
  P  P40  1  0.03726217  0.45686357  0.91294678  1
  P  P41  1  0.03971461  0.79092517  0.91774502  1
  P  P42  1  0.33821967  0.32157103  0.91106235  1
  P  P43  1  0.32974638  0.65295872  0.91528006  1
  P  P44  1  0.33145247  0.98675396  0.92004847  1
  P  P45  1  0.63017949  0.32209182  0.41817855  1
  P  P46  1  0.63012903  0.65390823  0.41193834  1
  P  P47  1  0.62762458  0.98668380  0.42016117  1
  P  P48  1  0.33304444  0.12376341  0.41706910  1
  P  P49  1  0.33582331  0.45643771  0.41087913  1
  P  P50  1  0.33382873  0.79173032  0.41599728  1
  P  P51  1  0.03714997  0.22140706  0.41490501  1
  P  P52  1  0.04180329  0.55546008  0.41727672  1
  P  P53  1  0.03647535  0.88993386  0.42095698  1
  O  O0  1  0.19934374  0.00626124  0.30354940  1
  O  O1  1  0.23600350  0.35017603  0.31053918  1
  O  O2  1  0.17945118  0.66437814  0.30533420  1
  O  O3  1  0.81258477  0.26487084  0.30508533  1
  O  O4  1  0.81371165  0.59737585  0.30740889  1
  O  O5  1  0.79707617  0.93067891  0.31280594  1
  O  O6  1  0.98770393  0.06702896  0.31414388  1
  O  O7  1  0.95886746  0.39788293  0.30963448  1
  O  O8  1  0.98559488  0.72153557  0.30217122  1
  O  O9  1  0.20980540  0.06708812  0.81219790  1
  O  O10  1  0.21228866  0.39699758  0.81242266  1
  O  O11  1  0.18114702  0.72532020  0.80381679  1
  O  O12  1  0.97828232  0.26278728  0.81268820  1
  O  O13  1  0.99481947  0.60539402  0.80355437  1
  O  O14  1  0.98700883  0.93226562  0.80824027  1
  O  O15  1  0.80500252  0.00535839  0.81333072  1
  O  O16  1  0.81633368  0.34159011  0.80822701  1
  O  O17  1  0.81449735  0.66686092  0.80687898  1
  O  O18  1  0.81155706  0.33018020  0.69358900  1
  O  O19  1  0.79348594  0.66105983  0.69280554  1
  O  O20  1  0.80871688  0.99136631  0.70027841  1
  O  O21  1  0.17161028  0.06038226  0.69871931  1
  O  O22  1  0.17606238  0.39246996  0.69887130  1
  O  O23  1  0.20124403  0.73961628  0.69003255  1
  O  O24  1  0.99660387  0.27230430  0.69897871  1
  O  O25  1  0.01804385  0.60403607  0.68994809  1
  O  O26  1  0.02636952  0.94030425  0.69340545  1
  O  O27  1  0.78936121  0.26824049  0.19087639  1
  O  O28  1  0.80028918  0.60840854  0.19489462  1
  O  O29  1  0.80068274  0.93875190  0.19759196  1
  O  O30  1  0.00607656  0.05854612  0.20210690  1
  O  O31  1  0.01768090  0.39916729  0.19688289  1
  O  O32  1  0.03979925  0.74290636  0.19105480  1
  O  O33  1  0.18202539  0.32599146  0.19795725  1
  O  O34  1  0.19692568  0.66422832  0.19143795  1
  O  O35  1  0.17858966  0.99119574  0.19023792  1
  O  O36  1  0.87553352  0.11614072  0.64613479  1
  O  O37  1  0.89586801  0.46011889  0.64098451  1
  O  O38  1  0.88197712  0.78476071  0.64027250  1
  O  O39  1  0.46995855  0.04151916  0.64433433  1
  O  O40  1  0.48155867  0.37610605  0.63965800  1
  O  O41  1  0.48070219  0.70414550  0.64012142  1
  O  O42  1  0.65834065  0.17806185  0.64648843  1
  O  O43  1  0.64150713  0.51367857  0.64708928  1
  O  O44  1  0.64332794  0.83807521  0.64185396  1
  O  O45  1  0.89043285  0.17762292  0.14205027  1
  O  O46  1  0.86527209  0.50474863  0.13616475  1
  O  O47  1  0.86317739  0.83534483  0.13422849  1
  O  O48  1  0.64075212  0.04468175  0.13244660  1
  O  O49  1  0.65117206  0.38089848  0.13406984  1
  O  O50  1  0.62749265  0.70407105  0.13961803  1
  O  O51  1  0.48303777  0.12311447  0.13831662  1
  O  O52  1  0.49698934  0.45326610  0.13509676  1
  O  O53  1  0.46708767  0.78381980  0.14460864  1
  O  O54  1  0.43640901  0.09524610  0.02549875  1
  O  O55  1  0.45814875  0.43958817  0.02073066  1
  O  O56  1  0.46354626  0.77269474  0.03178039  1
  O  O57  1  0.85196927  0.17952822  0.02688815  1
  O  O58  1  0.86349055  0.51423594  0.02245574  1
  O  O59  1  0.85977965  0.85463621  0.02124127  1
  O  O60  1  0.69395450  0.04203733  0.01965560  1
  O  O61  1  0.67548416  0.37758521  0.02024675  1
  O  O62  1  0.69057138  0.71759976  0.02497514  1
  O  O63  1  0.46837254  0.05096665  0.53068484  1
  O  O64  1  0.44235352  0.37783678  0.52457005  1
  O  O65  1  0.46229407  0.71606653  0.52493948  1
  O  O66  1  0.68256199  0.17483382  0.53249937  1
  O  O67  1  0.69259348  0.51078594  0.53411929  1
  O  O68  1  0.70399754  0.85080021  0.52731704  1
  O  O69  1  0.83630638  0.10235833  0.53170921  1
  O  O70  1  0.84939230  0.43237382  0.52808966  1
  O  O71  1  0.85641198  0.76787519  0.52767281  1
  O  O72  1  0.52197974  0.22548333  0.97304915  1
  O  O73  1  0.52455209  0.56416628  0.96646497  1
  O  O74  1  0.53857608  0.89371641  0.97412531  1
  O  O75  1  0.15714249  0.16312049  0.96769098  1
  O  O76  1  0.16169766  0.49520832  0.96797372  1
  O  O77  1  0.13321898  0.81540647  0.97701508  1
  O  O78  1  0.33664072  0.28322908  0.96768054  1
  O  O79  1  0.30649943  0.61519188  0.97354353  1
  O  O80  1  0.31649898  0.95159422  0.97639560  1
  O  O81  1  0.54341836  0.28743336  0.47584602  1
  O  O82  1  0.53429922  0.61617326  0.47055372  1
  O  O83  1  0.53081051  0.94733438  0.47214970  1
  O  O84  1  0.31581768  0.15643774  0.46981692  1
  O  O85  1  0.32556146  0.49623958  0.46472420  1
  O  O86  1  0.30889540  0.81480457  0.47537433  1
  O  O87  1  0.15201468  0.23009282  0.46869589  1
  O  O88  1  0.15943419  0.56577557  0.47536736  1
  O  O89  1  0.13376139  0.89251392  0.47810204  1
  O  O90  1  0.09779584  0.20553688  0.35616067  1
  O  O91  1  0.13440875  0.55078556  0.36263235  1
  O  O92  1  0.15623835  0.89098505  0.36486852  1
  O  O93  1  0.52005578  0.29074751  0.36153715  1
  O  O94  1  0.52740287  0.62383128  0.35579296  1
  O  O95  1  0.51891216  0.95794101  0.35955032  1
  O  O96  1  0.37530009  0.15790734  0.35719943  1
  O  O97  1  0.34509197  0.48802888  0.35252698  1
  O  O98  1  0.34593002  0.83261990  0.36189285  1
  O  O99  1  0.12088139  0.15854232  0.85420070  1
  O  O100  1  0.12360495  0.48861674  0.85453311  1
  O  O101  1  0.15253393  0.83030476  0.86315890  1
  O  O102  1  0.35536957  0.29283900  0.85392325  1
  O  O103  1  0.34746046  0.62366387  0.85881595  1
  O  O104  1  0.33853180  0.95030361  0.86286351  1
  O  O105  1  0.51743289  0.21418415  0.85840280  1
  O  O106  1  0.52828035  0.55022735  0.85338943  1
  O  O107  1  0.51835173  0.88878077  0.85991441  1
  O  O108  1  0.00934414  0.27357599  0.40883037  1
  O  O109  1  0.03084073  0.61305293  0.41439428  1
  O  O110  1  0.01384778  0.94271195  0.41472967  1
  O  O111  1  0.81258571  0.32810757  0.41397555  1
  O  O112  1  0.81257905  0.65807034  0.41129085  1
  O  O113  1  0.81004733  0.99631676  0.41442782  1
  O  O114  1  0.17631750  0.06311308  0.41340605  1
  O  O115  1  0.16620897  0.39844550  0.41725223  1
  O  O116  1  0.17215395  0.72905416  0.40445279  1
  O  O117  1  0.03051324  0.06688604  0.91772582  1
  O  O118  1  0.03274656  0.39867791  0.91961299  1
  O  O119  1  0.01455954  0.72876828  0.90794584  1
  O  O120  1  0.16853655  0.32239820  0.91729114  1
  O  O121  1  0.16102571  0.65822649  0.91167532  1
  O  O122  1  0.16935088  0.99232316  0.91477929  1
  O  O123  1  0.80068517  0.27678786  0.91730999  1
  O  O124  1  0.80640145  0.61239162  0.91238594  1
  O  O125  1  0.80892293  0.94437398  0.91413694  1
  O  O126  1  0.96856253  0.05362902  0.59168409  1
  O  O127  1  0.98653189  0.39097014  0.59328261  1
  O  O128  1  0.99239865  0.72397122  0.58796035  1
  O  O129  1  0.18692664  0.00957343  0.58811770  1
  O  O130  1  0.18396093  0.33747123  0.59288697  1
  O  O131  1  0.18864406  0.66954671  0.58525261  1
  O  O132  1  0.83495308  0.27130058  0.58703518  1
  O  O133  1  0.81987865  0.60635940  0.58562606  1
  O  O134  1  0.83528905  0.93644184  0.59460866  1
  O  O135  1  0.98638397  0.27192958  0.08461022  1
  O  O136  1  0.00496142  0.60494039  0.08754919  1
  O  O137  1  0.97470621  0.93753583  0.09218711  1
  O  O138  1  0.83074832  0.00424873  0.09218936  1
  O  O139  1  0.81928832  0.33587577  0.08664937  1
  O  O140  1  0.82568549  0.67285468  0.08689978  1
  O  O141  1  0.18162454  0.05702540  0.09358747  1
  O  O142  1  0.19429618  0.39437413  0.08921959  1
  O  O143  1  0.18199840  0.72323005  0.08633127  1
  O  O144  1  0.68936860  0.05320445  0.74639066  1
  O  O145  1  0.69289812  0.38879042  0.74433383  1
  O  O146  1  0.68399599  0.71966161  0.75300211  1
  O  O147  1  0.47651736  0.10678038  0.74787288  1
  O  O148  1  0.47536430  0.43684707  0.74730798  1
  O  O149  1  0.47224261  0.76979261  0.75385252  1
  O  O150  1  0.83639992  0.17342724  0.75015555  1
  O  O151  1  0.83578992  0.51050670  0.75087856  1
  O  O152  1  0.84341425  0.84313424  0.74554079  1
  O  O153  1  0.68334017  0.17222762  0.24744487  1
  O  O154  1  0.68904166  0.50752706  0.24250654  1
  O  O155  1  0.67295455  0.84028882  0.24774565  1
  O  O156  1  0.83951322  0.10536406  0.24633929  1
  O  O157  1  0.83177458  0.43795055  0.23870971  1
  O  O158  1  0.83153158  0.76585694  0.24991867  1
  O  O159  1  0.46947716  0.05272563  0.24102363  1
  O  O160  1  0.48632576  0.38995463  0.23967704  1
  O  O161  1  0.46912776  0.72112563  0.25474610  1
  O  O162  1  0.64055043  0.16682725  0.92234648  1
  O  O163  1  0.64396700  0.50238063  0.92032449  1
  O  O164  1  0.64706973  0.83536435  0.91339374  1
  O  O165  1  0.85786396  0.11873913  0.91938474  1
  O  O166  1  0.85684804  0.44878278  0.91883471  1
  O  O167  1  0.86148276  0.78551226  0.91304158  1
  O  O168  1  0.49797446  0.04518899  0.91569740  1
  O  O169  1  0.49701174  0.38213027  0.91658459  1
  O  O170  1  0.48855754  0.71270590  0.92215634  1
  O  O171  1  0.64371735  0.04801450  0.42405301  1
  O  O172  1  0.65049133  0.38341574  0.41912998  1
  O  O173  1  0.64877358  0.71316662  0.41950615  1
  O  O174  1  0.50166815  0.11769009  0.42805420  1
  O  O175  1  0.49356510  0.45001456  0.42040737  1
  O  O176  1  0.49481071  0.78572263  0.41230107  1
  O  O177  1  0.84754991  0.16565673  0.42709273  1
  O  O178  1  0.86438444  0.50302644  0.42576421  1
  O  O179  1  0.86039002  0.83477552  0.41461312  1
  O  O180  1  0.34561169  0.16435544  0.07318401  1
  O  O181  1  0.36482075  0.50201416  0.07517808  1
  O  O182  1  0.34430135  0.83203793  0.08224789  1
  O  O183  1  0.14927322  0.21808665  0.07384720  1
  O  O184  1  0.14665379  0.54601837  0.07869633  1
  O  O185  1  0.14550757  0.88666542  0.07954666  1
  O  O186  1  0.49834479  0.28433201  0.07969090  1
  O  O187  1  0.49796100  0.61903680  0.07209751  1
  O  O188  1  0.51220443  0.94944741  0.08060989  1
  O  O189  1  0.34691229  0.28362274  0.58215332  1
  O  O190  1  0.35663718  0.61721687  0.57480678  1
  O  O191  1  0.32921049  0.95072105  0.57937941  1
  O  O192  1  0.51418370  0.21966888  0.58010538  1
  O  O193  1  0.50084668  0.55011163  0.57502344  1
  O  O194  1  0.50758463  0.88286449  0.58017059  1
  O  O195  1  0.13893525  0.16117670  0.57747907  1
  O  O196  1  0.14985483  0.49815776  0.57269404  1
  O  O197  1  0.15145888  0.83229246  0.57962165  1
  O  O198  1  0.32374851  0.28193450  0.25766456  1
  O  O199  1  0.31890315  0.61242243  0.25194660  1
  O  O200  1  0.30722970  0.94410742  0.25331113  1
  O  O201  1  0.52018237  0.22725283  0.25266711  1
  O  O202  1  0.52245452  0.55919894  0.25266699  1
  O  O203  1  0.51555547  0.89567119  0.25429498  1
  O  O204  1  0.16646580  0.15659520  0.24931363  1
  O  O205  1  0.15685834  0.49241949  0.25309837  1
  O  O206  1  0.16039724  0.82518553  0.26302149  1
  O  O207  1  0.30078319  0.15694506  0.74706750  1
  O  O208  1  0.30270093  0.48867152  0.74902896  1
  O  O209  1  0.31912984  0.82668382  0.75881445  1
  O  O210  1  0.16499972  0.23321290  0.74932525  1
  O  O211  1  0.16441273  0.56339760  0.75199135  1
  O  O212  1  0.17142478  0.89708287  0.75519559  1
  O  O213  1  0.53289929  0.27884298  0.74939104  1
  O  O214  1  0.52338156  0.61091180  0.75269030  1
  O  O215  1  0.52686141  0.94320769  0.75440697  1
loop_
_geom_bond_atom_site_label_1
_geom_bond_atom_site_label_2
_geom_bond_distance
_geom_bond_site_symmetry_2
Na0 O114 2.276787 1_555
Na0 O110 2.352719 1_545
Na0 O129 2.510609 1_555
Na0 O113 2.528073 1_445
Na0 O126 2.732082 1_455
Na0 O134 2.868058 1_445
Na1 O115 2.345585 1_555
Na1 O108 2.405775 1_555
Na1 O111 2.463234 1_455
Na1 O132 2.606896 1_455
Na1 O130 2.649103 1_555
Na1 O127 2.808622 1_455
Na2 O128 2.300578 1_555
Na2 O133 2.377489 1_555
Na2 O112 2.505336 1_555
Na2 O131 2.549271 1_655
Na2 O109 2.684283 1_655
Na2 O116 2.770857 1_655
Na3 O117 2.319495 1_655
Na3 O125 2.440848 1_545
Na3 O122 2.486142 1_645
Na3 O138 2.595399 1_556
Na3 O141 2.652658 1_656
Na3 O137 2.718926 1_546
Na4 O135 2.365174 1_455
Na4 O142 2.368450 1_555
Na4 O139 2.470523 1_455
Na4 O118 2.495356 1_554
Na4 O120 2.558139 1_554
Na4 O123 2.696276 1_454
Na5 O136 2.309863 1_655
Na5 O143 2.375020 1_655
Na5 O140 2.424565 1_555
Na5 O121 2.630028 1_654
Na5 O124 2.639081 1_554
Na5 O119 2.838782 1_654
Na6 O147 2.399776 1_555
Na6 O168 2.416593 1_555
Na6 O144 2.445525 1_555
Na6 O150 2.480988 1_555
Na6 O165 2.610808 1_555
Na6 O162 2.647524 1_555
Na7 O166 2.401775 1_555
Na7 O151 2.424168 1_555
Na7 O163 2.449351 1_555
Na7 O169 2.477764 1_555
Na7 O148 2.609211 1_555
Na7 O145 2.643687 1_555
Na8 O149 2.404721 1_555
Na8 O164 2.408937 1_555
Na8 O167 2.412420 1_555
Na8 O146 2.416658 1_555
Na8 O152 2.550574 1_555
Na8 O170 2.584829 1_555
Na9 O156 2.349917 1_555
Na9 O159 2.350945 1_555
Na9 O153 2.419911 1_555
Na9 O171 2.641939 1_555
Na9 O174 2.819385 1_555
Na9 O177 2.873310 1_555
Na10 O175 2.350225 1_555
Na10 O178 2.376974 1_555
Na10 O172 2.406380 1_555
Na10 O154 2.650896 1_555
Na10 O157 2.812678 1_555
Na10 O160 2.848675 1_555
Na11 O179 2.304916 1_555
Na11 O158 2.358796 1_555
Na11 O155 2.471216 1_555
Na11 O161 2.544144 1_555
Na11 O176 2.549884 1_555
Na11 O173 2.587763 1_555
Na12 O204 2.339432 1_555
Na12 O198 2.414763 1_555
Na12 O201 2.458210 1_555
Na12 O186 2.615723 1_555
Na12 O183 2.650003 1_555
Na12 O180 2.800943 1_555
Na13 O205 2.275583 1_555
Na13 O199 2.373179 1_555
Na13 O184 2.501999 1_555
Na13 O202 2.531019 1_555
Na13 O181 2.702617 1_555
Na13 O187 2.864190 1_555
Na14 O188 2.342880 1_555
Na14 O182 2.402614 1_555
Na14 O185 2.428601 1_555
Na14 O200 2.548861 1_555
Na14 O203 2.588898 1_555
Na14 O206 2.832824 1_555
Na15 O195 2.362229 1_555
Na15 O189 2.370192 1_555
Na15 O192 2.468126 1_555
Na15 O207 2.489408 1_555
Na15 O210 2.560478 1_555
Na15 O213 2.703934 1_555
Na16 O208 2.313387 1_555
Na16 O214 2.423115 1_555
Na16 O211 2.475470 1_555
Na16 O193 2.598484 1_555
Na16 O196 2.682893 1_555
Na16 O190 2.712856 1_555
Na17 O191 2.295114 1_555
Na17 O197 2.369452 1_555
Na17 O194 2.416104 1_555
Na17 O212 2.638619 1_555
Na17 O215 2.658759 1_555
Na17 O209 2.852164 1_555
Na18 O201 2.380082 1_555
Na18 O93 2.391860 1_555
Na18 O198 2.530426 1_555
Na18 O157 2.606380 1_555
Na18 O7 2.642947 1_555
Na18 O160 2.740103 1_555
Na19 O199 2.356354 1_555
Na19 O158 2.395202 1_555
Na19 O161 2.494930 1_555
Na19 O202 2.525622 1_555
Na19 O50 2.532261 1_555
Na19 O94 2.646530 1_555
Na19 O28 2.922542 1_555
Na20 O201 2.405104 1_555
Na20 O96 2.405441 1_555
Na20 O204 2.418637 1_555
Na20 O153 2.419607 1_555
Na20 O159 2.479752 1_555
Na20 O51 2.784008 1_555
Na20 O0 2.919512 1_555
Na21 O97 2.299588 1_555
Na21 O205 2.444287 1_555
Na21 O202 2.526225 1_555
Na21 O160 2.555456 1_555
Na21 O1 2.626003 1_555
Na21 O154 2.698589 1_555
Na21 O31 2.876133 1_555
Na22 O53 2.240281 1_555
Na22 O161 2.400628 1_555
Na22 O155 2.430513 1_555
Na22 O206 2.578392 1_555
Na22 O203 2.587930 1_555
Na22 O32 2.702462 1_555
Na23 O153 2.446861 1_555
Na23 O156 2.488619 1_555
Na23 O45 2.512694 1_555
Na23 O198 2.580499 1_655
Na23 O90 2.600712 1_655
Na23 O204 2.624908 1_655
Na23 O33 2.855034 1_655
Na23 O3 2.930553 1_555
Na24 O147 2.371887 1_555
Na24 O213 2.406852 1_555
Na24 O42 2.469151 1_555
Na24 O150 2.500018 1_555
Na24 O207 2.527383 1_555
Na24 O105 2.637679 1_555
Na25 O43 2.315959 1_555
Na25 O214 2.424101 1_555
Na25 O151 2.442885 1_555
Na25 O148 2.462936 1_555
Na25 O208 2.505968 1_555
Na25 O106 2.595636 1_555
Na26 O152 2.359645 1_555
Na26 O44 2.418747 1_555
Na26 O149 2.477765 1_555
Na26 O215 2.516790 1_555
Na26 O209 2.547590 1_555
Na26 O20 2.832503 1_555
Na26 O107 2.931401 1_555
Na27 O150 2.381224 1_555
Na27 O207 2.390874 1_655
Na27 O144 2.470147 1_555
Na27 O36 2.490781 1_555
Na27 O210 2.496529 1_655
Na27 O99 2.518551 1_655
Na28 O100 2.394022 1_655
Na28 O145 2.403946 1_555
Na28 O208 2.439815 1_655
Na28 O211 2.498892 1_655
Na28 O151 2.514660 1_555
Na28 O37 2.725968 1_555
Na28 O16 2.885726 1_555
Na29 O210 2.405554 1_555
Na29 O145 2.428456 1_555
Na29 O148 2.448970 1_555
Na29 O213 2.465097 1_555
Na29 O102 2.525410 1_555
Na29 O40 2.623812 1_555
Na30 O146 2.385270 1_555
Na30 O214 2.436648 1_555
Na30 O211 2.454509 1_555
Na30 O149 2.459134 1_555
Na30 O41 2.531663 1_555
Na30 O103 2.694950 1_555
Na31 O128 2.404912 1_455
Na31 O197 2.413451 1_555
Na31 O194 2.457044 1_555
Na31 O86 2.535152 1_555
Na31 O23 2.573746 1_555
Na31 O131 2.575632 1_555
Na32 O131 2.424343 1_555
Na32 O25 2.449801 1_555
Na32 O133 2.470719 1_455
Na32 O196 2.667385 1_555
Na32 O190 2.689628 1_555
Na32 O37 2.726036 1_455
Na32 O67 2.760815 1_455
Na32 O88 2.824327 1_555
Na33 O89 2.336045 1_555
Na33 O197 2.404517 1_555
Na33 O191 2.454010 1_555
Na33 O134 2.531783 1_455
Na33 O68 2.636788 1_455
Na33 O129 2.803900 1_565
Na33 O38 2.857396 1_455
Na33 O26 2.958161 1_555
Na34 O81 2.279910 1_555
Na34 O192 2.412354 1_555
Na34 O189 2.419762 1_555
Na34 O132 2.637937 1_555
Na34 O127 2.653678 1_555
Na34 O70 2.712434 1_555
Na35 O128 2.401408 1_555
Na35 O19 2.458445 1_555
Na35 O133 2.483742 1_555
Na35 O190 2.569235 1_555
Na35 O41 2.684173 1_555
Na35 O193 2.743594 1_555
Na35 O71 2.748688 1_555
Na36 O34 2.404641 1_555
Na36 O143 2.404716 1_555
Na36 O136 2.449031 1_555
Na36 O187 2.533171 1_555
Na36 O50 2.623721 1_555
Na36 O184 2.804223 1_555
Na37 O185 2.430800 1_555
Na37 O80 2.464288 1_554
Na37 O188 2.472149 1_555
Na37 O141 2.650393 1_565
Na37 O54 2.701085 1_565
Na37 O137 2.708142 1_455
Na37 O48 2.758088 1_565
Na37 O35 2.792295 1_555
Na38 O27 2.279470 1_555
Na38 O135 2.424974 1_555
Na38 O139 2.426558 1_555
Na38 O186 2.647588 1_555
Na38 O180 2.656968 1_555
Na38 O51 2.697279 1_555
Na39 O182 2.390880 1_555
Na39 O74 2.443432 1_554
Na39 O188 2.462881 1_555
Na39 O137 2.551146 1_555
Na39 O138 2.677583 1_565
Na39 O59 2.751640 1_555
Na40 O182 2.427598 1_555
Na40 O143 2.438429 1_555
Na40 O140 2.474043 1_455
Na40 O77 2.543563 1_554
Na40 O32 2.559622 1_555
Na40 O185 2.567209 1_555
Na40 O47 2.869552 1_455
Na40 O62 2.945442 1_455
Na41 O120 2.409792 1_655
Na41 O162 2.426522 1_555
Na41 O165 2.444796 1_555
Na41 O123 2.467292 1_555
Na41 O12 2.533002 1_555
Na41 O57 2.614733 1_556
Na42 O59 2.401986 1_556
Na42 O164 2.407153 1_555
Na42 O125 2.429179 1_555
Na42 O122 2.447038 1_655
Na42 O167 2.477969 1_555
Na42 O14 2.681100 1_555
Na43 O60 2.313182 1_556
Na43 O125 2.421509 1_545
Na43 O168 2.444340 1_555
Na43 O165 2.465669 1_555
Na43 O117 2.504674 1_655
Na43 O15 2.595983 1_555
Na44 O166 2.375734 1_555
Na44 O123 2.405108 1_555
Na44 O61 2.471027 1_556
Na44 O169 2.499321 1_555
Na44 O118 2.531830 1_655
Na44 O16 2.638865 1_555
Na45 O170 2.368543 1_555
Na45 O62 2.426095 1_556
Na45 O167 2.463042 1_555
Na45 O124 2.522934 1_555
Na45 O119 2.549891 1_655
Na45 O73 2.844091 1_555
Na45 O17 2.921741 1_555
Na46 O9 2.397973 1_555
Na46 O162 2.405056 1_555
Na46 O117 2.440773 1_555
Na46 O122 2.492312 1_545
Na46 O168 2.512015 1_555
Na46 O54 2.712793 1_556
Na46 O105 2.895842 1_555
Na47 O169 2.378107 1_555
Na47 O118 2.389211 1_555
Na47 O163 2.473260 1_555
Na47 O120 2.489770 1_555
Na47 O55 2.498313 1_556
Na47 O10 2.515665 1_555
Na48 O6 2.289945 1_555
Na48 O114 2.439161 1_655
Na48 O113 2.510385 1_545
Na48 O177 2.562470 1_555
Na48 O90 2.640432 1_655
Na48 O171 2.692756 1_555
Na48 O84 2.891524 1_655
Na49 O111 2.396250 1_555
Na49 O7 2.404727 1_555
Na49 O172 2.408035 1_555
Na49 O115 2.419534 1_655
Na49 O178 2.488501 1_555
Na49 O70 2.773145 1_555
Na50 O172 2.455396 1_555
Na50 O175 2.503325 1_555
Na50 O64 2.513552 1_555
Na50 O108 2.573379 1_555
Na50 O1 2.604186 1_555
Na50 O115 2.629863 1_555
Na50 O87 2.825492 1_555
Na50 O93 2.915910 1_555
Na51 O173 2.348356 1_555
Na51 O176 2.414722 1_555
Na51 O65 2.460508 1_555
Na51 O116 2.529470 1_555
Na51 O109 2.537092 1_555
Na52 O111 2.386946 1_555
Na52 O3 2.393286 1_555
Na52 O108 2.532334 1_655
Na52 O174 2.594836 1_555
Na52 O96 2.628461 1_555
Na52 O177 2.737292 1_555
Na53 O110 2.379551 1_655
Na53 O179 2.462203 1_555
Na53 O176 2.467957 1_555
Na53 O113 2.536219 1_555
Na53 O5 2.567810 1_555
Na53 O68 2.572630 1_555
Mg0 O0 1.989761 1_555
Mg0 O5 2.059148 1_445
Mg0 O6 2.065444 1_455
Mg0 O110 2.085247 1_545
Mg0 O114 2.096420 1_555
Mg0 O113 2.174222 1_445
Mg1 O3 2.017055 1_555
Mg1 O7 2.095246 1_555
Mg1 O1 2.118736 1_655
Mg1 O108 2.139907 1_655
Mg1 O111 2.150025 1_555
Mg1 O115 2.214996 1_655
Mg2 O9 2.007604 1_555
Mg2 O14 2.023777 1_445
Mg2 O15 2.029166 1_455
Mg2 O122 2.127844 1_545
Mg2 O125 2.140915 1_445
Mg2 O117 2.199434 1_555
Mg3 O12 2.031238 1_555
Mg3 O10 2.045344 1_655
Mg3 O16 2.045507 1_555
Mg3 O123 2.153811 1_555
Mg3 O118 2.159680 1_655
Mg3 O120 2.168472 1_655
Mg4 O19 2.017310 1_455
Mg4 O128 2.022591 1_455
Mg4 O25 2.038993 1_555
Mg4 O23 2.046150 1_555
Mg4 O133 2.169044 1_455
Mg4 O131 2.180941 1_555
Mg5 O31 2.006788 1_555
Mg5 O33 2.015719 1_555
Mg5 O27 2.084183 1_455
Mg5 O142 2.101583 1_555
Mg5 O135 2.118279 1_455
Mg5 O139 2.179621 1_455
Mg6 O28 1.981157 1_555
Mg6 O34 2.045878 1_655
Mg6 O143 2.075390 1_655
Mg6 O140 2.122085 1_555
Mg6 O136 2.128601 1_655
Mg6 O32 2.129843 1_655
Mg7 O39 1.985896 1_555
Mg7 O36 2.050492 1_555
Mg7 O42 2.051416 1_555
Mg7 O147 2.106173 1_555
Mg7 O144 2.116956 1_555
Mg7 O150 2.174629 1_555
Mg8 O40 1.999717 1_555
Mg8 O43 2.083919 1_555
Mg8 O148 2.124467 1_555
Mg8 O37 2.130877 1_555
Mg8 O145 2.154989 1_555
Mg8 O151 2.228376 1_555
Mg9 O38 1.941971 1_555
Mg9 O44 2.071635 1_555
Mg9 O152 2.109106 1_555
Mg9 O41 2.130560 1_555
Mg9 O146 2.157834 1_555
Mg9 O149 2.369697 1_555
Mg10 O48 1.997147 1_555
Mg10 O45 2.056094 1_555
Mg10 O156 2.112656 1_555
Mg10 O51 2.123197 1_555
Mg10 O153 2.139068 1_555
Mg10 O159 2.154960 1_555
Mg11 O47 1.999006 1_555
Mg11 O53 2.047858 1_555
Mg11 O50 2.108044 1_555
Mg11 O155 2.130582 1_555
Mg11 O158 2.220312 1_555
Mg11 O161 2.266130 1_555
Mg12 O57 2.001951 1_556
Mg12 O60 2.086139 1_556
Mg12 O165 2.126197 1_555
Mg12 O54 2.133549 1_556
Mg12 O162 2.160629 1_555
Mg12 O168 2.226514 1_555
Mg13 O58 1.991304 1_556
Mg13 O61 2.051360 1_556
Mg13 O55 2.051879 1_556
Mg13 O166 2.105006 1_555
Mg13 O163 2.117052 1_555
Mg13 O169 2.172120 1_555
Mg14 O56 1.945836 1_556
Mg14 O62 2.083311 1_556
Mg14 O170 2.114110 1_555
Mg14 O59 2.124460 1_556
Mg14 O164 2.147828 1_555
Mg14 O167 2.357892 1_555
Mg15 O67 1.998347 1_555
Mg15 O64 2.048978 1_555
Mg15 O175 2.109042 1_555
Mg15 O70 2.117186 1_555
Mg15 O172 2.137450 1_555
Mg15 O178 2.166669 1_555
Mg16 O71 1.955031 1_555
Mg16 O68 2.109279 1_555
Mg16 O65 2.110245 1_555
Mg16 O179 2.117289 1_555
Mg16 O173 2.126405 1_555
Mg16 O176 2.391806 1_555
Mg17 O74 2.014049 1_554
Mg17 O80 2.042237 1_554
Mg17 O77 2.053024 1_554
Mg17 O182 2.072511 1_555
Mg17 O185 2.151867 1_555
Mg17 O188 2.152450 1_555
Mg18 O84 2.002530 1_555
Mg18 O87 2.016008 1_555
Mg18 O81 2.087829 1_555
Mg18 O195 2.097604 1_555
Mg18 O189 2.122882 1_555
Mg18 O192 2.183973 1_555
Mg19 O83 1.982404 1_555
Mg19 O89 2.027156 1_555
Mg19 O197 2.056823 1_555
Mg19 O86 2.104949 1_555
Mg19 O194 2.152487 1_555
Mg19 O191 2.154329 1_555
Mg20 O93 2.022423 1_555
Mg20 O96 2.088222 1_555
Mg20 O90 2.115066 1_555
Mg20 O201 2.149015 1_555
Mg20 O198 2.149128 1_555
Mg20 O204 2.218358 1_555
Mg21 O91 2.000291 1_555
Mg21 O97 2.052424 1_555
Mg21 O94 2.054829 1_555
Mg21 O205 2.076345 1_555
Mg21 O199 2.096347 1_555
Mg21 O202 2.157737 1_555
Mg22 O102 2.033444 1_555
Mg22 O99 2.043936 1_555
Mg22 O105 2.044913 1_555
Mg22 O213 2.156589 1_555
Mg22 O207 2.156782 1_555
Mg22 O210 2.169084 1_555
Mg23 O100 2.006322 1_555
Mg23 O106 2.027770 1_555
Mg23 O103 2.028285 1_555
Mg23 O211 2.127480 1_555
Mg23 O214 2.133380 1_555
Mg23 O208 2.202714 1_555
O0 P0 1.503921 1_555
O1 P1 1.546301 1_555
O2 P2 1.625168 1_555
O2 Ta0 1.941803 1_455
O3 P3 1.551643 1_555
O4 P4 1.606402 1_555
O4 Ta0 1.962595 1_555
O5 P5 1.510587 1_555
O6 P6 1.519635 1_555
O7 P7 1.542004 1_655
O8 P8 1.607338 1_555
O8 Ta0 1.958784 1_555
O9 P9 1.522974 1_555
O10 P10 1.523917 1_555
O11 P11 1.588682 1_555
O11 Ta1 1.954627 1_455
O12 P12 1.522826 1_555
O13 P13 1.615178 1_655
O13 Ta1 1.937201 1_555
O14 P14 1.520923 1_655
O15 P15 1.516735 1_555
O16 P16 1.531247 1_555
O17 P17 1.614348 1_555
O17 Ta1 1.967458 1_555
O18 P16 1.603164 1_555
O18 Ta3 1.997019 1_655
O19 P17 1.524149 1_555
O20 P15 1.587073 1_565
O20 Ta2 2.015198 1_665
O21 P9 1.618582 1_555
O21 Ta2 1.930902 1_555
O22 P10 1.605622 1_555
O22 Ta3 1.952494 1_555
O23 P11 1.512956 1_555
O24 P12 1.616602 1_555
O24 Ta3 1.926340 1_655
O25 P13 1.526965 1_555
O26 P14 1.583312 1_555
O26 Ta2 2.045714 1_565
O27 P3 1.535787 1_555
O28 P4 1.502662 1_555
O29 P5 1.599115 1_555
O29 Ta4 1.970698 1_555
O30 P6 1.627456 1_455
O30 Ta4 1.906177 1_445
O31 P7 1.509428 1_555
O32 P8 1.521695 1_455
O33 P1 1.509383 1_555
O34 P2 1.520126 1_555
O35 P0 1.587769 1_565
O35 Ta4 2.005369 1_455
O36 P18 1.514501 1_555
O37 P19 1.531541 1_555
O38 P20 1.533382 1_555
O39 P21 1.499127 1_555
O40 P22 1.534926 1_555
O41 P23 1.539369 1_555
O42 P24 1.509450 1_555
O43 P25 1.528650 1_555
O44 P26 1.540274 1_555
O45 P27 1.527906 1_555
O46 P28 1.589542 1_555
O46 Ta5 1.955530 1_555
O47 P29 1.517633 1_555
O48 P30 1.511727 1_555
O49 P31 1.603137 1_555
O49 Ta5 1.961445 1_555
O50 P32 1.541099 1_555
O51 P33 1.523195 1_555
O52 P34 1.597991 1_555
O52 Ta5 1.992425 1_555
O53 P35 1.550035 1_555
O54 P33 1.535468 1_555
O55 P34 1.510756 1_555
O56 P35 1.530626 1_555
O57 P27 1.535703 1_555
O58 P28 1.497965 1_555
O59 P29 1.542078 1_555
O60 P30 1.530608 1_555
O61 P31 1.506540 1_555
O62 P32 1.539705 1_555
O63 P21 1.589988 1_555
O63 Ta6 1.952377 1_555
O64 P22 1.529178 1_555
O65 P23 1.533749 1_555
O66 P24 1.599175 1_555
O66 Ta6 1.968773 1_555
O67 P25 1.512202 1_555
O68 P26 1.542790 1_555
O69 P18 1.596490 1_555
O69 Ta6 1.993890 1_555
O70 P19 1.522534 1_555
O71 P20 1.538357 1_555
O72 P36 1.601628 1_555
O72 Ta7 1.998598 1_556
O73 P37 1.588985 1_555
O73 Ta8 2.010906 1_556
O74 P38 1.523842 1_555
O75 P39 1.604860 1_555
O75 Ta7 1.950177 1_556
O76 P40 1.620059 1_555
O76 Ta8 1.927660 1_556
O77 P41 1.513495 1_555
O78 P42 1.613251 1_555
O78 Ta7 1.931101 1_556
O79 P43 1.584036 1_555
O79 Ta8 2.042717 1_556
O80 P44 1.524797 1_555
O81 P45 1.536798 1_555
O82 P46 1.600562 1_555
O82 Ta9 1.982172 1_555
O83 P47 1.504459 1_555
O84 P48 1.510337 1_555
O85 P49 1.630046 1_555
O85 Ta9 1.903992 1_555
O86 P50 1.512199 1_555
O87 P51 1.510445 1_555
O88 P52 1.592920 1_555
O88 Ta9 2.024303 1_555
O89 P53 1.514366 1_555
O90 P51 1.545150 1_555
O91 P52 1.503918 1_555
O92 P53 1.628917 1_555
O92 Ta10 1.898250 1_555
O93 P45 1.552329 1_555
O94 P46 1.512374 1_555
O95 P47 1.605521 1_555
O95 Ta10 1.957444 1_555
O96 P48 1.542048 1_555
O97 P49 1.520065 1_555
O98 P50 1.587222 1_555
O98 Ta10 2.003068 1_555
O99 P39 1.525330 1_555
O100 P40 1.524215 1_555
O101 P41 1.586419 1_555
O101 Ta11 1.959406 1_555
O102 P42 1.524649 1_555
O103 P43 1.522709 1_555
O104 P44 1.616437 1_555
O104 Ta11 1.934684 1_555
O105 P36 1.532071 1_555
O106 P37 1.518834 1_555
O107 P38 1.613821 1_555
O107 Ta11 1.966411 1_555
O108 P51 1.545288 1_555
O109 P52 1.597600 1_555
O109 Ta0 2.048034 1_455
O110 P53 1.533631 1_555
O111 P45 1.563267 1_555
O112 P46 1.582594 1_555
O112 Ta0 2.035100 1_555
O113 P47 1.527509 1_555
O114 P48 1.528079 1_555
O115 P49 1.542588 1_555
O116 P50 1.596355 1_555
O116 Ta0 2.039660 1_455
O117 P39 1.542726 1_555
O118 P40 1.547798 1_555
O119 P41 1.581197 1_555
O119 Ta1 2.025838 1_455
O120 P42 1.538497 1_555
O121 P43 1.590022 1_555
O121 Ta1 2.015079 1_455
O122 P44 1.537891 1_555
O123 P36 1.541397 1_555
O124 P37 1.595705 1_555
O124 Ta1 2.055341 1_555
O125 P38 1.551478 1_555
O126 P18 1.608577 1_555
O126 Ta2 1.977648 1_655
O127 P19 1.574613 1_555
O127 Ta3 2.061653 1_655
O128 P20 1.558947 1_555
O129 P21 1.609931 1_555
O129 Ta2 2.010478 1_555
O130 P22 1.615577 1_555
O130 Ta3 1.944713 1_555
O131 P23 1.542927 1_555
O132 P24 1.605463 1_555
O132 Ta3 2.054635 1_655
O133 P25 1.545266 1_555
O134 P26 1.616040 1_555
O134 Ta2 1.992288 1_665
O135 P27 1.535600 1_555
O136 P28 1.517216 1_455
O137 P29 1.619177 1_555
O137 Ta4 2.041013 1_555
O138 P30 1.618323 1_555
O138 Ta4 1.976688 1_545
O139 P31 1.518291 1_555
O140 P32 1.533858 1_555
O141 P33 1.589169 1_555
O141 Ta4 2.049789 1_445
O142 P34 1.506219 1_555
O143 P35 1.553864 1_555
O144 P15 1.515020 1_555
O145 P16 1.544367 1_555
O146 P17 1.530029 1_555
O147 P9 1.527094 1_555
O148 P10 1.537968 1_555
O149 P11 1.532035 1_555
O150 P12 1.535695 1_555
O151 P13 1.531176 1_655
O152 P14 1.526795 1_655
O153 P3 1.560749 1_555
O154 P4 1.578084 1_555
O154 Ta5 2.071355 1_555
O155 P5 1.521907 1_555
O156 P6 1.523007 1_555
O157 P7 1.616941 1_655
O157 Ta5 1.968573 1_555
O158 P8 1.516505 1_555
O159 P0 1.518327 1_555
O160 P1 1.630768 1_555
O160 Ta5 2.019233 1_555
O161 P2 1.545395 1_555
O162 P36 1.544358 1_555
O163 P37 1.512863 1_555
O164 P38 1.530786 1_555
O165 P39 1.537624 1_655
O166 P40 1.525777 1_655
O167 P41 1.533621 1_655
O168 P44 1.532335 1_545
O169 P42 1.536567 1_555
O170 P43 1.526506 1_555
O171 P47 1.580006 1_545
O171 Ta6 2.065758 1_555
O172 P45 1.561690 1_555
O173 P46 1.521784 1_555
O174 P48 1.617750 1_555
O174 Ta6 1.966205 1_555
O175 P49 1.522398 1_555
O176 P50 1.532435 1_555
O177 P51 1.627442 1_655
O177 Ta6 2.022286 1_555
O178 P52 1.516430 1_655
O179 P53 1.535676 1_655
O180 P33 1.576896 1_555
O180 Ta7 2.054601 1_555
O181 P34 1.609846 1_555
O181 Ta8 1.979697 1_555
O182 P35 1.559305 1_555
O183 P27 1.614337 1_455
O183 Ta7 1.945036 1_555
O184 P28 1.609358 1_455
O184 Ta8 2.014317 1_555
O185 P29 1.545302 1_455
O186 P31 1.601837 1_555
O186 Ta7 2.059570 1_555
O187 P32 1.614364 1_555
O187 Ta8 1.994111 1_555
O188 P30 1.547013 1_565
O189 P22 1.533075 1_555
O190 P23 1.623053 1_555
O190 Ta9 2.045164 1_555
O191 P21 1.515401 1_565
O192 P24 1.516186 1_555
O193 P25 1.622968 1_555
O193 Ta9 1.959819 1_555
O194 P26 1.531113 1_555
O195 P18 1.504432 1_455
O196 P19 1.592773 1_455
O196 Ta9 2.027350 1_555
O197 P20 1.551734 1_455
O198 P1 1.544107 1_555
O199 P2 1.529178 1_555
O200 P0 1.592947 1_565
O200 Ta10 1.997946 1_555
O201 P3 1.564685 1_555
O202 P4 1.529265 1_555
O203 P5 1.600362 1_555
O203 Ta10 2.095673 1_555
O204 P6 1.545129 1_455
O205 P7 1.528395 1_555
O206 P8 1.576158 1_455
O206 Ta10 2.058560 1_555
O207 P9 1.549352 1_555
O208 P10 1.543508 1_555
O209 P11 1.579022 1_555
O209 Ta11 2.030372 1_555
O210 P12 1.538110 1_455
O211 P13 1.538365 1_555
O212 P14 1.591153 1_555
O212 Ta11 2.012812 1_555
O213 P16 1.540595 1_555
O214 P17 1.551691 1_555
O215 P15 1.597221 1_565
O215 Ta11 2.051028 1_555
