# generated using pymatgen
data_Na7Si5Sn2Ge2PO24
_symmetry_space_group_name_H-M   'P 1'
_cell_length_a   8.91789518
_cell_length_b   8.90275840
_cell_length_c   22.03591273
_cell_angle_alpha   90.11115906
_cell_angle_beta   89.66108578
_cell_angle_gamma   120.09431522
_symmetry_Int_Tables_number   1
_chemical_formula_structural   Na7Si5Sn2Ge2PO24
_chemical_formula_sum   'Na21 Si15 Sn6 Ge6 P3 O72'
_cell_volume   1513.65602035
_cell_formula_units_Z   3
loop_
 _symmetry_equiv_pos_site_id
 _symmetry_equiv_pos_as_xyz
  1  'x, y, z'
loop_
 _atom_site_type_symbol
 _atom_site_label
 _atom_site_symmetry_multiplicity
 _atom_site_fract_x
 _atom_site_fract_y
 _atom_site_fract_z
 _atom_site_occupancy
  Na  Na0  1  0.63243612  0.99936595  0.25120451  1
  Na  Na1  1  0.36855746  0.36784697  0.24873512  1
  Na  Na2  1  0.00023482  0.63064978  0.25041950  1
  Na  Na3  1  0.63285675  0.63074809  0.74786225  1
  Na  Na4  1  0.99847962  0.36847019  0.74924365  1
  Na  Na5  1  0.37071607  0.00184995  0.74945497  1
  Na  Na6  1  0.29723197  0.33161448  0.58480505  1
  Na  Na7  1  0.03540267  0.70394300  0.58428769  1
  Na  Na8  1  0.66890454  0.96518079  0.58427230  1
  Na  Na9  1  0.29622926  0.96900009  0.08320080  1
  Na  Na10  1  0.03375119  0.33464125  0.08514261  1
  Na  Na11  1  0.97095888  0.66925319  0.91601556  1
  Na  Na12  1  0.32899031  0.29722898  0.91689863  1
  Na  Na13  1  0.33180194  0.03054888  0.41677537  1
  Na  Na14  1  0.69995494  0.66741529  0.41787720  1
  Na  Na15  1  0.99779868  0.00459424  0.49893107  1
  Na  Na16  1  0.98971073  0.99489758  0.99994544  1
  Na  Na17  1  0.66766382  0.32379154  0.83269209  1
  Na  Na18  1  0.67557741  0.33257219  0.33619767  1
  Na  Na19  1  0.33809379  0.66441251  0.16593934  1
  Na  Na20  1  0.33370509  0.66730776  0.66646285  1
  Si  Si0  1  0.28132314  0.99991376  0.25075814  1
  Si  Si1  1  0.71911280  0.71972171  0.25009874  1
  Si  Si2  1  0.00025220  0.27873007  0.24998575  1
  Si  Si3  1  0.28775591  0.28222843  0.74803695  1
  Si  Si4  1  0.99487047  0.71483409  0.74846483  1
  Si  Si5  1  0.72038091  0.00470415  0.74871969  1
  Si  Si6  1  0.94998290  0.32846557  0.58545055  1
  Si  Si7  1  0.38230107  0.05422022  0.58451617  1
  Si  Si8  1  0.67052884  0.61812548  0.58437947  1
  Si  Si9  1  0.95753303  0.63436891  0.08425034  1
  Si  Si10  1  0.36871506  0.33215613  0.08512288  1
  Si  Si11  1  0.03367201  0.36155440  0.91471233  1
  Si  Si12  1  0.33111325  0.96298638  0.91493112  1
  Si  Si13  1  0.63817428  0.97207827  0.41674207  1
  Si  Si14  1  0.03126523  0.66315999  0.41684480  1
  Sn  Sn0  1  0.66750393  0.33599601  0.18709535  1
  Sn  Sn1  1  0.66580791  0.33024948  0.98197545  1
  Sn  Sn2  1  0.33050101  0.66280535  0.01761447  1
  Sn  Sn3  1  0.33482923  0.67026408  0.51878222  1
  Sn  Sn4  1  0.33070012  0.66827784  0.31478750  1
  Sn  Sn5  1  0.33226429  0.66889826  0.81275275  1
  Ge  Ge0  1  0.99368035  0.99616407  0.35189409  1
  Ge  Ge1  1  0.00290167  0.00504926  0.85034437  1
  Ge  Ge2  1  0.99981238  0.00015363  0.64659384  1
  Ge  Ge3  1  0.00206855  0.99668629  0.14845868  1
  Ge  Ge4  1  0.66743514  0.33371868  0.68665775  1
  Ge  Ge5  1  0.67796659  0.33183375  0.48333484  1
  P  P0  1  0.67049945  0.03642484  0.08494167  1
  P  P1  1  0.63140231  0.67491712  0.91515608  1
  P  P2  1  0.32989346  0.36713305  0.41668857  1
  O  O0  1  0.19796802  0.03809233  0.31102273  1
  O  O1  1  0.83675667  0.79708603  0.31110775  1
  O  O2  1  0.96211527  0.15467329  0.30867180  1
  O  O3  1  0.20671603  0.16256067  0.80901785  1
  O  O4  1  0.95838916  0.79834228  0.80955054  1
  O  O5  1  0.84542326  0.04263872  0.80731163  1
  O  O6  1  0.80016681  0.96182619  0.68810866  1
  O  O7  1  0.16188942  0.20043363  0.68893976  1
  O  O8  1  0.03690116  0.83973920  0.68883135  1
  O  O9  1  0.80476940  0.84607394  0.19167479  1
  O  O10  1  0.03679269  0.19877689  0.18823921  1
  O  O11  1  0.16354553  0.96272593  0.19010823  1
  O  O12  1  0.86888248  0.37315444  0.64520778  1
  O  O13  1  0.50642463  0.13566615  0.64423018  1
  O  O14  1  0.62934220  0.49484258  0.64443814  1
  O  O15  1  0.88380710  0.50483921  0.14302166  1
  O  O16  1  0.62859856  0.11190386  0.14204826  1
  O  O17  1  0.48482890  0.36458027  0.14527968  1
  O  O18  1  0.44632834  0.28560996  0.02498702  1
  O  O19  1  0.84497434  0.55050264  0.02292135  1
  O  O20  1  0.71008353  0.15719261  0.02942454  1
  O  O21  1  0.46625315  0.17532507  0.52370256  1
  O  O22  1  0.70563788  0.53268392  0.52375318  1
  O  O23  1  0.82579703  0.28744932  0.52658557  1
  O  O24  1  0.54933153  0.70504667  0.97164670  1
  O  O25  1  0.15785216  0.44080326  0.97460295  1
  O  O26  1  0.29062578  0.84214662  0.97545422  1
  O  O27  1  0.55710305  0.84133877  0.47578543  1
  O  O28  1  0.29754746  0.44784892  0.47422746  1
  O  O29  1  0.15865557  0.71189758  0.47599477  1
  O  O30  1  0.11088470  0.62454753  0.35602218  1
  O  O31  1  0.51012692  0.88890398  0.35757424  1
  O  O32  1  0.37113673  0.48676136  0.36015916  1
  O  O33  1  0.11750713  0.48981877  0.85585637  1
  O  O34  1  0.37077641  0.88343245  0.85471984  1
  O  O35  1  0.51481904  0.63136801  0.85825840  1
  O  O36  1  0.02094378  0.84356525  0.40979567  1
  O  O37  1  0.82434137  0.97872450  0.40925122  1
  O  O38  1  0.16905654  0.18536316  0.41047863  1
  O  O39  1  0.02485236  0.17427549  0.90784434  1
  O  O40  1  0.15067531  0.97231324  0.90869719  1
  O  O41  1  0.81426462  0.83392977  0.90905082  1
  O  O42  1  0.97161274  0.15528785  0.59050397  1
  O  O43  1  0.18637062  0.03090849  0.58983155  1
  O  O44  1  0.84421267  0.81353491  0.58947072  1
  O  O45  1  0.97982880  0.82731448  0.09106922  1
  O  O46  1  0.83738762  0.02687328  0.09083060  1
  O  O47  1  0.17444966  0.15601608  0.09042110  1
  O  O48  1  0.69653933  0.17697558  0.74332283  1
  O  O49  1  0.48251993  0.30361295  0.74293536  1
  O  O50  1  0.82118884  0.51916941  0.74367420  1
  O  O51  1  0.69743199  0.52547687  0.24764977  1
  O  O52  1  0.82754173  0.30018182  0.24648070  1
  O  O53  1  0.47696956  0.17062934  0.24735598  1
  O  O54  1  0.64615733  0.50832926  0.92053303  1
  O  O55  1  0.85024158  0.35939157  0.92073364  1
  O  O56  1  0.49734367  0.15897935  0.91979619  1
  O  O57  1  0.63859206  0.15568455  0.42540934  1
  O  O58  1  0.49587687  0.35374376  0.42228293  1
  O  O59  1  0.83597377  0.49401354  0.42483720  1
  O  O60  1  0.34705237  0.50271295  0.08002081  1
  O  O61  1  0.15195816  0.65439071  0.07977456  1
  O  O62  1  0.50389008  0.86040766  0.07783878  1
  O  O63  1  0.36101694  0.85928730  0.58059013  1
  O  O64  1  0.49633802  0.63777869  0.57968797  1
  O  O65  1  0.14433285  0.50146856  0.57948207  1
  O  O66  1  0.30321833  0.82744563  0.25290649  1
  O  O67  1  0.52354206  0.69483132  0.25462456  1
  O  O68  1  0.17382437  0.47303824  0.25373957  1
  O  O69  1  0.31084842  0.47740810  0.75320023  1
  O  O70  1  0.16772829  0.69319977  0.75148311  1
  O  O71  1  0.52648275  0.82998452  0.75278742  1
loop_
_geom_bond_atom_site_label_1
_geom_bond_atom_site_label_2
_geom_bond_distance
_geom_bond_site_symmetry_2
Na0 O52 2.352941 1_565
Na0 O67 2.378841 1_555
Na0 O53 2.525072 1_565
Na0 O66 2.540906 1_555
Na0 O31 2.560065 1_555
Na0 O16 2.614465 1_565
Na0 O9 2.831559 1_555
Na0 O2 2.849530 1_565
Na1 O68 2.352293 1_555
Na1 O53 2.391692 1_555
Na1 O17 2.505037 1_555
Na1 O67 2.523318 1_555
Na1 O51 2.538388 1_555
Na1 O32 2.667604 1_555
Na1 O0 2.885976 1_555
Na1 O10 2.892947 1_555
Na2 O66 2.372177 1_555
Na2 O51 2.374552 1_455
Na2 O30 2.544256 1_555
Na2 O52 2.547908 1_455
Na2 O68 2.559463 1_555
Na2 O15 2.604985 1_455
Na2 O1 2.871412 1_455
Na2 O11 2.881324 1_555
Na3 O50 2.342439 1_555
Na3 O71 2.396530 1_555
Na3 O69 2.487772 1_555
Na3 O49 2.525089 1_555
Na3 O14 2.571202 1_555
Na3 O35 2.646037 1_555
Na3 O4 2.863006 1_555
Na3 O6 2.868665 1_555
Na4 O48 2.360850 1_555
Na4 O69 2.449764 1_655
Na4 O70 2.502552 1_655
Na4 O50 2.538701 1_555
Na4 O12 2.583250 1_555
Na4 O33 2.585100 1_655
Na4 O5 2.817457 1_555
Na4 O7 2.878041 1_655
Na5 O49 2.354936 1_555
Na5 O70 2.416746 1_545
Na5 O48 2.518919 1_555
Na5 O71 2.531660 1_545
Na5 O34 2.549917 1_545
Na5 O13 2.606155 1_555
Na5 O3 2.824419 1_555
Na5 O8 2.908704 1_545
Na6 O43 2.345680 1_555
Na6 O64 2.395875 1_555
Na6 O65 2.495999 1_555
Na6 O42 2.517406 1_455
Na6 O7 2.578836 1_555
Na6 O28 2.648588 1_555
Na6 O21 2.844805 1_555
Na6 O14 2.886654 1_555
Na7 O44 2.353206 1_455
Na7 O65 2.440962 1_555
Na7 O63 2.514278 1_555
Na7 O43 2.524126 1_565
Na7 O8 2.596579 1_555
Na7 O29 2.607549 1_555
Na7 O12 2.878547 1_455
Na7 O22 2.879987 1_455
Na8 O42 2.364811 1_565
Na8 O63 2.416760 1_555
Na8 O64 2.525219 1_555
Na8 O44 2.529695 1_555
Na8 O6 2.583351 1_555
Na8 O27 2.615385 1_555
Na8 O23 2.787926 1_565
Na8 O13 2.885126 1_565
Na9 O47 2.405637 1_565
Na9 O61 2.427440 1_555
Na9 O45 2.451222 1_455
Na9 O62 2.484063 1_555
Na9 O26 2.617173 1_554
Na9 O11 2.618068 1_555
Na9 O18 2.755420 1_565
Na9 O16 2.888431 1_565
Na10 O46 2.403474 1_455
Na10 O60 2.421236 1_555
Na10 O47 2.473921 1_555
Na10 O61 2.493818 1_555
Na10 O10 2.582496 1_555
Na10 O25 2.641874 1_554
Na10 O15 2.777576 1_455
Na10 O20 2.792162 1_455
Na11 O40 2.352944 1_655
Na11 O55 2.408590 1_555
Na11 O41 2.486670 1_555
Na11 O54 2.507579 1_555
Na11 O19 2.591677 1_556
Na11 O4 2.641983 1_555
Na11 O26 2.801330 1_655
Na11 O33 2.842924 1_655
Na12 O39 2.371202 1_555
Na12 O56 2.372258 1_555
Na12 O54 2.491961 1_555
Na12 O40 2.513399 1_545
Na12 O18 2.630163 1_556
Na12 O3 2.643164 1_555
Na12 O25 2.739898 1_555
Na12 O35 2.882885 1_555
Na13 O57 2.389826 1_555
Na13 O36 2.419913 1_545
Na13 O38 2.456517 1_555
Na13 O58 2.492656 1_555
Na13 O0 2.640728 1_555
Na13 O21 2.668820 1_555
Na13 O29 2.780762 1_545
Na13 O31 2.793069 1_545
Na14 O59 2.399813 1_555
Na14 O37 2.421636 1_555
Na14 O58 2.454001 1_555
Na14 O36 2.485629 1_655
Na14 O1 2.630730 1_555
Na14 O22 2.637760 1_555
Na14 O27 2.756823 1_555
Na14 O32 2.847750 1_555
Na15 O37 2.455251 1_545
Na15 O42 2.494873 1_555
Na15 O38 2.496734 1_655
Na15 O36 2.497368 1_645
Na15 O44 2.528678 1_545
Na15 O43 2.556977 1_655
Na16 O45 2.478590 1_556
Na16 O39 2.504125 1_665
Na16 O46 2.508118 1_566
Na16 O41 2.508151 1_555
Na16 O40 2.529384 1_655
Na16 O47 2.530706 1_666
Na17 O56 2.426019 1_555
Na17 O48 2.444292 1_555
Na17 O55 2.456192 1_555
Na17 O50 2.518149 1_555
Na17 O49 2.531829 1_555
Na17 O54 2.604210 1_555
Na18 O59 2.426400 1_555
Na18 O57 2.436555 1_555
Na18 O52 2.487214 1_555
Na18 O51 2.543136 1_555
Na18 O58 2.543177 1_555
Na18 O53 2.552937 1_555
Na19 O60 2.401308 1_555
Na19 O67 2.492907 1_555
Na19 O61 2.501319 1_555
Na19 O68 2.503672 1_555
Na19 O66 2.512146 1_555
Na19 O62 2.528169 1_555
Na20 O70 2.462052 1_555
Na20 O63 2.480095 1_555
Na20 O64 2.485274 1_555
Na20 O71 2.490509 1_555
Na20 O69 2.493057 1_555
Na20 O65 2.496486 1_555
Ge0 O2 1.839712 1_565
Ge0 O1 1.851686 1_555
Ge0 O0 1.889288 1_665
Ge0 O37 1.909236 1_555
Ge0 O36 1.968343 1_655
Ge0 O38 2.079278 1_665
Ge1 O5 1.863269 1_455
Ge1 O3 1.878482 1_555
Ge1 O39 1.900874 1_555
Ge1 O4 1.901954 1_445
Ge1 O40 1.970205 1_545
Ge1 O41 2.058189 1_445
Ge2 O6 1.869735 1_545
Ge2 O8 1.870225 1_645
Ge2 O7 1.887880 1_655
Ge2 O42 1.963933 1_555
Ge2 O43 1.981741 1_655
Ge2 O44 1.992698 1_545
Ge3 O9 1.849267 1_455
Ge3 O11 1.860316 1_555
Ge3 O10 1.881402 1_565
Ge3 O45 1.899466 1_455
Ge3 O47 1.951379 1_565
Ge3 O46 2.064181 1_465
Ge4 O13 1.874905 1_555
Ge4 O12 1.879951 1_555
Ge4 O14 1.880475 1_555
Ge4 O49 1.965448 1_555
Ge4 O50 1.981561 1_555
Ge4 O48 1.986861 1_555
Ge5 O23 1.827904 1_555
Ge5 O22 1.898801 1_555
Ge5 O21 1.908965 1_555
Ge5 O57 1.912381 1_555
Ge5 O59 1.917630 1_555
Ge5 O58 2.197589 1_555
O0 Si0 1.634502 1_545
O1 Si1 1.634285 1_555
O2 Si2 1.622185 1_655
O3 Si3 1.638585 1_555
O4 Si4 1.644383 1_555
O5 Si5 1.631629 1_555
O6 Si5 1.641654 1_565
O7 Si3 1.637067 1_555
O8 Si4 1.638807 1_455
O9 Si1 1.624376 1_555
O10 Si2 1.639453 1_555
O11 Si0 1.632523 1_555
O12 Si6 1.640309 1_555
O13 Si7 1.640464 1_555
O14 Si8 1.639104 1_555
O15 Si9 1.635448 1_555
O15 Sn0 1.999837 1_555
O16 P0 1.554895 1_555
O16 Sn0 2.094791 1_555
O17 Si10 1.621050 1_555
O17 Sn0 2.000532 1_555
O18 Si10 1.637516 1_555
O18 Sn1 2.021561 1_554
O19 Si9 1.628490 1_555
O19 Sn1 2.019958 1_554
O20 P0 1.548097 1_555
O20 Sn1 2.060110 1_554
O21 Si7 1.644087 1_555
O22 Si8 1.640540 1_555
O23 Si6 1.628504 1_555
O24 P1 1.530365 1_555
O24 Sn2 2.053769 1_556
O25 Si11 1.641956 1_555
O25 Sn2 2.033089 1_556
O26 Si12 1.636082 1_555
O26 Sn2 2.029249 1_556
O27 Si13 1.649576 1_555
O27 Sn3 2.025417 1_555
O28 P2 1.551523 1_555
O28 Sn3 2.081205 1_555
O29 Si14 1.642798 1_555
O29 Sn3 2.024251 1_555
O30 Si14 1.628008 1_555
O30 Sn4 2.008703 1_555
O31 Si13 1.648669 1_555
O31 Sn4 2.041106 1_555
O32 P2 1.558254 1_555
O32 Sn4 2.082315 1_555
O33 Si11 1.638013 1_555
O33 Sn5 2.008524 1_555
O34 Si12 1.621477 1_555
O34 Sn5 1.990011 1_555
O35 P1 1.553234 1_555
O35 Sn5 2.081748 1_555
O36 Si14 1.661796 1_555
O37 Si13 1.638705 1_555
O38 P2 1.538995 1_555
O39 Si11 1.636040 1_555
O40 Si12 1.658827 1_555
O41 P1 1.537693 1_555
O42 Si6 1.650997 1_555
O43 Si7 1.656446 1_555
O44 Si8 1.654446 1_555
O45 Si9 1.633893 1_555
O46 P0 1.538937 1_555
O47 Si10 1.657678 1_555
O48 Si5 1.655168 1_555
O49 Si3 1.652820 1_555
O50 Si4 1.655303 1_555
O51 Si1 1.641729 1_555
O51 Sn0 2.059464 1_555
O52 Si2 1.646557 1_655
O52 Sn0 2.081127 1_555
O53 Si0 1.642952 1_545
O53 Sn0 2.071262 1_555
O54 P1 1.558039 1_555
O54 Sn1 2.160351 1_555
O55 Si11 1.630864 1_655
O55 Sn1 2.034922 1_555
O56 Si12 1.631199 1_545
O56 Sn1 2.044101 1_555
O57 Si13 1.643504 1_545
O58 P2 1.549074 1_555
O59 Si14 1.642898 1_655
O60 Si10 1.628089 1_555
O60 Sn2 2.040898 1_555
O61 Si9 1.654051 1_455
O61 Sn2 2.066882 1_555
O62 P0 1.534462 1_565
O62 Sn2 2.129365 1_555
O63 Si7 1.650617 1_565
O63 Sn3 2.083800 1_555
O64 Si8 1.651951 1_555
O64 Sn3 2.097986 1_555
O65 Si6 1.647572 1_455
O65 Sn3 2.086649 1_555
O66 Si0 1.642865 1_555
O66 Sn4 2.070553 1_555
O67 Si1 1.646607 1_555
O67 Sn4 2.082677 1_555
O68 Si2 1.646501 1_555
O68 Sn4 2.088706 1_555
O69 Si3 1.647843 1_555
O69 Sn5 2.081507 1_555
O70 Si4 1.648285 1_455
O70 Sn5 2.089403 1_555
O71 Si5 1.648918 1_565
O71 Sn5 2.071698 1_555
