# generated using pymatgen
data_Na4ZrInSi2PO12
_symmetry_space_group_name_H-M   'P 1'
_cell_length_a   9.26730636
_cell_length_b   9.26730602
_cell_length_c   22.62961654
_cell_angle_alpha   89.72963574
_cell_angle_beta   90.27036425
_cell_angle_gamma   119.65336695
_symmetry_Int_Tables_number   1
_chemical_formula_structural   Na4ZrInSi2PO12
_chemical_formula_sum   'Na24 Zr6 In6 Si12 P6 O72'
_cell_volume   1688.94208811
_cell_formula_units_Z   6
loop_
 _symmetry_equiv_pos_site_id
 _symmetry_equiv_pos_as_xyz
  1  'x, y, z'
loop_
 _atom_site_type_symbol
 _atom_site_label
 _atom_site_symmetry_multiplicity
 _atom_site_fract_x
 _atom_site_fract_y
 _atom_site_fract_z
 _atom_site_occupancy
  Na  Na0  1  0.64500332  0.00879116  0.25101366  1
  Na  Na1  1  0.37363022  0.36917409  0.24354459  1
  Na  Na2  1  0.98302486  0.62065013  0.24891487  1
  Na  Na3  1  0.63082591  0.62636978  0.74354459  1
  Na  Na4  1  0.99120884  0.35499668  0.75101366  1
  Na  Na5  1  0.37934987  0.01697514  0.74891487  1
  Na  Na6  1  0.31167032  0.34212416  0.58434666  1
  Na  Na7  1  0.04029722  0.70250709  0.57687759  1
  Na  Na8  1  0.64969186  0.95398313  0.58224787  1
  Na  Na9  1  0.29749291  0.95970278  0.07687759  1
  Na  Na10  1  0.65787584  0.68832968  0.08434666  1
  Na  Na11  1  0.04601687  0.35030814  0.08224787  1
  Na  Na12  1  0.97833632  0.67545816  0.91768066  1
  Na  Na13  1  0.70696322  0.03584109  0.91021159  1
  Na  Na14  1  0.31635786  0.28731713  0.91558187  1
  Na  Na15  1  0.96415891  0.29303678  0.41021159  1
  Na  Na16  1  0.32454184  0.02166368  0.41768066  1
  Na  Na17  1  0.71268287  0.68364214  0.41558187  1
  Na  Na18  1  0.99344050  0.98783461  0.49590927  1
  Na  Na19  1  0.01216539  0.00655950  0.99590927  1
  Na  Na20  1  0.66010750  0.32116761  0.82924227  1
  Na  Na21  1  0.67883239  0.33989250  0.32924227  1
  Na  Na22  1  0.32677350  0.65450161  0.16257627  1
  Na  Na23  1  0.34549839  0.67322650  0.66257627  1
  Zr  Zr0  1  0.99879904  0.00096263  0.64862072  1
  Zr  Zr1  1  0.99903737  0.00120096  0.14862072  1
  Zr  Zr2  1  0.66546604  0.33429563  0.98195372  1
  Zr  Zr3  1  0.66570437  0.33453396  0.48195372  1
  Zr  Zr4  1  0.33213204  0.66762963  0.31528772  1
  Zr  Zr5  1  0.33237037  0.66786796  0.81528772  1
  In  In0  1  0.99303136  0.99464254  0.34800885  1
  In  In1  1  0.00535746  0.00696864  0.84800885  1
  In  In2  1  0.65969836  0.32797554  0.68134185  1
  In  In3  1  0.67202446  0.34030164  0.18134185  1
  In  In4  1  0.32636436  0.66130954  0.01467585  1
  In  In5  1  0.33869046  0.67363564  0.51467585  1
  Si  Si0  1  0.69911657  0.69875151  0.25068916  1
  Si  Si1  1  0.99933962  0.29817424  0.25078314  1
  Si  Si2  1  0.30124849  0.30088343  0.75068916  1
  Si  Si3  1  0.70182576  0.00066038  0.75078314  1
  Si  Si4  1  0.36578357  0.03208451  0.58402216  1
  Si  Si5  1  0.66600662  0.63150724  0.58411614  1
  Si  Si6  1  0.96791549  0.63421643  0.08402216  1
  Si  Si7  1  0.36849276  0.33399338  0.08411614  1
  Si  Si8  1  0.03244957  0.36541851  0.91735616  1
  Si  Si9  1  0.33267262  0.96484124  0.91745014  1
  Si  Si10  1  0.63458149  0.96755043  0.41735616  1
  Si  Si11  1  0.03515876  0.66732738  0.41745014  1
  P  P0  1  0.29542453  -0.00023347  0.25101579  1
  P  P1  1  0.00023347  0.70457547  0.75101579  1
  P  P2  1  0.96209153  0.33309953  0.58434879  1
  P  P3  1  0.66690047  0.03790847  0.08434879  1
  P  P4  1  0.62875753  0.66643353  0.91768279  1
  P  P5  1  0.33356647  0.37124247  0.41768279  1
  O  O0  1  0.22186605  0.03136984  0.30725800  1
  O  O1  1  0.81372583  0.77292692  0.30985541  1
  O  O2  1  0.97265820  0.19036616  0.31094234  1
  O  O3  1  0.22707308  0.18627417  0.80985541  1
  O  O4  1  0.96863016  0.77813395  0.80725800  1
  O  O5  1  0.80963384  0.02734180  0.81094234  1
  O  O6  1  0.79386468  0.97079094  0.69350446  1
  O  O7  1  0.17854355  0.20594898  0.69339378  1
  O  O8  1  0.02472185  0.81843467  0.69648642  1
  O  O9  1  0.79405102  0.82145645  0.19339378  1
  O  O10  1  0.02920906  0.20613532  0.19350446  1
  O  O11  1  0.18156533  0.97527815  0.19648642  1
  O  O12  1  0.88853305  0.36470284  0.64059100  1
  O  O13  1  0.48039283  0.10625992  0.64318841  1
  O  O14  1  0.63932520  0.52369916  0.64427534  1
  O  O15  1  0.89374008  0.51960717  0.14318841  1
  O  O16  1  0.63529716  0.11146695  0.14059100  1
  O  O17  1  0.47630084  0.36067480  0.14427534  1
  O  O18  1  0.46053168  0.30412394  0.02683746  1
  O  O19  1  0.84521055  0.53928198  0.02672678  1
  O  O20  1  0.69138885  0.15176767  0.02981942  1
  O  O21  1  0.46071802  0.15478945  0.52672678  1
  O  O22  1  0.69587606  0.53946832  0.52683746  1
  O  O23  1  0.84823233  0.30861115  0.52981942  1
  O  O24  1  0.55519905  0.69803684  0.97392500  1
  O  O25  1  0.14705883  0.43959392  0.97652241  1
  O  O26  1  0.30599120  0.85703316  0.97760934  1
  O  O27  1  0.56040608  0.85294117  0.47652241  1
  O  O28  1  0.30196316  0.44480095  0.47392500  1
  O  O29  1  0.14296684  0.69400880  0.47760934  1
  O  O30  1  0.12719768  0.63745794  0.36017146  1
  O  O31  1  0.51187655  0.87261598  0.36006078  1
  O  O32  1  0.35805485  0.48510167  0.36315342  1
  O  O33  1  0.12738402  0.48812345  0.86006078  1
  O  O34  1  0.36254206  0.87280232  0.86017146  1
  O  O35  1  0.51489833  0.64194515  0.86315342  1
  O  O36  1  0.02280102  0.83779109  0.41313871  1
  O  O37  1  0.82342872  0.99541291  0.41410257  1
  O  O38  1  0.18415223  0.19404957  0.41076977  1
  O  O39  1  0.00458709  0.17657128  0.91410257  1
  O  O40  1  0.16220891  0.97719898  0.91313871  1
  O  O41  1  0.80595043  0.81584777  0.91076977  1
  O  O42  1  0.97066222  0.16917007  0.58800527  1
  O  O43  1  0.18400903  0.02512548  0.58723987  1
  O  O44  1  0.83534141  0.81645072  0.58680335  1
  O  O45  1  0.97487452  0.81599097  0.08723987  1
  O  O46  1  0.83082993  0.02933778  0.08800527  1
  O  O47  1  0.18354928  0.16465859  0.08680335  1
  O  O48  1  0.68946802  0.17112409  0.74647171  1
  O  O49  1  0.49009572  0.32874591  0.74743557  1
  O  O50  1  0.85081923  0.52738257  0.74410277  1
  O  O51  1  0.67125409  0.50990428  0.24743557  1
  O  O52  1  0.82887591  0.31053198  0.24647171  1
  O  O53  1  0.47261743  0.14918077  0.24410277  1
  O  O54  1  0.63732922  0.50250307  0.92133827  1
  O  O55  1  0.85067603  0.35845848  0.92057287  1
  O  O56  1  0.50200841  0.14978372  0.92013635  1
  O  O57  1  0.64154152  0.14932397  0.42057287  1
  O  O58  1  0.49749693  0.36267078  0.42133827  1
  O  O59  1  0.85021628  0.49799159  0.42013635  1
  O  O60  1  0.35613402  0.50445809  0.07980571  1
  O  O61  1  0.15676172  0.66207991  0.08076957  1
  O  O62  1  0.51748523  0.86071657  0.07743677  1
  O  O63  1  0.33792009  0.84323828  0.58076957  1
  O  O64  1  0.49554191  0.64386598  0.57980571  1
  O  O65  1  0.13928343  0.48251477  0.57743677  1
  O  O66  1  0.30399522  0.83583707  0.25467227  1
  O  O67  1  0.51734203  0.69179248  0.25390687  1
  O  O68  1  0.16867441  0.48311772  0.25347035  1
  O  O69  1  0.30820752  0.48265797  0.75390687  1
  O  O70  1  0.16416293  0.69600478  0.75467227  1
  O  O71  1  0.51688228  0.83132559  0.75347035  1
loop_
_geom_bond_atom_site_label_1
_geom_bond_atom_site_label_2
_geom_bond_distance
_geom_bond_site_symmetry_2
Na0 O52 2.453087 1_555
Na0 O53 2.514298 1_555
Na0 O67 2.567883 1_545
Na0 O16 2.686585 1_555
Na0 O66 2.748096 1_545
Na0 O31 2.768201 1_545
Na0 O2 2.969459 1_555
Na0 O9 3.005546 1_545
Na1 O51 2.399072 1_555
Na1 O17 2.460476 1_555
Na1 O68 2.600775 1_555
Na1 O67 2.613665 1_555
Na1 O53 2.616947 1_555
Na2 O52 2.498342 1_555
Na2 O51 2.543145 1_555
Na2 O15 2.553735 1_555
Na2 O68 2.600393 1_655
Na2 O66 2.640245 1_655
Na2 O30 2.813222 1_655
Na2 O1 2.929933 1_555
Na3 O49 2.399072 1_555
Na3 O14 2.460476 1_555
Na3 O71 2.600775 1_555
Na3 O69 2.613665 1_555
Na3 O50 2.616947 1_555
Na4 O48 2.453087 1_555
Na4 O50 2.514298 1_555
Na4 O69 2.567883 1_655
Na4 O12 2.686585 1_555
Na4 O70 2.748096 1_655
Na4 O33 2.768201 1_655
Na4 O5 2.969459 1_555
Na4 O7 3.005546 1_655
Na5 O48 2.498342 1_555
Na5 O49 2.543145 1_555
Na5 O13 2.553735 1_555
Na5 O71 2.600393 1_545
Na5 O70 2.640245 1_545
Na5 O34 2.813222 1_545
Na5 O3 2.929933 1_555
Na6 O64 2.453092 1_555
Na6 O65 2.514313 1_555
Na6 O43 2.567883 1_555
Na6 O28 2.686570 1_555
Na6 O42 2.748096 1_455
Na6 O7 2.768201 1_555
Na6 O14 2.969459 1_555
Na6 O21 3.005546 1_555
Na7 O63 2.399064 1_555
Na7 O29 2.460450 1_555
Na7 O44 2.600775 1_455
Na7 O43 2.613665 1_565
Na7 O65 2.616931 1_555
Na8 O64 2.498333 1_555
Na8 O63 2.543155 1_555
Na8 O27 2.553713 1_555
Na8 O44 2.600393 1_555
Na8 O42 2.640245 1_565
Na8 O6 2.813222 1_555
Na8 O13 2.929933 1_565
Na9 O61 2.399064 1_555
Na9 O26 2.460450 1_554
Na9 O47 2.600775 1_565
Na9 O45 2.613665 1_455
Na9 O62 2.616932 1_555
Na10 O60 2.453092 1_555
Na10 O62 2.514313 1_555
Na10 O45 2.567883 1_555
Na10 O24 2.686570 1_554
Na10 O46 2.748096 1_565
Na10 O9 2.768201 1_555
Na10 O17 2.969459 1_555
Na10 O19 3.005546 1_555
Na11 O60 2.498333 1_555
Na11 O61 2.543155 1_555
Na11 O25 2.553713 1_554
Na11 O47 2.600393 1_555
Na11 O46 2.640245 1_455
Na11 O10 2.813222 1_555
Na11 O15 2.929933 1_455
Na12 O40 2.453087 1_655
Na12 O41 2.514298 1_555
Na12 O55 2.567892 1_555
Na12 O4 2.686585 1_555
Na12 O54 2.748087 1_555
Na12 O19 2.768180 1_556
Na12 O26 2.969459 1_655
Na12 O33 3.005546 1_655
Na13 O39 2.399072 1_655
Na13 O5 2.460476 1_555
Na13 O56 2.600757 1_555
Na13 O55 2.613654 1_555
Na13 O41 2.616947 1_545
Na14 O40 2.498342 1_545
Na14 O39 2.543145 1_555
Na14 O3 2.553735 1_555
Na14 O56 2.600408 1_555
Na14 O54 2.640250 1_555
Na14 O18 2.813207 1_556
Na14 O25 2.929933 1_555
Na15 O37 2.399072 1_545
Na15 O2 2.460476 1_555
Na15 O59 2.600757 1_555
Na15 O57 2.613654 1_555
Na15 O38 2.616947 1_655
Na16 O36 2.453087 1_545
Na16 O38 2.514298 1_555
Na16 O57 2.567892 1_555
Na16 O0 2.686585 1_555
Na16 O58 2.748087 1_555
Na16 O21 2.768180 1_555
Na16 O29 2.969459 1_545
Na16 O31 3.005546 1_545
Na17 O36 2.498342 1_655
Na17 O37 2.543145 1_555
Na17 O1 2.553735 1_555
Na17 O59 2.600408 1_555
Na17 O58 2.640249 1_555
Na17 O22 2.813207 1_555
Na17 O27 2.929933 1_555
Na18 O36 2.433036 1_655
Na18 O37 2.448504 1_555
Na18 O44 2.568088 1_555
Na18 O43 2.622657 1_665
Na18 O38 2.672663 1_665
Na18 O42 2.756863 1_565
Na19 O40 2.433036 1_545
Na19 O39 2.448504 1_555
Na19 O47 2.568088 1_556
Na19 O45 2.622657 1_446
Na19 O41 2.672663 1_445
Na19 O46 2.756863 1_456
Na20 O48 2.433036 1_555
Na20 O49 2.448504 1_555
Na20 O56 2.568088 1_555
Na20 O55 2.622657 1_555
Na20 O50 2.672663 1_555
Na20 O54 2.756863 1_555
Na21 O52 2.433036 1_555
Na21 O51 2.448504 1_555
Na21 O59 2.568088 1_555
Na21 O57 2.622657 1_555
Na21 O53 2.672663 1_555
Na21 O58 2.756863 1_555
Na22 O60 2.433036 1_555
Na22 O61 2.448504 1_555
Na22 O68 2.568088 1_555
Na22 O67 2.622657 1_555
Na22 O62 2.672663 1_555
Na22 O66 2.756863 1_555
Na23 O64 2.433036 1_555
Na23 O63 2.448504 1_555
Na23 O71 2.568088 1_555
Na23 O69 2.622657 1_555
Na23 O65 2.672663 1_555
Na23 O70 2.756863 1_555
In0 O2 2.086199 1_565
In0 O1 2.086440 1_555
In0 O36 2.175792 1_655
In0 O37 2.177364 1_555
In0 O0 2.182845 1_665
In0 O38 2.309000 1_665
In1 O5 2.086199 1_455
In1 O3 2.086440 1_555
In1 O40 2.175792 1_545
In1 O39 2.177364 1_555
In1 O4 2.182845 1_445
In1 O41 2.309000 1_445
In2 O14 2.086199 1_555
In2 O13 2.086440 1_555
In2 O48 2.175792 1_555
In2 O49 2.177364 1_555
In2 O12 2.182845 1_555
In2 O50 2.309000 1_555
In3 O17 2.086199 1_555
In3 O15 2.086440 1_555
In3 O52 2.175792 1_555
In3 O51 2.177364 1_555
In3 O16 2.182845 1_555
In3 O53 2.309000 1_555
In4 O26 2.086199 1_554
In4 O25 2.086440 1_554
In4 O60 2.175792 1_555
In4 O61 2.177364 1_555
In4 O24 2.182845 1_554
In4 O62 2.309000 1_555
In5 O29 2.086199 1_555
In5 O27 2.086440 1_555
In5 O64 2.175792 1_555
In5 O63 2.177364 1_555
In5 O28 2.182845 1_555
In5 O65 2.309000 1_555
O0 P0 1.542597 1_555
O1 Si0 1.632827 1_555
O2 Si1 1.630512 1_555
O3 Si2 1.632827 1_555
O4 P1 1.542597 1_655
O5 Si3 1.630512 1_555
O6 Si3 1.652791 1_565
O6 Zr0 2.051053 1_565
O7 Si2 1.659858 1_555
O7 Zr0 2.069085 1_455
O8 P1 1.562368 1_555
O8 Zr0 2.115341 1_465
O9 Si0 1.659858 1_555
O9 Zr1 2.069085 1_565
O10 Si1 1.652791 1_455
O10 Zr1 2.051053 1_455
O11 P0 1.562368 1_565
O11 Zr1 2.115341 1_465
O12 P2 1.542597 1_555
O13 Si4 1.632827 1_555
O14 Si5 1.630512 1_555
O15 Si6 1.632827 1_555
O16 P3 1.542597 1_555
O17 Si7 1.630512 1_555
O18 Si7 1.652791 1_555
O18 Zr2 2.051053 1_554
O19 Si6 1.659858 1_555
O19 Zr2 2.069085 1_554
O20 P3 1.562368 1_555
O20 Zr2 2.115341 1_554
O21 Si4 1.659858 1_555
O21 Zr3 2.069085 1_555
O22 Si5 1.652791 1_555
O22 Zr3 2.051053 1_555
O23 P2 1.562368 1_555
O23 Zr3 2.115341 1_555
O24 P4 1.542597 1_555
O25 Si8 1.632827 1_555
O26 Si9 1.630512 1_555
O27 Si10 1.632827 1_555
O28 P5 1.542597 1_555
O29 Si11 1.630512 1_555
O30 Si11 1.652791 1_555
O30 Zr4 2.051053 1_555
O31 Si10 1.659858 1_555
O31 Zr4 2.069085 1_555
O32 P5 1.562368 1_555
O32 Zr4 2.115341 1_555
O33 Si8 1.659858 1_555
O33 Zr5 2.069085 1_555
O34 Si9 1.652791 1_555
O34 Zr5 2.051053 1_555
O35 P4 1.562368 1_555
O35 Zr5 2.115341 1_555
O36 Si11 1.641849 1_555
O37 Si10 1.639770 1_555
O38 P5 1.545560 1_555
O39 Si8 1.639770 1_555
O40 Si9 1.641849 1_555
O41 P4 1.545560 1_555
O42 P2 1.561802 1_555
O42 Zr0 2.181321 1_555
O43 Si4 1.655542 1_555
O43 Zr0 2.136541 1_455
O44 Si5 1.656069 1_555
O44 Zr0 2.148252 1_565
O45 Si6 1.655542 1_555
O45 Zr1 2.136541 1_565
O46 P3 1.561802 1_555
O46 Zr1 2.181321 1_555
O47 Si7 1.656069 1_555
O47 Zr1 2.148252 1_455
O48 Si3 1.641849 1_555
O49 Si2 1.639770 1_555
O50 P1 1.545560 1_655
O51 Si0 1.639770 1_555
O52 Si1 1.641849 1_555
O53 P0 1.545560 1_555
O54 P4 1.561815 1_555
O54 Zr2 2.181321 1_555
O55 Si8 1.655527 1_655
O55 Zr2 2.136541 1_555
O56 Si9 1.656067 1_545
O56 Zr2 2.148252 1_555
O57 Si10 1.655527 1_545
O57 Zr3 2.136541 1_555
O58 P5 1.561815 1_555
O58 Zr3 2.181321 1_555
O59 Si11 1.656067 1_655
O59 Zr3 2.148252 1_555
O60 Si7 1.641862 1_555
O61 Si6 1.639757 1_455
O62 P3 1.545556 1_565
O63 Si4 1.639757 1_565
O64 Si5 1.641862 1_555
O65 P2 1.545556 1_455
O66 P0 1.561802 1_565
O66 Zr4 2.181321 1_555
O67 Si0 1.655542 1_555
O67 Zr4 2.136541 1_555
O68 Si1 1.656069 1_455
O68 Zr4 2.148252 1_555
O69 Si2 1.655542 1_555
O69 Zr5 2.136541 1_555
O70 P1 1.561802 1_555
O70 Zr5 2.181321 1_555
O71 Si3 1.656069 1_565
O71 Zr5 2.148252 1_555
