# generated using pymatgen
data_LaSnP(SO6)2
_symmetry_space_group_name_H-M   'P 1'
_cell_length_a   9.21966133
_cell_length_b   9.26026133
_cell_length_c   22.75435536
_cell_angle_alpha   89.72515224
_cell_angle_beta   90.00000000
_cell_angle_gamma   119.85507331
_symmetry_Int_Tables_number   1
_chemical_formula_structural   LaSnP(SO6)2
_chemical_formula_sum   'La6 Sn6 P6 S12 O72'
_cell_volume   1684.84176431
_cell_formula_units_Z   6
loop_
 _symmetry_equiv_pos_site_id
 _symmetry_equiv_pos_as_xyz
  1  'x, y, z'
loop_
 _atom_site_type_symbol
 _atom_site_label
 _atom_site_symmetry_multiplicity
 _atom_site_fract_x
 _atom_site_fract_y
 _atom_site_fract_z
 _atom_site_occupancy
  La  La0  1  0.00330718  0.00267680  0.36976007  1
  La  La1  1  0.99936962  0.00267680  0.86976007  1
  La  La2  1  0.67919579  0.33865313  0.70336452  1
  La  La3  1  0.65945834  0.33865313  0.20336452  1
  La  La4  1  0.32604768  0.65190880  0.03607723  1
  La  La5  1  0.32586012  0.65190880  0.53607723  1
  Sn  Sn0  1  0.99885981  0.00179890  0.64923833  1
  Sn  Sn1  1  0.00293909  0.00179890  0.14923833  1
  Sn  Sn2  1  0.66313316  0.33147965  0.98311653  1
  Sn  Sn3  1  0.66834750  0.33147965  0.48311653  1
  Sn  Sn4  1  0.34976869  0.66493106  0.31608287  1
  Sn  Sn5  1  0.31516137  0.66493106  0.81608287  1
  P  P0  1  0.70441257  0.74727420  0.24932527  1
  P  P1  1  0.04286163  0.74727420  0.74932527  1
  P  P2  1  0.92274300  0.28191913  0.58262114  1
  P  P3  1  0.35917714  0.28191913  0.08262114  1
  P  P4  1  0.02150138  0.40260815  0.91719488  1
  P  P5  1  0.38110577  0.40260815  0.41719488  1
  S  S0  1  0.26610063  0.94920908  0.25108781  1
  S  S1  1  0.04675718  0.31169492  0.24915459  1
  S  S2  1  0.26493774  0.31169492  0.74915459  1
  S  S3  1  0.68310846  0.94920908  0.75108781  1
  S  S4  1  0.36058768  0.06865285  0.58390218  1
  S  S5  1  0.71249184  0.64217887  0.58306664  1
  S  S6  1  0.92968803  0.64217887  0.08306664  1
  S  S7  1  0.70806617  0.06865285  0.08390218  1
  S  S8  1  0.59183047  0.62108748  0.91515905  1
  S  S9  1  0.37872873  0.97352344  0.91741703  1
  S  S10  1  0.59479372  0.97352344  0.41741703  1
  S  S11  1  0.02925601  0.62108748  0.41515905  1
  O  O0  1  0.19543852  0.98675008  0.30237479  1
  O  O1  1  0.81341571  0.82923058  0.30263310  1
  O  O2  1  0.01682812  0.20986865  0.30190917  1
  O  O3  1  0.19304053  0.20986865  0.80190917  1
  O  O4  1  0.01581487  0.82923058  0.80263310  1
  O  O5  1  0.79131156  0.98675008  0.80237479  1
  O  O6  1  0.76435699  0.92834369  0.69642611  1
  O  O7  1  0.15669960  0.23123320  0.69567051  1
  O  O8  1  0.07077745  0.85645683  0.69203748  1
  O  O9  1  0.78567938  0.85645683  0.19203748  1
  O  O10  1  0.07453360  0.23123320  0.19567051  1
  O  O11  1  0.16398671  0.92834369  0.19642611  1
  O  O12  1  0.84328447  0.31177698  0.63627241  1
  O  O13  1  0.46220903  0.14398090  0.63590685  1
  O  O14  1  0.67387475  0.53477475  0.63459497  1
  O  O15  1  0.86090100  0.53477475  0.13459497  1
  O  O16  1  0.68177287  0.14398090  0.13590685  1
  O  O17  1  0.46849351  0.31177698  0.13627241  1
  O  O18  1  0.44158594  0.25375137  0.02572765  1
  O  O19  1  0.82599328  0.56029874  0.02895074  1
  O  O20  1  0.73340099  0.17436001  0.02938061  1
  O  O21  1  0.44096002  0.17436001  0.52938061  1
  O  O22  1  0.73430646  0.56029874  0.52895074  1
  O  O23  1  0.81216643  0.25375137  0.52572765  1
  O  O24  1  0.52367349  0.65603093  0.96746696  1
  O  O25  1  0.13548058  0.48222076  0.96954101  1
  O  O26  1  0.35253122  0.87114927  0.96899914  1
  O  O27  1  0.51861705  0.87114927  0.46899914  1
  O  O28  1  0.34673918  0.48222076  0.46954101  1
  O  O29  1  0.13235644  0.65603093  0.46746696  1
  O  O30  1  0.11369621  0.60074590  0.36138343  1
  O  O31  1  0.49256215  0.89437342  0.36255113  1
  O  O32  1  0.41303436  0.51421551  0.36021434  1
  O  O33  1  0.10118015  0.51421551  0.86021434  1
  O  O34  1  0.40181028  0.89437342  0.86255113  1
  O  O35  1  0.48704869  0.60074590  0.86138343  1
  O  O36  1  0.99194117  0.75647217  0.40622336  1
  O  O37  1  0.76641299  0.00469836  0.40954496  1
  O  O38  1  0.23838900  0.22586460  0.40658351  1
  O  O39  1  0.98747560  0.22586460  0.90658351  1
  O  O40  1  0.23828537  0.00469836  0.90954496  1
  O  O41  1  0.76453101  0.75647217  0.90622336  1
  O  O42  1  0.92600405  0.11490470  0.58966047  1
  O  O43  1  0.19663677  0.06594273  0.58862373  1
  O  O44  1  0.87619454  0.79973491  0.58943816  1
  O  O45  1  0.92354037  0.79973491  0.08943816  1
  O  O46  1  0.86930596  0.06594273  0.08862373  1
  O  O47  1  0.18890065  0.11490470  0.08966047  1
  O  O48  1  0.64166603  0.08179137  0.74288274  1
  O  O49  1  0.43435872  0.34147509  0.73907880  1
  O  O50  1  0.89720534  0.57135959  0.74021345  1
  O  O51  1  0.67415525  0.57135959  0.24021345  1
  O  O52  1  0.90711737  0.34147509  0.23907880  1
  O  O53  1  0.44012634  0.08179137  0.24288274  1
  O  O54  1  0.58976073  0.45866496  0.92137005  1
  O  O55  1  0.85246394  0.40169042  0.92552127  1
  O  O56  1  0.53880791  0.13686326  0.92133268  1
  O  O57  1  0.59805634  0.13686326  0.42133268  1
  O  O58  1  0.54922748  0.40169042  0.42552127  1
  O  O59  1  0.86890523  0.45866496  0.42137005  1
  O  O60  1  0.32704411  0.42649624  0.07363796  1
  O  O61  1  0.10351355  0.68327109  0.07400020  1
  O  O62  1  0.56815493  0.89998551  0.07467608  1
  O  O63  1  0.33182958  0.89998551  0.57467608  1
  O  O64  1  0.57975654  0.68327109  0.57400020  1
  O  O65  1  0.09945113  0.42649624  0.57363796  1
  O  O66  1  0.25871652  0.78451187  0.25843888  1
  O  O67  1  0.53297090  0.74254256  0.25530517  1
  O  O68  1  0.20616571  0.47457252  0.25486000  1
  O  O69  1  0.26840581  0.47457252  0.75486000  1
  O  O70  1  0.20957066  0.74254256  0.75530517  1
  O  O71  1  0.52579434  0.78451187  0.75843888  1
loop_
_geom_bond_atom_site_label_1
_geom_bond_atom_site_label_2
_geom_bond_distance
_geom_bond_site_symmetry_2
La0 O1 2.280739 1_445
La0 O38 2.286465 1_555
La0 O37 2.372968 1_455
La0 O36 2.375163 1_445
La0 O0 2.402680 1_545
La0 O2 2.411193 1_555
La1 O4 2.280739 1_645
La1 O39 2.286465 1_555
La1 O40 2.372968 1_655
La1 O41 2.375163 1_545
La1 O5 2.402680 1_545
La1 O3 2.411193 1_655
La2 O12 2.249392 1_555
La2 O50 2.256482 1_555
La2 O48 2.397111 1_555
La2 O14 2.410565 1_555
La2 O49 2.411534 1_555
La2 O13 2.458454 1_555
La3 O17 2.249392 1_555
La3 O51 2.256482 1_555
La3 O53 2.397111 1_555
La3 O15 2.410565 1_555
La3 O52 2.411534 1_555
La3 O16 2.458454 1_555
La4 O60 2.256031 1_555
La4 O25 2.263262 1_554
La4 O61 2.373614 1_555
La4 O24 2.385114 1_554
La4 O62 2.438296 1_555
La4 O26 2.446999 1_554
La5 O65 2.256031 1_555
La5 O28 2.263262 1_555
La5 O64 2.373614 1_555
La5 O29 2.385114 1_555
La5 O63 2.438296 1_555
La5 O27 2.446999 1_555
O0 S0 1.461696 1_555
O1 P0 1.518800 1_555
O2 S1 1.461614 1_555
O3 S2 1.461614 1_555
O4 P1 1.518800 1_555
O5 S3 1.461696 1_555
O6 S3 1.513898 1_555
O6 Sn0 2.195171 1_565
O7 S2 1.516741 1_555
O7 Sn0 2.165930 1_455
O8 P1 1.586188 1_555
O8 Sn0 2.018773 1_465
O9 P0 1.586188 1_555
O9 Sn1 2.018773 1_665
O10 S1 1.516741 1_555
O10 Sn1 2.165930 1_555
O11 S0 1.513898 1_555
O11 Sn1 2.195171 1_565
O12 P2 1.519335 1_555
O13 S4 1.456676 1_555
O14 S5 1.458413 1_555
O15 S6 1.458413 1_555
O16 S7 1.456676 1_555
O17 P3 1.519335 1_555
O18 P3 1.588012 1_555
O18 Sn2 2.039582 1_554
O19 S6 1.514077 1_555
O19 Sn2 2.164634 1_554
O20 S7 1.520711 1_555
O20 Sn2 2.137429 1_554
O21 S4 1.520711 1_555
O21 Sn3 2.137429 1_555
O22 S5 1.514077 1_555
O22 Sn3 2.164634 1_555
O23 P2 1.588012 1_555
O23 Sn3 2.039581 1_555
O24 S8 1.456835 1_555
O25 P4 1.517769 1_555
O26 S9 1.447767 1_555
O27 S10 1.447767 1_555
O28 P5 1.517769 1_555
O29 S11 1.456835 1_555
O30 S11 1.512298 1_555
O30 Sn4 2.204342 1_555
O31 S10 1.518278 1_555
O31 Sn4 2.145266 1_555
O32 P5 1.587483 1_555
O32 Sn4 2.023252 1_555
O33 P4 1.587483 1_555
O33 Sn5 2.023252 1_555
O34 S9 1.518278 1_555
O34 Sn5 2.145266 1_555
O35 S8 1.512298 1_555
O35 Sn5 2.204342 1_555
O36 S11 1.469159 1_655
O37 S10 1.470963 1_545
O38 P5 1.525799 1_555
O39 P4 1.525802 1_655
O40 S9 1.470954 1_545
O41 S8 1.469165 1_555
O42 P2 1.569217 1_555
O42 Sn0 2.018129 1_555
O43 S4 1.503073 1_555
O43 Sn0 2.119871 1_455
O44 S5 1.495757 1_555
O44 Sn0 2.132922 1_565
O45 S6 1.495762 1_555
O45 Sn1 2.132922 1_665
O46 S7 1.503063 1_555
O46 Sn1 2.119871 1_655
O47 P3 1.569222 1_555
O47 Sn1 2.018129 1_555
O48 S3 1.467330 1_545
O49 S2 1.462531 1_555
O50 P1 1.524889 1_655
O51 P0 1.524892 1_555
O52 S1 1.462522 1_655
O53 S0 1.467336 1_545
O54 S8 1.500655 1_555
O54 Sn2 2.143860 1_555
O55 P4 1.565755 1_655
O55 Sn2 2.012245 1_555
O56 S9 1.500910 1_545
O56 Sn2 2.122691 1_555
O57 S10 1.500901 1_545
O57 Sn3 2.122691 1_555
O58 P5 1.565773 1_555
O58 Sn3 2.012245 1_555
O59 S11 1.500646 1_655
O59 Sn3 2.143860 1_555
O60 P3 1.521270 1_555
O61 S6 1.465542 1_455
O62 S7 1.464504 1_565
O63 S4 1.464497 1_565
O64 S5 1.465560 1_555
O65 P2 1.521258 1_455
O66 S0 1.500947 1_555
O66 Sn4 2.136104 1_555
O67 P0 1.565193 1_555
O67 Sn4 2.015909 1_555
O68 S1 1.498887 1_555
O68 Sn4 2.121529 1_555
O69 S2 1.498892 1_555
O69 Sn5 2.121529 1_555
O70 P1 1.565183 1_555
O70 Sn5 2.015909 1_555
O71 S3 1.500951 1_555
O71 Sn5 2.136104 1_555
