# generated using pymatgen
data_FeHO2
_symmetry_space_group_name_H-M   'P 1'
_cell_length_a   7.66837648
_cell_length_b   7.66837648
_cell_length_c   4.05002800
_cell_angle_alpha   90.00000000
_cell_angle_beta   90.00000000
_cell_angle_gamma   160.21224254
_symmetry_Int_Tables_number   1
_chemical_formula_structural   FeHO2
_chemical_formula_sum   'Fe2 H2 O4'
_cell_volume   80.62520949
_cell_formula_units_Z   2
loop_
 _symmetry_equiv_pos_site_id
 _symmetry_equiv_pos_as_xyz
  1  'x, y, z'
loop_
 _atom_site_type_symbol
 _atom_site_label
 _atom_site_symmetry_multiplicity
 _atom_site_fract_x
 _atom_site_fract_y
 _atom_site_fract_z
 _atom_site_occupancy
  Fe  Fe0  1  0.68754500  0.31245500  0.19486700  1
  Fe  Fe1  1  0.31245500  0.68754500  0.69486700  1
  H  H0  1  0.55629100  0.44370900  0.17466600  1
  H  H1  1  0.44370900  0.55629100  0.67466600  1
  O  O0  1  0.28658000  0.71342000  0.19355700  1
  O  O1  1  0.71342000  0.28658000  0.69355700  1
  O  O2  1  0.08264300  0.91735700  0.18291000  1
  O  O3  1  0.91735700  0.08264300  0.68291000  1
loop_
_geom_bond_atom_site_label_1
_geom_bond_atom_site_label_2
_geom_bond_distance
_geom_bond_site_symmetry_2
Fe0 H0 1.984759 1_555
Fe0 O0 1.993739 1_655
Fe0 O0 1.993739 1_545
Fe0 O1 2.057196 1_555
Fe0 O2 2.061660 1_545
Fe0 O2 2.061660 1_655
Fe0 O1 2.067614 1_554
Fe1 H1 1.984759 1_555
Fe1 O1 1.993739 1_455
Fe1 O1 1.993739 1_565
Fe1 O0 2.057196 1_556
Fe1 O3 2.061660 1_455
Fe1 O3 2.061660 1_565
Fe1 O0 2.067614 1_555
H0 O2 1.376855 1_545
H0 O2 1.376855 1_655
H1 O3 1.376855 1_455
H1 O3 1.376855 1_565
