# generated using pymatgen
data_Na4PbO4
_symmetry_space_group_name_H-M   'P 1'
_cell_length_a   5.92773412
_cell_length_b   5.92249513
_cell_length_c   8.95240538
_cell_angle_alpha   82.59008101
_cell_angle_beta   70.92419792
_cell_angle_gamma   68.73730988
_symmetry_Int_Tables_number   1
_chemical_formula_structural   Na4PbO4
_chemical_formula_sum   'Na8 Pb2 O8'
_cell_volume   276.79393370
_cell_formula_units_Z   2
loop_
 _symmetry_equiv_pos_site_id
 _symmetry_equiv_pos_as_xyz
  1  'x, y, z'
loop_
 _atom_site_type_symbol
 _atom_site_label
 _atom_site_symmetry_multiplicity
 _atom_site_fract_x
 _atom_site_fract_y
 _atom_site_fract_z
 _atom_site_occupancy
  Na  Na0  1  0.74890453  0.75109214  0.99445942  1
  Na  Na1  1  0.25109547  0.24890786  0.00554058  1
  Na  Na2  1  0.43494070  0.25423418  0.59127191  1
  Na  Na3  1  0.56505930  0.74576582  0.40872809  1
  Na  Na4  1  0.01765765  0.26444013  0.43256818  1
  Na  Na5  1  0.98234235  0.73555987  0.56743182  1
  Na  Na6  1  0.88797744  0.27912312  0.79438700  1
  Na  Na7  1  0.11202256  0.72087688  0.20561300  1
  Pb  Pb0  1  0.33906325  0.72586794  0.77136002  1
  Pb  Pb1  1  0.66093675  0.27413206  0.22863998  1
  O  O0  1  0.11646885  0.50944154  0.80429082  1
  O  O1  1  0.88353115  0.49055846  0.19570918  1
  O  O2  1  0.31306679  0.48405449  0.37788836  1
  O  O3  1  0.68693321  0.51594551  0.62211164  1
  O  O4  1  0.19912015  0.99201347  0.61420823  1
  O  O5  1  0.80087985  0.00798653  0.38579177  1
  O  O6  1  0.34752744  0.84234354  0.97511327  1
  O  O7  1  0.65247256  0.15765646  0.02488673  1
loop_
_geom_bond_atom_site_label_1
_geom_bond_atom_site_label_2
_geom_bond_distance
_geom_bond_site_symmetry_2
Na0 O7 2.295198 1_566
Na0 O6 2.301202 1_555
Na0 O1 2.365033 1_556
Na0 O0 2.374058 1_655
Na1 O6 2.295198 1_544
Na1 O7 2.301202 1_555
Na1 O0 2.365033 1_554
Na1 O1 2.374058 1_455
Na2 O2 2.354141 1_555
Na2 O4 2.390129 1_545
Na2 O0 2.409549 1_555
Na2 O5 2.450614 1_555
Na2 O3 2.601757 1_555
Na3 O3 2.354141 1_555
Na3 O5 2.390129 1_565
Na3 O1 2.409549 1_555
Na3 O4 2.450614 1_555
Na3 O2 2.601757 1_555
Na4 O3 2.302395 1_455
Na4 O4 2.369036 1_545
Na4 O2 2.434159 1_555
Na4 O5 2.462686 1_455
Na4 O1 2.553265 1_455
Na5 O2 2.302395 1_655
Na5 O5 2.369036 1_565
Na5 O3 2.434159 1_555
Na5 O4 2.462686 1_655
Na5 O0 2.553265 1_655
Na6 O0 2.269956 1_655
Na6 O7 2.277511 1_556
Na6 O3 2.279734 1_555
Na6 O4 2.320172 1_645
Na7 O1 2.269956 1_455
Na7 O6 2.277511 1_554
Na7 O2 2.279734 1_555
Na7 O5 2.320172 1_465
O0 Pb0 2.084671 1_555
O1 Pb1 2.084671 1_555
O2 Pb1 2.085968 1_555
O3 Pb0 2.085968 1_555
O4 Pb0 2.096309 1_555
O5 Pb1 2.096309 1_555
O6 Pb0 2.053079 1_555
O7 Pb1 2.053079 1_555
