# generated using pymatgen
data_MgCr2(PO5)2
_symmetry_space_group_name_H-M   'P 1'
_cell_length_a   5.37038564
_cell_length_b   7.06230874
_cell_length_c   7.65043766
_cell_angle_alpha   89.02187902
_cell_angle_beta   41.96255691
_cell_angle_gamma   70.56571315
_symmetry_Int_Tables_number   1
_chemical_formula_structural   MgCr2(PO5)2
_chemical_formula_sum   'Mg1 Cr2 P2 O10'
_cell_volume   170.31588467
_cell_formula_units_Z   1
loop_
 _symmetry_equiv_pos_site_id
 _symmetry_equiv_pos_as_xyz
  1  'x, y, z'
loop_
 _atom_site_type_symbol
 _atom_site_label
 _atom_site_symmetry_multiplicity
 _atom_site_fract_x
 _atom_site_fract_y
 _atom_site_fract_z
 _atom_site_occupancy
  Mg  Mg0  1  0.00611000  0.48251700  0.99296600  1
  Cr  Cr0  1  0.50489100  0.48568000  0.99378400  1
  Cr  Cr1  1  0.50742800  0.98646400  0.99015400  1
  P  P0  1  0.49785300  0.21471300  0.35456700  1
  P  P1  1  0.51458600  0.75165600  0.63044200  1
  O  O0  1  0.34866800  0.09624400  0.30487200  1
  O  O1  1  0.53912200  0.39713000  0.22818300  1
  O  O2  1  0.67001000  0.86772200  0.67642300  1
  O  O3  1  0.46703800  0.57179500  0.76079700  1
  O  O4  1  0.87169800  0.64050900  0.30604100  1
  O  O5  1  0.10737100  0.89693200  0.74308200  1
  O  O6  1  0.14210700  0.32280800  0.67896300  1
  O  O7  1  0.90925500  0.07044300  0.23781500  1
  O  O8  1  0.57927300  0.71026800  0.03718000  1
  O  O9  1  0.43494300  0.25577900  0.94611900  1
loop_
_geom_bond_atom_site_label_1
_geom_bond_atom_site_label_2
_geom_bond_distance
_geom_bond_site_symmetry_2
Mg0 O3 2.035076 1_555
Mg0 O1 2.036968 1_456
Mg0 O9 2.081936 1_555
Mg0 O8 2.089976 1_456
Mg0 O4 2.118231 1_456
Mg0 O6 2.124041 1_555
Cr0 O8 1.849963 1_556
Cr0 O9 1.881506 1_555
Cr0 O4 1.999949 1_456
Cr0 O3 2.001979 1_555
Cr0 O1 2.004024 1_556
Cr0 O6 2.013081 1_655
Cr1 O9 1.887600 1_565
Cr1 O2 1.921284 1_555
Cr1 O0 1.922534 1_566
Cr1 O8 1.940290 1_556
Cr1 O7 1.995008 1_466
Cr1 O5 1.995403 1_655
O0 P0 1.548017 1_555
O1 P0 1.572408 1_555
O2 P1 1.547303 1_555
O3 P1 1.570711 1_555
O4 P1 1.562019 1_555
O5 P1 1.520607 1_555
O6 P0 1.560399 1_555
O7 P0 1.521702 1_555
