# generated using pymatgen
data_Ba2Ca2Cu3HgO8
_symmetry_space_group_name_H-M   'P 1'
_cell_length_a   3.89268200
_cell_length_b   3.89268200
_cell_length_c   16.24844400
_cell_angle_alpha   90.00000000
_cell_angle_beta   90.00000000
_cell_angle_gamma   90.00000000
_symmetry_Int_Tables_number   1
_chemical_formula_structural   Ba2Ca2Cu3HgO8
_chemical_formula_sum   'Ba2 Ca2 Cu3 Hg1 O8'
_cell_volume   246.21223571
_cell_formula_units_Z   1
loop_
 _symmetry_equiv_pos_site_id
 _symmetry_equiv_pos_as_xyz
  1  'x, y, z'
loop_
 _atom_site_type_symbol
 _atom_site_label
 _atom_site_symmetry_multiplicity
 _atom_site_fract_x
 _atom_site_fract_y
 _atom_site_fract_z
 _atom_site_occupancy
  Ba  Ba0  1  0.50000000  0.50000000  0.81608300  1
  Ba  Ba1  1  0.50000000  0.50000000  0.18391700  1
  Ca  Ca0  1  0.50000000  0.50000000  0.59907100  1
  Ca  Ca1  1  0.50000000  0.50000000  0.40092900  1
  Cu  Cu0  1  0.00000000  0.00000000  0.69191800  1
  Cu  Cu1  1  0.00000000  0.00000000  0.30808200  1
  Cu  Cu2  1  0.00000000  0.00000000  0.50000000  1
  Hg  Hg0  1  0.00000000  0.00000000  0.00000000  1
  O  O0  1  0.50000000  0.00000000  0.50000000  1
  O  O1  1  0.00000000  0.50000000  0.50000000  1
  O  O2  1  0.00000000  0.00000000  0.87627100  1
  O  O3  1  0.00000000  0.00000000  0.12372900  1
  O  O4  1  0.50000000  0.00000000  0.30369500  1
  O  O5  1  0.50000000  0.00000000  0.69630500  1
  O  O6  1  0.00000000  0.50000000  0.30369500  1
  O  O7  1  0.00000000  0.50000000  0.69630500  1
loop_
_geom_bond_atom_site_label_1
_geom_bond_atom_site_label_2
_geom_bond_distance
_geom_bond_site_symmetry_2
Ba0 O7 2.752446 1_655
Ba0 O5 2.752446 1_555
Ba0 O5 2.752446 1_565
Ba0 O7 2.752446 1_555
Ba0 O2 2.921112 1_655
Ba0 O2 2.921112 1_565
Ba0 O2 2.921112 1_665
Ba0 O2 2.921112 1_555
Ba1 O6 2.752446 1_555
Ba1 O4 2.752446 1_555
Ba1 O6 2.752446 1_655
Ba1 O4 2.752446 1_565
Ba1 O3 2.921112 1_655
Ba1 O3 2.921112 1_665
Ba1 O3 2.921112 1_555
Ba1 O3 2.921112 1_565
Ca0 O7 2.506857 1_655
Ca0 O5 2.506857 1_555
Ca0 O5 2.506857 1_565
Ca0 O7 2.506857 1_555
Ca0 O1 2.525775 1_655
Ca0 O0 2.525775 1_565
Ca0 O0 2.525775 1_555
Ca0 O1 2.525775 1_555
Ca1 O6 2.506857 1_555
Ca1 O4 2.506857 1_555
Ca1 O6 2.506857 1_655
Ca1 O4 2.506857 1_565
Ca1 O1 2.525775 1_655
Ca1 O0 2.525775 1_565
Ca1 O0 2.525775 1_555
Ca1 O1 2.525775 1_555
Cu0 O5 1.947646 1_555
Cu0 O7 1.947646 1_545
Cu0 O7 1.947646 1_555
Cu0 O5 1.947646 1_455
Cu1 O6 1.947646 1_555
Cu1 O6 1.947646 1_545
Cu1 O4 1.947646 1_555
Cu1 O4 1.947646 1_455
Cu2 O0 1.946341 1_455
Cu2 O1 1.946341 1_545
Cu2 O1 1.946341 1_555
Cu2 O0 1.946341 1_555
Hg0 O3 2.010404 1_555
Hg0 O2 2.010404 1_554
