# generated using pymatgen
data_Na6Nb8Zn4Si9(SO8)9
_symmetry_space_group_name_H-M   'P 1'
_cell_length_a   8.87777207
_cell_length_b   8.87086076
_cell_length_c   22.93392991
_cell_angle_alpha   89.75345894
_cell_angle_beta   90.12428559
_cell_angle_gamma   119.96515352
_symmetry_Int_Tables_number   1
_chemical_formula_structural   Na6Nb8Zn4Si9(SO8)9
_chemical_formula_sum   'Na6 Nb8 Zn4 Si9 S9 O72'
_cell_volume   1564.68613635
_cell_formula_units_Z   1
loop_
 _symmetry_equiv_pos_site_id
 _symmetry_equiv_pos_as_xyz
  1  'x, y, z'
loop_
 _atom_site_type_symbol
 _atom_site_label
 _atom_site_symmetry_multiplicity
 _atom_site_fract_x
 _atom_site_fract_y
 _atom_site_fract_z
 _atom_site_occupancy
  Na  Na0  1  0.99956516  0.00019391  0.49505358  1
  Na  Na1  1  0.99518442  0.00354015  0.99947016  1
  Na  Na2  1  0.67477373  0.33561868  0.82328906  1
  Na  Na3  1  0.66513804  0.32541723  0.32448509  1
  Na  Na4  1  0.33087122  0.66652023  0.16860518  1
  Na  Na5  1  0.33217791  0.67024950  0.66027528  1
  Nb  Nb0  1  0.01212307  0.01512909  0.35678213  1
  Nb  Nb1  1  0.97946988  0.99006392  0.85343154  1
  Nb  Nb2  1  0.98951032  0.98558084  0.64517896  1
  Nb  Nb3  1  0.00852539  0.00720938  0.15104537  1
  Nb  Nb4  1  0.67689390  0.34046863  0.97719299  1
  Nb  Nb5  1  0.66536008  0.32740534  0.47196262  1
  Nb  Nb6  1  0.32125873  0.66507225  0.31575124  1
  Nb  Nb7  1  0.32986084  0.65876804  0.81074320  1
  Zn  Zn0  1  0.68153632  0.33573107  0.68835199  1
  Zn  Zn1  1  0.66400394  0.31885274  0.19128808  1
  Zn  Zn2  1  0.33757950  0.65580782  0.01336818  1
  Zn  Zn3  1  0.33263277  0.66809458  0.50687879  1
  Si  Si0  1  0.29760962  0.00227479  0.25176729  1
  Si  Si1  1  0.00063386  0.29848404  0.25157314  1
  Si  Si2  1  0.99579152  0.70565114  0.75031066  1
  Si  Si3  1  0.70422736  0.00288392  0.74826639  1
  Si  Si4  1  0.61475661  0.66624367  0.91966952  1
  Si  Si5  1  0.05353573  0.37853135  0.91880198  1
  Si  Si6  1  0.61922479  0.94321207  0.41826797  1
  Si  Si7  1  0.33334742  0.38725274  0.41955219  1
  Si  Si8  1  0.04854814  0.67345922  0.42028498  1
  S  S0  1  0.71121132  0.71138678  0.24998216  1
  S  S1  1  0.28625380  0.28461871  0.74970565  1
  S  S2  1  0.96001012  0.33673704  0.58452010  1
  S  S3  1  0.37990501  0.04523498  0.58570617  1
  S  S4  1  0.65957844  0.61539795  0.58486936  1
  S  S5  1  0.95863029  0.62432997  0.08439734  1
  S  S6  1  0.66252444  0.03923690  0.08375074  1
  S  S7  1  0.37960891  0.33419610  0.08472085  1
  S  S8  1  0.33304711  0.95568705  0.91757028  1
  O  O0  1  0.18536770  0.01458842  0.30535158  1
  O  O1  1  0.81692043  0.79467453  0.30165481  1
  O  O2  1  0.97677538  0.16931705  0.30546256  1
  O  O3  1  0.20310040  0.18292494  0.80321553  1
  O  O4  1  0.98662073  0.81685367  0.80607228  1
  O  O5  1  0.82799618  0.02293880  0.80581646  1
  O  O6  1  0.80889576  0.97322805  0.69297354  1
  O  O7  1  0.17603960  0.20648909  0.69713176  1
  O  O8  1  0.03184079  0.83677458  0.69262320  1
  O  O9  1  0.80051231  0.82683606  0.19537333  1
  O  O10  1  0.02646951  0.19180444  0.19291166  1
  O  O11  1  0.16456828  0.96864934  0.19232622  1
  O  O12  1  0.87612341  0.35379741  0.63689029  1
  O  O13  1  0.48087490  0.13123073  0.63791439  1
  O  O14  1  0.64684640  0.51778255  0.63775243  1
  O  O15  1  0.87207617  0.51800141  0.13519811  1
  O  O16  1  0.64495307  0.12388080  0.13524289  1
  O  O17  1  0.48238378  0.35164980  0.13629970  1
  O  O18  1  0.46098624  0.30685204  0.03067262  1
  O  O19  1  0.84428505  0.53374482  0.02946235  1
  O  O20  1  0.68979154  0.15363362  0.02990782  1
  O  O21  1  0.45950856  0.15378772  0.53204035  1
  O  O22  1  0.69433061  0.54244781  0.53192160  1
  O  O23  1  0.84859477  0.30467171  0.53165753  1
  O  O24  1  0.55298594  0.71376223  0.97703329  1
  O  O25  1  0.15335346  0.45507609  0.97735516  1
  O  O26  1  0.30154118  0.85388157  0.97036680  1
  O  O27  1  0.55367728  0.84443489  0.47811250  1
  O  O28  1  0.29275565  0.44865332  0.47850573  1
  O  O29  1  0.15494018  0.71178507  0.47832374  1
  O  O30  1  0.12954256  0.63093005  0.36086355  1
  O  O31  1  0.49692327  0.86309727  0.35952741  1
  O  O32  1  0.36769519  0.50207378  0.35963517  1
  O  O33  1  0.13531743  0.50053176  0.85975617  1
  O  O34  1  0.36499295  0.87864565  0.86446373  1
  O  O35  1  0.49744313  0.63673577  0.86059616  1
  O  O36  1  0.01010335  0.82944191  0.40491081  1
  O  O37  1  0.81479495  0.98064225  0.40480442  1
  O  O38  1  0.17204156  0.18752563  0.40839593  1
  O  O39  1  0.02544999  0.18454303  0.90609405  1
  O  O40  1  0.18391440  0.98518290  0.90784706  1
  O  O41  1  0.81670746  0.82648555  0.90763562  1
  O  O42  1  0.97422253  0.17030401  0.59069314  1
  O  O43  1  0.19969592  0.03400698  0.59073930  1
  O  O44  1  0.83175001  0.80122046  0.59003169  1
  O  O45  1  0.96539460  0.79760393  0.08572752  1
  O  O46  1  0.82588517  0.02504918  0.08675817  1
  O  O47  1  0.19907903  0.16701804  0.08815110  1
  O  O48  1  0.68226066  0.16799360  0.74542368  1
  O  O49  1  0.45909376  0.30851154  0.74418554  1
  O  O50  1  0.82417469  0.52379841  0.74572188  1
  O  O51  1  0.69601904  0.54261114  0.24122665  1
  O  O52  1  0.83500939  0.31893125  0.24421072  1
  O  O53  1  0.47555983  0.17785958  0.24490747  1
  O  O54  1  0.63853877  0.49055572  0.92754194  1
  O  O55  1  0.85026704  0.34982476  0.92721702  1
  O  O56  1  0.49359885  0.13428662  0.92384828  1
  O  O57  1  0.64220126  0.14361081  0.42616339  1
  O  O58  1  0.50524497  0.35809959  0.42711197  1
  O  O59  1  0.85284588  0.49454619  0.42757756  1
  O  O60  1  0.35225746  0.48325027  0.07886688  1
  O  O61  1  0.13255404  0.64904498  0.07587024  1
  O  O62  1  0.50834985  0.86690951  0.07628767  1
  O  O63  1  0.35125234  0.86932646  0.58067897  1
  O  O64  1  0.51647594  0.64957433  0.58034066  1
  O  O65  1  0.13460421  0.48561745  0.57927197  1
  O  O66  1  0.30760351  0.82380151  0.25490302  1
  O  O67  1  0.54093768  0.70314221  0.25205602  1
  O  O68  1  0.18551458  0.48017492  0.25512742  1
  O  O69  1  0.29793936  0.46126383  0.75508619  1
  O  O70  1  0.17609626  0.69736337  0.75889822  1
  O  O71  1  0.52062215  0.82016940  0.75840523  1
loop_
_geom_bond_atom_site_label_1
_geom_bond_atom_site_label_2
_geom_bond_distance
_geom_bond_site_symmetry_2
Na0 O38 2.549279 1_655
Na0 O37 2.590158 1_545
Na0 O36 2.597367 1_645
Na0 O44 2.726501 1_545
Na0 O42 2.740166 1_555
Na0 O43 2.742021 1_655
Na1 O46 2.570149 1_556
Na1 O39 2.603495 1_655
Na1 O45 2.609435 1_546
Na1 O47 2.627378 1_656
Na1 O41 2.634615 1_545
Na1 O40 2.745901 1_645
Na2 O50 2.341643 1_555
Na2 O48 2.350863 1_555
Na2 O49 2.558127 1_555
Na2 O55 2.813275 1_555
Na2 O54 2.860480 1_555
Na2 O56 2.864695 1_555
Na3 O53 2.383954 1_555
Na3 O52 2.401365 1_555
Na3 O51 2.622260 1_555
Na3 O57 2.778819 1_555
Na3 O58 2.840793 1_555
Na3 O59 2.851985 1_555
Na4 O68 2.487407 1_555
Na4 O66 2.493948 1_555
Na4 O67 2.575067 1_555
Na4 O60 2.693244 1_555
Na4 O62 2.703562 1_555
Na4 O61 2.713102 1_555
Na5 O63 2.480832 1_555
Na5 O65 2.520419 1_555
Na5 O64 2.527250 1_555
Na5 O71 2.723808 1_555
Na5 O70 2.728534 1_555
Na5 O69 2.768121 1_555
Nb0 O38 1.896031 1_555
Nb0 O2 1.941094 1_455
Nb0 O0 1.942181 1_555
Nb0 O37 1.961011 1_445
Nb0 O36 1.971515 1_545
Nb0 O1 2.247746 1_445
Nb1 O5 1.862392 1_565
Nb1 O41 1.906990 1_555
Nb1 O4 1.912257 1_555
Nb1 O39 1.978363 1_665
Nb1 O3 2.189702 1_665
Nb1 O40 2.218505 1_655
Nb2 O8 1.883897 1_655
Nb2 O6 1.901478 1_555
Nb2 O44 1.989421 1_555
Nb2 O43 2.104746 1_665
Nb2 O42 2.113965 1_565
Nb2 O7 2.184470 1_665
Nb3 O10 1.838756 1_555
Nb3 O11 1.843173 1_545
Nb3 O9 2.011571 1_445
Nb3 O47 2.132929 1_555
Nb3 O46 2.252063 1_455
Nb3 O45 2.271160 1_445
Nb4 O55 1.889126 1_555
Nb4 O54 1.903509 1_555
Nb4 O19 2.012390 1_556
Nb4 O20 2.096033 1_556
Nb4 O56 2.127779 1_555
Nb4 O18 2.168714 1_556
Nb5 O57 1.866204 1_555
Nb5 O58 1.878991 1_555
Nb5 O59 1.879903 1_555
Nb5 O21 2.188880 1_555
Nb5 O23 2.208351 1_555
Nb5 O22 2.264277 1_555
Nb6 O30 1.883873 1_555
Nb6 O31 1.948740 1_555
Nb6 O32 1.963346 1_555
Nb6 O66 2.024254 1_555
Nb6 O68 2.028154 1_555
Nb6 O67 2.324140 1_555
Nb7 O33 1.946752 1_555
Nb7 O35 1.959586 1_555
Nb7 O70 1.962335 1_555
Nb7 O71 1.982578 1_555
Nb7 O69 2.073861 1_555
Nb7 O34 2.197937 1_555
O0 Si0 1.621805 1_555
O1 S0 1.463222 1_555
O2 Si1 1.622258 1_655
O3 S1 1.481189 1_555
O4 Si2 1.645201 1_555
O5 Si3 1.667768 1_555
O6 Si3 1.671189 1_565
O7 S1 1.488674 1_555
O8 Si2 1.680018 1_455
O9 S0 1.558225 1_555
O10 Si1 1.728359 1_555
O11 Si0 1.728275 1_565
O12 S2 1.462220 1_555
O12 Zn0 2.033104 1_555
O13 S3 1.462598 1_555
O13 Zn0 2.140863 1_555
O14 S4 1.458534 1_555
O14 Zn0 2.128076 1_555
O15 S5 1.451861 1_555
O15 Zn1 2.217825 1_555
O16 S6 1.451942 1_555
O16 Zn1 2.097160 1_555
O17 S7 1.453103 1_555
O17 Zn1 2.175184 1_555
O18 S7 1.516165 1_555
O19 S5 1.565821 1_555
O20 S6 1.535687 1_555
O21 S3 1.501756 1_555
O22 S4 1.481999 1_555
O23 S2 1.498587 1_555
O24 Si4 1.564601 1_555
O24 Zn2 1.907046 1_556
O25 Si5 1.565631 1_555
O25 Zn2 1.904043 1_556
O26 S8 1.449022 1_555
O26 Zn2 2.169693 1_556
O27 Si6 1.572848 1_555
O27 Zn3 1.914006 1_555
O28 Si7 1.568140 1_555
O28 Zn3 1.913010 1_555
O29 Si8 1.567509 1_555
O29 Zn3 1.916174 1_555
O30 Si8 1.672174 1_555
O31 Si6 1.652225 1_555
O32 Si7 1.642620 1_555
O33 Si5 1.654947 1_555
O34 S8 1.494378 1_555
O35 Si4 1.647193 1_555
O36 Si8 1.619407 1_555
O37 Si6 1.626540 1_555
O38 Si7 1.650172 1_555
O39 Si5 1.638228 1_555
O40 S8 1.488404 1_555
O41 Si4 1.662556 1_555
O42 S2 1.549175 1_555
O43 S3 1.557017 1_555
O44 S4 1.597351 1_555
O45 S5 1.508432 1_555
O46 S6 1.518465 1_555
O47 S7 1.548997 1_555
O48 Si3 1.572253 1_555
O48 Zn0 1.979908 1_555
O49 S1 1.446087 1_555
O49 Zn0 2.264890 1_555
O50 Si2 1.574890 1_555
O50 Zn0 2.004799 1_555
O51 S0 1.449423 1_555
O51 Zn1 2.187920 1_555
O52 Si1 1.577498 1_655
O52 Zn1 1.941354 1_555
O53 Si0 1.577177 1_555
O53 Zn1 1.944421 1_555
O54 Si4 1.682921 1_555
O55 Si5 1.703118 1_655
O56 S8 1.519103 1_545
O57 Si6 1.695589 1_545
O58 Si7 1.678849 1_555
O59 Si8 1.676272 1_655
O60 S7 1.464363 1_555
O60 Zn2 2.189789 1_555
O61 S5 1.460545 1_455
O61 Zn2 2.296258 1_555
O62 S6 1.466522 1_565
O62 Zn2 2.250598 1_555
O63 S3 1.455313 1_565
O63 Zn3 2.410099 1_555
O64 S4 1.449348 1_555
O64 Zn3 2.404744 1_555
O65 S2 1.454564 1_455
O65 Zn3 2.369434 1_555
O66 Si0 1.630618 1_565
O67 S0 1.477342 1_555
O68 Si1 1.629808 1_555
O69 S1 1.523377 1_555
O70 Si2 1.650004 1_455
O71 Si3 1.642347 1_565
