# generated using pymatgen
data_MgV4ZnO10
_symmetry_space_group_name_H-M   'P 1'
_cell_length_a   3.52079886
_cell_length_b   5.33775031
_cell_length_c   11.77546524
_cell_angle_alpha   90.01494532
_cell_angle_beta   89.98193812
_cell_angle_gamma   105.35658012
_symmetry_Int_Tables_number   1
_chemical_formula_structural   MgV4ZnO10
_chemical_formula_sum   'Mg1 V4 Zn1 O10'
_cell_volume   213.39687115
_cell_formula_units_Z   1
loop_
 _symmetry_equiv_pos_site_id
 _symmetry_equiv_pos_as_xyz
  1  'x, y, z'
loop_
 _atom_site_type_symbol
 _atom_site_label
 _atom_site_symmetry_multiplicity
 _atom_site_fract_x
 _atom_site_fract_y
 _atom_site_fract_z
 _atom_site_occupancy
  Mg  Mg0  1  0.59633800  0.97248300  0.25012400  1
  V  V0  1  0.22540000  0.42747700  0.10202900  1
  V  V1  1  0.78849200  0.58307700  0.90004600  1
  V  V2  1  0.78859400  0.58301900  0.59995700  1
  V  V3  1  0.22603100  0.42739800  0.39793600  1
  Zn  Zn0  1  0.11586700  0.17911200  0.75001900  1
  O  O0  1  0.69726400  0.38577700  0.74998300  1
  O  O1  1  0.31332400  0.60311700  0.25002800  1
  O  O2  1  0.77746600  0.55759400  0.06869900  1
  O  O3  1  0.23031300  0.44080000  0.92954900  1
  O  O4  1  0.77789700  0.55747300  0.43128400  1
  O  O5  1  0.23049000  0.44077500  0.57040900  1
  O  O6  1  0.10402800  0.10656300  0.35740800  1
  O  O7  1  0.93279500  0.89962400  0.63243600  1
  O  O8  1  0.93280600  0.89965000  0.86755400  1
  O  O9  1  0.10212100  0.10671100  0.14249000  1
loop_
_geom_bond_atom_site_label_1
_geom_bond_atom_site_label_2
_geom_bond_distance
_geom_bond_site_symmetry_2
Mg0 O1 1.959463 1_555
Mg0 O9 2.148054 1_665
Mg0 O6 2.150961 1_665
Mg0 O6 2.401621 1_565
Mg0 O9 2.410322 1_565
O0 V2 2.038165 1_555
O0 V1 2.038381 1_555
O0 Zn0 2.052079 1_555
O0 Zn0 2.061585 1_655
O1 V3 1.963542 1_555
O1 V0 1.964116 1_555
O2 V0 1.923300 1_555
O2 V0 1.924653 1_655
O2 V1 1.990319 1_554
O3 V1 1.934787 1_455
O3 V1 1.941342 1_555
O3 V0 2.032203 1_556
O3 Zn0 2.506706 1_555
O4 V3 1.922854 1_555
O4 V3 1.924934 1_655
O4 V2 1.990528 1_555
O5 V2 1.934768 1_455
O5 V2 1.941327 1_555
O5 V3 2.032105 1_555
O5 Zn0 2.507840 1_555
O6 V3 1.719050 1_555
O7 V2 1.674915 1_555
O7 Zn0 2.012044 1_665
O8 V1 1.674934 1_555
O8 Zn0 2.011815 1_665
O9 V0 1.718604 1_555
