# generated using pymatgen
data_Na6MnCl8
_symmetry_space_group_name_H-M   'P 1'
_cell_length_a   7.86643589
_cell_length_b   7.86643530
_cell_length_c   7.86644331
_cell_angle_alpha   59.99997056
_cell_angle_beta   59.99997305
_cell_angle_gamma   59.99995119
_symmetry_Int_Tables_number   1
_chemical_formula_structural   Na6MnCl8
_chemical_formula_sum   'Na6 Mn1 Cl8'
_cell_volume   344.20649169
_cell_formula_units_Z   1
loop_
 _symmetry_equiv_pos_site_id
 _symmetry_equiv_pos_as_xyz
  1  'x, y, z'
loop_
 _atom_site_type_symbol
 _atom_site_label
 _atom_site_symmetry_multiplicity
 _atom_site_fract_x
 _atom_site_fract_y
 _atom_site_fract_z
 _atom_site_occupancy
  Na  Na0  1  0.50000000  -0.00000000  -0.00000000  1
  Na  Na1  1  -0.00000000  -0.00000000  0.50000000  1
  Na  Na2  1  0.50000000  0.50000000  -0.00000000  1
  Na  Na3  1  -0.00000000  0.50000000  0.50000000  1
  Na  Na4  1  -0.00000000  0.50000000  -0.00000000  1
  Na  Na5  1  0.50000000  -0.00000000  0.50000000  1
  Mn  Mn0  1  -0.00000000  -0.00000000  -0.00000000  1
  Cl  Cl0  1  0.25000000  0.25000000  0.25000000  1
  Cl  Cl1  1  0.75000000  0.75000000  0.75000000  1
  Cl  Cl2  1  0.77027816  0.22972184  0.22972184  1
  Cl  Cl3  1  0.77027816  0.77027816  0.22972184  1
  Cl  Cl4  1  0.22972184  0.22972184  0.77027816  1
  Cl  Cl5  1  0.77027816  0.22972184  0.77027816  1
  Cl  Cl6  1  0.22972184  0.77027816  0.22972184  1
  Cl  Cl7  1  0.22972184  0.77027816  0.77027816  1
loop_
_geom_bond_atom_site_label_1
_geom_bond_atom_site_label_2
_geom_bond_distance
_geom_bond_site_symmetry_2
Cl0 Na2 2.781205 1_555
Cl0 Na1 2.781205 1_555
Cl0 Na5 2.781205 1_555
Cl0 Na0 2.781205 1_555
Cl0 Na3 2.781205 1_555
Cl0 Na4 2.781205 1_555
Cl1 Na1 2.781205 1_665
Cl1 Na2 2.781205 1_556
Cl1 Na5 2.781205 1_565
Cl1 Na3 2.781205 1_655
Cl1 Na4 2.781205 1_656
Cl1 Na0 2.781205 1_566
Cl2 Mn0 2.555614 1_655
Cl2 Na4 2.790339 1_655
Cl2 Na5 2.790339 1_555
Cl2 Na2 2.790339 1_555
Cl2 Na1 2.790340 1_655
Cl3 Mn0 2.555614 1_665
Cl3 Na4 2.790339 1_655
Cl3 Na3 2.790339 1_655
Cl3 Na0 2.790339 1_565
Cl3 Na5 2.790339 1_565
Cl4 Mn0 2.555614 1_556
Cl4 Na4 2.790339 1_556
Cl4 Na3 2.790339 1_555
Cl4 Na0 2.790339 1_556
Cl4 Na5 2.790339 1_555
Cl5 Mn0 2.555614 1_656
Cl5 Na3 2.790339 1_655
Cl5 Na0 2.790339 1_556
Cl5 Na2 2.790339 1_556
Cl5 Na1 2.790340 1_655
Cl6 Mn0 2.555614 1_565
Cl6 Na3 2.790339 1_555
Cl6 Na0 2.790339 1_565
Cl6 Na2 2.790339 1_555
Cl6 Na1 2.790340 1_565
Cl7 Mn0 2.555614 1_566
Cl7 Na4 2.790339 1_556
Cl7 Na5 2.790339 1_565
Cl7 Na2 2.790339 1_556
Cl7 Na1 2.790340 1_565
