# generated using pymatgen
data_Na3Mg5Ta(SO4)9
_symmetry_space_group_name_H-M   'P 1'
_cell_length_a   8.66340109
_cell_length_b   8.66340081
_cell_length_c   22.59128903
_cell_angle_alpha   90.00000000
_cell_angle_beta   90.00000000
_cell_angle_gamma   120.00000102
_symmetry_Int_Tables_number   1
_chemical_formula_structural   Na3Mg5Ta(SO4)9
_chemical_formula_sum   'Na6 Mg10 Ta2 S18 O72'
_cell_volume   1468.41383649
_cell_formula_units_Z   2
loop_
 _symmetry_equiv_pos_site_id
 _symmetry_equiv_pos_as_xyz
  1  'x, y, z'
loop_
 _atom_site_type_symbol
 _atom_site_label
 _atom_site_symmetry_multiplicity
 _atom_site_fract_x
 _atom_site_fract_y
 _atom_site_fract_z
 _atom_site_occupancy
  Na  Na0  1  -0.00000000  0.00000000  0.50461004  1
  Na  Na1  1  -0.00000000  0.00000000  0.00461004  1
  Na  Na2  1  0.66666700  0.33333300  0.83324630  1
  Na  Na3  1  0.66666700  0.33333300  0.33324630  1
  Na  Na4  1  0.33333300  0.66666700  0.15807647  1
  Na  Na5  1  0.33333300  0.66666700  0.65807647  1
  Mg  Mg0  1  -0.00000000  0.00000000  0.35166983  1
  Mg  Mg1  1  -0.00000000  0.00000000  0.85166983  1
  Mg  Mg2  1  -0.00000000  0.00000000  0.64557592  1
  Mg  Mg3  1  -0.00000000  0.00000000  0.14557592  1
  Mg  Mg4  1  0.66666700  0.33333300  0.68042272  1
  Mg  Mg5  1  0.66666700  0.33333300  0.18042272  1
  Mg  Mg6  1  0.66666700  0.33333300  0.98550392  1
  Mg  Mg7  1  0.66666700  0.33333300  0.48550392  1
  Mg  Mg8  1  0.33333300  0.66666700  0.02160155  1
  Mg  Mg9  1  0.33333300  0.66666700  0.52160155  1
  Ta  Ta0  1  0.33333300  0.66666700  0.31356748  1
  Ta  Ta1  1  0.33333300  0.66666700  0.81356748  1
  S  S0  1  0.29219819  0.00597064  0.25038570  1
  S  S1  1  0.71377245  0.70780181  0.25038570  1
  S  S2  1  0.99402936  0.28622755  0.25038570  1
  S  S3  1  0.29219819  0.28622755  0.75038570  1
  S  S4  1  0.99402936  0.70780181  0.75038570  1
  S  S5  1  0.71377245  0.00597064  0.75038570  1
  S  S6  1  0.95901072  0.33271600  0.58325359  1
  S  S7  1  0.37370628  0.04098928  0.58325359  1
  S  S8  1  0.66728400  0.62629372  0.58325359  1
  S  S9  1  0.95901072  0.62629372  0.08325359  1
  S  S10  1  0.66728400  0.04098928  0.08325359  1
  S  S11  1  0.37370628  0.33271600  0.08325359  1
  S  S12  1  0.62700722  0.66775487  0.91850145  1
  S  S13  1  0.04074665  0.37299278  0.91850145  1
  S  S14  1  0.33224513  0.95925335  0.91850145  1
  S  S15  1  0.62700722  0.95925335  0.41850145  1
  S  S16  1  0.33224513  0.37299278  0.41850145  1
  S  S17  1  0.04074665  0.66775487  0.41850145  1
  O  O0  1  0.21106793  0.02639378  0.30454922  1
  O  O1  1  0.81532586  0.78893207  0.30454922  1
  O  O2  1  0.97360622  0.18467414  0.30454922  1
  O  O3  1  0.21106793  0.18467414  0.80454922  1
  O  O4  1  0.97360622  0.78893207  0.80454922  1
  O  O5  1  0.81532586  0.02639378  0.80454922  1
  O  O6  1  0.78345897  0.96607247  0.69788354  1
  O  O7  1  0.18261350  0.21654103  0.69788354  1
  O  O8  1  0.03392753  0.81738650  0.69788354  1
  O  O9  1  0.78345897  0.81738650  0.19788354  1
  O  O10  1  0.03392753  0.21654103  0.19788354  1
  O  O11  1  0.18261350  0.96607247  0.19788354  1
  O  O12  1  0.87870532  0.35983562  0.63702919  1
  O  O13  1  0.48113130  0.12129468  0.63702919  1
  O  O14  1  0.64016438  0.51886870  0.63702919  1
  O  O15  1  0.87870532  0.51886870  0.13702919  1
  O  O16  1  0.64016438  0.12129468  0.13702919  1
  O  O17  1  0.48113130  0.35983562  0.13702919  1
  O  O18  1  0.45450075  0.30625310  0.02952310  1
  O  O19  1  0.85175334  0.54549925  0.02952310  1
  O  O20  1  0.69374690  0.14824666  0.02952310  1
  O  O21  1  0.45450075  0.14824666  0.52952310  1
  O  O22  1  0.69374690  0.54549925  0.52952310  1
  O  O23  1  0.85175334  0.30625310  0.52952310  1
  O  O24  1  0.54053189  0.69310723  0.96924222  1
  O  O25  1  0.15257435  0.45946811  0.96924222  1
  O  O26  1  0.30689277  0.84742565  0.96924222  1
  O  O27  1  0.54053189  0.84742565  0.46924222  1
  O  O28  1  0.30689277  0.45946811  0.46924222  1
  O  O29  1  0.15257435  0.69310723  0.46924222  1
  O  O30  1  0.13492956  0.64413325  0.36248198  1
  O  O31  1  0.50920268  0.86507044  0.36248198  1
  O  O32  1  0.35586675  0.49079732  0.36248198  1
  O  O33  1  0.13492956  0.49079732  0.86248198  1
  O  O34  1  0.35586675  0.86507044  0.86248198  1
  O  O35  1  0.50920268  0.64413325  0.86248198  1
  O  O36  1  0.02562803  0.82666087  0.40843130  1
  O  O37  1  0.80103284  0.97437197  0.40843130  1
  O  O38  1  0.17333913  0.19896716  0.40843130  1
  O  O39  1  0.02562803  0.19896716  0.90843130  1
  O  O40  1  0.17333913  0.97437197  0.90843130  1
  O  O41  1  0.80103284  0.82666087  0.90843130  1
  O  O42  1  0.97813314  0.17221109  0.58934679  1
  O  O43  1  0.19407795  0.02186686  0.58934679  1
  O  O44  1  0.82778891  0.80592205  0.58934679  1
  O  O45  1  0.97813314  0.80592205  0.08934679  1
  O  O46  1  0.82778891  0.02186686  0.08934679  1
  O  O47  1  0.19407795  0.17221109  0.08934679  1
  O  O48  1  0.68250971  0.15623693  0.74454641  1
  O  O49  1  0.47372822  0.31749029  0.74454641  1
  O  O50  1  0.84376307  0.52627178  0.74454641  1
  O  O51  1  0.68250971  0.52627178  0.24454641  1
  O  O52  1  0.84376307  0.31749029  0.24454641  1
  O  O53  1  0.47372822  0.15623693  0.24454641  1
  O  O54  1  0.63719498  0.50370046  0.91974021  1
  O  O55  1  0.86650648  0.36280502  0.91974021  1
  O  O56  1  0.49629954  0.13349352  0.91974021  1
  O  O57  1  0.63719498  0.13349352  0.41974021  1
  O  O58  1  0.49629954  0.36280502  0.41974021  1
  O  O59  1  0.86650648  0.50370046  0.41974021  1
  O  O60  1  0.35466879  0.49369750  0.07736863  1
  O  O61  1  0.13902771  0.64533121  0.07736863  1
  O  O62  1  0.50630250  0.86097229  0.07736863  1
  O  O63  1  0.35466879  0.86097229  0.57736863  1
  O  O64  1  0.50630250  0.64533121  0.57736863  1
  O  O65  1  0.13902771  0.49369750  0.57736863  1
  O  O66  1  0.31181457  0.83649318  0.25962525  1
  O  O67  1  0.52467761  0.68818543  0.25962525  1
  O  O68  1  0.16350682  0.47532239  0.25962525  1
  O  O69  1  0.31181457  0.47532239  0.75962525  1
  O  O70  1  0.16350682  0.68818543  0.75962525  1
  O  O71  1  0.52467761  0.83649318  0.75962525  1
loop_
_geom_bond_atom_site_label_1
_geom_bond_atom_site_label_2
_geom_bond_distance
_geom_bond_site_symmetry_2
Na0 O44 2.491783 1_445
Na0 O42 2.491783 1_455
Na0 O43 2.491783 1_555
Na0 O38 2.712730 1_555
Na0 O36 2.712730 1_545
Na0 O37 2.712730 1_445
Na1 O45 2.491783 1_445
Na1 O47 2.491783 1_555
Na1 O46 2.491783 1_455
Na1 O39 2.712730 1_554
Na1 O41 2.712730 1_444
Na1 O40 2.712730 1_544
Na2 O56 2.537451 1_555
Na2 O54 2.537451 1_555
Na2 O55 2.537452 1_555
Na2 O50 2.568803 1_555
Na2 O48 2.568803 1_555
Na2 O49 2.568803 1_555
Na3 O57 2.537451 1_555
Na3 O59 2.537451 1_555
Na3 O58 2.537452 1_555
Na3 O51 2.568803 1_555
Na3 O53 2.568803 1_555
Na3 O52 2.568803 1_555
Na4 O62 2.425091 1_555
Na4 O60 2.425091 1_555
Na4 O61 2.425091 1_555
Na4 O68 2.781484 1_555
Na4 O66 2.781484 1_555
Na4 O67 2.781484 1_555
Na5 O63 2.425091 1_555
Na5 O65 2.425091 1_555
Na5 O64 2.425091 1_555
Na5 O69 2.781484 1_555
Na5 O71 2.781484 1_555
Na5 O70 2.781484 1_555
Mg0 O2 2.027563 1_455
Mg0 O1 2.027563 1_445
Mg0 O0 2.027563 1_555
Mg0 O38 2.069340 1_555
Mg0 O36 2.069340 1_545
Mg0 O37 2.069340 1_445
Mg1 O5 2.027563 1_455
Mg1 O3 2.027563 1_555
Mg1 O4 2.027563 1_445
Mg1 O39 2.069340 1_555
Mg1 O41 2.069340 1_445
Mg1 O40 2.069340 1_545
Mg2 O44 2.039123 1_445
Mg2 O42 2.039123 1_455
Mg2 O43 2.039123 1_555
Mg2 O7 2.109669 1_555
Mg2 O8 2.109669 1_545
Mg2 O6 2.109669 1_445
Mg3 O45 2.039123 1_445
Mg3 O47 2.039123 1_555
Mg3 O46 2.039123 1_455
Mg3 O10 2.109669 1_555
Mg3 O9 2.109669 1_445
Mg3 O11 2.109669 1_545
Mg4 O13 1.991590 1_555
Mg4 O14 1.991590 1_555
Mg4 O12 1.991590 1_555
Mg4 O50 2.163770 1_555
Mg4 O48 2.163770 1_555
Mg4 O49 2.163770 1_555
Mg5 O16 1.991590 1_555
Mg5 O15 1.991590 1_555
Mg5 O17 1.991590 1_555
Mg5 O51 2.163770 1_555
Mg5 O53 2.163770 1_555
Mg5 O52 2.163770 1_555
Mg6 O20 1.997822 1_556
Mg6 O19 1.997822 1_556
Mg6 O18 1.997822 1_556
Mg6 O56 2.197220 1_555
Mg6 O54 2.197220 1_555
Mg6 O55 2.197220 1_555
Mg7 O23 1.997822 1_555
Mg7 O21 1.997822 1_555
Mg7 O22 1.997822 1_555
Mg7 O57 2.197220 1_555
Mg7 O59 2.197220 1_555
Mg7 O58 2.197220 1_555
Mg8 O62 2.035654 1_555
Mg8 O60 2.035654 1_555
Mg8 O61 2.035654 1_555
Mg8 O26 2.064620 1_554
Mg8 O25 2.064620 1_554
Mg8 O24 2.064620 1_554
Mg9 O63 2.035654 1_555
Mg9 O65 2.035654 1_555
Mg9 O64 2.035654 1_555
Mg9 O29 2.064620 1_555
Mg9 O27 2.064620 1_555
Mg9 O28 2.064620 1_555
O0 S0 1.465244 1_555
O1 S1 1.465244 1_555
O2 S2 1.465244 1_555
O3 S3 1.465244 1_555
O4 S4 1.465244 1_555
O5 S5 1.465244 1_555
O6 S5 1.448948 1_565
O7 S3 1.448948 1_555
O8 S4 1.448948 1_455
O9 S1 1.448948 1_555
O10 S2 1.448948 1_455
O11 S0 1.448948 1_565
O12 S6 1.475997 1_555
O13 S7 1.475997 1_555
O14 S8 1.475997 1_555
O15 S9 1.475997 1_555
O16 S10 1.475997 1_555
O17 S11 1.475997 1_555
O18 S11 1.475255 1_555
O19 S9 1.475255 1_555
O20 S10 1.475255 1_555
O21 S7 1.475255 1_555
O22 S8 1.475255 1_555
O23 S6 1.475255 1_555
O24 S12 1.445007 1_555
O25 S13 1.445007 1_555
O26 S14 1.445007 1_555
O27 S15 1.445007 1_555
O28 S16 1.445007 1_555
O29 S17 1.445007 1_555
O30 S17 1.573609 1_555
O30 Ta0 1.969293 1_555
O31 S15 1.573609 1_555
O31 Ta0 1.969293 1_555
O32 S16 1.573609 1_555
O32 Ta0 1.969293 1_555
O33 S13 1.573609 1_555
O33 Ta1 1.969293 1_555
O34 S14 1.573609 1_555
O34 Ta1 1.969293 1_555
O35 S12 1.573609 1_555
O35 Ta1 1.969293 1_555
O36 S17 1.464389 1_555
O37 S15 1.464397 1_555
O38 S16 1.464394 1_555
O39 S13 1.464397 1_555
O40 S14 1.464389 1_555
O41 S12 1.464394 1_555
O42 S6 1.486706 1_555
O43 S7 1.486715 1_555
O44 S8 1.486711 1_555
O45 S9 1.486715 1_555
O46 S10 1.486706 1_555
O47 S11 1.486711 1_555
O48 S5 1.462215 1_555
O49 S3 1.462223 1_555
O50 S4 1.462220 1_555
O51 S1 1.462223 1_555
O52 S2 1.462215 1_555
O53 S0 1.462220 1_555
O54 S12 1.467658 1_555
O55 S13 1.467641 1_655
O56 S14 1.467649 1_545
O57 S15 1.467641 1_545
O58 S16 1.467658 1_555
O59 S17 1.467649 1_655
O60 S11 1.489945 1_555
O61 S9 1.489928 1_455
O62 S10 1.489935 1_565
O63 S7 1.489928 1_565
O64 S8 1.489945 1_555
O65 S6 1.489935 1_455
O66 S0 1.574082 1_565
O66 Ta0 1.989653 1_555
O67 S1 1.574090 1_555
O67 Ta0 1.989653 1_555
O68 S2 1.574087 1_455
O68 Ta0 1.989653 1_555
O69 S3 1.574090 1_555
O69 Ta1 1.989653 1_555
O70 S4 1.574082 1_455
O70 Ta1 1.989653 1_555
O71 S5 1.574087 1_565
O71 Ta1 1.989653 1_555
