# generated using pymatgen
data_LiCr2(PO4)3
_symmetry_space_group_name_H-M   'P 1'
_cell_length_a   8.45499439
_cell_length_b   8.45499439
_cell_length_c   8.45499513
_cell_angle_alpha   60.28076067
_cell_angle_beta   60.28076067
_cell_angle_gamma   60.28076537
_symmetry_Int_Tables_number   1
_chemical_formula_structural   LiCr2(PO4)3
_chemical_formula_sum   'Li2 Cr4 P6 O24'
_cell_volume   430.10637733
_cell_formula_units_Z   2
loop_
 _symmetry_equiv_pos_site_id
 _symmetry_equiv_pos_as_xyz
  1  'x, y, z'
loop_
 _atom_site_type_symbol
 _atom_site_label
 _atom_site_symmetry_multiplicity
 _atom_site_fract_x
 _atom_site_fract_y
 _atom_site_fract_z
 _atom_site_occupancy
  Li  Li0  1  0.00000000  0.00000000  0.00000000  1
  Li  Li1  1  0.50000000  0.50000000  0.50000000  1
  Cr  Cr0  1  0.63972200  0.63972200  0.63972200  1
  Cr  Cr1  1  0.13972200  0.13972200  0.13972200  1
  Cr  Cr2  1  0.36027800  0.36027800  0.36027800  1
  Cr  Cr3  1  0.86027800  0.86027800  0.86027800  1
  P  P0  1  0.46169800  0.75000000  0.03830200  1
  P  P1  1  0.96169800  0.53830200  0.25000000  1
  P  P2  1  0.03830200  0.46169800  0.75000000  1
  P  P3  1  0.75000000  0.03830200  0.46169800  1
  P  P4  1  0.25000000  0.96169800  0.53830200  1
  P  P5  1  0.53830200  0.25000000  0.96169800  1
  O  O0  1  0.23374700  0.44321100  0.58196600  1
  O  O1  1  0.69252700  0.87410300  0.49784900  1
  O  O2  1  0.44321100  0.58196600  0.23374700  1
  O  O3  1  0.94321100  0.73374700  0.08196600  1
  O  O4  1  0.19252700  0.99784900  0.37410300  1
  O  O5  1  0.58196600  0.23374700  0.44321100  1
  O  O6  1  0.37410300  0.19252700  0.99784900  1
  O  O7  1  0.87410300  0.49784900  0.69252700  1
  O  O8  1  0.12589700  0.50215100  0.30747300  1
  O  O9  1  0.62589700  0.80747300  0.00215100  1
  O  O10  1  0.41803400  0.76625300  0.55678900  1
  O  O11  1  0.91803400  0.05678900  0.26625300  1
  O  O12  1  0.30747300  0.12589700  0.50215100  1
  O  O13  1  0.80747300  0.00215100  0.62589700  1
  O  O14  1  0.55678900  0.41803400  0.76625300  1
  O  O15  1  0.05678900  0.26625300  0.91803400  1
  O  O16  1  0.50215100  0.30747300  0.12589700  1
  O  O17  1  0.26625300  0.91803400  0.05678900  1
  O  O18  1  0.00215100  0.62589700  0.80747300  1
  O  O19  1  0.73374700  0.08196600  0.94321100  1
  O  O20  1  0.76625300  0.55678900  0.41803400  1
  O  O21  1  0.08196600  0.94321100  0.73374700  1
  O  O22  1  0.49784900  0.69252700  0.87410300  1
  O  O23  1  0.99784900  0.37410300  0.19252700  1
loop_
_geom_bond_atom_site_label_1
_geom_bond_atom_site_label_2
_geom_bond_distance
_geom_bond_site_symmetry_2
Li0 O15 2.230138 1_554
Li0 O3 2.230138 1_445
Li0 O17 2.230138 1_545
Li0 O19 2.230138 1_454
Li0 O11 2.230139 1_455
Li0 O21 2.230139 1_544
Li1 O20 2.230138 1_555
Li1 O0 2.230138 1_555
Li1 O10 2.230138 1_555
Li1 O5 2.230138 1_555
Li1 O14 2.230139 1_555
Li1 O2 2.230139 1_555
Cr0 O1 1.885377 1_555
Cr0 O7 1.885377 1_555
Cr0 O22 1.885377 1_555
Cr0 O14 1.928890 1_555
Cr0 O10 1.928891 1_555
Cr0 O20 1.928891 1_555
Cr1 O6 1.885377 1_554
Cr1 O23 1.885377 1_455
Cr1 O4 1.885377 1_545
Cr1 O11 1.928890 1_455
Cr1 O17 1.928891 1_545
Cr1 O15 1.928891 1_554
Cr2 O12 1.885377 1_555
Cr2 O8 1.885377 1_555
Cr2 O16 1.885377 1_555
Cr2 O2 1.928890 1_555
Cr2 O5 1.928891 1_555
Cr2 O0 1.928891 1_555
Cr3 O9 1.885377 1_556
Cr3 O18 1.885377 1_655
Cr3 O13 1.885377 1_565
Cr3 O21 1.928890 1_655
Cr3 O19 1.928891 1_565
Cr3 O3 1.928891 1_556
O0 P2 1.552389 1_555
O1 P3 1.535521 1_565
O2 P0 1.552389 1_555
O3 P1 1.552389 1_555
O4 P4 1.535521 1_555
O5 P3 1.552389 1_555
O6 P5 1.535521 1_555
O7 P2 1.535521 1_655
O8 P1 1.535521 1_455
O9 P0 1.535521 1_555
O10 P4 1.552389 1_555
O11 P3 1.552389 1_555
O12 P4 1.535521 1_545
O13 P3 1.535521 1_555
O14 P5 1.552389 1_555
O15 P2 1.552389 1_555
O16 P5 1.535521 1_554
O17 P0 1.552389 1_555
O18 P2 1.535521 1_555
O19 P5 1.552389 1_555
O20 P1 1.552389 1_555
O21 P4 1.552389 1_555
O22 P0 1.535521 1_556
O23 P1 1.535521 1_555
