# generated using pymatgen
data_NaTi2O4
_symmetry_space_group_name_H-M   'P 1'
_cell_length_a   2.94553414
_cell_length_b   9.24441596
_cell_length_c   10.73850363
_cell_angle_alpha   90.00000000
_cell_angle_beta   90.00000000
_cell_angle_gamma   90.00000000
_symmetry_Int_Tables_number   1
_chemical_formula_structural   NaTi2O4
_chemical_formula_sum   'Na4 Ti8 O16'
_cell_volume   292.40669206
_cell_formula_units_Z   4
loop_
 _symmetry_equiv_pos_site_id
 _symmetry_equiv_pos_as_xyz
  1  'x, y, z'
loop_
 _atom_site_type_symbol
 _atom_site_label
 _atom_site_symmetry_multiplicity
 _atom_site_fract_x
 _atom_site_fract_y
 _atom_site_fract_z
 _atom_site_occupancy
  Na  Na0  1  0.25000000  0.74339494  0.15369929  1
  Na  Na1  1  0.75000000  0.25660506  0.84630071  1
  Na  Na2  1  0.25000000  0.24339494  0.34630071  1
  Na  Na3  1  0.75000000  0.75660506  0.65369929  1
  Ti  Ti0  1  0.75000000  0.93549536  0.88871250  1
  Ti  Ti1  1  0.25000000  0.06450464  0.11128750  1
  Ti  Ti2  1  0.75000000  0.43549536  0.61128750  1
  Ti  Ti3  1  0.25000000  0.56450464  0.38871250  1
  Ti  Ti4  1  0.25000000  0.58239891  0.89655593  1
  Ti  Ti5  1  0.75000000  0.41760109  0.10344407  1
  Ti  Ti6  1  0.25000000  0.08239891  0.60344407  1
  Ti  Ti7  1  0.75000000  0.91760109  0.39655593  1
  O  O0  1  0.75000000  0.91967401  0.07007967  1
  O  O1  1  0.25000000  0.08032599  0.92992033  1
  O  O2  1  0.75000000  0.41967401  0.42992033  1
  O  O3  1  0.25000000  0.58032599  0.57007967  1
  O  O4  1  0.75000000  0.52140286  0.78108460  1
  O  O5  1  0.25000000  0.47859714  0.21891540  1
  O  O6  1  0.75000000  0.02140286  0.71891540  1
  O  O7  1  0.25000000  0.97859714  0.28108460  1
  O  O8  1  0.75000000  0.61330196  0.02254269  1
  O  O9  1  0.25000000  0.38669804  0.97745731  1
  O  O10  1  0.75000000  0.11330196  0.47745731  1
  O  O11  1  0.25000000  0.88669804  0.52254269  1
  O  O12  1  0.25000000  0.79059702  0.84781070  1
  O  O13  1  0.75000000  0.20940298  0.15218930  1
  O  O14  1  0.25000000  0.29059702  0.65218930  1
  O  O15  1  0.75000000  0.70940298  0.34781070  1
loop_
_geom_bond_atom_site_label_1
_geom_bond_atom_site_label_2
_geom_bond_distance
_geom_bond_site_symmetry_2
Na0 O8 2.366228 1_555
Na0 O8 2.366228 1_455
Na0 O0 2.372961 1_455
Na0 O0 2.372961 1_555
Na0 O5 2.546109 1_555
Na0 O7 2.568820 1_555
Na0 O15 2.571534 1_455
Na0 O15 2.571534 1_555
Na1 O9 2.366228 1_555
Na1 O9 2.366228 1_655
Na1 O1 2.372961 1_555
Na1 O1 2.372961 1_655
Na1 O4 2.546109 1_555
Na1 O6 2.568820 1_555
Na1 O14 2.571534 1_555
Na1 O14 2.571534 1_655
Na2 O10 2.366228 1_555
Na2 O10 2.366228 1_455
Na2 O2 2.372961 1_455
Na2 O2 2.372961 1_555
Na2 O7 2.546109 1_545
Na2 O5 2.568820 1_555
Na2 O13 2.571534 1_555
Na2 O13 2.571534 1_455
Na3 O11 2.366228 1_655
Na3 O11 2.366228 1_555
Na3 O3 2.372961 1_555
Na3 O3 2.372961 1_655
Na3 O6 2.546109 1_565
Na3 O4 2.568820 1_555
Na3 O12 2.571534 1_555
Na3 O12 2.571534 1_655
O0 Ti0 1.953096 1_554
O0 Ti1 2.038981 1_665
O0 Ti1 2.038981 1_565
O1 Ti1 1.953096 1_556
O1 Ti0 2.038981 1_445
O1 Ti0 2.038981 1_545
O2 Ti2 1.953096 1_555
O2 Ti3 2.038981 1_555
O2 Ti3 2.038981 1_655
O3 Ti3 1.953096 1_555
O3 Ti2 2.038981 1_555
O3 Ti2 2.038981 1_455
O4 Ti2 1.988810 1_555
O4 Ti4 2.006133 1_555
O4 Ti4 2.006133 1_655
O5 Ti3 1.988810 1_555
O5 Ti5 2.006133 1_455
O5 Ti5 2.006133 1_555
O6 Ti0 1.988810 1_545
O6 Ti6 2.006133 1_555
O6 Ti6 2.006133 1_655
O7 Ti1 1.988810 1_565
O7 Ti7 2.006133 1_455
O7 Ti7 2.006133 1_555
O8 Ti5 2.006921 1_555
O8 Ti4 2.020153 1_554
O8 Ti4 2.020153 1_654
O9 Ti4 2.006921 1_555
O9 Ti5 2.020153 1_556
O9 Ti5 2.020153 1_456
O10 Ti7 2.006921 1_545
O10 Ti6 2.020153 1_555
O10 Ti6 2.020153 1_655
O11 Ti6 2.006921 1_565
O11 Ti7 2.020153 1_455
O11 Ti7 2.020153 1_555
O12 Ti4 1.994581 1_555
O12 Ti0 2.038682 1_455
O12 Ti0 2.038682 1_555
O13 Ti5 1.994581 1_555
O13 Ti1 2.038682 1_655
O13 Ti1 2.038682 1_555
O14 Ti6 1.994581 1_555
O14 Ti2 2.038682 1_555
O14 Ti2 2.038682 1_455
O15 Ti7 1.994581 1_555
O15 Ti3 2.038682 1_655
O15 Ti3 2.038682 1_555
