# generated using pymatgen
data_TlGeCl3
_symmetry_space_group_name_H-M   'P 1'
_cell_length_a   6.91846108
_cell_length_b   5.72364120
_cell_length_c   7.65267515
_cell_angle_alpha   75.63541312
_cell_angle_beta   90.00000000
_cell_angle_gamma   90.00000000
_symmetry_Int_Tables_number   1
_chemical_formula_structural   TlGeCl3
_chemical_formula_sum   'Tl2 Ge2 Cl6'
_cell_volume   293.56273710
_cell_formula_units_Z   2
loop_
 _symmetry_equiv_pos_site_id
 _symmetry_equiv_pos_as_xyz
  1  'x, y, z'
loop_
 _atom_site_type_symbol
 _atom_site_label
 _atom_site_symmetry_multiplicity
 _atom_site_fract_x
 _atom_site_fract_y
 _atom_site_fract_z
 _atom_site_occupancy
  Tl  Tl0  1  0.25000000  0.67579922  0.71297926  1
  Tl  Tl1  1  0.75000000  0.32420078  0.28702074  1
  Ge  Ge0  1  0.25000000  0.91343586  0.11997778  1
  Ge  Ge1  1  0.75000000  0.08656414  0.88002222  1
  Cl  Cl0  1  0.00283429  0.80443221  0.32869053  1
  Cl  Cl1  1  0.50283429  0.19556779  0.67130947  1
  Cl  Cl2  1  0.75000000  0.68282658  0.87038739  1
  Cl  Cl3  1  0.25000000  0.31717342  0.12961261  1
  Cl  Cl4  1  0.99716571  0.19556779  0.67130947  1
  Cl  Cl5  1  0.49716571  0.80443221  0.32869053  1
loop_
_geom_bond_atom_site_label_1
_geom_bond_atom_site_label_2
_geom_bond_distance
_geom_bond_site_symmetry_2
Cl0 Ge0 2.317328 1_555
Cl1 Ge1 2.317328 1_555
Cl2 Ge1 2.330236 1_565
Cl3 Ge0 2.330236 1_545
Cl4 Ge1 2.317328 1_555
Cl5 Ge0 2.317328 1_555
