# generated using pymatgen
data_Ca2Sn
_symmetry_space_group_name_H-M   'P 1'
_cell_length_a   5.06679450
_cell_length_b   7.94400692
_cell_length_c   9.56025906
_cell_angle_alpha   90.00000000
_cell_angle_beta   90.00000000
_cell_angle_gamma   90.00000000
_symmetry_Int_Tables_number   1
_chemical_formula_structural   Ca2Sn
_chemical_formula_sum   'Ca8 Sn4'
_cell_volume   384.80664678
_cell_formula_units_Z   4
loop_
 _symmetry_equiv_pos_site_id
 _symmetry_equiv_pos_as_xyz
  1  'x, y, z'
loop_
 _atom_site_type_symbol
 _atom_site_label
 _atom_site_symmetry_multiplicity
 _atom_site_fract_x
 _atom_site_fract_y
 _atom_site_fract_z
 _atom_site_occupancy
  Ca  Ca0  1  0.75000000  0.34346834  0.92963946  1
  Ca  Ca1  1  0.25000000  0.65653166  0.07036054  1
  Ca  Ca2  1  0.75000000  0.84346834  0.57036054  1
  Ca  Ca3  1  0.25000000  0.15653166  0.42963946  1
  Ca  Ca4  1  0.75000000  0.47732207  0.31714656  1
  Ca  Ca5  1  0.25000000  0.52267793  0.68285344  1
  Ca  Ca6  1  0.75000000  0.97732207  0.18285344  1
  Ca  Ca7  1  0.25000000  0.02267793  0.81714656  1
  Sn  Sn0  1  0.75000000  0.74953360  0.89070700  1
  Sn  Sn1  1  0.25000000  0.25046640  0.10929300  1
  Sn  Sn2  1  0.75000000  0.24953360  0.60929300  1
  Sn  Sn3  1  0.25000000  0.75046640  0.39070700  1
loop_
_geom_bond_atom_site_label_1
_geom_bond_atom_site_label_2
_geom_bond_distance
_geom_bond_site_symmetry_2
Ca0 Sn1 3.148629 1_656
Ca0 Sn1 3.148629 1_556
Ca0 Sn2 3.152195 1_555
Ca0 Sn0 3.247187 1_555
Ca1 Sn0 3.148629 1_454
Ca1 Sn0 3.148629 1_554
Ca1 Sn3 3.152195 1_555
Ca1 Sn1 3.247187 1_555
Ca2 Sn3 3.148629 1_555
Ca2 Sn3 3.148629 1_655
Ca2 Sn0 3.152195 1_555
Ca2 Sn2 3.247187 1_565
Ca3 Sn2 3.148629 1_455
Ca3 Sn2 3.148629 1_555
Ca3 Sn1 3.152195 1_555
Ca3 Sn3 3.247187 1_545
Ca4 Sn2 3.327958 1_555
Ca4 Sn3 3.408954 1_655
Ca4 Sn3 3.408954 1_555
Ca4 Sn1 3.689786 1_655
Ca4 Sn1 3.689786 1_555
Ca5 Sn3 3.327958 1_555
Ca5 Sn2 3.408954 1_555
Ca5 Sn2 3.408954 1_455
Ca5 Sn0 3.689786 1_455
Ca5 Sn0 3.689786 1_555
Ca6 Sn0 3.327958 1_554
Ca6 Sn1 3.408954 1_665
Ca6 Sn1 3.408954 1_565
Ca6 Sn3 3.689786 1_555
Ca6 Sn3 3.689786 1_655
Ca7 Sn1 3.327958 1_556
Ca7 Sn0 3.408954 1_545
Ca7 Sn0 3.408954 1_445
Ca7 Sn2 3.689786 1_455
Ca7 Sn2 3.689786 1_555
