# generated using pymatgen
data_Tm2MgV2O8
_symmetry_space_group_name_H-M   'P 1'
_cell_length_a   6.01689922
_cell_length_b   6.01689898
_cell_length_c   6.16204598
_cell_angle_alpha   106.12743468
_cell_angle_beta   106.12742743
_cell_angle_gamma   115.30210931
_symmetry_Int_Tables_number   1
_chemical_formula_structural   Tm2MgV2O8
_chemical_formula_sum   'Tm2 Mg1 V2 O8'
_cell_volume   172.37780817
_cell_formula_units_Z   1
loop_
 _symmetry_equiv_pos_site_id
 _symmetry_equiv_pos_as_xyz
  1  'x, y, z'
loop_
 _atom_site_type_symbol
 _atom_site_label
 _atom_site_symmetry_multiplicity
 _atom_site_fract_x
 _atom_site_fract_y
 _atom_site_fract_z
 _atom_site_occupancy
  Tm  Tm0  1  0.12994900  0.87005100  0.25000000  1
  Tm  Tm1  1  0.84629700  0.15370300  0.75000000  1
  Mg  Mg0  1  0.14004500  0.85995500  0.75000000  1
  V  V0  1  0.40704600  0.59295400  0.75000000  1
  V  V1  1  0.62115600  0.37884400  0.25000000  1
  O  O0  1  0.81255100  0.74875100  0.46050000  1
  O  O1  1  0.36628300  0.81053900  0.58585000  1
  O  O2  1  0.77067900  0.81312600  0.93374300  1
  O  O3  1  0.80787500  0.39404600  0.06423600  1
  O  O4  1  0.60595400  0.19212500  0.43576400  1
  O  O5  1  0.18687400  0.22932100  0.56625700  1
  O  O6  1  0.18946100  0.63371700  0.91415000  1
  O  O7  1  0.25124900  0.18744900  0.03950000  1
loop_
_geom_bond_atom_site_label_1
_geom_bond_atom_site_label_2
_geom_bond_distance
_geom_bond_site_symmetry_2
Mg0 O7 1.941629 1_566
Mg0 O0 1.941629 1_455
Mg0 O1 1.976959 1_555
Mg0 O6 1.976959 1_555
Mg0 O2 2.709331 1_455
Mg0 O5 2.709331 1_565
O0 V1 1.826959 1_555
O0 Tm1 2.474167 1_565
O0 Tm0 2.563791 1_655
O1 V0 1.915616 1_555
O1 Tm0 2.375974 1_555
O1 Tm1 2.397369 1_565
O2 V0 1.771135 1_555
O2 Tm0 2.289967 1_656
O2 Tm1 2.542923 1_565
O3 V1 1.807106 1_555
O3 Tm1 2.207471 1_554
O3 Tm0 2.338946 1_655
O4 V1 1.807106 1_555
O4 Tm1 2.207471 1_555
O4 Tm0 2.338946 1_545
O5 V0 1.771135 1_555
O5 Tm0 2.289967 1_545
O5 Tm1 2.542923 1_455
O6 V0 1.915616 1_555
O6 Tm0 2.375974 1_556
O6 Tm1 2.397369 1_455
O7 V1 1.826959 1_555
O7 Tm1 2.474167 1_454
O7 Tm0 2.563791 1_545
