# generated using pymatgen
data_BaLaMg(CoO3)2
_symmetry_space_group_name_H-M   'P 1'
_cell_length_a   3.81318513
_cell_length_b   5.46525660
_cell_length_c   7.76675506
_cell_angle_alpha   90.00000000
_cell_angle_beta   90.00000000
_cell_angle_gamma   90.00000000
_symmetry_Int_Tables_number   1
_chemical_formula_structural   BaLaMg(CoO3)2
_chemical_formula_sum   'Ba1 La1 Mg1 Co2 O6'
_cell_volume   161.85944883
_cell_formula_units_Z   1
loop_
 _symmetry_equiv_pos_site_id
 _symmetry_equiv_pos_as_xyz
  1  'x, y, z'
loop_
 _atom_site_type_symbol
 _atom_site_label
 _atom_site_symmetry_multiplicity
 _atom_site_fract_x
 _atom_site_fract_y
 _atom_site_fract_z
 _atom_site_occupancy
  Ba  Ba0  1  -0.00000000  -0.00000000  0.50000000  1
  La  La0  1  -0.00000000  -0.00000000  0.00000000  1
  Mg  Mg0  1  -0.00000000  0.50000000  0.50000000  1
  Co  Co0  1  0.49999900  0.49999900  0.76955219  1
  Co  Co1  1  0.49999900  0.49999900  0.23044681  1
  O  O0  1  0.49999900  0.49999900  0.50000000  1
  O  O1  1  0.49999900  -0.00000000  0.78528855  1
  O  O2  1  0.00000000  0.49999900  0.74302249  1
  O  O3  1  0.49999900  -0.00000000  0.21471245  1
  O  O4  1  0.49999900  0.49999900  0.00000000  1
  O  O5  1  0.00000000  0.49999900  0.25697851  1
loop_
_geom_bond_atom_site_label_1
_geom_bond_atom_site_label_2
_geom_bond_distance
_geom_bond_site_symmetry_2
Ba0 Mg0 2.732628 1_555
Ba0 Mg0 2.732628 1_545
Ba0 O3 2.923126 1_555
Ba0 O3 2.923131 1_455
Ba0 O1 2.923132 1_555
Ba0 O1 2.923137 1_455
La0 O1 2.532984 1_554
La0 O3 2.532989 1_555
La0 O1 2.532990 1_454
La0 O3 2.532995 1_455
Mg0 O5 1.887488 1_555
Mg0 O2 1.887496 1_555
Mg0 O0 1.906589 1_555
Mg0 O0 1.906596 1_455
Co0 O4 1.789832 1_556
Co0 O2 1.917691 1_555
Co0 O2 1.917698 1_655
Co0 O0 2.093546 1_555
Co0 O1 2.735355 1_555
Co0 O1 2.735366 1_565
Co1 O4 1.789824 1_555
Co1 O5 1.917692 1_555
Co1 O5 1.917700 1_655
Co1 O0 2.093554 1_555
Co1 O3 2.735354 1_555
Co1 O3 2.735365 1_565
