# generated using pymatgen
data_Na5Y2Zr2SiP5O24
_symmetry_space_group_name_H-M   'P 1'
_cell_length_a   9.20107653
_cell_length_b   9.19178857
_cell_length_c   23.35353946
_cell_angle_alpha   89.90071972
_cell_angle_beta   90.06703051
_cell_angle_gamma   120.18137887
_symmetry_Int_Tables_number   1
_chemical_formula_structural   Na5Y2Zr2SiP5O24
_chemical_formula_sum   'Na15 Y6 Zr6 Si3 P15 O72'
_cell_volume   1707.35830734
_cell_formula_units_Z   3
loop_
 _symmetry_equiv_pos_site_id
 _symmetry_equiv_pos_as_xyz
  1  'x, y, z'
loop_
 _atom_site_type_symbol
 _atom_site_label
 _atom_site_symmetry_multiplicity
 _atom_site_fract_x
 _atom_site_fract_y
 _atom_site_fract_z
 _atom_site_occupancy
  Na  Na0  1  0.00346598  0.64093405  0.25056912  1
  Na  Na1  1  0.63237221  0.64042056  0.75016000  1
  Na  Na2  1  0.36952749  0.99763482  0.75147943  1
  Na  Na3  1  0.66523530  0.97122712  0.58561200  1
  Na  Na4  1  0.29778583  0.96973904  0.08301995  1
  Na  Na5  1  0.67790401  0.69672672  0.08141608  1
  Na  Na6  1  0.02639811  0.33315804  0.08400807  1
  Na  Na7  1  0.96650609  0.30138422  0.41709914  1
  Na  Na8  1  0.33825350  0.03505144  0.41984149  1
  Na  Na9  1  0.00619650  0.98980582  0.50164127  1
  Na  Na10  1  0.00048222  0.99161045  0.99465901  1
  Na  Na11  1  0.67939205  0.33148617  0.83802584  1
  Na  Na12  1  0.65415898  0.33371558  0.33299500  1
  Na  Na13  1  0.34091231  0.66652874  0.17098059  1
  Na  Na14  1  0.31905279  0.65512861  0.66685999  1
  Y  Y0  1  0.99312144  0.99511306  0.34987837  1
  Y  Y1  1  0.00052569  0.00201584  0.15283750  1
  Y  Y2  1  0.66847614  0.33791365  0.97856978  1
  Y  Y3  1  0.66309116  0.34201560  0.48610657  1
  Y  Y4  1  0.34448960  0.66772739  0.31503930  1
  Y  Y5  1  0.32787529  0.66231728  0.81474932  1
  Zr  Zr0  1  0.99452922  0.00283432  0.85360978  1
  Zr  Zr1  1  0.00526523  0.00267802  0.64768021  1
  Zr  Zr2  1  0.66974323  0.32745237  0.68396936  1
  Zr  Zr3  1  0.66706174  0.33078593  0.18408078  1
  Zr  Zr4  1  0.32911886  0.66652798  0.01355887  1
  Zr  Zr5  1  0.33198197  0.66529570  0.52132459  1
  Si  Si0  1  0.71099206  0.00486947  0.74814147  1
  Si  Si1  1  0.36594180  0.03353894  0.58243121  1
  Si  Si2  1  0.96615726  0.63021837  0.08375626  1
  P  P0  1  0.30426256  0.00345680  0.25007348  1
  P  P1  1  0.69910165  0.69307775  0.24626511  1
  P  P2  1  0.99509107  0.30305794  0.24931937  1
  P  P3  1  0.29245045  0.28725641  0.74935335  1
  P  P4  1  0.99447515  0.71083469  0.74983546  1
  P  P5  1  0.96340597  0.33310113  0.58274070  1
  P  P6  1  0.66677342  0.63269052  0.58660364  1
  P  P7  1  0.66249937  0.03639657  0.08257958  1
  P  P8  1  0.37477755  0.33800057  0.08292261  1
  P  P9  1  0.63196462  0.67235377  0.91518471  1
  P  P10  1  0.03814547  0.36486612  0.91676369  1
  P  P11  1  0.32636990  0.96155457  0.91451755  1
  P  P12  1  0.62924190  0.96311649  0.42006318  1
  P  P13  1  0.33143370  0.37077109  0.41795282  1
  P  P14  1  0.04351937  0.66710150  0.41626160  1
  O  O0  1  0.22271770  0.02705075  0.30439783  1
  O  O1  1  0.81557897  0.77811558  0.29816892  1
  O  O2  1  0.97430569  0.19853254  0.30361004  1
  O  O3  1  0.20956663  0.17542385  0.80267180  1
  O  O4  1  0.96938662  0.79557215  0.80325052  1
  O  O5  1  0.82922683  0.02511608  0.80412352  1
  O  O6  1  0.79966133  0.97937748  0.69134776  1
  O  O7  1  0.18455231  0.19956003  0.69633367  1
  O  O8  1  0.02029586  0.82310822  0.69708074  1
  O  O9  1  0.77736788  0.79175667  0.19093775  1
  O  O10  1  0.01600112  0.22355772  0.19470981  1
  O  O11  1  0.19640062  0.97815003  0.19631658  1
  O  O12  1  0.87214525  0.35989934  0.63449387  1
  O  O13  1  0.49497161  0.13079338  0.63793139  1
  O  O14  1  0.64326797  0.52423085  0.64074089  1
  O  O15  1  0.87860664  0.50932223  0.14162022  1
  O  O16  1  0.63079452  0.12004097  0.13581886  1
  O  O17  1  0.48923090  0.36457631  0.13607209  1
  O  O18  1  0.44758286  0.29794296  0.03085441  1
  O  O19  1  0.84006555  0.54338654  0.03121199  1
  O  O20  1  0.69354729  0.14687444  0.03034670  1
  O  O21  1  0.44293224  0.13631294  0.52392568  1
  O  O22  1  0.69866548  0.55913591  0.53347075  1
  O  O23  1  0.85970264  0.29940132  0.52807581  1
  O  O24  1  0.54022225  0.69028899  0.96984913  1
  O  O25  1  0.14668248  0.45460956  0.97238627  1
  O  O26  1  0.30828114  0.84834846  0.96909052  1
  O  O27  1  0.53932793  0.85518051  0.47462034  1
  O  O28  1  0.31539820  0.46593074  0.47095533  1
  O  O29  1  0.16020349  0.68485895  0.46843839  1
  O  O30  1  0.11948839  0.64472701  0.36083570  1
  O  O31  1  0.52037707  0.88028315  0.36740105  1
  O  O32  1  0.34884401  0.47005181  0.36389300  1
  O  O33  1  0.12443880  0.47215256  0.86453897  1
  O  O34  1  0.34635945  0.87944720  0.86032892  1
  O  O35  1  0.53135429  0.65512243  0.86082635  1
  O  O36  1  0.03715262  0.83199956  0.41555541  1
  O  O37  1  0.80679736  0.98509715  0.41666748  1
  O  O38  1  0.16604709  0.19587523  0.41663210  1
  O  O39  1  0.03110129  0.19215315  0.91343745  1
  O  O40  1  0.16259577  0.97029533  0.91228080  1
  O  O41  1  0.80781521  0.83612306  0.91282779  1
  O  O42  1  0.97575216  0.17304246  0.59223272  1
  O  O43  1  0.17935134  0.00804144  0.59191130  1
  O  O44  1  0.81744668  0.81507679  0.59254760  1
  O  O45  1  0.99785262  0.82149141  0.08871610  1
  O  O46  1  0.81654114  0.01481516  0.08995401  1
  O  O47  1  0.19459008  0.19011648  0.09062177  1
  O  O48  1  0.68682995  0.17195437  0.74361924  1
  O  O49  1  0.46979423  0.30218980  0.74276827  1
  O  O50  1  0.83041865  0.53773619  0.74289123  1
  O  O51  1  0.69002959  0.51804240  0.24224483  1
  O  O52  1  0.83252547  0.31824964  0.24469496  1
  O  O53  1  0.48080021  0.16196475  0.24288945  1
  O  O54  1  0.65081026  0.51734343  0.91947432  1
  O  O55  1  0.86293198  0.34170687  0.92131757  1
  O  O56  1  0.48146473  0.13489631  0.92065504  1
  O  O57  1  0.64797543  0.14054094  0.42335890  1
  O  O58  1  0.48237320  0.34183449  0.42089651  1
  O  O59  1  0.87097369  0.50650825  0.42257767  1
  O  O60  1  0.36779515  0.50429809  0.07658909  1
  O  O61  1  0.15276122  0.64156501  0.07646263  1
  O  O62  1  0.50094158  0.85851968  0.07670852  1
  O  O63  1  0.36131879  0.84957834  0.57888046  1
  O  O64  1  0.50689850  0.65061362  0.57987539  1
  O  O65  1  0.14069046  0.49063227  0.57808987  1
  O  O66  1  0.31400037  0.84109955  0.25342999  1
  O  O67  1  0.52426404  0.67116659  0.25140925  1
  O  O68  1  0.14536038  0.48469455  0.25255919  1
  O  O69  1  0.32102155  0.46644512  0.75243220  1
  O  O70  1  0.15318955  0.69631010  0.75307335  1
  O  O71  1  0.52274347  0.83701761  0.75117073  1
loop_
_geom_bond_atom_site_label_1
_geom_bond_atom_site_label_2
_geom_bond_distance
_geom_bond_site_symmetry_2
Na0 O68 2.377817 1_555
Na0 O66 2.503535 1_555
Na0 O51 2.520885 1_455
Na0 O52 2.569107 1_455
Na0 O30 2.780020 1_555
Na0 O15 2.804177 1_455
Na0 O1 2.831161 1_455
Na0 O11 2.970404 1_555
Na1 O50 2.443535 1_555
Na1 O71 2.473169 1_555
Na1 O69 2.482083 1_555
Na1 O49 2.694099 1_555
Na1 O35 2.773931 1_555
Na1 O14 2.792498 1_555
Na2 O70 2.468064 1_555
Na2 O49 2.476059 1_565
Na2 O71 2.501970 1_555
Na2 O48 2.534036 1_565
Na2 O34 2.728796 1_555
Na2 O13 2.904744 1_565
Na2 O3 2.948798 1_565
Na3 O63 2.439321 1_555
Na3 O44 2.463245 1_555
Na3 O42 2.509772 1_565
Na3 O64 2.551328 1_555
Na3 O6 2.744674 1_555
Na3 O27 2.821109 1_555
Na3 O13 2.901619 1_565
Na3 O23 2.944648 1_565
Na4 O45 2.389480 1_455
Na4 O62 2.546275 1_555
Na4 O61 2.618633 1_555
Na4 O47 2.640448 1_565
Na4 O11 2.820613 1_555
Na4 O18 2.880139 1_565
Na4 O26 2.907343 1_554
Na4 O16 2.925433 1_565
Na5 O60 2.491620 1_555
Na5 O46 2.543013 1_565
Na5 O45 2.572074 1_555
Na5 O62 2.703458 1_555
Na5 O9 2.709419 1_555
Na5 O19 2.777018 1_555
Na5 O24 2.883456 1_554
Na5 O17 2.937110 1_555
Na6 O61 2.470577 1_555
Na6 O47 2.488391 1_555
Na6 O46 2.574519 1_455
Na6 O60 2.720980 1_555
Na6 O10 2.757238 1_555
Na6 O25 2.832090 1_554
Na6 O15 2.916718 1_455
Na6 O20 2.933859 1_455
Na7 O59 2.451827 1_555
Na7 O38 2.470211 1_655
Na7 O37 2.513179 1_545
Na7 O57 2.537786 1_555
Na7 O23 2.769608 1_555
Na7 O2 2.828557 1_555
Na8 O58 2.439495 1_555
Na8 O36 2.443314 1_545
Na8 O57 2.507889 1_555
Na8 O21 2.608343 1_555
Na8 O38 2.656295 1_555
Na8 O0 2.884334 1_555
Na8 O31 2.956260 1_545
Na8 O29 3.003767 1_545
Na9 O36 2.579486 1_555
Na9 O43 2.595276 1_565
Na9 O38 2.623918 1_565
Na9 O37 2.686612 1_455
Na9 O44 2.700912 1_455
Na9 O42 2.807001 1_465
Na10 O40 2.503253 1_555
Na10 O41 2.508267 1_455
Na10 O39 2.557763 1_565
Na10 O45 2.687158 1_456
Na10 O46 2.869855 1_466
Na10 O47 2.875695 1_566
Na11 O55 2.545155 1_555
Na11 O56 2.644395 1_555
Na11 O54 2.658918 1_555
Na11 O48 2.669878 1_555
Na11 O50 2.793733 1_555
Na11 O49 2.865387 1_555
Na12 O58 2.616232 1_555
Na12 O51 2.626420 1_555
Na12 O53 2.633686 1_555
Na12 O52 2.685048 1_555
Na12 O57 2.737740 1_555
Na12 O59 2.773990 1_555
Na13 O67 2.509270 1_555
Na13 O68 2.575609 1_555
Na13 O66 2.599027 1_555
Na13 O62 2.740581 1_555
Na13 O61 2.741419 1_555
Na13 O60 2.743654 1_555
Na14 O65 2.604825 1_555
Na14 O63 2.618701 1_555
Na14 O69 2.649794 1_555
Na14 O71 2.652680 1_555
Na14 O70 2.667721 1_555
Na14 O64 2.682580 1_555
O0 P0 1.544761 1_555
O0 Y0 2.248934 1_445
O1 P1 1.544920 1_555
O1 Y0 2.198372 1_555
O2 P2 1.542328 1_555
O2 Y0 2.238675 1_545
O3 P3 1.548637 1_555
O3 Zr0 2.165525 1_455
O4 P4 1.549472 1_555
O4 Zr0 2.151763 1_565
O5 Si0 1.649642 1_555
O5 Zr0 1.999785 1_555
O6 Si0 1.635698 1_565
O6 Zr1 2.064228 1_665
O7 P3 1.537677 1_555
O7 Zr1 2.070837 1_555
O8 P4 1.545658 1_455
O8 Zr1 2.072925 1_565
O9 P1 1.533673 1_555
O9 Y1 2.179711 1_665
O10 P2 1.530567 1_455
O10 Y1 2.199616 1_555
O11 P0 1.543080 1_565
O11 Y1 2.172500 1_565
O12 P5 1.561379 1_555
O12 Zr2 2.082680 1_555
O13 Si1 1.679836 1_555
O13 Zr2 2.022225 1_555
O14 P6 1.555180 1_555
O14 Zr2 2.187737 1_555
O15 Si2 1.675457 1_555
O15 Zr3 2.062075 1_555
O16 P7 1.565807 1_555
O16 Zr3 2.119164 1_555
O17 P8 1.564820 1_555
O17 Zr3 2.129848 1_555
O18 P8 1.521309 1_555
O18 Y2 2.238350 1_554
O19 Si2 1.599315 1_555
O19 Y2 2.139251 1_554
O20 P7 1.518430 1_555
O20 Y2 2.235645 1_554
O21 Si1 1.608094 1_555
O21 Y3 2.146118 1_555
O22 P6 1.512000 1_555
O22 Y3 2.159523 1_555
O23 P5 1.528890 1_555
O23 Y3 2.256924 1_555
O24 P9 1.585128 1_555
O24 Zr4 2.107092 1_556
O25 P10 1.592957 1_555
O25 Zr4 2.061950 1_556
O26 P11 1.598913 1_555
O26 Zr4 2.055244 1_556
O27 P12 1.569994 1_555
O27 Zr5 2.127418 1_555
O28 P13 1.566183 1_555
O28 Zr5 2.119197 1_555
O29 P14 1.576548 1_555
O29 Zr5 2.082384 1_555
O30 P14 1.534251 1_555
O30 Y4 2.244729 1_555
O31 P12 1.526141 1_555
O31 Y4 2.180834 1_555
O32 P13 1.517172 1_555
O32 Y4 2.161166 1_555
O33 P10 1.516982 1_555
O33 Y5 2.149273 1_555
O34 P11 1.532426 1_555
O34 Y5 2.193371 1_555
O35 P9 1.531046 1_555
O35 Y5 2.187932 1_555
O36 P14 1.546048 1_555
O36 Y0 2.316439 1_455
O37 P12 1.544168 1_555
O37 Y0 2.286373 1_555
O38 P13 1.562477 1_555
O38 Y0 2.327912 1_445
O39 P10 1.558037 1_555
O39 Zr0 2.124178 1_455
O40 P11 1.549664 1_555
O40 Zr0 2.194730 1_465
O41 P9 1.561396 1_555
O41 Zr0 2.136203 1_565
O42 P5 1.547063 1_555
O42 Zr1 2.149982 1_655
O43 Si1 1.627143 1_555
O43 Zr1 2.046860 1_555
O44 P6 1.554097 1_555
O44 Zr1 2.150330 1_665
O45 Si2 1.635425 1_555
O45 Y1 2.227982 1_665
O46 P7 1.536198 1_555
O46 Y1 2.286938 1_655
O47 P8 1.537087 1_555
O47 Y1 2.276404 1_555
O48 Si0 1.661920 1_555
O48 Zr2 2.055895 1_555
O49 P3 1.574934 1_555
O49 Zr2 2.213464 1_555
O50 P4 1.556232 1_555
O50 Zr2 2.224049 1_555
O51 P1 1.571552 1_555
O51 Zr3 2.119914 1_555
O52 P2 1.574198 1_555
O52 Zr3 2.122663 1_555
O53 P0 1.552288 1_555
O53 Zr3 2.134348 1_555
O54 P9 1.522532 1_555
O54 Y2 2.216377 1_555
O55 P10 1.520170 1_655
O55 Y2 2.221003 1_555
O56 P11 1.519797 1_545
O56 Y2 2.246584 1_555
O57 P12 1.553402 1_545
O57 Y3 2.312188 1_555
O58 P13 1.541228 1_555
O58 Y3 2.252862 1_555
O59 P14 1.537747 1_655
O59 Y3 2.288407 1_555
O60 P8 1.568589 1_555
O60 Zr4 2.245377 1_555
O61 Si2 1.675829 1_455
O61 Zr4 2.115139 1_555
O62 P7 1.567892 1_565
O62 Zr4 2.233156 1_555
O63 Si1 1.672147 1_565
O63 Zr5 2.072707 1_555
O64 P6 1.568048 1_555
O64 Zr5 2.165812 1_555
O65 P5 1.547344 1_455
O65 Zr5 2.142354 1_555
O66 P0 1.541205 1_565
O66 Y4 2.264732 1_555
O67 P1 1.522331 1_555
O67 Y4 2.213205 1_555
O68 P2 1.544022 1_455
O68 Y4 2.284594 1_555
O69 P3 1.533658 1_555
O69 Y5 2.293066 1_555
O70 P4 1.533586 1_455
O70 Y5 2.292079 1_555
O71 Si0 1.642697 1_565
O71 Y5 2.258546 1_555
