# generated using pymatgen
data_Eu4Au2O9
_symmetry_space_group_name_H-M   'P 1'
_cell_length_a   6.18138765
_cell_length_b   11.94098349
_cell_length_c   11.99598676
_cell_angle_alpha   90.00000000
_cell_angle_beta   90.00000000
_cell_angle_gamma   90.00000000
_symmetry_Int_Tables_number   1
_chemical_formula_structural   Eu4Au2O9
_chemical_formula_sum   'Eu16 Au8 O36'
_cell_volume   885.44594983
_cell_formula_units_Z   4
loop_
 _symmetry_equiv_pos_site_id
 _symmetry_equiv_pos_as_xyz
  1  'x, y, z'
loop_
 _atom_site_type_symbol
 _atom_site_label
 _atom_site_symmetry_multiplicity
 _atom_site_fract_x
 _atom_site_fract_y
 _atom_site_fract_z
 _atom_site_occupancy
  O  O0  1  0.93570031  0.44489018  0.38682070  1
  O  O1  1  0.93570031  0.05510982  0.61317930  1
  O  O2  1  0.56429969  0.94489018  0.11317930  1
  O  O3  1  0.56429969  0.55510982  0.88682070  1
  O  O4  1  0.06429969  0.55510982  0.61317930  1
  O  O5  1  0.06429969  0.94489018  0.38682070  1
  O  O6  1  0.43570031  0.05510982  0.88682070  1
  O  O7  1  0.43570031  0.44489018  0.11317930  1
  O  O8  1  0.94462244  0.35273164  0.16406993  1
  O  O9  1  0.94462244  0.14726836  0.83593007  1
  O  O10  1  0.55537756  0.85273164  0.33593007  1
  O  O11  1  0.55537756  0.64726836  0.66406993  1
  O  O12  1  0.05537756  0.64726836  0.83593007  1
  O  O13  1  0.05537756  0.85273164  0.16406993  1
  O  O14  1  0.62311453  0.15919294  0.19505852  1
  O  O15  1  0.44462244  0.14726836  0.66406993  1
  O  O16  1  0.60651149  0.08654892  0.42030967  1
  O  O17  1  0.60651149  0.41345108  0.57969033  1
  O  O18  1  0.89348851  0.58654892  0.07969033  1
  O  O19  1  0.89348851  0.91345108  0.92030967  1
  O  O20  1  0.39348851  0.91345108  0.57969033  1
  O  O21  1  0.39348851  0.58654892  0.42030967  1
  O  O22  1  0.10651149  0.41345108  0.92030967  1
  O  O23  1  0.10651149  0.08654892  0.07969033  1
  O  O24  1  0.02446511  0.25000000  0.50000000  1
  O  O25  1  0.47553489  0.75000000  0.00000000  1
  O  O26  1  0.97553489  0.75000000  0.50000000  1
  O  O27  1  0.52446511  0.25000000  0.00000000  1
  O  O28  1  0.12311453  0.15919294  0.30494148  1
  O  O29  1  0.12311453  0.34080706  0.69505852  1
  O  O30  1  0.37688547  0.65919294  0.19505852  1
  O  O31  1  0.37688547  0.84080706  0.80494148  1
  O  O32  1  0.87688547  0.84080706  0.69505852  1
  O  O33  1  0.87688547  0.65919294  0.30494148  1
  O  O34  1  0.62311453  0.34080706  0.80494148  1
  O  O35  1  0.44462244  0.35273164  0.33593007  1
  Eu  Eu0  1  0.74300863  0.08784079  0.00463362  1
  Eu  Eu1  1  0.74300863  0.41215921  0.99536638  1
  Eu  Eu2  1  0.75699137  0.58784079  0.49536638  1
  Eu  Eu3  1  0.75699137  0.91215921  0.50463362  1
  Eu  Eu4  1  0.25699137  0.91215921  0.99536638  1
  Eu  Eu5  1  0.25699137  0.58784079  0.00463362  1
  Eu  Eu6  1  0.24300863  0.41215921  0.50463362  1
  Eu  Eu7  1  0.24300863  0.08784079  0.49536638  1
  Eu  Eu8  1  0.80131116  0.26055204  0.33995558  1
  Eu  Eu9  1  0.80131116  0.23944796  0.66004442  1
  Eu  Eu10  1  0.69868884  0.76055204  0.16004442  1
  Eu  Eu11  1  0.69868884  0.73944796  0.83995558  1
  Eu  Eu12  1  0.19868884  0.73944796  0.66004442  1
  Eu  Eu13  1  0.19868884  0.76055204  0.33995558  1
  Eu  Eu14  1  0.30131116  0.23944796  0.83995558  1
  Eu  Eu15  1  0.30131116  0.26055204  0.16004442  1
  Au  Au0  1  0.57618169  0.01014553  0.26890930  1
  Au  Au1  1  0.57618169  0.48985447  0.73109070  1
  Au  Au2  1  0.92381831  0.51014553  0.23109070  1
  Au  Au3  1  0.92381831  0.98985447  0.76890930  1
  Au  Au4  1  0.42381831  0.98985447  0.73109070  1
  Au  Au5  1  0.42381831  0.51014553  0.26890930  1
  Au  Au6  1  0.07618169  0.48985447  0.76890930  1
  Au  Au7  1  0.07618169  0.01014553  0.23109070  1
loop_
_geom_bond_atom_site_label_1
_geom_bond_atom_site_label_2
_geom_bond_distance
_geom_bond_site_symmetry_2
Eu0 O27 2.361661 1_555
Eu0 O6 2.399702 1_554
Eu0 O2 2.414444 1_545
Eu0 O23 2.420685 1_655
Eu0 O9 2.480391 1_554
Eu0 O19 2.494951 1_544
Eu0 O14 2.548207 1_555
Eu1 O27 2.361661 1_556
Eu1 O7 2.399702 1_556
Eu1 O3 2.414444 1_555
Eu1 O22 2.420685 1_655
Eu1 O8 2.480391 1_556
Eu1 O18 2.494951 1_556
Eu1 O34 2.548207 1_555
Eu2 O26 2.361661 1_555
Eu2 O4 2.399702 1_655
Eu2 O0 2.414444 1_555
Eu2 O21 2.420685 1_555
Eu2 O11 2.480391 1_555
Eu2 O17 2.494951 1_555
Eu2 O33 2.548207 1_555
Eu3 O26 2.361661 1_555
Eu3 O5 2.399702 1_655
Eu3 O1 2.414444 1_565
Eu3 O20 2.420685 1_555
Eu3 O10 2.480391 1_555
Eu3 O16 2.494951 1_565
Eu3 O32 2.548207 1_555
Eu4 O25 2.361661 1_556
Eu4 O2 2.399702 1_556
Eu4 O6 2.414444 1_565
Eu4 O19 2.420685 1_455
Eu4 O13 2.480391 1_556
Eu4 O23 2.494951 1_566
Eu4 O31 2.548207 1_555
Eu5 O25 2.361661 1_555
Eu5 O3 2.399702 1_554
Eu5 O7 2.414444 1_555
Eu5 O18 2.420685 1_455
Eu5 O12 2.480391 1_554
Eu5 O22 2.494951 1_554
Eu5 O30 2.548207 1_555
Eu6 O24 2.361661 1_555
Eu6 O0 2.399702 1_455
Eu6 O4 2.414444 1_555
Eu6 O17 2.420685 1_555
Eu6 O35 2.480391 1_555
Eu6 O21 2.494951 1_555
Eu6 O29 2.548207 1_555
Eu7 O24 2.361661 1_555
Eu7 O1 2.399702 1_455
Eu7 O5 2.414444 1_545
Eu7 O16 2.420685 1_555
Eu7 O15 2.480391 1_555
Eu7 O20 2.494951 1_545
Eu7 O28 2.548207 1_555
Eu8 O28 2.366051 1_655
Eu8 O24 2.367405 1_655
Eu8 O14 2.387359 1_555
Eu8 O0 2.418952 1_555
Eu8 O35 2.464789 1_555
Eu8 O8 2.539310 1_555
Eu8 O16 2.587704 1_555
Eu9 O29 2.366051 1_655
Eu9 O24 2.367405 1_655
Eu9 O34 2.387359 1_555
Eu9 O1 2.418952 1_555
Eu9 O15 2.464789 1_555
Eu9 O9 2.539310 1_555
Eu9 O17 2.587704 1_555
Eu10 O30 2.366051 1_555
Eu10 O25 2.367405 1_555
Eu10 O33 2.387359 1_555
Eu10 O2 2.418952 1_555
Eu10 O13 2.464789 1_655
Eu10 O10 2.539310 1_555
Eu10 O18 2.587704 1_555
Eu11 O31 2.366051 1_555
Eu11 O25 2.367405 1_556
Eu11 O32 2.387359 1_555
Eu11 O3 2.418952 1_555
Eu11 O12 2.464789 1_655
Eu11 O11 2.539310 1_555
Eu11 O19 2.587704 1_555
Eu12 O32 2.366051 1_455
Eu12 O26 2.367405 1_455
Eu12 O31 2.387359 1_555
Eu12 O4 2.418952 1_555
Eu12 O11 2.464789 1_555
Eu12 O12 2.539310 1_555
Eu12 O20 2.587704 1_555
Eu13 O33 2.366051 1_455
Eu13 O26 2.367405 1_455
Eu13 O30 2.387359 1_555
Eu13 O5 2.418952 1_555
Eu13 O10 2.464789 1_555
Eu13 O13 2.539310 1_555
Eu13 O21 2.587704 1_555
Eu14 O34 2.366051 1_555
Eu14 O27 2.367405 1_556
Eu14 O29 2.387359 1_555
Eu14 O6 2.418952 1_555
Eu14 O9 2.464789 1_455
Eu14 O15 2.539310 1_555
Eu14 O22 2.587704 1_555
Eu15 O14 2.366051 1_555
Eu15 O27 2.367405 1_555
Eu15 O28 2.387359 1_555
Eu15 O7 2.418952 1_555
Eu15 O8 2.464789 1_455
Eu15 O35 2.539310 1_555
Eu15 O23 2.587704 1_555
Au0 O14 2.009128 1_555
Au0 O2 2.025462 1_545
Au0 O16 2.041095 1_555
Au0 O10 2.048440 1_545
Au1 O34 2.009128 1_555
Au1 O3 2.025462 1_555
Au1 O17 2.041095 1_555
Au1 O11 2.048440 1_555
Au2 O33 2.009128 1_555
Au2 O0 2.025462 1_555
Au2 O18 2.041095 1_555
Au2 O8 2.048440 1_555
Au3 O32 2.009128 1_555
Au3 O1 2.025462 1_565
Au3 O19 2.041095 1_555
Au3 O9 2.048440 1_565
Au4 O31 2.009128 1_555
Au4 O6 2.025462 1_565
Au4 O20 2.041095 1_555
Au4 O15 2.048440 1_565
Au5 O30 2.009128 1_555
Au5 O7 2.025462 1_555
Au5 O21 2.041095 1_555
Au5 O35 2.048440 1_555
Au6 O29 2.009128 1_555
Au6 O4 2.025462 1_555
Au6 O22 2.041095 1_555
Au6 O12 2.048440 1_555
Au7 O28 2.009128 1_555
Au7 O5 2.025462 1_545
Au7 O23 2.041095 1_555
Au7 O13 2.048440 1_545
