# generated using pymatgen
data_Na8Sc3NbSi4(PO12)2
_symmetry_space_group_name_H-M   'P 1'
_cell_length_a   9.19515167
_cell_length_b   9.19815232
_cell_length_c   22.49104865
_cell_angle_alpha   90.03705199
_cell_angle_beta   89.98470016
_cell_angle_gamma   119.99639026
_symmetry_Int_Tables_number   1
_chemical_formula_structural   Na8Sc3NbSi4(PO12)2
_chemical_formula_sum   'Na24 Sc9 Nb3 Si12 P6 O72'
_cell_volume   1647.46249045
_cell_formula_units_Z   3
loop_
 _symmetry_equiv_pos_site_id
 _symmetry_equiv_pos_as_xyz
  1  'x, y, z'
loop_
 _atom_site_type_symbol
 _atom_site_label
 _atom_site_symmetry_multiplicity
 _atom_site_fract_x
 _atom_site_fract_y
 _atom_site_fract_z
 _atom_site_occupancy
  Na  Na0  1  0.63175935  0.99786508  0.25403437  1
  Na  Na1  1  0.36692861  0.36850438  0.25216451  1
  Na  Na2  1  0.00214606  0.63228731  0.25225320  1
  Na  Na3  1  0.63987447  0.63381969  0.74241540  1
  Na  Na4  1  0.99161561  0.35469886  0.74420154  1
  Na  Na5  1  0.36915023  0.01175983  0.74788634  1
  Na  Na6  1  0.29680144  0.33879678  0.58387495  1
  Na  Na7  1  0.03737712  0.70108920  0.58172736  1
  Na  Na8  1  0.66649679  0.95839375  0.58133121  1
  Na  Na9  1  0.29311024  0.95852361  0.08108422  1
  Na  Na10  1  0.66192483  0.70038407  0.08313325  1
  Na  Na11  1  0.04306849  0.34081079  0.08342097  1
  Na  Na12  1  0.97551642  0.68001175  0.91441872  1
  Na  Na13  1  0.70714263  0.02905868  0.91279660  1
  Na  Na14  1  0.31901295  0.29083421  0.91264853  1
  Na  Na15  1  0.97795610  0.30089739  0.41619813  1
  Na  Na16  1  0.32658940  0.02475902  0.41661447  1
  Na  Na17  1  0.69680843  0.67600407  0.41626433  1
  Na  Na18  1  0.99698984  0.99914677  0.49975989  1
  Na  Na19  1  0.00294873  0.99976996  0.99775285  1
  Na  Na20  1  0.66262557  0.32736141  0.82749818  1
  Na  Na21  1  0.66511328  0.33141545  0.33370989  1
  Na  Na22  1  0.32932365  0.66218499  0.16566966  1
  Na  Na23  1  0.33416770  0.66196183  0.66013317  1
  Sc  Sc0  1  0.99978324  0.99991204  0.35361372  1
  Sc  Sc1  1  0.00148789  0.00513513  0.85064892  1
  Sc  Sc2  1  0.99343444  0.00392063  0.64785446  1
  Sc  Sc3  1  0.00342575  0.99950461  0.14630313  1
  Sc  Sc4  1  0.66668390  0.33476163  0.68420074  1
  Sc  Sc5  1  0.66830435  0.33827815  0.18351743  1
  Sc  Sc6  1  0.33036091  0.66364481  0.01830190  1
  Sc  Sc7  1  0.33351872  0.66302474  0.51611971  1
  Sc  Sc8  1  0.33366549  0.66595074  0.31993363  1
  Nb  Nb0  1  0.66445149  0.33680108  0.97927915  1
  Nb  Nb1  1  0.67244488  0.33793608  0.48055634  1
  Nb  Nb2  1  0.33616870  0.66541326  0.81520932  1
  Si  Si0  1  0.29475211  0.29509101  0.75052665  1
  Si  Si1  1  0.70310431  0.99920193  0.75088330  1
  Si  Si2  1  0.96302907  0.33507406  0.58547542  1
  Si  Si3  1  0.66703095  0.62954196  0.58548187  1
  Si  Si4  1  0.96140007  0.62797390  0.08494537  1
  Si  Si5  1  0.37197373  0.33415146  0.08510557  1
  Si  Si6  1  0.62774572  0.66814312  0.91942451  1
  Si  Si7  1  0.03915733  0.37278228  0.91862988  1
  Si  Si8  1  0.33305344  0.95904942  0.91905546  1
  Si  Si9  1  0.62736188  0.96217255  0.41680752  1
  Si  Si10  1  0.33419767  0.37068911  0.41654596  1
  Si  Si11  1  0.03988460  0.66746354  0.41681842  1
  P  P0  1  0.29499026  0.99866336  0.24923152  1
  P  P1  1  0.70514646  0.70611614  0.24905264  1
  P  P2  1  0.00004893  0.29398196  0.24902003  1
  P  P3  1  0.00350089  0.70785587  0.75099168  1
  P  P4  1  0.37547681  0.04165371  0.58393607  1
  P  P5  1  0.66683861  0.04386768  0.08383342  1
  O  O0  1  0.21093052  0.02319082  0.30469752  1
  O  O1  1  0.81258392  0.79054258  0.30472422  1
  O  O2  1  0.97803195  0.18695058  0.30471049  1
  O  O3  1  0.21123686  0.18236980  0.80965147  1
  O  O4  1  0.97830171  0.78845276  0.80677365  1
  O  O5  1  0.81552656  0.02512221  0.80972530  1
  O  O6  1  0.78106314  0.95663366  0.69227809  1
  O  O7  1  0.17540327  0.21387679  0.69200088  1
  O  O8  1  0.03539049  0.81760212  0.69519922  1
  O  O9  1  0.79113268  0.81324470  0.19313933  1
  O  O10  1  0.02102911  0.20779077  0.19301641  1
  O  O11  1  0.18703314  0.97747638  0.19325878  1
  O  O12  1  0.87319194  0.35879750  0.64365052  1
  O  O13  1  0.48074807  0.12332493  0.63987353  1
  O  O14  1  0.63782010  0.51406264  0.64362045  1
  O  O15  1  0.87427257  0.51006318  0.14259949  1
  O  O16  1  0.64206851  0.12619603  0.13945594  1
  O  O17  1  0.48829510  0.35874312  0.14262282  1
  O  O18  1  0.47324943  0.30863509  0.02614934  1
  O  O19  1  0.83524700  0.52294429  0.02623916  1
  O  O20  1  0.68920250  0.15744401  0.02788380  1
  O  O21  1  0.46758958  0.15445279  0.52830961  1
  O  O22  1  0.68380128  0.52192955  0.52722297  1
  O  O23  1  0.83756017  0.31226919  0.52698728  1
  O  O24  1  0.54503113  0.69851982  0.97729164  1
  O  O25  1  0.15339791  0.45659919  0.97657757  1
  O  O26  1  0.30481751  0.84697431  0.97727704  1
  O  O27  1  0.54498669  0.84537189  0.47490333  1
  O  O28  1  0.29907417  0.45332282  0.47458395  1
  O  O29  1  0.15488158  0.70064419  0.47522199  1
  O  O30  1  0.11606393  0.62463877  0.35781167  1
  O  O31  1  0.50895214  0.88330808  0.35755163  1
  O  O32  1  0.37626636  0.49033560  0.35762035  1
  O  O33  1  0.13285555  0.49934679  0.86047823  1
  O  O34  1  0.36331503  0.86383883  0.86062558  1
  O  O35  1  0.50000831  0.63489182  0.86117290  1
  O  O36  1  0.00899110  0.82650903  0.41007244  1
  O  O37  1  0.81689901  0.99047814  0.41000202  1
  O  O38  1  0.17210900  0.18210197  0.40995110  1
  O  O39  1  0.01375736  0.18600269  0.91223022  1
  O  O40  1  0.17201268  0.98446715  0.91190033  1
  O  O41  1  0.81562242  0.82395037  0.91099608  1
  O  O42  1  0.97375882  0.16225036  0.58449255  1
  O  O43  1  0.20106213  0.02868457  0.58606596  1
  O  O44  1  0.84384984  0.80890630  0.58464348  1
  O  O45  1  0.96675769  0.80879087  0.08516495  1
  O  O46  1  0.82888291  0.03184417  0.08613640  1
  O  O47  1  0.18765673  0.16280080  0.08535097  1
  O  O48  1  0.67702764  0.16193115  0.74652977  1
  O  O49  1  0.48540096  0.32511980  0.74713471  1
  O  O50  1  0.84883821  0.52928181  0.74672653  1
  O  O51  1  0.68704248  0.52761496  0.24640150  1
  O  O52  1  0.83916941  0.31087942  0.24628810  1
  O  O53  1  0.47403169  0.15695421  0.24570605  1
  O  O54  1  0.63511992  0.48964895  0.92215608  1
  O  O55  1  0.85186132  0.35982164  0.92259151  1
  O  O56  1  0.50997588  0.14516441  0.92246449  1
  O  O57  1  0.64449435  0.15108863  0.42419838  1
  O  O58  1  0.50360176  0.35003364  0.42446247  1
  O  O59  1  0.84884985  0.49500790  0.42397446  1
  O  O60  1  0.35807211  0.50299585  0.08036917  1
  O  O61  1  0.14765050  0.65012074  0.08001357  1
  O  O62  1  0.51064142  0.86885635  0.07880951  1
  O  O63  1  0.35836087  0.86670461  0.57866934  1
  O  O64  1  0.50171389  0.65032541  0.57963701  1
  O  O65  1  0.14620597  0.50414488  0.57987201  1
  O  O66  1  0.31053792  0.83739941  0.25220210  1
  O  O67  1  0.52726357  0.68835813  0.25213371  1
  O  O68  1  0.16035810  0.47178370  0.25207256  1
  O  O69  1  0.30893662  0.48510819  0.75802857  1
  O  O70  1  0.16526423  0.69024463  0.75717138  1
  O  O71  1  0.51099119  0.82662272  0.75817885  1
loop_
_geom_bond_atom_site_label_1
_geom_bond_atom_site_label_2
_geom_bond_distance
_geom_bond_site_symmetry_2
Na0 O67 2.508900 1_555
Na0 O53 2.530304 1_565
Na0 O52 2.543071 1_565
Na0 O66 2.558384 1_555
Na0 O31 2.572558 1_555
Na0 O16 2.816938 1_565
Na1 O68 2.512888 1_555
Na1 O67 2.547997 1_555
Na1 O51 2.552549 1_555
Na1 O53 2.587103 1_555
Na1 O32 2.605595 1_555
Na1 O17 2.724292 1_555
Na2 O66 2.500259 1_555
Na2 O68 2.538403 1_555
Na2 O51 2.559314 1_455
Na2 O52 2.563891 1_455
Na2 O30 2.610339 1_555
Na2 O15 2.721202 1_455
Na3 O49 2.461494 1_555
Na3 O14 2.475298 1_555
Na3 O50 2.544322 1_555
Na3 O71 2.603008 1_555
Na3 O69 2.663159 1_555
Na3 O6 2.814748 1_555
Na3 O35 2.966324 1_555
Na4 O12 2.518734 1_555
Na4 O48 2.527020 1_555
Na4 O50 2.532470 1_555
Na4 O69 2.559220 1_655
Na4 O70 2.689235 1_655
Na4 O7 2.845678 1_655
Na4 O33 2.926712 1_655
Na4 O5 3.013303 1_555
Na5 O48 2.452217 1_555
Na5 O49 2.523907 1_555
Na5 O70 2.600214 1_545
Na5 O71 2.622222 1_545
Na5 O13 2.637546 1_555
Na5 O34 2.866163 1_545
Na5 O8 2.920812 1_545
Na5 O3 2.962332 1_555
Na6 O65 2.518895 1_555
Na6 O64 2.524284 1_555
Na6 O43 2.530465 1_555
Na6 O42 2.576341 1_455
Na6 O28 2.670873 1_555
Na6 O7 2.683279 1_555
Na7 O44 2.432881 1_455
Na7 O65 2.469256 1_555
Na7 O63 2.557539 1_555
Na7 O43 2.611431 1_565
Na7 O29 2.628400 1_555
Na7 O8 2.770941 1_555
Na8 O64 2.456361 1_555
Na8 O42 2.491235 1_565
Na8 O63 2.520612 1_555
Na8 O44 2.607291 1_555
Na8 O27 2.625946 1_555
Na8 O6 2.712032 1_555
Na9 O61 2.458203 1_555
Na9 O47 2.510274 1_565
Na9 O62 2.516594 1_555
Na9 O26 2.573431 1_554
Na9 O45 2.603447 1_455
Na9 O11 2.741363 1_555
Na10 O60 2.456485 1_555
Na10 O45 2.461390 1_555
Na10 O62 2.549822 1_555
Na10 O24 2.608682 1_554
Na10 O46 2.641299 1_565
Na10 O9 2.715818 1_555
Na11 O61 2.507927 1_555
Na11 O60 2.509864 1_555
Na11 O46 2.522450 1_455
Na11 O47 2.574338 1_555
Na11 O25 2.619096 1_554
Na11 O10 2.714707 1_555
Na12 O41 2.422189 1_555
Na12 O40 2.459884 1_655
Na12 O55 2.579302 1_555
Na12 O4 2.614308 1_555
Na12 O54 2.722726 1_555
Na12 O19 2.866287 1_556
Na12 O33 2.954120 1_655
Na12 O26 2.979197 1_655
Na13 O39 2.442006 1_655
Na13 O5 2.530463 1_555
Na13 O56 2.531831 1_555
Na13 O41 2.537223 1_545
Na13 O55 2.650799 1_555
Na13 O20 2.883112 1_556
Na13 O34 2.979477 1_545
Na13 O24 3.007129 1_545
Na14 O40 2.441275 1_545
Na14 O39 2.470255 1_555
Na14 O3 2.520581 1_555
Na14 O54 2.554119 1_555
Na14 O56 2.698231 1_555
Na14 O18 2.885122 1_556
Na14 O35 2.977050 1_555
Na14 O25 3.004820 1_555
Na15 O37 2.477257 1_545
Na15 O38 2.520142 1_655
Na15 O59 2.597430 1_555
Na15 O57 2.666133 1_555
Na15 O2 2.717217 1_555
Na15 O23 2.831850 1_555
Na15 O28 2.875589 1_655
Na15 O30 2.903021 1_655
Na16 O38 2.488119 1_555
Na16 O57 2.554992 1_555
Na16 O36 2.559401 1_545
Na16 O58 2.600426 1_555
Na16 O0 2.730060 1_555
Na16 O21 2.804690 1_555
Na16 O29 2.900983 1_545
Na16 O31 2.906431 1_545
Na17 O36 2.490496 1_655
Na17 O37 2.532368 1_555
Na17 O58 2.618117 1_555
Na17 O59 2.661581 1_555
Na17 O1 2.723445 1_555
Na17 O22 2.843518 1_555
Na17 O27 2.878570 1_555
Na17 O32 2.882655 1_555
Na18 O44 2.495741 1_555
Na18 O42 2.498940 1_565
Na18 O37 2.587174 1_555
Na18 O36 2.602627 1_655
Na18 O38 2.607298 1_665
Na18 O43 2.618090 1_665
Na19 O40 2.526215 1_555
Na19 O47 2.542888 1_566
Na19 O39 2.545190 1_565
Na19 O45 2.545838 1_456
Na19 O41 2.569460 1_455
Na19 O46 2.658953 1_466
Na20 O48 2.418061 1_555
Na20 O49 2.427113 1_555
Na20 O50 2.550377 1_555
Na20 O56 2.644193 1_555
Na20 O55 2.678219 1_555
Na20 O54 2.682874 1_555
Na21 O57 2.572708 1_555
Na21 O58 2.579404 1_555
Na21 O59 2.587668 1_555
Na21 O53 2.599694 1_555
Na21 O52 2.600633 1_555
Na21 O51 2.606524 1_555
Na22 O60 2.505524 1_555
Na22 O61 2.516028 1_555
Na22 O68 2.557252 1_555
Na22 O66 2.586328 1_555
Na22 O67 2.591440 1_555
Na22 O62 2.654040 1_555
Na23 O64 2.413667 1_555
Na23 O65 2.417149 1_555
Na23 O63 2.557042 1_555
Na23 O69 2.678591 1_555
Na23 O71 2.708418 1_555
Na23 O70 2.764867 1_555
Nb0 O18 1.952774 1_556
Nb0 O19 1.955347 1_556
Nb0 O54 2.020301 1_555
Nb0 O56 2.062062 1_555
Nb0 O55 2.067444 1_555
Nb0 O20 2.084801 1_556
Nb1 O22 1.948794 1_555
Nb1 O23 1.952164 1_555
Nb1 O59 1.998990 1_555
Nb1 O57 2.045041 1_555
Nb1 O58 2.046554 1_555
Nb1 O21 2.091083 1_555
Nb2 O35 1.959906 1_555
Nb2 O34 1.994754 1_555
Nb2 O33 2.002635 1_555
Nb2 O71 2.011492 1_555
Nb2 O69 2.012299 1_555
Nb2 O70 2.141502 1_555
O0 P0 1.542092 1_545
O0 Sc0 2.146920 1_445
O1 P1 1.542436 1_555
O1 Sc0 2.136461 1_555
O2 P2 1.543123 1_655
O2 Sc0 2.134520 1_545
O3 Si0 1.624240 1_555
O3 Sc1 2.021092 1_555
O4 P3 1.532216 1_655
O4 Sc1 2.136417 1_665
O5 Si1 1.621969 1_545
O5 Sc1 2.029841 1_655
O6 Si1 1.638298 1_555
O6 Sc2 2.037417 1_565
O7 Si0 1.635494 1_555
O7 Sc2 2.069425 1_455
O8 P3 1.544367 1_555
O8 Sc2 2.209851 1_465
O9 P1 1.549066 1_555
O9 Sc3 2.124300 1_655
O10 P2 1.550418 1_555
O10 Sc3 2.118469 1_545
O11 P0 1.554061 1_555
O11 Sc3 2.085662 1_555
O12 Si2 1.619028 1_555
O12 Sc4 2.016418 1_555
O13 P4 1.535077 1_555
O13 Sc4 2.091189 1_555
O14 Si3 1.620665 1_555
O14 Sc4 2.015734 1_555
O15 Si4 1.622348 1_555
O15 Sc5 1.984755 1_555
O16 P5 1.536697 1_555
O16 Sc5 2.091126 1_555
O17 Si5 1.620834 1_555
O17 Sc5 1.983357 1_555
O18 Si5 1.702359 1_555
O19 Si4 1.703204 1_555
O20 P5 1.582375 1_555
O21 P4 1.575295 1_555
O22 Si3 1.694487 1_555
O23 Si2 1.692320 1_555
O24 Si6 1.600598 1_555
O24 Sc6 2.053366 1_556
O25 Si7 1.608137 1_555
O25 Sc6 2.013764 1_556
O26 Si8 1.605855 1_555
O26 Sc6 2.036729 1_556
O27 Si9 1.619526 1_555
O27 Sc7 2.047812 1_555
O28 Si10 1.621687 1_555
O28 Sc7 2.020032 1_555
O29 Si11 1.616862 1_555
O29 Sc7 2.057545 1_555
O30 Si11 1.637625 1_555
O30 Sc8 2.028040 1_555
O31 Si9 1.642450 1_555
O31 Sc8 2.021708 1_555
O32 Si10 1.641084 1_555
O32 Sc8 2.028754 1_555
O33 Si7 1.675298 1_555
O34 Si8 1.677306 1_555
O35 Si6 1.682473 1_555
O36 Si11 1.630860 1_555
O36 Sc0 2.073955 1_455
O37 Si9 1.635495 1_555
O37 Sc0 2.072915 1_555
O38 Si10 1.633123 1_555
O38 Sc0 2.065884 1_445
O39 Si7 1.620299 1_555
O39 Sc1 2.123249 1_555
O40 Si8 1.618534 1_555
O40 Sc1 2.166131 1_565
O41 Si6 1.612107 1_555
O41 Sc1 2.166622 1_665
O42 Si2 1.641345 1_555
O42 Sc2 2.109686 1_555
O43 P4 1.548313 1_555
O43 Sc2 2.278641 1_455
O44 Si3 1.638185 1_555
O44 Sc2 2.159035 1_565
O45 Si4 1.639112 1_555
O45 Sc3 2.118365 1_655
O46 P5 1.549160 1_555
O46 Sc3 2.230375 1_645
O47 Si5 1.638794 1_555
O47 Sc3 2.112427 1_545
O48 Si1 1.632967 1_545
O48 Sc4 2.157677 1_555
O49 Si0 1.634344 1_555
O49 Sc4 2.154318 1_555
O50 P3 1.547208 1_655
O50 Sc4 2.232897 1_555
O51 P1 1.566406 1_555
O51 Sc5 2.181723 1_555
O52 P2 1.564050 1_655
O52 Sc5 2.218701 1_555
O53 P0 1.562005 1_545
O53 Sc5 2.225256 1_555
O54 Si6 1.677910 1_555
O55 Si7 1.668178 1_655
O56 Si8 1.672815 1_545
O57 Si9 1.672693 1_545
O58 Si10 1.670427 1_555
O59 Si11 1.685774 1_655
O60 Si5 1.624314 1_555
O60 Sc6 2.139272 1_555
O61 Si4 1.624160 1_455
O61 Sc6 2.134124 1_555
O62 P5 1.534614 1_565
O62 Sc6 2.243231 1_555
O63 P4 1.541065 1_565
O63 Sc7 2.260545 1_555
O64 Si3 1.629504 1_555
O64 Sc7 2.151372 1_555
O65 Si2 1.628614 1_455
O65 Sc7 2.154712 1_555
O66 P0 1.561199 1_555
O66 Sc8 2.278466 1_555
O67 P1 1.561947 1_555
O67 Sc8 2.273510 1_555
O68 P2 1.562590 1_555
O68 Sc8 2.282696 1_555
O69 Si0 1.694698 1_555
O70 P3 1.580853 1_555
O71 Si1 1.692236 1_555
