# generated using pymatgen
data_Sm3InS6
_symmetry_space_group_name_H-M   'P 1'
_cell_length_a   3.92099260
_cell_length_b   13.70961559
_cell_length_c   16.65109893
_cell_angle_alpha   90.00000000
_cell_angle_beta   90.00000000
_cell_angle_gamma   90.00000000
_symmetry_Int_Tables_number   1
_chemical_formula_structural   Sm3InS6
_chemical_formula_sum   'Sm12 In4 S24'
_cell_volume   895.08483958
_cell_formula_units_Z   4
loop_
 _symmetry_equiv_pos_site_id
 _symmetry_equiv_pos_as_xyz
  1  'x, y, z'
loop_
 _atom_site_type_symbol
 _atom_site_label
 _atom_site_symmetry_multiplicity
 _atom_site_fract_x
 _atom_site_fract_y
 _atom_site_fract_z
 _atom_site_occupancy
  Sm  Sm0  1  0.50000000  0.68870058  0.35409042  1
  Sm  Sm1  1  0.50000000  0.31129942  0.64590958  1
  Sm  Sm2  1  -0.00000000  0.18870058  0.14590958  1
  Sm  Sm3  1  0.00000000  0.81129942  0.85409042  1
  Sm  Sm4  1  0.00000000  0.74820353  0.10625073  1
  Sm  Sm5  1  -0.00000000  0.25179647  0.89374927  1
  Sm  Sm6  1  0.50000000  0.24820353  0.39374927  1
  Sm  Sm7  1  0.50000000  0.75179647  0.60625073  1
  Sm  Sm8  1  0.00000000  0.95962447  0.27698012  1
  Sm  Sm9  1  -0.00000000  0.04037553  0.72301988  1
  Sm  Sm10  1  0.50000000  0.45962447  0.22301988  1
  Sm  Sm11  1  0.50000000  0.54037553  0.77698012  1
  In  In0  1  -0.00000000  0.50000000  -0.00000000  1
  In  In1  1  0.50000000  0.00000000  0.50000000  1
  In  In2  1  0.00000000  0.50000000  0.50000000  1
  In  In3  1  0.50000000  0.00000000  -0.00000000  1
  S  S0  1  0.00000000  0.97892086  0.10336798  1
  S  S1  1  -0.00000000  0.02107914  0.89663202  1
  S  S2  1  0.50000000  0.47892086  0.39663202  1
  S  S3  1  0.50000000  0.52107914  0.60336798  1
  S  S4  1  -0.00000000  0.68959143  0.48008404  1
  S  S5  1  -0.00000000  0.31040857  0.51991596  1
  S  S6  1  0.50000000  0.18959143  0.01991596  1
  S  S7  1  0.50000000  0.81040857  0.98008404  1
  S  S8  1  0.50000000  0.88775818  0.38518088  1
  S  S9  1  0.50000000  0.11224182  0.61481912  1
  S  S10  1  0.00000000  0.38775818  0.11481912  1
  S  S11  1  -0.00000000  0.61224182  0.88518088  1
  S  S12  1  -0.00000000  0.61121450  0.25307780  1
  S  S13  1  0.00000000  0.38878550  0.74692220  1
  S  S14  1  0.50000000  0.11121450  0.24692220  1
  S  S15  1  0.50000000  0.88878550  0.75307780  1
  S  S16  1  0.00000000  0.90546983  0.58402324  1
  S  S17  1  -0.00000000  0.09453017  0.41597676  1
  S  S18  1  0.50000000  0.40546983  0.91597676  1
  S  S19  1  0.50000000  0.59453017  0.08402324  1
  S  S20  1  -0.00000000  0.68214955  0.71372563  1
  S  S21  1  0.00000000  0.31785045  0.28627437  1
  S  S22  1  0.50000000  0.18214955  0.78627437  1
  S  S23  1  0.50000000  0.81785045  0.21372563  1
loop_
_geom_bond_atom_site_label_1
_geom_bond_atom_site_label_2
_geom_bond_distance
_geom_bond_site_symmetry_2
In0 S10 2.454202 1_555
In0 S11 2.454202 1_554
In0 S19 2.735053 1_555
In0 S19 2.735053 1_455
In0 S18 2.735053 1_454
In0 S18 2.735053 1_554
In1 S8 2.454202 1_545
In1 S9 2.454202 1_555
In1 S17 2.735053 1_655
In1 S17 2.735053 1_555
In1 S16 2.735053 1_545
In1 S16 2.735053 1_645
In2 S5 2.620295 1_555
In2 S4 2.620295 1_555
In2 S3 2.624796 1_555
In2 S2 2.624796 1_455
In2 S2 2.624796 1_555
In2 S3 2.624796 1_455
In3 S7 2.620295 1_544
In3 S6 2.620295 1_555
In3 S0 2.624796 1_545
In3 S1 2.624796 1_554
In3 S1 2.624796 1_654
In3 S0 2.624796 1_645
S0 Sm8 2.902912 1_555
S0 Sm2 2.961951 1_565
S0 Sm4 3.163410 1_555
S1 Sm9 2.902912 1_555
S1 Sm3 2.961951 1_545
S1 Sm5 3.163410 1_555
S2 Sm10 2.902912 1_555
S2 Sm0 2.961951 1_555
S2 Sm6 3.163410 1_555
S3 Sm11 2.902912 1_555
S3 Sm1 2.961951 1_555
S3 Sm7 3.163410 1_555
S4 Sm0 2.871413 1_455
S4 Sm0 2.871413 1_555
S4 Sm7 2.997373 1_455
S4 Sm7 2.997373 1_555
S5 Sm1 2.871413 1_555
S5 Sm1 2.871413 1_455
S5 Sm6 2.997373 1_555
S5 Sm6 2.997373 1_455
S6 Sm2 2.871413 1_555
S6 Sm2 2.871413 1_655
S6 Sm5 2.997373 1_654
S6 Sm5 2.997373 1_554
S7 Sm3 2.871413 1_555
S7 Sm3 2.871413 1_655
S7 Sm4 2.997373 1_656
S7 Sm4 2.997373 1_556
S8 Sm0 2.777672 1_555
S8 Sm8 2.839061 1_655
S8 Sm8 2.839061 1_555
S9 Sm1 2.777672 1_555
S9 Sm9 2.839061 1_555
S9 Sm9 2.839061 1_655
S10 Sm2 2.777672 1_555
S10 Sm10 2.839061 1_455
S10 Sm10 2.839061 1_555
S11 Sm3 2.777672 1_555
S11 Sm11 2.839061 1_555
S11 Sm11 2.839061 1_455
S12 Sm0 2.793038 1_455
S12 Sm0 2.793038 1_555
S12 Sm10 2.900539 1_555
S12 Sm10 2.900539 1_455
S12 Sm4 3.082911 1_555
S13 Sm1 2.793038 1_555
S13 Sm1 2.793038 1_455
S13 Sm11 2.900539 1_455
S13 Sm11 2.900539 1_555
S13 Sm5 3.082911 1_555
S14 Sm2 2.793038 1_555
S14 Sm2 2.793038 1_655
S14 Sm8 2.900539 1_545
S14 Sm8 2.900539 1_645
S14 Sm6 3.082911 1_555
S15 Sm3 2.793038 1_555
S15 Sm3 2.793038 1_655
S15 Sm9 2.900539 1_565
S15 Sm9 2.900539 1_665
S15 Sm7 3.082911 1_555
S16 Sm7 2.901577 1_455
S16 Sm7 2.901577 1_555
S16 Sm9 2.962657 1_565
S17 Sm6 2.901577 1_555
S17 Sm6 2.901577 1_455
S17 Sm8 2.962657 1_545
S18 Sm5 2.901577 1_655
S18 Sm5 2.901577 1_555
S18 Sm11 2.962657 1_555
S19 Sm4 2.901577 1_555
S19 Sm4 2.901577 1_655
S19 Sm10 2.962657 1_555
S20 Sm7 2.820963 1_555
S20 Sm7 2.820963 1_455
S20 Sm3 2.932174 1_555
S20 Sm11 2.954782 1_555
S20 Sm11 2.954782 1_455
S21 Sm6 2.820963 1_555
S21 Sm6 2.820963 1_455
S21 Sm2 2.932174 1_555
S21 Sm10 2.954782 1_455
S21 Sm10 2.954782 1_555
S22 Sm5 2.820963 1_555
S22 Sm5 2.820963 1_655
S22 Sm1 2.932174 1_555
S22 Sm9 2.954782 1_655
S22 Sm9 2.954782 1_555
S23 Sm4 2.820963 1_655
S23 Sm4 2.820963 1_555
S23 Sm0 2.932174 1_555
S23 Sm8 2.954782 1_555
S23 Sm8 2.954782 1_655
