# generated using pymatgen
data_Na6CaTi3Si2(PO6)4
_symmetry_space_group_name_H-M   'P 1'
_cell_length_a   9.00092921
_cell_length_b   9.02889135
_cell_length_c   22.08150048
_cell_angle_alpha   89.90090374
_cell_angle_beta   90.29523553
_cell_angle_gamma   120.20625990
_symmetry_Int_Tables_number   1
_chemical_formula_structural   Na6CaTi3Si2(PO6)4
_chemical_formula_sum   'Na18 Ca3 Ti9 Si6 P12 O72'
_cell_volume   1550.84574971
_cell_formula_units_Z   3
loop_
 _symmetry_equiv_pos_site_id
 _symmetry_equiv_pos_as_xyz
  1  'x, y, z'
loop_
 _atom_site_type_symbol
 _atom_site_label
 _atom_site_symmetry_multiplicity
 _atom_site_fract_x
 _atom_site_fract_y
 _atom_site_fract_z
 _atom_site_occupancy
  Na  Na0  1  0.00862826  0.00446949  0.50348228  1
  Na  Na1  1  0.99772569  0.00341880  0.00080231  1
  Na  Na2  1  0.64791582  0.29687846  0.83349014  1
  Na  Na3  1  0.64862105  0.33280505  0.32526517  1
  Na  Na4  1  0.32587195  0.66627770  0.16124974  1
  Na  Na5  1  0.32030146  0.66324647  0.66553786  1
  Na  Na6  1  0.65790761  0.01221532  0.24215021  1
  Na  Na7  1  0.98649124  0.62603465  0.24174047  1
  Na  Na8  1  0.62358745  0.61699898  0.74639699  1
  Na  Na9  1  0.99425854  0.37873048  0.74629724  1
  Na  Na10  1  0.66669352  0.98039687  0.58761458  1
  Na  Na11  1  0.65944918  0.68258068  0.08022367  1
  Na  Na12  1  0.02219566  0.34156821  0.08693441  1
  Na  Na13  1  0.96962907  0.66926913  0.91610710  1
  Na  Na14  1  0.33448922  0.30155555  0.91910890  1
  Na  Na15  1  0.96104830  0.28777211  0.41263517  1
  Na  Na16  1  0.33060359  0.03691488  0.41464710  1
  Na  Na17  1  0.71629613  0.68305060  0.41503255  1
  Ca  Ca0  1  0.00305840  0.00097993  0.35229922  1
  Ca  Ca1  1  0.65625540  0.32584181  0.68584210  1
  Ca  Ca2  1  0.66127569  0.32779617  0.17629918  1
  Ti  Ti0  1  0.99713204  0.00108213  0.85840203  1
  Ti  Ti1  1  0.00400221  0.99140843  0.64620460  1
  Ti  Ti2  1  0.01068493  0.00069527  0.14907064  1
  Ti  Ti3  1  0.67243589  0.33782426  0.97958256  1
  Ti  Ti4  1  0.66935430  0.33686356  0.48674472  1
  Ti  Ti5  1  0.32978117  0.67072990  0.01291846  1
  Ti  Ti6  1  0.33952384  0.66979011  0.52113130  1
  Ti  Ti7  1  0.33854640  0.66828279  0.31151923  1
  Ti  Ti8  1  0.33542006  0.67547620  0.81596447  1
  Si  Si0  1  0.66705352  0.63432201  0.58761564  1
  Si  Si1  1  0.97538737  0.63984641  0.08406350  1
  Si  Si2  1  0.62356095  0.66494436  0.91585858  1
  Si  Si3  1  0.03801619  0.37584744  0.91395714  1
  Si  Si4  1  0.34290096  0.96518397  0.91438293  1
  Si  Si5  1  0.61685153  0.96629434  0.41769750  1
  P  P0  1  0.29621860  0.99027694  0.25404422  1
  P  P1  1  0.69494208  0.70478203  0.25111494  1
  P  P2  1  0.01112461  0.30365290  0.25165293  1
  P  P3  1  0.27808584  0.28767200  0.75319132  1
  P  P4  1  0.01660491  0.72368196  0.75343033  1
  P  P5  1  0.71231520  0.98613875  0.75019571  1
  P  P6  1  0.97083965  0.33413629  0.58579073  1
  P  P7  1  0.36336903  0.03096232  0.58086822  1
  P  P8  1  0.66592808  0.02999105  0.08328459  1
  P  P9  1  0.36172694  0.33579443  0.07944614  1
  P  P10  1  0.35196711  0.39331808  0.41857119  1
  P  P11  1  0.04040454  0.64873291  0.41686098  1
  O  O0  1  0.22858757  0.00207178  0.31517361  1
  O  O1  1  0.78131956  0.77774268  0.31186529  1
  O  O2  1  0.99397883  0.21240917  0.31150480  1
  O  O3  1  0.18088942  0.19164829  0.81152584  1
  O  O4  1  0.01699333  0.82171082  0.81059174  1
  O  O5  1  0.82120345  0.98222941  0.80466207  1
  O  O6  1  0.80209553  0.97869018  0.69058833  1
  O  O7  1  0.16987149  0.18227025  0.69721860  1
  O  O8  1  0.01430144  0.82595793  0.69591931  1
  O  O9  1  0.80440313  0.82983159  0.19744113  1
  O  O10  1  0.01660779  0.19584023  0.19612944  1
  O  O11  1  0.17092032  0.98549813  0.20146736  1
  O  O12  1  0.90569587  0.36179084  0.64556153  1
  O  O13  1  0.48440483  0.09073777  0.63493036  1
  O  O14  1  0.63001291  0.53656702  0.65008630  1
  O  O15  1  0.91703182  0.53010241  0.14477590  1
  O  O16  1  0.63928131  0.08124902  0.14572855  1
  O  O17  1  0.47685763  0.38190912  0.13416358  1
  O  O18  1  0.44515713  0.30919989  0.02181987  1
  O  O19  1  0.83072169  0.53153859  0.02880691  1
  O  O20  1  0.68492247  0.16660249  0.03485587  1
  O  O21  1  0.45794009  0.14868964  0.52410444  1
  O  O22  1  0.68433260  0.51828189  0.53030035  1
  O  O23  1  0.83598802  0.30866187  0.53251113  1
  O  O24  1  0.52997464  0.68474521  0.97510370  1
  O  O25  1  0.16652536  0.47103122  0.97077747  1
  O  O26  1  0.30536563  0.82909464  0.96842976  1
  O  O27  1  0.50138247  0.84911222  0.47451908  1
  O  O28  1  0.34714240  0.49165425  0.47436975  1
  O  O29  1  0.14820260  0.64530845  0.46989393  1
  O  O30  1  0.12399025  0.63459116  0.35627941  1
  O  O31  1  0.49975793  0.86013570  0.35559790  1
  O  O32  1  0.35664903  0.49865226  0.36075862  1
  O  O33  1  0.12899121  0.50159305  0.85424961  1
  O  O34  1  0.36662438  0.86750834  0.85448863  1
  O  O35  1  0.49733990  0.63364903  0.85606182  1
  O  O36  1  0.02399182  0.80979456  0.42002867  1
  O  O37  1  0.80364144  0.98316464  0.42221552  1
  O  O38  1  0.19559151  0.21206123  0.41945572  1
  O  O39  1  0.01508371  0.18396160  0.90991532  1
  O  O40  1  0.17219404  0.98829968  0.91116140  1
  O  O41  1  0.82201581  0.82671177  0.91053468  1
  O  O42  1  0.97089358  0.16179841  0.58523581  1
  O  O43  1  0.19306081  0.03207240  0.58900512  1
  O  O44  1  0.84558888  0.82619970  0.58832203  1
  O  O45  1  0.97918707  0.82543121  0.09257903  1
  O  O46  1  0.83943032  0.02634890  0.08276915  1
  O  O47  1  0.18059183  0.17027520  0.08924830  1
  O  O48  1  0.70618634  0.15177467  0.75482187  1
  O  O49  1  0.45932614  0.31329096  0.75620207  1
  O  O50  1  0.85411940  0.54487511  0.75503816  1
  O  O51  1  0.67488326  0.52810102  0.24426694  1
  O  O52  1  0.85233733  0.32463821  0.24717091  1
  O  O53  1  0.47976850  0.13551980  0.24634704  1
  O  O54  1  0.64269478  0.49248879  0.92179813  1
  O  O55  1  0.85240004  0.36389203  0.92495579  1
  O  O56  1  0.50929567  0.15415400  0.92400679  1
  O  O57  1  0.63136285  0.15546035  0.42033122  1
  O  O58  1  0.52040386  0.38458117  0.41880570  1
  O  O59  1  0.85619548  0.48601950  0.42062907  1
  O  O60  1  0.32769413  0.48847672  0.07247405  1
  O  O61  1  0.16412122  0.66469237  0.06954274  1
  O  O62  1  0.51618070  0.84649456  0.07063950  1
  O  O63  1  0.31869517  0.84295818  0.56972851  1
  O  O64  1  0.51147167  0.67946789  0.57482881  1
  O  O65  1  0.15072417  0.48635415  0.57288578  1
  O  O66  1  0.28793005  0.81192888  0.24890475  1
  O  O67  1  0.51932555  0.70431133  0.24889733  1
  O  O68  1  0.17939758  0.48243308  0.25086702  1
  O  O69  1  0.28762054  0.46595043  0.74996798  1
  O  O70  1  0.17843794  0.70385212  0.74982329  1
  O  O71  1  0.53227757  0.82006070  0.75094686  1
loop_
_geom_bond_atom_site_label_1
_geom_bond_atom_site_label_2
_geom_bond_distance
_geom_bond_site_symmetry_2
Na0 O42 2.427500 1_455
Na0 O44 2.427967 1_445
Na0 O43 2.436652 1_555
Na0 O37 2.504284 1_445
Na0 O38 2.575653 1_555
Na0 O36 2.600554 1_545
Na1 O46 2.381921 1_555
Na1 O47 2.505000 1_655
Na1 O45 2.537668 1_545
Na1 O39 2.538704 1_654
Na1 O41 2.541521 1_544
Na1 O40 2.579039 1_644
Na2 O56 2.368814 1_555
Na2 O48 2.391186 1_555
Na2 O49 2.457315 1_555
Na2 O55 2.584229 1_555
Na2 O54 2.649574 1_555
Na2 O50 2.701386 1_555
Na3 O53 2.403937 1_555
Na3 O51 2.436825 1_555
Na3 O58 2.527361 1_555
Na3 O52 2.551553 1_555
Na3 O57 2.595409 1_555
Na3 O59 2.684693 1_555
Na4 O66 2.461693 1_555
Na4 O61 2.483819 1_555
Na4 O68 2.494582 1_555
Na4 O67 2.502308 1_555
Na4 O60 2.541238 1_555
Na4 O62 2.608553 1_555
Na5 O70 2.393049 1_555
Na5 O69 2.490474 1_555
Na5 O71 2.540824 1_555
Na5 O65 2.567575 1_555
Na5 O64 2.602919 1_555
Na5 O63 2.668384 1_555
Na6 O16 2.246487 1_555
Na6 O53 2.370037 1_555
Na6 O67 2.412024 1_545
Na6 O52 2.462478 1_555
Na7 O15 2.274476 1_555
Na7 O52 2.360451 1_555
Na7 O66 2.370216 1_655
Na7 O51 2.481451 1_555
Na7 O68 2.645248 1_655
Na7 O30 2.794045 1_655
Na7 O11 2.943489 1_655
Na8 O14 2.258846 1_555
Na8 O71 2.358966 1_555
Na8 O49 2.382003 1_555
Na8 O50 2.474115 1_555
Na8 O69 2.619748 1_555
Na8 O35 2.716498 1_555
Na9 O12 2.338160 1_555
Na9 O69 2.346225 1_655
Na9 O48 2.369601 1_555
Na9 O50 2.405440 1_555
Na9 O70 2.544434 1_655
Na9 O33 2.647493 1_655
Na10 O64 2.364939 1_555
Na10 O42 2.381406 1_565
Na10 O13 2.538175 1_565
Na10 O6 2.577989 1_555
Na10 O44 2.605149 1_555
Na10 O63 2.754091 1_555
Na10 O23 2.837105 1_565
Na10 O27 2.837759 1_555
Na11 O62 2.411324 1_555
Na11 O45 2.505712 1_555
Na11 O24 2.596421 1_554
Na11 O60 2.597577 1_555
Na11 O17 2.647461 1_555
Na11 O46 2.683567 1_565
Na11 O19 2.768438 1_555
Na11 O9 2.898455 1_555
Na12 O60 2.400020 1_555
Na12 O46 2.470439 1_455
Na12 O61 2.557724 1_555
Na12 O47 2.577769 1_555
Na12 O15 2.658252 1_455
Na12 O10 2.733365 1_555
Na12 O25 2.851105 1_554
Na12 O20 2.859831 1_455
Na13 O41 2.387347 1_555
Na13 O55 2.413838 1_555
Na13 O40 2.519884 1_655
Na13 O54 2.549488 1_555
Na13 O4 2.629351 1_655
Na13 O19 2.785600 1_556
Na13 O26 2.851525 1_655
Na13 O33 2.903044 1_655
Na14 O54 2.420276 1_555
Na14 O40 2.450714 1_545
Na14 O18 2.459465 1_556
Na14 O39 2.521327 1_555
Na14 O56 2.522575 1_555
Na14 O3 2.670847 1_555
Na14 O25 2.877563 1_555
Na14 O35 2.943033 1_555
Na15 O37 2.386687 1_545
Na15 O2 2.398471 1_555
Na15 O59 2.414217 1_555
Na15 O38 2.528877 1_655
Na15 O57 2.588303 1_555
Na16 O0 2.336190 1_555
Na16 O57 2.360345 1_555
Na16 O38 2.434019 1_555
Na16 O36 2.478638 1_545
Na16 O21 2.643849 1_555
Na16 O58 2.717329 1_555
Na17 O58 2.365928 1_555
Na17 O1 2.401394 1_555
Na17 O36 2.408384 1_655
Na17 O37 2.417086 1_555
Na17 O59 2.649033 1_555
Na17 O22 2.887597 1_555
Ca0 O2 2.147690 1_455
Ca0 O1 2.187047 1_445
Ca0 O0 2.188589 1_555
Ca0 O37 2.316970 1_445
Ca0 O38 2.344013 1_555
Ca0 O36 2.359535 1_545
Ca1 O14 2.178120 1_555
Ca1 O13 2.202015 1_555
Ca1 O12 2.285538 1_555
Ca1 O49 2.322554 1_555
Ca1 O48 2.384843 1_555
Ca1 O50 2.419889 1_555
Ca2 O17 2.158319 1_555
Ca2 O15 2.213913 1_555
Ca2 O16 2.238426 1_555
Ca2 O53 2.288724 1_555
Ca2 O51 2.307137 1_555
Ca2 O52 2.329984 1_555
O0 P0 1.509352 1_545
O1 P1 1.521477 1_555
O2 P2 1.523021 1_655
O3 P3 1.555897 1_555
O3 Ti0 1.978755 1_455
O4 P4 1.541843 1_555
O4 Ti0 2.017065 1_465
O5 P5 1.559113 1_555
O5 Ti0 1.911748 1_565
O6 P5 1.567147 1_555
O6 Ti1 2.020998 1_655
O7 P3 1.562350 1_555
O7 Ti1 1.966754 1_545
O8 P4 1.575064 1_555
O8 Ti1 1.891526 1_555
O9 P1 1.593191 1_555
O9 Ti2 2.025023 1_665
O10 P2 1.583121 1_555
O10 Ti2 2.024430 1_555
O11 P0 1.599805 1_555
O11 Ti2 1.902365 1_565
O12 P6 1.518071 1_555
O13 P7 1.516718 1_555
O14 Si0 1.580340 1_555
O15 Si1 1.591834 1_555
O16 P8 1.513362 1_555
O17 P9 1.503919 1_555
O18 P9 1.559846 1_555
O18 Ti3 2.146731 1_554
O19 Si1 1.687322 1_555
O19 Ti3 1.937420 1_554
O20 P8 1.574588 1_555
O20 Ti3 2.014727 1_554
O21 P7 1.587914 1_555
O21 Ti4 1.986556 1_555
O22 Si0 1.701245 1_555
O22 Ti4 1.846118 1_555
O23 P6 1.617290 1_555
O23 Ti4 1.924443 1_555
O24 Si2 1.617616 1_555
O24 Ti5 1.935430 1_556
O25 Si3 1.624580 1_555
O25 Ti5 1.897869 1_556
O26 Si4 1.621601 1_555
O26 Ti5 1.834927 1_556
O27 Si5 1.635931 1_555
O27 Ti6 1.854589 1_555
O28 P10 1.533439 1_555
O28 Ti6 1.942987 1_555
O29 P11 1.527124 1_555
O29 Ti6 1.972868 1_555
O30 P11 1.574638 1_555
O30 Ti7 2.055838 1_555
O31 Si5 1.697943 1_555
O31 Ti7 1.874987 1_555
O32 P10 1.578600 1_555
O32 Ti7 1.948839 1_555
O33 Si3 1.663812 1_555
O33 Ti8 1.925668 1_555
O34 Si4 1.664012 1_555
O34 Ti8 1.822456 1_555
O35 Si2 1.666389 1_555
O35 Ti8 1.894742 1_555
O36 P11 1.535599 1_555
O37 Si5 1.612607 1_555
O38 P10 1.530406 1_555
O39 Si3 1.640941 1_555
O39 Ti0 1.944888 1_455
O40 Si4 1.652580 1_555
O40 Ti0 2.004260 1_465
O41 Si2 1.647489 1_555
O41 Ti0 1.950308 1_565
O42 P6 1.556334 1_555
O42 Ti1 2.172115 1_645
O43 P7 1.549377 1_555
O43 Ti1 2.004436 1_545
O44 Si0 1.668078 1_555
O44 Ti1 1.933757 1_655
O45 Si1 1.669612 1_555
O45 Ti2 1.921536 1_665
O46 P8 1.578581 1_555
O46 Ti2 2.215390 1_655
O47 P9 1.577721 1_555
O47 Ti2 2.021328 1_555
O48 P5 1.527621 1_545
O49 P3 1.529185 1_555
O50 P4 1.539838 1_655
O51 P1 1.520190 1_555
O52 P2 1.536024 1_655
O53 P0 1.516634 1_545
O54 Si2 1.655374 1_555
O54 Ti3 2.004070 1_555
O55 Si3 1.638462 1_655
O55 Ti3 1.941607 1_555
O56 Si4 1.620511 1_545
O56 Ti3 1.987589 1_555
O57 Si5 1.647227 1_545
O57 Ti4 2.095178 1_555
O58 P10 1.557250 1_555
O58 Ti4 2.189045 1_555
O59 P11 1.569817 1_655
O59 Ti4 2.124352 1_555
O60 P9 1.562575 1_555
O60 Ti5 2.097441 1_555
O61 Si1 1.631223 1_455
O61 Ti5 1.930516 1_555
O62 P8 1.546060 1_565
O62 Ti5 2.064872 1_555
O63 P7 1.554737 1_565
O63 Ti6 1.983456 1_555
O64 Si0 1.666387 1_555
O64 Ti6 1.911618 1_555
O65 P6 1.534899 1_455
O65 Ti6 2.029376 1_555
O66 P0 1.578330 1_555
O66 Ti7 2.093610 1_555
O67 P1 1.579085 1_555
O67 Ti7 2.038295 1_555
O68 P2 1.562060 1_555
O68 Ti7 2.056880 1_555
O69 P3 1.569742 1_555
O69 Ti8 2.252059 1_555
O70 P4 1.556885 1_555
O70 Ti8 2.130005 1_555
O71 P5 1.558821 1_555
O71 Ti8 2.144112 1_555
