# generated using pymatgen
data_Na3Ca3SnPS5O24
_symmetry_space_group_name_H-M   'P 1'
_cell_length_a   9.16982986
_cell_length_b   9.15942623
_cell_length_c   23.57946709
_cell_angle_alpha   90.01520938
_cell_angle_beta   89.99959067
_cell_angle_gamma   120.29470361
_symmetry_Int_Tables_number   1
_chemical_formula_structural   Na3Ca3SnPS5O24
_chemical_formula_sum   'Na9 Ca9 Sn3 P3 S15 O72'
_cell_volume   1710.00262016
_cell_formula_units_Z   3
loop_
 _symmetry_equiv_pos_site_id
 _symmetry_equiv_pos_as_xyz
  1  'x, y, z'
loop_
 _atom_site_type_symbol
 _atom_site_label
 _atom_site_symmetry_multiplicity
 _atom_site_fract_x
 _atom_site_fract_y
 _atom_site_fract_z
 _atom_site_occupancy
  Na  Na0  1  0.35843405  0.35655206  0.25441889  1
  Na  Na1  1  0.02828621  0.69781618  0.58470082  1
  Na  Na2  1  0.29669420  0.96158314  0.07281554  1
  Na  Na3  1  0.98396987  0.99996333  0.50298923  1
  Na  Na4  1  0.00095175  0.01762726  0.98564302  1
  Na  Na5  1  0.66702859  0.32402569  0.83172482  1
  Na  Na6  1  0.68580207  0.33317915  0.33567877  1
  Na  Na7  1  0.33337827  0.66748130  0.17129244  1
  Na  Na8  1  0.37106076  0.66234624  0.66949213  1
  Ca  Ca0  1  0.99284716  0.99082546  0.35317133  1
  Ca  Ca1  1  0.00521271  0.00277493  0.85145058  1
  Ca  Ca2  1  0.99170699  0.00401694  0.65349968  1
  Ca  Ca3  1  0.98613149  0.99448691  0.14720918  1
  Ca  Ca4  1  0.65966650  0.33190737  0.68858080  1
  Ca  Ca5  1  0.68120707  0.33778434  0.18588315  1
  Ca  Ca6  1  0.33088337  0.65830587  0.01386745  1
  Ca  Ca7  1  0.34473261  0.66359740  0.51650453  1
  Ca  Ca8  1  0.33517688  0.67927050  0.32298089  1
  Sn  Sn0  1  0.67236774  0.33231645  0.97617008  1
  Sn  Sn1  1  0.66170075  0.33645032  0.48626058  1
  Sn  Sn2  1  0.32482517  0.66815025  0.82378196  1
  P  P0  1  0.67506237  0.63091246  0.58272791  1
  P  P1  1  0.02767122  0.37123082  0.91730419  1
  P  P2  1  0.34176560  0.97021224  0.92158826  1
  S  S0  1  0.29815168  0.99906519  0.24678953  1
  S  S1  1  0.68838879  0.69284548  0.25082227  1
  S  S2  1  0.00828216  0.30408923  0.25166714  1
  S  S3  1  0.30239484  0.32140634  0.75492601  1
  S  S4  1  0.01556099  0.69800495  0.75177216  1
  S  S5  1  0.67948473  0.98329517  0.75583585  1
  S  S6  1  0.95236062  0.32931306  0.58006194  1
  S  S7  1  0.36723087  0.03898979  0.58067090  1
  S  S8  1  0.95924191  0.62922426  0.07814680  1
  S  S9  1  0.66744240  0.04459717  0.07912505  1
  S  S10  1  0.38103798  0.32951409  0.08171550  1
  S  S11  1  0.62584052  0.65377852  0.91713121  1
  S  S12  1  0.64048831  0.99100954  0.42083207  1
  S  S13  1  0.34513947  0.35849064  0.41669477  1
  S  S14  1  0.01602688  0.65380185  0.42286899  1
  O  O0  1  0.20301432  0.01115080  0.29547074  1
  O  O1  1  0.78498580  0.77963126  0.30194700  1
  O  O2  1  0.99578435  0.20433738  0.30242214  1
  O  O3  1  0.21543682  0.21872861  0.80444211  1
  O  O4  1  0.99976652  0.79022157  0.79966014  1
  O  O5  1  0.78400653  0.00013643  0.80482027  1
  O  O6  1  0.74877223  0.95888703  0.70209901  1
  O  O7  1  0.20673115  0.24889180  0.70168628  1
  O  O8  1  0.03638700  0.78786911  0.69700172  1
  O  O9  1  0.77202523  0.78576569  0.19835674  1
  O  O10  1  0.02109112  0.22019916  0.19934357  1
  O  O11  1  0.20887158  0.98567209  0.19243115  1
  O  O12  1  0.86499129  0.34187310  0.62993047  1
  O  O13  1  0.47126644  0.12194393  0.63002180  1
  O  O14  1  0.66544863  0.52560942  0.63368506  1
  O  O15  1  0.87413953  0.53460825  0.12958961  1
  O  O16  1  0.65420580  0.13056567  0.12971289  1
  O  O17  1  0.47049251  0.34131896  0.13492277  1
  O  O18  1  0.47569674  0.31227587  0.03115130  1
  O  O19  1  0.85809582  0.54065631  0.02556581  1
  O  O20  1  0.68531159  0.14743723  0.02633492  1
  O  O21  1  0.45084511  0.13694748  0.52607426  1
  O  O22  1  0.70075506  0.54482354  0.52612799  1
  O  O23  1  0.84716426  0.30272243  0.52630362  1
  O  O24  1  0.55084906  0.67201607  0.96906644  1
  O  O25  1  0.12676555  0.45278067  0.97060763  1
  O  O26  1  0.33179557  0.88372152  0.97777072  1
  O  O27  1  0.55409371  0.88945078  0.47080076  1
  O  O28  1  0.33123120  0.44946052  0.46556320  1
  O  O29  1  0.11035564  0.66802986  0.47504440  1
  O  O30  1  0.09910736  0.63544362  0.37189917  1
  O  O31  1  0.54396900  0.91743970  0.36813349  1
  O  O32  1  0.36823289  0.45194532  0.36285325  1
  O  O33  1  0.11531028  0.48301877  0.86255599  1
  O  O34  1  0.37202569  0.87803264  0.86948326  1
  O  O35  1  0.51723310  0.62772199  0.86566731  1
  O  O36  1  0.98917509  0.79944402  0.41863682  1
  O  O37  1  0.81346559  0.01837234  0.41774710  1
  O  O38  1  0.19855650  0.18537634  0.41504201  1
  O  O39  1  0.99345679  0.19197625  0.91059442  1
  O  O40  1  0.18883185  0.99085566  0.91323839  1
  O  O41  1  0.79701552  0.79838977  0.91018689  1
  O  O42  1  0.97978223  0.18422431  0.58184469  1
  O  O43  1  0.19944104  0.02649652  0.58271988  1
  O  O44  1  0.84174892  0.80517149  0.58271448  1
  O  O45  1  0.97901800  0.80088908  0.07783110  1
  O  O46  1  0.81719365  0.02454532  0.07984870  1
  O  O47  1  0.21379778  0.16938503  0.08048442  1
  O  O48  1  0.65203569  0.12895287  0.75235697  1
  O  O49  1  0.47539233  0.34814168  0.75204799  1
  O  O50  1  0.87014103  0.52322042  0.75054151  1
  O  O51  1  0.66496373  0.51836400  0.25040928  1
  O  O52  1  0.86047834  0.32849042  0.25042473  1
  O  O53  1  0.46617040  0.15992932  0.24731593  1
  O  O54  1  0.63508423  0.49213984  0.91956464  1
  O  O55  1  0.85145842  0.36838152  0.91840227  1
  O  O56  1  0.50851563  0.15334159  0.92054546  1
  O  O57  1  0.65355470  0.16468059  0.42480854  1
  O  O58  1  0.50539144  0.34600773  0.42191041  1
  O  O59  1  0.84292091  0.49162318  0.42401909  1
  O  O60  1  0.36140911  0.47858968  0.07689989  1
  O  O61  1  0.13092045  0.65028138  0.07696147  1
  O  O62  1  0.50926324  0.87759336  0.07690736  1
  O  O63  1  0.33973813  0.86484194  0.57594921  1
  O  O64  1  0.51839149  0.64823388  0.57765347  1
  O  O65  1  0.11507658  0.49133077  0.57479157  1
  O  O66  1  0.32204114  0.85088357  0.25127330  1
  O  O67  1  0.51459043  0.67059606  0.25233186  1
  O  O68  1  0.16858912  0.47280609  0.25389833  1
  O  O69  1  0.31690219  0.49574992  0.76008015  1
  O  O70  1  0.17812178  0.68999641  0.75785925  1
  O  O71  1  0.50611049  0.82108716  0.76148099  1
loop_
_geom_bond_atom_site_label_1
_geom_bond_atom_site_label_2
_geom_bond_distance
_geom_bond_site_symmetry_2
Na0 O51 2.429688 1_555
Na0 O68 2.456567 1_555
Na0 O53 2.458117 1_555
Na0 O67 2.484235 1_555
Na0 O32 2.688581 1_555
Na1 O44 2.364724 1_455
Na1 O65 2.404846 1_555
Na1 O63 2.476215 1_555
Na1 O43 2.600343 1_565
Na1 O29 2.744642 1_555
Na1 O8 2.763110 1_555
Na2 O47 2.385949 1_565
Na2 O26 2.421880 1_554
Na2 O62 2.431771 1_555
Na2 O61 2.465298 1_555
Na2 O45 2.518036 1_455
Na3 O44 2.464195 1_555
Na3 O42 2.524057 1_565
Na3 O37 2.603671 1_565
Na3 O43 2.648162 1_665
Na3 O36 2.723618 1_555
Na3 O38 2.772518 1_665
Na4 O39 2.408042 1_455
Na4 O40 2.523681 1_545
Na4 O41 2.627671 1_445
Na4 O46 2.808060 1_456
Na4 O47 2.829116 1_556
Na4 O45 2.882028 1_446
Na5 O48 2.542464 1_555
Na5 O55 2.551224 1_555
Na5 O56 2.579192 1_555
Na5 O50 2.652464 1_555
Na5 O49 2.656752 1_555
Na5 O54 2.683315 1_555
Na6 O59 2.531761 1_555
Na6 O57 2.535253 1_555
Na6 O52 2.584153 1_555
Na6 O58 2.660990 1_555
Na6 O51 2.699060 1_555
Na6 O53 2.772978 1_555
Na7 O67 2.523016 1_555
Na7 O68 2.557383 1_555
Na7 O66 2.562008 1_555
Na7 O61 2.850196 1_555
Na7 O62 2.851093 1_555
Na7 O60 2.908594 1_555
Na8 O69 2.524840 1_555
Na8 O71 2.556204 1_555
Na8 O64 2.589849 1_555
Na8 O70 2.826233 1_555
Na8 O63 2.987858 1_555
Na8 O65 3.039484 1_555
Ca0 O1 2.261147 1_555
Ca0 O2 2.281518 1_565
Ca0 O0 2.288660 1_665
Ca0 O36 2.323502 1_555
Ca0 O38 2.338663 1_665
Ca0 O37 2.346558 1_565
Ca1 O3 2.238621 1_555
Ca1 O39 2.268671 1_455
Ca1 O40 2.270497 1_545
Ca1 O4 2.277002 1_445
Ca1 O5 2.296646 1_455
Ca1 O41 2.337319 1_445
Ca2 O44 2.337849 1_545
Ca2 O6 2.348992 1_545
Ca2 O7 2.397142 1_655
Ca2 O42 2.403062 1_555
Ca2 O8 2.441114 1_645
Ca2 O43 2.461871 1_655
Ca3 O9 2.275605 1_555
Ca3 O10 2.284311 1_665
Ca3 O46 2.330010 1_565
Ca3 O11 2.341313 1_655
Ca3 O45 2.388845 1_555
Ca3 O47 2.455032 1_665
Ca4 O14 2.175410 1_555
Ca4 O13 2.288298 1_555
Ca4 O12 2.300525 1_555
Ca4 O49 2.317398 1_555
Ca4 O50 2.348765 1_555
Ca4 O48 2.364797 1_555
Ca5 O15 2.219311 1_555
Ca5 O16 2.223169 1_555
Ca5 O52 2.273092 1_555
Ca5 O17 2.289446 1_555
Ca5 O51 2.306528 1_555
Ca5 O53 2.323939 1_555
Ca6 O25 2.128798 1_554
Ca6 O24 2.223666 1_554
Ca6 O26 2.229555 1_554
Ca6 O61 2.333443 1_555
Ca6 O60 2.337341 1_555
Ca6 O62 2.367100 1_555
Ca7 O64 2.204720 1_555
Ca7 O28 2.249194 1_555
Ca7 O27 2.262928 1_555
Ca7 O63 2.334156 1_555
Ca7 O65 2.337119 1_555
Ca7 O29 2.380020 1_555
Ca8 O30 2.302419 1_555
Ca8 O31 2.311509 1_555
Ca8 O66 2.353006 1_555
Ca8 O67 2.370622 1_555
Ca8 O68 2.376354 1_555
Ca8 O32 2.439062 1_555
O0 S0 1.479289 1_545
O1 S1 1.469295 1_555
O2 S2 1.474834 1_655
O3 S3 1.458594 1_555
O4 S4 1.460259 1_655
O5 S5 1.458514 1_545
O6 S5 1.484018 1_555
O7 S3 1.482684 1_555
O8 S4 1.491243 1_555
O9 S1 1.478173 1_555
O10 S2 1.488935 1_555
O11 S0 1.492233 1_555
O12 S6 1.459683 1_555
O13 S7 1.452508 1_555
O14 P0 1.515452 1_555
O15 S8 1.466157 1_555
O16 S9 1.467496 1_555
O17 S10 1.472764 1_555
O18 S10 1.529066 1_555
O18 Sn0 2.152422 1_554
O19 S8 1.515223 1_555
O19 Sn0 2.149091 1_554
O20 S9 1.519364 1_555
O20 Sn0 2.117700 1_554
O21 S7 1.535169 1_555
O21 Sn1 2.096476 1_555
O22 P0 1.626434 1_555
O22 Sn1 1.991003 1_555
O23 S6 1.536050 1_555
O23 Sn1 2.099869 1_555
O24 S11 1.454719 1_555
O25 P1 1.509333 1_555
O26 P2 1.522630 1_555
O27 S12 1.462271 1_555
O28 S13 1.464588 1_555
O29 S14 1.471372 1_555
O30 S14 1.477231 1_555
O31 S12 1.476262 1_555
O32 S13 1.485606 1_555
O33 P1 1.590991 1_555
O33 Sn2 2.028884 1_555
O34 P2 1.592214 1_555
O34 Sn2 2.050283 1_555
O35 S11 1.510438 1_555
O35 Sn2 2.210166 1_555
O36 S14 1.477023 1_655
O37 S12 1.477491 1_545
O38 S13 1.473822 1_555
O39 P1 1.516363 1_655
O40 P2 1.519448 1_555
O41 S11 1.465463 1_555
O42 S6 1.472485 1_555
O43 S7 1.484959 1_555
O44 P0 1.556441 1_555
O45 S8 1.489149 1_555
O46 S9 1.474495 1_555
O47 S10 1.494840 1_555
O48 S5 1.479482 1_545
O49 S3 1.479590 1_555
O50 S4 1.479241 1_655
O51 S1 1.501322 1_555
O52 S2 1.481001 1_655
O53 S0 1.501527 1_545
O54 S11 1.526127 1_555
O54 Sn0 2.132447 1_555
O55 P1 1.603044 1_655
O55 Sn0 2.028386 1_555
O56 P2 1.601437 1_545
O56 Sn0 2.044269 1_555
O57 S12 1.536617 1_545
O57 Sn1 2.112045 1_555
O58 S13 1.535284 1_555
O58 Sn1 2.119226 1_555
O59 S14 1.532356 1_655
O59 Sn1 2.133927 1_555
O60 S10 1.468937 1_555
O61 S8 1.486592 1_455
O62 S9 1.485921 1_565
O63 S7 1.488112 1_565
O64 P0 1.527550 1_555
O65 S6 1.486652 1_455
O66 S0 1.483699 1_555
O67 S1 1.501670 1_555
O68 S2 1.503277 1_555
O69 S3 1.538860 1_555
O69 Sn2 2.153593 1_555
O70 S4 1.535695 1_555
O70 Sn2 2.130193 1_555
O71 S5 1.539375 1_555
O71 Sn2 2.129655 1_555
