# generated using pymatgen
data_Sr3(GeN)2
_symmetry_space_group_name_H-M   'P 1'
_cell_length_a   3.88487592
_cell_length_b   9.05306976
_cell_length_c   9.65555984
_cell_angle_alpha   112.50075228
_cell_angle_beta   90.00000000
_cell_angle_gamma   90.00000000
_symmetry_Int_Tables_number   1
_chemical_formula_structural   Sr3(GeN)2
_chemical_formula_sum   'Sr6 Ge4 N4'
_cell_volume   313.73535558
_cell_formula_units_Z   2
loop_
 _symmetry_equiv_pos_site_id
 _symmetry_equiv_pos_as_xyz
  1  'x, y, z'
loop_
 _atom_site_type_symbol
 _atom_site_label
 _atom_site_symmetry_multiplicity
 _atom_site_fract_x
 _atom_site_fract_y
 _atom_site_fract_z
 _atom_site_occupancy
  Sr  Sr0  1  0.25000000  0.11891717  0.35333611  1
  Sr  Sr1  1  0.75000000  0.88108283  0.64666389  1
  Sr  Sr2  1  0.25000000  0.51912306  0.66998974  1
  Sr  Sr3  1  0.75000000  0.48087694  0.33001026  1
  Sr  Sr4  1  0.25000000  0.31661967  0.94356893  1
  Sr  Sr5  1  0.75000000  0.68338033  0.05643107  1
  Ge  Ge0  1  0.25000000  0.91601915  0.94360904  1
  Ge  Ge1  1  0.75000000  0.08398085  0.05639096  1
  Ge  Ge2  1  0.75000000  0.24252430  0.65169634  1
  Ge  Ge3  1  0.25000000  0.75747570  0.34830366  1
  N  N0  1  0.25000000  0.56983008  0.17408042  1
  N  N1  1  0.75000000  0.43016992  0.82591958  1
  N  N2  1  0.25000000  0.68459721  0.50670047  1
  N  N3  1  0.75000000  0.31540279  0.49329953  1
loop_
_geom_bond_atom_site_label_1
_geom_bond_atom_site_label_2
_geom_bond_distance
_geom_bond_site_symmetry_2
Ge0 Ge1 2.450240 1_566
Ge0 Ge1 2.450240 1_466
Ge0 Sr5 3.339377 1_456
Ge0 Sr5 3.339377 1_556
Ge0 Sr1 3.376343 1_555
Ge0 Sr1 3.376343 1_455
Ge0 Sr2 3.553127 1_555
Ge0 Sr4 3.626813 1_565
Ge0 Sr0 3.669212 1_566
Ge1 Sr4 3.339377 1_654
Ge1 Sr4 3.339377 1_554
Ge1 Sr0 3.376343 1_655
Ge1 Sr0 3.376343 1_555
Ge1 Sr3 3.553127 1_555
Ge1 Sr5 3.626813 1_545
Ge1 Sr1 3.669212 1_544
Ge2 N1 1.878410 1_555
Ge2 N3 1.883275 1_555
Ge3 N0 1.878410 1_555
Ge3 N2 1.883275 1_555
N0 Sr4 2.510680 1_554
N0 Sr5 2.648400 1_455
N0 Sr5 2.648400 1_555
N0 Sr3 2.759777 1_455
N0 Sr3 2.759777 1_555
N1 Sr5 2.510680 1_556
N1 Sr4 2.648400 1_555
N1 Sr4 2.648400 1_655
N1 Sr2 2.759777 1_555
N1 Sr2 2.759777 1_655
N2 Sr2 2.556902 1_555
N2 Sr1 2.631274 1_455
N2 Sr1 2.631274 1_555
N2 Sr3 2.770705 1_555
N2 Sr3 2.770705 1_455
N3 Sr3 2.556902 1_555
N3 Sr0 2.631274 1_555
N3 Sr0 2.631274 1_655
N3 Sr2 2.770705 1_555
N3 Sr2 2.770705 1_655
