# generated using pymatgen
data_Na2MgTa(PO4)3
_symmetry_space_group_name_H-M   'P 1'
_cell_length_a   8.84846353
_cell_length_b   8.80031978
_cell_length_c   22.31458907
_cell_angle_alpha   89.99999999
_cell_angle_beta   90.21648745
_cell_angle_gamma   119.82018070
_symmetry_Int_Tables_number   1
_chemical_formula_structural   Na2MgTa(PO4)3
_chemical_formula_sum   'Na12 Mg6 Ta6 P18 O72'
_cell_volume   1507.52946620
_cell_formula_units_Z   6
loop_
 _symmetry_equiv_pos_site_id
 _symmetry_equiv_pos_as_xyz
  1  'x, y, z'
loop_
 _atom_site_type_symbol
 _atom_site_label
 _atom_site_symmetry_multiplicity
 _atom_site_fract_x
 _atom_site_fract_y
 _atom_site_fract_z
 _atom_site_occupancy
  Na  Na0  1  0.98878599  0.63330020  0.24666939  1
  Na  Na1  1  0.98878599  0.35548579  0.74666939  1
  Na  Na2  1  0.65545299  0.96663320  0.58000239  1
  Na  Na3  1  0.65545299  0.68881879  0.08000239  1
  Na  Na4  1  0.32211899  0.29996720  0.91333639  1
  Na  Na5  1  0.32211899  0.02215279  0.41333639  1
  Na  Na6  1  0.99697511  0.00078204  0.49159583  1
  Na  Na7  1  0.99697511  0.99619307  0.99159583  1
  Na  Na8  1  0.66364211  0.33411504  0.82492883  1
  Na  Na9  1  0.66364211  0.32952607  0.32492883  1
  Na  Na10  1  0.33030811  0.66744904  0.15826283  1
  Na  Na11  1  0.33030811  0.66286007  0.65826283  1
  Mg  Mg0  1  0.99449037  0.00045240  0.35262139  1
  Mg  Mg1  1  0.99449037  0.99403797  0.85262139  1
  Mg  Mg2  1  0.66115737  0.33378540  0.68595439  1
  Mg  Mg3  1  0.66115737  0.32737097  0.18595439  1
  Mg  Mg4  1  0.32782337  0.66711940  0.01928839  1
  Mg  Mg5  1  0.32782337  0.66070497  0.51928839  1
  Ta  Ta0  1  0.00450237  0.99739196  0.64648924  1
  Ta  Ta1  1  0.00450237  0.00711041  0.14648924  1
  Ta  Ta2  1  0.67116937  0.33072496  0.97982224  1
  Ta  Ta3  1  0.67116937  0.34044341  0.47982224  1
  Ta  Ta4  1  0.33783537  0.66405896  0.31315624  1
  Ta  Ta5  1  0.33783537  0.67377741  0.81315624  1
  P  P0  1  0.29511598  0.00540088  0.25388783  1
  P  P1  1  0.71119332  0.71057611  0.25077809  1
  P  P2  1  0.99722277  0.28986034  0.25294662  1
  P  P3  1  0.29511598  0.28971510  0.75388783  1
  P  P4  1  0.99722277  0.70736243  0.75294662  1
  P  P5  1  0.71119332  0.00061721  0.75077809  1
  P  P6  1  0.96178298  0.33873388  0.58722083  1
  P  P7  1  0.37786032  0.04390911  0.58411109  1
  P  P8  1  0.66388977  0.62319334  0.58627962  1
  P  P9  1  0.96178298  0.62304810  0.08722083  1
  P  P10  1  0.66388977  0.04069543  0.08627962  1
  P  P11  1  0.37786032  0.33395021  0.08411109  1
  P  P12  1  0.62844898  0.67206788  0.92055483  1
  P  P13  1  0.04452632  0.37724311  0.91744509  1
  P  P14  1  0.33055577  0.95652734  0.91961362  1
  P  P15  1  0.62844898  0.95638210  0.42055483  1
  P  P16  1  0.33055577  0.37402943  0.41961362  1
  P  P17  1  0.04452632  0.66728421  0.41744509  1
  O  O0  1  0.21004468  0.01962152  0.31032399  1
  O  O1  1  0.82713093  0.79814933  0.30352735  1
  O  O2  1  0.97891978  0.18290298  0.30694643  1
  O  O3  1  0.21004468  0.19042316  0.81032399  1
  O  O4  1  0.97891978  0.79601681  0.80694643  1
  O  O5  1  0.82713093  0.02898160  0.80352735  1
  O  O6  1  0.79546007  0.96862094  0.69191129  1
  O  O7  1  0.16624436  0.19602037  0.69783815  1
  O  O8  1  0.02640458  0.82574945  0.69487349  1
  O  O9  1  0.79546007  0.82683913  0.19191129  1
  O  O10  1  0.02640458  0.20065513  0.19487349  1
  O  O11  1  0.16624436  0.97022399  0.19783815  1
  O  O12  1  0.87671168  0.35295452  0.64365699  1
  O  O13  1  0.49379793  0.13148233  0.63686035  1
  O  O14  1  0.64558678  0.51623598  0.64027943  1
  O  O15  1  0.87671168  0.52375616  0.14365699  1
  O  O16  1  0.64558678  0.12934981  0.14027943  1
  O  O17  1  0.49379793  0.36231460  0.13686035  1
  O  O18  1  0.46212707  0.30195394  0.02524429  1
  O  O19  1  0.83291136  0.52935337  0.03117115  1
  O  O20  1  0.69307158  0.15908245  0.02820649  1
  O  O21  1  0.46212707  0.16017213  0.52524429  1
  O  O22  1  0.69307158  0.53398813  0.52820649  1
  O  O23  1  0.83291136  0.30355699  0.53117115  1
  O  O24  1  0.54337768  0.68628852  0.97699099  1
  O  O25  1  0.16046393  0.46481633  0.97019435  1
  O  O26  1  0.31225278  0.84956998  0.97361343  1
  O  O27  1  0.54337768  0.85709016  0.47699099  1
  O  O28  1  0.31225278  0.46268381  0.47361343  1
  O  O29  1  0.16046393  0.69564860  0.47019435  1
  O  O30  1  0.12879307  0.63528794  0.35857829  1
  O  O31  1  0.49957736  0.86268737  0.36450515  1
  O  O32  1  0.35973758  0.49241645  0.36154049  1
  O  O33  1  0.12879307  0.49350613  0.85857829  1
  O  O34  1  0.35973758  0.86732213  0.86154049  1
  O  O35  1  0.49957736  0.63689099  0.86450515  1
  O  O36  1  0.01854584  0.82351470  0.40888628  1
  O  O37  1  0.80793850  0.98425172  0.41075702  1
  O  O38  1  0.18276834  0.18828071  0.41090838  1
  O  O39  1  0.01854584  0.19503114  0.90888628  1
  O  O40  1  0.18276834  0.99448763  0.91090838  1
  O  O41  1  0.80793850  0.82368678  0.91075702  1
  O  O42  1  0.96547444  0.15836248  0.58936861  1
  O  O43  1  0.19392354  0.03265089  0.59035694  1
  O  O44  1  0.83885902  0.81006587  0.58931367  1
  O  O45  1  0.96547444  0.80711196  0.08936861  1
  O  O46  1  0.83885902  0.02879315  0.08931367  1
  O  O47  1  0.19392354  0.16127265  0.09035694  1
  O  O48  1  0.68521284  0.15684770  0.74221928  1
  O  O49  1  0.47460550  0.31758472  0.74409002  1
  O  O50  1  0.84943534  0.52161371  0.74424138  1
  O  O51  1  0.68521284  0.52836414  0.24221928  1
  O  O52  1  0.84943534  0.32782063  0.24424138  1
  O  O53  1  0.47460550  0.15701978  0.24409002  1
  O  O54  1  0.63214144  0.49169548  0.92270161  1
  O  O55  1  0.86059054  0.36598389  0.92368994  1
  O  O56  1  0.50552602  0.14339887  0.92264667  1
  O  O57  1  0.63214144  0.14044496  0.42270161  1
  O  O58  1  0.50552602  0.36212615  0.42264667  1
  O  O59  1  0.86059054  0.49460565  0.42368994  1
  O  O60  1  0.35187884  0.49018170  0.07555328  1
  O  O61  1  0.14127150  0.65091872  0.07742402  1
  O  O62  1  0.51610134  0.85494771  0.07757538  1
  O  O63  1  0.35187884  0.86169814  0.57555328  1
  O  O64  1  0.51610134  0.66115463  0.57757538  1
  O  O65  1  0.14127150  0.49035378  0.57742402  1
  O  O66  1  0.29880744  0.82502948  0.25603561  1
  O  O67  1  0.52725654  0.69931789  0.25702394  1
  O  O68  1  0.17219202  0.47673287  0.25598067  1
  O  O69  1  0.29880744  0.47377896  0.75603561  1
  O  O70  1  0.17219202  0.69546015  0.75598067  1
  O  O71  1  0.52725654  0.82793965  0.75702394  1
loop_
_geom_bond_atom_site_label_1
_geom_bond_atom_site_label_2
_geom_bond_distance
_geom_bond_site_symmetry_2
Na0 O52 2.335188 1_555
Na0 O51 2.368330 1_555
Na0 O66 2.409999 1_655
Na0 O15 2.495731 1_555
Na0 O68 2.607036 1_655
Na0 O30 2.779592 1_655
Na0 O11 2.797655 1_655
Na0 O1 2.799632 1_555
Na1 O50 2.335180 1_555
Na1 O48 2.368332 1_555
Na1 O69 2.409998 1_655
Na1 O12 2.495730 1_555
Na1 O70 2.607043 1_655
Na1 O33 2.779594 1_655
Na1 O7 2.797655 1_655
Na1 O5 2.799632 1_555
Na2 O64 2.335179 1_555
Na2 O63 2.368339 1_555
Na2 O42 2.409999 1_565
Na2 O27 2.495711 1_555
Na2 O44 2.607036 1_555
Na2 O6 2.779592 1_555
Na2 O23 2.797655 1_565
Na2 O13 2.799632 1_565
Na3 O62 2.335195 1_555
Na3 O60 2.368336 1_555
Na3 O45 2.409998 1_555
Na3 O24 2.495714 1_554
Na3 O46 2.607043 1_565
Na3 O9 2.779594 1_555
Na3 O19 2.797655 1_555
Na3 O17 2.799632 1_555
Na4 O40 2.335188 1_545
Na4 O39 2.368330 1_555
Na4 O54 2.410003 1_555
Na4 O3 2.495731 1_555
Na4 O56 2.607049 1_555
Na4 O18 2.779578 1_556
Na4 O35 2.797655 1_555
Na4 O25 2.799632 1_555
Na5 O38 2.335180 1_555
Na5 O36 2.368332 1_545
Na5 O57 2.410006 1_555
Na5 O0 2.495730 1_555
Na5 O58 2.607034 1_555
Na5 O21 2.779574 1_555
Na5 O31 2.797655 1_545
Na5 O29 2.799632 1_545
Na6 O37 2.410026 1_545
Na6 O38 2.447784 1_655
Na6 O36 2.484996 1_645
Na6 O42 2.673928 1_555
Na6 O44 2.686396 1_545
Na6 O43 2.730808 1_655
Na7 O41 2.410026 1_555
Na7 O40 2.447784 1_655
Na7 O39 2.484996 1_665
Na7 O45 2.673928 1_556
Na7 O46 2.686396 1_566
Na7 O47 2.730808 1_666
Na8 O49 2.410026 1_555
Na8 O50 2.447784 1_555
Na8 O48 2.484996 1_555
Na8 O54 2.673928 1_555
Na8 O56 2.686396 1_555
Na8 O55 2.730808 1_555
Na9 O53 2.410026 1_555
Na9 O52 2.447784 1_555
Na9 O51 2.484996 1_555
Na9 O57 2.673928 1_555
Na9 O58 2.686396 1_555
Na9 O59 2.730808 1_555
Na10 O61 2.410026 1_555
Na10 O62 2.447784 1_555
Na10 O60 2.484996 1_555
Na10 O66 2.673928 1_555
Na10 O68 2.686396 1_555
Na10 O67 2.730808 1_555
Na11 O65 2.410026 1_555
Na11 O64 2.447784 1_555
Na11 O63 2.484996 1_555
Na11 O69 2.673928 1_555
Na11 O70 2.686396 1_555
Na11 O71 2.730808 1_555
Mg0 O2 1.963356 1_555
Mg0 O1 1.982008 1_545
Mg0 O37 2.051869 1_545
Mg0 O0 2.061746 1_655
Mg0 O36 2.091377 1_645
Mg0 O38 2.108135 1_655
Mg1 O4 1.963356 1_555
Mg1 O5 1.982008 1_565
Mg1 O41 2.051869 1_555
Mg1 O3 2.061746 1_665
Mg1 O39 2.091377 1_665
Mg1 O40 2.108135 1_655
Mg2 O14 1.963356 1_555
Mg2 O13 1.982008 1_555
Mg2 O49 2.051869 1_555
Mg2 O12 2.061746 1_555
Mg2 O48 2.091377 1_555
Mg2 O50 2.108135 1_555
Mg3 O16 1.963356 1_555
Mg3 O17 1.982008 1_555
Mg3 O53 2.051869 1_555
Mg3 O15 2.061746 1_555
Mg3 O51 2.091377 1_555
Mg3 O52 2.108135 1_555
Mg4 O26 1.963356 1_554
Mg4 O25 1.982008 1_554
Mg4 O61 2.051869 1_555
Mg4 O24 2.061746 1_554
Mg4 O60 2.091377 1_555
Mg4 O62 2.108135 1_555
Mg5 O28 1.963356 1_555
Mg5 O29 1.982008 1_555
Mg5 O65 2.051869 1_555
Mg5 O27 2.061746 1_555
Mg5 O63 2.091377 1_555
Mg5 O64 2.108135 1_555
O0 P0 1.506357 1_555
O1 P1 1.495468 1_555
O2 P2 1.487967 1_555
O3 P3 1.506357 1_555
O4 P4 1.487967 1_555
O5 P5 1.495468 1_555
O6 P5 1.605297 1_565
O6 Ta0 2.015248 1_655
O7 P3 1.612019 1_555
O7 Ta0 1.978938 1_545
O8 P4 1.601994 1_455
O8 Ta0 1.942796 1_555
O9 P1 1.605297 1_555
O9 Ta1 2.015248 1_665
O10 P2 1.601994 1_455
O10 Ta1 1.942796 1_555
O11 P0 1.612019 1_565
O11 Ta1 1.978938 1_565
O12 P6 1.506357 1_555
O13 P7 1.495468 1_555
O14 P8 1.487967 1_555
O15 P9 1.506357 1_555
O16 P10 1.487967 1_555
O17 P11 1.495468 1_555
O18 P11 1.605297 1_555
O18 Ta2 2.015248 1_554
O19 P9 1.612019 1_555
O19 Ta2 1.978938 1_554
O20 P10 1.601994 1_555
O20 Ta2 1.942796 1_554
O21 P7 1.605297 1_555
O21 Ta3 2.015248 1_555
O22 P8 1.601994 1_555
O22 Ta3 1.942796 1_555
O23 P6 1.612019 1_555
O23 Ta3 1.978938 1_555
O24 P12 1.506357 1_555
O25 P13 1.495468 1_555
O26 P14 1.487967 1_555
O27 P15 1.506357 1_555
O28 P16 1.487967 1_555
O29 P17 1.495468 1_555
O30 P17 1.605297 1_555
O30 Ta4 2.015248 1_555
O31 P15 1.612019 1_555
O31 Ta4 1.978938 1_555
O32 P16 1.601994 1_555
O32 Ta4 1.942796 1_555
O33 P13 1.605297 1_555
O33 Ta5 2.015248 1_555
O34 P14 1.601994 1_555
O34 Ta5 1.942796 1_555
O35 P12 1.612019 1_555
O35 Ta5 1.978938 1_555
O36 P17 1.514473 1_555
O37 P15 1.498523 1_555
O38 P16 1.513923 1_555
O39 P13 1.514482 1_555
O40 P14 1.513917 1_555
O41 P12 1.498520 1_555
O42 P6 1.604532 1_555
O42 Ta0 2.057637 1_645
O43 P7 1.587301 1_555
O43 Ta0 1.993263 1_545
O44 P8 1.604061 1_555
O44 Ta0 2.019027 1_655
O45 P9 1.604540 1_555
O45 Ta1 2.057637 1_665
O46 P10 1.604056 1_555
O46 Ta1 2.019027 1_655
O47 P11 1.587297 1_555
O47 Ta1 1.993263 1_555
O48 P5 1.514473 1_555
O49 P3 1.498523 1_555
O50 P4 1.513923 1_555
O51 P1 1.514482 1_555
O52 P2 1.513917 1_555
O53 P0 1.498520 1_555
O54 P12 1.604544 1_555
O54 Ta2 2.057637 1_555
O55 P13 1.587287 1_655
O55 Ta2 1.993263 1_555
O56 P14 1.604060 1_545
O56 Ta2 2.019027 1_555
O57 P15 1.604527 1_545
O57 Ta3 2.057637 1_555
O58 P16 1.604069 1_555
O58 Ta3 2.019027 1_555
O59 P17 1.587294 1_655
O59 Ta3 1.993263 1_555
O60 P11 1.514485 1_555
O61 P9 1.498508 1_455
O62 P10 1.513917 1_565
O63 P7 1.514467 1_565
O64 P8 1.513928 1_555
O65 P6 1.498514 1_455
O66 P0 1.604532 1_565
O66 Ta4 2.057637 1_555
O67 P1 1.587301 1_555
O67 Ta4 1.993263 1_555
O68 P2 1.604061 1_455
O68 Ta4 2.019027 1_555
O69 P3 1.604540 1_555
O69 Ta5 2.057637 1_555
O70 P4 1.604056 1_455
O70 Ta5 2.019027 1_555
O71 P5 1.587297 1_565
O71 Ta5 1.993263 1_555
