# generated using pymatgen
data_MgV4O7F5
_symmetry_space_group_name_H-M   'P 1'
_cell_length_a   5.18254125
_cell_length_b   5.36103304
_cell_length_c   9.03279487
_cell_angle_alpha   72.81623612
_cell_angle_beta   90.45156610
_cell_angle_gamma   117.62008747
_symmetry_Int_Tables_number   1
_chemical_formula_structural   MgV4O7F5
_chemical_formula_sum   'Mg1 V4 O7 F5'
_cell_volume   209.95486527
_cell_formula_units_Z   1
loop_
 _symmetry_equiv_pos_site_id
 _symmetry_equiv_pos_as_xyz
  1  'x, y, z'
loop_
 _atom_site_type_symbol
 _atom_site_label
 _atom_site_symmetry_multiplicity
 _atom_site_fract_x
 _atom_site_fract_y
 _atom_site_fract_z
 _atom_site_occupancy
  Mg  Mg0  1  0.43565400  0.87758600  0.85264500  1
  V  V0  1  0.77672000  0.54343600  0.75732000  1
  V  V1  1  0.94449900  0.99384100  0.00996300  1
  V  V2  1  0.54127200  0.00448600  0.49424000  1
  V  V3  1  0.25238900  0.45503700  0.25358900  1
  O  O0  1  0.89847800  0.22785600  0.41664200  1
  O  O1  1  0.89473900  0.21020100  0.83716700  1
  O  O2  1  0.40370200  0.23863500  0.33497600  1
  O  O3  1  0.55647700  0.73424300  0.69102400  1
  O  O4  1  0.56177900  0.73063200  0.06420000  1
  O  O5  1  0.02619700  0.21766900  0.12130200  1
  O  O6  1  0.99518600  0.73291500  0.87587200  1
  F  F0  1  0.52461300  0.22062900  0.64129800  1
  F  F1  1  0.41493300  0.21293200  0.91905100  1
  F  F2  1  0.45084500  0.73045100  0.37627200  1
  F  F3  1  0.07284600  0.72756400  0.16210600  1
  F  F4  1  0.07492300  0.75460600  0.57591900  1
loop_
_geom_bond_atom_site_label_1
_geom_bond_atom_site_label_2
_geom_bond_distance
_geom_bond_site_symmetry_2
Mg0 O6 2.031323 1_455
Mg0 O3 2.058487 1_555
Mg0 O4 2.065872 1_556
Mg0 O1 2.187263 1_565
O0 V2 1.679694 1_555
O0 V3 1.981942 1_655
O1 V1 1.746243 1_546
O1 V0 2.081028 1_555
O2 V3 1.682805 1_555
O2 V2 1.974903 1_555
O3 V0 1.848699 1_555
O3 V2 1.961308 1_565
O4 V1 1.782418 1_555
O4 V3 2.008391 1_555
O5 V1 1.692883 1_445
O5 V3 1.978534 1_555
O6 V0 1.737160 1_555
O6 V1 2.199914 1_556
F0 V2 2.029460 1_555
F0 Mg0 2.095812 1_545
F0 V0 2.180330 1_555
F1 V0 2.054875 1_555
F1 Mg0 2.102529 1_545
F1 V1 2.191905 1_446
F2 V2 1.947336 1_565
F2 V3 2.001675 1_555
F3 V1 2.018842 1_455
F3 V3 2.053846 1_555
F4 V0 1.917425 1_455
F4 V2 2.149947 1_565
