# generated using pymatgen
data_HfFeSi2
_symmetry_space_group_name_H-M   'P 1'
_cell_length_a   9.59491052
_cell_length_b   9.59528978
_cell_length_c   9.59496590
_cell_angle_alpha   149.15373154
_cell_angle_beta   132.96951836
_cell_angle_gamma   57.30506348
_symmetry_Int_Tables_number   1
_chemical_formula_structural   HfFeSi2
_chemical_formula_sum   'Hf6 Fe6 Si12'
_cell_volume   329.02501103
_cell_formula_units_Z   6
loop_
 _symmetry_equiv_pos_site_id
 _symmetry_equiv_pos_as_xyz
  1  'x, y, z'
loop_
 _atom_site_type_symbol
 _atom_site_label
 _atom_site_symmetry_multiplicity
 _atom_site_fract_x
 _atom_site_fract_y
 _atom_site_fract_z
 _atom_site_occupancy
  Hf  Hf0  1  0.85864013  0.59614711  0.26252267  1
  Hf  Hf1  1  0.14135900  0.40385233  0.73747692  1
  Hf  Hf2  1  0.66638786  0.40387367  0.26250331  1
  Hf  Hf3  1  0.33361210  0.59612578  0.73749705  1
  Hf  Hf4  1  0.14200962  0.14198934  0.99995407  1
  Hf  Hf5  1  0.85799033  0.85801077  0.00004577  1
  Fe  Fe0  1  0.74529956  0.00001273  0.74532437  1
  Fe  Fe1  1  0.00000047  0.00000073  0.49999968  1
  Fe  Fe2  1  0.50000125  0.50000085  0.50000038  1
  Fe  Fe3  1  0.50000122  0.00000093  0.00000037  1
  Fe  Fe4  1  0.25469856  0.99998566  0.25467588  1
  Fe  Fe5  1  0.00000041  0.50000077  -0.00000036  1
  Si  Si0  1  0.48853875  0.13984532  0.34866592  1
  Si  Si1  1  0.51146125  0.86015464  0.65133398  1
  Si  Si2  1  0.20882661  0.86011151  0.34865595  1
  Si  Si3  1  0.79117344  0.13988849  0.65134405  1
  Si  Si4  1  0.70245668  0.70244927  0.99998865  1
  Si  Si5  1  0.29754357  0.29755096  0.00001139  1
  Si  Si6  1  0.50000246  0.74295843  0.24297722  1
  Si  Si7  1  0.49999700  0.25704103  0.75702277  1
  Si  Si8  1  0.00000989  0.25321065  0.25321310  1
  Si  Si9  1  0.21580093  0.71575206  0.49996418  1
  Si  Si10  1  0.99998958  0.74678882  0.74678686  1
  Si  Si11  1  0.78419935  0.28424815  0.50003580  1
loop_
_geom_bond_atom_site_label_1
_geom_bond_atom_site_label_2
_geom_bond_distance
_geom_bond_site_symmetry_2
Hf0 Si4 2.691844 1_554
Hf0 Si9 2.714304 1_655
Hf0 Si10 2.741052 1_555
Hf0 Si8 2.741211 1_655
Hf0 Si3 2.788907 1_554
Hf0 Si3 2.789140 1_565
Hf0 Si6 2.863175 1_555
Hf0 Si7 2.863309 1_554
Hf1 Si5 2.691838 1_556
Hf1 Si11 2.714293 1_455
Hf1 Si8 2.741050 1_555
Hf1 Si10 2.741209 1_455
Hf1 Si2 2.788905 1_556
Hf1 Si2 2.789138 1_545
Hf1 Si7 2.863176 1_555
Hf1 Si6 2.863311 1_556
Hf2 Si5 2.691931 1_555
Hf2 Si11 2.714393 1_555
Hf2 Si10 2.740990 1_555
Hf2 Si8 2.740994 1_655
Hf2 Si1 2.789021 1_544
Hf2 Si1 2.789098 1_555
Hf2 Si6 2.863080 1_555
Hf2 Si7 2.863221 1_554
Hf3 Si4 2.691936 1_555
Hf3 Si9 2.714404 1_555
Hf3 Si8 2.740992 1_555
Hf3 Si10 2.740997 1_455
Hf3 Si0 2.789022 1_566
Hf3 Si0 2.789099 1_555
Hf3 Si7 2.863078 1_555
Hf3 Si6 2.863220 1_556
Hf4 Si5 2.618979 1_556
Hf4 Si3 2.669905 1_455
Hf4 Si0 2.670057 1_556
Hf4 Si8 2.718419 1_556
Hf4 Si10 2.718543 1_445
Hf4 Si9 2.838091 1_545
Hf4 Si9 2.838169 1_556
Hf5 Si4 2.618978 1_554
Hf5 Si2 2.669906 1_655
Hf5 Si1 2.670056 1_554
Hf5 Si10 2.718410 1_554
Hf5 Si8 2.718533 1_665
Hf5 Si11 2.838090 1_565
Hf5 Si11 2.838168 1_554
Fe0 Si6 2.290943 1_545
Fe0 Si7 2.290963 1_555
Fe0 Si8 2.339393 1_656
Fe0 Si10 2.339417 1_545
Fe0 Si1 2.462637 1_545
Fe0 Si3 2.462854 1_555
Fe0 Hf2 3.024493 1_556
Fe0 Hf0 3.024824 1_545
Fe0 Hf2 3.024900 1_545
Fe0 Hf0 3.024990 1_556
Fe1 Si11 2.371612 1_455
Fe1 Si9 2.371620 1_545
Fe1 Si2 2.374676 1_545
Fe1 Si3 2.374694 1_455
Fe1 Si5 2.435810 1_556
Fe1 Si4 2.435814 1_444
Fe1 Fe5 2.551780 1_545
Fe1 Fe5 2.551780 1_556
Fe1 Hf1 2.889880 1_555
Fe1 Hf0 2.889911 1_445
Fe1 Hf5 2.932102 1_445
Fe1 Hf4 2.932119 1_555
Fe2 Si11 2.371245 1_555
Fe2 Si9 2.371256 1_555
Fe2 Si1 2.374770 1_555
Fe2 Si0 2.374791 1_555
Fe2 Si5 2.435684 1_555
Fe2 Si4 2.435688 1_555
Fe2 Fe3 2.551780 1_555
Fe2 Fe3 2.551780 1_566
Fe2 Hf2 2.889936 1_555
Fe2 Hf3 2.889969 1_555
Fe2 Hf5 2.932472 1_556
Fe2 Hf4 2.932493 1_554
Fe3 Si11 2.371527 1_555
Fe3 Si9 2.371537 1_544
Fe3 Si1 2.374550 1_544
Fe3 Si0 2.374571 1_555
Fe3 Si5 2.435792 1_555
Fe3 Si4 2.435797 1_544
Fe3 Hf2 2.890078 1_555
Fe3 Hf3 2.890112 1_544
Fe3 Hf5 2.932206 1_545
Fe3 Hf4 2.932228 1_554
Fe4 Si7 2.290942 1_565
Fe4 Si6 2.290964 1_555
Fe4 Si10 2.339394 1_454
Fe4 Si8 2.339416 1_565
Fe4 Si0 2.462668 1_565
Fe4 Si2 2.462823 1_555
Fe4 Hf3 3.024507 1_554
Fe4 Hf1 3.024810 1_565
Fe4 Hf3 3.024911 1_565
Fe4 Hf1 3.024979 1_554
Fe5 Si11 2.371337 1_454
Fe5 Si9 2.371347 1_555
Fe5 Si2 2.374661 1_555
Fe5 Si3 2.374679 1_454
Fe5 Si5 2.435696 1_555
Fe5 Si4 2.435699 1_454
Fe5 Hf1 2.889780 1_554
Fe5 Hf0 2.889811 1_455
Fe5 Hf5 2.932362 1_455
Fe5 Hf4 2.932380 1_554
Si0 Si3 2.317162 1_555
Si1 Si2 2.317161 1_555
Si6 Si7 2.479989 1_554
Si10 Si8 2.519046 1_655
Si10 Si8 2.584513 1_666
