# generated using pymatgen
data_MgV4(O2F)4
_symmetry_space_group_name_H-M   'P 1'
_cell_length_a   5.06538165
_cell_length_b   9.45940669
_cell_length_c   5.21928915
_cell_angle_alpha   103.88479962
_cell_angle_beta   118.11375441
_cell_angle_gamma   72.87508165
_symmetry_Int_Tables_number   1
_chemical_formula_structural   MgV4(O2F)4
_chemical_formula_sum   'Mg1 V4 O8 F4'
_cell_volume   209.27370078
_cell_formula_units_Z   1
loop_
 _symmetry_equiv_pos_site_id
 _symmetry_equiv_pos_as_xyz
  1  'x, y, z'
loop_
 _atom_site_type_symbol
 _atom_site_label
 _atom_site_symmetry_multiplicity
 _atom_site_fract_x
 _atom_site_fract_y
 _atom_site_fract_z
 _atom_site_occupancy
  Mg  Mg0  1  0.65012000  0.05227300  0.35526500  1
  V  V0  1  0.00563200  0.99498400  0.99700700  1
  V  V1  1  0.69505000  0.72047800  0.20205800  1
  V  V2  1  0.51606800  0.48584500  0.53962300  1
  V  V3  1  0.27928700  0.24501300  0.78358200  1
  O  O0  1  0.41500200  0.88293400  0.22637700  1
  O  O1  1  0.81146600  0.89750300  0.06167300  1
  O  O2  1  0.28464900  0.39159900  0.54751700  1
  O  O3  1  0.68756500  0.61774300  0.41828100  1
  O  O4  1  0.24814500  0.13424800  0.01497700  1
  O  O5  1  0.52070400  0.63406100  0.85172400  1
  O  O6  1  0.61508100  0.13566800  0.74515100  1
  O  O7  1  0.86790300  0.37826800  0.71143600  1
  F  F0  1  0.11178300  0.63661800  0.27566900  1
  F  F1  1  0.00211700  0.13211800  0.39733800  1
  F  F2  1  0.47036200  0.37831600  0.13648400  1
  F  F3  1  0.98156600  0.89344100  0.62333800  1
loop_
_geom_bond_atom_site_label_1
_geom_bond_atom_site_label_2
_geom_bond_distance
_geom_bond_site_symmetry_2
Mg0 O4 2.055375 1_555
Mg0 O6 2.069355 1_555
Mg0 O0 2.070773 1_545
Mg0 O1 2.135026 1_545
O0 V1 1.783884 1_555
O0 V0 1.957439 1_554
O1 V0 1.711092 1_654
O1 V1 2.294848 1_555
O2 V2 1.687955 1_555
O2 V3 2.077296 1_555
O3 V1 1.675656 1_555
O3 V2 2.061179 1_555
O4 V3 1.861585 1_554
O4 V0 2.009570 1_544
O5 V1 1.725529 1_556
O5 V2 1.872685 1_555
O6 V3 1.785808 1_555
O6 V0 2.061772 1_645
O7 V2 1.696939 1_555
O7 V3 2.003595 1_655
F0 V1 1.904895 1_455
F0 V2 2.165609 1_555
F1 Mg0 2.035249 1_455
F1 V3 2.087547 1_555
F1 V0 2.183905 1_544
F2 V3 1.960439 1_554
F2 V2 2.041533 1_555
F3 V0 1.920135 1_655
F3 Mg0 2.084049 1_565
F3 V1 2.506434 1_555
