# generated using pymatgen
data_Y6MgMn6O18
_symmetry_space_group_name_H-M   'P 1'
_cell_length_a   6.20920119
_cell_length_b   6.19943693
_cell_length_c   12.31781454
_cell_angle_alpha   90.21452379
_cell_angle_beta   89.56911954
_cell_angle_gamma   120.04956291
_symmetry_Int_Tables_number   1
_chemical_formula_structural   Y6MgMn6O18
_chemical_formula_sum   'Y6 Mg1 Mn6 O18'
_cell_volume   410.41466866
_cell_formula_units_Z   1
loop_
 _symmetry_equiv_pos_site_id
 _symmetry_equiv_pos_as_xyz
  1  'x, y, z'
loop_
 _atom_site_type_symbol
 _atom_site_label
 _atom_site_symmetry_multiplicity
 _atom_site_fract_x
 _atom_site_fract_y
 _atom_site_fract_z
 _atom_site_occupancy
  Y  Y0  1  0.66308500  0.33711300  0.22504500  1
  Y  Y1  1  0.33199500  0.66391500  0.73540600  1
  Y  Y2  1  0.66807400  0.33609600  0.73539900  1
  Y  Y3  1  0.32596100  0.66286400  0.22504600  1
  Y  Y4  1  0.00763300  0.00000000  0.81945000  1
  Y  Y5  1  0.99817600  0.99997700  0.27135400  1
  Mg  Mg0  1  0.01239100  0.00002700  0.61002800  1
  Mn  Mn0  1  0.63515700  0.00000400  0.49477200  1
  Mn  Mn1  1  0.65520700  0.66039000  0.00644700  1
  Mn  Mn2  1  0.99481600  0.33961100  0.00644600  1
  Mn  Mn3  1  0.00460200  0.63039400  0.48050500  1
  Mn  Mn4  1  0.37420500  0.36960500  0.48048500  1
  Mn  Mn5  1  0.34780000  0.99999800  0.00698300  1
  O  O0  1  0.66671500  0.33693500  0.02473200  1
  O  O1  1  0.34252500  0.67126800  0.52895000  1
  O  O2  1  0.67115000  0.32870000  0.52895200  1
  O  O3  1  0.32983000  0.66305800  0.02473000  1
  O  O4  1  0.00427800  0.99998700  0.99246500  1
  O  O5  1  0.99870400  0.00005300  0.46046200  1
  O  O6  1  0.37158800  0.00000200  0.84780700  1
  O  O7  1  0.35728200  0.36225400  0.31731200  1
  O  O8  1  0.99502400  0.63772600  0.31732400  1
  O  O9  1  0.99361000  0.35826100  0.84678000  1
  O  O10  1  0.63538400  0.64176100  0.84678200  1
  O  O11  1  0.62291400  0.99999300  0.33807500  1
  O  O12  1  0.31028100  0.00000200  0.16011900  1
  O  O13  1  0.28845800  0.28598400  0.68164200  1
  O  O14  1  0.00247500  0.71401900  0.68164000  1
  O  O15  1  0.99148400  0.30084200  0.15998200  1
  O  O16  1  0.69063800  0.69916200  0.15997900  1
  O  O17  1  0.70855500  0.00000000  0.66267700  1
loop_
_geom_bond_atom_site_label_1
_geom_bond_atom_site_label_2
_geom_bond_distance
_geom_bond_site_symmetry_2
Mg0 O5 1.844928 1_455
Mg0 O13 1.956240 1_555
Mg0 O14 1.956349 1_545
Mg0 O17 1.990237 1_455
Mn0 O11 1.932231 1_545
Mn0 O2 1.979508 1_555
Mn0 O1 1.979512 1_545
Mn0 O17 2.121187 1_555
Mn0 O5 2.293283 1_555
Mn1 O16 1.905945 1_555
Mn1 O10 1.970836 1_554
Mn1 O3 2.039442 1_555
Mn1 O0 2.055223 1_555
Mn1 O4 2.141716 1_654
Mn2 O15 1.905983 1_555
Mn2 O9 1.970854 1_554
Mn2 O0 2.039769 1_555
Mn2 O3 2.055455 1_655
Mn2 O4 2.141766 1_644
Mn3 O8 2.012716 1_455
Mn3 O2 2.062189 1_455
Mn3 O1 2.075597 1_555
Mn3 O5 2.324329 1_465
Mn3 O14 2.530595 1_555
Mn4 O7 2.012623 1_555
Mn4 O1 2.061748 1_555
Mn4 O2 2.075149 1_555
Mn4 O5 2.323904 1_455
Mn4 O13 2.530837 1_555
Mn5 O12 1.898894 1_565
Mn5 O6 1.965147 1_564
Mn5 O0 2.047630 1_565
Mn5 O3 2.047710 1_555
Mn5 O4 2.141786 1_554
O0 Y0 2.467353 1_555
O1 Y1 2.543428 1_555
O2 Y2 2.543318 1_555
O3 Y3 2.467391 1_555
O4 Y4 2.131112 1_565
O5 Y5 2.329422 1_545
O6 Y4 2.289293 1_555
O6 Y1 2.406051 1_545
O6 Y2 2.406106 1_555
O7 Y0 2.276841 1_555
O7 Y3 2.276994 1_555
O7 Y5 2.308798 1_445
O8 Y3 2.276884 1_655
O8 Y0 2.277218 1_555
O8 Y5 2.308628 1_555
O9 Y4 2.289424 1_655
O9 Y2 2.397717 1_555
O9 Y1 2.424063 1_655
O10 Y4 2.289326 1_665
O10 Y1 2.397730 1_555
O10 Y2 2.424039 1_555
O11 Y0 2.421376 1_565
O11 Y3 2.421510 1_555
O11 Y5 2.464982 1_555
O12 Y0 2.287993 1_555
O12 Y3 2.288001 1_545
O12 Y5 2.364885 1_445
O13 Y1 2.314708 1_555
O13 Y2 2.319380 1_555
O13 Y4 2.438688 1_555
O14 Y2 2.314720 1_455
O14 Y1 2.319451 1_555
O14 Y4 2.438700 1_565
O15 Y0 2.298703 1_555
O15 Y3 2.309992 1_655
O15 Y5 2.336730 1_545
O16 Y3 2.298708 1_555
O16 Y0 2.310031 1_555
O16 Y5 2.336691 1_555
O17 Y2 2.390430 1_555
O17 Y1 2.390431 1_545
O17 Y4 2.689176 1_655
