# generated using pymatgen
data_NaMg(Cu3O4)2
_symmetry_space_group_name_H-M   'P 1'
_cell_length_a   6.50094883
_cell_length_b   6.50094883
_cell_length_c   6.50094883
_cell_angle_alpha   60.00000000
_cell_angle_beta   90.00000000
_cell_angle_gamma   120.00000000
_symmetry_Int_Tables_number   1
_chemical_formula_structural   NaMg(Cu3O4)2
_chemical_formula_sum   'Na1 Mg1 Cu6 O8'
_cell_volume   194.27425160
_cell_formula_units_Z   1
loop_
 _symmetry_equiv_pos_site_id
 _symmetry_equiv_pos_as_xyz
  1  'x, y, z'
loop_
 _atom_site_type_symbol
 _atom_site_label
 _atom_site_symmetry_multiplicity
 _atom_site_fract_x
 _atom_site_fract_y
 _atom_site_fract_z
 _atom_site_occupancy
  Na  Na0  1  0.00000000  0.00000000  0.00000000  1
  Mg  Mg0  1  0.50000000  0.00000000  0.50000000  1
  Cu  Cu0  1  0.50000000  0.00000000  0.00000000  1
  Cu  Cu1  1  0.50000000  0.50000000  0.00000000  1
  Cu  Cu2  1  0.00000000  0.50000000  0.00000000  1
  Cu  Cu3  1  0.00000000  0.00000000  0.50000000  1
  Cu  Cu4  1  0.50000000  0.50000000  0.50000000  1
  Cu  Cu5  1  0.00000000  0.50000000  0.50000000  1
  O  O0  1  0.85523800  0.71047400  0.43428800  1
  O  O1  1  0.14476200  0.28952600  0.14476200  1
  O  O2  1  0.56571200  0.71047400  0.14476200  1
  O  O3  1  0.85523800  0.28952600  0.85523800  1
  O  O4  1  0.43428800  0.28952600  0.85523800  1
  O  O5  1  0.14476200  0.71047400  0.14476200  1
  O  O6  1  0.85523800  0.71047400  0.85523800  1
  O  O7  1  0.14476200  0.28952600  0.56571200  1
loop_
_geom_bond_atom_site_label_1
_geom_bond_atom_site_label_2
_geom_bond_distance
_geom_bond_site_symmetry_2
Na0 O0 2.305202 1_445
Na0 O2 2.305202 1_445
Na0 O7 2.305202 1_554
Na0 O4 2.305202 1_554
Na0 O1 2.305202 1_555
Na0 O3 2.305202 1_454
Na0 O5 2.305202 1_545
Na0 O6 2.305202 1_444
Cu0 O3 1.908805 1_554
Cu0 O4 1.908805 1_554
Cu0 O5 1.908805 1_545
Cu0 O2 1.908805 1_545
Cu0 Mg0 3.250474 1_554
Cu0 Mg0 3.250474 1_555
Cu1 O2 1.908794 1_555
Cu1 O4 1.908794 1_554
Cu1 O6 1.908805 1_554
Cu1 O1 1.908805 1_555
Cu1 Mg0 3.250474 1_555
Cu1 Mg0 3.250474 1_564
Cu2 O5 1.908794 1_555
Cu2 O1 1.908794 1_555
Cu2 O6 1.908794 1_454
Cu2 O3 1.908794 1_454
Cu2 Mg0 3.250474 1_455
Cu2 Mg0 3.250474 1_564
Cu3 O6 1.908805 1_445
Cu3 O1 1.908805 1_555
Cu3 O7 1.908805 1_555
Cu3 O0 1.908805 1_445
Cu3 Mg0 3.250474 1_455
Cu3 Mg0 3.250474 1_555
Cu4 O4 1.908805 1_555
Cu4 O0 1.908805 1_555
Cu4 O2 1.908805 1_555
Cu4 O7 1.908805 1_555
Cu4 Mg0 3.250474 1_555
Cu4 Mg0 3.250474 1_565
Cu5 O0 1.908794 1_455
Cu5 O7 1.908794 1_555
Cu5 O3 1.908805 1_455
Cu5 O5 1.908805 1_555
Cu5 Mg0 3.250474 1_455
Cu5 Mg0 3.250474 1_565
