# generated using pymatgen
data_Li2TeO3
_symmetry_space_group_name_H-M   'P 1'
_cell_length_a   5.37134783
_cell_length_b   5.37134783
_cell_length_c   13.56821269
_cell_angle_alpha   87.36896876
_cell_angle_beta   87.36896876
_cell_angle_gamma   123.93388973
_symmetry_Int_Tables_number   1
_chemical_formula_structural   Li2TeO3
_chemical_formula_sum   'Li8 Te4 O12'
_cell_volume   323.23583069
_cell_formula_units_Z   4
loop_
 _symmetry_equiv_pos_site_id
 _symmetry_equiv_pos_as_xyz
  1  'x, y, z'
loop_
 _atom_site_type_symbol
 _atom_site_label
 _atom_site_symmetry_multiplicity
 _atom_site_fract_x
 _atom_site_fract_y
 _atom_site_fract_z
 _atom_site_occupancy
  Li  Li0  1  0.45356928  0.95488439  0.68144724  1
  Li  Li1  1  0.04511561  0.54643072  0.81855276  1
  Li  Li2  1  0.54643072  0.04511561  0.31855276  1
  Li  Li3  1  0.95488439  0.45356928  0.18144724  1
  Li  Li4  1  0.86003018  0.72831039  0.31513771  1
  Li  Li5  1  0.27168961  0.13996982  0.18486229  1
  Li  Li6  1  0.13996982  0.27168961  0.68486229  1
  Li  Li7  1  0.72831039  0.86003018  0.81513771  1
  Te  Te0  1  0.83296524  0.64696999  0.58910748  1
  Te  Te1  1  0.35303001  0.16703476  0.91089252  1
  Te  Te2  1  0.16703476  0.35303001  0.41089252  1
  Te  Te3  1  0.64696999  0.83296524  0.08910748  1
  O  O0  1  0.46066557  0.27978303  0.61204423  1
  O  O1  1  0.88057525  0.76580113  0.16912256  1
  O  O2  1  0.11942475  0.23419887  0.83087744  1
  O  O3  1  0.76580113  0.88057525  0.66912256  1
  O  O4  1  0.57870328  0.06026671  0.17229615  1
  O  O5  1  0.93973329  0.42129672  0.32770385  1
  O  O6  1  0.42129672  0.93973329  0.82770385  1
  O  O7  1  0.06026671  0.57870328  0.67229615  1
  O  O8  1  0.53933443  0.72021697  0.38795577  1
  O  O9  1  0.27978303  0.46066557  0.11204423  1
  O  O10  1  0.23419887  0.11942475  0.33087744  1
  O  O11  1  0.72021697  0.53933443  0.88795577  1
loop_
_geom_bond_atom_site_label_1
_geom_bond_atom_site_label_2
_geom_bond_distance
_geom_bond_site_symmetry_2
Li0 O0 1.924914 1_565
Li0 O3 1.930727 1_555
Li0 O7 1.960219 1_555
Li0 O6 1.978009 1_555
Li1 O11 1.924914 1_455
Li1 O2 1.930727 1_555
Li1 O6 1.960219 1_555
Li1 O7 1.978009 1_555
Li2 O8 1.924914 1_545
Li2 O10 1.930727 1_555
Li2 O5 1.960219 1_555
Li2 O4 1.978009 1_555
Li3 O9 1.924914 1_655
Li3 O1 1.930727 1_555
Li3 O4 1.960219 1_555
Li3 O5 1.978009 1_555
Li4 O5 1.923776 1_555
Li4 O8 1.923928 1_555
Li4 O10 1.965938 1_665
Li4 O1 1.973888 1_555
Li5 O4 1.923776 1_555
Li5 O9 1.923928 1_555
Li5 O1 1.965938 1_445
Li5 O10 1.973888 1_555
Li6 O7 1.923776 1_555
Li6 O0 1.923928 1_555
Li6 O3 1.965938 1_445
Li6 O2 1.973888 1_555
Li7 O6 1.923776 1_555
Li7 O11 1.923928 1_555
Li7 O2 1.965938 1_665
Li7 O3 1.973888 1_555
O0 Te0 1.862480 1_555
O1 Te3 1.864880 1_555
O2 Te1 1.864880 1_555
O3 Te0 1.864880 1_555
O4 Te3 1.867474 1_545
O5 Te2 1.867474 1_655
O6 Te1 1.867474 1_565
O7 Te0 1.867474 1_455
O8 Te2 1.862480 1_555
O9 Te3 1.862480 1_555
O10 Te2 1.864880 1_555
O11 Te1 1.862480 1_555
