# generated using pymatgen
data_Tb2MgCu(GeO3)4
_symmetry_space_group_name_H-M   'P 1'
_cell_length_a   5.36784992
_cell_length_b   7.31031285
_cell_length_c   7.65175909
_cell_angle_alpha   68.32548998
_cell_angle_beta   88.81821310
_cell_angle_gamma   79.49788347
_symmetry_Int_Tables_number   1
_chemical_formula_structural   Tb2MgCu(GeO3)4
_chemical_formula_sum   'Tb2 Mg1 Cu1 Ge4 O12'
_cell_volume   273.99804166
_cell_formula_units_Z   1
loop_
 _symmetry_equiv_pos_site_id
 _symmetry_equiv_pos_as_xyz
  1  'x, y, z'
loop_
 _atom_site_type_symbol
 _atom_site_label
 _atom_site_symmetry_multiplicity
 _atom_site_fract_x
 _atom_site_fract_y
 _atom_site_fract_z
 _atom_site_occupancy
  Tb  Tb0  1  0.04948186  0.76555690  0.42350322  1
  Tb  Tb1  1  0.97422763  0.22085008  0.55777190  1
  Mg  Mg0  1  0.09239850  0.72702023  0.92041941  1
  Cu  Cu0  1  0.96185483  0.06794578  0.00409412  1
  Ge  Ge0  1  0.54897495  0.87330820  0.76517324  1
  Ge  Ge1  1  0.47241423  0.15597720  0.22602315  1
  Ge  Ge2  1  0.59083541  0.57947176  0.21862162  1
  Ge  Ge3  1  0.42597112  0.40604573  0.77851725  1
  O  O0  1  0.86219245  0.87472629  0.64691639  1
  O  O1  1  0.24056156  0.05994349  0.38115645  1
  O  O2  1  0.77635867  0.56999252  0.40722234  1
  O  O3  1  0.21308914  0.42900832  0.59835047  1
  O  O4  1  0.37516801  0.67366264  0.73516058  1
  O  O5  1  0.63870399  0.30527404  0.30763208  1
  O  O6  1  0.73619741  0.67770244  0.99712178  1
  O  O7  1  0.71985193  0.26292808  0.78072221  1
  O  O8  1  0.26463730  0.67489739  0.18531311  1
  O  O9  1  0.73225032  0.98141224  0.20512327  1
  O  O10  1  0.20092450  0.00276462  0.83354860  1
  O  O11  1  0.29890618  0.33040106  0.01094181  1
loop_
_geom_bond_atom_site_label_1
_geom_bond_atom_site_label_2
_geom_bond_distance
_geom_bond_site_symmetry_2
Mg0 O6 2.044266 1_455
Mg0 O10 2.065654 1_565
Mg0 O8 2.118185 1_556
Mg0 O4 2.137609 1_555
Mg0 O0 2.241361 1_455
Cu0 O10 1.934983 1_654
Cu0 O9 1.942310 1_545
Cu0 O7 2.063382 1_554
Ge0 O0 1.892712 1_555
Ge0 O4 1.950903 1_555
Ge0 O6 1.969705 1_555
Ge0 O10 2.083433 1_565
Ge1 O9 1.758444 1_545
Ge1 O1 1.758646 1_555
Ge1 O5 1.805390 1_555
Ge1 O11 1.811635 1_555
Ge2 O2 1.743391 1_555
Ge2 O8 1.749094 1_555
Ge2 O6 1.802154 1_554
Ge2 O5 1.832710 1_555
Ge3 O7 1.723318 1_555
Ge3 O3 1.748890 1_555
Ge3 O11 1.815193 1_556
Ge3 O4 1.828008 1_555
O0 Tb0 2.283506 1_655
O0 Tb1 2.547967 1_565
O1 Tb1 2.394853 1_455
O1 Tb0 2.462570 1_545
O2 Tb0 2.260961 1_655
O2 Tb1 2.420739 1_555
O3 Tb1 2.265533 1_455
O3 Tb0 2.333153 1_555
O4 Tb0 2.784785 1_555
O5 Tb1 2.480424 1_555
O7 Tb1 2.237812 1_555
O8 Tb0 2.370916 1_555
O9 Tb0 2.317764 1_655
O10 Tb1 2.321424 1_455
