# generated using pymatgen
data_Na4ScTa3Si5SO24
_symmetry_space_group_name_H-M   'P 1'
_cell_length_a   8.99884401
_cell_length_b   8.97720556
_cell_length_c   22.75804476
_cell_angle_alpha   90.01216024
_cell_angle_beta   90.17601642
_cell_angle_gamma   119.88662378
_symmetry_Int_Tables_number   1
_chemical_formula_structural   Na4ScTa3Si5SO24
_chemical_formula_sum   'Na12 Sc3 Ta9 Si15 S3 O72'
_cell_volume   1593.98993158
_cell_formula_units_Z   3
loop_
 _symmetry_equiv_pos_site_id
 _symmetry_equiv_pos_as_xyz
  1  'x, y, z'
loop_
 _atom_site_type_symbol
 _atom_site_label
 _atom_site_symmetry_multiplicity
 _atom_site_fract_x
 _atom_site_fract_y
 _atom_site_fract_z
 _atom_site_occupancy
  Na  Na0  1  0.63443144  0.62338131  0.74523007  1
  Na  Na1  1  0.98974508  0.36405438  0.74925266  1
  Na  Na2  1  0.37866192  0.00914557  0.74589744  1
  Na  Na3  1  0.66026456  0.68392764  0.08439179  1
  Na  Na4  1  0.02268240  0.34141758  0.08391708  1
  Na  Na5  1  0.32335106  0.02772613  0.41692352  1
  Na  Na6  1  0.98750374  0.99269826  0.49468672  1
  Na  Na7  1  0.00996809  0.99599947  0.99408260  1
  Na  Na8  1  0.66726779  0.33278215  0.83378260  1
  Na  Na9  1  0.69341369  0.34042041  0.32879372  1
  Na  Na10  1  0.32913713  0.67380979  0.16763020  1
  Na  Na11  1  0.34311496  0.67404059  0.66138708  1
  Sc  Sc0  1  0.99043230  0.00784720  0.35863090  1
  Sc  Sc1  1  0.65415183  0.32941896  0.68592327  1
  Sc  Sc2  1  0.67685790  0.33242502  0.18344262  1
  Ta  Ta0  1  0.99867833  0.00012563  0.85708044  1
  Ta  Ta1  1  0.00187438  0.99113118  0.64484975  1
  Ta  Ta2  1  0.00701119  0.01264158  0.14442299  1
  Ta  Ta3  1  0.66706165  0.33412543  0.97747150  1
  Ta  Ta4  1  0.66054747  0.34044122  0.47766522  1
  Ta  Ta5  1  0.33297892  0.66916395  0.01824156  1
  Ta  Ta6  1  0.34278846  0.67624591  0.51941019  1
  Ta  Ta7  1  0.32357419  0.65567354  0.31537479  1
  Ta  Ta8  1  0.33515477  0.66730346  0.81411124  1
  Si  Si0  1  0.99905296  0.29692823  0.25214157  1
  Si  Si1  1  0.28167505  0.28544395  0.75053278  1
  Si  Si2  1  0.00241819  0.71211661  0.75168009  1
  Si  Si3  1  0.71439722  0.99821985  0.74991231  1
  Si  Si4  1  0.37392383  0.04189218  0.58426441  1
  Si  Si5  1  0.66514710  0.62596750  0.58575339  1
  Si  Si6  1  0.95803323  0.62435776  0.08330244  1
  Si  Si7  1  0.66014753  0.04225006  0.08380543  1
  Si  Si8  1  0.38347468  0.33439849  0.08378930  1
  Si  Si9  1  0.62420205  0.66552053  0.91697770  1
  Si  Si10  1  0.04243419  0.37767667  0.91644920  1
  Si  Si11  1  0.33518558  0.95889694  0.91577309  1
  Si  Si12  1  0.62223203  0.95799283  0.41541168  1
  Si  Si13  1  0.33140918  0.37881913  0.41862867  1
  Si  Si14  1  0.04091830  0.66048024  0.41799641  1
  S  S0  1  0.28779618  0.99719562  0.25113804  1
  S  S1  1  0.70845790  0.71289293  0.24982666  1
  S  S2  1  0.95800302  0.33294920  0.58314746  1
  O  O0  1  0.20587068  0.00781935  0.30500745  1
  O  O1  1  0.81318490  0.79653946  0.30193609  1
  O  O2  1  0.98856649  0.18010577  0.30674235  1
  O  O3  1  0.18693163  0.16330203  0.80712030  1
  O  O4  1  0.97276035  0.80825886  0.80718033  1
  O  O5  1  0.83453282  0.02393869  0.80734549  1
  O  O6  1  0.80555467  0.96347737  0.69290373  1
  O  O7  1  0.15683328  0.19589873  0.69300922  1
  O  O8  1  0.03800231  0.83770450  0.69318737  1
  O  O9  1  0.79529565  0.81600432  0.19491809  1
  O  O10  1  0.02117117  0.19576558  0.19162387  1
  O  O11  1  0.17549279  0.97662397  0.19799765  1
  O  O12  1  0.88546017  0.35743720  0.63832920  1
  O  O13  1  0.48038913  0.11355159  0.64495126  1
  O  O14  1  0.64062817  0.52351419  0.64650613  1
  O  O15  1  0.88601571  0.49911331  0.13897273  1
  O  O16  1  0.62631447  0.11799077  0.14207013  1
  O  O17  1  0.50425674  0.38487330  0.14031936  1
  O  O18  1  0.47254711  0.30237486  0.02600765  1
  O  O19  1  0.82917315  0.53665496  0.02630668  1
  O  O20  1  0.70861359  0.17295051  0.02741924  1
  O  O21  1  0.47614172  0.16245763  0.52658018  1
  O  O22  1  0.69054592  0.52321151  0.52936147  1
  O  O23  1  0.84817333  0.31192019  0.53162762  1
  O  O24  1  0.52972606  0.68777600  0.97473618  1
  O  O25  1  0.16003283  0.46974593  0.97448701  1
  O  O26  1  0.31154080  0.83500394  0.97172771  1
  O  O27  1  0.52081685  0.83909492  0.47316143  1
  O  O28  1  0.31044845  0.47709322  0.47468841  1
  O  O29  1  0.16565686  0.68650981  0.47374071  1
  O  O30  1  0.13555675  0.62974067  0.35913890  1
  O  O31  1  0.49280434  0.86401911  0.35828115  1
  O  O32  1  0.36217737  0.50136404  0.35987503  1
  O  O33  1  0.13817929  0.49674109  0.85787982  1
  O  O34  1  0.35890356  0.86528634  0.85672396  1
  O  O35  1  0.50533231  0.64223438  0.85818070  1
  O  O36  1  0.03497112  0.83443262  0.41019298  1
  O  O37  1  0.80562851  0.97130643  0.41520582  1
  O  O38  1  0.17905950  0.18362671  0.41403662  1
  O  O39  1  0.02622281  0.18912846  0.91015484  1
  O  O40  1  0.16314511  0.97448093  0.91040612  1
  O  O41  1  0.81169291  0.83764794  0.91078466  1
  O  O42  1  0.97338855  0.17514857  0.58651402  1
  O  O43  1  0.18480591  0.03115162  0.58877180  1
  O  O44  1  0.83711743  0.81996915  0.58863930  1
  O  O45  1  0.97046446  0.81243278  0.09408946  1
  O  O46  1  0.83615258  0.02014355  0.09285157  1
  O  O47  1  0.18608076  0.16348663  0.09147067  1
  O  O48  1  0.69465399  0.16743666  0.74648848  1
  O  O49  1  0.47207926  0.30797202  0.74807953  1
  O  O50  1  0.83874277  0.52166219  0.74627933  1
  O  O51  1  0.68198200  0.53888208  0.24481155  1
  O  O52  1  0.83520371  0.32370653  0.24824155  1
  O  O53  1  0.45650182  0.15125864  0.24458990  1
  O  O54  1  0.63945597  0.49286503  0.92276523  1
  O  O55  1  0.85546568  0.36262906  0.92327700  1
  O  O56  1  0.50758384  0.14490066  0.92373197  1
  O  O57  1  0.62683137  0.14222531  0.42446865  1
  O  O58  1  0.51036463  0.36836992  0.42416910  1
  O  O59  1  0.85645218  0.48511549  0.42628566  1
  O  O60  1  0.34467814  0.49422241  0.07297464  1
  O  O61  1  0.14939410  0.64871680  0.07238432  1
  O  O62  1  0.50703439  0.84315593  0.07396575  1
  O  O63  1  0.34036855  0.84534128  0.57496507  1
  O  O64  1  0.49492257  0.64567187  0.57556166  1
  O  O65  1  0.13181635  0.48563739  0.57653903  1
  O  O66  1  0.30296623  0.83736997  0.25151694  1
  O  O67  1  0.53834325  0.70752527  0.25295308  1
  O  O68  1  0.18281996  0.48874307  0.25411841  1
  O  O69  1  0.29779647  0.47663857  0.75642982  1
  O  O70  1  0.18019180  0.70254329  0.75626514  1
  O  O71  1  0.52439545  0.82234494  0.75617817  1
loop_
_geom_bond_atom_site_label_1
_geom_bond_atom_site_label_2
_geom_bond_distance
_geom_bond_site_symmetry_2
Na0 O50 2.426441 1_555
Na0 O14 2.429929 1_555
Na0 O71 2.448825 1_555
Na0 O49 2.456444 1_555
Na0 O69 2.646712 1_555
Na0 O35 2.863574 1_555
Na0 O6 2.904883 1_555
Na0 O4 2.991424 1_555
Na1 O48 2.344973 1_555
Na1 O50 2.401750 1_555
Na1 O69 2.436752 1_655
Na1 O70 2.646594 1_655
Na1 O12 2.680789 1_555
Na1 O33 2.776216 1_655
Na1 O7 2.907059 1_655
Na1 O5 2.963846 1_555
Na2 O49 2.378637 1_555
Na2 O70 2.434179 1_545
Na2 O48 2.465397 1_555
Na2 O13 2.480529 1_555
Na2 O71 2.603209 1_545
Na2 O34 2.799328 1_545
Na2 O8 2.912043 1_545
Na3 O45 2.441020 1_555
Na3 O62 2.441988 1_555
Na3 O60 2.491653 1_555
Na3 O46 2.624741 1_565
Na3 O17 2.656081 1_555
Na3 O24 2.762486 1_554
Na3 O9 2.784521 1_555
Na3 O19 2.796425 1_555
Na4 O61 2.418006 1_555
Na4 O46 2.520898 1_455
Na4 O60 2.526495 1_555
Na4 O15 2.613489 1_455
Na4 O47 2.661252 1_555
Na4 O20 2.765028 1_455
Na4 O25 2.767333 1_554
Na4 O10 2.775261 1_555
Na5 O36 2.297559 1_545
Na5 O38 2.336577 1_555
Na5 O57 2.396620 1_555
Na5 O58 2.660876 1_555
Na5 O0 2.726120 1_555
Na5 O21 2.810976 1_555
Na5 O31 2.917398 1_545
Na5 O29 2.957998 1_545
Na6 O37 2.378205 1_555
Na6 O38 2.520794 1_665
Na6 O36 2.550955 1_655
Na6 O44 2.595300 1_555
Na6 O43 2.687334 1_665
Na6 O42 2.696970 1_565
Na7 O40 2.417663 1_555
Na7 O41 2.499679 1_455
Na7 O39 2.534941 1_565
Na7 O47 2.699427 1_566
Na7 O45 2.728508 1_456
Na7 O46 2.811639 1_466
Na8 O49 2.554973 1_555
Na8 O48 2.564578 1_555
Na8 O54 2.566926 1_555
Na8 O55 2.571872 1_555
Na8 O50 2.575792 1_555
Na8 O56 2.589278 1_555
Na9 O52 2.283913 1_555
Na9 O59 2.615745 1_555
Na9 O51 2.649648 1_555
Na9 O57 2.685685 1_555
Na9 O53 2.732525 1_555
Na9 O58 2.814474 1_555
Na10 O66 2.490432 1_555
Na10 O68 2.491056 1_555
Na10 O67 2.610707 1_555
Na10 O61 2.642093 1_555
Na10 O62 2.648532 1_555
Na10 O60 2.735739 1_555
Na11 O64 2.471645 1_555
Na11 O63 2.504514 1_555
Na11 O71 2.626826 1_555
Na11 O65 2.641188 1_555
Na11 O70 2.696362 1_555
Na11 O69 2.696676 1_555
O0 S0 1.459852 1_545
O0 Sc0 2.294091 1_455
O1 S1 1.464894 1_555
O1 Sc0 2.185936 1_565
O2 Si0 1.598586 1_555
O2 Sc0 1.952600 1_555
O3 Si1 1.631986 1_555
O3 Ta0 1.961611 1_455
O4 Si2 1.625632 1_655
O4 Ta0 1.976867 1_565
O5 Si3 1.634904 1_545
O5 Ta0 1.952750 1_555
O6 Si3 1.647659 1_555
O6 Ta1 1.988363 1_655
O7 Si1 1.647006 1_555
O7 Ta1 1.989995 1_545
O8 Si2 1.670074 1_555
O8 Ta1 1.912491 1_555
O9 S1 1.521394 1_555
O9 Ta2 2.174666 1_665
O10 Si0 1.715376 1_455
O10 Ta2 1.913723 1_555
O11 S0 1.524598 1_555
O11 Ta2 2.089775 1_565
O12 S2 1.483077 1_555
O12 Sc1 2.249747 1_555
O13 Si4 1.617555 1_555
O13 Sc1 2.010065 1_555
O14 Si5 1.614438 1_555
O14 Sc1 2.016658 1_555
O15 Si6 1.602746 1_555
O15 Sc2 2.002887 1_555
O16 Si7 1.587975 1_555
O16 Sc2 1.980693 1_555
O17 Si8 1.594408 1_555
O17 Sc2 2.077724 1_555
O18 Si8 1.640214 1_555
O18 Ta3 1.969792 1_554
O19 Si6 1.651519 1_555
O19 Ta3 2.003731 1_554
O20 Si7 1.645513 1_555
O20 Ta3 2.015616 1_554
O21 Si4 1.660367 1_555
O21 Ta4 1.978806 1_555
O22 Si5 1.661815 1_555
O22 Ta4 1.924831 1_555
O23 S2 1.481228 1_555
O23 Ta4 2.200612 1_555
O24 Si9 1.632965 1_555
O24 Ta5 1.964409 1_556
O25 Si10 1.633065 1_555
O25 Ta5 1.957468 1_556
O26 Si11 1.634108 1_555
O26 Ta5 1.913082 1_556
O27 Si12 1.654287 1_555
O27 Ta6 1.867775 1_555
O28 Si13 1.615064 1_555
O28 Ta6 1.948285 1_555
O29 Si14 1.629039 1_555
O29 Ta6 1.940550 1_555
O30 Si14 1.684253 1_555
O30 Ta7 1.877966 1_555
O31 Si12 1.664248 1_555
O31 Ta7 1.980508 1_555
O32 Si13 1.665574 1_555
O32 Ta7 1.882362 1_555
O33 Si10 1.658734 1_555
O33 Ta8 1.945595 1_555
O34 Si11 1.654601 1_555
O34 Ta8 1.940238 1_555
O35 Si9 1.657318 1_555
O35 Ta8 1.932831 1_555
O36 Si14 1.598863 1_555
O36 Sc0 2.140301 1_465
O37 Si12 1.594195 1_555
O37 Sc0 2.000167 1_565
O38 Si13 1.601852 1_555
O38 Sc0 2.068318 1_455
O39 Si10 1.631106 1_555
O39 Ta0 1.994344 1_455
O40 Si11 1.626653 1_555
O40 Ta0 2.011186 1_465
O41 Si9 1.630220 1_555
O41 Ta0 2.005019 1_565
O42 S2 1.492401 1_555
O42 Ta1 2.231161 1_645
O43 Si4 1.659408 1_555
O43 Ta1 1.972667 1_545
O44 Si5 1.657020 1_555
O44 Ta1 1.978085 1_655
O45 Si6 1.653742 1_555
O45 Ta2 2.014547 1_665
O46 Si7 1.703402 1_555
O46 Ta2 1.959123 1_655
O47 Si8 1.681046 1_555
O47 Ta2 1.928902 1_555
O48 Si3 1.616853 1_545
O48 Sc1 2.161751 1_555
O49 Si1 1.623293 1_555
O49 Sc1 2.102977 1_555
O50 Si2 1.611494 1_655
O50 Sc1 2.180018 1_555
O51 S1 1.462497 1_555
O51 Sc2 2.302428 1_555
O52 Si0 1.610007 1_555
O52 Sc2 2.075948 1_555
O53 S0 1.465889 1_545
O53 Sc2 2.306006 1_555
O54 Si9 1.628062 1_555
O54 Ta3 1.998533 1_555
O55 Si10 1.627364 1_655
O55 Ta3 2.010408 1_555
O56 Si11 1.626146 1_545
O56 Ta3 1.999942 1_555
O57 Si12 1.646555 1_545
O57 Ta4 2.045207 1_555
O58 Si13 1.663539 1_555
O58 Ta4 1.923347 1_555
O59 Si14 1.633165 1_655
O59 Ta4 1.973189 1_555
O60 Si8 1.655250 1_555
O60 Ta5 2.047895 1_555
O61 Si6 1.643871 1_455
O61 Ta5 1.997908 1_555
O62 Si7 1.639151 1_565
O62 Ta5 2.012492 1_555
O63 Si4 1.648583 1_565
O63 Ta6 1.983838 1_555
O64 Si5 1.642998 1_555
O64 Ta6 1.986573 1_555
O65 S2 1.487571 1_455
O65 Ta6 2.236363 1_555
O66 S0 1.507488 1_555
O66 Ta7 2.260041 1_555
O67 S1 1.509304 1_555
O67 Ta7 2.256236 1_555
O68 Si0 1.692203 1_455
O68 Ta7 1.972345 1_555
O69 Si1 1.654296 1_555
O69 Ta8 2.046664 1_555
O70 Si2 1.647267 1_555
O70 Ta8 2.050925 1_555
O71 Si3 1.657669 1_555
O71 Ta8 2.056213 1_555
