# generated using pymatgen
data_Rb2MgBi2O5
_symmetry_space_group_name_H-M   'P 1'
_cell_length_a   11.85616775
_cell_length_b   4.32685417
_cell_length_c   4.32685417
_cell_angle_alpha   90.00000000
_cell_angle_beta   90.00000000
_cell_angle_gamma   90.00000000
_symmetry_Int_Tables_number   1
_chemical_formula_structural   Rb2MgBi2O5
_chemical_formula_sum   'Rb2 Mg1 Bi2 O5'
_cell_volume   221.96722461
_cell_formula_units_Z   1
loop_
 _symmetry_equiv_pos_site_id
 _symmetry_equiv_pos_as_xyz
  1  'x, y, z'
loop_
 _atom_site_type_symbol
 _atom_site_label
 _atom_site_symmetry_multiplicity
 _atom_site_fract_x
 _atom_site_fract_y
 _atom_site_fract_z
 _atom_site_occupancy
  Rb  Rb0  1  0.91370919  0.00000000  0.00000000  1
  Rb  Rb1  1  0.57136822  0.00000000  0.00000000  1
  Mg  Mg0  1  0.21589211  -0.00000000  0.00000000  1
  Bi  Bi0  1  0.31826459  0.49999900  0.49999900  1
  Bi  Bi1  1  0.72068676  0.49999900  0.49999900  1
  O  O0  1  0.23327230  0.49999900  -0.00000000  1
  O  O1  1  0.77592534  0.49999900  -0.00000000  1
  O  O2  1  0.49882886  0.49999900  0.49999900  1
  O  O3  1  0.23327230  0.00000000  0.49999900  1
  O  O4  1  0.77592534  0.00000000  0.49999900  1
loop_
_geom_bond_atom_site_label_1
_geom_bond_atom_site_label_2
_geom_bond_distance
_geom_bond_site_symmetry_2
Mg0 O0 2.173214 1_555
Mg0 O3 2.173214 1_555
Mg0 O3 2.173223 1_554
Mg0 O0 2.173223 1_545
Bi0 O2 2.140800 1_555
Bi0 O0 2.386592 1_555
Bi0 O3 2.386592 1_555
Bi0 O0 2.386600 1_556
Bi0 O3 2.386600 1_565
Bi1 O1 2.260379 1_555
Bi1 O4 2.260379 1_555
Bi1 O1 2.260388 1_556
Bi1 O4 2.260388 1_565
Bi1 O2 2.630384 1_555
O1 Rb0 2.710906 1_555
O1 Rb0 2.710913 1_565
O1 Rb1 3.249969 1_555
O1 Rb1 3.249975 1_565
O2 Rb1 3.178123 1_555
O2 Rb1 3.178128 1_565
O2 Rb1 3.178128 1_556
O2 Rb1 3.178134 1_566
O4 Rb0 2.710906 1_555
O4 Rb0 2.710913 1_556
O4 Rb1 3.249969 1_555
O4 Rb1 3.249975 1_556
