# generated using pymatgen
data_MgFe(CoO3)2
_symmetry_space_group_name_H-M   'P 1'
_cell_length_a   6.47057422
_cell_length_b   2.90439786
_cell_length_c   5.74295032
_cell_angle_alpha   89.96580122
_cell_angle_beta   103.19286551
_cell_angle_gamma   77.05941354
_symmetry_Int_Tables_number   1
_chemical_formula_structural   MgFe(CoO3)2
_chemical_formula_sum   'Mg1 Fe1 Co2 O6'
_cell_volume   102.25857192
_cell_formula_units_Z   1
loop_
 _symmetry_equiv_pos_site_id
 _symmetry_equiv_pos_as_xyz
  1  'x, y, z'
loop_
 _atom_site_type_symbol
 _atom_site_label
 _atom_site_symmetry_multiplicity
 _atom_site_fract_x
 _atom_site_fract_y
 _atom_site_fract_z
 _atom_site_occupancy
  Mg  Mg0  1  0.01230400  0.99447500  0.51108300  1
  Fe  Fe0  1  0.36240600  0.31952100  0.29786000  1
  Co  Co0  1  0.99074000  0.00516600  0.00725500  1
  Co  Co1  1  0.65548200  0.67250900  0.68694800  1
  O  O0  1  0.01410700  0.49342900  0.24323000  1
  O  O1  1  0.34996100  0.82525400  0.54528400  1
  O  O2  1  0.68033800  0.15999200  0.89858000  1
  O  O3  1  0.29947700  0.85119100  0.06898700  1
  O  O4  1  0.67654000  0.16218700  0.46767800  1
  O  O5  1  0.96864600  0.51627300  0.77309500  1
loop_
_geom_bond_atom_site_label_1
_geom_bond_atom_site_label_2
_geom_bond_distance
_geom_bond_site_symmetry_2
Mg0 O4 2.073212 1_465
Mg0 O1 2.092057 1_555
Mg0 O0 2.116499 1_565
Mg0 O0 2.118342 1_555
Mg0 O5 2.154127 1_455
Mg0 O5 2.155403 1_465
Fe0 O3 1.936376 1_545
Fe0 O3 1.936394 1_555
Fe0 O4 1.992516 1_555
Fe0 O1 2.045686 1_555
Fe0 O1 2.046444 1_545
Fe0 O0 2.144742 1_555
Co0 O3 1.895497 1_645
Co0 O2 1.910154 1_554
Co0 O5 1.961446 1_554
Co0 O5 1.962273 1_544
Co0 O0 1.967708 1_645
Co0 O0 1.968563 1_655
Co1 O2 1.876226 1_555
Co1 O2 1.876826 1_565
Co1 O1 1.907735 1_555
Co1 O5 1.920175 1_555
Co1 O4 1.946787 1_565
Co1 O4 1.947111 1_555
