# generated using pymatgen
data_Eu2MgTiO4
_symmetry_space_group_name_H-M   'P 1'
_cell_length_a   3.88628499
_cell_length_b   3.96494182
_cell_length_c   8.31764869
_cell_angle_alpha   90.03448278
_cell_angle_beta   103.51008670
_cell_angle_gamma   89.99999648
_symmetry_Int_Tables_number   1
_chemical_formula_structural   Eu2MgTiO4
_chemical_formula_sum   'Eu2 Mg1 Ti1 O4'
_cell_volume   124.61924275
_cell_formula_units_Z   1
loop_
 _symmetry_equiv_pos_site_id
 _symmetry_equiv_pos_as_xyz
  1  'x, y, z'
loop_
 _atom_site_type_symbol
 _atom_site_label
 _atom_site_symmetry_multiplicity
 _atom_site_fract_x
 _atom_site_fract_y
 _atom_site_fract_z
 _atom_site_occupancy
  Eu  Eu0  1  0.39814693  0.59344475  0.79629486  1
  Eu  Eu1  1  0.62489735  0.58941784  0.24979371  1
  Mg  Mg0  1  0.79085234  0.09359899  0.58170469  1
  Ti  Ti0  1  0.01833044  0.09272325  0.03666088  1
  O  O0  1  0.13516789  0.10032002  0.27033577  1
  O  O1  1  0.77128130  0.59375234  0.54256261  1
  O  O2  1  0.00432233  0.59415043  0.00864466  1
  O  O3  1  0.50700141  0.09259239  0.01400282  1
loop_
_geom_bond_atom_site_label_1
_geom_bond_atom_site_label_2
_geom_bond_distance
_geom_bond_site_symmetry_2
Eu0 O2 2.593295 1_556
Eu0 O2 2.593298 1_656
Eu0 O3 2.648130 1_566
Eu0 O3 2.654813 1_556
Eu0 O1 2.826082 1_455
Eu0 O1 2.826084 1_555
Eu1 O1 2.367817 1_555
Eu1 O3 2.740853 1_555
Eu1 O0 2.750357 1_655
Eu1 O0 2.750360 1_555
Eu1 O2 2.753148 1_655
Eu1 O2 2.753151 1_555
Eu1 O3 2.760697 1_565
Eu1 O0 2.811837 1_665
Eu1 O0 2.811840 1_565
Mg0 O1 2.006792 1_545
Mg0 O1 2.008380 1_555
O0 Ti0 1.890065 1_555
O2 Ti0 1.989616 1_565
O2 Ti0 2.001139 1_555
O3 Ti0 1.951764 1_555
O3 Ti0 1.951764 1_655
