# generated using pymatgen
data_CeNiGe
_symmetry_space_group_name_H-M   'P 1'
_cell_length_a   4.31728943
_cell_length_b   7.15043211
_cell_length_c   7.23411061
_cell_angle_alpha   90.00572320
_cell_angle_beta   90.00000000
_cell_angle_gamma   90.00000000
_symmetry_Int_Tables_number   1
_chemical_formula_structural   CeNiGe
_chemical_formula_sum   'Ce4 Ni4 Ge4'
_cell_volume   223.32050167
_cell_formula_units_Z   4
loop_
 _symmetry_equiv_pos_site_id
 _symmetry_equiv_pos_as_xyz
  1  'x, y, z'
loop_
 _atom_site_type_symbol
 _atom_site_label
 _atom_site_symmetry_multiplicity
 _atom_site_fract_x
 _atom_site_fract_y
 _atom_site_fract_z
 _atom_site_occupancy
  Ce  Ce0  1  0.25000000  0.29425264  0.48556393  1
  Ce  Ce1  1  0.75000000  0.70574736  0.51443607  1
  Ce  Ce2  1  0.75000000  0.79439997  0.01430057  1
  Ce  Ce3  1  0.25000000  0.20560003  0.98569943  1
  Ni  Ni0  1  0.75000000  0.07941541  0.30426570  1
  Ni  Ni1  1  0.75000000  0.42041761  0.80457476  1
  Ni  Ni2  1  0.25000000  0.57958239  0.19542524  1
  Ni  Ni3  1  0.25000000  0.92058459  0.69573430  1
  Ge  Ge0  1  0.75000000  0.40873536  0.19202235  1
  Ge  Ge1  1  0.75000000  0.09110481  0.69251025  1
  Ge  Ge2  1  0.25000000  0.90889519  0.30748975  1
  Ge  Ge3  1  0.25000000  0.59126464  0.80797765  1
loop_
_geom_bond_atom_site_label_1
_geom_bond_atom_site_label_2
_geom_bond_distance
_geom_bond_site_symmetry_2
Ce0 Ni2 2.927244 1_555
Ce0 Ni0 2.956232 1_455
Ce0 Ni0 2.956232 1_555
Ce0 Ge1 3.001906 1_555
Ce0 Ge1 3.001906 1_455
Ce0 Ge2 3.041611 1_545
Ce0 Ni3 3.074313 1_545
Ce0 Ge0 3.136799 1_555
Ce0 Ge0 3.136799 1_455
Ce0 Ge3 3.154261 1_555
Ce0 Ni1 3.286173 1_455
Ce0 Ni1 3.286173 1_555
Ce1 Ni1 2.927244 1_555
Ce1 Ni3 2.956232 1_555
Ce1 Ni3 2.956232 1_655
Ce1 Ge2 3.001906 1_655
Ce1 Ge2 3.001906 1_555
Ce1 Ge1 3.041611 1_565
Ce1 Ni0 3.074313 1_565
Ce1 Ge3 3.136799 1_655
Ce1 Ge3 3.136799 1_555
Ce1 Ge0 3.154261 1_555
Ce1 Ni2 3.286173 1_555
Ce1 Ni2 3.286173 1_655
Ce2 Ni0 2.924486 1_565
Ce2 Ni2 2.955738 1_555
Ce2 Ni2 2.955738 1_655
Ce2 Ge3 2.999472 1_654
Ce2 Ge3 2.999472 1_554
Ce2 Ge0 3.042756 1_555
Ce2 Ni1 3.074414 1_554
Ce2 Ge2 3.134986 1_555
Ce2 Ge2 3.134986 1_655
Ce2 Ge1 3.149762 1_564
Ce2 Ni3 3.284080 1_654
Ce2 Ni3 3.284080 1_554
Ce3 Ni3 2.924486 1_545
Ce3 Ni1 2.955738 1_555
Ce3 Ni1 2.955738 1_455
Ce3 Ge0 2.999472 1_556
Ce3 Ge0 2.999472 1_456
Ce3 Ge3 3.042756 1_555
Ce3 Ni2 3.074414 1_556
Ce3 Ge1 3.134986 1_455
Ce3 Ge1 3.134986 1_555
Ce3 Ge2 3.149762 1_546
Ce3 Ni0 3.284080 1_556
Ce3 Ni0 3.284080 1_456
Ge0 Ni2 2.480469 1_555
Ge0 Ni2 2.480469 1_655
Ge0 Ni0 2.490920 1_555
Ge0 Ni1 2.804092 1_554
Ge1 Ni3 2.479309 1_545
Ge1 Ni3 2.479309 1_645
Ge1 Ni1 2.490297 1_555
Ge1 Ni0 2.809839 1_555
Ge2 Ni0 2.479309 1_565
Ge2 Ni0 2.479309 1_465
Ge2 Ni2 2.490297 1_555
Ge2 Ni3 2.809839 1_555
Ge3 Ni1 2.480469 1_555
Ge3 Ni1 2.480469 1_455
Ge3 Ni3 2.490920 1_555
Ge3 Ni2 2.804092 1_556
