# generated using pymatgen
data_MgCr4O8
_symmetry_space_group_name_H-M   'P 1'
_cell_length_a   5.90213120
_cell_length_b   5.90352221
_cell_length_c   6.31567186
_cell_angle_alpha   57.67752863
_cell_angle_beta   57.66941686
_cell_angle_gamma   57.16897830
_symmetry_Int_Tables_number   1
_chemical_formula_structural   MgCr4O8
_chemical_formula_sum   'Mg1 Cr4 O8'
_cell_volume   146.66935845
_cell_formula_units_Z   1
loop_
 _symmetry_equiv_pos_site_id
 _symmetry_equiv_pos_as_xyz
  1  'x, y, z'
loop_
 _atom_site_type_symbol
 _atom_site_label
 _atom_site_symmetry_multiplicity
 _atom_site_fract_x
 _atom_site_fract_y
 _atom_site_fract_z
 _atom_site_occupancy
  Mg  Mg0  1  0.92224800  0.92251900  0.57774700  1
  Cr  Cr0  1  0.00431400  0.00412400  0.99645200  1
  Cr  Cr1  1  0.26584300  0.26530200  0.23477300  1
  Cr  Cr2  1  0.61109100  0.61088200  0.14764100  1
  Cr  Cr3  1  0.61032800  0.61012600  0.63140900  1
  O  O0  1  0.37431400  0.37482100  0.36260900  1
  O  O1  1  0.35433800  0.85599000  0.39483800  1
  O  O2  1  0.37364500  0.37409000  0.88909300  1
  O  O3  1  0.85619500  0.35429500  0.39475800  1
  O  O4  1  0.39539800  0.84705100  0.87884900  1
  O  O5  1  0.84709700  0.39509200  0.87898100  1
  O  O6  1  0.85477600  0.85506100  0.35539100  1
  O  O7  1  0.85541200  0.85564700  0.93454100  1
loop_
_geom_bond_atom_site_label_1
_geom_bond_atom_site_label_2
_geom_bond_distance
_geom_bond_site_symmetry_2
Mg0 O7 1.912073 1_555
Mg0 O6 1.912460 1_555
Mg0 O3 2.058927 1_565
Mg0 O1 2.059249 1_655
Cr0 O6 1.805886 1_446
Cr0 O7 1.806356 1_445
Cr0 O4 1.822450 1_545
Cr0 O5 1.822522 1_455
Cr1 O0 1.743459 1_555
Cr1 O2 1.744014 1_554
Cr1 O1 1.928131 1_545
Cr1 O3 1.928724 1_455
Cr2 O0 1.948697 1_555
Cr2 O7 2.020546 1_554
Cr2 O5 2.074012 1_554
Cr2 O4 2.074203 1_554
Cr2 O3 2.081783 1_555
Cr2 O1 2.082111 1_555
Cr3 O2 1.948241 1_555
Cr3 O6 2.021817 1_555
Cr3 O5 2.073666 1_555
Cr3 O4 2.073844 1_555
Cr3 O3 2.082846 1_555
Cr3 O1 2.083130 1_555
