# generated using pymatgen
data_Na15CaNb11(SiO4)18
_symmetry_space_group_name_H-M   'P 1'
_cell_length_a   9.08428026
_cell_length_b   9.08303942
_cell_length_c   22.76365962
_cell_angle_alpha   90.12716374
_cell_angle_beta   89.87115498
_cell_angle_gamma   120.16571552
_symmetry_Int_Tables_number   1
_chemical_formula_structural   Na15CaNb11(SiO4)18
_chemical_formula_sum   'Na15 Ca1 Nb11 Si18 O72'
_cell_volume   1623.92272650
_cell_formula_units_Z   1
loop_
 _symmetry_equiv_pos_site_id
 _symmetry_equiv_pos_as_xyz
  1  'x, y, z'
loop_
 _atom_site_type_symbol
 _atom_site_label
 _atom_site_symmetry_multiplicity
 _atom_site_fract_x
 _atom_site_fract_y
 _atom_site_fract_z
 _atom_site_occupancy
  Na  Na0  1  0.36622625  0.36595509  0.25089237  1
  Na  Na1  1  0.63244362  0.61851628  0.74555439  1
  Na  Na2  1  0.98545824  0.36796158  0.74564179  1
  Na  Na3  1  0.38294047  0.01421324  0.74541594  1
  Na  Na4  1  0.31125188  0.33762475  0.58335712  1
  Na  Na5  1  0.02601687  0.68823642  0.58337125  1
  Na  Na6  1  0.66209777  0.97371338  0.58334790  1
  Na  Na7  1  0.30021419  0.96757936  0.08445268  1
  Na  Na8  1  0.70053070  0.03499904  0.91760878  1
  Na  Na9  1  0.00044440  0.00025948  0.49434866  1
  Na  Na10  1  0.00029006  0.00050849  0.00214632  1
  Na  Na11  1  0.66586122  0.33892515  0.83081757  1
  Na  Na12  1  0.67328152  0.33239810  0.33427400  1
  Na  Na13  1  0.33386083  0.66708459  0.16845164  1
  Na  Na14  1  0.33346754  0.66692818  0.66499345  1
  Ca  Ca0  1  0.66678439  0.33338443  0.68300330  1
  Nb  Nb0  1  0.99918492  0.99986585  0.35452706  1
  Nb  Nb1  1  0.00473714  0.99966025  0.85700497  1
  Nb  Nb2  1  0.99980195  0.99984070  0.64630554  1
  Nb  Nb3  1  0.99449803  0.99925474  0.14634440  1
  Nb  Nb4  1  0.67119186  0.33387426  0.18823454  1
  Nb  Nb5  1  0.66728553  0.33808726  0.97946874  1
  Nb  Nb6  1  0.66592206  0.33339507  0.47741825  1
  Nb  Nb7  1  0.33266162  0.66166769  0.02216332  1
  Nb  Nb8  1  0.33298280  0.66637890  0.51411284  1
  Nb  Nb9  1  0.33299484  0.67180431  0.31248968  1
  Nb  Nb10  1  0.33327888  0.66580908  0.81487033  1
  Si  Si0  1  0.28647779  0.99703055  0.24919908  1
  Si  Si1  1  0.71148468  0.71161084  0.25065168  1
  Si  Si2  1  0.99796356  0.28776935  0.25065867  1
  Si  Si3  1  0.28604364  0.29124375  0.75189814  1
  Si  Si4  1  0.00507985  0.71401935  0.75200336  1
  Si  Si5  1  0.71008203  0.99523233  0.75303233  1
  Si  Si6  1  0.96369340  0.33611606  0.58312964  1
  Si  Si7  1  0.37233302  0.03574456  0.58330124  1
  Si  Si8  1  0.66300284  0.62749087  0.58323531  1
  Si  Si9  1  0.95477992  0.62248798  0.08345380  1
  Si  Si10  1  0.67019196  0.04674754  0.08239980  1
  Si  Si11  1  0.37883481  0.33460536  0.08440973  1
  Si  Si12  1  0.62116601  0.66267113  0.91726006  1
  Si  Si13  1  0.04301967  0.37833942  0.91727262  1
  Si  Si14  1  0.33247058  0.95563991  0.91850143  1
  Si  Si15  1  0.62607624  0.95920860  0.41560958  1
  Si  Si16  1  0.33366926  0.37536935  0.41445904  1
  Si  Si17  1  0.04123979  0.66692432  0.41540219  1
  O  O0  1  0.19485690  0.03277667  0.30531461  1
  O  O1  1  0.83356173  0.80556798  0.30713904  1
  O  O2  1  0.97170298  0.16657673  0.30729772  1
  O  O3  1  0.18032381  0.16759940  0.80728614  1
  O  O4  1  0.98515629  0.81880495  0.80729779  1
  O  O5  1  0.82870548  0.01396423  0.80976322  1
  O  O6  1  0.80205909  0.96686954  0.69322343  1
  O  O7  1  0.16634317  0.19985970  0.69215004  1
  O  O8  1  0.03377036  0.83419879  0.69233133  1
  O  O9  1  0.80692554  0.83304766  0.19307516  1
  O  O10  1  0.03152680  0.19483364  0.19357667  1
  O  O11  1  0.17146349  0.97219022  0.19017851  1
  O  O12  1  0.91168855  0.38779210  0.64351047  1
  O  O13  1  0.47601891  0.08839515  0.64347292  1
  O  O14  1  0.61184455  0.52340057  0.64340298  1
  O  O15  1  0.85969539  0.49975123  0.14022307  1
  O  O16  1  0.63430732  0.13956121  0.13860552  1
  O  O17  1  0.49529216  0.36168215  0.14272365  1
  O  O18  1  0.47340083  0.30245307  0.02773395  1
  O  O19  1  0.83400831  0.52656289  0.02627364  1
  O  O20  1  0.69455229  0.16146368  0.02364407  1
  O  O21  1  0.46982704  0.17037516  0.52869789  1
  O  O22  1  0.70063140  0.53018226  0.52863517  1
  O  O23  1  0.82911787  0.29936127  0.52867344  1
  O  O24  1  0.52632637  0.69831266  0.97250198  1
  O  O25  1  0.16819367  0.47596621  0.97314180  1
  O  O26  1  0.30647097  0.83679840  0.97584790  1
  O  O27  1  0.53472475  0.84288236  0.47392232  1
  O  O28  1  0.30845277  0.46736654  0.47284458  1
  O  O29  1  0.15790380  0.69216349  0.47367159  1
  O  O30  1  0.14011718  0.63931045  0.35962701  1
  O  O31  1  0.50022354  0.85946559  0.35980614  1
  O  O32  1  0.36070296  0.49554141  0.35723365  1
  O  O33  1  0.13531487  0.49609237  0.85841355  1
  O  O34  1  0.36388791  0.86372854  0.86004001  1
  O  O35  1  0.50331695  0.63815292  0.85830198  1
  O  O36  1  0.02520349  0.83699373  0.40890619  1
  O  O37  1  0.81267754  0.97599643  0.40949341  1
  O  O38  1  0.16364039  0.18714851  0.40931902  1
  O  O39  1  0.01762829  0.18687835  0.91116565  1
  O  O40  1  0.16471049  0.97569282  0.91094560  1
  O  O41  1  0.80563752  0.83847843  0.91089162  1
  O  O42  1  0.97849688  0.16072848  0.58824284  1
  O  O43  1  0.18220472  0.02118880  0.58823828  1
  O  O44  1  0.83905690  0.81785779  0.58827062  1
  O  O45  1  0.98196703  0.81429023  0.08936630  1
  O  O46  1  0.83727636  0.02561700  0.09031246  1
  O  O47  1  0.19303848  0.15992611  0.08955207  1
  O  O48  1  0.69089906  0.16074212  0.75292328  1
  O  O49  1  0.46953120  0.30903543  0.75267207  1
  O  O50  1  0.83887969  0.53007988  0.75260678  1
  O  O51  1  0.68550118  0.51932922  0.24294493  1
  O  O52  1  0.82951492  0.30710411  0.24221480  1
  O  O53  1  0.47357120  0.17242275  0.24239346  1
  O  O54  1  0.63973418  0.49498547  0.92391527  1
  O  O55  1  0.85248786  0.35271182  0.92324118  1
  O  O56  1  0.50750203  0.14002561  0.92338943  1
  O  O57  1  0.64064016  0.14542051  0.42413505  1
  O  O58  1  0.50458795  0.35934760  0.42447010  1
  O  O59  1  0.85460769  0.49516275  0.42425328  1
  O  O60  1  0.35935790  0.50338193  0.07542164  1
  O  O61  1  0.14680360  0.64747150  0.07641211  1
  O  O62  1  0.49398480  0.86005079  0.07599498  1
  O  O63  1  0.33965650  0.84296136  0.57119845  1
  O  O64  1  0.50301341  0.65995794  0.57116000  1
  O  O65  1  0.15700697  0.49660428  0.57109934  1
  O  O66  1  0.30817327  0.82959877  0.25675625  1
  O  O67  1  0.51923492  0.68478287  0.25637496  1
  O  O68  1  0.17321958  0.47316272  0.25654324  1
  O  O69  1  0.29430500  0.47644973  0.75608177  1
  O  O70  1  0.18230982  0.70654663  0.75667618  1
  O  O71  1  0.52350539  0.81793836  0.75633892  1
loop_
_geom_bond_atom_site_label_1
_geom_bond_atom_site_label_2
_geom_bond_distance
_geom_bond_site_symmetry_2
Na0 O68 2.398592 1_555
Na0 O53 2.408076 1_555
Na0 O67 2.507539 1_555
Na0 O51 2.514695 1_555
Na0 O32 2.700734 1_555
Na0 O17 2.733408 1_555
Na0 O0 2.896512 1_555
Na0 O10 2.936345 1_555
Na1 O50 2.388245 1_555
Na1 O49 2.436866 1_555
Na1 O14 2.453401 1_555
Na1 O71 2.473685 1_555
Na1 O69 2.678176 1_555
Na1 O35 2.861758 1_555
Na1 O6 2.985550 1_555
Na2 O48 2.380762 1_555
Na2 O50 2.436209 1_555
Na2 O12 2.452915 1_555
Na2 O69 2.474388 1_655
Na2 O70 2.681495 1_655
Na2 O33 2.864940 1_655
Na3 O49 2.387198 1_555
Na3 O48 2.426142 1_555
Na3 O13 2.445334 1_555
Na3 O70 2.465624 1_545
Na3 O71 2.676177 1_545
Na3 O34 2.912483 1_545
Na3 O8 2.998524 1_545
Na4 O65 2.482631 1_555
Na4 O43 2.502439 1_555
Na4 O64 2.561095 1_555
Na4 O42 2.617174 1_455
Na4 O14 2.747352 1_555
Na4 O28 2.785955 1_555
Na4 O7 2.788457 1_555
Na4 O21 2.848500 1_555
Na5 O63 2.478649 1_555
Na5 O44 2.508256 1_455
Na5 O65 2.569370 1_555
Na5 O43 2.618805 1_565
Na5 O12 2.749854 1_455
Na5 O29 2.759807 1_555
Na5 O8 2.794108 1_555
Na5 O22 2.845110 1_455
Na6 O64 2.479175 1_555
Na6 O42 2.500600 1_565
Na6 O63 2.563764 1_555
Na6 O44 2.624771 1_555
Na6 O13 2.751112 1_565
Na6 O27 2.752028 1_555
Na6 O6 2.823246 1_555
Na6 O23 2.845631 1_565
Na7 O47 2.392036 1_565
Na7 O62 2.411430 1_555
Na7 O45 2.502607 1_455
Na7 O61 2.521114 1_555
Na7 O11 2.682927 1_555
Na7 O26 2.753267 1_554
Na7 O16 2.900781 1_565
Na7 O18 2.931369 1_565
Na8 O56 2.383649 1_555
Na8 O41 2.415020 1_545
Na8 O39 2.495540 1_655
Na8 O55 2.499085 1_555
Na8 O20 2.682987 1_556
Na8 O5 2.761837 1_555
Na8 O24 2.926136 1_545
Na8 O34 2.952535 1_545
Na9 O38 2.509662 1_555
Na9 O37 2.514826 1_445
Na9 O36 2.520541 1_545
Na9 O42 2.647428 1_455
Na9 O44 2.650634 1_445
Na9 O43 2.651228 1_555
Na10 O45 2.561464 1_445
Na10 O47 2.564412 1_555
Na10 O46 2.568457 1_455
Na10 O40 2.629474 1_544
Na10 O39 2.631690 1_554
Na10 O41 2.644887 1_444
Na11 O50 2.431709 1_555
Na11 O49 2.438143 1_555
Na11 O48 2.484068 1_555
Na11 O54 2.622855 1_555
Na11 O55 2.667931 1_555
Na11 O56 2.676801 1_555
Na12 O59 2.578497 1_555
Na12 O57 2.581309 1_555
Na12 O52 2.602086 1_555
Na12 O58 2.642834 1_555
Na12 O51 2.653786 1_555
Na12 O53 2.670492 1_555
Na13 O66 2.570008 1_555
Na13 O67 2.570829 1_555
Na13 O68 2.583121 1_555
Na13 O61 2.649357 1_555
Na13 O62 2.656652 1_555
Na13 O60 2.660674 1_555
Na14 O71 2.609428 1_555
Na14 O69 2.610234 1_555
Na14 O70 2.617473 1_555
Na14 O64 2.649773 1_555
Na14 O65 2.653258 1_555
Na14 O63 2.653807 1_555
Ca0 O13 2.210698 1_555
Ca0 O12 2.211352 1_555
Ca0 O14 2.217012 1_555
Ca0 O50 2.310397 1_555
Ca0 O49 2.316344 1_555
Ca0 O48 2.323395 1_555
Nb0 O1 1.967795 1_555
Nb0 O2 1.974711 1_565
Nb0 O0 1.990600 1_665
Nb0 O37 2.026252 1_555
Nb0 O38 2.031302 1_665
Nb0 O36 2.034107 1_655
Nb1 O3 1.925171 1_565
Nb1 O4 1.926000 1_455
Nb1 O5 1.986882 1_465
Nb1 O40 1.998543 1_555
Nb1 O39 2.053456 1_565
Nb1 O41 2.063045 1_455
Nb2 O6 1.977212 1_555
Nb2 O7 1.978627 1_665
Nb2 O8 1.982823 1_655
Nb2 O44 2.045249 1_555
Nb2 O43 2.049106 1_665
Nb2 O42 2.052782 1_565
Nb3 O9 1.930765 1_555
Nb3 O10 1.953851 1_665
Nb3 O11 2.011455 1_655
Nb3 O46 2.019246 1_565
Nb3 O45 2.077635 1_555
Nb3 O47 2.099207 1_665
Nb4 O15 1.950083 1_555
Nb4 O16 1.975386 1_555
Nb4 O52 1.999588 1_555
Nb4 O17 2.025998 1_555
Nb4 O51 2.043726 1_555
Nb4 O53 2.060482 1_555
Nb5 O19 1.937303 1_556
Nb5 O18 1.958066 1_556
Nb5 O20 2.013437 1_556
Nb5 O54 2.015116 1_555
Nb5 O55 2.062266 1_555
Nb5 O56 2.084881 1_555
Nb6 O58 2.003176 1_555
Nb6 O59 2.007253 1_555
Nb6 O57 2.009238 1_555
Nb6 O21 2.018875 1_555
Nb6 O22 2.019799 1_555
Nb6 O23 2.030936 1_555
Nb7 O25 1.946537 1_554
Nb7 O24 1.971833 1_554
Nb7 O60 1.988748 1_555
Nb7 O26 2.021756 1_554
Nb7 O61 2.040781 1_555
Nb7 O62 2.059266 1_555
Nb8 O28 1.946353 1_555
Nb8 O27 1.952453 1_555
Nb8 O29 1.952901 1_555
Nb8 O65 2.034298 1_555
Nb8 O63 2.039168 1_555
Nb8 O64 2.043396 1_555
Nb9 O31 1.941700 1_555
Nb9 O30 1.944672 1_555
Nb9 O66 2.012164 1_555
Nb9 O32 2.019252 1_555
Nb9 O67 2.073276 1_555
Nb9 O68 2.085715 1_555
Nb10 O33 1.950789 1_555
Nb10 O35 1.955636 1_555
Nb10 O34 1.963934 1_555
Nb10 O69 2.062624 1_555
Nb10 O71 2.066125 1_555
Nb10 O70 2.071953 1_555
O0 Si0 1.641604 1_545
O1 Si1 1.631556 1_555
O2 Si2 1.634622 1_555
O3 Si3 1.640179 1_555
O4 Si4 1.640044 1_655
O5 Si5 1.636743 1_545
O6 Si5 1.681595 1_555
O7 Si3 1.678025 1_555
O8 Si4 1.680385 1_555
O9 Si1 1.651167 1_555
O10 Si2 1.657098 1_455
O11 Si0 1.647928 1_555
O12 Si6 1.596806 1_555
O13 Si7 1.594442 1_555
O14 Si8 1.595954 1_555
O15 Si9 1.640888 1_555
O16 Si10 1.650298 1_555
O17 Si11 1.638650 1_555
O18 Si11 1.653252 1_555
O19 Si9 1.642485 1_555
O20 Si10 1.642159 1_555
O21 Si7 1.654718 1_555
O22 Si8 1.655205 1_555
O23 Si6 1.654533 1_555
O24 Si12 1.643784 1_555
O25 Si13 1.638570 1_555
O26 Si14 1.635155 1_555
O27 Si15 1.639250 1_555
O28 Si16 1.644149 1_555
O29 Si17 1.641934 1_555
O30 Si17 1.643657 1_555
O31 Si15 1.643768 1_555
O32 Si16 1.638333 1_555
O33 Si13 1.655953 1_555
O34 Si14 1.668005 1_555
O35 Si12 1.662073 1_555
O36 Si17 1.629910 1_555
O37 Si15 1.629536 1_555
O38 Si16 1.633490 1_555
O39 Si13 1.640960 1_555
O40 Si14 1.632654 1_555
O41 Si12 1.640060 1_555
O42 Si6 1.669025 1_555
O43 Si7 1.668219 1_555
O44 Si8 1.667781 1_555
O45 Si9 1.637338 1_555
O46 Si10 1.633182 1_555
O47 Si11 1.639638 1_555
O48 Si5 1.598026 1_545
O49 Si3 1.591925 1_555
O50 Si4 1.592466 1_655
O51 Si1 1.649629 1_555
O52 Si2 1.637364 1_555
O53 Si0 1.652072 1_545
O54 Si12 1.621901 1_555
O55 Si13 1.631758 1_655
O56 Si14 1.633758 1_545
O57 Si15 1.640020 1_545
O58 Si16 1.647037 1_555
O59 Si17 1.640296 1_655
O60 Si11 1.642383 1_555
O61 Si9 1.649601 1_455
O62 Si10 1.652607 1_565
O63 Si7 1.645009 1_565
O64 Si8 1.645530 1_555
O65 Si6 1.646437 1_455
O66 Si0 1.638225 1_555
O67 Si1 1.642515 1_555
O68 Si2 1.641302 1_455
O69 Si3 1.648348 1_555
O70 Si4 1.648840 1_555
O71 Si5 1.651833 1_555
