# generated using pymatgen
data_Na6Ca4Ta8Si9(SO8)9
_symmetry_space_group_name_H-M   'P 1'
_cell_length_a   8.97915791
_cell_length_b   8.97480375
_cell_length_c   23.19973218
_cell_angle_alpha   89.85760104
_cell_angle_beta   90.05938623
_cell_angle_gamma   119.95232986
_symmetry_Int_Tables_number   1
_chemical_formula_structural   Na6Ca4Ta8Si9(SO8)9
_chemical_formula_sum   'Na6 Ca4 Ta8 Si9 S9 O72'
_cell_volume   1619.87400110
_cell_formula_units_Z   1
loop_
 _symmetry_equiv_pos_site_id
 _symmetry_equiv_pos_as_xyz
  1  'x, y, z'
loop_
 _atom_site_type_symbol
 _atom_site_label
 _atom_site_symmetry_multiplicity
 _atom_site_fract_x
 _atom_site_fract_y
 _atom_site_fract_z
 _atom_site_occupancy
  Na  Na0  1  0.99992728  0.00067730  0.49216503  1
  Na  Na1  1  0.98728578  0.00706482  0.99946792  1
  Na  Na2  1  0.68461219  0.33659554  0.82341641  1
  Na  Na3  1  0.66468422  0.31538009  0.32413277  1
  Na  Na4  1  0.32883156  0.66614135  0.17418453  1
  Na  Na5  1  0.33171190  0.67422115  0.66042159  1
  Ca  Ca0  1  0.67434226  0.33519602  0.69160769  1
  Ca  Ca1  1  0.66630586  0.32671805  0.19285393  1
  Ca  Ca2  1  0.33621551  0.66147978  0.01583059  1
  Ca  Ca3  1  0.33205085  0.67003381  0.51329816  1
  Ta  Ta0  1  0.01138820  0.01147177  0.35536680  1
  Ta  Ta1  1  0.98327369  0.98861544  0.85307252  1
  Ta  Ta2  1  0.98810565  0.98519443  0.64647025  1
  Ta  Ta3  1  0.01135848  0.00997978  0.15186482  1
  Ta  Ta4  1  0.67647945  0.33921709  0.97663361  1
  Ta  Ta5  1  0.66448110  0.32565577  0.47146804  1
  Ta  Ta6  1  0.31951680  0.66378028  0.31827935  1
  Ta  Ta7  1  0.33059840  0.65839340  0.81219822  1
  Si  Si0  1  0.28830121  0.98937764  0.25358006  1
  Si  Si1  1  0.01527636  0.30232658  0.25340406  1
  Si  Si2  1  0.01029329  0.71686261  0.75223877  1
  Si  Si3  1  0.70168653  0.98867534  0.75082205  1
  Si  Si4  1  0.62279612  0.66528860  0.91781723  1
  Si  Si5  1  0.04533239  0.37093640  0.91677333  1
  Si  Si6  1  0.62562692  0.94954367  0.41616034  1
  Si  Si7  1  0.33258275  0.37847713  0.41805283  1
  Si  Si8  1  0.03897103  0.67297497  0.41880042  1
  S  S0  1  0.71154504  0.72528595  0.25014868  1
  S  S1  1  0.27502790  0.28639507  0.75125542  1
  S  S2  1  0.95700468  0.32430001  0.58431362  1
  S  S3  1  0.36943034  0.04751839  0.58523122  1
  S  S4  1  0.66999408  0.62633773  0.58438260  1
  S  S5  1  0.95123826  0.63164432  0.08237276  1
  S  S6  1  0.67614824  0.04590047  0.08300089  1
  S  S7  1  0.36961253  0.31959892  0.08349029  1
  S  S8  1  0.33609700  0.96492627  0.91484511  1
  O  O0  1  0.16641696  0.98777551  0.30448924  1
  O  O1  1  0.81309868  0.81137099  0.30071488  1
  O  O2  1  0.99837509  0.17297992  0.30431679  1
  O  O3  1  0.18993431  0.18865206  0.80370104  1
  O  O4  1  0.01748350  0.83781786  0.80550319  1
  O  O5  1  0.82481825  0.00124251  0.80548734  1
  O  O6  1  0.80856149  0.97204464  0.69312670  1
  O  O7  1  0.17125091  0.20545610  0.69811925  1
  O  O8  1  0.03238293  0.83783007  0.69271209  1
  O  O9  1  0.80498714  0.83356832  0.19479498  1
  O  O10  1  0.02944687  0.19421430  0.19219247  1
  O  O11  1  0.16576831  0.97005448  0.19182561  1
  O  O12  1  0.87345050  0.33711111  0.63636420  1
  O  O13  1  0.46564521  0.13153074  0.63715275  1
  O  O14  1  0.66091603  0.53471816  0.63724188  1
  O  O15  1  0.86908443  0.53096028  0.13306870  1
  O  O16  1  0.66421845  0.12940973  0.13441002  1
  O  O17  1  0.46596363  0.33347677  0.13497887  1
  O  O18  1  0.45645681  0.29916280  0.03034440  1
  O  O19  1  0.83954970  0.53201126  0.02850129  1
  O  O20  1  0.69159903  0.15594674  0.02960598  1
  O  O21  1  0.45639606  0.15238078  0.53228522  1
  O  O22  1  0.69567506  0.54627578  0.53227439  1
  O  O23  1  0.84936149  0.30151532  0.53191576  1
  O  O24  1  0.57402626  0.72123470  0.97520582  1
  O  O25  1  0.14162879  0.43328753  0.97550679  1
  O  O26  1  0.29592536  0.86401413  0.96736918  1
  O  O27  1  0.57375945  0.85470657  0.47563081  1
  O  O28  1  0.28571133  0.43095899  0.47642763  1
  O  O29  1  0.14420514  0.72448056  0.47606750  1
  O  O30  1  0.12957361  0.63068848  0.36210709  1
  O  O31  1  0.49478573  0.86010234  0.36011515  1
  O  O32  1  0.36637626  0.50342240  0.36114931  1
  O  O33  1  0.13706649  0.50180796  0.86048194  1
  O  O34  1  0.36767673  0.88188409  0.86412319  1
  O  O35  1  0.49482438  0.63480115  0.86195174  1
  O  O36  1  0.98745270  0.81618707  0.40064799  1
  O  O37  1  0.81976620  0.99572119  0.39914364  1
  O  O38  1  0.18258120  0.17872159  0.40363008  1
  O  O39  1  0.01192190  0.17814474  0.90185033  1
  O  O40  1  0.19579892  0.00326091  0.90349677  1
  O  O41  1  0.82411620  0.81324980  0.90231492  1
  O  O42  1  0.96910576  0.15867005  0.58962780  1
  O  O43  1  0.19352927  0.04027095  0.58965829  1
  O  O44  1  0.84209024  0.80743977  0.58940050  1
  O  O45  1  0.95321361  0.80072755  0.08277606  1
  O  O46  1  0.83937648  0.03482337  0.08430883  1
  O  O47  1  0.19191283  0.15215940  0.08658840  1
  O  O48  1  0.67822051  0.15084945  0.75279058  1
  O  O49  1  0.44706307  0.31126863  0.74809252  1
  O  O50  1  0.83932164  0.53773086  0.75356791  1
  O  O51  1  0.69626603  0.55726000  0.24408552  1
  O  O52  1  0.85286846  0.32582454  0.25125161  1
  O  O53  1  0.46515878  0.16308607  0.25250013  1
  O  O54  1  0.63692080  0.48541479  0.92822258  1
  O  O55  1  0.84536797  0.34825412  0.92649946  1
  O  O56  1  0.49846329  0.13806877  0.92300795  1
  O  O57  1  0.64034204  0.14539392  0.42557533  1
  O  O58  1  0.50879765  0.35809650  0.42751305  1
  O  O59  1  0.85063828  0.48898554  0.42864307  1
  O  O60  1  0.33969618  0.46437340  0.07888560  1
  O  O61  1  0.12434802  0.66015637  0.07490722  1
  O  O62  1  0.52555106  0.87522542  0.07762272  1
  O  O63  1  0.33825470  0.87221751  0.58217819  1
  O  O64  1  0.53091421  0.66366939  0.58158958  1
  O  O65  1  0.13080325  0.47000746  0.58104812  1
  O  O66  1  0.29989413  0.81313976  0.25642740  1
  O  O67  1  0.54380488  0.71769083  0.25049727  1
  O  O68  1  0.19896370  0.48222395  0.25663111  1
  O  O69  1  0.28562609  0.46077359  0.75553933  1
  O  O70  1  0.18730148  0.70399377  0.75972519  1
  O  O71  1  0.52001427  0.80583789  0.75906981  1
loop_
_geom_bond_atom_site_label_1
_geom_bond_atom_site_label_2
_geom_bond_distance
_geom_bond_site_symmetry_2
Na0 O38 2.614534 1_655
Na0 O36 2.663407 1_545
Na0 O37 2.682830 1_545
Na0 O42 2.758422 1_555
Na0 O44 2.763677 1_545
Na0 O43 2.764611 1_655
Na1 O46 2.457298 1_556
Na1 O45 2.583802 1_546
Na1 O47 2.602502 1_656
Na1 O39 2.679530 1_655
Na1 O41 2.778535 1_545
Na1 O40 2.921770 1_655
Na2 O50 2.302247 1_555
Na2 O48 2.320523 1_555
Na2 O49 2.676782 1_555
Na2 O55 2.767136 1_555
Na2 O56 2.884528 1_555
Na2 O54 2.910115 1_555
Na3 O53 2.323699 1_555
Na3 O52 2.360053 1_555
Na3 O57 2.750297 1_555
Na3 O51 2.758254 1_555
Na3 O58 2.899291 1_555
Na3 O59 2.916654 1_555
Na4 O66 2.409226 1_555
Na4 O68 2.410359 1_555
Na4 O67 2.485900 1_555
Na4 O62 2.887443 1_555
Na4 O60 2.893697 1_555
Na4 O61 2.927839 1_555
Na5 O63 2.517159 1_555
Na5 O65 2.590890 1_555
Na5 O64 2.594205 1_555
Na5 O70 2.723158 1_555
Na5 O71 2.739146 1_555
Na5 O69 2.810660 1_555
Ca0 O48 2.190668 1_555
Ca0 O12 2.193890 1_555
Ca0 O50 2.210109 1_555
Ca0 O14 2.239614 1_555
Ca0 O13 2.243863 1_555
Ca0 O49 2.344067 1_555
Ca1 O52 2.156488 1_555
Ca1 O53 2.163356 1_555
Ca1 O16 2.225591 1_555
Ca1 O17 2.268500 1_555
Ca1 O51 2.285134 1_555
Ca1 O15 2.293226 1_555
Ca2 O25 2.134290 1_554
Ca2 O24 2.143294 1_554
Ca2 O60 2.304889 1_555
Ca2 O26 2.311841 1_554
Ca2 O62 2.318910 1_555
Ca2 O61 2.341033 1_555
Ca3 O28 2.150702 1_555
Ca3 O27 2.150767 1_555
Ca3 O29 2.155845 1_555
Ca3 O65 2.389803 1_555
Ca3 O63 2.400546 1_555
Ca3 O64 2.407778 1_555
O0 Si0 1.606172 1_555
O0 Ta0 1.917408 1_565
O1 S0 1.450317 1_555
O1 Ta0 2.194668 1_665
O2 Si1 1.607299 1_655
O2 Ta0 1.917732 1_655
O3 S1 1.470058 1_555
O3 Ta1 2.155456 1_445
O4 Si2 1.626687 1_555
O4 Ta1 1.888694 1_455
O5 Si3 1.648266 1_545
O5 Ta1 1.847446 1_545
O6 Si3 1.697501 1_555
O6 Ta2 1.896733 1_555
O7 S1 1.497262 1_555
O7 Ta2 2.193042 1_445
O8 Si2 1.703894 1_555
O8 Ta2 1.890837 1_455
O9 S0 1.574600 1_555
O9 Ta3 1.999699 1_665
O10 Si1 1.762048 1_555
O10 Ta3 1.837084 1_555
O11 Si0 1.760862 1_555
O11 Ta3 1.844435 1_565
O12 S2 1.457050 1_555
O13 S3 1.455252 1_555
O14 S4 1.454269 1_555
O15 S5 1.440443 1_555
O16 S6 1.442411 1_555
O17 S7 1.442872 1_555
O18 S7 1.519163 1_555
O18 Ta4 2.208779 1_554
O19 S5 1.573157 1_555
O19 Ta4 2.015602 1_554
O20 S6 1.544874 1_555
O20 Ta4 2.108730 1_554
O21 S3 1.505550 1_555
O21 Ta5 2.234566 1_555
O22 S4 1.483662 1_555
O22 Ta5 2.334150 1_555
O23 S2 1.501728 1_555
O23 Ta5 2.263234 1_555
O24 Si4 1.562240 1_555
O25 Si5 1.560656 1_555
O26 S8 1.450658 1_555
O27 Si6 1.563516 1_555
O28 Si7 1.560563 1_555
O29 Si8 1.560755 1_555
O30 Si8 1.687841 1_555
O30 Ta6 1.878083 1_555
O31 Si6 1.665993 1_555
O31 Ta6 1.938987 1_555
O32 Si7 1.657108 1_555
O32 Ta6 1.958097 1_555
O33 Si5 1.670945 1_555
O33 Ta7 1.951186 1_555
O34 S8 1.495541 1_555
O34 Ta7 2.220257 1_555
O35 Si4 1.661250 1_555
O35 Ta7 1.964352 1_555
O36 Si8 1.622947 1_655
O36 Ta0 1.958749 1_665
O37 Si6 1.626527 1_555
O37 Ta0 1.942155 1_665
O38 Si7 1.652559 1_555
O38 Ta0 1.889571 1_555
O39 Si5 1.639548 1_555
O39 Ta1 1.952476 1_445
O40 S8 1.485371 1_545
O40 Ta1 2.184731 1_445
O41 Si4 1.662053 1_555
O41 Ta1 1.890230 1_555
O42 S2 1.548233 1_555
O42 Ta2 2.108715 1_545
O43 S3 1.551496 1_555
O43 Ta2 2.115461 1_445
O44 S4 1.592413 1_555
O44 Ta2 1.983756 1_555
O45 S5 1.508764 1_555
O45 Ta3 2.324372 1_665
O46 S6 1.518002 1_555
O46 Ta3 2.286453 1_655
O47 S7 1.553931 1_555
O47 Ta3 2.116544 1_555
O48 Si3 1.572098 1_545
O49 S1 1.448180 1_555
O50 Si2 1.574066 1_655
O51 S0 1.451585 1_555
O52 Si1 1.574947 1_655
O53 Si0 1.575014 1_545
O54 Si4 1.697903 1_555
O54 Ta4 1.888493 1_555
O55 Si5 1.718094 1_655
O55 Ta4 1.881342 1_555
O56 S8 1.521419 1_545
O56 Ta4 2.118341 1_555
O57 Si6 1.710168 1_545
O57 Ta5 1.858983 1_555
O58 Si7 1.695068 1_555
O58 Ta5 1.865682 1_555
O59 Si8 1.687924 1_655
O59 Ta5 1.865305 1_555
O60 S7 1.455880 1_555
O61 S5 1.454213 1_455
O62 S6 1.456952 1_565
O63 S3 1.455801 1_565
O64 S4 1.446906 1_555
O65 S2 1.453658 1_455
O66 Si0 1.637330 1_555
O66 Ta6 2.027991 1_555
O67 S0 1.473346 1_555
O67 Ta6 2.406778 1_555
O68 Si1 1.635225 1_555
O68 Ta6 2.029638 1_555
O69 S1 1.523232 1_555
O69 Ta7 2.081315 1_555
O70 Si2 1.658999 1_555
O70 Ta7 1.955790 1_555
O71 Si3 1.648163 1_555
O71 Ta7 1.977840 1_555
