# generated using pymatgen
data_Na8Ga2Si5Ge2SO24
_symmetry_space_group_name_H-M   'P 1'
_cell_length_a   8.87879044
_cell_length_b   8.87011337
_cell_length_c   21.73284313
_cell_angle_alpha   90.43464131
_cell_angle_beta   88.87203266
_cell_angle_gamma   120.19260956
_symmetry_Int_Tables_number   1
_chemical_formula_structural   Na8Ga2Si5Ge2SO24
_chemical_formula_sum   'Na24 Ga6 Si15 Ge6 S3 O72'
_cell_volume   1479.10242706
_cell_formula_units_Z   3
loop_
 _symmetry_equiv_pos_site_id
 _symmetry_equiv_pos_as_xyz
  1  'x, y, z'
loop_
 _atom_site_type_symbol
 _atom_site_label
 _atom_site_symmetry_multiplicity
 _atom_site_fract_x
 _atom_site_fract_y
 _atom_site_fract_z
 _atom_site_occupancy
  Na  Na0  1  0.63917338  0.00209794  0.25124207  1
  Na  Na1  1  0.36038430  0.36271995  0.24864077  1
  Na  Na2  1  0.99991228  0.63678584  0.24985492  1
  Na  Na3  1  0.63518044  0.63467240  0.74815382  1
  Na  Na4  1  0.99733457  0.36405939  0.74966807  1
  Na  Na5  1  0.36766356  0.00424723  0.74978441  1
  Na  Na6  1  0.29902283  0.33646641  0.58503698  1
  Na  Na7  1  0.03811655  0.70213601  0.58315840  1
  Na  Na8  1  0.66480757  0.96111196  0.58328797  1
  Na  Na9  1  0.29028693  0.96450990  0.08178730  1
  Na  Na10  1  0.66888688  0.69579673  0.08556359  1
  Na  Na11  1  0.04164932  0.33595093  0.08554115  1
  Na  Na12  1  0.97137655  0.66769305  0.91644945  1
  Na  Na13  1  0.70304830  0.04029657  0.91213032  1
  Na  Na14  1  0.32522884  0.28885091  0.91786908  1
  Na  Na15  1  0.96257236  0.29622361  0.41396894  1
  Na  Na16  1  0.32972031  0.02688008  0.41648469  1
  Na  Na17  1  0.70799016  0.67501336  0.41786065  1
  Na  Na18  1  0.99460184  0.99360431  0.50031447  1
  Na  Na19  1  0.01220350  0.00458074  0.99994646  1
  Na  Na20  1  0.66681189  0.32829026  0.83232420  1
  Na  Na21  1  0.67047247  0.33242909  0.33305827  1
  Na  Na22  1  0.32823273  0.66040818  0.16641064  1
  Na  Na23  1  0.33448571  0.66706299  0.66465391  1
  Ga  Ga0  1  0.98860708  0.98865942  0.34759843  1
  Ga  Ga1  1  0.01202111  0.01021460  0.84792931  1
  Ga  Ga2  1  0.01294717  0.99972731  0.15224373  1
  Ga  Ga3  1  0.66536141  0.33162490  0.98149385  1
  Ga  Ga4  1  0.30487588  0.64811887  0.01827808  1
  Ga  Ga5  1  0.33675361  0.68174622  0.52269571  1
  Si  Si0  1  0.29469201  0.00447365  0.25016454  1
  Si  Si1  1  0.70507270  0.71037500  0.24986829  1
  Si  Si2  1  0.99949218  0.29219791  0.25006637  1
  Si  Si3  1  0.29368074  0.29371733  0.74889384  1
  Si  Si4  1  0.99467342  0.71125326  0.74961205  1
  Si  Si5  1  0.71022049  0.99993078  0.75089992  1
  Si  Si6  1  0.95830584  0.33124807  0.58520216  1
  Si  Si7  1  0.38042671  0.05147930  0.58460595  1
  Si  Si8  1  0.66705247  0.62017148  0.58376680  1
  Si  Si9  1  0.95236069  0.62422414  0.08301675  1
  Si  Si10  1  0.37741931  0.33493397  0.08296356  1
  Si  Si11  1  0.04007079  0.37123103  0.91560220  1
  Si  Si12  1  0.33299973  0.95573147  0.91745412  1
  Si  Si13  1  0.62363800  0.95736518  0.41738732  1
  Si  Si14  1  0.04252858  0.66737847  0.41838289  1
  Ge  Ge0  1  0.99954948  0.99975885  0.64708714  1
  Ge  Ge1  1  0.66691892  0.33447964  0.68629333  1
  Ge  Ge2  1  0.66946942  0.34997432  0.18906988  1
  Ge  Ge3  1  0.68213027  0.33083455  0.48571104  1
  Ge  Ge4  1  0.32812894  0.67939976  0.31106094  1
  Ge  Ge5  1  0.31908518  0.67225468  0.80925851  1
  S  S0  1  0.66706077  0.04168879  0.08341133  1
  S  S1  1  0.62163558  0.66710604  0.91630925  1
  S  S2  1  0.33374902  0.37749384  0.41691143  1
  O  O0  1  0.21665742  0.05004345  0.31129389  1
  O  O1  1  0.82623064  0.77946827  0.31002454  1
  O  O2  1  0.95878401  0.17164690  0.31111539  1
  O  O3  1  0.22203400  0.17388022  0.81003259  1
  O  O4  1  0.95289950  0.78799575  0.81140882  1
  O  O5  1  0.82937740  0.03985931  0.81098834  1
  O  O6  1  0.79438737  0.95611931  0.68951698  1
  O  O7  1  0.16376151  0.20890344  0.68958868  1
  O  O8  1  0.04182706  0.83958523  0.68911474  1
  O  O9  1  0.78309933  0.83341893  0.18910101  1
  O  O10  1  0.04095416  0.21212471  0.18878032  1
  O  O11  1  0.17374420  0.95239721  0.19014686  1
  O  O12  1  0.86931414  0.37429416  0.64411651  1
  O  O13  1  0.50681390  0.13602087  0.64382446  1
  O  O14  1  0.62881469  0.49542805  0.64391202  1
  O  O15  1  0.86597893  0.49162357  0.14361959  1
  O  O16  1  0.63217578  0.11975669  0.13911138  1
  O  O17  1  0.50320014  0.37010559  0.14378468  1
  O  O18  1  0.46014713  0.29159665  0.02249071  1
  O  O19  1  0.83289944  0.53847335  0.02267819  1
  O  O20  1  0.69985882  0.15133744  0.02736774  1
  O  O21  1  0.46580972  0.17735843  0.52232232  1
  O  O22  1  0.70762091  0.53322320  0.52174765  1
  O  O23  1  0.83459253  0.28515701  0.52363265  1
  O  O24  1  0.54246913  0.69803581  0.97318616  1
  O  O25  1  0.16330852  0.44640727  0.97575893  1
  O  O26  1  0.30348716  0.83577296  0.97842688  1
  O  O27  1  0.54171828  0.83088773  0.47660054  1
  O  O28  1  0.30301248  0.45461607  0.47241830  1
  O  O29  1  0.16341111  0.70147854  0.47721527  1
  O  O30  1  0.12682377  0.62172283  0.35648714  1
  O  O31  1  0.49660401  0.87066376  0.35640834  1
  O  O32  1  0.36679350  0.48759055  0.36065271  1
  O  O33  1  0.13290657  0.50453082  0.85563212  1
  O  O34  1  0.37502084  0.86767291  0.85590048  1
  O  O35  1  0.51260503  0.63548102  0.86149200  1
  O  O36  1  0.02548421  0.84158284  0.41155037  1
  O  O37  1  0.82002867  0.98479254  0.41149885  1
  O  O38  1  0.17713989  0.20159226  0.41252694  1
  O  O39  1  0.01560820  0.17603548  0.91098127  1
  O  O40  1  0.15603690  0.96823410  0.91235458  1
  O  O41  1  0.79712040  0.82443860  0.91252487  1
  O  O42  1  0.97227647  0.15354200  0.59021933  1
  O  O43  1  0.18550553  0.03214215  0.58920734  1
  O  O44  1  0.84495636  0.81404919  0.58898009  1
  O  O45  1  0.96872626  0.81600556  0.08856941  1
  O  O46  1  0.82410438  0.02644033  0.08727303  1
  O  O47  1  0.18173852  0.16304886  0.08831543  1
  O  O48  1  0.68794447  0.17261485  0.74317301  1
  O  O49  1  0.48795214  0.31347936  0.74220182  1
  O  O50  1  0.82418765  0.51440326  0.74316274  1
  O  O51  1  0.68495110  0.51451462  0.24502059  1
  O  O52  1  0.82349284  0.31143156  0.24272235  1
  O  O53  1  0.49282985  0.17551908  0.24094632  1
  O  O54  1  0.63890425  0.50951589  0.91992628  1
  O  O55  1  0.84992871  0.36017444  0.92149208  1
  O  O56  1  0.50887025  0.15022152  0.92031621  1
  O  O57  1  0.63588607  0.15253688  0.42294097  1
  O  O58  1  0.49305979  0.36087538  0.41971229  1
  O  O59  1  0.84363982  0.48713188  0.42256138  1
  O  O60  1  0.36884463  0.51672786  0.07852276  1
  O  O61  1  0.14757247  0.64448480  0.08229204  1
  O  O62  1  0.51038687  0.86651486  0.07832612  1
  O  O63  1  0.35957726  0.85891712  0.58121763  1
  O  O64  1  0.49415626  0.63755461  0.57818130  1
  O  O65  1  0.14981254  0.50260555  0.57736015  1
  O  O66  1  0.31449832  0.82891285  0.25548687  1
  O  O67  1  0.50725153  0.68331954  0.25937956  1
  O  O68  1  0.17713572  0.48800315  0.25748675  1
  O  O69  1  0.31472112  0.48988433  0.75741757  1
  O  O70  1  0.17210975  0.69256119  0.75322595  1
  O  O71  1  0.51432690  0.82083280  0.75659759  1
loop_
_geom_bond_atom_site_label_1
_geom_bond_atom_site_label_2
_geom_bond_distance
_geom_bond_site_symmetry_2
Na0 O52 2.391735 1_555
Na0 O67 2.463075 1_545
Na0 O53 2.476225 1_555
Na0 O66 2.493187 1_545
Na0 O31 2.574393 1_545
Na0 O16 2.672339 1_555
Na0 O9 2.742257 1_545
Na0 O2 2.798376 1_555
Na1 O68 2.392100 1_555
Na1 O67 2.472632 1_555
Na1 O53 2.473892 1_555
Na1 O51 2.492715 1_555
Na1 O17 2.571024 1_555
Na1 O32 2.656540 1_555
Na1 O0 2.757480 1_555
Na1 O10 2.798016 1_555
Na2 O66 2.437920 1_655
Na2 O51 2.442710 1_555
Na2 O52 2.502435 1_555
Na2 O68 2.519416 1_655
Na2 O30 2.630011 1_655
Na2 O15 2.631633 1_555
Na2 O11 2.744729 1_655
Na2 O1 2.747413 1_555
Na3 O71 2.383603 1_555
Na3 O50 2.399538 1_555
Na3 O69 2.468107 1_555
Na3 O49 2.469327 1_555
Na3 O14 2.559967 1_555
Na3 O35 2.674640 1_555
Na3 O6 2.771673 1_555
Na3 O4 2.821833 1_555
Na4 O48 2.401948 1_555
Na4 O69 2.463247 1_655
Na4 O50 2.497053 1_555
Na4 O70 2.521481 1_655
Na4 O12 2.602307 1_555
Na4 O33 2.619512 1_655
Na4 O7 2.779328 1_655
Na4 O5 2.817091 1_555
Na5 O49 2.396841 1_555
Na5 O70 2.415285 1_545
Na5 O48 2.460333 1_555
Na5 O71 2.550799 1_545
Na5 O13 2.583002 1_555
Na5 O34 2.630270 1_545
Na5 O3 2.740558 1_555
Na5 O8 2.848214 1_545
Na6 O64 2.344857 1_555
Na6 O43 2.361009 1_555
Na6 O65 2.435320 1_555
Na6 O42 2.513392 1_455
Na6 O7 2.539742 1_555
Na6 O28 2.662348 1_555
Na6 O21 2.834765 1_555
Na6 O14 2.857758 1_555
Na7 O44 2.375854 1_455
Na7 O65 2.426708 1_555
Na7 O63 2.466969 1_555
Na7 O29 2.538571 1_555
Na7 O43 2.538954 1_565
Na7 O8 2.590382 1_555
Na7 O12 2.838015 1_455
Na7 O22 2.887649 1_455
Na8 O63 2.387782 1_555
Na8 O42 2.390450 1_565
Na8 O64 2.484527 1_555
Na8 O44 2.526699 1_555
Na8 O27 2.587288 1_555
Na8 O6 2.610156 1_555
Na8 O23 2.799368 1_565
Na8 O13 2.862019 1_565
Na9 O47 2.397564 1_565
Na9 O61 2.458816 1_555
Na9 O45 2.472237 1_455
Na9 O62 2.506384 1_555
Na9 O11 2.534598 1_555
Na9 O26 2.539481 1_554
Na9 O18 2.816364 1_565
Na9 O16 2.929398 1_565
Na10 O45 2.319313 1_555
Na10 O60 2.323704 1_555
Na10 O9 2.526816 1_555
Na10 O46 2.537167 1_565
Na10 O62 2.540480 1_555
Na10 O24 2.712210 1_554
Na10 O17 2.796168 1_555
Na10 O19 2.805788 1_555
Na11 O61 2.406387 1_555
Na11 O47 2.413690 1_555
Na11 O46 2.436076 1_455
Na11 O10 2.504105 1_555
Na11 O60 2.516927 1_555
Na11 O25 2.586247 1_554
Na11 O15 2.827540 1_455
Na11 O20 2.934376 1_455
Na12 O40 2.324732 1_655
Na12 O55 2.378379 1_555
Na12 O41 2.550444 1_555
Na12 O54 2.552504 1_555
Na12 O4 2.569964 1_555
Na12 O19 2.581912 1_556
Na12 O33 2.807587 1_655
Na12 O26 2.904509 1_655
Na13 O56 2.372949 1_555
Na13 O39 2.405975 1_655
Na13 O41 2.443930 1_545
Na13 O5 2.448866 1_555
Na13 O55 2.464267 1_555
Na13 O20 2.689044 1_556
Na13 O34 2.818992 1_545
Na13 O24 2.939922 1_545
Na14 O39 2.414141 1_555
Na14 O40 2.462464 1_545
Na14 O54 2.471896 1_555
Na14 O56 2.488877 1_555
Na14 O3 2.545661 1_555
Na14 O18 2.585046 1_556
Na14 O25 2.743321 1_555
Na14 O35 2.924792 1_555
Na15 O37 2.391567 1_545
Na15 O59 2.409045 1_555
Na15 O38 2.437343 1_655
Na15 O2 2.479283 1_555
Na15 O57 2.517724 1_555
Na15 O23 2.601096 1_555
Na15 O30 2.787711 1_655
Na15 O28 2.928620 1_655
Na16 O36 2.356438 1_545
Na16 O57 2.369965 1_555
Na16 O38 2.522416 1_555
Na16 O58 2.562106 1_555
Na16 O0 2.565369 1_555
Na16 O21 2.640636 1_555
Na16 O31 2.789572 1_545
Na16 O29 2.819157 1_545
Na17 O37 2.410395 1_555
Na17 O36 2.438642 1_655
Na17 O58 2.461276 1_555
Na17 O59 2.502924 1_555
Na17 O1 2.531939 1_555
Na17 O22 2.591897 1_555
Na17 O27 2.769984 1_555
Na17 O32 2.922028 1_555
Na18 O44 2.415046 1_555
Na18 O36 2.434442 1_655
Na18 O42 2.468831 1_565
Na18 O37 2.475477 1_555
Na18 O43 2.501639 1_665
Na18 O38 2.567979 1_665
Na19 O40 2.380695 1_545
Na19 O47 2.423774 1_556
Na19 O45 2.454918 1_446
Na19 O39 2.459304 1_555
Na19 O46 2.573712 1_456
Na19 O41 2.614840 1_445
Na20 O56 2.414678 1_555
Na20 O48 2.429324 1_555
Na20 O50 2.460556 1_555
Na20 O55 2.476283 1_555
Na20 O49 2.506806 1_555
Na20 O54 2.570150 1_555
Na21 O52 2.424647 1_555
Na21 O59 2.446582 1_555
Na21 O57 2.446847 1_555
Na21 O51 2.472701 1_555
Na21 O53 2.511238 1_555
Na21 O58 2.523353 1_555
Na22 O60 2.408475 1_555
Na22 O61 2.412188 1_555
Na22 O68 2.435991 1_555
Na22 O66 2.475203 1_555
Na22 O67 2.538772 1_555
Na22 O62 2.565125 1_555
Na23 O64 2.423005 1_555
Na23 O63 2.425554 1_555
Na23 O70 2.459083 1_555
Na23 O65 2.467860 1_555
Na23 O71 2.509288 1_555
Na23 O69 2.514315 1_555
Ga0 O1 1.876443 1_555
Ga0 O2 1.947658 1_565
Ga0 O0 1.963053 1_665
Ga0 O37 2.009314 1_555
Ga0 O36 2.053270 1_655
Ga0 O38 2.287597 1_665
Ga1 O3 1.870227 1_555
Ga1 O4 1.934611 1_445
Ga1 O5 1.956223 1_455
Ga1 O39 1.991520 1_555
Ga1 O40 2.071573 1_545
Ga1 O41 2.256997 1_445
Ga2 O11 1.883479 1_555
Ga2 O10 1.937942 1_565
Ga2 O9 1.976884 1_455
Ga2 O47 2.009923 1_565
Ga2 O45 2.017038 1_455
Ga2 O46 2.314968 1_465
Ga3 O18 1.878824 1_556
Ga3 O19 1.913793 1_556
Ga3 O55 1.988339 1_555
Ga3 O56 2.019645 1_555
Ga3 O20 2.043035 1_556
Ga3 O54 2.180038 1_555
Ga4 O25 1.842196 1_554
Ga4 O26 1.887799 1_554
Ga4 O61 1.940634 1_555
Ga4 O60 2.028131 1_555
Ga4 O24 2.142960 1_554
Ga4 O62 2.298987 1_555
Ga5 O27 1.895337 1_555
Ga5 O29 1.926088 1_555
Ga5 O63 1.946243 1_555
Ga5 O65 1.997371 1_555
Ga5 O64 2.045826 1_555
Ga5 O28 2.171404 1_555
Ge0 O6 1.883721 1_555
Ge0 O8 1.887677 1_655
Ge0 O7 1.930540 1_665
Ge0 O42 1.953555 1_565
Ge0 O43 1.958958 1_665
Ge0 O44 1.988656 1_555
Ge1 O13 1.865884 1_555
Ge1 O12 1.869745 1_555
Ge1 O14 1.875893 1_555
Ge1 O49 1.914602 1_555
Ge1 O50 1.954720 1_555
Ge1 O48 1.982408 1_555
Ge2 O15 1.828815 1_555
Ge2 O51 1.845388 1_555
Ge2 O17 1.872132 1_555
Ge2 O53 1.908186 1_555
Ge2 O52 1.971227 1_555
Ge2 O16 2.181486 1_555
Ge3 O23 1.810101 1_555
Ge3 O22 1.861277 1_555
Ge3 O21 1.871276 1_555
Ge3 O59 1.952870 1_555
Ge3 O57 1.966454 1_555
Ge3 O58 2.344557 1_555
Ge4 O66 1.850318 1_555
Ge4 O30 1.857270 1_555
Ge4 O31 1.888708 1_555
Ge4 O67 1.914874 1_555
Ge4 O68 1.943548 1_555
Ge4 O32 2.191792 1_555
Ge5 O34 1.845552 1_555
Ge5 O33 1.856119 1_555
Ge5 O70 1.876325 1_555
Ge5 O71 1.923182 1_555
Ge5 O69 1.949011 1_555
Ge5 O35 2.234604 1_555
O0 Si0 1.626555 1_555
O1 Si1 1.619295 1_555
O2 Si2 1.627350 1_555
O3 Si3 1.614958 1_555
O4 Si4 1.620218 1_555
O5 Si5 1.618823 1_545
O6 Si5 1.653507 1_555
O7 Si3 1.651891 1_555
O8 Si4 1.649661 1_455
O9 Si1 1.624984 1_555
O10 Si2 1.625833 1_455
O11 Si0 1.617092 1_565
O12 Si6 1.632689 1_555
O13 Si7 1.635160 1_555
O14 Si8 1.635478 1_555
O15 Si9 1.668147 1_555
O16 S0 1.493005 1_555
O17 Si10 1.671273 1_555
O18 Si10 1.628762 1_555
O19 Si9 1.628286 1_555
O20 S0 1.494446 1_555
O21 Si7 1.668772 1_555
O22 Si8 1.669069 1_555
O23 Si6 1.661933 1_555
O24 S1 1.500629 1_555
O25 Si11 1.631066 1_555
O26 Si12 1.638309 1_555
O27 Si13 1.614924 1_555
O28 S2 1.469677 1_555
O29 Si14 1.612414 1_555
O30 Si14 1.670510 1_555
O31 Si13 1.670574 1_555
O32 S2 1.500159 1_555
O33 Si11 1.666406 1_555
O34 Si12 1.672260 1_555
O35 S1 1.484017 1_555
O36 Si14 1.634687 1_555
O37 Si13 1.637405 1_555
O38 S2 1.482495 1_555
O39 Si11 1.635544 1_555
O40 Si12 1.635727 1_555
O41 S1 1.480418 1_555
O42 Si6 1.646728 1_555
O43 Si7 1.652117 1_555
O44 Si8 1.654443 1_555
O45 Si9 1.636597 1_555
O46 S0 1.471068 1_555
O47 Si10 1.639222 1_555
O48 Si5 1.650282 1_545
O49 Si3 1.647281 1_555
O50 Si4 1.644982 1_555
O51 Si1 1.657414 1_555
O52 Si2 1.665794 1_555
O53 Si0 1.656202 1_555
O54 S1 1.483699 1_555
O55 Si11 1.643557 1_655
O56 Si12 1.646518 1_545
O57 Si13 1.682682 1_545
O58 S2 1.496480 1_555
O59 Si14 1.684919 1_655
O60 Si10 1.655748 1_555
O61 Si9 1.649954 1_455
O62 S0 1.480217 1_565
O63 Si7 1.624106 1_565
O64 Si8 1.625044 1_555
O65 Si6 1.619733 1_455
O66 Si0 1.657797 1_565
O67 Si1 1.657649 1_555
O68 Si2 1.667544 1_455
O69 Si3 1.663255 1_555
O70 Si4 1.668353 1_455
O71 Si5 1.667199 1_555
