# generated using pymatgen
data_Mn3(PO4)4
_symmetry_space_group_name_H-M   'P 1'
_cell_length_a   12.89427538
_cell_length_b   7.49341914
_cell_length_c   8.78239288
_cell_angle_alpha   90.31087546
_cell_angle_beta   85.47420612
_cell_angle_gamma   90.94079772
_symmetry_Int_Tables_number   1
_chemical_formula_structural   Mn3(PO4)4
_chemical_formula_sum   'Mn9 P12 O48'
_cell_volume   845.80698146
_cell_formula_units_Z   3
loop_
 _symmetry_equiv_pos_site_id
 _symmetry_equiv_pos_as_xyz
  1  'x, y, z'
loop_
 _atom_site_type_symbol
 _atom_site_label
 _atom_site_symmetry_multiplicity
 _atom_site_fract_x
 _atom_site_fract_y
 _atom_site_fract_z
 _atom_site_occupancy
  Mn  Mn0  1  0.83837100  0.50858500  0.67602000  1
  Mn  Mn1  1  0.82114100  0.36835000  0.26855400  1
  Mn  Mn2  1  0.83100600  0.98103500  0.15922400  1
  Mn  Mn3  1  0.50769300  0.85257800  0.90253600  1
  Mn  Mn4  1  0.49259700  0.00490700  0.48945100  1
  Mn  Mn5  1  0.50356300  0.46907600  0.00713400  1
  Mn  Mn6  1  0.17163300  0.99540700  0.84497600  1
  Mn  Mn7  1  0.15857600  0.14833300  0.43092500  1
  Mn  Mn8  1  0.16484200  0.53144500  0.32661200  1
  P  P0  1  0.27739700  0.80946700  0.53458600  1
  P  P1  1  0.39075100  0.31263700  0.31325300  1
  P  P2  1  0.38799300  0.19160700  0.80014400  1
  P  P3  1  0.27603000  0.68925500  0.02131100  1
  P  P4  1  0.60848600  0.78938000  0.19726700  1
  P  P5  1  0.61604300  0.66387000  0.68537900  1
  P  P6  1  0.71803300  0.16640900  0.48494200  1
  P  P7  1  0.72474500  0.29320400  0.96976300  1
  P  P8  1  0.94506300  0.70470700  0.36557900  1
  P  P9  1  0.05695700  0.21391600  0.13667600  1
  P  P10  1  0.94464000  0.82123400  0.85212300  1
  P  P11  1  0.05381000  0.33933300  0.64968300  1
  O  O0  1  0.92115300  0.86100800  0.02722100  1
  O  O1  1  0.93407700  0.31813700  0.66384500  1
  O  O2  1  0.93371700  0.20205000  0.16790500  1
  O  O3  1  0.92269400  0.64566200  0.53246600  1
  O  O4  1  0.91142700  0.95782300  0.74162100  1
  O  O5  1  0.89884600  0.62695900  0.83461400  1
  O  O6  1  0.90208900  0.56681400  0.25530700  1
  O  O7  1  0.89962500  0.88862700  0.33150200  1
  O  O8  1  0.76517900  0.10243300  0.99505700  1
  O  O9  1  0.06610400  0.71285100  0.33161100  1
  O  O10  1  0.06662400  0.82209500  0.82880000  1
  O  O11  1  0.09815900  0.40480400  0.16308800  1
  O  O12  1  0.08103900  0.36544300  0.46299600  1
  O  O13  1  0.10161800  0.08457700  0.25334900  1
  O  O14  1  0.10094900  0.46968900  0.74841200  1
  O  O15  1  0.08128400  0.14121800  0.97449200  1
  O  O16  1  0.10738100  0.14224500  0.64308800  1
  O  O17  1  0.40942600  0.13995800  0.63059300  1
  O  O18  1  0.23222300  0.94832700  0.42856500  1
  O  O19  1  0.22774200  0.62655600  0.49880600  1
  O  O20  1  0.26081700  0.65354200  0.19781200  1
  O  O21  1  0.25594100  0.86176200  0.70399600  1
  O  O22  1  0.24122000  0.54737400  0.91931300  1
  O  O23  1  0.26277700  0.30746600  0.34039300  1
  O  O24  1  0.26894600  0.18943600  0.83774100  1
  O  O25  1  0.40749100  0.34825000  0.13683600  1
  O  O26  1  0.39651300  0.81060100  0.49827900  1
  O  O27  1  0.40375700  0.69473000  0.99201200  1
  O  O28  1  0.42566600  0.45321800  0.41642100  1
  O  O29  1  0.75914800  0.03325700  0.58592000  1
  O  O30  1  0.43029700  0.11666500  0.33028000  1
  O  O31  1  0.43857200  0.37387000  0.83573900  1
  O  O32  1  0.43354000  0.05184200  0.90508300  1
  O  O33  1  0.56177000  0.91753200  0.08125500  1
  O  O34  1  0.56780700  0.59712300  0.17155100  1
  O  O35  1  0.55965400  0.85888400  0.69117800  1
  O  O36  1  0.58215600  0.86127800  0.35996600  1
  O  O37  1  0.57233100  0.53305600  0.58293500  1
  O  O38  1  0.58594800  0.63596800  0.87055700  1
  O  O39  1  0.59849500  0.18248800  0.49851700  1
  O  O40  1  0.60277200  0.28937400  0.99968400  1
  O  O41  1  0.72972000  0.79616200  0.16887800  1
  O  O42  1  0.73550800  0.68733300  0.67205500  1
  O  O43  1  0.74864200  0.14195400  0.30003500  1
  O  O44  1  0.77103400  0.42573900  0.08238400  1
  O  O45  1  0.74844900  0.36110500  0.80487200  1
  O  O46  1  0.77322100  0.36363100  0.48549400  1
  O  O47  1  0.23418800  0.88377700  0.00431600  1
loop_
_geom_bond_atom_site_label_1
_geom_bond_atom_site_label_2
_geom_bond_distance
_geom_bond_site_symmetry_2
Mn0 O5 1.862833 1_555
Mn0 O3 1.894150 1_555
Mn0 O1 1.899032 1_555
Mn0 O45 1.900187 1_555
Mn0 O42 1.902792 1_555
Mn0 O46 2.203981 1_555
Mn1 O6 1.801779 1_555
Mn1 O44 1.859871 1_555
Mn1 O43 1.934063 1_555
Mn1 O46 1.956337 1_555
Mn1 O2 2.070340 1_555
Mn2 O0 1.820551 1_555
Mn2 O41 1.885836 1_555
Mn2 O7 1.947899 1_555
Mn2 O8 1.964541 1_564
Mn2 O43 1.982386 1_565
Mn2 O2 2.108365 1_565
Mn3 O32 1.785335 1_565
Mn3 O33 1.827560 1_556
Mn3 O27 1.898547 1_555
Mn3 O35 1.923632 1_555
Mn3 O38 1.932814 1_555
Mn4 O30 1.874241 1_555
Mn4 O17 1.876964 1_555
Mn4 O26 1.894143 1_545
Mn4 O39 1.896824 1_555
Mn4 O36 1.898790 1_545
Mn4 O35 2.318945 1_545
Mn5 O25 1.844865 1_555
Mn5 O40 1.869864 1_554
Mn5 O31 1.909141 1_554
Mn5 O34 1.959483 1_555
Mn5 O38 1.975538 1_554
Mn5 O27 2.152649 1_554
Mn6 O10 1.873705 1_555
Mn6 O47 1.876592 1_556
Mn6 O21 1.878180 1_555
Mn6 O24 1.902883 1_565
Mn6 O15 1.914163 1_565
Mn6 O16 2.307327 1_565
Mn7 O18 1.786532 1_545
Mn7 O13 1.833292 1_555
Mn7 O23 1.910088 1_555
Mn7 O16 1.927575 1_555
Mn7 O12 1.931241 1_555
Mn8 O20 1.844246 1_555
Mn8 O9 1.875647 1_555
Mn8 O19 1.901478 1_555
Mn8 O11 1.963574 1_555
Mn8 O12 1.979251 1_555
Mn8 O23 2.126537 1_555
O0 P10 1.571562 1_554
O1 P11 1.544697 1_655
O2 P9 1.592225 1_655
O3 P8 1.537291 1_555
O4 P10 1.504518 1_555
O5 P10 1.573306 1_555
O6 P8 1.538721 1_555
O7 P8 1.546255 1_555
O8 P7 1.552713 1_555
O9 P8 1.565952 1_455
O10 P10 1.569979 1_455
O11 P9 1.540455 1_555
O12 P11 1.661349 1_555
O13 P9 1.563052 1_555
O14 P11 1.459424 1_555
O15 P9 1.533182 1_556
O16 P11 1.639477 1_555
O17 P2 1.541360 1_555
O18 P0 1.550805 1_555
O19 P0 1.544528 1_555
O20 P3 1.570891 1_555
O21 P0 1.541427 1_555
O22 P3 1.473664 1_556
O23 P1 1.648387 1_555
O24 P2 1.544293 1_555
O25 P1 1.571035 1_555
O26 P0 1.543726 1_555
O27 P3 1.646616 1_556
O28 P1 1.473701 1_555
O29 P6 1.471130 1_555
O30 P1 1.574127 1_555
O31 P2 1.544892 1_555
O32 P2 1.551534 1_555
O33 P4 1.565110 1_555
O34 P4 1.546607 1_555
O35 P5 1.641634 1_555
O36 P4 1.538941 1_555
O37 P5 1.462992 1_555
O38 P5 1.655476 1_555
O39 P6 1.543195 1_555
O40 P7 1.573787 1_555
O41 P4 1.563469 1_555
O42 P5 1.542843 1_555
O43 P6 1.650602 1_555
O44 P7 1.543987 1_554
O45 P7 1.543518 1_555
O46 P6 1.629857 1_555
O47 P3 1.574470 1_555
