# generated using pymatgen
data_Ca7TlN4
_symmetry_space_group_name_H-M   'P 1'
_cell_length_a   3.62427493
_cell_length_b   11.63538085
_cell_length_c   11.99684181
_cell_angle_alpha   90.00000000
_cell_angle_beta   90.00000000
_cell_angle_gamma   90.00000000
_symmetry_Int_Tables_number   1
_chemical_formula_structural   Ca7TlN4
_chemical_formula_sum   'Ca14 Tl2 N8'
_cell_volume   505.90464909
_cell_formula_units_Z   2
loop_
 _symmetry_equiv_pos_site_id
 _symmetry_equiv_pos_as_xyz
  1  'x, y, z'
loop_
 _atom_site_type_symbol
 _atom_site_label
 _atom_site_symmetry_multiplicity
 _atom_site_fract_x
 _atom_site_fract_y
 _atom_site_fract_z
 _atom_site_occupancy
  Ca  Ca0  1  0.00053918  0.73350744  0.43183171  1
  Ca  Ca1  1  0.00053918  0.26649256  0.56816829  1
  Ca  Ca2  1  0.99946082  0.23350744  0.06816829  1
  Ca  Ca3  1  0.99946082  0.76649256  0.93183171  1
  Ca  Ca4  1  0.50039112  0.73214374  0.67399684  1
  Ca  Ca5  1  0.50039112  0.26785626  0.32600316  1
  Ca  Ca6  1  0.49960888  0.23214374  0.82600316  1
  Ca  Ca7  1  0.49960888  0.76785626  0.17399684  1
  Ca  Ca8  1  0.50059294  0.50000000  0.50000000  1
  Ca  Ca9  1  0.49940706  0.00000000  0.00000000  1
  Ca  Ca10  1  0.00051054  0.47515194  0.73415477  1
  Ca  Ca11  1  0.00051054  0.52484806  0.26584523  1
  Ca  Ca12  1  0.99948946  0.97515194  0.76584523  1
  Ca  Ca13  1  0.99948946  0.02484806  0.23415477  1
  Tl  Tl0  1  0.50617274  0.00000000  0.50000000  1
  Tl  Tl1  1  0.49382726  0.50000000  0.00000000  1
  N  N0  1  0.00057068  0.62758081  0.60370596  1
  N  N1  1  0.00057068  0.37241919  0.39629404  1
  N  N2  1  0.99942932  0.12758081  0.89629404  1
  N  N3  1  0.99942932  0.87241919  0.10370596  1
  N  N4  1  0.50055065  0.64376821  0.33352379  1
  N  N5  1  0.50055065  0.35623179  0.66647621  1
  N  N6  1  0.49944935  0.14376821  0.16647621  1
  N  N7  1  0.49944935  0.85623179  0.83352379  1
loop_
_geom_bond_atom_site_label_1
_geom_bond_atom_site_label_2
_geom_bond_distance
_geom_bond_site_symmetry_2
Ca0 N4 2.401018 1_455
Ca0 N4 2.401081 1_555
Ca0 N0 2.402224 1_555
Ca0 Tl0 3.673373 1_465
Ca0 Tl0 3.693463 1_565
Ca1 N5 2.401018 1_455
Ca1 N5 2.401081 1_555
Ca1 N1 2.402224 1_555
Ca1 Tl0 3.673373 1_455
Ca1 Tl0 3.693463 1_555
Ca2 N6 2.401018 1_655
Ca2 N6 2.401081 1_555
Ca2 N2 2.402224 1_554
Ca2 Tl1 3.673373 1_655
Ca2 Tl1 3.693463 1_555
Ca3 N7 2.401018 1_655
Ca3 N7 2.401081 1_555
Ca3 N3 2.402224 1_556
Ca3 Tl1 3.673373 1_656
Ca3 Tl1 3.693463 1_556
Ca4 N0 2.339396 1_555
Ca4 N0 2.340404 1_655
Ca4 N7 2.397355 1_555
Ca4 Tl0 3.751131 1_565
Ca5 N1 2.339396 1_555
Ca5 N1 2.340404 1_655
Ca5 N6 2.397355 1_555
Ca5 Tl0 3.751131 1_555
Ca6 N2 2.339396 1_555
Ca6 N2 2.340404 1_455
Ca6 N5 2.397355 1_555
Ca6 Tl1 3.751131 1_556
Ca7 N3 2.339396 1_555
Ca7 N3 2.340404 1_455
Ca7 N4 2.397355 1_555
Ca7 Tl1 3.751131 1_555
Ca8 N5 2.605190 1_555
Ca8 N4 2.605190 1_555
Ca8 N0 2.652365 1_655
Ca8 N1 2.652365 1_655
Ca8 N1 2.652475 1_555
Ca8 N0 2.652475 1_555
Ca9 N7 2.605190 1_544
Ca9 N6 2.605190 1_555
Ca9 N2 2.652365 1_454
Ca9 N3 2.652365 1_445
Ca9 N3 2.652475 1_545
Ca9 N2 2.652475 1_554
Ca10 N0 2.365309 1_555
Ca10 N5 2.420148 1_455
Ca10 N5 2.420366 1_555
Ca10 Tl1 3.667681 1_556
Ca10 Tl1 3.691539 1_456
Ca11 N1 2.365309 1_555
Ca11 N4 2.420148 1_455
Ca11 N4 2.420366 1_555
Ca11 Tl1 3.667681 1_555
Ca11 Tl1 3.691539 1_455
Ca12 N2 2.365309 1_565
Ca12 N7 2.420148 1_655
Ca12 N7 2.420366 1_555
Ca12 Tl0 3.667681 1_565
Ca12 Tl0 3.691539 1_665
Ca13 N3 2.365309 1_545
Ca13 N6 2.420148 1_655
Ca13 N6 2.420366 1_555
Ca13 Tl0 3.667681 1_555
Ca13 Tl0 3.691539 1_655
