# generated using pymatgen
data_Na3LaHfSi2SO12
_symmetry_space_group_name_H-M   'P 1'
_cell_length_a   9.52039406
_cell_length_b   9.52039024
_cell_length_c   22.99001268
_cell_angle_alpha   89.23925315
_cell_angle_beta   90.76167978
_cell_angle_gamma   120.20043652
_symmetry_Int_Tables_number   1
_chemical_formula_structural   Na3LaHfSi2SO12
_chemical_formula_sum   'Na18 La6 Hf6 Si12 S6 O72'
_cell_volume   1800.72671250
_cell_formula_units_Z   6
loop_
 _symmetry_equiv_pos_site_id
 _symmetry_equiv_pos_as_xyz
  1  'x, y, z'
loop_
 _atom_site_type_symbol
 _atom_site_label
 _atom_site_symmetry_multiplicity
 _atom_site_fract_x
 _atom_site_fract_y
 _atom_site_fract_z
 _atom_site_occupancy
  Na  Na0  1  0.63392959  0.99399881  0.24025365  1
  Na  Na1  1  0.99052990  0.64250973  0.24440871  1
  Na  Na2  1  0.00585498  0.36582045  0.74025495  1
  Na  Na3  1  0.35767360  0.00931379  0.74458506  1
  Na  Na4  1  0.30028401  0.32703232  0.57331983  1
  Na  Na5  1  0.65721446  0.97592599  0.57788408  1
  Na  Na6  1  0.67309921  0.69946422  0.07345631  1
  Na  Na7  1  0.02410770  0.34265074  0.07783165  1
  Na  Na8  1  0.96708655  0.66061988  0.90686345  1
  Na  Na9  1  0.32394999  0.30909338  0.91127798  1
  Na  Na10  1  0.33915667  0.03269819  0.40694116  1
  Na  Na11  1  0.69077625  0.67614706  0.41117615  1
  Na  Na12  1  0.00178901  0.03632456  0.49721704  1
  Na  Na13  1  0.96393459  0.99814031  0.99721711  1
  Na  Na14  1  0.66877775  0.36937284  0.83069010  1
  Na  Na15  1  0.63090752  0.33093281  0.33086664  1
  Na  Na16  1  0.33541940  0.70247563  0.16401005  1
  Na  Na17  1  0.29688224  0.66469440  0.66396330  1
  La  La0  1  0.01052690  0.01927060  0.34855368  1
  La  La1  1  0.98074727  0.98946473  0.84855957  1
  La  La2  1  0.67724072  0.35265077  0.68190843  1
  La  La3  1  0.64737528  0.32278502  0.18193128  1
  La  La4  1  0.34389748  0.68594061  0.01525970  1
  La  La5  1  0.31406782  0.65612570  0.51525829  1
  Hf  Hf0  1  0.02386301  0.00435254  0.64783239  1
  Hf  Hf1  1  0.99563293  0.97617381  0.14781734  1
  Hf  Hf2  1  0.69056609  0.33773508  0.98117396  1
  Hf  Hf3  1  0.66226471  0.30949692  0.48118715  1
  Hf  Hf4  1  0.35721483  0.67109504  0.31447728  1
  Hf  Hf5  1  0.32894090  0.64273310  0.81448522  1
  Si  Si0  1  0.29248363  0.97817013  0.25520555  1
  Si  Si1  1  0.70017081  0.70428630  0.25290449  1
  Si  Si2  1  0.29574315  0.29980659  0.75291335  1
  Si  Si3  1  0.02185827  0.70746828  0.75520448  1
  Si  Si4  1  0.95917585  0.31146526  0.58853706  1
  Si  Si5  1  0.36681299  0.03758334  0.58626676  1
  Si  Si6  1  0.96247004  0.63320124  0.08625721  1
  Si  Si7  1  0.68849266  0.04080063  0.08854002  1
  Si  Si8  1  0.62583715  0.64484070  0.92186588  1
  Si  Si9  1  0.03350414  0.37093162  0.91958064  1
  Si  Si10  1  0.62904442  0.96653611  0.41958320  1
  Si  Si11  1  0.35518520  0.37420073  0.42183733  1
  S  S0  1  0.02017628  0.31915731  0.24463690  1
  S  S1  1  0.68086785  0.97984603  0.74465054  1
  S  S2  1  0.68687239  0.65252508  0.57799816  1
  S  S3  1  0.34750506  0.31318456  0.07800627  1
  S  S4  1  0.35348444  0.98582152  0.91134345  1
  S  S5  1  0.01418449  0.64652910  0.41134321  1
  O  O0  1  0.22473363  0.99778099  0.31671465  1
  O  O1  1  0.79632793  0.78777778  0.31216945  1
  O  O2  1  0.99228231  0.22169343  0.29831185  1
  O  O3  1  0.21225644  0.20364432  0.81217869  1
  O  O4  1  0.00219912  0.77522627  0.81670242  1
  O  O5  1  0.77835839  0.00777568  0.79831672  1
  O  O6  1  0.76762284  0.96785679  0.69333839  1
  O  O7  1  0.17103257  0.19729251  0.69631868  1
  O  O8  1  0.02951923  0.83503351  0.70146272  1
  O  O9  1  0.80268761  0.82895121  0.19630008  1
  O  O10  1  0.03215114  0.23239468  0.19332807  1
  O  O11  1  0.16489415  0.97047472  0.20146877  1
  O  O12  1  0.89145216  0.33109543  0.65004239  1
  O  O13  1  0.46309835  0.12105424  0.64550588  1
  O  O14  1  0.65895633  0.55506937  0.63166883  1
  O  O15  1  0.87895300  0.53696925  0.14550297  1
  O  O16  1  0.66892676  0.10859237  0.15004255  1
  O  O17  1  0.44499223  0.34108283  0.13166864  1
  O  O18  1  0.43426998  0.30121674  0.02668740  1
  O  O19  1  0.83781439  0.53072746  0.02963772  1
  O  O20  1  0.69621219  0.16843131  0.03480280  1
  O  O21  1  0.46928810  0.16222172  0.52964431  1
  O  O22  1  0.69879913  0.56568786  0.52669041  1
  O  O23  1  0.83156525  0.30377494  0.53480178  1
  O  O24  1  0.55809892  0.66444418  0.98337459  1
  O  O25  1  0.12970774  0.45436934  0.97884162  1
  O  O26  1  0.32555295  0.88829390  0.96498649  1
  O  O27  1  0.54556347  0.87033603  0.47883757  1
  O  O28  1  0.33556859  0.44196386  0.48333835  1
  O  O29  1  0.11170605  0.67447807  0.46499072  1
  O  O30  1  0.10093624  0.63455548  0.36001404  1
  O  O31  1  0.50445723  0.86404406  0.36295750  1
  O  O32  1  0.36291010  0.50182408  0.36811615  1
  O  O33  1  0.13596726  0.49554028  0.86295961  1
  O  O34  1  0.36546322  0.89909189  0.86000724  1
  O  O35  1  0.49824992  0.63713692  0.86812764  1
  O  O36  1  0.98646200  0.78652387  0.40777711  1
  O  O37  1  0.80731152  0.98457040  0.41551627  1
  O  O38  1  0.21065901  0.18486276  0.41617046  1
  O  O39  1  0.01547172  0.19266694  0.91550865  1
  O  O40  1  0.21346919  0.01351338  0.90778169  1
  O  O41  1  0.81518356  0.78934410  0.91618270  1
  O  O42  1  0.95376587  0.13248174  0.58880299  1
  O  O43  1  0.18890396  0.03502705  0.58826729  1
  O  O44  1  0.83926629  0.81315566  0.58391596  1
  O  O45  1  0.96501401  0.81111853  0.08825677  1
  O  O46  1  0.86747863  0.04620008  0.08880439  1
  O  O47  1  0.18684457  0.16081823  0.08392913  1
  O  O48  1  0.65321739  0.11988401  0.74109064  1
  O  O49  1  0.47399148  0.31782386  0.74884359  1
  O  O50  1  0.87745391  0.51808714  0.74952593  1
  O  O51  1  0.68218163  0.52606005  0.24883049  1
  O  O52  1  0.88014858  0.34681779  0.24109042  1
  O  O53  1  0.48183833  0.12263175  0.24952699  1
  O  O54  1  0.62045498  0.46586009  0.92216731  1
  O  O55  1  0.85556657  0.36836680  0.92158823  1
  O  O56  1  0.50586197  0.14647062  0.91728169  1
  O  O57  1  0.63160485  0.14447761  0.42158129  1
  O  O58  1  0.53415545  0.37957330  0.42216540  1
  O  O59  1  0.85354815  0.49412788  0.41728063  1
  O  O60  1  0.31982664  0.45321040  0.07445182  1
  O  O61  1  0.14070581  0.65118827  0.08218893  1
  O  O62  1  0.54403655  0.85144118  0.08285579  1
  O  O63  1  0.34876641  0.85931403  0.58218920  1
  O  O64  1  0.54688496  0.68025221  0.57441716  1
  O  O65  1  0.14852972  0.45592920  0.58284069  1
  O  O66  1  0.28705709  0.79916573  0.25550254  1
  O  O67  1  0.52223123  0.70173179  0.25490283  1
  O  O68  1  0.17255983  0.47982406  0.25056092  1
  O  O69  1  0.29831010  0.47774508  0.75492067  1
  O  O70  1  0.20088592  0.71295593  0.75550465  1
  O  O71  1  0.52019703  0.82748141  0.75058507  1
loop_
_geom_bond_atom_site_label_1
_geom_bond_atom_site_label_2
_geom_bond_distance
_geom_bond_site_symmetry_2
Na0 O16 2.279280 1_565
Na0 O53 2.332575 1_565
Na0 O67 2.448334 1_555
Na1 O66 2.452374 1_655
Na1 O52 2.462175 1_555
Na1 O15 2.496197 1_555
Na1 O51 2.566683 1_555
Na1 O68 2.847840 1_655
Na1 O30 2.859154 1_655
Na1 O11 2.868185 1_655
Na2 O12 2.278791 1_455
Na2 O50 2.332199 1_455
Na2 O69 2.449725 1_555
Na3 O70 2.450674 1_545
Na3 O48 2.460769 1_555
Na3 O13 2.499968 1_555
Na3 O49 2.568107 1_555
Na3 O71 2.844752 1_545
Na3 O34 2.854318 1_545
Na3 O8 2.870977 1_545
Na4 O28 2.275544 1_555
Na4 O65 2.332455 1_555
Na4 O43 2.447352 1_555
Na5 O42 2.452154 1_565
Na5 O64 2.462228 1_555
Na5 O27 2.499388 1_555
Na5 O63 2.567212 1_555
Na5 O44 2.848615 1_555
Na5 O6 2.856171 1_555
Na5 O23 2.868410 1_565
Na6 O24 2.278075 1_554
Na6 O62 2.335353 1_555
Na6 O45 2.445761 1_555
Na7 O46 2.451490 1_455
Na7 O60 2.462223 1_555
Na7 O25 2.498391 1_554
Na7 O61 2.568074 1_555
Na7 O47 2.846555 1_555
Na7 O10 2.856496 1_555
Na7 O20 2.868276 1_455
Na8 O4 2.278195 1_655
Na8 O41 2.331829 1_555
Na8 O55 2.448667 1_555
Na9 O54 2.451777 1_555
Na9 O40 2.461213 1_555
Na9 O3 2.500310 1_555
Na9 O39 2.567651 1_555
Na9 O56 2.846226 1_555
Na9 O18 2.854541 1_556
Na9 O35 2.870391 1_555
Na10 O0 2.279005 1_545
Na10 O38 2.332006 1_555
Na10 O57 2.449776 1_555
Na11 O58 2.452513 1_555
Na11 O36 2.462206 1_555
Na11 O1 2.498471 1_555
Na11 O37 2.567133 1_555
Na11 O59 2.848410 1_555
Na11 O22 2.857550 1_555
Na11 O32 2.868331 1_555
Na12 O42 2.445064 1_455
Na12 O37 2.492624 1_445
Na12 O38 2.573953 1_555
Na12 O43 2.734513 1_555
Na12 O44 2.746511 1_445
Na13 O46 2.446598 1_566
Na13 O39 2.493424 1_665
Na13 O41 2.573661 1_555
Na13 O45 2.733111 1_556
Na13 O47 2.745775 1_666
Na14 O54 2.445510 1_555
Na14 O49 2.497311 1_555
Na14 O50 2.575241 1_555
Na14 O55 2.728975 1_555
Na14 O56 2.744201 1_555
Na15 O58 2.444355 1_555
Na15 O51 2.503090 1_555
Na15 O53 2.576857 1_555
Na15 O57 2.722818 1_555
Na15 O59 2.740511 1_555
Na16 O66 2.446892 1_555
Na16 O61 2.496854 1_555
Na16 O62 2.575157 1_555
Na16 O67 2.728223 1_555
Na16 O68 2.742281 1_555
Na17 O70 2.444323 1_555
Na17 O63 2.494562 1_555
Na17 O65 2.574412 1_555
Na17 O69 2.732303 1_555
Na17 O71 2.746317 1_555
La0 O1 2.279807 1_445
La0 O0 2.280339 1_545
La0 O2 2.313123 1_455
La0 O38 2.344472 1_555
La0 O37 2.375880 1_445
La0 O36 2.496736 1_445
La1 O3 2.279811 1_665
La1 O4 2.280557 1_655
La1 O5 2.313150 1_565
La1 O41 2.344481 1_555
La1 O39 2.375492 1_665
La1 O40 2.496555 1_665
La2 O13 2.280260 1_555
La2 O12 2.280929 1_555
La2 O14 2.313248 1_555
La2 O50 2.344439 1_555
La2 O49 2.375372 1_555
La2 O48 2.496526 1_555
La3 O15 2.280570 1_555
La3 O16 2.280904 1_555
La3 O17 2.313263 1_555
La3 O53 2.344140 1_555
La3 O51 2.375044 1_555
La3 O52 2.496242 1_555
La4 O25 2.280447 1_554
La4 O24 2.280680 1_554
La4 O26 2.313367 1_554
La4 O62 2.343951 1_555
La4 O61 2.375067 1_555
La4 O60 2.496200 1_555
La5 O27 2.280199 1_555
La5 O28 2.280605 1_555
La5 O29 2.313396 1_555
La5 O65 2.344133 1_555
La5 O63 2.375187 1_555
La5 O64 2.496277 1_555
Hf0 O7 2.000839 1_555
Hf0 O43 2.003582 1_555
Hf0 O8 2.038228 1_545
Hf0 O42 2.127441 1_455
Hf0 O44 2.311970 1_445
Hf0 O6 2.524257 1_445
Hf1 O9 2.000969 1_555
Hf1 O45 2.003723 1_555
Hf1 O11 2.038233 1_655
Hf1 O46 2.126971 1_565
Hf1 O47 2.311814 1_665
Hf1 O10 2.524042 1_665
Hf2 O19 2.001009 1_556
Hf2 O55 2.003737 1_555
Hf2 O20 2.038052 1_556
Hf2 O54 2.127164 1_555
Hf2 O56 2.312247 1_555
Hf2 O18 2.524735 1_556
Hf3 O21 2.000927 1_555
Hf3 O57 2.004097 1_555
Hf3 O23 2.038119 1_555
Hf3 O58 2.127071 1_555
Hf3 O59 2.312319 1_555
Hf3 O22 2.523657 1_555
Hf4 O31 2.000971 1_555
Hf4 O67 2.003655 1_555
Hf4 O32 2.038135 1_555
Hf4 O66 2.126595 1_555
Hf4 O68 2.312458 1_555
Hf4 O30 2.524741 1_555
Hf5 O33 2.000951 1_555
Hf5 O69 2.003296 1_555
Hf5 O35 2.038064 1_555
Hf5 O70 2.126933 1_555
Hf5 O71 2.312516 1_555
Hf5 O34 2.525324 1_555
O0 Si0 1.613372 1_555
O1 Si1 1.609289 1_555
O2 S0 1.478053 1_655
O3 Si2 1.609326 1_555
O4 Si3 1.613326 1_555
O5 S1 1.477961 1_545
O6 S1 1.486993 1_555
O7 Si2 1.697631 1_555
O8 Si3 1.697120 1_555
O9 Si1 1.697661 1_555
O10 S0 1.486916 1_555
O11 Si0 1.697079 1_555
O12 Si4 1.613239 1_555
O13 Si5 1.609122 1_555
O14 S2 1.477904 1_555
O15 Si6 1.609213 1_555
O16 Si7 1.613278 1_555
O17 S3 1.477908 1_555
O18 S3 1.487099 1_555
O19 Si6 1.697769 1_555
O20 Si7 1.697300 1_555
O21 Si5 1.697785 1_555
O22 S2 1.487158 1_555
O23 Si4 1.697207 1_555
O24 Si8 1.613289 1_555
O25 Si9 1.609237 1_555
O26 S4 1.477719 1_555
O27 Si10 1.609212 1_555
O28 Si11 1.613278 1_555
O29 S5 1.477737 1_555
O30 S5 1.487233 1_555
O31 Si10 1.697658 1_555
O32 Si11 1.696971 1_555
O33 Si9 1.697620 1_555
O34 S4 1.487245 1_555
O35 Si8 1.697064 1_555
O36 S5 1.484307 1_655
O37 Si10 1.621497 1_555
O38 Si11 1.632691 1_555
O39 Si9 1.621487 1_555
O40 S4 1.484311 1_545
O41 Si8 1.632720 1_555
O42 Si4 1.678606 1_555
O43 Si5 1.682889 1_555
O44 S2 1.493399 1_555
O45 Si6 1.683023 1_555
O46 Si7 1.678678 1_555
O47 S3 1.493448 1_555
O48 S1 1.484276 1_545
O49 Si2 1.621392 1_555
O50 Si3 1.632662 1_655
O51 Si1 1.621300 1_555
O52 S0 1.484226 1_655
O53 Si0 1.632651 1_545
O54 Si8 1.678698 1_555
O55 Si9 1.683127 1_655
O56 S4 1.493466 1_545
O57 Si10 1.683175 1_545
O58 Si11 1.678638 1_555
O59 S5 1.493506 1_655
O60 S3 1.484324 1_555
O61 Si6 1.621392 1_455
O62 Si7 1.632673 1_565
O63 Si5 1.621483 1_565
O64 S2 1.484279 1_555
O65 Si4 1.632686 1_455
O66 Si0 1.678723 1_555
O67 Si1 1.683186 1_555
O68 S0 1.493552 1_555
O69 Si2 1.683124 1_555
O70 Si3 1.678665 1_555
O71 S1 1.493518 1_555
