# generated using pymatgen
data_Gd2InPd2
_symmetry_space_group_name_H-M   'P 1'
_cell_length_a   3.75462123
_cell_length_b   7.74093101
_cell_length_c   7.74093101
_cell_angle_alpha   89.99992347
_cell_angle_beta   90.00000000
_cell_angle_gamma   90.00000000
_symmetry_Int_Tables_number   1
_chemical_formula_structural   Gd2InPd2
_chemical_formula_sum   'Gd4 In2 Pd4'
_cell_volume   224.98446178
_cell_formula_units_Z   2
loop_
 _symmetry_equiv_pos_site_id
 _symmetry_equiv_pos_as_xyz
  1  'x, y, z'
loop_
 _atom_site_type_symbol
 _atom_site_label
 _atom_site_symmetry_multiplicity
 _atom_site_fract_x
 _atom_site_fract_y
 _atom_site_fract_z
 _atom_site_occupancy
  Gd  Gd0  1  0.50000000  0.82575002  0.32575002  1
  Gd  Gd1  1  0.50000000  0.67424998  0.82575002  1
  Gd  Gd2  1  0.50000000  0.32575002  0.17424998  1
  Gd  Gd3  1  0.50000000  0.17424998  0.67424998  1
  In  In0  1  0.00000000  0.00000000  0.00000000  1
  In  In1  1  0.00000000  0.50000000  0.50000000  1
  Pd  Pd0  1  0.00000000  0.12821880  0.37178120  1
  Pd  Pd1  1  0.00000000  0.37178220  0.87178220  1
  Pd  Pd2  1  0.00000000  0.62821780  0.12821780  1
  Pd  Pd3  1  0.00000000  0.87178120  0.62821880  1
loop_
_geom_bond_atom_site_label_1
_geom_bond_atom_site_label_2
_geom_bond_distance
_geom_bond_site_symmetry_2
Gd0 Pd2 2.863650 1_555
Gd0 Pd2 2.863650 1_655
Gd0 Pd3 3.022147 1_555
Gd0 Pd3 3.022147 1_655
Gd0 Pd0 3.022147 1_565
Gd0 Pd0 3.022147 1_665
Gd0 In1 3.420849 1_655
Gd0 In1 3.420849 1_555
Gd0 In0 3.420849 1_565
Gd0 In0 3.420849 1_665
Gd1 Pd3 2.863640 1_655
Gd1 Pd3 2.863640 1_555
Gd1 Pd1 3.022141 1_555
Gd1 Pd1 3.022141 1_655
Gd1 Pd2 3.022141 1_556
Gd1 Pd2 3.022141 1_656
Gd1 In1 3.420852 1_555
Gd1 In1 3.420852 1_655
Gd1 In0 3.420852 1_666
Gd1 In0 3.420852 1_566
Gd2 Pd0 2.863640 1_555
Gd2 Pd0 2.863640 1_655
Gd2 Pd2 3.022141 1_655
Gd2 Pd2 3.022141 1_555
Gd2 Pd1 3.022141 1_654
Gd2 Pd1 3.022141 1_554
Gd2 In1 3.420852 1_555
Gd2 In1 3.420852 1_655
Gd2 In0 3.420852 1_555
Gd2 In0 3.420852 1_655
Gd3 Pd1 2.863650 1_555
Gd3 Pd1 2.863650 1_655
Gd3 Pd0 3.022147 1_655
Gd3 Pd0 3.022147 1_555
Gd3 Pd3 3.022147 1_545
Gd3 Pd3 3.022147 1_645
Gd3 In1 3.420849 1_655
Gd3 In1 3.420849 1_555
Gd3 In0 3.420849 1_656
Gd3 In0 3.420849 1_556
In0 Pd0 3.044277 1_555
In0 Pd3 3.044277 1_544
In0 Pd1 3.044280 1_554
In0 Pd2 3.044280 1_545
In1 Pd3 3.044277 1_555
In1 Pd0 3.044277 1_555
In1 Pd2 3.044280 1_555
In1 Pd1 3.044280 1_555
Pd0 Pd3 2.807305 1_545
Pd1 Pd2 2.807287 1_556
