# generated using pymatgen
data_MgCo2(NiO2)4
_symmetry_space_group_name_H-M   'P 1'
_cell_length_a   6.14104243
_cell_length_b   5.94386947
_cell_length_c   6.13860973
_cell_angle_alpha   61.07043699
_cell_angle_beta   59.23627631
_cell_angle_gamma   61.02899680
_symmetry_Int_Tables_number   1
_chemical_formula_structural   MgCo2(NiO2)4
_chemical_formula_sum   'Mg1 Co2 Ni4 O8'
_cell_volume   159.93116565
_cell_formula_units_Z   1
loop_
 _symmetry_equiv_pos_site_id
 _symmetry_equiv_pos_as_xyz
  1  'x, y, z'
loop_
 _atom_site_type_symbol
 _atom_site_label
 _atom_site_symmetry_multiplicity
 _atom_site_fract_x
 _atom_site_fract_y
 _atom_site_fract_z
 _atom_site_occupancy
  Mg  Mg0  1  0.66024600  0.08976400  0.66023900  1
  Co  Co0  1  0.09227700  0.15772100  0.09227500  1
  Co  Co1  1  0.94431700  0.80567900  0.94431100  1
  Ni  Ni0  1  0.44480600  0.02988000  0.44313000  1
  Ni  Ni1  1  0.51210900  0.49866600  0.99084500  1
  Ni  Ni2  1  0.99084600  0.49837300  0.51211800  1
  Ni  Ni3  1  0.44311900  0.58220800  0.44478600  1
  O  O0  1  0.71170100  0.25556600  0.27512800  1
  O  O1  1  0.22349600  0.28617800  0.22228100  1
  O  O2  1  0.79443600  0.20841900  0.79384300  1
  O  O3  1  0.73683200  0.73051700  0.30042000  1
  O  O4  1  0.27513100  0.25759200  0.71169900  1
  O  O5  1  0.22227300  0.76804800  0.22349100  1
  O  O6  1  0.30041600  0.73223200  0.73683300  1
  O  O7  1  0.79383000  0.70332100  0.79443400  1
loop_
_geom_bond_atom_site_label_1
_geom_bond_atom_site_label_2
_geom_bond_distance
_geom_bond_site_symmetry_2
Mg0 O7 1.913878 1_545
Mg0 O2 1.913934 1_555
Mg0 O0 1.985769 1_555
Mg0 O4 1.985775 1_555
Co0 O0 1.921329 1_455
Co0 O4 1.921336 1_554
Co0 O5 1.926757 1_545
Co0 O1 1.926825 1_555
Co1 O6 1.832687 1_655
Co1 O3 1.832744 1_556
Co1 O7 2.006661 1_555
Co1 O2 2.006707 1_565
Ni0 O1 1.971515 1_555
Ni0 O3 1.989816 1_545
Ni0 O6 1.991261 1_545
Ni0 O0 2.147491 1_555
Ni0 O4 2.161233 1_555
Ni1 O6 2.068761 1_555
Ni1 O7 2.100577 1_555
Ni1 O2 2.102538 1_555
Ni1 O1 2.147448 1_556
Ni1 O5 2.149980 1_556
Ni1 O0 2.160676 1_556
Ni2 O3 2.068791 1_555
Ni2 O2 2.100527 1_555
Ni2 O7 2.102589 1_555
Ni2 O5 2.147463 1_655
Ni2 O1 2.150001 1_655
Ni2 O4 2.160639 1_655
Ni3 O5 1.971448 1_555
Ni3 O6 1.989863 1_555
Ni3 O3 1.991254 1_555
Ni3 O4 2.147618 1_555
Ni3 O0 2.161337 1_555
