# generated using pymatgen
data_Cs2GeCl6
_symmetry_space_group_name_H-M   'P 1'
_cell_length_a   7.31118537
_cell_length_b   7.31118524
_cell_length_c   7.31118516
_cell_angle_alpha   59.99999104
_cell_angle_beta   59.99999163
_cell_angle_gamma   59.99999652
_symmetry_Int_Tables_number   1
_chemical_formula_structural   Cs2GeCl6
_chemical_formula_sum   'Cs2 Ge1 Cl6'
_cell_volume   276.34289268
_cell_formula_units_Z   1
loop_
 _symmetry_equiv_pos_site_id
 _symmetry_equiv_pos_as_xyz
  1  'x, y, z'
loop_
 _atom_site_type_symbol
 _atom_site_label
 _atom_site_symmetry_multiplicity
 _atom_site_fract_x
 _atom_site_fract_y
 _atom_site_fract_z
 _atom_site_occupancy
  Cs  Cs0  1  0.75000000  0.75000000  0.75000000  1
  Cs  Cs1  1  0.25000000  0.25000000  0.25000000  1
  Ge  Ge0  1  -0.00000000  -0.00000000  0.00000000  1
  Cl  Cl0  1  0.22399766  0.77600234  0.77600234  1
  Cl  Cl1  1  0.22399766  0.77600234  0.22399766  1
  Cl  Cl2  1  0.77600234  0.22399766  0.77600234  1
  Cl  Cl3  1  0.77600234  0.22399766  0.22399766  1
  Cl  Cl4  1  0.77600234  0.77600234  0.22399766  1
  Cl  Cl5  1  0.22399766  0.22399766  0.77600234  1
loop_
_geom_bond_atom_site_label_1
_geom_bond_atom_site_label_2
_geom_bond_distance
_geom_bond_site_symmetry_2
Cl0 Ge0 2.316041 1_566
Cl0 Cs1 3.665465 1_565
Cl0 Cs1 3.665465 1_556
Cl0 Cs0 3.665466 1_555
Cl0 Cs0 3.665466 1_455
Cl1 Ge0 2.316041 1_565
Cl1 Cs0 3.665465 1_455
Cl1 Cs0 3.665465 1_554
Cl1 Cs1 3.665466 1_555
Cl1 Cs1 3.665466 1_565
Cl2 Ge0 2.316041 1_656
Cl2 Cs1 3.665465 1_655
Cl2 Cs1 3.665465 1_556
Cl2 Cs0 3.665466 1_555
Cl2 Cs0 3.665466 1_545
Cl3 Ge0 2.316041 1_655
Cl3 Cs0 3.665465 1_545
Cl3 Cs0 3.665465 1_554
Cl3 Cs1 3.665466 1_555
Cl3 Cs1 3.665466 1_655
Cl4 Ge0 2.316041 1_665
Cl4 Cs1 3.665466 1_655
Cl4 Cs1 3.665466 1_565
Cl4 Cs0 3.665466 1_555
Cl4 Cs0 3.665466 1_554
Cl5 Ge0 2.316041 1_556
Cl5 Cs0 3.665466 1_455
Cl5 Cs0 3.665466 1_545
Cl5 Cs1 3.665466 1_555
Cl5 Cs1 3.665466 1_556
