# generated using pymatgen
data_Na10Ti4Si9Ge4(SO16)3
_symmetry_space_group_name_H-M   'P 1'
_cell_length_a   17.50342244
_cell_length_b   8.76754204
_cell_length_c   22.01637063
_cell_angle_alpha   89.94615268
_cell_angle_beta   90.21345519
_cell_angle_gamma   119.83290858
_symmetry_Int_Tables_number   1
_chemical_formula_structural   Na10Ti4Si9Ge4(SO16)3
_chemical_formula_sum   'Na30 Ti12 Si27 Ge12 S9 O144'
_cell_volume   2930.91152212
_cell_formula_units_Z   3
loop_
 _symmetry_equiv_pos_site_id
 _symmetry_equiv_pos_as_xyz
  1  'x, y, z'
loop_
 _atom_site_type_symbol
 _atom_site_label
 _atom_site_symmetry_multiplicity
 _atom_site_fract_x
 _atom_site_fract_y
 _atom_site_fract_z
 _atom_site_occupancy
  Na  Na0  1  0.31857209  0.99948024  0.24985012  1
  Na  Na1  1  0.81781720  0.99817733  0.24984439  1
  Na  Na2  1  0.18391709  0.99498744  0.74833261  1
  Na  Na3  1  0.68449260  0.00026076  0.74819321  1
  Na  Na4  1  0.01681879  0.69868415  0.58182036  1
  Na  Na5  1  0.51719702  0.70187069  0.58129238  1
  Na  Na6  1  0.01611715  0.33351457  0.08134555  1
  Na  Na7  1  0.51700382  0.33079774  0.08125220  1
  Na  Na8  1  0.48272521  0.66431428  0.91586817  1
  Na  Na9  1  0.35037638  0.03471609  0.91599732  1
  Na  Na10  1  0.85141055  0.03681361  0.91455712  1
  Na  Na11  1  0.16549468  0.30370733  0.91772625  1
  Na  Na12  1  0.48386721  0.30224633  0.41603704  1
  Na  Na13  1  0.98314253  0.30272683  0.41573776  1
  Na  Na14  1  0.16652219  0.03163539  0.41693665  1
  Na  Na15  1  0.66629086  0.02980450  0.41705607  1
  Na  Na16  1  0.34992006  0.66677898  0.41665569  1
  Na  Na17  1  0.85020369  0.66667297  0.41569910  1
  Na  Na18  1  0.00030922  0.00411826  0.50197788  1
  Na  Na19  1  0.50139286  0.00458090  0.50149928  1
  Na  Na20  1  0.00150398  0.99202456  0.00159649  1
  Na  Na21  1  0.50502830  0.00531023  0.99989534  1
  Na  Na22  1  0.33966577  0.34067540  0.83175798  1
  Na  Na23  1  0.83981542  0.34513708  0.83298499  1
  Na  Na24  1  0.33697561  0.34404012  0.33148681  1
  Na  Na25  1  0.83655675  0.34454120  0.33092962  1
  Na  Na26  1  0.16860878  0.66309682  0.16587635  1
  Na  Na27  1  0.67041644  0.66324414  0.16702696  1
  Na  Na28  1  0.17172733  0.66725051  0.66710670  1
  Na  Na29  1  0.67243359  0.66646371  0.66617301  1
  Ti  Ti0  1  0.49244154  0.99322607  0.35366695  1
  Ti  Ti1  1  0.49289146  0.97909023  0.64674958  1
  Ti  Ti2  1  0.49654640  0.01330786  0.14518596  1
  Ti  Ti3  1  0.33323470  0.33356957  0.68721155  1
  Ti  Ti4  1  0.83398616  0.33504047  0.68858924  1
  Ti  Ti5  1  0.32984613  0.33517607  0.18606255  1
  Ti  Ti6  1  0.32576800  0.31624213  0.97717357  1
  Ti  Ti7  1  0.32662204  0.33349411  0.47978787  1
  Ti  Ti8  1  0.82825712  0.33659993  0.48012910  1
  Ti  Ti9  1  0.67549049  0.67984338  0.51888195  1
  Ti  Ti10  1  0.16431103  0.64995260  0.31299732  1
  Ti  Ti11  1  0.66662625  0.65250848  0.31311305  1
  Si  Si0  1  0.35450132  0.70568577  0.24850647  1
  Si  Si1  1  0.85909314  0.70912239  0.24776889  1
  Si  Si2  1  0.99925845  0.29098571  0.24904815  1
  Si  Si3  1  0.50128099  0.29802481  0.25019056  1
  Si  Si4  1  0.99939520  0.70815628  0.75304879  1
  Si  Si5  1  0.49739764  0.70731977  0.75269878  1
  Si  Si6  1  0.35464926  0.99440829  0.75269338  1
  Si  Si7  1  0.85748316  0.99398146  0.75133115  1
  Si  Si8  1  0.18546803  0.04024249  0.58498685  1
  Si  Si9  1  0.68780108  0.04484530  0.58500320  1
  Si  Si10  1  0.32612293  0.61879379  0.58273788  1
  Si  Si11  1  0.83065099  0.62286325  0.58477972  1
  Si  Si12  1  0.32582596  0.03271763  0.08267138  1
  Si  Si13  1  0.82813124  0.03799805  0.08455221  1
  Si  Si14  1  0.18496870  0.33053415  0.08319155  1
  Si  Si15  1  0.69380075  0.33707972  0.08184985  1
  Si  Si16  1  0.30932156  0.66679666  0.91404657  1
  Si  Si17  1  0.02222736  0.38677751  0.91687769  1
  Si  Si18  1  0.52910813  0.38230839  0.91563703  1
  Si  Si19  1  0.15882268  0.94132570  0.91695444  1
  Si  Si20  1  0.66576448  0.95608260  0.91770973  1
  Si  Si21  1  0.30890195  0.95471775  0.41549969  1
  Si  Si22  1  0.81254412  0.95921018  0.41376484  1
  Si  Si23  1  0.16292248  0.37677138  0.41810807  1
  Si  Si24  1  0.66472401  0.37627682  0.41815617  1
  Si  Si25  1  0.02432641  0.66937135  0.41686935  1
  Si  Si26  1  0.52304721  0.66544673  0.41699882  1
  Ge  Ge0  1  0.99275112  0.99412305  0.35338753  1
  Ge  Ge1  1  0.99882951  0.99776703  0.85235619  1
  Ge  Ge2  1  0.49514586  0.99482951  0.85655185  1
  Ge  Ge3  1  0.99354029  0.97190621  0.64797604  1
  Ge  Ge4  1  0.99397992  0.01365683  0.14634465  1
  Ge  Ge5  1  0.83290584  0.33961165  0.18573366  1
  Ge  Ge6  1  0.82845718  0.30878265  0.98099148  1
  Ge  Ge7  1  0.17454610  0.67032757  0.01670243  1
  Ge  Ge8  1  0.66904517  0.66667192  0.01980174  1
  Ge  Ge9  1  0.17421528  0.67953816  0.51760106  1
  Ge  Ge10  1  0.16574608  0.67587305  0.81630674  1
  Ge  Ge11  1  0.66327033  0.68235643  0.81264086  1
  S  S0  1  0.14084406  0.99950997  0.24915335  1
  S  S1  1  0.64458516  0.00163672  0.24934899  1
  S  S2  1  0.14224234  0.29026046  0.74923330  1
  S  S3  1  0.64278324  0.29216850  0.75119735  1
  S  S4  1  0.47809399  0.33083381  0.58346086  1
  S  S5  1  0.97890005  0.32805223  0.58395229  1
  S  S6  1  0.47855675  0.62415617  0.08232544  1
  S  S7  1  0.97674404  0.62484666  0.08320163  1
  S  S8  1  0.81044216  0.66222097  0.91625802  1
  O  O0  1  0.10432543  0.03063246  0.30623528  1
  O  O1  1  0.60582470  0.02850262  0.30540443  1
  O  O2  1  0.41410234  0.79592521  0.31019758  1
  O  O3  1  0.91738515  0.79459169  0.31093217  1
  O  O4  1  0.48387134  0.16784036  0.30880756  1
  O  O5  1  0.97924918  0.16302487  0.30951238  1
  O  O6  1  0.10626659  0.18014296  0.80611686  1
  O  O7  1  0.60513632  0.17739932  0.80577635  1
  O  O8  1  0.48535397  0.80340227  0.81226255  1
  O  O9  1  0.98378239  0.80757546  0.81026448  1
  O  O10  1  0.41748106  0.03560642  0.81276334  1
  O  O11  1  0.91702106  0.03239130  0.81350773  1
  O  O12  1  0.40453378  0.97056640  0.69340014  1
  O  O13  1  0.90493520  0.96762757  0.69125660  1
  O  O14  1  0.08716715  0.20566873  0.69511157  1
  O  O15  1  0.58990294  0.21298192  0.69600895  1
  O  O16  1  0.02418945  0.83422742  0.69145184  1
  O  O17  1  0.51997784  0.83391986  0.69207555  1
  O  O18  1  0.40612898  0.84059845  0.19231810  1
  O  O19  1  0.90583196  0.84439999  0.19037452  1
  O  O20  1  0.01911445  0.20831818  0.18874961  1
  O  O21  1  0.51604807  0.20419318  0.18987989  1
  O  O22  1  0.08659050  0.97251073  0.19482740  1
  O  O23  1  0.59000825  0.97683991  0.19490496  1
  O  O24  1  0.43584758  0.36146506  0.63718081  1
  O  O25  1  0.93730020  0.36143829  0.63753074  1
  O  O26  1  0.24792997  0.13145142  0.64419612  1
  O  O27  1  0.74942175  0.13591038  0.64469232  1
  O  O28  1  0.31841900  0.49584793  0.64082744  1
  O  O29  1  0.82157444  0.49701631  0.64190687  1
  O  O30  1  0.43788293  0.50994135  0.13658040  1
  O  O31  1  0.93844934  0.50809460  0.13831105  1
  O  O32  1  0.31778563  0.13297149  0.14301063  1
  O  O33  1  0.81611382  0.13380297  0.14474324  1
  O  O34  1  0.25045336  0.36535938  0.14109245  1
  O  O35  1  0.75465353  0.37270735  0.14235525  1
  O  O36  1  0.23233151  0.30227019  0.02329729  1
  O  O37  1  0.73969497  0.30661222  0.02161128  1
  O  O38  1  0.42613016  0.54754766  0.02714864  1
  O  O39  1  0.92142403  0.54518947  0.02807411  1
  O  O40  1  0.35067966  0.16659000  0.02399796  1
  O  O41  1  0.85614757  0.16751008  0.02426423  1
  O  O42  1  0.23188322  0.16200621  0.52444989  1
  O  O43  1  0.73563741  0.16547865  0.52435867  1
  O  O44  1  0.35102952  0.53699269  0.52351008  1
  O  O45  1  0.85331023  0.54033357  0.52449932  1
  O  O46  1  0.42472380  0.30290346  0.52752764  1
  O  O47  1  0.92607998  0.30146344  0.52773645  1
  O  O48  1  0.27081287  0.71356934  0.97424240  1
  O  O49  1  0.77305346  0.70282652  0.97122108  1
  O  O50  1  0.08523380  0.46335752  0.97782631  1
  O  O51  1  0.58572280  0.46942789  0.97836575  1
  O  O52  1  0.14533164  0.82266923  0.97641569  1
  O  O53  1  0.64677150  0.82202846  0.97485417  1
  O  O54  1  0.27003071  0.82634769  0.47439008  1
  O  O55  1  0.76991030  0.82998990  0.47277171  1
  O  O56  1  0.14209801  0.46542111  0.47594639  1
  O  O57  1  0.64508398  0.46647722  0.47539638  1
  O  O58  1  0.08577443  0.70900824  0.47833799  1
  O  O59  1  0.58341688  0.70422326  0.47798055  1
  O  O60  1  0.06937973  0.62994913  0.35911338  1
  O  O61  1  0.56936636  0.62858847  0.35904971  1
  O  O62  1  0.24839866  0.87434850  0.35523880  1
  O  O63  1  0.74989405  0.87614993  0.35488096  1
  O  O64  1  0.18786801  0.50477036  0.35886456  1
  O  O65  1  0.68847285  0.50484354  0.35893113  1
  O  O66  1  0.06757279  0.50431121  0.85674998  1
  O  O67  1  0.57386136  0.51556058  0.85741813  1
  O  O68  1  0.18793048  0.87675301  0.85616824  1
  O  O69  1  0.69104460  0.87931963  0.85689913  1
  O  O70  1  0.24297531  0.62104074  0.85612518  1
  O  O71  1  0.75613541  0.63347696  0.86126965  1
  O  O72  1  0.01516410  0.84706547  0.40923186  1
  O  O73  1  0.51354927  0.84104001  0.41008319  1
  O  O74  1  0.40736919  0.97570140  0.41146867  1
  O  O75  1  0.91006269  0.97501798  0.41087181  1
  O  O76  1  0.07840963  0.17957413  0.40772654  1
  O  O77  1  0.58110608  0.18111393  0.40956699  1
  O  O78  1  0.01019464  0.18318876  0.90966063  1
  O  O79  1  0.51359905  0.18248377  0.90920407  1
  O  O80  1  0.07711319  0.98321013  0.90830271  1
  O  O81  1  0.57727475  0.97089789  0.90872707  1
  O  O82  1  0.40792580  0.84204875  0.91081328  1
  O  O83  1  0.89895732  0.82755884  0.91242468  1
  O  O84  1  0.48791653  0.17399641  0.59020878  1
  O  O85  1  0.98863260  0.17170754  0.59063677  1
  O  O86  1  0.08706705  0.02380907  0.59238028  1
  O  O87  1  0.59010030  0.02593173  0.59008425  1
  O  O88  1  0.41748723  0.81150982  0.58936265  1
  O  O89  1  0.92186810  0.81657969  0.58932409  1
  O  O90  1  0.48963315  0.80271581  0.08998715  1
  O  O91  1  0.98653312  0.80083129  0.09030123  1
  O  O92  1  0.41819696  0.02310347  0.08836123  1
  O  O93  1  0.91957273  0.02484869  0.08900951  1
  O  O94  1  0.08729865  0.15013422  0.09139433  1
  O  O95  1  0.59444661  0.16340445  0.08928236  1
  O  O96  1  0.34071400  0.16605607  0.74408270  1
  O  O97  1  0.84135599  0.16264703  0.74438804  1
  O  O98  1  0.23028137  0.30288507  0.74513931  1
  O  O99  1  0.73187485  0.30634943  0.74626734  1
  O  O100  1  0.41228063  0.51435402  0.74343383  1
  O  O101  1  0.91310037  0.51583306  0.74362477  1
  O  O102  1  0.34507459  0.51278667  0.24277446  1
  O  O103  1  0.84741489  0.51224524  0.24166427  1
  O  O104  1  0.40967564  0.30186417  0.24326495  1
  O  O105  1  0.90726336  0.29936360  0.24127986  1
  O  O106  1  0.23116248  0.15779211  0.24523467  1
  O  O107  1  0.73472791  0.16107415  0.24566997  1
  O  O108  1  0.32232607  0.49572116  0.92237423  1
  O  O109  1  0.82191856  0.50798963  0.92312845  1
  O  O110  1  0.43029754  0.36216211  0.92265586  1
  O  O111  1  0.92172074  0.35951549  0.92578773  1
  O  O112  1  0.24810126  0.14101258  0.92290539  1
  O  O113  1  0.75595821  0.14940985  0.92307313  1
  O  O114  1  0.32328255  0.15164882  0.42416110  1
  O  O115  1  0.82533570  0.15392611  0.42388310  1
  O  O116  1  0.25084216  0.35637548  0.42319808  1
  O  O117  1  0.75368503  0.35905794  0.42259514  1
  O  O118  1  0.42533195  0.49175291  0.42324160  1
  O  O119  1  0.92740041  0.49632142  0.42406112  1
  O  O120  1  0.17140709  0.50268875  0.07637519  1
  O  O121  1  0.67630304  0.50732118  0.07519613  1
  O  O122  1  0.06391515  0.63623382  0.07857582  1
  O  O123  1  0.56666686  0.63647033  0.07916843  1
  O  O124  1  0.23857592  0.84057380  0.07627174  1
  O  O125  1  0.74199289  0.84413624  0.07412753  1
  O  O126  1  0.17172944  0.84059235  0.57688380  1
  O  O127  1  0.67349044  0.84615324  0.57869716  1
  O  O128  1  0.23833203  0.63513195  0.57613476  1
  O  O129  1  0.74328796  0.63841658  0.57878668  1
  O  O130  1  0.06575765  0.49222344  0.57942591  1
  O  O131  1  0.56446391  0.49202548  0.57947528  1
  O  O132  1  0.15310460  0.84398134  0.25373179  1
  O  O133  1  0.65573000  0.84531141  0.25342524  1
  O  O134  1  0.26074973  0.70199504  0.25448105  1
  O  O135  1  0.76423993  0.70269617  0.25475406  1
  O  O136  1  0.08537986  0.48499874  0.25556925  1
  O  O137  1  0.58826613  0.48960813  0.25441762  1
  O  O138  1  0.15170428  0.46627429  0.75450894  1
  O  O139  1  0.65438358  0.47052998  0.75767563  1
  O  O140  1  0.08995352  0.69419741  0.75817229  1
  O  O141  1  0.58953057  0.69637254  0.75595137  1
  O  O142  1  0.25568773  0.81899910  0.75749879  1
  O  O143  1  0.75721485  0.81640691  0.75862547  1
loop_
_geom_bond_atom_site_label_1
_geom_bond_atom_site_label_2
_geom_bond_distance
_geom_bond_site_symmetry_2
Na0 O134 2.282842 1_555
Na0 O104 2.321051 1_565
Na0 O132 2.515405 1_555
Na0 O106 2.527673 1_565
Na0 O62 2.602247 1_555
Na0 O32 2.629362 1_565
Na0 O4 2.821587 1_565
Na0 O18 2.834673 1_555
Na1 O135 2.277192 1_555
Na1 O105 2.312511 1_565
Na1 O133 2.463697 1_555
Na1 O107 2.495737 1_565
Na1 O63 2.579954 1_555
Na1 O33 2.607449 1_565
Na1 O5 2.776943 1_565
Na1 O19 2.826712 1_555
Na2 O140 2.322251 1_555
Na2 O96 2.386763 1_565
Na2 O98 2.402345 1_565
Na2 O142 2.434280 1_555
Na2 O26 2.573637 1_565
Na2 O68 2.604361 1_555
Na2 O16 2.725409 1_555
Na2 O6 2.883240 1_565
Na3 O141 2.342177 1_545
Na3 O99 2.382685 1_555
Na3 O97 2.384280 1_555
Na3 O143 2.511961 1_545
Na3 O27 2.562810 1_555
Na3 O69 2.641896 1_545
Na3 O17 2.782783 1_545
Na3 O7 2.848113 1_555
Na4 O130 2.357211 1_555
Na4 O126 2.357390 1_555
Na4 O89 2.359963 1_455
Na4 O86 2.490661 1_565
Na4 O58 2.562621 1_555
Na4 O16 2.665579 1_555
Na4 O45 2.781015 1_455
Na4 O25 2.845291 1_455
Na5 O131 2.363447 1_555
Na5 O127 2.375980 1_555
Na5 O88 2.381880 1_555
Na5 O87 2.475940 1_565
Na5 O59 2.552103 1_555
Na5 O17 2.690731 1_555
Na5 O44 2.821370 1_555
Na5 O24 2.868251 1_555
Na6 O122 2.353452 1_555
Na6 O120 2.364479 1_555
Na6 O93 2.378877 1_455
Na6 O94 2.485277 1_555
Na6 O50 2.568914 1_554
Na6 O20 2.617379 1_555
Na6 O41 2.731357 1_455
Na6 O31 2.801881 1_455
Na7 O123 2.371143 1_555
Na7 O92 2.377486 1_555
Na7 O121 2.428257 1_555
Na7 O95 2.449421 1_555
Na7 O51 2.572101 1_554
Na7 O21 2.632286 1_555
Na7 O40 2.818323 1_555
Na7 O30 2.837080 1_555
Na8 O110 2.337497 1_555
Na8 O81 2.358810 1_555
Na8 O108 2.441580 1_555
Na8 O82 2.486615 1_555
Na8 O8 2.575263 1_555
Na8 O38 2.652583 1_556
Na8 O53 2.805095 1_555
Na8 O67 2.826657 1_555
Na9 O82 2.361218 1_545
Na9 O112 2.399706 1_555
Na9 O79 2.486607 1_555
Na9 O110 2.494780 1_555
Na9 O10 2.560504 1_555
Na9 O40 2.643797 1_556
Na9 O48 2.759886 1_545
Na9 O68 2.792018 1_545
Na10 O113 2.333403 1_555
Na10 O83 2.362274 1_545
Na10 O78 2.415814 1_655
Na10 O111 2.472923 1_555
Na10 O11 2.516608 1_555
Na10 O41 2.657638 1_556
Na10 O69 2.741809 1_545
Na10 O49 2.832326 1_545
Na11 O78 2.382457 1_555
Na11 O108 2.404241 1_555
Na11 O80 2.450683 1_545
Na11 O112 2.487740 1_555
Na11 O36 2.601046 1_556
Na11 O6 2.674880 1_555
Na11 O50 2.767213 1_555
Na11 O70 2.769818 1_555
Na12 O118 2.351793 1_555
Na12 O77 2.417768 1_555
Na12 O114 2.446764 1_555
Na12 O74 2.486997 1_545
Na12 O4 2.639576 1_555
Na12 O46 2.668659 1_555
Na12 O57 2.770826 1_555
Na12 O61 2.783401 1_555
Na13 O119 2.348644 1_555
Na13 O76 2.402383 1_655
Na13 O115 2.404500 1_555
Na13 O75 2.499174 1_545
Na13 O5 2.625936 1_555
Na13 O47 2.661802 1_555
Na13 O56 2.749597 1_655
Na13 O60 2.786050 1_655
Na14 O72 2.323325 1_545
Na14 O114 2.405342 1_555
Na14 O76 2.467703 1_555
Na14 O116 2.474267 1_555
Na14 O42 2.627190 1_555
Na14 O0 2.663859 1_555
Na14 O62 2.790162 1_545
Na14 O58 2.802793 1_545
Na15 O73 2.346347 1_545
Na15 O115 2.437128 1_555
Na15 O77 2.444588 1_555
Na15 O117 2.508762 1_555
Na15 O43 2.648897 1_555
Na15 O1 2.670484 1_555
Na15 O63 2.794611 1_545
Na15 O59 2.817674 1_545
Na16 O74 2.377101 1_555
Na16 O116 2.395836 1_555
Na16 O118 2.476215 1_555
Na16 O73 2.491403 1_555
Na16 O2 2.605124 1_555
Na16 O44 2.616542 1_555
Na16 O54 2.737028 1_555
Na16 O64 2.765847 1_555
Na17 O75 2.366368 1_555
Na17 O117 2.370423 1_555
Na17 O119 2.468994 1_555
Na17 O72 2.513505 1_655
Na17 O3 2.581498 1_555
Na17 O45 2.649862 1_555
Na17 O65 2.751291 1_555
Na17 O55 2.760997 1_555
Na18 O86 2.452455 1_555
Na18 O89 2.460564 1_445
Na18 O75 2.481936 1_445
Na18 O85 2.513563 1_455
Na18 O76 2.542430 1_555
Na18 O72 2.549232 1_545
Na19 O87 2.436915 1_555
Na19 O74 2.502700 1_545
Na19 O77 2.511073 1_555
Na19 O88 2.511153 1_545
Na19 O84 2.536505 1_555
Na19 O73 2.542466 1_545
Na20 O94 2.448920 1_565
Na20 O80 2.469534 1_554
Na20 O91 2.500658 1_455
Na20 O93 2.505074 1_465
Na20 O83 2.561101 1_454
Na20 O78 2.582917 1_564
Na21 O95 2.463240 1_556
Na21 O81 2.473586 1_545
Na21 O79 2.487330 1_555
Na21 O82 2.518747 1_545
Na21 O92 2.527118 1_556
Na21 O90 2.585166 1_546
Na22 O100 2.408898 1_555
Na22 O96 2.470635 1_555
Na22 O110 2.497345 1_555
Na22 O108 2.517993 1_555
Na22 O98 2.599050 1_555
Na22 O112 2.624117 1_555
Na23 O101 2.420546 1_555
Na23 O111 2.458576 1_555
Na23 O97 2.532716 1_555
Na23 O109 2.555489 1_555
Na23 O113 2.557808 1_555
Na23 O99 2.581738 1_555
Na24 O102 2.410736 1_555
Na24 O104 2.452866 1_555
Na24 O118 2.477644 1_555
Na24 O116 2.558697 1_555
Na24 O114 2.580834 1_555
Na24 O106 2.583280 1_555
Na25 O103 2.404116 1_555
Na25 O105 2.468138 1_555
Na25 O119 2.525663 1_555
Na25 O117 2.529652 1_555
Na25 O107 2.532981 1_555
Na25 O115 2.586448 1_555
Na26 O124 2.434977 1_555
Na26 O120 2.436722 1_555
Na26 O134 2.439955 1_555
Na26 O136 2.492457 1_555
Na26 O122 2.579332 1_555
Na26 O132 2.601538 1_555
Na27 O137 2.433968 1_555
Na27 O135 2.441199 1_555
Na27 O121 2.472643 1_555
Na27 O125 2.510832 1_555
Na27 O123 2.577796 1_555
Na27 O133 2.578778 1_555
Na28 O128 2.407281 1_555
Na28 O142 2.434787 1_555
Na28 O126 2.499943 1_555
Na28 O138 2.512924 1_555
Na28 O140 2.546170 1_555
Na28 O130 2.582381 1_555
Na29 O129 2.371108 1_555
Na29 O143 2.472863 1_555
Na29 O127 2.481330 1_555
Na29 O141 2.546031 1_555
Na29 O139 2.562719 1_555
Na29 O131 2.580087 1_555
Ge0 O3 1.836324 1_555
Ge0 O75 1.869919 1_555
Ge0 O5 1.877683 1_565
Ge0 O72 1.955660 1_655
Ge0 O76 1.971729 1_665
Ge0 O0 2.094425 1_665
Ge1 O9 1.809109 1_555
Ge1 O11 1.815762 1_565
Ge1 O80 1.890009 1_655
Ge1 O78 1.988567 1_665
Ge1 O6 2.036899 1_665
Ge1 O83 2.109461 1_555
Ge2 O10 1.838025 1_565
Ge2 O8 1.874207 1_555
Ge2 O82 1.878315 1_555
Ge2 O79 1.904486 1_565
Ge2 O81 1.928059 1_555
Ge2 O7 2.113033 1_565
Ge3 O13 1.807682 1_555
Ge3 O16 1.816421 1_655
Ge3 O89 1.840457 1_555
Ge3 O86 1.912561 1_665
Ge3 O14 2.147714 1_665
Ge3 O85 2.194192 1_565
Ge4 O20 1.797464 1_655
Ge4 O19 1.803546 1_545
Ge4 O93 1.847680 1_555
Ge4 O94 1.905468 1_655
Ge4 O22 2.113141 1_645
Ge4 O91 2.186863 1_545
Ge5 O35 1.804850 1_555
Ge5 O103 1.868274 1_555
Ge5 O33 1.905314 1_555
Ge5 O105 1.938629 1_555
Ge5 O31 1.995320 1_555
Ge5 O107 2.116908 1_555
Ge6 O37 1.787413 1_556
Ge6 O41 1.807861 1_556
Ge6 O113 1.848213 1_555
Ge6 O111 1.905564 1_555
Ge6 O39 2.157375 1_556
Ge6 O109 2.209089 1_555
Ge7 O48 1.797863 1_554
Ge7 O52 1.872464 1_554
Ge7 O124 1.879465 1_555
Ge7 O50 1.907824 1_554
Ge7 O120 1.950858 1_555
Ge7 O122 2.266655 1_555
Ge8 O51 1.852987 1_554
Ge8 O125 1.870098 1_555
Ge8 O53 1.873369 1_554
Ge8 O121 1.904648 1_555
Ge8 O49 1.999599 1_554
Ge8 O123 2.129395 1_555
Ge9 O54 1.798974 1_555
Ge9 O128 1.869440 1_555
Ge9 O58 1.896819 1_555
Ge9 O56 1.905425 1_555
Ge9 O126 1.940184 1_555
Ge9 O130 2.250964 1_555
Ge10 O68 1.828336 1_555
Ge10 O66 1.856177 1_555
Ge10 O70 1.861154 1_555
Ge10 O140 1.903404 1_555
Ge10 O142 1.943196 1_555
Ge10 O138 2.200315 1_555
Ge11 O67 1.814202 1_555
Ge11 O69 1.825457 1_555
Ge11 O141 1.839637 1_555
Ge11 O143 1.894353 1_555
Ge11 O71 2.156678 1_555
Ge11 O139 2.157128 1_555
O0 S0 1.497527 1_545
O1 S1 1.484804 1_555
O1 Ti0 2.137218 1_545
O2 Si0 1.652054 1_555
O2 Ti0 1.849821 1_555
O3 Si1 1.663455 1_555
O4 Si3 1.647795 1_555
O4 Ti0 1.888453 1_545
O5 Si2 1.662274 1_555
O6 S2 1.515187 1_555
O7 S3 1.494849 1_555
O8 Si5 1.629302 1_555
O9 Si4 1.631841 1_555
O10 Si6 1.638248 1_545
O11 Si7 1.647537 1_545
O12 Si6 1.643415 1_555
O12 Ti1 1.830033 1_555
O13 Si7 1.640815 1_555
O14 S2 1.476802 1_555
O15 S3 1.472723 1_555
O15 Ti1 2.188756 1_545
O16 Si4 1.665389 1_455
O17 Si5 1.653586 1_555
O17 Ti1 1.853393 1_555
O18 Si0 1.639560 1_555
O18 Ti2 1.870643 1_565
O19 Si1 1.646878 1_555
O20 Si2 1.632295 1_455
O21 Si3 1.650117 1_555
O21 Ti2 1.821509 1_555
O22 S0 1.468602 1_555
O23 S1 1.477139 1_565
O23 Ti2 2.117318 1_565
O24 S4 1.490786 1_555
O24 Ti3 2.018955 1_555
O25 S5 1.492126 1_555
O25 Ti4 2.045871 1_555
O26 Si8 1.629590 1_555
O26 Ti3 1.904373 1_555
O27 Si9 1.631674 1_555
O27 Ti4 1.895891 1_555
O28 Si10 1.633964 1_555
O28 Ti3 1.869979 1_555
O29 Si11 1.627583 1_555
O29 Ti4 1.850093 1_555
O30 S6 1.493725 1_555
O30 Ti5 2.059107 1_555
O31 S7 1.513370 1_555
O32 Si12 1.638249 1_555
O32 Ti5 1.927496 1_555
O33 Si13 1.638867 1_555
O34 Si14 1.635142 1_555
O34 Ti5 1.826621 1_555
O35 Si15 1.632720 1_555
O36 Si14 1.643372 1_555
O36 Ti6 1.879823 1_554
O37 Si15 1.642455 1_555
O38 S6 1.465920 1_555
O38 Ti6 2.203297 1_554
O39 S7 1.489441 1_555
O40 Si12 1.651936 1_555
O40 Ti6 1.880900 1_554
O41 Si13 1.655182 1_555
O42 Si8 1.648806 1_555
O42 Ti7 1.872436 1_555
O43 Si9 1.651355 1_555
O43 Ti8 1.848352 1_555
O44 Si10 1.649807 1_555
O44 Ti7 1.879951 1_555
O45 Si11 1.653323 1_555
O45 Ti8 1.886264 1_555
O46 S4 1.487776 1_555
O46 Ti7 2.137610 1_555
O47 S5 1.489466 1_555
O47 Ti8 2.153155 1_555
O48 Si16 1.631435 1_555
O49 S8 1.502614 1_555
O50 Si17 1.649725 1_555
O51 Si18 1.646643 1_555
O52 Si19 1.614670 1_555
O53 Si20 1.639006 1_555
O54 Si21 1.628691 1_555
O55 Si22 1.640556 1_555
O55 Ti9 1.827634 1_555
O56 Si23 1.626553 1_555
O57 Si24 1.614728 1_555
O57 Ti9 1.925708 1_555
O58 Si25 1.651423 1_555
O59 Si26 1.633270 1_555
O59 Ti9 1.945616 1_555
O60 Si25 1.624108 1_555
O60 Ti10 1.882788 1_555
O61 Si26 1.630530 1_555
O61 Ti11 1.903192 1_555
O62 Si21 1.620823 1_555
O62 Ti10 2.003509 1_555
O63 Si22 1.615598 1_555
O63 Ti11 1.991127 1_555
O64 Si23 1.632573 1_555
O64 Ti10 1.823924 1_555
O65 Si24 1.636671 1_555
O65 Ti11 1.824053 1_555
O66 Si17 1.623511 1_555
O67 Si18 1.647903 1_555
O68 Si19 1.632363 1_555
O69 Si20 1.656389 1_555
O70 Si16 1.631600 1_555
O71 S8 1.478641 1_555
O72 Si25 1.651988 1_555
O73 Si26 1.635532 1_555
O73 Ti0 1.985838 1_555
O74 Si21 1.642514 1_555
O74 Ti0 1.909578 1_555
O75 Si22 1.643844 1_555
O76 Si23 1.638073 1_555
O77 Si24 1.616350 1_555
O77 Ti0 2.020590 1_545
O78 Si17 1.697639 1_555
O79 Si18 1.640166 1_555
O80 Si19 1.654382 1_555
O81 Si20 1.628752 1_555
O82 Si16 1.645285 1_555
O83 S8 1.508332 1_555
O84 S4 1.475506 1_555
O84 Ti1 2.149552 1_545
O85 S5 1.470178 1_555
O86 Si8 1.664001 1_555
O87 Si9 1.638198 1_555
O87 Ti1 1.984880 1_545
O88 Si10 1.656473 1_555
O88 Ti1 1.886451 1_555
O89 Si11 1.656781 1_555
O90 S6 1.488353 1_555
O90 Ti2 2.163671 1_565
O91 S7 1.473672 1_555
O92 Si12 1.664613 1_555
O92 Ti2 1.886121 1_555
O93 Si13 1.663444 1_555
O94 Si14 1.663837 1_555
O95 Si15 1.654284 1_555
O95 Ti2 1.987980 1_555
O96 Si6 1.650631 1_545
O96 Ti3 1.982052 1_555
O97 Si7 1.644513 1_545
O97 Ti4 1.999918 1_555
O98 S2 1.492086 1_555
O98 Ti3 2.116691 1_555
O99 S3 1.505764 1_555
O99 Ti4 2.106952 1_555
O100 Si5 1.616818 1_555
O100 Ti3 1.941079 1_555
O101 Si4 1.622364 1_555
O101 Ti4 1.924973 1_555
O102 Si0 1.620519 1_555
O102 Ti5 1.908697 1_555
O103 Si1 1.639678 1_555
O104 Si3 1.627011 1_555
O104 Ti5 2.003999 1_555
O105 Si2 1.656227 1_555
O106 S0 1.500163 1_545
O106 Ti5 2.107050 1_555
O107 S1 1.502132 1_555
O108 Si16 1.635244 1_555
O108 Ti6 2.006397 1_555
O109 S8 1.470171 1_555
O110 Si18 1.656600 1_555
O110 Ti6 2.057391 1_555
O111 Si17 1.665699 1_655
O112 Si19 1.673667 1_545
O112 Ti6 1.883948 1_555
O113 Si20 1.647995 1_545
O114 Si21 1.627492 1_545
O114 Ti7 1.988876 1_555
O115 Si22 1.623041 1_545
O115 Ti8 2.005737 1_555
O116 Si23 1.638661 1_555
O116 Ti7 1.898378 1_555
O117 Si24 1.640029 1_555
O117 Ti8 1.894707 1_555
O118 Si26 1.634994 1_555
O118 Ti7 2.021849 1_555
O119 Si25 1.626595 1_655
O119 Ti8 2.022648 1_555
O120 Si14 1.647076 1_555
O121 Si15 1.672482 1_555
O122 S7 1.482552 1_455
O123 S6 1.493344 1_555
O124 Si12 1.621486 1_565
O125 Si13 1.631960 1_565
O126 Si8 1.653832 1_565
O127 Si9 1.637917 1_565
O127 Ti9 1.978981 1_555
O128 Si10 1.618709 1_555
O129 Si11 1.606313 1_555
O129 Ti9 1.922468 1_555
O130 S5 1.488857 1_455
O131 S4 1.471556 1_555
O131 Ti9 2.258129 1_555
O132 S0 1.485383 1_555
O132 Ti10 2.227298 1_555
O133 S1 1.479957 1_565
O133 Ti11 2.221590 1_555
O134 Si0 1.630924 1_555
O134 Ti10 1.991508 1_555
O135 Si1 1.640759 1_555
O135 Ti11 2.007729 1_555
O136 Si2 1.622975 1_455
O136 Ti10 1.897731 1_555
O137 Si3 1.613370 1_555
O137 Ti11 1.905843 1_555
O138 S2 1.472521 1_555
O139 S3 1.480305 1_555
O140 Si4 1.652826 1_455
O141 Si5 1.663755 1_555
O142 Si6 1.651474 1_555
O143 Si7 1.677171 1_555
