# generated using pymatgen
data_Li2HfO3
_symmetry_space_group_name_H-M   'P 1'
_cell_length_a   5.25674859
_cell_length_b   5.25674859
_cell_length_c   3.20795302
_cell_angle_alpha   88.86688109
_cell_angle_beta   88.86688109
_cell_angle_gamma   47.00595970
_symmetry_Int_Tables_number   1
_chemical_formula_structural   Li2HfO3
_chemical_formula_sum   'Li2 Hf1 O3'
_cell_volume   64.82327899
_cell_formula_units_Z   1
loop_
 _symmetry_equiv_pos_site_id
 _symmetry_equiv_pos_as_xyz
  1  'x, y, z'
loop_
 _atom_site_type_symbol
 _atom_site_label
 _atom_site_symmetry_multiplicity
 _atom_site_fract_x
 _atom_site_fract_y
 _atom_site_fract_z
 _atom_site_occupancy
  Li  Li0  1  0.34331172  0.34331172  0.50719207  1
  Li  Li1  1  0.65668828  0.65668828  0.49280793  1
  Hf  Hf0  1  -0.00000000  -0.00000000  -0.00000000  1
  O  O0  1  0.14024229  0.14024229  0.49066989  1
  O  O1  1  0.50000000  0.50000000  -0.00000000  1
  O  O2  1  0.85975771  0.85975771  0.50933011  1
loop_
_geom_bond_atom_site_label_1
_geom_bond_atom_site_label_2
_geom_bond_distance
_geom_bond_site_symmetry_2
Li0 O0 1.959711 1_555
Li0 O2 2.102385 1_545
Li0 O2 2.102385 1_455
Li0 O1 2.196229 1_555
Li0 O1 2.210069 1_556
Li1 O2 1.959711 1_555
Li1 O0 2.102385 1_565
Li1 O0 2.102385 1_655
Li1 O1 2.196229 1_556
Li1 O1 2.210069 1_555
Hf0 O1 2.096374 1_545
Hf0 O1 2.096374 1_455
Hf0 O2 2.097053 1_444
Hf0 O0 2.097053 1_555
Hf0 O2 2.098235 1_445
Hf0 O0 2.098235 1_554
