# generated using pymatgen
data_Y3(Fe31B7)2
_symmetry_space_group_name_H-M   'P 1'
_cell_length_a   10.49820070
_cell_length_b   10.49820070
_cell_length_c   10.49820070
_cell_angle_alpha   109.47122063
_cell_angle_beta   109.47122063
_cell_angle_gamma   109.47122063
_symmetry_Int_Tables_number   1
_chemical_formula_structural   Y3(Fe31B7)2
_chemical_formula_sum   'Y3 Fe62 B14'
_cell_volume   890.68209651
_cell_formula_units_Z   1
loop_
 _symmetry_equiv_pos_site_id
 _symmetry_equiv_pos_as_xyz
  1  'x, y, z'
loop_
 _atom_site_type_symbol
 _atom_site_label
 _atom_site_symmetry_multiplicity
 _atom_site_fract_x
 _atom_site_fract_y
 _atom_site_fract_z
 _atom_site_occupancy
  Y  Y0  1  0.50000000  0.00000000  0.50000000  1
  Y  Y1  1  0.00000000  0.50000000  0.50000000  1
  Y  Y2  1  0.50000000  0.50000000  0.00000000  1
  Fe  Fe0  1  0.50000000  0.25000000  0.75000000  1
  Fe  Fe1  1  0.75000000  0.50000000  0.25000000  1
  Fe  Fe2  1  0.25000000  0.50000000  0.75000000  1
  Fe  Fe3  1  0.50000000  0.75000000  0.25000000  1
  Fe  Fe4  1  0.25000000  0.75000000  0.50000000  1
  Fe  Fe5  1  0.75000000  0.25000000  0.50000000  1
  Fe  Fe6  1  0.00000000  0.00000000  0.38370400  1
  Fe  Fe7  1  0.61629600  0.00000000  0.00000000  1
  Fe  Fe8  1  0.00000000  0.61629600  0.00000000  1
  Fe  Fe9  1  0.38370400  0.38370400  0.38370400  1
  Fe  Fe10  1  0.00000000  0.38370400  0.00000000  1
  Fe  Fe11  1  0.61629600  0.61629600  0.61629600  1
  Fe  Fe12  1  0.38370400  0.00000000  0.00000000  1
  Fe  Fe13  1  0.00000000  0.00000000  0.61629600  1
  Fe  Fe14  1  0.28758100  0.14721500  0.43479600  1
  Fe  Fe15  1  0.85278500  0.28758100  0.14036500  1
  Fe  Fe16  1  0.14721500  0.71241900  0.85963500  1
  Fe  Fe17  1  0.28758100  0.43479600  0.14721500  1
  Fe  Fe18  1  0.71241900  0.85963500  0.14721500  1
  Fe  Fe19  1  0.14036500  0.85278500  0.28758100  1
  Fe  Fe20  1  0.43479600  0.14721500  0.28758100  1
  Fe  Fe21  1  0.14036500  0.28758100  0.85278500  1
  Fe  Fe22  1  0.85278500  0.56520400  0.71241900  1
  Fe  Fe23  1  0.56520400  0.71241900  0.85278500  1
  Fe  Fe24  1  0.14721500  0.85963500  0.71241900  1
  Fe  Fe25  1  0.43479600  0.28758100  0.14721500  1
  Fe  Fe26  1  0.14721500  0.43479600  0.28758100  1
  Fe  Fe27  1  0.85278500  0.14036500  0.28758100  1
  Fe  Fe28  1  0.85963500  0.71241900  0.14721500  1
  Fe  Fe29  1  0.71241900  0.85278500  0.56520400  1
  Fe  Fe30  1  0.85278500  0.71241900  0.56520400  1
  Fe  Fe31  1  0.71241900  0.14721500  0.85963500  1
  Fe  Fe32  1  0.28758100  0.14036500  0.85278500  1
  Fe  Fe33  1  0.28758100  0.85278500  0.14036500  1
  Fe  Fe34  1  0.85963500  0.14721500  0.71241900  1
  Fe  Fe35  1  0.14721500  0.28758100  0.43479600  1
  Fe  Fe36  1  0.71241900  0.56520400  0.85278500  1
  Fe  Fe37  1  0.56520400  0.85278500  0.71241900  1
  Fe  Fe38  1  0.23582000  0.23582000  0.66466200  1
  Fe  Fe39  1  0.57115800  0.23582000  0.00000000  1
  Fe  Fe40  1  0.23582000  0.57115800  0.00000000  1
  Fe  Fe41  1  0.42884200  0.66466200  0.42884200  1
  Fe  Fe42  1  0.57115800  0.00000000  0.23582000  1
  Fe  Fe43  1  0.00000000  0.57115800  0.23582000  1
  Fe  Fe44  1  0.66466200  0.42884200  0.42884200  1
  Fe  Fe45  1  0.00000000  0.42884200  0.76418000  1
  Fe  Fe46  1  0.57115800  0.33533800  0.57115800  1
  Fe  Fe47  1  0.33533800  0.57115800  0.57115800  1
  Fe  Fe48  1  0.42884200  0.00000000  0.76418000  1
  Fe  Fe49  1  0.66466200  0.23582000  0.23582000  1
  Fe  Fe50  1  0.23582000  0.66466200  0.23582000  1
  Fe  Fe51  1  0.76418000  0.00000000  0.42884200  1
  Fe  Fe52  1  0.00000000  0.76418000  0.42884200  1
  Fe  Fe53  1  0.57115800  0.57115800  0.33533800  1
  Fe  Fe54  1  0.76418000  0.76418000  0.33533800  1
  Fe  Fe55  1  0.76418000  0.42884200  0.00000000  1
  Fe  Fe56  1  0.23582000  0.00000000  0.57115800  1
  Fe  Fe57  1  0.42884200  0.76418000  0.00000000  1
  Fe  Fe58  1  0.00000000  0.23582000  0.57115800  1
  Fe  Fe59  1  0.42884200  0.42884200  0.66466200  1
  Fe  Fe60  1  0.76418000  0.33533800  0.76418000  1
  Fe  Fe61  1  0.33533800  0.76418000  0.76418000  1
  B  B0  1  0.17517100  0.00000000  0.17517100  1
  B  B1  1  0.00000000  0.17517100  0.17517100  1
  B  B2  1  0.00000000  0.82482900  0.82482900  1
  B  B3  1  0.17517100  0.17517100  0.00000000  1
  B  B4  1  0.82482900  0.82482900  0.00000000  1
  B  B5  1  0.82482900  0.00000000  0.82482900  1
  B  B6  1  0.00000000  0.00000000  0.17793300  1
  B  B7  1  0.82206700  0.00000000  0.00000000  1
  B  B8  1  0.00000000  0.82206700  0.00000000  1
  B  B9  1  0.17793300  0.17793300  0.17793300  1
  B  B10  1  0.00000000  0.17793300  0.00000000  1
  B  B11  1  0.82206700  0.82206700  0.82206700  1
  B  B12  1  0.17793300  0.00000000  0.00000000  1
  B  B13  1  0.00000000  0.00000000  0.82206700  1
loop_
_geom_bond_atom_site_label_1
_geom_bond_atom_site_label_2
_geom_bond_distance
_geom_bond_site_symmetry_2
Fe0 Fe55 2.548726 1_556
Fe0 Fe56 2.548726 1_555
Fe0 Fe38 2.548726 1_555
Fe0 Fe60 2.548726 1_555
Fe0 Fe48 2.548726 1_555
Fe0 Fe46 2.548726 1_555
Fe0 Fe39 2.548726 1_556
Fe0 Fe59 2.548726 1_555
Fe0 Fe14 2.860616 1_555
Fe0 Fe36 2.860616 1_555
Fe0 Fe31 2.860619 1_555
Fe0 Fe32 2.860619 1_555
Fe0 Y2 3.030569 1_556
Fe0 Y0 3.030569 1_555
Fe1 Fe49 2.548726 1_555
Fe1 Fe52 2.548726 1_655
Fe1 Fe54 2.548726 1_555
Fe1 Fe39 2.548726 1_555
Fe1 Fe55 2.548726 1_555
Fe1 Fe44 2.548726 1_555
Fe1 Fe53 2.548726 1_555
Fe1 Fe43 2.548726 1_655
Fe1 Fe25 2.860616 1_555
Fe1 Fe30 2.860616 1_555
Fe1 Fe28 2.860619 1_555
Fe1 Fe15 2.860619 1_555
Fe1 Y1 3.030569 1_655
Fe1 Y2 3.030569 1_555
Fe2 Fe45 2.548726 1_555
Fe2 Fe61 2.548726 1_555
Fe2 Fe58 2.548726 1_555
Fe2 Fe40 2.548726 1_556
Fe2 Fe59 2.548726 1_555
Fe2 Fe47 2.548726 1_555
Fe2 Fe57 2.548726 1_556
Fe2 Fe38 2.548726 1_555
Fe2 Fe35 2.860616 1_555
Fe2 Fe23 2.860616 1_555
Fe2 Fe21 2.860619 1_555
Fe2 Y2 3.030569 1_556
Fe2 Y1 3.030569 1_555
Fe3 Fe50 2.548726 1_555
Fe3 Fe57 2.548726 1_555
Fe3 Fe54 2.548726 1_555
Fe3 Fe41 2.548726 1_555
Fe3 Fe42 2.548726 1_565
Fe3 Fe40 2.548726 1_555
Fe3 Fe51 2.548726 1_565
Fe3 Fe53 2.548726 1_555
Fe3 Fe33 2.860619 1_555
Fe3 Y2 3.030569 1_555
Fe3 Y0 3.030569 1_565
Fe4 Fe50 2.548726 1_555
Fe4 Fe47 2.548726 1_555
Fe4 Fe41 2.548726 1_555
Fe4 Fe52 2.548726 1_555
Fe4 Fe61 2.548726 1_555
Fe4 Fe48 2.548726 1_565
Fe4 Fe43 2.548726 1_555
Fe4 Fe56 2.548726 1_565
Fe4 Y1 3.030569 1_555
Fe4 Y0 3.030569 1_565
Fe5 Fe51 2.548726 1_555
Fe5 Fe58 2.548726 1_655
Fe5 Fe60 2.548726 1_555
Fe5 Y0 3.030569 1_555
Fe5 Y1 3.030569 1_655
Fe10 Fe40 2.598804 1_555
Fe10 Fe43 2.598804 1_555
Fe10 Fe60 2.598804 1_454
Fe10 Fe50 2.671267 1_555
Fe10 Fe55 2.671267 1_455
Fe10 Fe45 2.671267 1_554
Fe11 Fe41 2.598804 1_555
Fe11 Fe44 2.598804 1_555
Fe11 Fe59 2.598804 1_555
Fe11 Fe46 2.671267 1_555
Fe11 Fe53 2.671267 1_555
Fe11 Fe47 2.671267 1_555
Fe12 Fe39 2.598804 1_555
Fe12 Fe61 2.598804 1_544
Fe12 Fe42 2.598804 1_555
Fe12 Fe49 2.671267 1_555
Fe12 Fe57 2.671267 1_545
Fe12 Fe48 2.671267 1_554
Fe13 Fe38 2.598804 1_555
Fe13 Fe52 2.598804 1_545
Fe13 Fe51 2.598804 1_455
Fe13 Fe56 2.671267 1_555
Fe13 Fe58 2.671267 1_555
Fe13 Fe54 2.671267 1_445
Fe14 Fe56 2.483320 1_555
Fe14 Fe46 2.483320 1_555
Fe14 Fe38 2.588181 1_555
Fe14 Fe59 2.588181 1_555
Fe14 Y0 3.132948 1_555
Fe15 Fe43 2.483318 1_655
Fe15 Fe49 2.483327 1_555
Fe15 Fe55 2.588174 1_555
Fe15 Fe39 2.588179 1_555
Fe15 Y1 3.132957 1_655
Fe16 Fe45 2.483318 1_555
Fe16 Fe61 2.483327 1_555
Fe16 Fe40 2.588174 1_556
Fe16 Fe57 2.588179 1_556
Fe16 Fe2 2.860619 1_555
Fe16 Y1 3.132957 1_555
Fe17 Fe40 2.483320 1_555
Fe17 Fe53 2.483320 1_555
Fe17 Fe50 2.588181 1_555
Fe17 Fe41 2.588181 1_555
Fe17 Fe3 2.860616 1_555
Fe17 Y2 3.132948 1_555
Fe18 Fe57 2.483318 1_555
Fe18 Fe54 2.483327 1_555
Fe18 Fe42 2.588174 1_565
Fe18 Fe51 2.588179 1_565
Fe18 Fe3 2.860619 1_555
Fe18 Y2 3.132957 1_555
Fe19 Fe56 2.483318 1_565
Fe19 Fe50 2.483327 1_555
Fe19 Fe52 2.588174 1_555
Fe19 Fe43 2.588179 1_555
Fe19 Fe4 2.860619 1_555
Fe19 Y0 3.132957 1_565
Fe20 Fe42 2.483320 1_555
Fe20 Fe46 2.483320 1_555
Fe20 Fe44 2.588181 1_555
Fe20 Fe49 2.588181 1_555
Fe20 Fe5 2.860616 1_555
Fe20 Y0 3.132948 1_555
Fe21 Fe40 2.483318 1_556
Fe21 Fe38 2.483327 1_555
Fe21 Fe45 2.588174 1_555
Fe21 Fe58 2.588179 1_555
Fe21 Y2 3.132957 1_556
Fe22 Fe45 2.483320 1_655
Fe22 Fe44 2.483320 1_555
Fe22 Fe46 2.588181 1_555
Fe22 Fe60 2.588181 1_555
Fe22 Fe5 2.860616 1_555
Fe22 Y1 3.132948 1_655
Fe23 Fe57 2.483320 1_556
Fe23 Fe59 2.483320 1_555
Fe23 Fe61 2.588181 1_555
Fe23 Fe47 2.588181 1_555
Fe23 Y2 3.132948 1_556
Fe24 Fe52 2.483318 1_555
Fe24 Fe61 2.483327 1_555
Fe24 Fe56 2.588174 1_565
Fe24 Fe48 2.588179 1_565
Fe24 Fe4 2.860619 1_555
Fe24 Y1 3.132957 1_555
Fe25 Fe39 2.483320 1_555
Fe25 Fe53 2.483320 1_555
Fe25 Fe44 2.588181 1_555
Fe25 Fe49 2.588181 1_555
Fe25 Y2 3.132948 1_555
Fe26 Fe47 2.483320 1_555
Fe26 Fe43 2.483320 1_555
Fe26 Fe50 2.588181 1_555
Fe26 Fe41 2.588181 1_555
Fe26 Fe4 2.860616 1_555
Fe26 Y1 3.132948 1_555
Fe27 Fe58 2.483318 1_655
Fe27 Fe49 2.483327 1_555
Fe27 Fe51 2.588174 1_555
Fe27 Fe42 2.588179 1_555
Fe27 Fe5 2.860619 1_555
Fe27 Y1 3.132957 1_655
Fe28 Fe55 2.483318 1_555
Fe28 Fe54 2.483327 1_555
Fe28 Fe43 2.588174 1_655
Fe28 Fe52 2.588179 1_655
Fe28 Y2 3.132957 1_555
Fe29 Fe51 2.483320 1_565
Fe29 Fe41 2.483320 1_555
Fe29 Fe53 2.588181 1_555
Fe29 Fe54 2.588181 1_555
Fe29 Fe3 2.860616 1_555
Fe29 Y0 3.132948 1_565
Fe30 Fe52 2.483320 1_655
Fe30 Fe44 2.483320 1_555
Fe30 Fe53 2.588181 1_555
Fe30 Fe54 2.588181 1_555
Fe30 Y1 3.132948 1_655
Fe31 Fe48 2.483318 1_555
Fe31 Fe60 2.483327 1_555
Fe31 Fe39 2.588174 1_556
Fe31 Fe55 2.588179 1_556
Fe31 Y0 3.132957 1_555
Fe32 Fe39 2.483318 1_556
Fe32 Fe38 2.483327 1_555
Fe32 Fe48 2.588174 1_555
Fe32 Fe56 2.588179 1_555
Fe32 Y2 3.132957 1_556
Fe33 Fe42 2.483318 1_565
Fe33 Fe50 2.483327 1_555
Fe33 Fe57 2.588174 1_555
Fe33 Fe40 2.588179 1_555
Fe33 Y0 3.132957 1_565
Fe34 Fe51 2.483318 1_555
Fe34 Fe60 2.483327 1_555
Fe34 Fe58 2.588174 1_655
Fe34 Fe45 2.588179 1_655
Fe34 Fe5 2.860619 1_555
Fe34 Y0 3.132957 1_555
Fe35 Fe47 2.483320 1_555
Fe35 Fe58 2.483320 1_555
Fe35 Fe38 2.588181 1_555
Fe35 Fe59 2.588181 1_555
Fe35 Y1 3.132948 1_555
Fe36 Fe59 2.483320 1_555
Fe36 Fe55 2.483320 1_556
Fe36 Fe46 2.588181 1_555
Fe36 Fe60 2.588181 1_555
Fe36 Y2 3.132948 1_556
Fe37 Fe41 2.483320 1_555
Fe37 Fe48 2.483320 1_565
Fe37 Fe61 2.588181 1_555
Fe37 Fe47 2.588181 1_555
Fe37 Fe4 2.860616 1_555
Fe37 Y0 3.132948 1_565
Fe38 Fe56 2.339333 1_555
Fe38 Fe58 2.339333 1_555
Fe38 Fe59 2.339866 1_555
Fe38 Fe6 2.671267 1_555
Fe38 Y2 3.103402 1_556
Fe39 Fe48 2.339333 1_554
Fe39 Fe49 2.339333 1_555
Fe39 Fe55 2.339866 1_555
Fe39 Fe7 2.671267 1_555
Fe39 Y2 3.103402 1_555
Fe40 Fe50 2.339333 1_555
Fe40 Fe45 2.339333 1_554
Fe40 Fe57 2.339866 1_555
Fe40 Fe8 2.671267 1_555
Fe40 Y2 3.103402 1_555
Fe41 Fe53 2.339333 1_555
Fe41 Fe47 2.339333 1_555
Fe41 Fe50 2.339866 1_555
Fe41 Fe9 2.671267 1_555
Fe41 Y0 3.103402 1_565
Fe42 Fe49 2.339333 1_555
Fe42 Fe57 2.339333 1_545
Fe42 Fe51 2.339866 1_555
Fe42 Fe5 2.548726 1_555
Fe42 Fe7 2.671267 1_555
Fe42 Y0 3.103402 1_555
Fe43 Fe50 2.339333 1_555
Fe43 Fe55 2.339333 1_455
Fe43 Fe52 2.339866 1_555
Fe43 Fe8 2.671267 1_555
Fe43 Y1 3.103402 1_555
Fe44 Fe53 2.339333 1_555
Fe44 Fe46 2.339333 1_555
Fe44 Fe49 2.339866 1_555
Fe44 Fe5 2.548726 1_555
Fe44 Fe9 2.671267 1_555
Fe44 Y1 3.103402 1_655
Fe45 Fe60 2.339333 1_455
Fe45 Fe58 2.339866 1_555
Fe45 Fe5 2.548726 1_455
Fe45 Fe8 2.598804 1_556
Fe45 Y1 3.103402 1_555
Fe46 Fe59 2.339333 1_555
Fe46 Fe60 2.339866 1_555
Fe46 Fe5 2.548726 1_555
Fe46 Fe9 2.598804 1_555
Fe46 Y0 3.103402 1_555
Fe47 Fe59 2.339333 1_555
Fe47 Fe61 2.339866 1_555
Fe47 Fe9 2.598804 1_555
Fe47 Y1 3.103402 1_555
Fe48 Fe61 2.339333 1_545
Fe48 Fe56 2.339866 1_555
Fe48 Fe7 2.598804 1_556
Fe48 Y0 3.103402 1_555
Fe49 Fe5 2.548726 1_555
Fe49 Fe7 2.598804 1_555
Fe49 Y1 3.103402 1_655
Fe50 Fe8 2.598804 1_555
Fe50 Y0 3.103402 1_565
Fe51 Fe58 2.339333 1_655
Fe51 Fe54 2.339333 1_545
Fe51 Fe6 2.671267 1_655
Fe51 Y0 3.103402 1_555
Fe52 Fe56 2.339333 1_565
Fe52 Fe54 2.339333 1_455
Fe52 Fe6 2.671267 1_565
Fe52 Y1 3.103402 1_555
Fe53 Fe54 2.339866 1_555
Fe53 Fe9 2.598804 1_555
Fe53 Y2 3.103402 1_555
Fe54 Fe6 2.598804 1_665
Fe54 Y2 3.103402 1_555
Fe55 Fe60 2.339333 1_554
Fe55 Fe8 2.598804 1_655
Fe55 Y2 3.103402 1_555
Fe56 Fe6 2.598804 1_555
Fe56 Y0 3.103402 1_555
Fe57 Fe61 2.339333 1_554
Fe57 Fe7 2.598804 1_565
Fe57 Y2 3.103402 1_555
Fe58 Fe6 2.598804 1_555
Fe58 Y1 3.103402 1_555
Fe59 Fe9 2.671267 1_555
Fe59 Y2 3.103402 1_556
Fe60 Fe8 2.671267 1_656
Fe60 Y0 3.103402 1_555
Fe61 Fe7 2.671267 1_566
Fe61 Y1 3.103402 1_555
B0 B8 1.848848 1_545
B0 B9 1.848848 1_555
B0 B12 1.848848 1_555
B0 B6 1.848848 1_555
B0 Fe20 2.245348 1_555
B0 Fe14 2.245348 1_555
B0 Fe19 2.245349 1_545
B0 Fe33 2.245349 1_545
B1 B10 1.848848 1_555
B1 B6 1.848848 1_555
B1 B7 1.848848 1_455
B1 B9 1.848848 1_555
B1 Fe35 2.245348 1_555
B1 Fe26 2.245348 1_555
B1 Fe15 2.245349 1_455
B1 Fe27 2.245349 1_455
B2 B8 1.848848 1_556
B2 Fe30 2.245348 1_455
B2 Fe22 2.245348 1_455
B2 Fe24 2.245349 1_555
B2 Fe16 2.245349 1_555
B3 B9 1.848848 1_555
B3 Fe25 2.245348 1_555
B3 Fe17 2.245348 1_555
B3 Fe21 2.245349 1_554
B3 Fe32 2.245349 1_554
B4 B8 1.848848 1_655
B4 B6 1.848848 1_665
B4 B7 1.848848 1_565
B4 Fe23 2.245348 1_554
B4 Fe36 2.245348 1_554
B4 Fe28 2.245349 1_555
B4 Fe18 2.245349 1_555
B5 B7 1.848848 1_556
B5 Fe37 2.245348 1_545
B5 Fe29 2.245348 1_545
B5 Fe34 2.245349 1_555
B5 Fe31 2.245349 1_555
B6 Fe6 2.160225 1_555
B7 Fe7 2.160225 1_555
B8 Fe8 2.160225 1_555
B9 Fe9 2.160225 1_555
B10 B3 1.848848 1_555
B10 B5 1.848848 1_454
B10 Fe10 2.160225 1_555
B11 B5 1.848848 1_565
B11 B4 1.848848 1_556
B11 B2 1.848848 1_655
B11 Fe11 2.160225 1_555
B12 B3 1.848848 1_555
B12 B2 1.848848 1_544
B12 Fe12 2.160225 1_555
B13 B2 1.848848 1_545
B13 B5 1.848848 1_455
B13 B3 1.848848 1_556
B13 Fe13 2.160225 1_555
