# generated using pymatgen
data_Sr2GdCu3(PbO4)2
_symmetry_space_group_name_H-M   'P 1'
_cell_length_a   3.84619500
_cell_length_b   3.84619500
_cell_length_c   16.04175300
_cell_angle_alpha   90.00000000
_cell_angle_beta   90.00000000
_cell_angle_gamma   90.00000000
_symmetry_Int_Tables_number   1
_chemical_formula_structural   Sr2GdCu3(PbO4)2
_chemical_formula_sum   'Sr2 Gd1 Cu3 Pb2 O8'
_cell_volume   237.30911680
_cell_formula_units_Z   1
loop_
 _symmetry_equiv_pos_site_id
 _symmetry_equiv_pos_as_xyz
  1  'x, y, z'
loop_
 _atom_site_type_symbol
 _atom_site_label
 _atom_site_symmetry_multiplicity
 _atom_site_fract_x
 _atom_site_fract_y
 _atom_site_fract_z
 _atom_site_occupancy
  Sr  Sr0  1  0.00000000  0.00000000  0.77809200  1
  Sr  Sr1  1  0.00000000  0.00000000  0.22190800  1
  Gd  Gd0  1  0.00000000  0.00000000  0.00000000  1
  Cu  Cu0  1  0.00000000  0.00000000  0.50000000  1
  Cu  Cu1  1  0.50000000  0.50000000  0.89361000  1
  Cu  Cu2  1  0.50000000  0.50000000  0.10639000  1
  Pb  Pb0  1  0.50000000  0.50000000  0.38778800  1
  Pb  Pb1  1  0.50000000  0.50000000  0.61221200  1
  O  O0  1  0.00000000  0.50000000  0.90634800  1
  O  O1  1  0.50000000  0.00000000  0.09365200  1
  O  O2  1  0.00000000  0.50000000  0.09365200  1
  O  O3  1  0.50000000  0.00000000  0.90634800  1
  O  O4  1  0.00000000  0.00000000  0.38400500  1
  O  O5  1  0.50000000  0.50000000  0.74834900  1
  O  O6  1  0.50000000  0.50000000  0.25165100  1
  O  O7  1  0.00000000  0.00000000  0.61599500  1
loop_
_geom_bond_atom_site_label_1
_geom_bond_atom_site_label_2
_geom_bond_distance
_geom_bond_site_symmetry_2
Gd0 O0 2.440356 1_554
Gd0 O3 2.440356 1_554
Gd0 O3 2.440356 1_454
Gd0 O0 2.440356 1_544
Gd0 O2 2.440356 1_545
Gd0 O1 2.440356 1_555
Gd0 O1 2.440356 1_455
Gd0 O2 2.440356 1_555
Cu0 O7 1.860763 1_555
Cu0 O4 1.860763 1_555
Cu1 O0 1.933923 1_555
Cu1 O3 1.933923 1_565
Cu1 O0 1.933923 1_655
Cu1 O3 1.933923 1_555
Cu1 O5 2.330241 1_555
Cu2 O2 1.933923 1_655
Cu2 O1 1.933923 1_555
Cu2 O1 1.933923 1_565
Cu2 O2 1.933923 1_555
Cu2 O6 2.330241 1_555
O0 Sr0 2.816276 1_565
O0 Sr0 2.816276 1_555
O1 Sr1 2.816276 1_555
O1 Sr1 2.816276 1_655
O2 Sr1 2.816276 1_555
O2 Sr1 2.816276 1_565
O3 Sr0 2.816276 1_655
O3 Sr0 2.816276 1_555
O4 Sr1 2.600320 1_555
O4 Pb0 2.720348 1_555
O4 Pb0 2.720348 1_455
O4 Pb0 2.720348 1_445
O4 Pb0 2.720348 1_545
O5 Pb1 2.183876 1_555
O5 Sr0 2.761206 1_555
O5 Sr0 2.761206 1_565
O5 Sr0 2.761206 1_665
O5 Sr0 2.761206 1_655
O6 Pb0 2.183876 1_555
O6 Sr1 2.761206 1_555
O6 Sr1 2.761206 1_655
O6 Sr1 2.761206 1_565
O6 Sr1 2.761206 1_665
O7 Sr0 2.600320 1_555
O7 Pb1 2.720348 1_445
O7 Pb1 2.720348 1_545
O7 Pb1 2.720348 1_555
O7 Pb1 2.720348 1_455
