# generated using pymatgen
data_MgFe2(SO5)2
_symmetry_space_group_name_H-M   'P 1'
_cell_length_a   5.58525210
_cell_length_b   5.33190829
_cell_length_c   7.63364753
_cell_angle_alpha   111.57760182
_cell_angle_beta   113.63290727
_cell_angle_gamma   94.85217355
_symmetry_Int_Tables_number   1
_chemical_formula_structural   MgFe2(SO5)2
_chemical_formula_sum   'Mg1 Fe2 S2 O10'
_cell_volume   186.34938781
_cell_formula_units_Z   1
loop_
 _symmetry_equiv_pos_site_id
 _symmetry_equiv_pos_as_xyz
  1  'x, y, z'
loop_
 _atom_site_type_symbol
 _atom_site_label
 _atom_site_symmetry_multiplicity
 _atom_site_fract_x
 _atom_site_fract_y
 _atom_site_fract_z
 _atom_site_occupancy
  Mg  Mg0  1  0.60026900  0.47828100  0.70919400  1
  Fe  Fe0  1  0.01455300  0.51482200  0.48943400  1
  Fe  Fe1  1  0.48691500  0.00298800  0.01639700  1
  S  S0  1  0.13595600  0.91042800  0.25360500  1
  S  S1  1  0.87901000  0.08802700  0.75978500  1
  O  O0  1  0.68968200  0.33113700  0.25444700  1
  O  O1  1  0.33508300  0.66845800  0.75750100  1
  O  O2  1  0.85300900  0.83114500  0.07878900  1
  O  O3  1  0.23021100  0.22297700  0.39829200  1
  O  O4  1  0.16513700  0.18083900  0.92188400  1
  O  O5  1  0.79115300  0.77201200  0.64213000  1
  O  O6  1  0.15480900  0.77021500  0.39070500  1
  O  O7  1  0.31897700  0.83420000  0.15976500  1
  O  O8  1  0.83853500  0.21882900  0.61037500  1
  O  O9  1  0.69420000  0.18814100  0.85234000  1
loop_
_geom_bond_atom_site_label_1
_geom_bond_atom_site_label_2
_geom_bond_distance
_geom_bond_site_symmetry_2
Mg0 O1 1.942906 1_555
Mg0 O5 2.143921 1_555
Mg0 O8 2.145336 1_555
Mg0 O9 2.187128 1_555
Mg0 O3 2.229916 1_555
Mg0 O2 2.438405 1_556
Fe0 O0 1.807462 1_455
Fe0 O1 1.909260 1_555
Fe0 O6 2.020823 1_555
Fe0 O3 2.132832 1_555
Fe0 O5 2.252975 1_455
Fe0 O8 2.417946 1_455
Fe1 O0 1.822717 1_555
Fe1 O1 1.901081 1_544
Fe1 O7 2.071752 1_545
Fe1 O4 2.098020 1_554
Fe1 O2 2.259289 1_545
Fe1 O9 2.400378 1_554
O2 S0 1.496067 1_655
O3 S0 1.518486 1_545
O4 S1 1.469805 1_455
O5 S1 1.510045 1_565
O6 S0 1.471653 1_555
O7 S0 1.471902 1_555
O8 S1 1.497786 1_555
O9 S1 1.500036 1_555
