# generated using pymatgen
data_Sr2MgCrO4
_symmetry_space_group_name_H-M   'P 1'
_cell_length_a   4.04432571
_cell_length_b   3.50961819
_cell_length_c   9.60381569
_cell_angle_alpha   110.86287646
_cell_angle_beta   114.90181965
_cell_angle_gamma   89.92130525
_symmetry_Int_Tables_number   1
_chemical_formula_structural   Sr2MgCrO4
_chemical_formula_sum   'Sr2 Mg1 Cr1 O4'
_cell_volume   113.74781805
_cell_formula_units_Z   1
loop_
 _symmetry_equiv_pos_site_id
 _symmetry_equiv_pos_as_xyz
  1  'x, y, z'
loop_
 _atom_site_type_symbol
 _atom_site_label
 _atom_site_symmetry_multiplicity
 _atom_site_fract_x
 _atom_site_fract_y
 _atom_site_fract_z
 _atom_site_occupancy
  Sr  Sr0  1  0.49822965  0.49319657  0.35379527  1
  Sr  Sr1  1  0.31975306  0.32260380  0.67483706  1
  Mg  Mg0  1  0.75327293  0.76256475  0.10881847  1
  Cr  Cr0  1  0.06915887  0.11224646  0.92401994  1
  O  O0  1  0.81174344  0.78305474  0.66622413  1
  O  O1  1  0.01368071  0.01734268  0.36850479  1
  O  O2  1  0.24889522  0.72781139  0.10436518  1
  O  O3  1  0.60193111  0.11451161  0.95684417  1
loop_
_geom_bond_atom_site_label_1
_geom_bond_atom_site_label_2
_geom_bond_distance
_geom_bond_site_symmetry_2
Mg0 O2 2.025158 1_555
Mg0 O2 2.025429 1_655
Mg0 O1 2.081087 1_665
Mg0 O3 2.135482 1_564
Mg0 O3 2.136572 1_554
Cr0 O3 2.041676 1_555
Cr0 O3 2.042038 1_455
Cr0 O0 2.084148 1_445
Cr0 O2 2.115290 1_556
Cr0 O2 2.439291 1_546
O0 Sr0 2.504234 1_555
O0 Sr1 2.604322 1_655
O0 Sr1 2.611542 1_555
O0 Sr1 2.751086 1_565
O0 Sr1 2.751329 1_665
O1 Sr1 2.455010 1_555
O1 Sr0 2.656984 1_555
O1 Sr0 2.658068 1_455
O1 Sr0 2.698586 1_545
O1 Sr0 2.706866 1_445
O2 Sr0 2.607984 1_555
O2 Sr0 2.713089 1_565
O3 Sr1 2.823928 1_555
O3 Sr1 2.899381 1_545
