# generated using pymatgen
data_LiVPO4
_symmetry_space_group_name_H-M   'P 1'
_cell_length_a   5.08390670
_cell_length_b   9.39992650
_cell_length_c   6.22736500
_cell_angle_alpha   90.00003886
_cell_angle_beta   90.00001371
_cell_angle_gamma   83.47502471
_symmetry_Int_Tables_number   1
_chemical_formula_structural   LiVPO4
_chemical_formula_sum   'Li4 V4 P4 O16'
_cell_volume   295.66779444
_cell_formula_units_Z   4
loop_
 _symmetry_equiv_pos_site_id
 _symmetry_equiv_pos_as_xyz
  1  'x, y, z'
loop_
 _atom_site_type_symbol
 _atom_site_label
 _atom_site_symmetry_multiplicity
 _atom_site_fract_x
 _atom_site_fract_y
 _atom_site_fract_z
 _atom_site_occupancy
  Li  Li0  1  0.25642700  0.42426600  0.75000100  1
  Li  Li1  1  0.75642800  0.92426600  0.75000000  1
  Li  Li2  1  0.25809100  0.09035300  0.25000100  1
  Li  Li3  1  0.75809300  0.59035400  0.25000000  1
  V  V0  1  0.25699200  0.75697400  0.99999400  1
  V  V1  1  0.75694500  0.25697100  0.50001500  1
  V  V2  1  0.75694900  0.25696800  0.99999300  1
  V  V3  1  0.25697100  0.75697700  0.49999100  1
  P  P0  1  0.28634700  0.08056200  0.75000200  1
  P  P1  1  0.78635200  0.58056400  0.74999800  1
  P  P2  1  0.22767900  0.43345100  0.24999800  1
  P  P3  1  0.72768500  0.93345100  0.25000100  1
  O  O0  1  0.13463000  0.13123300  0.95393200  1
  O  O1  1  0.63463600  0.63123600  0.95393100  1
  O  O2  1  0.13463400  0.13123500  0.54607100  1
  O  O3  1  0.63462900  0.63123500  0.54606800  1
  O  O4  1  0.37955500  0.38293300  0.45393800  1
  O  O5  1  0.87956400  0.88293300  0.45393700  1
  O  O6  1  0.37956400  0.38293300  0.04606300  1
  O  O7  1  0.87955800  0.88293200  0.04606300  1
  O  O8  1  0.84661000  0.41174400  0.74999900  1
  O  O9  1  0.34661100  0.91174200  0.75000300  1
  O  O10  1  0.56980500  0.13468200  0.75000300  1
  O  O11  1  0.06980400  0.63468400  0.74999600  1
  O  O12  1  0.94441300  0.37910800  0.24999700  1
  O  O13  1  0.44441400  0.87910900  0.25000400  1
  O  O14  1  0.66702800  0.10227000  0.25000500  1
  O  O15  1  0.16702500  0.60227000  0.24999600  1
loop_
_geom_bond_atom_site_label_1
_geom_bond_atom_site_label_2
_geom_bond_distance
_geom_bond_site_symmetry_2
Li0 O4 1.971477 1_555
Li0 O6 1.971485 1_556
Li0 O11 2.094234 1_555
Li0 O8 2.100106 1_455
Li1 O7 1.971481 1_556
Li1 O5 1.971489 1_555
Li1 O10 2.094217 1_565
Li1 O9 2.100109 1_555
Li2 O0 1.971332 1_554
Li2 O2 1.971334 1_555
Li2 O14 2.094686 1_555
Li2 O13 2.100646 1_545
Li3 O1 1.971329 1_554
Li3 O3 1.971332 1_555
Li3 O15 2.094659 1_655
Li3 O12 2.100658 1_555
O0 P0 1.533317 1_555
O0 V2 2.156424 1_455
O1 P1 1.533332 1_555
O1 V0 2.156283 1_555
O2 P0 1.533317 1_555
O2 V1 2.156458 1_455
O3 P1 1.533331 1_555
O3 V3 2.156370 1_555
O4 P2 1.533383 1_555
O4 V1 2.156168 1_555
O5 P3 1.533370 1_555
O5 V3 2.156195 1_655
O6 P2 1.533379 1_555
O6 V2 2.156153 1_554
O7 P3 1.533368 1_555
O7 V0 2.156329 1_654
O8 P1 1.581645 1_555
O8 V1 2.213271 1_555
O8 V2 2.213330 1_555
O9 P0 1.581647 1_565
O9 V0 2.213205 1_555
O9 V3 2.213306 1_555
O10 P0 1.581806 1_555
O10 V1 2.213281 1_555
O10 V2 2.213283 1_555
O11 P1 1.581777 1_455
O11 V3 2.213444 1_555
O11 V0 2.213448 1_555
O12 P2 1.581774 1_655
O12 V2 2.213360 1_554
O12 V1 2.213417 1_555
O13 P3 1.581794 1_555
O13 V3 2.213192 1_555
O13 V0 2.213256 1_554
O14 P3 1.581798 1_545
O14 V2 2.213281 1_554
O14 V1 2.213284 1_555
O15 P2 1.581797 1_555
O15 V3 2.213298 1_555
O15 V0 2.213341 1_554
