# generated using pymatgen
data_U2BiN2
_symmetry_space_group_name_H-M   'P 1'
_cell_length_a   6.91500580
_cell_length_b   6.91500580
_cell_length_c   6.91500580
_cell_angle_alpha   147.22026774
_cell_angle_beta   147.22026774
_cell_angle_gamma   47.03775022
_symmetry_Int_Tables_number   1
_chemical_formula_structural   U2BiN2
_chemical_formula_sum   'U2 Bi1 N2'
_cell_volume   96.56068547
_cell_formula_units_Z   1
loop_
 _symmetry_equiv_pos_site_id
 _symmetry_equiv_pos_as_xyz
  1  'x, y, z'
loop_
 _atom_site_type_symbol
 _atom_site_label
 _atom_site_symmetry_multiplicity
 _atom_site_fract_x
 _atom_site_fract_y
 _atom_site_fract_z
 _atom_site_occupancy
  U  U0  1  0.33990458  0.33990458  0.00000000  1
  U  U1  1  0.66009642  0.66009642  -0.00000000  1
  Bi  Bi0  1  0.00000000  0.00000000  -0.00000000  1
  N  N0  1  0.25000000  0.75000000  0.50000000  1
  N  N1  1  0.75000000  0.25000000  0.50000000  1
loop_
_geom_bond_atom_site_label_1
_geom_bond_atom_site_label_2
_geom_bond_distance
_geom_bond_site_symmetry_2
Bi0 U0 3.425813 1_455
Bi0 U0 3.425813 1_556
Bi0 U0 3.425813 1_444
Bi0 U0 3.425813 1_545
Bi0 U1 3.425820 1_444
Bi0 U1 3.425820 1_545
Bi0 U1 3.425820 1_455
Bi0 U1 3.425820 1_556
N0 U1 2.259876 1_556
N0 U1 2.259876 1_455
N0 U0 2.259882 1_555
N0 U0 2.259882 1_566
N1 U1 2.259876 1_556
N1 U1 2.259876 1_545
N1 U0 2.259882 1_555
N1 U0 2.259882 1_656
