# generated using pymatgen
data_V(GeO3)2
_symmetry_space_group_name_H-M   'P 1'
_cell_length_a   5.59759143
_cell_length_b   6.66462380
_cell_length_c   6.77809195
_cell_angle_alpha   83.33781571
_cell_angle_beta   75.00840883
_cell_angle_gamma   75.26535426
_symmetry_Int_Tables_number   1
_chemical_formula_structural   V(GeO3)2
_chemical_formula_sum   'V2 Ge4 O12'
_cell_volume   235.88176987
_cell_formula_units_Z   2
loop_
 _symmetry_equiv_pos_site_id
 _symmetry_equiv_pos_as_xyz
  1  'x, y, z'
loop_
 _atom_site_type_symbol
 _atom_site_label
 _atom_site_symmetry_multiplicity
 _atom_site_fract_x
 _atom_site_fract_y
 _atom_site_fract_z
 _atom_site_occupancy
  V  V0  1  0.74660600  0.90489700  0.09899300  1
  V  V1  1  0.25339400  0.09510300  0.90100700  1
  Ge  Ge0  1  0.76275400  0.38135700  0.20922200  1
  Ge  Ge1  1  0.73714700  0.79175200  0.61475600  1
  Ge  Ge2  1  0.23724600  0.61864300  0.79077800  1
  Ge  Ge3  1  0.26285300  0.20824800  0.38524400  1
  O  O0  1  0.44471300  0.39622900  0.33745300  1
  O  O1  1  0.05215000  0.65955600  0.61122800  1
  O  O2  1  0.55528700  0.60377100  0.66254700  1
  O  O3  1  0.94785000  0.34044400  0.38877200  1
  O  O4  1  0.24381900  0.08160000  0.62805400  1
  O  O5  1  0.24796300  0.36917900  0.91479200  1
  O  O6  1  0.75618100  0.91840000  0.37194600  1
  O  O7  1  0.75203700  0.63082100  0.08520800  1
  O  O8  1  0.87519200  0.17114200  0.03836500  1
  O  O9  1  0.61708100  0.96088500  0.82540300  1
  O  O10  1  0.12480800  0.82885800  0.96163500  1
  O  O11  1  0.38291900  0.03911500  0.17459700  1
loop_
_geom_bond_atom_site_label_1
_geom_bond_atom_site_label_2
_geom_bond_distance
_geom_bond_site_symmetry_2
Ge0 O3 1.749452 1_555
Ge0 O0 1.750518 1_555
Ge0 O7 1.767891 1_555
Ge0 O8 1.803033 1_555
Ge1 O6 1.750747 1_555
Ge1 O1 1.754625 1_655
Ge1 O2 1.759193 1_555
Ge1 O9 1.803463 1_555
Ge2 O1 1.749452 1_555
Ge2 O2 1.750518 1_555
Ge2 O5 1.767891 1_555
Ge2 O10 1.803033 1_555
Ge3 O4 1.750747 1_555
Ge3 O3 1.754625 1_455
Ge3 O0 1.759193 1_555
Ge3 O11 1.803463 1_555
O4 V1 1.877826 1_555
O5 V1 1.831954 1_555
O6 V0 1.877826 1_555
O7 V0 1.831954 1_555
O8 V1 2.037015 1_654
O8 V0 2.040340 1_545
O9 V1 1.961488 1_565
O9 V0 2.121598 1_556
O10 V0 2.037015 1_456
O10 V1 2.040340 1_565
O11 V0 1.961488 1_545
O11 V1 2.121598 1_554
