# generated using pymatgen
data_Sr2YMgCu3O7
_symmetry_space_group_name_H-M   'P 1'
_cell_length_a   3.91051705
_cell_length_b   3.69236844
_cell_length_c   14.31453379
_cell_angle_alpha   90.01127131
_cell_angle_beta   90.02553228
_cell_angle_gamma   89.98100555
_symmetry_Int_Tables_number   1
_chemical_formula_structural   Sr2YMgCu3O7
_chemical_formula_sum   'Sr2 Y1 Mg1 Cu3 O7'
_cell_volume   206.68851602
_cell_formula_units_Z   1
loop_
 _symmetry_equiv_pos_site_id
 _symmetry_equiv_pos_as_xyz
  1  'x, y, z'
loop_
 _atom_site_type_symbol
 _atom_site_label
 _atom_site_symmetry_multiplicity
 _atom_site_fract_x
 _atom_site_fract_y
 _atom_site_fract_z
 _atom_site_occupancy
  Sr  Sr0  1  0.50007218  0.49996698  0.77140928  1
  Sr  Sr1  1  0.50012499  0.49951603  0.07856669  1
  Y  Y0  1  0.49985765  0.49989592  0.52200891  1
  Mg  Mg0  1  0.00041077  0.50009280  0.26798847  1
  Cu  Cu0  1  0.00003348  -0.00007701  0.93662465  1
  Cu  Cu1  1  -0.00001258  0.00000306  0.64336023  1
  Cu  Cu2  1  0.99972880  0.00037601  0.41592775  1
  O  O0  1  0.49998355  -0.00007311  0.63765671  1
  O  O1  1  0.49976325  0.99987529  0.42972655  1
  O  O2  1  0.00016031  0.00005371  0.80028238  1
  O  O3  1  0.00020386  0.00010143  0.20010677  1
  O  O4  1  0.99994428  0.49992234  0.98583939  1
  O  O5  1  0.99998050  0.49999989  0.60745248  1
  O  O6  1  0.99974796  0.50034665  0.40304775  1
loop_
_geom_bond_atom_site_label_1
_geom_bond_atom_site_label_2
_geom_bond_distance
_geom_bond_site_symmetry_2
Mg0 O6 1.933314 1_455
Mg0 O3 2.086088 1_555
Mg0 O3 2.086483 1_565
Cu0 O2 1.951676 1_555
Cu0 O4 1.975899 1_455
Cu0 O4 1.976162 1_445
Cu1 O5 1.916315 1_445
Cu1 O5 1.916488 1_455
Cu1 O0 1.956941 1_455
Cu1 O0 1.956983 1_555
Cu1 O2 2.246267 1_555
Cu2 O6 1.855296 1_555
Cu2 O6 1.855439 1_545
Cu2 O1 1.965165 1_545
Cu2 O1 1.965257 1_645
O0 Y0 2.479539 1_545
O0 Y0 2.479853 1_555
O0 Sr0 2.659561 1_555
O0 Sr0 2.659879 1_545
O1 Y0 2.269957 1_565
O1 Y0 2.270255 1_555
O2 Sr0 2.720221 1_455
O2 Sr0 2.720315 1_545
O2 Sr0 2.720870 1_555
O2 Sr0 2.721426 1_445
O4 Sr1 2.363143 1_556
O4 Sr1 2.363332 1_656
O5 Y0 2.306235 1_555
O5 Y0 2.306344 1_655
O5 Sr0 3.054275 1_655
O5 Sr0 3.055154 1_555
O6 Y0 2.592590 1_655
O6 Y0 2.593089 1_555
