# generated using pymatgen
data_CoBiPO5
_symmetry_space_group_name_H-M   'P 1'
_cell_length_a   11.41856800
_cell_length_b   5.30407000
_cell_length_c   7.64591574
_cell_angle_alpha   66.64773580
_cell_angle_beta   90.00000000
_cell_angle_gamma   90.00000000
_symmetry_Int_Tables_number   1
_chemical_formula_structural   CoBiPO5
_chemical_formula_sum   'Co4 Bi4 P4 O20'
_cell_volume   425.14138066
_cell_formula_units_Z   4
loop_
 _symmetry_equiv_pos_site_id
 _symmetry_equiv_pos_as_xyz
  1  'x, y, z'
loop_
 _atom_site_type_symbol
 _atom_site_label
 _atom_site_symmetry_multiplicity
 _atom_site_fract_x
 _atom_site_fract_y
 _atom_site_fract_z
 _atom_site_occupancy
  Co  Co0  1  0.58195000  0.44314600  0.68256100  1
  Co  Co1  1  0.08195000  0.55685400  0.81743900  1
  Co  Co2  1  0.41805000  0.55685400  0.31743900  1
  Co  Co3  1  0.91805000  0.44314600  0.18256100  1
  Bi  Bi0  1  0.60021900  0.07151000  0.31053300  1
  Bi  Bi1  1  0.10021900  0.92849000  0.18946700  1
  Bi  Bi2  1  0.39978100  0.92849000  0.68946700  1
  Bi  Bi3  1  0.89978100  0.07151000  0.81053300  1
  P  P0  1  0.84868100  0.81549200  0.47272300  1
  P  P1  1  0.34868100  0.18450800  0.02727700  1
  P  P2  1  0.15131900  0.18450800  0.52727700  1
  P  P3  1  0.65131900  0.81549200  0.97272300  1
  O  O0  1  0.67355600  0.13235400  0.87931300  1
  O  O1  1  0.17355600  0.86764600  0.62068700  1
  O  O2  1  0.32644400  0.86764600  0.12068700  1
  O  O3  1  0.82644400  0.13235400  0.37931300  1
  O  O4  1  0.97783400  0.24284800  0.01383100  1
  O  O5  1  0.47783400  0.75715200  0.48616900  1
  O  O6  1  0.02216600  0.75715200  0.98616900  1
  O  O7  1  0.52216600  0.24284800  0.51383100  1
  O  O8  1  0.91720600  0.74072800  0.66237300  1
  O  O9  1  0.41720600  0.25927200  0.83762700  1
  O  O10  1  0.08279400  0.25927200  0.33762700  1
  O  O11  1  0.58279400  0.74072800  0.16237300  1
  O  O12  1  0.08063400  0.28472800  0.66140400  1
  O  O13  1  0.58063400  0.71527200  0.83859600  1
  O  O14  1  0.91936600  0.71527200  0.33859600  1
  O  O15  1  0.41936600  0.28472800  0.16140400  1
  O  O16  1  0.77645700  0.68745600  0.00869200  1
  O  O17  1  0.27645700  0.31254400  0.49130800  1
  O  O18  1  0.22354300  0.31254400  0.99130800  1
  O  O19  1  0.72354300  0.68745600  0.50869200  1
loop_
_geom_bond_atom_site_label_1
_geom_bond_atom_site_label_2
_geom_bond_distance
_geom_bond_site_symmetry_2
Co0 O0 2.026988 1_555
Co0 O7 2.084609 1_555
Co0 O5 2.111740 1_555
Co0 O19 2.166748 1_555
Co0 O13 2.207264 1_555
Co0 O9 2.231339 1_555
Co1 O1 2.026988 1_555
Co1 O6 2.084609 1_555
Co1 O4 2.111740 1_456
Co1 O18 2.166748 1_555
Co1 O12 2.207264 1_555
Co1 O8 2.231339 1_455
Co2 O2 2.026988 1_555
Co2 O5 2.084609 1_555
Co2 O7 2.111740 1_555
Co2 O17 2.166748 1_555
Co2 O15 2.207264 1_555
Co2 O11 2.231339 1_555
Co3 O3 2.026988 1_555
Co3 O4 2.084609 1_555
Co3 O6 2.111740 1_654
Co3 O16 2.166748 1_555
Co3 O14 2.207264 1_555
Co3 O10 2.231339 1_655
Bi0 O5 2.182046 1_545
Bi0 O7 2.270741 1_555
Bi0 O15 2.412756 1_555
Bi0 O11 2.444738 1_545
Bi0 O19 2.445679 1_545
Bi0 O3 2.681043 1_555
Bi1 O4 2.182046 1_465
Bi1 O6 2.270741 1_554
Bi1 O14 2.412756 1_455
Bi1 O10 2.444738 1_565
Bi1 O18 2.445679 1_564
Bi1 O2 2.681043 1_555
Bi2 O7 2.182046 1_565
Bi2 O5 2.270741 1_555
Bi2 O13 2.412756 1_555
Bi2 O9 2.444738 1_565
Bi2 O17 2.445679 1_565
Bi2 O1 2.681043 1_555
Bi3 O6 2.182046 1_645
Bi3 O4 2.270741 1_556
Bi3 O12 2.412756 1_655
Bi3 O8 2.444738 1_545
Bi3 O16 2.445679 1_546
Bi3 O0 2.681043 1_555
O0 P3 1.564477 1_545
O1 P2 1.564477 1_565
O2 P1 1.564477 1_565
O3 P0 1.564477 1_545
O8 P0 1.554437 1_555
O9 P1 1.554437 1_556
O10 P2 1.554437 1_555
O11 P3 1.554437 1_554
O12 P2 1.554955 1_555
O13 P3 1.554955 1_555
O14 P0 1.554955 1_555
O15 P1 1.554955 1_555
O16 P3 1.559009 1_554
O17 P2 1.559009 1_555
O18 P1 1.559009 1_556
O19 P0 1.559009 1_555
