# generated using pymatgen
data_Rb2CrF6
_symmetry_space_group_name_H-M   'P 1'
_cell_length_a   5.88705149
_cell_length_b   6.04156283
_cell_length_c   6.04582168
_cell_angle_alpha   58.29254281
_cell_angle_beta   60.81750721
_cell_angle_gamma   60.88994799
_symmetry_Int_Tables_number   1
_chemical_formula_structural   Rb2CrF6
_chemical_formula_sum   'Rb2 Cr1 F6'
_cell_volume   151.85108310
_cell_formula_units_Z   1
loop_
 _symmetry_equiv_pos_site_id
 _symmetry_equiv_pos_as_xyz
  1  'x, y, z'
loop_
 _atom_site_type_symbol
 _atom_site_label
 _atom_site_symmetry_multiplicity
 _atom_site_fract_x
 _atom_site_fract_y
 _atom_site_fract_z
 _atom_site_occupancy
  Rb  Rb0  1  0.75000000  0.75000000  0.75000000  1
  Rb  Rb1  1  0.25000000  0.25000000  0.25000000  1
  Cr  Cr0  1  -0.00000000  -0.00000000  0.00000000  1
  F  F0  1  0.21305623  0.78694377  0.78694377  1
  F  F1  1  0.21792473  0.78207527  0.21792473  1
  F  F2  1  0.78207527  0.21792473  0.78207527  1
  F  F3  1  0.78694377  0.21305623  0.21305623  1
  F  F4  1  0.78177813  0.78177813  0.21822187  1
  F  F5  1  0.21822187  0.21822187  0.78177813  1
loop_
_geom_bond_atom_site_label_1
_geom_bond_atom_site_label_2
_geom_bond_distance
_geom_bond_site_symmetry_2
Cr0 F4 1.815466 1_445
Cr0 F5 1.815466 1_554
Cr0 F2 1.815690 1_454
Cr0 F1 1.815690 1_545
Cr0 F0 1.867011 1_544
Cr0 F3 1.867011 1_455
F0 Rb1 2.961275 1_565
F0 Rb0 2.961275 1_555
F0 Rb0 2.961275 1_455
F0 Rb1 2.961275 1_556
F1 Rb0 3.032579 1_455
F1 Rb0 3.032579 1_554
F1 Rb1 3.032580 1_565
F1 Rb1 3.032580 1_555
F2 Rb1 3.032579 1_655
F2 Rb1 3.032579 1_556
F2 Rb0 3.032580 1_545
F2 Rb0 3.032580 1_555
F3 Rb0 2.961275 1_545
F3 Rb1 2.961275 1_555
F3 Rb1 2.961275 1_655
F3 Rb0 2.961275 1_554
F4 Rb0 3.034449 1_555
F4 Rb0 3.034449 1_554
F4 Rb1 3.034450 1_565
F4 Rb1 3.034450 1_655
F5 Rb1 3.034449 1_555
F5 Rb1 3.034449 1_556
F5 Rb0 3.034450 1_545
F5 Rb0 3.034450 1_455
