# generated using pymatgen
data_NaMgFe(SeO4)2
_symmetry_space_group_name_H-M   'P 1'
_cell_length_a   5.42274103
_cell_length_b   5.42274127
_cell_length_c   6.84439965
_cell_angle_alpha   92.40159880
_cell_angle_beta   92.40158545
_cell_angle_gamma   65.00174613
_symmetry_Int_Tables_number   1
_chemical_formula_structural   NaMgFe(SeO4)2
_chemical_formula_sum   'Na1 Mg1 Fe1 Se2 O8'
_cell_volume   182.18737640
_cell_formula_units_Z   1
loop_
 _symmetry_equiv_pos_site_id
 _symmetry_equiv_pos_as_xyz
  1  'x, y, z'
loop_
 _atom_site_type_symbol
 _atom_site_label
 _atom_site_symmetry_multiplicity
 _atom_site_fract_x
 _atom_site_fract_y
 _atom_site_fract_z
 _atom_site_occupancy
  Na  Na0  1  0.00715300  0.00715300  0.48809500  1
  Mg  Mg0  1  0.35953600  0.35953600  0.20140100  1
  Fe  Fe0  1  0.01497800  0.01497800  0.95973400  1
  Se  Se0  1  0.35442900  0.35442900  0.71868300  1
  Se  Se1  1  0.66337400  0.66337400  0.24671300  1
  O  O0  1  0.76040600  0.31811800  0.20955000  1
  O  O1  1  0.29735900  0.29735900  0.46938400  1
  O  O2  1  0.22940300  0.70191700  0.75036600  1
  O  O3  1  0.31811800  0.76040600  0.20954900  1
  O  O4  1  0.79130200  0.79130200  0.08317900  1
  O  O5  1  0.70191700  0.22940300  0.75036700  1
  O  O6  1  0.23048100  0.23048100  0.97030500  1
  O  O7  1  0.73404200  0.73404200  0.47045100  1
loop_
_geom_bond_atom_site_label_1
_geom_bond_atom_site_label_2
_geom_bond_distance
_geom_bond_site_symmetry_2
Na0 O2 2.407544 1_545
Na0 O5 2.407549 1_455
Na0 O7 2.495035 1_445
Na0 O0 2.533218 1_455
Na0 O3 2.533223 1_545
Na0 O1 2.663920 1_555
Mg0 O6 1.926071 1_554
Mg0 O1 1.947135 1_555
Mg0 O0 2.087406 1_555
Mg0 O3 2.087406 1_555
Fe0 O6 1.968916 1_555
Fe0 O5 2.134223 1_455
Fe0 O2 2.134227 1_545
Fe0 O4 2.252003 1_446
Fe0 O3 2.361310 1_546
Fe0 O0 2.361315 1_456
O0 Se1 1.727864 1_555
O1 Se0 1.759390 1_555
O2 Se0 1.719223 1_555
O3 Se1 1.727865 1_555
O4 Se1 1.658976 1_555
O5 Se0 1.719224 1_555
O6 Se0 2.108404 1_555
O7 Se1 1.632330 1_555
