# generated using pymatgen
data_Na5In3Ge(PO4)6
_symmetry_space_group_name_H-M   'P 1'
_cell_length_a   8.93977849
_cell_length_b   8.94748120
_cell_length_c   22.39818655
_cell_angle_alpha   89.97296180
_cell_angle_beta   89.99349960
_cell_angle_gamma   120.04209465
_symmetry_Int_Tables_number   1
_chemical_formula_structural   Na5In3Ge(PO4)6
_chemical_formula_sum   'Na15 In9 Ge3 P18 O72'
_cell_volume   1550.90996105
_cell_formula_units_Z   3
loop_
 _symmetry_equiv_pos_site_id
 _symmetry_equiv_pos_as_xyz
  1  'x, y, z'
loop_
 _atom_site_type_symbol
 _atom_site_label
 _atom_site_symmetry_multiplicity
 _atom_site_fract_x
 _atom_site_fract_y
 _atom_site_fract_z
 _atom_site_occupancy
  Na  Na0  1  0.63871202  0.00180752  0.25530174  1
  Na  Na1  1  0.36368055  0.36235970  0.25593458  1
  Na  Na2  1  0.99808432  0.63671344  0.25527684  1
  Na  Na3  1  0.64853816  0.64405203  0.75087113  1
  Na  Na4  1  0.99642430  0.35618613  0.75139923  1
  Na  Na5  1  0.03608123  0.70299372  0.57956326  1
  Na  Na6  1  0.66346447  0.96329207  0.57951342  1
  Na  Na7  1  0.66361025  0.70119235  0.07916049  1
  Na  Na8  1  0.03692577  0.33330574  0.07916053  1
  Na  Na9  1  0.01308613  0.01450625  0.49647760  1
  Na  Na10  1  0.01387523  0.99848871  0.99406357  1
  Na  Na11  1  0.65344172  0.31975002  0.83555918  1
  Na  Na12  1  0.66655530  0.33345149  0.34082993  1
  Na  Na13  1  0.33228301  0.68100103  0.16570818  1
  Na  Na14  1  0.33339854  0.66613144  0.66592478  1
  In  In0  1  0.99883380  0.99857160  0.35565325  1
  In  In1  1  0.00170840  0.00028940  0.85334835  1
  In  In2  1  0.00964486  0.00742352  0.65012521  1
  In  In3  1  0.00716505  0.99925825  0.14563522  1
  In  In4  1  0.65733733  0.32749917  0.68400095  1
  In  In5  1  0.66348345  0.32968015  0.18067478  1
  In  In6  1  0.33292406  0.67235874  0.01285270  1
  In  In7  1  0.33265383  0.65970876  0.51341006  1
  In  In8  1  0.33339714  0.66508666  0.32655012  1
  Ge  Ge0  1  0.66425553  0.33148981  0.97696744  1
  Ge  Ge1  1  0.66338555  0.33204932  0.48122176  1
  Ge  Ge2  1  0.33393101  0.67301319  0.82118509  1
  P  P0  1  0.29517717  0.99651892  0.25051214  1
  P  P1  1  0.70185755  0.70434134  0.24775284  1
  P  P2  1  0.00242430  0.29811386  0.24802033  1
  P  P3  1  0.29800078  0.30963409  0.75470704  1
  P  P4  1  0.01235673  0.70412132  0.75129424  1
  P  P5  1  0.69176458  0.99041332  0.75204255  1
  P  P6  1  0.95314716  0.33154548  0.58266218  1
  P  P7  1  0.37595081  0.04507364  0.57957383  1
  P  P8  1  0.66703058  0.62326413  0.58291263  1
  P  P9  1  0.95313585  0.62102631  0.07920104  1
  P  P10  1  0.66685471  0.04406211  0.07985083  1
  P  P11  1  0.37650445  0.33021542  0.07832265  1
  P  P12  1  0.62534704  0.65505736  0.91756577  1
  P  P13  1  0.02949500  0.37452344  0.91789720  1
  P  P14  1  0.34492770  0.96954024  0.91706498  1
  P  P15  1  0.63803295  0.98241255  0.42041231  1
  P  P16  1  0.34472422  0.36172065  0.41831984  1
  P  P17  1  0.01745929  0.65533880  0.42063996  1
  O  O0  1  0.21272048  0.03254642  0.30378647  1
  O  O1  1  0.82451483  0.79176589  0.29984806  1
  O  O2  1  0.96866397  0.17544480  0.29994330  1
  O  O3  1  0.21717354  0.19580049  0.80874754  1
  O  O4  1  0.96822437  0.78867883  0.80200357  1
  O  O5  1  0.81812226  0.02943429  0.80335647  1
  O  O6  1  0.76054983  0.94970512  0.69341600  1
  O  O7  1  0.18374443  0.23813503  0.69794207  1
  O  O8  1  0.04313827  0.80310037  0.69125891  1
  O  O9  1  0.77276712  0.80611158  0.18807924  1
  O  O10  1  0.03342554  0.22788072  0.18823911  1
  O  O11  1  0.18662521  0.95952965  0.19283596  1
  O  O12  1  0.88474829  0.36020943  0.64254874  1
  O  O13  1  0.48061364  0.11399158  0.63718251  1
  O  O14  1  0.64604498  0.53401510  0.64366353  1
  O  O15  1  0.88473028  0.52631870  0.13961335  1
  O  O16  1  0.64603878  0.11106725  0.14095517  1
  O  O17  1  0.47134320  0.35816384  0.13861391  1
  O  O18  1  0.47633495  0.31154142  0.02485292  1
  O  O19  1  0.82767187  0.52142260  0.02644039  1
  O  O20  1  0.69143917  0.16917773  0.02735525  1
  O  O21  1  0.47049642  0.16103175  0.52488918  1
  O  O22  1  0.69177868  0.52287696  0.53052184  1
  O  O23  1  0.82694827  0.30380195  0.52994332  1
  O  O24  1  0.55268411  0.68112241  0.97631674  1
  O  O25  1  0.12970376  0.44657490  0.97643995  1
  O  O26  1  0.31400722  0.86872430  0.97498353  1
  O  O27  1  0.55269401  0.87162714  0.47591010  1
  O  O28  1  0.31479407  0.45016023  0.47101009  1
  O  O29  1  0.12982098  0.68278596  0.47581301  1
  O  O30  1  0.09499953  0.62764990  0.36184558  1
  O  O31  1  0.53321184  0.90320237  0.36174852  1
  O  O32  1  0.37241843  0.46265505  0.35832484  1
  O  O33  1  0.12588082  0.49595383  0.86235963  1
  O  O34  1  0.37249124  0.87401257  0.86216781  1
  O  O35  1  0.50509636  0.63240804  0.86204798  1
  O  O36  1  -0.00805838  0.81172456  0.41635484  1
  O  O37  1  0.82012242  0.00736791  0.41630027  1
  O  O38  1  0.18895722  0.17929651  0.41501393  1
  O  O39  1  0.00374980  0.19337300  0.91121401  1
  O  O40  1  0.18983923  0.99537274  0.91001133  1
  O  O41  1  0.80684927  0.81114977  0.91099626  1
  O  O42  1  0.96094061  0.16205692  0.58443067  1
  O  O43  1  0.19351862  0.02458197  0.58252890  1
  O  O44  1  0.83657112  0.80399273  0.58326949  1
  O  O45  1  0.96138640  0.79804346  0.07965807  1
  O  O46  1  0.83590803  0.03278677  0.07944676  1
  O  O47  1  0.19303793  0.16991981  0.07893198  1
  O  O48  1  0.67252055  0.15169838  0.74720998  1
  O  O49  1  0.48463475  0.34400180  0.74832280  1
  O  O50  1  0.85326803  0.51776643  0.74743238  1
  O  O51  1  0.67875388  0.51997490  0.24529477  1
  O  O52  1  0.84062442  0.32059620  0.24591409  1
  O  O53  1  0.47878265  0.15897506  0.24623384  1
  O  O54  1  0.63409704  0.48350979  0.92080231  1
  O  O55  1  0.84879763  0.36540475  0.92168782  1
  O  O56  1  0.51639223  0.14973202  0.92136215  1
  O  O57  1  0.64867029  0.16160453  0.42607645  1
  O  O58  1  0.51508802  0.35517946  0.42600202  1
  O  O59  1  0.83881593  0.48606365  0.42740447  1
  O  O60  1  0.35701067  0.49385720  0.07524313  1
  O  O61  1  0.13222882  0.63569403  0.07556334  1
  O  O62  1  0.51184901  0.85822836  0.07640239  1
  O  O63  1  0.35299376  0.86069195  0.57542962  1
  O  O64  1  0.51214194  0.65379743  0.57779207  1
  O  O65  1  0.13228398  0.49518233  0.57699821  1
  O  O66  1  0.31469915  0.83398963  0.25709615  1
  O  O67  1  0.52170188  0.68894579  0.25498415  1
  O  O68  1  0.16621680  0.47932999  0.25514202  1
  O  O69  1  0.31075616  0.49337909  0.76240428  1
  O  O70  1  0.17662757  0.68525917  0.76200265  1
  O  O71  1  0.51345792  0.81889248  0.76224805  1
loop_
_geom_bond_atom_site_label_1
_geom_bond_atom_site_label_2
_geom_bond_distance
_geom_bond_site_symmetry_2
Na0 O67 2.449195 1_545
Na0 O53 2.464926 1_555
Na0 O52 2.506493 1_555
Na0 O66 2.508300 1_545
Na0 O31 2.552791 1_545
Na0 O16 2.730017 1_555
Na0 O2 2.743688 1_555
Na1 O51 2.449809 1_555
Na1 O32 2.450039 1_555
Na1 O68 2.462062 1_555
Na1 O53 2.508557 1_555
Na1 O67 2.530134 1_555
Na1 O0 2.772638 1_555
Na1 O17 2.805112 1_555
Na2 O52 2.457579 1_555
Na2 O66 2.475172 1_655
Na2 O51 2.511037 1_555
Na2 O68 2.522201 1_655
Na2 O30 2.554482 1_655
Na2 O1 2.735942 1_555
Na2 O15 2.777557 1_555
Na2 O11 2.874157 1_655
Na3 O49 2.327920 1_555
Na3 O71 2.421225 1_555
Na3 O50 2.589055 1_555
Na3 O14 2.591552 1_555
Na3 O69 2.631752 1_555
Na3 O6 2.718904 1_555
Na3 O4 2.730034 1_555
Na3 O35 2.778741 1_555
Na4 O50 2.363978 1_555
Na4 O69 2.451660 1_655
Na4 O48 2.537042 1_555
Na4 O70 2.563667 1_655
Na4 O12 2.641699 1_555
Na4 O7 2.669346 1_655
Na4 O33 2.763063 1_655
Na4 O5 2.787978 1_555
Na5 O44 2.370352 1_455
Na5 O65 2.408638 1_555
Na5 O63 2.454240 1_555
Na5 O43 2.491994 1_565
Na5 O29 2.507340 1_555
Na5 O8 2.647780 1_555
Na6 O42 2.347752 1_565
Na6 O64 2.397746 1_555
Na6 O63 2.450234 1_555
Na6 O27 2.495445 1_555
Na6 O44 2.577202 1_555
Na6 O6 2.717094 1_555
Na6 O23 2.861666 1_565
Na6 O13 2.892531 1_565
Na7 O45 2.351131 1_555
Na7 O62 2.393193 1_555
Na7 O60 2.422987 1_555
Na7 O24 2.478791 1_554
Na7 O46 2.568950 1_565
Na7 O9 2.621174 1_555
Na8 O46 2.370932 1_455
Na8 O61 2.396751 1_555
Na8 O47 2.475421 1_555
Na8 O60 2.478591 1_555
Na8 O25 2.482788 1_554
Na8 O10 2.613057 1_555
Na9 O38 2.377171 1_555
Na9 O37 2.468881 1_455
Na9 O43 2.485979 1_555
Na9 O36 2.491601 1_545
Na9 O42 2.541572 1_455
Na9 O44 2.614722 1_445
Na10 O40 2.462295 1_555
Na10 O47 2.464772 1_566
Na10 O45 2.503233 1_456
Na10 O41 2.567917 1_455
Na10 O39 2.578243 1_565
Na10 O46 2.602216 1_466
Na11 O56 2.374702 1_555
Na11 O54 2.465462 1_555
Na11 O55 2.495121 1_555
Na11 O48 2.542722 1_555
Na11 O49 2.543713 1_555
Na11 O50 2.655814 1_555
Na12 O58 2.402916 1_555
Na12 O57 2.405506 1_555
Na12 O59 2.427741 1_555
Na12 O53 2.669122 1_555
Na12 O52 2.670792 1_555
Na12 O51 2.681477 1_555
Na13 O66 2.511259 1_555
Na13 O62 2.557367 1_555
Na13 O61 2.591372 1_555
Na13 O67 2.598343 1_555
Na13 O68 2.605056 1_555
Na13 O60 2.707791 1_555
Na14 O64 2.576496 1_555
Na14 O69 2.604497 1_555
Na14 O65 2.605663 1_555
Na14 O63 2.619322 1_555
Na14 O70 2.619979 1_555
Na14 O71 2.629560 1_555
In0 O0 2.124923 1_665
In0 O38 2.126509 1_665
In0 O37 2.128230 1_565
In0 O1 2.128419 1_555
In0 O36 2.131190 1_655
In0 O2 2.135386 1_565
In1 O3 2.095817 1_555
In1 O4 2.105164 1_445
In1 O5 2.108095 1_455
In1 O40 2.125041 1_545
In1 O41 2.147414 1_445
In1 O39 2.152990 1_555
In2 O7 2.148548 1_555
In2 O43 2.182762 1_555
In2 O8 2.197109 1_545
In2 O42 2.206900 1_455
In2 O6 2.239046 1_445
In2 O44 2.265534 1_445
In3 O11 2.094992 1_555
In3 O9 2.157173 1_455
In3 O10 2.161300 1_565
In3 O47 2.186702 1_565
In3 O45 2.203976 1_455
In3 O46 2.256489 1_465
In4 O13 2.055584 1_555
In4 O14 2.103818 1_555
In4 O12 2.117626 1_555
In4 O48 2.169975 1_555
In4 O49 2.170035 1_555
In4 O50 2.236494 1_555
In5 O16 2.082812 1_555
In5 O17 2.083604 1_555
In5 O15 2.089777 1_555
In5 O53 2.165098 1_555
In5 O52 2.186073 1_555
In5 O51 2.186825 1_555
In6 O26 2.032521 1_554
In6 O25 2.091403 1_554
In6 O24 2.093044 1_554
In6 O62 2.165552 1_555
In6 O61 2.170078 1_555
In6 O60 2.211865 1_555
In7 O28 2.035862 1_555
In7 O29 2.101151 1_555
In7 O27 2.105661 1_555
In7 O64 2.177705 1_555
In7 O65 2.182059 1_555
In7 O63 2.207170 1_555
In8 O32 2.130803 1_555
In8 O31 2.131403 1_555
In8 O30 2.136319 1_555
In8 O66 2.232182 1_555
In8 O68 2.251688 1_555
In8 O67 2.255681 1_555
Ge0 O18 1.924496 1_556
Ge0 O19 1.940738 1_556
Ge0 O56 1.947587 1_555
Ge0 O20 1.947770 1_556
Ge0 O55 1.960810 1_555
Ge0 O54 1.967493 1_555
Ge1 O58 1.898688 1_555
Ge1 O21 1.904679 1_555
Ge1 O59 1.909361 1_555
Ge1 O57 1.915629 1_555
Ge1 O23 1.939837 1_555
Ge1 O22 1.940866 1_555
Ge2 O34 1.891218 1_555
Ge2 O33 1.966611 1_555
Ge2 O35 1.966669 1_555
Ge2 O70 1.975169 1_555
Ge2 O71 1.980529 1_555
Ge2 O69 2.007059 1_555
O0 P0 1.519613 1_545
O1 P1 1.522529 1_555
O2 P2 1.521620 1_655
O3 P3 1.512064 1_555
O4 P4 1.522394 1_655
O5 P5 1.524689 1_545
O6 P5 1.568323 1_555
O7 P3 1.554317 1_555
O8 P4 1.556594 1_555
O9 P1 1.561459 1_555
O10 P2 1.561953 1_555
O11 P0 1.548945 1_555
O12 P6 1.547920 1_555
O13 P7 1.531008 1_555
O14 P8 1.540561 1_555
O15 P9 1.550116 1_555
O16 P10 1.542603 1_555
O17 P11 1.547021 1_555
O18 P11 1.551762 1_555
O19 P9 1.564999 1_555
O20 P10 1.560892 1_555
O21 P7 1.552933 1_555
O22 P8 1.559696 1_555
O23 P6 1.564898 1_555
O24 P12 1.536156 1_555
O25 P13 1.536335 1_555
O26 P14 1.523864 1_555
O27 P15 1.533365 1_555
O28 P16 1.517685 1_555
O29 P17 1.532978 1_555
O30 P17 1.564654 1_555
O31 P15 1.563038 1_555
O32 P16 1.567656 1_555
O33 P13 1.591045 1_555
O34 P14 1.585876 1_555
O35 P12 1.589157 1_555
O36 P17 1.529269 1_555
O37 P15 1.531081 1_545
O38 P16 1.527455 1_555
O39 P13 1.526177 1_555
O40 P14 1.523656 1_555
O41 P12 1.528313 1_555
O42 P6 1.553035 1_555
O43 P7 1.548678 1_555
O44 P8 1.567852 1_555
O45 P9 1.548288 1_555
O46 P10 1.564272 1_555
O47 P11 1.546590 1_555
O48 P5 1.540219 1_545
O49 P3 1.544337 1_555
O50 P4 1.560821 1_655
O51 P1 1.557518 1_555
O52 P2 1.557649 1_655
O53 P0 1.557928 1_545
O54 P12 1.577170 1_555
O55 P13 1.578404 1_655
O56 P14 1.576061 1_545
O57 P15 1.563105 1_545
O58 P16 1.562660 1_555
O59 P17 1.563729 1_655
O60 P11 1.560241 1_555
O61 P9 1.541688 1_455
O62 P10 1.544026 1_565
O63 P7 1.559985 1_565
O64 P8 1.543981 1_555
O65 P6 1.541582 1_455
O66 P0 1.555926 1_555
O67 P1 1.554628 1_555
O68 P2 1.556157 1_555
O69 P3 1.599439 1_555
O70 P4 1.578238 1_555
O71 P5 1.580683 1_555
