# generated using pymatgen
data_Na6Ca8Nb16Si15(S7O48)3
_symmetry_space_group_name_H-M   'P 1'
_cell_length_a   17.97868028
_cell_length_b   8.98926323
_cell_length_c   23.41409643
_cell_angle_alpha   89.94324943
_cell_angle_beta   89.77284202
_cell_angle_gamma   119.96554938
_symmetry_Int_Tables_number   1
_chemical_formula_structural   Na6Ca8Nb16Si15(S7O48)3
_chemical_formula_sum   'Na6 Ca8 Nb16 Si15 S21 O144'
_cell_volume   3278.19387311
_cell_formula_units_Z   1
loop_
 _symmetry_equiv_pos_site_id
 _symmetry_equiv_pos_as_xyz
  1  'x, y, z'
loop_
 _atom_site_type_symbol
 _atom_site_label
 _atom_site_symmetry_multiplicity
 _atom_site_fract_x
 _atom_site_fract_y
 _atom_site_fract_z
 _atom_site_occupancy
  Na  Na0  1  0.99765127  0.99544736  0.49895254  1
  Na  Na1  1  0.49836316  0.00075080  0.00135020  1
  Na  Na2  1  0.33076197  0.32900571  0.84094343  1
  Na  Na3  1  0.83633220  0.33028579  0.84029204  1
  Na  Na4  1  0.33716101  0.34270378  0.33901564  1
  Na  Na5  1  0.83243139  0.34318659  0.33853668  1
  Ca  Ca0  1  0.99826311  0.99474669  0.34916249  1
  Ca  Ca1  1  0.50118288  0.99659120  0.85188644  1
  Ca  Ca2  1  0.99695839  0.99400516  0.65159056  1
  Ca  Ca3  1  0.49721222  0.00007140  0.15178159  1
  Ca  Ca4  1  0.32781562  0.32567394  0.97809034  1
  Ca  Ca5  1  0.84010179  0.33198991  0.97866059  1
  Ca  Ca6  1  0.34134411  0.35014917  0.47805743  1
  Ca  Ca7  1  0.82844572  0.33215393  0.47758138  1
  Nb  Nb0  1  0.49555732  0.99659821  0.35721395  1
  Nb  Nb1  1  0.99423422  0.99120279  0.85874925  1
  Nb  Nb2  1  0.50506398  0.99627275  0.64870321  1
  Nb  Nb3  1  0.99566062  -0.00010113  0.15244335  1
  Nb  Nb4  1  0.33130837  0.34140386  0.68424777  1
  Nb  Nb5  1  0.83838175  0.34280166  0.69332834  1
  Nb  Nb6  1  0.33565220  0.33531364  0.19308523  1
  Nb  Nb7  1  0.83196059  0.32439810  0.18787930  1
  Nb  Nb8  1  0.15943655  0.66272288  0.01936651  1
  Nb  Nb9  1  0.66976493  0.67400010  0.02661921  1
  Nb  Nb10  1  0.16875738  0.66535956  0.52407603  1
  Nb  Nb11  1  0.66079124  0.65567322  0.51531170  1
  Nb  Nb12  1  0.16253284  0.66447463  0.30243338  1
  Nb  Nb13  1  0.66409659  0.65057223  0.30875514  1
  Nb  Nb14  1  0.16212612  0.66941674  0.81326511  1
  Nb  Nb15  1  0.66265681  0.66244851  0.80370909  1
  Si  Si0  1  0.14319821  0.00347708  0.24953454  1
  Si  Si1  1  0.35677929  0.71202380  0.25123232  1
  Si  Si2  1  0.85240792  0.70259020  0.25099923  1
  Si  Si3  1  0.99618200  0.28456623  0.25154420  1
  Si  Si4  1  0.50003988  0.28370027  0.24971342  1
  Si  Si5  1  0.64455771  0.28662695  0.75008221  1
  Si  Si6  1  0.00268603  0.71925489  0.75040514  1
  Si  Si7  1  0.49527038  0.70423625  0.75121712  1
  Si  Si8  1  0.85698385  0.00200739  0.75144215  1
  Si  Si9  1  0.33596693  0.63413110  0.58283182  1
  Si  Si10  1  0.83771611  0.04686694  0.08311537  1
  Si  Si11  1  0.02272156  0.37583474  0.91439755  1
  Si  Si12  1  0.16617782  0.95598778  0.91452630  1
  Si  Si13  1  0.66566286  0.37360898  0.41232870  1
  Si  Si14  1  0.52420849  0.66980605  0.41115879  1
  S  S0  1  0.64749790  0.00137008  0.25261677  1
  S  S1  1  0.14883229  0.29478531  0.75227467  1
  S  S2  1  0.35285150  0.00200953  0.74791411  1
  S  S3  1  0.47995307  0.33135828  0.58514621  1
  S  S4  1  0.98031504  0.33784676  0.58146795  1
  S  S5  1  0.18846246  0.04028502  0.58055565  1
  S  S6  1  0.68841913  0.03842731  0.58541378  1
  S  S7  1  0.83023533  0.62375206  0.58186249  1
  S  S8  1  0.48017559  0.62399783  0.08136592  1
  S  S9  1  0.97993143  0.62861522  0.08474218  1
  S  S10  1  0.33046160  0.03627297  0.08139919  1
  S  S11  1  0.18649780  0.33529208  0.08527852  1
  S  S12  1  0.68738350  0.33448543  0.08006190  1
  S  S13  1  0.30768558  0.67138657  0.91782535  1
  S  S14  1  0.80531201  0.66795972  0.91485888  1
  S  S15  1  0.52864616  0.38965147  0.91749332  1
  S  S16  1  0.66465266  0.94131272  0.91750328  1
  S  S17  1  0.30587692  0.94229915  0.41468457  1
  S  S18  1  0.80885892  0.94657270  0.41737127  1
  S  S19  1  0.16430319  0.38608098  0.41721637  1
  S  S20  1  0.02883737  0.66888709  0.41746948  1
  O  O0  1  0.12078587  0.05926240  0.30747534  1
  O  O1  1  0.60635033  0.03477675  0.30218499  1
  O  O2  1  0.41875132  0.80353678  0.30731635  1
  O  O3  1  0.90792442  0.75143771  0.30673276  1
  O  O4  1  0.48316424  0.15920239  0.30614052  1
  O  O5  1  0.96945049  0.18216482  0.30881173  1
  O  O6  1  0.10889396  0.18168123  0.80199502  1
  O  O7  1  0.61709123  0.18005959  0.80682598  1
  O  O8  1  0.46633903  0.75664987  0.80687400  1
  O  O9  1  0.98439525  0.80767809  0.80655428  1
  O  O10  1  0.40326473  0.04549117  0.79947106  1
  O  O11  1  0.91889553  0.03337252  0.80754539  1
  O  O12  1  0.39696175  0.97757877  0.69786638  1
  O  O13  1  0.88360435  0.95796749  0.69346105  1
  O  O14  1  0.10148797  0.23524480  0.69957216  1
  O  O15  1  0.58213451  0.19313139  0.69450431  1
  O  O16  1  0.02585724  0.81722007  0.69253553  1
  O  O17  1  0.51180702  0.83138935  0.69529469  1
  O  O18  1  0.38358237  0.80899066  0.19321836  1
  O  O19  1  0.90379681  0.83144920  0.19563336  1
  O  O20  1  0.01345611  0.19561420  0.19543724  1
  O  O21  1  0.52388808  0.23176219  0.19215609  1
  O  O22  1  0.08326400  0.97102202  0.19370245  1
  O  O23  1  0.60052184  0.96839979  0.19986472  1
  O  O24  1  0.43426659  0.35785470  0.63539103  1
  O  O25  1  0.94037891  0.36520204  0.63393392  1
  O  O26  1  0.24237091  0.12032151  0.63328094  1
  O  O27  1  0.74308223  0.12509082  0.63578513  1
  O  O28  1  0.31720047  0.49633472  0.63904991  1
  O  O29  1  0.82083953  0.51635278  0.63416693  1
  O  O30  1  0.44110733  0.51671663  0.13347576  1
  O  O31  1  0.93775137  0.51294605  0.13462277  1
  O  O32  1  0.31939319  0.12075119  0.13332230  1
  O  O33  1  0.81719787  0.13803645  0.13854158  1
  O  O34  1  0.24488102  0.36532496  0.13491493  1
  O  O35  1  0.74010675  0.36567929  0.13210015  1
  O  O36  1  0.22084940  0.30353180  0.03349351  1
  O  O37  1  0.72859490  0.31981310  0.02889220  1
  O  O38  1  0.43000751  0.54560200  0.03060887  1
  O  O39  1  0.93095305  0.56269735  0.03280375  1
  O  O40  1  0.34159812  0.13944133  0.03060889  1
  O  O41  1  0.85260966  0.14726353  0.02612745  1
  O  O42  1  0.23042958  0.14102094  0.53006952  1
  O  O43  1  0.71895158  0.13869484  0.53415261  1
  O  O44  1  0.35676281  0.56050196  0.52910164  1
  O  O45  1  0.84145236  0.54227562  0.53153362  1
  O  O46  1  0.43024662  0.29546299  0.53385506  1
  O  O47  1  0.92932079  0.31435600  0.53117048  1
  O  O48  1  0.25931106  0.67852361  0.97051142  1
  O  O49  1  0.76557879  0.69010237  0.96823643  1
  O  O50  1  0.08159728  0.47435097  0.97321140  1
  O  O51  1  0.58101814  0.48352975  0.96897009  1
  O  O52  1  0.15430673  0.83022794  0.97199077  1
  O  O53  1  0.66227076  0.83847176  0.97056108  1
  O  O54  1  0.26485641  0.84015295  0.46872238  1
  O  O55  1  0.75883864  0.83840582  0.47166609  1
  O  O56  1  0.16314431  0.48737007  0.47115358  1
  O  O57  1  0.65379485  0.47604156  0.47140039  1
  O  O58  1  0.08184892  0.67678840  0.46958719  1
  O  O59  1  0.58220757  0.68824454  0.47260313  1
  O  O60  1  0.07463754  0.66064919  0.36518639  1
  O  O61  1  0.58545213  0.67119461  0.36037306  1
  O  O62  1  0.25299851  0.85175376  0.36479170  1
  O  O63  1  0.76010406  0.86168451  0.36609347  1
  O  O64  1  0.16897144  0.48906671  0.36670762  1
  O  O65  1  0.67592045  0.50147972  0.35942371  1
  O  O66  1  0.08306843  0.49789043  0.86095527  1
  O  O67  1  0.57443514  0.48942644  0.86444408  1
  O  O68  1  0.17583327  0.84800506  0.86010715  1
  O  O69  1  0.66871587  0.84805979  0.86629081  1
  O  O70  1  0.25932765  0.65988304  0.86517659  1
  O  O71  1  0.75327085  0.65442108  0.86442390  1
  O  O72  1  0.02382042  0.82551979  0.41969859  1
  O  O73  1  0.52031338  0.84831108  0.40352153  1
  O  O74  1  0.39107035  0.95110240  0.41052015  1
  O  O75  1  0.89163537  0.95382362  0.42090757  1
  O  O76  1  0.08507406  0.22238556  0.42128497  1
  O  O77  1  0.57562368  0.19248198  0.40384499  1
  O  O78  1  0.02070510  0.19269966  0.90339412  1
  O  O79  1  0.52142473  0.22041376  0.91723812  1
  O  O80  1  0.07636601  0.95800271  0.90354931  1
  O  O81  1  0.58506010  0.94753837  0.92024639  1
  O  O82  1  0.39074654  0.83002393  0.91883418  1
  O  O83  1  0.89143853  0.83060253  0.91006485  1
  O  O84  1  0.49266883  0.18487459  0.59953144  1
  O  O85  1  0.99930886  0.19949398  0.58815037  1
  O  O86  1  0.10250980  0.01377097  0.58752507  1
  O  O87  1  0.59851434  0.01493320  0.59708350  1
  O  O88  1  0.41137210  0.82334111  0.60409375  1
  O  O89  1  0.90411123  0.79701493  0.58669362  1
  O  O90  1  0.49927280  0.79985527  0.08748989  1
  O  O91  1  0.99586010  0.80249804  0.09638242  1
  O  O92  1  0.40358583  0.00845278  0.08588321  1
  O  O93  1  0.91428099  0.00816923  0.09982019  1
  O  O94  1  0.09997954  0.18716370  0.09689793  1
  O  O95  1  0.60071827  0.19152539  0.08598372  1
  O  O96  1  0.33733580  0.14899929  0.73381882  1
  O  O97  1  0.84309746  0.17397036  0.74079491  1
  O  O98  1  0.23776664  0.30723919  0.74396638  1
  O  O99  1  0.74126972  0.32262138  0.72933297  1
  O  O100  1  0.41704230  0.50689963  0.73103326  1
  O  O101  1  0.91581102  0.52030818  0.74143970  1
  O  O102  1  0.34254656  0.51232946  0.24169731  1
  O  O103  1  0.83355825  0.51008150  0.22795115  1
  O  O104  1  0.41325543  0.30851677  0.24023798  1
  O  O105  1  0.91772877  0.32526815  0.23261647  1
  O  O106  1  0.24130163  0.16013115  0.22921305  1
  O  O107  1  0.73597314  0.16431146  0.24585817  1
  O  O108  1  0.31434264  0.51625364  0.92028004  1
  O  O109  1  0.81640080  0.52004832  0.91798229  1
  O  O110  1  0.44543847  0.38170009  0.91850588  1
  O  O111  1  0.93314874  0.36696850  0.91093009  1
  O  O112  1  0.24946363  0.13887775  0.91301884  1
  O  O113  1  0.74159729  0.10967236  0.91854580  1
  O  O114  1  0.31581636  0.11185986  0.41895653  1
  O  O115  1  0.81468916  0.11320143  0.42228010  1
  O  O116  1  0.24183337  0.37351259  0.41958255  1
  O  O117  1  0.74857031  0.35638404  0.41400928  1
  O  O118  1  0.43339786  0.50080230  0.41134228  1
  O  O119  1  0.94601261  0.51114325  0.41976685  1
  O  O120  1  0.17843955  0.49395723  0.07682652  1
  O  O121  1  0.68022141  0.49925134  0.07181386  1
  O  O122  1  0.06741924  0.64037700  0.07669774  1
  O  O123  1  0.56855154  0.63303045  0.07325001  1
  O  O124  1  0.24901945  0.86169137  0.07385217  1
  O  O125  1  0.74831684  0.84849091  0.07210039  1
  O  O126  1  0.18180945  0.86438492  0.57349015  1
  O  O127  1  0.67670342  0.86354019  0.57897273  1
  O  O128  1  0.24754204  0.64844012  0.57243980  1
  O  O129  1  0.74905626  0.63426940  0.57531117  1
  O  O130  1  0.06799218  0.50474205  0.57345865  1
  O  O131  1  0.56610025  0.49050887  0.57892864  1
  O  O132  1  0.15807567  0.83490548  0.25931577  1
  O  O133  1  0.66487802  0.86056408  0.26433688  1
  O  O134  1  0.26005821  0.67527254  0.27156732  1
  O  O135  1  0.75927138  0.69290294  0.25836405  1
  O  O136  1  0.08165428  0.47925766  0.25940922  1
  O  O137  1  0.57566586  0.48039928  0.26615424  1
  O  O138  1  0.16843258  0.47281211  0.76404891  1
  O  O139  1  0.65828228  0.48276611  0.75957804  1
  O  O140  1  0.07947105  0.67422213  0.76691263  1
  O  O141  1  0.58083645  0.68369432  0.75920954  1
  O  O142  1  0.26751705  0.84443461  0.75489020  1
  O  O143  1  0.75987400  0.84555166  0.77169973  1
loop_
_geom_bond_atom_site_label_1
_geom_bond_atom_site_label_2
_geom_bond_distance
_geom_bond_site_symmetry_2
Na0 O75 2.535487 1_555
Na0 O76 2.589589 1_665
Na0 O72 2.591290 1_655
Na0 O89 2.683123 1_555
Na0 O86 2.757443 1_665
Na0 O85 2.771378 1_565
Na1 O82 2.626941 1_544
Na1 O92 2.630053 1_555
Na1 O81 2.643403 1_544
Na1 O79 2.667869 1_554
Na1 O95 2.671564 1_555
Na1 O90 2.711442 1_545
Na2 O112 2.320474 1_555
Na2 O110 2.613230 1_555
Na2 O108 2.620925 1_555
Na2 O98 2.773732 1_555
Na3 O111 2.307497 1_555
Na3 O113 2.604760 1_555
Na3 O109 2.637951 1_555
Na3 O97 2.755257 1_555
Na3 O101 2.800782 1_555
Na4 O118 2.335130 1_555
Na4 O116 2.649925 1_555
Na4 O114 2.673558 1_555
Na4 O102 2.714851 1_555
Na4 O104 2.776939 1_555
Na5 O117 2.359653 1_555
Na5 O119 2.650169 1_555
Na5 O115 2.747501 1_555
Na5 O107 2.748258 1_555
Na5 O105 2.957294 1_555
Na5 O103 2.986133 1_555
Ca0 O0 2.201594 1_665
Ca0 O5 2.207231 1_565
Ca0 O3 2.208404 1_555
Ca0 O75 2.429190 1_555
Ca0 O72 2.439699 1_655
Ca0 O76 2.512420 1_665
Ca1 O7 2.172916 1_565
Ca1 O8 2.194393 1_555
Ca1 O10 2.363818 1_565
Ca1 O82 2.375318 1_555
Ca1 O81 2.390059 1_555
Ca1 O79 2.408529 1_565
Ca2 O16 2.130782 1_655
Ca2 O13 2.131509 1_555
Ca2 O89 2.302967 1_555
Ca2 O14 2.333883 1_665
Ca2 O86 2.350089 1_665
Ca2 O85 2.352954 1_565
Ca3 O21 2.114496 1_555
Ca3 O18 2.130910 1_545
Ca3 O23 2.311397 1_545
Ca3 O92 2.316648 1_555
Ca3 O95 2.360302 1_555
Ca3 O90 2.361820 1_545
Ca4 O112 2.187332 1_555
Ca4 O40 2.188338 1_556
Ca4 O36 2.240105 1_556
Ca4 O38 2.278247 1_556
Ca4 O108 2.288743 1_555
Ca4 O110 2.362891 1_555
Ca5 O41 2.101085 1_556
Ca5 O111 2.205623 1_555
Ca5 O37 2.275105 1_556
Ca5 O39 2.283366 1_556
Ca5 O113 2.366681 1_555
Ca5 O109 2.403641 1_555
Ca6 O44 2.136417 1_555
Ca6 O118 2.179330 1_555
Ca6 O42 2.285815 1_555
Ca6 O46 2.302910 1_555
Ca6 O116 2.348111 1_555
Ca6 O114 2.396396 1_555
Ca7 O117 2.157324 1_555
Ca7 O45 2.187240 1_555
Ca7 O115 2.265602 1_555
Ca7 O47 2.279610 1_555
Ca7 O43 2.282302 1_555
Ca7 O119 2.337652 1_555
Nb0 O73 1.934993 1_555
Nb0 O77 1.961883 1_565
Nb0 O2 1.976479 1_555
Nb0 O4 1.984996 1_565
Nb0 O74 2.113500 1_555
Nb0 O1 2.245323 1_565
Nb1 O78 1.935612 1_665
Nb1 O80 1.954910 1_655
Nb1 O11 1.985089 1_565
Nb1 O9 1.990146 1_555
Nb1 O83 2.063261 1_555
Nb1 O6 2.322696 1_665
Nb2 O17 1.891813 1_555
Nb2 O88 1.935528 1_555
Nb2 O15 1.941028 1_565
Nb2 O87 2.003414 1_565
Nb2 O84 2.150610 1_565
Nb2 O12 2.187748 1_555
Nb3 O19 1.878492 1_545
Nb3 O20 1.911744 1_655
Nb3 O93 1.946044 1_555
Nb3 O22 1.975148 1_645
Nb3 O94 2.205707 1_655
Nb3 O91 2.209687 1_545
Nb4 O28 1.864405 1_555
Nb4 O100 1.874825 1_555
Nb4 O98 2.083818 1_555
Nb4 O24 2.113358 1_555
Nb4 O96 2.129451 1_555
Nb4 O26 2.185362 1_555
Nb5 O99 1.861060 1_555
Nb5 O101 1.884141 1_555
Nb5 O97 1.916150 1_555
Nb5 O29 2.223259 1_555
Nb5 O25 2.224316 1_555
Nb5 O27 2.292343 1_555
Nb6 O106 1.841290 1_555
Nb6 O104 1.889693 1_555
Nb6 O102 1.910656 1_555
Nb6 O34 2.246729 1_555
Nb6 O30 2.255605 1_555
Nb6 O32 2.282313 1_555
Nb7 O105 1.864353 1_555
Nb7 O103 1.903323 1_555
Nb7 O33 1.942549 1_555
Nb7 O107 2.094902 1_555
Nb7 O31 2.191304 1_555
Nb7 O35 2.280103 1_555
Nb8 O50 1.908412 1_554
Nb8 O52 1.908525 1_554
Nb8 O122 2.056463 1_555
Nb8 O48 2.069182 1_554
Nb8 O124 2.136269 1_555
Nb8 O120 2.178452 1_555
Nb9 O125 1.841513 1_555
Nb9 O121 1.978891 1_555
Nb9 O123 1.988198 1_555
Nb9 O53 2.030615 1_554
Nb9 O49 2.142152 1_554
Nb9 O51 2.142884 1_554
Nb10 O128 1.881315 1_555
Nb10 O56 1.987268 1_555
Nb10 O130 2.017592 1_555
Nb10 O126 2.044846 1_555
Nb10 O58 2.062898 1_555
Nb10 O54 2.097619 1_555
Nb11 O57 1.865945 1_555
Nb11 O59 1.872336 1_555
Nb11 O55 1.984876 1_555
Nb11 O131 2.184455 1_555
Nb11 O129 2.202485 1_555
Nb11 O127 2.295665 1_555
Nb12 O134 1.850905 1_555
Nb12 O132 1.868963 1_555
Nb12 O136 1.870223 1_555
Nb12 O60 2.141123 1_555
Nb12 O62 2.213533 1_555
Nb12 O64 2.223391 1_555
Nb13 O137 1.857080 1_555
Nb13 O65 1.879445 1_555
Nb13 O61 1.934674 1_555
Nb13 O135 1.948706 1_555
Nb13 O133 2.148170 1_555
Nb13 O63 2.265909 1_555
Nb14 O66 1.854519 1_555
Nb14 O68 1.857762 1_555
Nb14 O140 1.861410 1_555
Nb14 O138 2.160417 1_555
Nb14 O70 2.169075 1_555
Nb14 O142 2.220551 1_555
Nb15 O143 1.854487 1_555
Nb15 O139 1.886752 1_555
Nb15 O141 1.891661 1_555
Nb15 O67 2.114339 1_555
Nb15 O69 2.183441 1_555
Nb15 O71 2.194478 1_555
O0 Si0 1.566254 1_555
O1 S0 1.483321 1_555
O2 Si1 1.655485 1_555
O3 Si2 1.570217 1_555
O4 Si4 1.656736 1_555
O5 Si3 1.557804 1_555
O6 S1 1.471838 1_555
O7 Si5 1.564112 1_555
O8 Si7 1.559301 1_555
O9 Si6 1.651691 1_655
O10 S2 1.444720 1_555
O11 Si8 1.656154 1_555
O12 S2 1.489107 1_565
O13 Si8 1.553700 1_565
O14 S1 1.445072 1_555
O15 Si5 1.652510 1_555
O16 Si6 1.552956 1_555
O17 Si7 1.662469 1_555
O18 Si1 1.552407 1_555
O19 Si2 1.671619 1_555
O20 Si3 1.645765 1_455
O21 Si4 1.553905 1_555
O22 Si0 1.628807 1_565
O23 S0 1.444180 1_565
O24 S3 1.517806 1_555
O25 S4 1.501680 1_555
O26 S5 1.515150 1_555
O27 S6 1.486579 1_555
O28 Si9 1.719469 1_555
O29 S7 1.514433 1_555
O30 S8 1.492061 1_555
O31 S9 1.491013 1_555
O32 S10 1.498385 1_555
O33 Si10 1.670995 1_555
O34 S11 1.500853 1_555
O35 S12 1.485266 1_555
O36 S11 1.450510 1_555
O37 S12 1.446613 1_555
O38 S8 1.448350 1_555
O39 S9 1.447092 1_555
O40 S10 1.457678 1_555
O41 Si10 1.555628 1_555
O42 S5 1.447378 1_555
O43 S6 1.432712 1_555
O44 Si9 1.551019 1_555
O45 S7 1.453655 1_555
O46 S3 1.437430 1_555
O47 S4 1.444885 1_555
O48 S13 1.526323 1_555
O49 S14 1.499113 1_555
O50 Si11 1.696639 1_555
O51 S15 1.506215 1_555
O52 Si12 1.699280 1_555
O53 S16 1.535426 1_555
O54 S17 1.517134 1_555
O55 S18 1.576474 1_555
O56 S19 1.563772 1_555
O57 Si13 1.732868 1_555
O58 S20 1.531103 1_555
O59 Si14 1.739040 1_555
O60 S20 1.495054 1_555
O61 Si14 1.613182 1_555
O62 S17 1.472642 1_555
O63 S18 1.460858 1_555
O64 S19 1.477192 1_555
O65 Si13 1.635028 1_555
O66 Si11 1.656523 1_555
O67 S15 1.508989 1_555
O68 Si12 1.662802 1_555
O69 S16 1.486048 1_555
O70 S13 1.484963 1_555
O71 S14 1.476487 1_555
O72 S20 1.456137 1_555
O73 Si14 1.650302 1_555
O74 S17 1.496492 1_555
O75 S18 1.459440 1_555
O76 S19 1.451957 1_555
O77 Si13 1.637433 1_555
O78 Si11 1.648976 1_555
O79 S15 1.460831 1_555
O80 Si12 1.645033 1_555
O81 S16 1.460893 1_555
O82 S13 1.461911 1_555
O83 S14 1.511490 1_555
O84 S3 1.483264 1_555
O85 S4 1.453324 1_555
O86 S5 1.449631 1_555
O87 S6 1.545083 1_555
O88 Si9 1.637754 1_555
O89 S7 1.462101 1_555
O90 S8 1.447792 1_555
O91 S9 1.467585 1_555
O92 S10 1.459938 1_555
O93 Si10 1.628247 1_555
O94 S11 1.481036 1_555
O95 S12 1.447806 1_555
O96 S2 1.516811 1_555
O97 Si8 1.702732 1_555
O98 S1 1.557435 1_555
O99 Si5 1.671815 1_555
O100 Si7 1.691981 1_555
O101 Si6 1.701437 1_655
O102 Si1 1.697087 1_555
O103 Si2 1.678748 1_555
O104 Si4 1.698170 1_555
O105 Si3 1.685203 1_555
O106 Si0 1.682610 1_555
O107 S0 1.539729 1_555
O108 S13 1.459099 1_555
O109 S14 1.441419 1_555
O110 S15 1.461670 1_555
O111 Si11 1.574537 1_655
O112 Si12 1.576875 1_545
O113 S16 1.453842 1_545
O114 S17 1.446912 1_545
O115 S18 1.453067 1_545
O116 S19 1.454882 1_555
O117 Si13 1.574269 1_555
O118 Si14 1.579798 1_555
O119 S20 1.456323 1_655
O120 S11 1.516747 1_555
O121 S12 1.561331 1_555
O122 S9 1.533688 1_455
O123 S8 1.560753 1_555
O124 S10 1.531393 1_565
O125 Si10 1.723617 1_565
O126 S5 1.534160 1_565
O127 S6 1.486122 1_565
O128 Si9 1.676417 1_555
O129 S7 1.517292 1_555
O130 S4 1.550939 1_455
O131 S3 1.500356 1_555
O132 Si0 1.680751 1_565
O133 S0 1.473138 1_565
O134 Si1 1.667007 1_555
O135 Si2 1.641095 1_555
O136 Si3 1.665698 1_455
O137 Si4 1.651421 1_555
O138 S1 1.483081 1_555
O139 Si5 1.669016 1_555
O140 Si6 1.667693 1_555
O141 Si7 1.649749 1_555
O142 S2 1.487792 1_565
O143 Si8 1.670441 1_565
