# generated using pymatgen
data_MgCo2(SbO4)2
_symmetry_space_group_name_H-M   'P 1'
_cell_length_a   6.11494838
_cell_length_b   6.09602963
_cell_length_c   6.19107850
_cell_angle_alpha   59.71679327
_cell_angle_beta   59.41903008
_cell_angle_gamma   88.75259949
_symmetry_Int_Tables_number   1
_chemical_formula_structural   MgCo2(SbO4)2
_chemical_formula_sum   'Mg1 Co2 Sb2 O8'
_cell_volume   162.79226887
_cell_formula_units_Z   1
loop_
 _symmetry_equiv_pos_site_id
 _symmetry_equiv_pos_as_xyz
  1  'x, y, z'
loop_
 _atom_site_type_symbol
 _atom_site_label
 _atom_site_symmetry_multiplicity
 _atom_site_fract_x
 _atom_site_fract_y
 _atom_site_fract_z
 _atom_site_occupancy
  Mg  Mg0  1  0.50000000  0.50000000  0.50000000  1
  Co  Co0  1  0.00000000  0.50000000  0.50000000  1
  Co  Co1  1  0.50000000  0.00000000  0.00000000  1
  Sb  Sb0  1  0.00000000  0.00000000  0.50000000  1
  Sb  Sb1  1  0.00000000  0.00000000  0.00000000  1
  O  O0  1  0.77195000  0.77018000  0.98543400  1
  O  O1  1  0.23338100  0.76696600  0.47362500  1
  O  O2  1  0.77303200  0.22732100  0.96727100  1
  O  O3  1  0.77002500  0.77187600  0.47203200  1
  O  O4  1  0.22997500  0.22812400  0.52796800  1
  O  O5  1  0.22696800  0.77267900  0.03272900  1
  O  O6  1  0.76661900  0.23303400  0.52637500  1
  O  O7  1  0.22805000  0.22982000  0.01456600  1
loop_
_geom_bond_atom_site_label_1
_geom_bond_atom_site_label_2
_geom_bond_distance
_geom_bond_site_symmetry_2
Mg0 O3 2.245455 1_555
Mg0 O4 2.245455 1_555
Mg0 O7 2.250306 1_556
Mg0 O0 2.250306 1_554
Mg0 O6 2.284869 1_555
Mg0 O1 2.284869 1_555
Co0 O2 2.055115 1_455
Co0 O5 2.055115 1_555
Co0 O1 2.075535 1_555
Co0 O6 2.075535 1_455
Co0 O4 2.147402 1_555
Co0 O3 2.147402 1_455
Co1 O2 2.054793 1_554
Co1 O5 2.054793 1_545
Co1 O1 2.075959 1_545
Co1 O6 2.075959 1_554
Co1 O0 2.147029 1_544
Co1 O7 2.147029 1_555
O0 Sb1 2.063011 1_666
O0 Sb0 2.124574 1_665
O1 Sb0 1.997482 1_565
O2 Sb1 1.951117 1_656
O3 Sb1 2.063154 1_665
O3 Sb0 2.125393 1_665
O4 Sb1 2.063154 1_556
O4 Sb0 2.125393 1_555
O5 Sb1 1.951117 1_565
O6 Sb0 1.997482 1_655
O7 Sb1 2.063011 1_555
O7 Sb0 2.124574 1_555
