# generated using pymatgen
data_MgCo5BiO12
_symmetry_space_group_name_H-M   'P 1'
_cell_length_a   5.18688912
_cell_length_b   5.15037563
_cell_length_c   9.90295785
_cell_angle_alpha   92.55573533
_cell_angle_beta   96.91720329
_cell_angle_gamma   59.39907855
_symmetry_Int_Tables_number   1
_chemical_formula_structural   MgCo5BiO12
_chemical_formula_sum   'Mg1 Co5 Bi1 O12'
_cell_volume   226.00802265
_cell_formula_units_Z   1
loop_
 _symmetry_equiv_pos_site_id
 _symmetry_equiv_pos_as_xyz
  1  'x, y, z'
loop_
 _atom_site_type_symbol
 _atom_site_label
 _atom_site_symmetry_multiplicity
 _atom_site_fract_x
 _atom_site_fract_y
 _atom_site_fract_z
 _atom_site_occupancy
  Mg  Mg0  1  0.58122700  0.66247400  0.74145500  1
  Co  Co0  1  0.18419600  0.65904900  0.49872200  1
  Co  Co1  1  0.66610200  0.65267900  0.00705600  1
  Co  Co2  1  0.33052100  0.31644600  0.99626600  1
  Co  Co3  1  0.84631000  0.32677500  0.49781800  1
  Co  Co4  1  0.51023800  0.00062500  0.48362100  1
  Bi  Bi0  1  0.99582500  0.99271200  0.00946800  1
  O  O0  1  0.02879400  0.60773200  0.10109900  1
  O  O1  1  0.33935600  0.64203900  0.89592900  1
  O  O2  1  0.14516400  0.34312100  0.40934100  1
  O  O3  1  0.48857500  0.63675800  0.40189500  1
  O  O4  1  0.54359000  0.35115300  0.60076900  1
  O  O5  1  0.21496600  0.96788300  0.59805700  1
  O  O6  1  0.85927700  0.64838100  0.59638700  1
  O  O7  1  0.67171200  0.35479100  0.11136700  1
  O  O8  1  0.38985300  0.98630300  0.10662900  1
  O  O9  1  0.92973700  0.36489900  0.88666900  1
  O  O10  1  0.61231100  0.97814200  0.89298100  1
  O  O11  1  0.84349400  0.99553800  0.40822100  1
loop_
_geom_bond_atom_site_label_1
_geom_bond_atom_site_label_2
_geom_bond_distance
_geom_bond_site_symmetry_2
Mg0 O9 2.105794 1_555
Mg0 O6 2.128909 1_555
Mg0 O1 2.129832 1_555
Mg0 O4 2.145704 1_555
Mg0 O5 2.146371 1_555
Mg0 O10 2.216291 1_555
Co0 O11 1.889064 1_455
Co0 O3 1.896168 1_555
Co0 O5 1.898500 1_555
Co0 O2 1.906789 1_555
Co0 O4 1.921057 1_555
Co0 O6 2.066488 1_455
Co1 O7 1.873615 1_555
Co1 O0 1.901008 1_655
Co1 O9 1.913022 1_554
Co1 O8 1.913246 1_555
Co1 O1 1.930372 1_554
Co1 O10 1.944392 1_554
Co2 O0 1.907825 1_556
Co2 O8 1.931933 1_546
Co2 O10 1.956208 1_545
Co2 O1 2.009800 1_555
Co2 O7 2.078467 1_556
Co2 O9 2.124679 1_455
Co3 O11 1.893447 1_545
Co3 O3 1.894435 1_555
Co3 O2 1.908994 1_655
Co3 O6 1.911647 1_555
Co3 O4 1.922002 1_555
Co3 O5 2.041173 1_645
Co4 O2 1.902074 1_555
Co4 O11 1.951713 1_545
Co4 O6 2.041016 1_545
Co4 O3 2.058380 1_545
Co4 O5 2.087194 1_545
Co4 O4 2.172078 1_555
Bi0 O7 2.090720 1_565
Bi0 O0 2.135880 1_655
Bi0 O8 2.136445 1_655
Bi0 O9 2.170102 1_564
Bi0 O1 2.173981 1_654
Bi0 O10 2.210196 1_554
