# generated using pymatgen
data_Co3(OF2)2
_symmetry_space_group_name_H-M   'P 1'
_cell_length_a   4.44677734
_cell_length_b   5.34903712
_cell_length_c   7.64050199
_cell_angle_alpha   87.94115755
_cell_angle_beta   91.17664417
_cell_angle_gamma   90.14275776
_symmetry_Int_Tables_number   1
_chemical_formula_structural   Co3(OF2)2
_chemical_formula_sum   'Co6 O4 F8'
_cell_volume   181.58090948
_cell_formula_units_Z   2
loop_
 _symmetry_equiv_pos_site_id
 _symmetry_equiv_pos_as_xyz
  1  'x, y, z'
loop_
 _atom_site_type_symbol
 _atom_site_label
 _atom_site_symmetry_multiplicity
 _atom_site_fract_x
 _atom_site_fract_y
 _atom_site_fract_z
 _atom_site_occupancy
  Co  Co0  1  0.45795038  0.82780080  0.67540157  1
  Co  Co1  1  0.54204962  0.17219920  0.32459843  1
  Co  Co2  1  0.50000000  0.50000000  0.00000000  1
  Co  Co3  1  0.00000000  -0.00000000  0.00000000  1
  Co  Co4  1  0.96556258  0.67250693  0.32176136  1
  Co  Co5  1  0.03443742  0.32749307  0.67823864  1
  O  O0  1  0.80925725  0.96229421  0.21822024  1
  O  O1  1  0.70119320  0.47291733  0.21911117  1
  O  O2  1  0.29880680  0.52708267  0.78088883  1
  O  O3  1  0.19074275  0.03770579  0.78177976  1
  F  F0  1  0.76380749  0.26872472  0.90843766  1
  F  F1  1  0.79859980  0.62362694  0.57325797  1
  F  F2  1  0.72947668  0.76812323  0.90417011  1
  F  F3  1  0.71100090  0.13011526  0.57315657  1
  F  F4  1  0.27052332  0.23187677  0.09582989  1
  F  F5  1  0.28899910  0.86988474  0.42684343  1
  F  F6  1  0.20140020  0.37637306  0.42674203  1
  F  F7  1  0.23619251  0.73127528  0.09156234  1
loop_
_geom_bond_atom_site_label_1
_geom_bond_atom_site_label_2
_geom_bond_distance
_geom_bond_site_symmetry_2
Co0 O3 1.856072 1_565
Co0 O2 1.913751 1_555
Co0 F5 2.033040 1_555
Co0 F1 2.052914 1_555
Co0 F3 2.104219 1_565
Co0 F2 2.118983 1_555
Co1 O0 1.856072 1_545
Co1 O1 1.913751 1_555
Co1 F3 2.033040 1_555
Co1 F6 2.052914 1_555
Co1 F5 2.104219 1_545
Co1 F4 2.118983 1_555
Co2 F0 1.870588 1_554
Co2 F7 1.870588 1_555
Co2 O1 1.883026 1_555
Co2 O2 1.883026 1_554
Co2 F2 1.892684 1_554
Co2 F4 1.892684 1_555
Co3 F2 1.882348 1_444
Co3 F4 1.882348 1_555
Co3 F7 1.887803 1_545
Co3 F0 1.887803 1_454
Co3 O3 1.890265 1_554
Co3 O0 1.890265 1_445
Co4 O1 1.775663 1_555
Co4 O0 1.845639 1_555
Co4 F5 1.958001 1_655
Co4 F6 2.033414 1_655
Co4 F1 2.081708 1_555
Co4 F7 2.164691 1_655
Co5 O2 1.775663 1_555
Co5 O3 1.845639 1_555
Co5 F3 1.958001 1_455
Co5 F1 2.033414 1_455
Co5 F6 2.081708 1_555
Co5 F0 2.164691 1_455
