# generated using pymatgen
data_Na5Ta3Si6SnO24
_symmetry_space_group_name_H-M   'P 1'
_cell_length_a   9.03672097
_cell_length_b   9.02805545
_cell_length_c   22.49178724
_cell_angle_alpha   90.28969707
_cell_angle_beta   89.78443357
_cell_angle_gamma   120.14002939
_symmetry_Int_Tables_number   1
_chemical_formula_structural   Na5Ta3Si6SnO24
_chemical_formula_sum   'Na15 Ta9 Si18 Sn3 O72'
_cell_volume   1586.86203489
_cell_formula_units_Z   3
loop_
 _symmetry_equiv_pos_site_id
 _symmetry_equiv_pos_as_xyz
  1  'x, y, z'
loop_
 _atom_site_type_symbol
 _atom_site_label
 _atom_site_symmetry_multiplicity
 _atom_site_fract_x
 _atom_site_fract_y
 _atom_site_fract_z
 _atom_site_occupancy
  Na  Na0  1  0.36771247  0.36305795  0.24651957  1
  Na  Na1  1  0.99098839  0.63138932  0.24644219  1
  Na  Na2  1  0.63601473  0.62927693  0.74753230  1
  Na  Na3  1  0.99966090  0.37126527  0.74826544  1
  Na  Na4  1  0.03093020  0.69489057  0.58496163  1
  Na  Na5  1  0.30828750  0.97078449  0.08478067  1
  Na  Na6  1  0.69933349  0.03264423  0.91879927  1
  Na  Na7  1  0.96921948  0.29683342  0.41300165  1
  Na  Na8  1  0.33204695  0.03682255  0.41407804  1
  Na  Na9  1  0.98647845  0.99672704  0.49870305  1
  Na  Na10  1  0.00093690  0.00019152  0.00098476  1
  Na  Na11  1  0.65260361  0.33036222  0.83324598  1
  Na  Na12  1  0.66703514  0.33271160  0.32802130  1
  Na  Na13  1  0.34802695  0.66854111  0.16348176  1
  Na  Na14  1  0.34903358  0.68314966  0.66445819  1
  Ta  Ta0  1  0.00451826  0.00004904  0.85597213  1
  Ta  Ta1  1  0.00135992  0.00374024  0.64305324  1
  Ta  Ta2  1  0.99447271  0.99972072  0.14432680  1
  Ta  Ta3  1  0.66851024  0.33854574  0.97877801  1
  Ta  Ta4  1  0.66558083  0.33554139  0.47943696  1
  Ta  Ta5  1  0.33161427  0.66188835  0.02098508  1
  Ta  Ta6  1  0.33712568  0.66648893  0.52148972  1
  Ta  Ta7  1  0.33684543  0.66975205  0.31018337  1
  Ta  Ta8  1  0.33288078  0.66902012  0.81169788  1
  Si  Si0  1  0.29018867  0.00167513  0.25041211  1
  Si  Si1  1  0.71135477  0.71151873  0.24985685  1
  Si  Si2  1  0.99532130  0.28666859  0.25239195  1
  Si  Si3  1  0.28980665  0.28657505  0.75026237  1
  Si  Si4  1  0.00371389  0.71491774  0.74804954  1
  Si  Si5  1  0.71263061  0.00017932  0.75082765  1
  Si  Si6  1  0.95408379  0.33131941  0.58379929  1
  Si  Si7  1  0.37805944  0.04397621  0.58350451  1
  Si  Si8  1  0.66207589  0.62143083  0.58657784  1
  Si  Si9  1  0.95803619  0.62374001  0.08499644  1
  Si  Si10  1  0.66906638  0.04507188  0.08106952  1
  Si  Si11  1  0.37812957  0.33592742  0.08513535  1
  Si  Si12  1  0.61960739  0.66240454  0.91494353  1
  Si  Si13  1  0.04276946  0.37794063  0.91532340  1
  Si  Si14  1  0.33090180  0.95532803  0.91859339  1
  Si  Si15  1  0.62369355  0.95467894  0.41699292  1
  Si  Si16  1  0.33725421  0.38044158  0.41500717  1
  Si  Si17  1  0.04333637  0.66620547  0.41664618  1
  Sn  Sn0  1  0.99573730  0.99565179  0.35442253  1
  Sn  Sn1  1  0.66160253  0.32798338  0.68789077  1
  Sn  Sn2  1  0.66662408  0.33012172  0.18533082  1
  O  O0  1  0.21393233  0.03857782  0.31146035  1
  O  O1  1  0.83432299  0.78778704  0.30772952  1
  O  O2  1  0.97045715  0.18576086  0.31482246  1
  O  O3  1  0.18857008  0.17124928  0.80834385  1
  O  O4  1  0.97649804  0.81365156  0.80483002  1
  O  O5  1  0.82660533  0.02315686  0.81048545  1
  O  O6  1  0.80893919  0.96885868  0.69376908  1
  O  O7  1  0.16665825  0.19164156  0.69252003  1
  O  O8  1  0.02668179  0.82550351  0.68776635  1
  O  O9  1  0.80731856  0.83150335  0.19197938  1
  O  O10  1  0.02708800  0.18760078  0.19657844  1
  O  O11  1  0.16646297  0.96987081  0.19249539  1
  O  O12  1  0.88288992  0.37996630  0.64335477  1
  O  O13  1  0.49449890  0.12156106  0.64200490  1
  O  O14  1  0.63221601  0.51775142  0.64837029  1
  O  O15  1  0.88507408  0.51889208  0.14658426  1
  O  O16  1  0.61465050  0.12057233  0.13757081  1
  O  O17  1  0.48272592  0.36972468  0.14689643  1
  O  O18  1  0.47873569  0.30392883  0.02952892  1
  O  O19  1  0.83358661  0.51988796  0.02848354  1
  O  O20  1  0.69345603  0.15881975  0.02114687  1
  O  O21  1  0.46989278  0.15979673  0.52371542  1
  O  O22  1  0.69144850  0.51891966  0.53055104  1
  O  O23  1  0.83441803  0.30678013  0.52511931  1
  O  O24  1  0.52342539  0.69682749  0.97038848  1
  O  O25  1  0.16436984  0.47797431  0.97189466  1
  O  O26  1  0.30790899  0.84327897  0.97783688  1
  O  O27  1  0.52299651  0.83851869  0.47448802  1
  O  O28  1  0.30992375  0.47923561  0.47122564  1
  O  O29  1  0.16119945  0.68861618  0.47481610  1
  O  O30  1  0.13525325  0.63583332  0.35765601  1
  O  O31  1  0.49918789  0.85924287  0.35929816  1
  O  O32  1  0.35854228  0.49302266  0.35507303  1
  O  O33  1  0.13571847  0.49106433  0.85520738  1
  O  O34  1  0.35933110  0.85458650  0.86148451  1
  O  O35  1  0.50585487  0.63871390  0.85454180  1
  O  O36  1  0.03665508  0.84259019  0.41467981  1
  O  O37  1  0.81573672  0.98414476  0.41547320  1
  O  O38  1  0.16543149  0.19050902  0.41469574  1
  O  O39  1  0.01640954  0.18421313  0.91162791  1
  O  O40  1  0.16160782  0.97398046  0.91044173  1
  O  O41  1  0.80651999  0.83869344  0.90980357  1
  O  O42  1  0.97071202  0.15977448  0.58937624  1
  O  O43  1  0.18559199  0.02224986  0.58811661  1
  O  O44  1  0.84130708  0.80773267  0.58807018  1
  O  O45  1  0.98187499  0.81707467  0.08779436  1
  O  O46  1  0.84093268  0.03011081  0.08926959  1
  O  O47  1  0.19176076  0.15755968  0.08923690  1
  O  O48  1  0.70666663  0.17682236  0.74736362  1
  O  O49  1  0.48220628  0.31643466  0.74952900  1
  O  O50  1  0.83172344  0.52454630  0.74795076  1
  O  O51  1  0.68358227  0.51868842  0.24521574  1
  O  O52  1  0.83771444  0.32341439  0.24635810  1
  O  O53  1  0.47780566  0.17185615  0.24560998  1
  O  O54  1  0.63875749  0.49398835  0.92318722  1
  O  O55  1  0.85128243  0.35421530  0.92111988  1
  O  O56  1  0.50697741  0.14166473  0.92182998  1
  O  O57  1  0.63569090  0.14320930  0.42178438  1
  O  O58  1  0.50563323  0.35797738  0.42237297  1
  O  O59  1  0.85716527  0.48890137  0.42260227  1
  O  O60  1  0.35275160  0.50054774  0.07410294  1
  O  O61  1  0.15272933  0.65457934  0.07650418  1
  O  O62  1  0.49906332  0.85333214  0.07396035  1
  O  O63  1  0.34165399  0.84695356  0.57620502  1
  O  O64  1  0.49814800  0.64710838  0.57612799  1
  O  O65  1  0.14288425  0.50216616  0.57441761  1
  O  O66  1  0.29588081  0.82165248  0.25591599  1
  O  O67  1  0.52047787  0.69262532  0.25507520  1
  O  O68  1  0.17538670  0.47686316  0.25472677  1
  O  O69  1  0.30165822  0.47554137  0.75444135  1
  O  O70  1  0.17182757  0.69108052  0.75535982  1
  O  O71  1  0.52507559  0.82333617  0.75506939  1
loop_
_geom_bond_atom_site_label_1
_geom_bond_atom_site_label_2
_geom_bond_distance
_geom_bond_site_symmetry_2
Na0 O53 2.386212 1_555
Na0 O68 2.428835 1_555
Na0 O17 2.454715 1_555
Na0 O51 2.468803 1_555
Na0 O67 2.582033 1_555
Na0 O32 2.722488 1_555
Na0 O10 2.890900 1_555
Na0 O0 2.930189 1_555
Na1 O52 2.404524 1_555
Na1 O66 2.415621 1_655
Na1 O51 2.432044 1_555
Na1 O15 2.451314 1_555
Na1 O68 2.664051 1_655
Na1 O1 2.805566 1_555
Na1 O30 2.815880 1_655
Na1 O11 2.912331 1_655
Na2 O50 2.387760 1_555
Na2 O71 2.421316 1_555
Na2 O14 2.435667 1_555
Na2 O49 2.443249 1_555
Na2 O69 2.620529 1_555
Na2 O35 2.694599 1_555
Na2 O6 2.918100 1_555
Na2 O4 2.960316 1_555
Na3 O48 2.329126 1_555
Na3 O69 2.403089 1_655
Na3 O70 2.503731 1_655
Na3 O50 2.515418 1_555
Na3 O12 2.606026 1_555
Na3 O33 2.669745 1_655
Na4 O44 2.393848 1_455
Na4 O65 2.422574 1_555
Na4 O63 2.436258 1_555
Na4 O43 2.558021 1_565
Na4 O8 2.599177 1_555
Na4 O29 2.751361 1_555
Na4 O12 2.793392 1_455
Na4 O22 2.923558 1_455
Na5 O47 2.396424 1_565
Na5 O62 2.446582 1_555
Na5 O61 2.475237 1_555
Na5 O45 2.553402 1_455
Na5 O26 2.660631 1_554
Na5 O16 2.674320 1_565
Na5 O11 2.734652 1_555
Na5 O18 2.886850 1_565
Na6 O56 2.389875 1_555
Na6 O41 2.396520 1_545
Na6 O39 2.483928 1_655
Na6 O55 2.512426 1_555
Na6 O20 2.575432 1_556
Na6 O5 2.709387 1_555
Na6 O24 2.871733 1_545
Na6 O34 2.955514 1_545
Na7 O38 2.403516 1_655
Na7 O59 2.415905 1_555
Na7 O2 2.422935 1_555
Na7 O37 2.442336 1_545
Na7 O57 2.616719 1_555
Na7 O23 2.817009 1_555
Na7 O30 2.929260 1_655
Na7 O28 2.970360 1_655
Na8 O36 2.345199 1_545
Na8 O57 2.416000 1_555
Na8 O38 2.507966 1_555
Na8 O58 2.516218 1_555
Na8 O0 2.550008 1_555
Na8 O21 2.733452 1_555
Na9 O37 2.396142 1_555
Na9 O36 2.512788 1_655
Na9 O38 2.532835 1_665
Na9 O44 2.537616 1_555
Na9 O42 2.554274 1_565
Na9 O43 2.634632 1_665
Na10 O45 2.513783 1_445
Na10 O47 2.543435 1_555
Na10 O46 2.543964 1_455
Na10 O39 2.572413 1_554
Na10 O40 2.574735 1_544
Na10 O41 2.615881 1_444
Na11 O49 2.399451 1_555
Na11 O56 2.523274 1_555
Na11 O54 2.538430 1_555
Na11 O50 2.556327 1_555
Na11 O48 2.556816 1_555
Na11 O55 2.609655 1_555
Na12 O52 2.422142 1_555
Na12 O53 2.443694 1_555
Na12 O51 2.467292 1_555
Na12 O58 2.643627 1_555
Na12 O57 2.645751 1_555
Na12 O59 2.651407 1_555
Na13 O60 2.525247 1_555
Na13 O67 2.529668 1_555
Na13 O62 2.535137 1_555
Na13 O61 2.599560 1_555
Na13 O68 2.634566 1_555
Na13 O66 2.659473 1_555
Na14 O63 2.502242 1_555
Na14 O71 2.502486 1_555
Na14 O64 2.506445 1_555
Na14 O70 2.615082 1_555
Na14 O69 2.649227 1_555
Na14 O65 2.679493 1_555
O0 Si0 1.640132 1_555
O0 Sn0 2.047892 1_445
O1 Si1 1.623791 1_555
O1 Sn0 1.998745 1_555
O2 Si2 1.630066 1_555
O2 Sn0 2.049871 1_545
O3 Si3 1.635776 1_555
O3 Ta0 1.929910 1_555
O4 Si4 1.640818 1_655
O4 Ta0 1.942628 1_665
O5 Si5 1.642353 1_555
O5 Ta0 2.006596 1_655
O6 Si5 1.649075 1_565
O6 Ta1 1.965389 1_665
O7 Si3 1.643625 1_555
O7 Ta1 1.948233 1_555
O8 Si4 1.637593 1_555
O8 Ta1 2.010203 1_565
O9 Si1 1.637813 1_555
O9 Ta2 1.933637 1_555
O10 Si2 1.643777 1_455
O10 Ta2 1.955892 1_445
O11 Si0 1.647489 1_565
O11 Ta2 2.024410 1_455
O12 Si6 1.634747 1_555
O12 Sn1 2.066331 1_555
O13 Si7 1.609358 1_555
O13 Sn1 1.996157 1_555
O14 Si8 1.623961 1_555
O14 Sn1 2.066369 1_555
O15 Si9 1.621480 1_555
O15 Sn2 2.045582 1_555
O16 Si10 1.626200 1_555
O16 Sn2 2.011085 1_555
O17 Si11 1.622385 1_555
O17 Sn2 2.060932 1_555
O18 Si11 1.650990 1_555
O18 Ta3 1.947386 1_554
O19 Si9 1.642949 1_555
O19 Ta3 1.922745 1_554
O20 Si10 1.644412 1_555
O20 Ta3 1.994057 1_554
O21 Si7 1.650708 1_555
O21 Ta4 1.954860 1_555
O22 Si8 1.657498 1_555
O22 Ta4 1.926477 1_555
O23 Si6 1.651542 1_555
O23 Ta4 1.965538 1_555
O24 Si12 1.632901 1_555
O24 Ta5 1.959276 1_556
O25 Si13 1.626160 1_555
O25 Ta5 1.932391 1_556
O26 Si14 1.625572 1_555
O26 Ta5 2.009824 1_556
O27 Si15 1.626849 1_555
O27 Ta6 1.932478 1_555
O28 Si16 1.631815 1_555
O28 Ta6 1.939554 1_555
O29 Si17 1.636623 1_555
O29 Ta6 2.000748 1_555
O30 Si17 1.655978 1_555
O30 Ta7 1.995248 1_555
O31 Si15 1.648741 1_555
O31 Ta7 1.942135 1_555
O32 Si16 1.644012 1_555
O32 Ta7 1.983800 1_555
O33 Si13 1.649462 1_555
O33 Ta8 1.959968 1_555
O34 Si14 1.662357 1_555
O34 Ta8 1.923179 1_555
O35 Si12 1.653737 1_555
O35 Ta8 1.972380 1_555
O36 Si17 1.624395 1_555
O36 Sn0 2.102113 1_455
O37 Si15 1.618555 1_555
O37 Sn0 2.087371 1_555
O38 Si16 1.636296 1_555
O38 Sn0 2.136941 1_445
O39 Si13 1.644046 1_555
O39 Ta0 2.035553 1_555
O40 Si14 1.632050 1_555
O40 Ta0 1.980658 1_565
O41 Si12 1.643210 1_555
O41 Ta0 2.042913 1_665
O42 Si6 1.634823 1_555
O42 Ta1 1.982464 1_655
O43 Si7 1.652441 1_555
O43 Ta1 2.008395 1_555
O44 Si8 1.648484 1_555
O44 Ta1 2.042972 1_665
O45 Si9 1.648729 1_555
O45 Ta2 2.034720 1_555
O46 Si10 1.636299 1_555
O46 Ta2 1.983067 1_545
O47 Si11 1.647682 1_555
O47 Ta2 2.048011 1_445
O48 Si5 1.624740 1_555
O48 Sn1 2.097184 1_555
O49 Si3 1.620196 1_555
O49 Sn1 2.091841 1_555
O50 Si4 1.639197 1_655
O50 Sn1 2.142211 1_555
O51 Si1 1.632224 1_555
O51 Sn2 2.110020 1_555
O52 Si2 1.622760 1_555
O52 Sn2 2.094987 1_555
O53 Si0 1.622074 1_555
O53 Sn2 2.084473 1_555
O54 Si12 1.625880 1_555
O54 Ta3 2.001047 1_555
O55 Si13 1.638165 1_655
O55 Ta3 2.044718 1_555
O56 Si14 1.636652 1_545
O56 Ta3 2.077553 1_555
O57 Si15 1.653271 1_545
O57 Ta4 2.068410 1_555
O58 Si16 1.641938 1_555
O58 Ta4 2.021908 1_555
O59 Si17 1.645204 1_655
O59 Ta4 2.035308 1_555
O60 Si11 1.633829 1_555
O60 Ta5 1.970840 1_555
O61 Si9 1.647888 1_455
O61 Ta5 2.013795 1_555
O62 Si10 1.646403 1_565
O62 Ta5 2.015693 1_555
O63 Si7 1.645865 1_565
O63 Ta6 2.020829 1_555
O64 Si8 1.628334 1_555
O64 Ta6 1.982297 1_555
O65 Si6 1.640838 1_455
O65 Ta6 2.021427 1_555
O66 Si0 1.656943 1_565
O66 Ta7 2.009380 1_555
O67 Si1 1.649658 1_555
O67 Ta7 1.993908 1_555
O68 Si2 1.671166 1_455
O68 Ta7 2.038952 1_555
O69 Si3 1.657017 1_555
O69 Ta8 2.067412 1_555
O70 Si4 1.646773 1_555
O70 Ta8 2.017672 1_555
O71 Si5 1.647305 1_565
O71 Ta8 2.037420 1_555
