# generated using pymatgen
data_MgFe4(CoO4)2
_symmetry_space_group_name_H-M   'P 1'
_cell_length_a   5.98027216
_cell_length_b   5.98027216
_cell_length_c   6.32513145
_cell_angle_alpha   61.78776405
_cell_angle_beta   61.78776405
_cell_angle_gamma   60.00000000
_symmetry_Int_Tables_number   1
_chemical_formula_structural   MgFe4(CoO4)2
_chemical_formula_sum   'Mg1 Fe4 Co2 O8'
_cell_volume   164.14135447
_cell_formula_units_Z   1
loop_
 _symmetry_equiv_pos_site_id
 _symmetry_equiv_pos_as_xyz
  1  'x, y, z'
loop_
 _atom_site_type_symbol
 _atom_site_label
 _atom_site_symmetry_multiplicity
 _atom_site_fract_x
 _atom_site_fract_y
 _atom_site_fract_z
 _atom_site_occupancy
  Mg  Mg0  1  0.87500000  0.87500000  0.37500000  1
  Fe  Fe0  1  0.87500000  0.37500000  0.37500000  1
  Fe  Fe1  1  0.37500000  0.87500000  0.37500000  1
  Fe  Fe2  1  0.37500000  0.37500000  0.87500000  1
  Fe  Fe3  1  0.37500000  0.37500000  0.37500000  1
  Co  Co0  1  0.72256600  0.72256600  0.83230300  1
  Co  Co1  1  0.02743400  0.02743400  0.91769700  1
  O  O0  1  0.62158900  0.11837900  0.14165200  1
  O  O1  1  0.11837900  0.62158900  0.14165200  1
  O  O2  1  0.14484300  0.14484300  0.56547000  1
  O  O3  1  0.11837900  0.11837900  0.14165200  1
  O  O4  1  0.12841100  0.63162100  0.60834800  1
  O  O5  1  0.63162100  0.12841100  0.60834800  1
  O  O6  1  0.60515700  0.60515700  0.18453000  1
  O  O7  1  0.63162100  0.63162100  0.60834800  1
loop_
_geom_bond_atom_site_label_1
_geom_bond_atom_site_label_2
_geom_bond_distance
_geom_bond_site_symmetry_2
Mg0 O7 2.114585 1_555
Mg0 O3 2.114585 1_665
Mg0 O0 2.114590 1_565
Mg0 O4 2.114590 1_655
Mg0 O1 2.114590 1_655
Mg0 O5 2.114590 1_565
Fe0 O6 1.999807 1_555
Fe0 O2 1.999807 1_655
Fe0 O1 2.128115 1_655
Fe0 O5 2.128115 1_555
Fe0 O3 2.128119 1_655
Fe0 O7 2.128119 1_555
Fe1 O6 1.999807 1_555
Fe1 O2 1.999807 1_565
Fe1 O0 2.128115 1_565
Fe1 O4 2.128115 1_555
Fe1 O7 2.128119 1_555
Fe1 O3 2.128119 1_565
Fe2 O0 2.239576 1_556
Fe2 O4 2.239576 1_555
Fe2 O1 2.239576 1_556
Fe2 O5 2.239576 1_555
Fe2 O3 2.239580 1_556
Fe2 O7 2.239580 1_555
Fe3 O6 1.999811 1_555
Fe3 O2 1.999811 1_555
Fe3 O5 2.128119 1_555
Fe3 O0 2.128119 1_555
Fe3 O1 2.128119 1_555
Fe3 O4 2.128119 1_555
Co0 O6 1.866672 1_556
Co0 O4 2.085867 1_655
Co0 O5 2.085867 1_565
Co0 O7 2.085867 1_555
Co1 O2 1.866672 1_555
Co1 O1 2.085867 1_546
Co1 O3 2.085867 1_556
Co1 O0 2.085867 1_456
