# generated using pymatgen
data_KMgMn16O32
_symmetry_space_group_name_H-M   'P 1'
_cell_length_a   5.90101487
_cell_length_b   9.64005717
_cell_length_c   10.45082536
_cell_angle_alpha   88.21728962
_cell_angle_beta   90.00092670
_cell_angle_gamma   89.93584313
_symmetry_Int_Tables_number   1
_chemical_formula_structural   KMgMn16O32
_chemical_formula_sum   'K1 Mg1 Mn16 O32'
_cell_volume   594.21879452
_cell_formula_units_Z   1
loop_
 _symmetry_equiv_pos_site_id
 _symmetry_equiv_pos_as_xyz
  1  'x, y, z'
loop_
 _atom_site_type_symbol
 _atom_site_label
 _atom_site_symmetry_multiplicity
 _atom_site_fract_x
 _atom_site_fract_y
 _atom_site_fract_z
 _atom_site_occupancy
  K  K0  1  0.00117100  0.48288600  0.42262200  1
  Mg  Mg0  1  0.99825100  0.53054100  0.67486100  1
  Mn  Mn0  1  0.50058500  0.16592500  0.34813600  1
  Mn  Mn1  1  0.00040700  0.16161200  0.34558300  1
  Mn  Mn2  1  0.50003500  0.35621700  0.82938900  1
  Mn  Mn3  1  0.00006500  0.33037100  0.84787700  1
  Mn  Mn4  1  0.00001900  0.65938700  0.15546600  1
  Mn  Mn5  1  0.49999200  0.65498500  0.15937800  1
  Mn  Mn6  1  0.99984300  0.83854700  0.64671900  1
  Mn  Mn7  1  0.49978600  0.82581700  0.63947000  1
  Mn  Mn8  1  0.74731200  0.68221900  0.85912400  1
  Mn  Mn9  1  0.25090100  0.68195700  0.85891900  1
  Mn  Mn10  1  0.74975000  0.83886500  0.33695000  1
  Mn  Mn11  1  0.25055300  0.83891700  0.33687700  1
  Mn  Mn12  1  0.75128100  0.16381900  0.65160600  1
  Mn  Mn13  1  0.24964000  0.16396300  0.65149400  1
  Mn  Mn14  1  0.75055500  0.32392900  0.14054600  1
  Mn  Mn15  1  0.25066300  0.32394000  0.14039300  1
  O  O0  1  0.75030700  0.96211000  0.63962200  1
  O  O1  1  0.25023100  0.96144900  0.63947600  1
  O  O2  1  0.74712600  0.69166200  0.04255900  1
  O  O3  1  0.25240900  0.69148500  0.04244900  1
  O  O4  1  0.75100700  0.31532000  0.95875900  1
  O  O5  1  0.25014400  0.31521700  0.95820800  1
  O  O6  1  0.74911200  0.03622800  0.35248900  1
  O  O7  1  0.25196300  0.03623300  0.35275700  1
  O  O8  1  0.00037500  0.45602900  0.15051900  1
  O  O9  1  0.50027800  0.45480300  0.14532700  1
  O  O10  1  0.00033000  0.19007500  0.53128100  1
  O  O11  1  0.50044800  0.19085300  0.53250700  1
  O  O12  1  0.50018900  0.80598400  0.45473900  1
  O  O13  1  0.00013700  0.80656500  0.45722100  1
  O  O14  1  0.49950400  0.55292000  0.86012200  1
  O  O15  1  0.99931600  0.54813300  0.86362800  1
  O  O16  1  0.49878100  0.81033800  0.83033300  1
  O  O17  1  0.99924700  0.81304800  0.83775300  1
  O  O18  1  0.00003500  0.84993800  0.21418800  1
  O  O19  1  0.49993300  0.84784400  0.21430400  1
  O  O20  1  0.00073400  0.19138300  0.15835100  1
  O  O21  1  0.50065300  0.19128800  0.15978700  1
  O  O22  1  0.50015100  0.16586200  0.77343900  1
  O  O23  1  0.00031100  0.14988200  0.77861200  1
  O  O24  1  0.75090000  0.29567000  0.33054400  1
  O  O25  1  0.24984100  0.29570000  0.33018100  1
  O  O26  1  0.77544200  0.37015200  0.70889800  1
  O  O27  1  0.22236800  0.37002100  0.70809000  1
  O  O28  1  0.76860900  0.68820500  0.66692000  1
  O  O29  1  0.22881900  0.68730400  0.66731100  1
  O  O30  1  0.75154500  0.64560400  0.28209600  1
  O  O31  1  0.24894200  0.64570300  0.28221100  1
loop_
_geom_bond_atom_site_label_1
_geom_bond_atom_site_label_2
_geom_bond_distance
_geom_bond_site_symmetry_2
K0 O25 2.538767 1_555
K0 O24 2.545247 1_455
K0 O31 2.572251 1_555
K0 O30 2.576559 1_455
K0 Mg0 2.689931 1_455
K0 O8 2.863477 1_555
K0 O10 3.009630 1_555
K0 O13 3.152318 1_555
Mg0 O15 1.985307 1_555
Mg0 O29 2.034292 1_655
Mg0 O28 2.034906 1_555
Mg0 O26 2.053335 1_555
Mg0 O27 2.055756 1_655
Mn0 O6 1.925731 1_555
Mn0 O7 1.928271 1_555
Mn0 O24 1.941617 1_555
Mn0 O25 1.941879 1_555
Mn0 O11 1.949161 1_555
Mn0 O21 1.975967 1_555
Mn1 O7 1.913210 1_555
Mn1 O6 1.914094 1_455
Mn1 O24 1.961046 1_455
Mn1 O25 1.963318 1_555
Mn1 O10 1.968432 1_555
Mn1 O20 1.968812 1_555
Mn2 O14 1.933063 1_555
Mn2 O22 1.943195 1_555
Mn2 O5 2.027655 1_555
Mn2 O4 2.035238 1_555
Mn2 O26 2.057899 1_555
Mn2 O27 2.073257 1_555
Mn3 O4 1.874557 1_455
Mn3 O5 1.875526 1_555
Mn3 O23 1.905175 1_555
Mn3 O27 1.991882 1_555
Mn3 O26 1.994434 1_455
Mn3 O15 2.110781 1_455
Mn4 O3 1.920241 1_555
Mn4 O2 1.921518 1_455
Mn4 O18 1.954749 1_555
Mn4 O8 1.962670 1_555
Mn4 O30 1.976981 1_455
Mn4 O31 1.979453 1_555
Mn5 O2 1.927852 1_555
Mn5 O3 1.929672 1_555
Mn5 O9 1.939893 1_555
Mn5 O31 1.960565 1_555
Mn5 O30 1.961865 1_555
Mn5 O19 1.962758 1_555
Mn6 O0 1.892941 1_555
Mn6 O1 1.894972 1_655
Mn6 O29 1.993445 1_655
Mn6 O28 1.998089 1_555
Mn6 O17 2.003938 1_555
Mn6 O13 2.013721 1_655
Mn7 O12 1.945946 1_555
Mn7 O1 1.968218 1_555
Mn7 O0 1.978938 1_555
Mn7 O16 1.995624 1_555
Mn7 O28 2.080905 1_555
Mn7 O29 2.098803 1_555
Mn8 O2 1.922034 1_556
Mn8 O14 1.922341 1_555
Mn8 O16 1.933811 1_555
Mn8 O17 1.958924 1_555
Mn8 O15 1.968841 1_555
Mn8 O28 2.011659 1_555
Mn9 O14 1.922125 1_555
Mn9 O3 1.923111 1_556
Mn9 O16 1.934318 1_555
Mn9 O17 1.956934 1_455
Mn9 O15 1.967512 1_455
Mn9 O29 2.005753 1_555
Mn10 O6 1.914535 1_565
Mn10 O12 1.939427 1_555
Mn10 O19 1.953540 1_555
Mn10 O18 1.957198 1_655
Mn10 O13 1.958189 1_655
Mn10 O30 1.966240 1_555
Mn11 O7 1.914527 1_565
Mn11 O12 1.939746 1_555
Mn11 O19 1.951260 1_555
Mn11 O18 1.957509 1_555
Mn11 O13 1.959431 1_555
Mn11 O31 1.965193 1_555
Mn12 O10 1.945841 1_655
Mn12 O11 1.946008 1_555
Mn12 O0 1.952415 1_545
Mn12 O22 1.954281 1_555
Mn12 O23 1.981853 1_655
Mn12 O26 2.099982 1_555
Mn13 O11 1.945468 1_555
Mn13 O10 1.945643 1_555
Mn13 O22 1.952237 1_555
Mn13 O1 1.960177 1_545
Mn13 O23 1.984264 1_555
Mn13 O27 2.096177 1_555
Mn14 O4 1.904215 1_554
Mn14 O9 1.942978 1_555
Mn14 O8 1.954032 1_655
Mn14 O20 1.956460 1_655
Mn14 O21 1.959165 1_555
Mn14 O24 1.995823 1_555
Mn15 O5 1.908454 1_554
Mn15 O9 1.942161 1_555
Mn15 O8 1.954015 1_555
Mn15 O21 1.957595 1_555
Mn15 O20 1.957699 1_555
Mn15 O25 1.993635 1_555
