# generated using pymatgen
data_MgMnCu2SnS4
_symmetry_space_group_name_H-M   'P 1'
_cell_length_a   5.81674900
_cell_length_b   6.29983400
_cell_length_c   6.65544109
_cell_angle_alpha   118.24771160
_cell_angle_beta   115.91211093
_cell_angle_gamma   90.00000000
_symmetry_Int_Tables_number   1
_chemical_formula_structural   MgMnCu2SnS4
_chemical_formula_sum   'Mg1 Mn1 Cu2 Sn1 S4'
_cell_volume   186.54301862
_cell_formula_units_Z   1
loop_
 _symmetry_equiv_pos_site_id
 _symmetry_equiv_pos_as_xyz
  1  'x, y, z'
loop_
 _atom_site_type_symbol
 _atom_site_label
 _atom_site_symmetry_multiplicity
 _atom_site_fract_x
 _atom_site_fract_y
 _atom_site_fract_z
 _atom_site_occupancy
  Mg  Mg0  1  0.50000000  0.00000000  0.00000000  1
  Mn  Mn0  1  0.00000000  0.00000000  0.00000000  1
  Cu  Cu0  1  0.76972800  0.26972800  0.53945600  1
  Cu  Cu1  1  0.23027200  0.73027200  0.46054400  1
  Sn  Sn0  1  0.50000000  0.50000000  0.00000000  1
  S  S0  1  0.90950000  0.93749100  0.28806100  1
  S  S1  1  0.37856100  0.35057000  0.28806100  1
  S  S2  1  0.09050000  0.64943000  0.71193900  1
  S  S3  1  0.62143900  0.06250900  0.71193900  1
loop_
_geom_bond_atom_site_label_1
_geom_bond_atom_site_label_2
_geom_bond_distance
_geom_bond_site_symmetry_2
Mg0 S3 2.495563 1_554
Mg0 S1 2.495563 1_555
Mg0 S0 2.495563 1_545
Mg0 S2 2.495563 1_544
Mg0 Sn0 3.149917 1_555
Mg0 Sn0 3.149917 1_545
Mn0 S0 2.388395 1_445
Mn0 S2 2.388395 1_544
Mn0 S1 2.388395 1_555
Mn0 S3 2.388395 1_454
Cu0 S0 2.390660 1_545
Cu0 S1 2.390660 1_555
Cu0 S3 2.459655 1_555
Cu0 S2 2.459655 1_655
Cu0 Mg0 2.746158 1_555
Cu1 S2 2.390660 1_555
Cu1 S3 2.390660 1_565
Cu1 S1 2.459655 1_555
Cu1 S0 2.459655 1_455
Cu1 Mg0 2.746158 1_566
S0 Sn0 2.820051 1_555
S1 Sn0 2.820051 1_555
S2 Sn0 2.820051 1_556
S3 Sn0 2.820051 1_556
