# generated using pymatgen
data_CoCu2O3
_symmetry_space_group_name_H-M   'P 1'
_cell_length_a   3.34675900
_cell_length_b   3.94128900
_cell_length_c   9.63143100
_cell_angle_alpha   90.00000000
_cell_angle_beta   90.00000000
_cell_angle_gamma   90.00000000
_symmetry_Int_Tables_number   1
_chemical_formula_structural   CoCu2O3
_chemical_formula_sum   'Co2 Cu4 O6'
_cell_volume   127.04381855
_cell_formula_units_Z   2
loop_
 _symmetry_equiv_pos_site_id
 _symmetry_equiv_pos_as_xyz
  1  'x, y, z'
loop_
 _atom_site_type_symbol
 _atom_site_label
 _atom_site_symmetry_multiplicity
 _atom_site_fract_x
 _atom_site_fract_y
 _atom_site_fract_z
 _atom_site_occupancy
  Co  Co0  1  0.19421900  0.50000000  0.50000000  1
  Co  Co1  1  0.80578100  0.00000000  0.00000000  1
  Cu  Cu0  1  0.68659900  0.00000000  0.66433600  1
  Cu  Cu1  1  0.68659900  0.00000000  0.33566400  1
  Cu  Cu2  1  0.31340100  0.50000000  0.83566400  1
  Cu  Cu3  1  0.31340100  0.50000000  0.16433600  1
  O  O0  1  0.39031100  0.00000000  0.16024400  1
  O  O1  1  0.39031100  0.00000000  0.83975600  1
  O  O2  1  0.60968900  0.50000000  0.33975600  1
  O  O3  1  0.60968900  0.50000000  0.66024400  1
  O  O4  1  0.98989000  0.50000000  0.00000000  1
  O  O5  1  0.01011000  0.00000000  0.50000000  1
loop_
_geom_bond_atom_site_label_1
_geom_bond_atom_site_label_2
_geom_bond_distance
_geom_bond_site_symmetry_2
Co0 O5 2.064728 1_555
Co0 O5 2.064728 1_565
Co0 O2 2.077366 1_555
Co0 O3 2.077366 1_555
Co0 O2 2.491797 1_455
Co0 O3 2.491797 1_455
Co1 O4 2.064728 1_555
Co1 O4 2.064728 1_545
Co1 O0 2.077366 1_555
Co1 O1 2.077366 1_554
Co1 O0 2.491797 1_655
Co1 O1 2.491797 1_654
Cu0 O5 1.917680 1_655
Cu0 O1 1.959042 1_555
Cu0 O3 1.987774 1_545
Cu0 O3 1.987774 1_555
Cu1 O5 1.917680 1_655
Cu1 O0 1.959042 1_555
Cu1 O2 1.987774 1_545
Cu1 O2 1.987774 1_555
Cu2 O4 1.917680 1_456
Cu2 O3 1.959042 1_555
Cu2 O1 1.987774 1_555
Cu2 O1 1.987774 1_565
Cu3 O4 1.917680 1_455
Cu3 O2 1.959042 1_555
Cu3 O0 1.987774 1_565
Cu3 O0 1.987774 1_555
