# generated using pymatgen
data_Cs3Np(Cl2O)2
_symmetry_space_group_name_H-M   'P 1'
_cell_length_a   8.67542054
_cell_length_b   8.67542054
_cell_length_c   13.03164538
_cell_angle_alpha   65.68935167
_cell_angle_beta   65.68935167
_cell_angle_gamma   50.82754010
_symmetry_Int_Tables_number   1
_chemical_formula_structural   Cs3Np(Cl2O)2
_chemical_formula_sum   'Cs6 Np2 Cl8 O4'
_cell_volume   676.78985650
_cell_formula_units_Z   2
loop_
 _symmetry_equiv_pos_site_id
 _symmetry_equiv_pos_as_xyz
  1  'x, y, z'
loop_
 _atom_site_type_symbol
 _atom_site_label
 _atom_site_symmetry_multiplicity
 _atom_site_fract_x
 _atom_site_fract_y
 _atom_site_fract_z
 _atom_site_occupancy
  Cs  Cs0  1  0.16141400  0.53424600  0.13088100  1
  Cs  Cs1  1  0.46575400  0.83858600  0.36911900  1
  Cs  Cs2  1  0.83858600  0.46575400  0.86911900  1
  Cs  Cs3  1  0.53424600  0.16141400  0.63088100  1
  Cs  Cs4  1  0.91260700  0.08739300  0.25000000  1
  Cs  Cs5  1  0.08739300  0.91260700  0.75000000  1
  Np  Np0  1  0.00000000  0.50000000  0.50000000  1
  Np  Np1  1  0.50000000  0.00000000  0.00000000  1
  Cl  Cl0  1  0.70457900  0.60627100  0.12934300  1
  Cl  Cl1  1  0.39372900  0.29542100  0.37065700  1
  Cl  Cl2  1  0.29542100  0.39372900  0.87065700  1
  Cl  Cl3  1  0.60627100  0.70457900  0.62934300  1
  Cl  Cl4  1  0.27784700  0.91599300  0.95272600  1
  Cl  Cl5  1  0.08400700  0.72215300  0.54727400  1
  Cl  Cl6  1  0.72215300  0.08400700  0.04727400  1
  Cl  Cl7  1  0.91599300  0.27784700  0.45272600  1
  O  O0  1  0.91378400  0.69218500  0.36800800  1
  O  O1  1  0.30781500  0.08621600  0.13199200  1
  O  O2  1  0.08621600  0.30781500  0.63199200  1
  O  O3  1  0.69218500  0.91378400  0.86800800  1
loop_
_geom_bond_atom_site_label_1
_geom_bond_atom_site_label_2
_geom_bond_distance
_geom_bond_site_symmetry_2
Cs0 O0 3.216089 1_455
Cs0 O1 3.233141 1_555
Cs1 O1 3.216089 1_565
Cs1 O0 3.233141 1_555
Cs2 O2 3.216089 1_655
Cs2 O3 3.233141 1_555
Cs3 O3 3.216089 1_545
Cs3 O2 3.233141 1_555
Cs4 O0 3.122133 1_545
Cs4 O1 3.122133 1_655
Cs5 O3 3.122133 1_455
Cs5 O2 3.122133 1_565
Np0 O0 1.849462 1_455
Np0 O2 1.849462 1_555
Np1 O1 1.849462 1_555
Np1 O3 1.849462 1_544
Cl0 Np1 2.778937 1_565
Cl0 Cs4 3.498331 1_555
Cl0 Cs1 3.563388 1_555
Cl0 Cs2 3.564380 1_554
Cl0 Cs0 3.608971 1_655
Cl1 Np0 2.778937 1_555
Cl1 Cs4 3.498331 1_555
Cl1 Cs0 3.563388 1_555
Cl1 Cs3 3.564380 1_555
Cl1 Cs1 3.608971 1_545
Cl2 Np1 2.778937 1_556
Cl2 Cs5 3.498331 1_555
Cl2 Cs3 3.563388 1_555
Cl2 Cs0 3.564380 1_556
Cl2 Cs2 3.608971 1_455
Cl3 Np0 2.778937 1_655
Cl3 Cs5 3.498331 1_555
Cl3 Cs2 3.563388 1_555
Cl3 Cs1 3.564380 1_555
Cl3 Cs3 3.608971 1_565
Cl4 Np1 2.783298 1_566
Cl4 Cs0 3.652804 1_556
Cl4 Cs5 3.664628 1_555
Cl4 Cs2 3.825633 1_465
Cl4 Cs2 3.904375 1_555
Cl4 Cs4 3.992820 1_466
Cl5 Np0 2.783298 1_555
Cl5 Cs1 3.652804 1_555
Cl5 Cs5 3.664628 1_555
Cl5 Cs3 3.825633 1_465
Cl5 Cs3 3.904375 1_555
Cl5 Cs4 3.992820 1_465
Cl6 Np1 2.783298 1_555
Cl6 Cs2 3.652804 1_554
Cl6 Cs4 3.664628 1_555
Cl6 Cs0 3.825633 1_645
Cl6 Cs0 3.904375 1_555
Cl6 Cs5 3.992820 1_644
Cl7 Np0 2.783298 1_655
Cl7 Cs3 3.652804 1_555
Cl7 Cs4 3.664628 1_555
Cl7 Cs1 3.825633 1_645
Cl7 Cs1 3.904375 1_555
Cl7 Cs5 3.992820 1_645
