# generated using pymatgen
data_Na5TaGa3SiP5O24
_symmetry_space_group_name_H-M   'P 1'
_cell_length_a   8.77015567
_cell_length_b   8.77463496
_cell_length_c   21.96934499
_cell_angle_alpha   90.02877604
_cell_angle_beta   90.27170841
_cell_angle_gamma   119.82559912
_symmetry_Int_Tables_number   1
_chemical_formula_structural   Na5TaGa3SiP5O24
_chemical_formula_sum   'Na15 Ta3 Ga9 Si3 P15 O72'
_cell_volume   1466.68684578
_cell_formula_units_Z   3
loop_
 _symmetry_equiv_pos_site_id
 _symmetry_equiv_pos_as_xyz
  1  'x, y, z'
loop_
 _atom_site_type_symbol
 _atom_site_label
 _atom_site_symmetry_multiplicity
 _atom_site_fract_x
 _atom_site_fract_y
 _atom_site_fract_z
 _atom_site_occupancy
  Na  Na0  1  0.63369958  0.99906795  0.25129266  1
  Na  Na1  1  0.36600068  0.36611308  0.25022244  1
  Na  Na2  1  0.00100561  0.63401355  0.25068686  1
  Na  Na3  1  0.30293083  0.33825830  0.58802872  1
  Na  Na4  1  0.03470583  0.70376619  0.58539891  1
  Na  Na5  1  0.66664461  0.96381732  0.58582109  1
  Na  Na6  1  0.29713605  0.96155479  0.08131623  1
  Na  Na7  1  0.97207158  0.67178711  0.91216832  1
  Na  Na8  1  0.70082432  0.02450783  0.90957750  1
  Na  Na9  1  0.99733254  0.99772924  0.49543007  1
  Na  Na10  1  0.00672337  0.01721535  0.99846235  1
  Na  Na11  1  0.65415170  0.32972175  0.82291608  1
  Na  Na12  1  0.66732205  0.33208792  0.33246907  1
  Na  Na13  1  0.33429123  0.65458117  0.16184329  1
  Na  Na14  1  0.33829761  0.66647492  0.66535729  1
  Ta  Ta0  1  0.66521078  0.33159646  0.97981897  1
  Ta  Ta1  1  0.66918676  0.33940879  0.47719212  1
  Ta  Ta2  1  0.33046636  0.66612916  0.80977400  1
  Ga  Ga0  1  0.99888887  0.99901210  0.35298938  1
  Ga  Ga1  1  0.01298110  0.01229398  0.85046731  1
  Ga  Ga2  1  0.99570481  0.99676343  0.65081357  1
  Ga  Ga3  1  0.99436151  0.00022673  0.14766549  1
  Ga  Ga4  1  0.66403796  0.33595883  0.68692185  1
  Ga  Ga5  1  0.66768702  0.33580241  0.18226378  1
  Ga  Ga6  1  0.32683386  0.65818019  0.01823819  1
  Ga  Ga7  1  0.33965868  0.66717345  0.51477364  1
  Ga  Ga8  1  0.33434036  0.66724150  0.31827042  1
  Si  Si0  1  0.66503265  0.62733199  0.58643526  1
  Si  Si1  1  0.05099992  0.37226163  0.91863277  1
  Si  Si2  1  0.32593358  0.95304155  0.91921796  1
  P  P0  1  0.28952237  -0.00004055  0.24946822  1
  P  P1  1  0.71094776  0.71106119  0.25025557  1
  P  P2  1  -0.00003660  0.28855956  0.25007451  1
  P  P3  1  0.29209851  0.28502996  0.74758978  1
  P  P4  1  0.99248327  0.70834042  0.74955139  1
  P  P5  1  0.71266338  0.00658047  0.74900716  1
  P  P6  1  0.95758414  0.33622821  0.58525841  1
  P  P7  1  0.37938082  0.04345967  0.58453925  1
  P  P8  1  0.96127599  0.62928748  0.08714674  1
  P  P9  1  0.66929265  0.03721426  0.08620873  1
  P  P10  1  0.37259533  0.33831408  0.08714646  1
  P  P11  1  0.61830775  0.66743892  0.91833443  1
  P  P12  1  0.62822455  0.95534619  0.41546310  1
  P  P13  1  0.32451521  0.37129327  0.41527752  1
  P  P14  1  0.04910910  0.67337673  0.41589954  1
  O  O0  1  0.20583539  0.03908843  0.30403037  1
  O  O1  1  0.83150031  0.78999031  0.30612933  1
  O  O2  1  0.95822793  0.16873798  0.30585224  1
  O  O3  1  0.20532967  0.17687303  0.80404707  1
  O  O4  1  0.97258656  0.79418078  0.80745052  1
  O  O5  1  0.81714782  0.02391358  0.80744840  1
  O  O6  1  0.78931681  0.97457256  0.69025319  1
  O  O7  1  0.18355191  0.21084383  0.68813099  1
  O  O8  1  0.02701921  0.81747085  0.69085643  1
  O  O9  1  0.78793814  0.82992729  0.19391937  1
  O  O10  1  0.04207261  0.21098285  0.19373538  1
  O  O11  1  0.17693814  0.96240846  0.19063195  1
  O  O12  1  0.87496016  0.37167031  0.63999958  1
  O  O13  1  0.50063564  0.11928996  0.63945728  1
  O  O14  1  0.61630732  0.49108557  0.64145884  1
  O  O15  1  0.87547466  0.51949285  0.14470925  1
  O  O16  1  0.63482897  0.12209993  0.14294324  1
  O  O17  1  0.47880701  0.35979920  0.14644082  1
  O  O18  1  0.47362145  0.31171635  0.03230047  1
  O  O19  1  0.84587352  0.53344767  0.02963220  1
  O  O20  1  0.68837145  0.15548042  0.02890221  1
  O  O21  1  0.47125359  0.16367253  0.52762363  1
  O  O22  1  0.70077500  0.53143228  0.52616307  1
  O  O23  1  0.83627114  0.30190089  0.52765111  1
  O  O24  1  0.54092201  0.70726231  0.97381263  1
  O  O25  1  0.16469591  0.45526595  0.97870953  1
  O  O26  1  0.29540481  0.84048932  0.98094226  1
  O  O27  1  0.54443371  0.84967395  0.47362969  1
  O  O28  1  0.30286697  0.45491906  0.47362288  1
  O  O29  1  0.15471247  0.69298300  0.47428692  1
  O  O30  1  0.12482411  0.63914437  0.35752348  1
  O  O31  1  0.51616932  0.87785499  0.35709092  1
  O  O32  1  0.36082932  0.48306486  0.35726363  1
  O  O33  1  0.13686272  0.50444306  0.85966913  1
  O  O34  1  0.37466960  0.86375076  0.86152172  1
  O  O35  1  0.50153530  0.63061233  0.86067631  1
  O  O36  1  0.02432532  0.83406305  0.41130362  1
  O  O37  1  0.81216049  0.97616438  0.41063971  1
  O  O38  1  0.16399863  0.18660488  0.41009305  1
  O  O39  1  0.00177106  0.17122933  0.90989124  1
  O  O40  1  0.15215087  0.96721438  0.90965056  1
  O  O41  1  0.80309128  0.82162738  0.90983504  1
  O  O42  1  0.97674325  0.17001653  0.58798658  1
  O  O43  1  0.19850052  0.03396109  0.58768454  1
  O  O44  1  0.84404175  0.82011026  0.58905505  1
  O  O45  1  0.97687823  0.81305353  0.08830296  1
  O  O46  1  0.83968866  0.03059861  0.08839519  1
  O  O47  1  0.19526417  0.16413334  0.08789000  1
  O  O48  1  0.68999395  0.16866620  0.74466257  1
  O  O49  1  0.47550906  0.30492794  0.74453955  1
  O  O50  1  0.83397838  0.52228092  0.74568465  1
  O  O51  1  0.68906072  0.52312114  0.24435334  1
  O  O52  1  0.83410401  0.31118136  0.24329668  1
  O  O53  1  0.47801916  0.16457365  0.24453134  1
  O  O54  1  0.63771349  0.49957586  0.92541090  1
  O  O55  1  0.85483331  0.36448691  0.92478756  1
  O  O56  1  0.50738665  0.14761580  0.92409030  1
  O  O57  1  0.64522137  0.14236052  0.42186412  1
  O  O58  1  0.49545086  0.35337457  0.42193769  1
  O  O59  1  0.86152233  0.50134162  0.42169861  1
  O  O60  1  0.36060119  0.50434861  0.08025161  1
  O  O61  1  0.14630428  0.65106377  0.08324235  1
  O  O62  1  0.50139897  0.85795797  0.07951520  1
  O  O63  1  0.35092128  0.85587856  0.57568161  1
  O  O64  1  0.49156838  0.64956240  0.57672256  1
  O  O65  1  0.14034464  0.50148950  0.57660926  1
  O  O66  1  0.31061952  0.83363394  0.25620316  1
  O  O67  1  0.52263931  0.68794364  0.25656652  1
  O  O68  1  0.16467834  0.47640519  0.25679299  1
  O  O69  1  0.31116056  0.47403555  0.75402155  1
  O  O70  1  0.16600844  0.69317638  0.75495584  1
  O  O71  1  0.52538490  0.83473686  0.75431609  1
loop_
_geom_bond_atom_site_label_1
_geom_bond_atom_site_label_2
_geom_bond_distance
_geom_bond_site_symmetry_2
Na0 O67 2.402373 1_555
Na0 O52 2.415715 1_565
Na0 O53 2.442521 1_565
Na0 O66 2.461503 1_555
Na0 O31 2.555551 1_555
Na0 O16 2.612252 1_565
Na0 O2 2.739480 1_565
Na0 O9 2.762702 1_555
Na1 O68 2.403508 1_555
Na1 O53 2.416043 1_555
Na1 O67 2.453599 1_555
Na1 O51 2.462320 1_555
Na1 O17 2.501219 1_555
Na1 O32 2.574915 1_555
Na1 O10 2.753517 1_555
Na1 O0 2.759414 1_555
Na2 O66 2.391968 1_555
Na2 O51 2.408122 1_455
Na2 O68 2.442144 1_555
Na2 O52 2.462937 1_455
Na2 O15 2.552545 1_455
Na2 O30 2.572418 1_555
Na2 O1 2.757914 1_455
Na2 O11 2.832885 1_555
Na3 O43 2.352796 1_555
Na3 O64 2.401989 1_555
Na3 O7 2.458142 1_555
Na3 O42 2.482365 1_455
Na3 O65 2.485181 1_555
Na3 O14 2.651669 1_555
Na3 O28 2.714461 1_555
Na3 O21 2.924579 1_555
Na4 O44 2.354567 1_455
Na4 O65 2.383902 1_555
Na4 O63 2.417007 1_555
Na4 O43 2.513908 1_565
Na4 O8 2.536486 1_555
Na4 O29 2.683024 1_555
Na4 O12 2.802082 1_455
Na4 O22 2.848463 1_455
Na5 O42 2.403373 1_565
Na5 O64 2.405438 1_555
Na5 O44 2.442569 1_555
Na5 O63 2.449276 1_555
Na5 O6 2.511091 1_555
Na5 O27 2.670515 1_555
Na5 O13 2.712874 1_565
Na5 O23 2.877269 1_565
Na6 O47 2.357855 1_565
Na6 O61 2.364309 1_555
Na6 O62 2.378561 1_555
Na6 O26 2.443910 1_554
Na6 O45 2.444191 1_455
Na6 O11 2.628841 1_555
Na6 O18 2.878251 1_565
Na6 O16 2.898054 1_565
Na7 O40 2.268417 1_655
Na7 O55 2.377074 1_555
Na7 O41 2.421808 1_555
Na7 O4 2.538472 1_555
Na7 O54 2.562748 1_555
Na7 O33 2.774929 1_655
Na7 O19 2.837571 1_556
Na7 O26 2.880428 1_655
Na8 O39 2.289861 1_655
Na8 O41 2.358341 1_545
Na8 O56 2.444235 1_555
Na8 O5 2.470224 1_555
Na8 O55 2.611910 1_555
Na8 O34 2.691225 1_545
Na8 O24 2.801199 1_545
Na8 O20 2.886070 1_556
Na9 O37 2.410063 1_555
Na9 O36 2.423628 1_655
Na9 O38 2.453061 1_665
Na9 O44 2.532271 1_555
Na9 O42 2.593201 1_565
Na9 O43 2.594038 1_665
Na10 O39 2.382177 1_555
Na10 O47 2.470270 1_556
Na10 O40 2.491084 1_545
Na10 O46 2.502353 1_456
Na10 O45 2.591420 1_446
Na10 O41 2.615490 1_445
Na11 O49 2.258719 1_555
Na11 O48 2.344376 1_555
Na11 O50 2.366135 1_555
Na11 O56 2.671221 1_555
Na11 O54 2.743336 1_555
Na11 O55 2.761784 1_555
Na12 O53 2.487673 1_555
Na12 O51 2.506494 1_555
Na12 O52 2.510936 1_555
Na12 O57 2.520339 1_555
Na12 O59 2.529539 1_555
Na12 O58 2.545230 1_555
Na13 O60 2.303957 1_555
Na13 O61 2.371347 1_555
Na13 O62 2.455747 1_555
Na13 O67 2.575004 1_555
Na13 O68 2.593783 1_555
Na13 O66 2.670996 1_555
Na14 O64 2.417365 1_555
Na14 O71 2.499709 1_555
Na14 O69 2.512012 1_555
Na14 O65 2.525126 1_555
Na14 O63 2.545195 1_555
Na14 O70 2.567607 1_555
Ga0 O1 1.970865 1_555
Ga0 O2 1.985917 1_565
Ga0 O0 1.989636 1_665
Ga0 O38 1.997470 1_665
Ga0 O37 2.004873 1_555
Ga0 O36 2.026389 1_655
Ga1 O3 1.888325 1_555
Ga1 O39 1.947996 1_555
Ga1 O40 1.949990 1_545
Ga1 O4 2.000517 1_445
Ga1 O5 2.003063 1_455
Ga1 O41 2.202300 1_445
Ga2 O6 1.931172 1_555
Ga2 O8 1.937329 1_655
Ga2 O7 1.955039 1_665
Ga2 O44 1.985618 1_555
Ga2 O42 2.120214 1_565
Ga2 O43 2.153991 1_665
Ga3 O10 1.960561 1_655
Ga3 O9 1.967483 1_545
Ga3 O46 1.987428 1_555
Ga3 O11 2.019803 1_645
Ga3 O45 2.041369 1_545
Ga3 O47 2.097773 1_655
Ga4 O14 1.894682 1_555
Ga4 O49 1.995655 1_555
Ga4 O12 2.006116 1_555
Ga4 O13 2.007297 1_555
Ga4 O50 2.028959 1_555
Ga4 O48 2.036498 1_555
Ga5 O15 1.921816 1_555
Ga5 O17 1.934552 1_555
Ga5 O16 1.950385 1_555
Ga5 O52 2.066419 1_555
Ga5 O51 2.070328 1_555
Ga5 O53 2.105548 1_555
Ga6 O25 1.847866 1_554
Ga6 O26 1.934981 1_554
Ga6 O24 1.968966 1_554
Ga6 O60 2.039969 1_555
Ga6 O61 2.115020 1_555
Ga6 O62 2.130158 1_555
Ga7 O27 1.939804 1_555
Ga7 O28 1.946259 1_555
Ga7 O29 1.955828 1_555
Ga7 O64 1.959309 1_555
Ga7 O63 2.091855 1_555
Ga7 O65 2.123971 1_555
Ga8 O31 1.933826 1_555
Ga8 O30 1.935314 1_555
Ga8 O32 1.942295 1_555
Ga8 O67 2.078670 1_555
Ga8 O66 2.082249 1_555
Ga8 O68 2.083845 1_555
O0 P0 1.533633 1_555
O1 P1 1.537113 1_555
O2 P2 1.537448 1_655
O3 P3 1.519844 1_555
O4 P4 1.532211 1_555
O5 P5 1.536643 1_555
O6 P5 1.546812 1_565
O7 P3 1.551537 1_555
O8 P4 1.545290 1_455
O9 P1 1.544115 1_555
O10 P2 1.544436 1_555
O11 P0 1.555035 1_565
O12 P6 1.516629 1_555
O13 P7 1.520675 1_555
O14 Si0 1.603529 1_555
O15 P8 1.543618 1_555
O16 P9 1.557655 1_555
O17 P10 1.553609 1_555
O18 P10 1.583314 1_555
O18 Ta0 1.977402 1_554
O19 P8 1.571080 1_555
O19 Ta0 2.008788 1_554
O20 P9 1.587621 1_555
O20 Ta0 1.975855 1_554
O21 P7 1.578233 1_555
O21 Ta1 1.993997 1_555
O22 Si0 1.680746 1_555
O22 Ta1 1.898490 1_555
O23 P6 1.578760 1_555
O23 Ta1 1.987250 1_555
O24 P11 1.520383 1_555
O25 Si1 1.590873 1_555
O26 Si2 1.621006 1_555
O27 P12 1.537878 1_555
O28 P13 1.535404 1_555
O29 P14 1.537136 1_555
O30 P14 1.543382 1_555
O31 P12 1.547625 1_555
O32 P13 1.543416 1_555
O33 Si1 1.652969 1_555
O33 Ta2 1.928827 1_555
O34 Si2 1.655442 1_555
O34 Ta2 1.942897 1_555
O35 P11 1.554311 1_555
O35 Ta2 2.011998 1_555
O36 P14 1.533043 1_555
O37 P12 1.534718 1_555
O38 P13 1.532960 1_555
O39 Si1 1.605064 1_555
O40 Si2 1.602516 1_555
O41 P11 1.521101 1_555
O42 P6 1.550049 1_555
O43 P7 1.548467 1_555
O44 Si0 1.639148 1_555
O45 P8 1.549164 1_555
O46 P9 1.524638 1_555
O47 P10 1.546207 1_555
O48 P5 1.533832 1_555
O49 P3 1.531026 1_555
O50 P4 1.531744 1_555
O51 P1 1.567762 1_555
O52 P2 1.569287 1_655
O53 P0 1.567685 1_555
O54 P11 1.572265 1_555
O54 Ta0 2.003019 1_555
O55 Si1 1.693583 1_655
O55 Ta0 1.962808 1_555
O56 Si2 1.659644 1_545
O56 Ta0 1.944276 1_555
O57 P12 1.578311 1_545
O57 Ta1 2.035970 1_555
O58 P13 1.589319 1_555
O58 Ta1 1.994632 1_555
O59 P14 1.591654 1_655
O59 Ta1 1.996932 1_555
O60 P10 1.519559 1_555
O61 P8 1.539485 1_455
O62 P9 1.535476 1_565
O63 P7 1.549161 1_565
O64 Si0 1.640156 1_555
O65 P6 1.548919 1_455
O66 P0 1.566740 1_565
O67 P1 1.567409 1_555
O68 P2 1.566729 1_555
O69 P3 1.588123 1_555
O69 Ta2 2.020414 1_555
O70 P4 1.596100 1_455
O70 Ta2 1.977704 1_555
O71 P5 1.588519 1_565
O71 Ta2 2.025178 1_555
