# generated using pymatgen
data_HfGePt
_symmetry_space_group_name_H-M   'P 1'
_cell_length_a   3.95850479
_cell_length_b   6.62339035
_cell_length_c   7.65494112
_cell_angle_alpha   90.00000000
_cell_angle_beta   90.00000000
_cell_angle_gamma   90.00000000
_symmetry_Int_Tables_number   1
_chemical_formula_structural   HfGePt
_chemical_formula_sum   'Hf4 Ge4 Pt4'
_cell_volume   200.70277642
_cell_formula_units_Z   4
loop_
 _symmetry_equiv_pos_site_id
 _symmetry_equiv_pos_as_xyz
  1  'x, y, z'
loop_
 _atom_site_type_symbol
 _atom_site_label
 _atom_site_symmetry_multiplicity
 _atom_site_fract_x
 _atom_site_fract_y
 _atom_site_fract_z
 _atom_site_occupancy
  Hf  Hf0  1  0.75000000  0.47107655  0.68311668  1
  Hf  Hf1  1  0.25000000  0.02892345  0.18311668  1
  Hf  Hf2  1  0.75000000  0.97107655  0.81688332  1
  Hf  Hf3  1  0.25000000  0.52892345  0.31688332  1
  Ge  Ge0  1  0.25000000  0.25008645  0.87871045  1
  Ge  Ge1  1  0.25000000  0.75008645  0.62128955  1
  Ge  Ge2  1  0.75000000  0.74991355  0.12128955  1
  Ge  Ge3  1  0.75000000  0.24991355  0.37871045  1
  Pt  Pt0  1  0.25000000  0.64420069  0.93517839  1
  Pt  Pt1  1  0.25000000  0.14420069  0.56482161  1
  Pt  Pt2  1  0.75000000  0.85579931  0.43517839  1
  Pt  Pt3  1  0.75000000  0.35579931  0.06482161  1
loop_
_geom_bond_atom_site_label_1
_geom_bond_atom_site_label_2
_geom_bond_distance
_geom_bond_site_symmetry_2
Hf0 Pt0 2.992545 1_555
Hf0 Pt0 2.992545 1_655
Hf0 Pt3 3.020040 1_556
Hf0 Pt1 3.069981 1_655
Hf0 Pt1 3.069981 1_555
Hf0 Pt2 3.177324 1_555
Hf1 Pt2 2.992545 1_445
Hf1 Pt2 2.992545 1_545
Hf1 Pt1 3.020040 1_555
Hf1 Pt3 3.069981 1_455
Hf1 Pt3 3.069981 1_555
Hf1 Pt0 3.177324 1_544
Hf2 Pt1 2.992545 1_565
Hf2 Pt1 2.992545 1_665
Hf2 Pt2 3.020040 1_555
Hf2 Pt0 3.069981 1_555
Hf2 Pt0 3.069981 1_655
Hf2 Pt3 3.177324 1_566
Hf3 Pt3 2.992545 1_455
Hf3 Pt3 2.992545 1_555
Hf3 Pt0 3.020040 1_554
Hf3 Pt2 3.069981 1_555
Hf3 Pt2 3.069981 1_455
Hf3 Pt1 3.177324 1_555
Ge0 Pt1 2.503059 1_555
Ge0 Pt3 2.537198 1_556
Ge0 Pt3 2.537198 1_456
Ge0 Pt0 2.645920 1_555
Ge0 Hf2 2.748911 1_545
Ge0 Hf2 2.748911 1_445
Ge0 Hf1 2.752393 1_556
Ge0 Hf0 2.881259 1_455
Ge0 Hf0 2.881259 1_555
Ge1 Pt0 2.503059 1_555
Ge1 Pt2 2.537198 1_455
Ge1 Pt2 2.537198 1_555
Ge1 Pt1 2.645920 1_565
Ge1 Hf0 2.748911 1_455
Ge1 Hf0 2.748911 1_555
Ge1 Hf3 2.752393 1_555
Ge1 Hf2 2.881259 1_455
Ge1 Hf2 2.881259 1_555
Ge2 Pt2 2.503059 1_555
Ge2 Pt0 2.537198 1_654
Ge2 Pt0 2.537198 1_554
Ge2 Pt3 2.645920 1_555
Ge2 Hf1 2.748911 1_665
Ge2 Hf1 2.748911 1_565
Ge2 Hf2 2.752393 1_554
Ge2 Hf3 2.881259 1_555
Ge2 Hf3 2.881259 1_655
Ge3 Pt3 2.503059 1_555
Ge3 Pt1 2.537198 1_655
Ge3 Pt1 2.537198 1_555
Ge3 Pt2 2.645920 1_545
Ge3 Hf3 2.748911 1_555
Ge3 Hf3 2.748911 1_655
Ge3 Hf0 2.752393 1_555
Ge3 Hf1 2.881259 1_655
Ge3 Hf1 2.881259 1_555
Pt0 Pt3 2.924237 1_456
Pt0 Pt3 2.924237 1_556
Pt1 Pt2 2.924237 1_445
Pt1 Pt2 2.924237 1_545
