# generated using pymatgen
data_Na14Zr8Si11SO48
_symmetry_space_group_name_H-M   'P 1'
_cell_length_a   18.53702434
_cell_length_b   9.27921027
_cell_length_c   23.05797398
_cell_angle_alpha   90.01272806
_cell_angle_beta   90.00771035
_cell_angle_gamma   120.00374294
_symmetry_Int_Tables_number   1
_chemical_formula_structural   Na14Zr8Si11SO48
_chemical_formula_sum   'Na42 Zr24 Si33 S3 O144'
_cell_volume   3434.68096604
_cell_formula_units_Z   3
loop_
 _symmetry_equiv_pos_site_id
 _symmetry_equiv_pos_as_xyz
  1  'x, y, z'
loop_
 _atom_site_type_symbol
 _atom_site_label
 _atom_site_symmetry_multiplicity
 _atom_site_fract_x
 _atom_site_fract_y
 _atom_site_fract_z
 _atom_site_occupancy
  Na  Na0  1  0.32040777  0.99998778  0.24997417  1
  Na  Na1  1  0.82029391  0.00001318  0.25001878  1
  Na  Na2  1  0.32055837  0.64248024  0.75078290  1
  Na  Na3  1  0.81669001  0.63163739  0.74934879  1
  Na  Na4  1  0.50063131  0.36465732  0.75097228  1
  Na  Na5  1  0.68456658  0.00274137  0.74931795  1
  Na  Na6  1  0.15073470  0.33535620  0.58084442  1
  Na  Na7  1  0.65045661  0.33285686  0.58406248  1
  Na  Na8  1  0.01650423  0.69457508  0.58349050  1
  Na  Na9  1  0.51732321  0.70222013  0.58298525  1
  Na  Na10  1  0.33315346  0.96489979  0.58354769  1
  Na  Na11  1  0.83175054  0.96899996  0.58337734  1
  Na  Na12  1  0.15113290  0.96755084  0.08159027  1
  Na  Na13  1  0.65106661  0.96835874  0.08155538  1
  Na  Na14  1  0.33179325  0.69624982  0.08341478  1
  Na  Na15  1  0.83171777  0.69569771  0.08367359  1
  Na  Na16  1  0.01730860  0.33767678  0.08333734  1
  Na  Na17  1  0.51708161  0.33681088  0.08346743  1
  Na  Na18  1  0.48288429  0.66694150  0.91647154  1
  Na  Na19  1  0.98386654  0.66220089  0.91672599  1
  Na  Na20  1  0.34996743  0.03269981  0.91652092  1
  Na  Na21  1  0.84857235  0.03539991  0.91662797  1
  Na  Na22  1  0.16749311  0.30419899  0.91909360  1
  Na  Na23  1  0.66637228  0.29823572  0.91633319  1
  Na  Na24  1  0.48382318  0.30400653  0.41636508  1
  Na  Na25  1  0.98362028  0.30417062  0.41657895  1
  Na  Na26  1  0.16705416  0.03166855  0.41837599  1
  Na  Na27  1  0.66700929  0.03217039  0.41861646  1
  Na  Na28  1  0.34867113  0.66317029  0.41646654  1
  Na  Na29  1  0.84851140  0.66225310  0.41652658  1
  Na  Na30  1  0.00090790  0.00093388  0.49970032  1
  Na  Na31  1  0.50073846  0.99948359  0.50120614  1
  Na  Na32  1  0.00136120  0.00197777  0.00037957  1
  Na  Na33  1  0.50044781  0.99993202  0.99871218  1
  Na  Na34  1  0.33371035  0.32693977  0.83445919  1
  Na  Na35  1  0.83780771  0.33422839  0.83097340  1
  Na  Na36  1  0.33837816  0.34894740  0.33180392  1
  Na  Na37  1  0.83829777  0.34895491  0.33201383  1
  Na  Na38  1  0.16386765  0.65112873  0.16796748  1
  Na  Na39  1  0.66387649  0.65099948  0.16818758  1
  Na  Na40  1  0.16346098  0.67607431  0.66785686  1
  Na  Na41  1  0.66711452  0.66722955  0.66677391  1
  Zr  Zr0  1  0.99385078  0.99628719  0.35207784  1
  Zr  Zr1  1  0.49388970  0.99642074  0.35219561  1
  Zr  Zr2  1  0.99461414  0.99142277  0.85260475  1
  Zr  Zr3  1  0.49915179  0.99990231  0.85063227  1
  Zr  Zr4  1  0.99584734  0.98782402  0.64727374  1
  Zr  Zr5  1  0.49969899  0.99970788  0.64943968  1
  Zr  Zr6  1  0.99572455  0.00363823  0.14790559  1
  Zr  Zr7  1  0.49568802  0.00376082  0.14779841  1
  Zr  Zr8  1  0.33528583  0.32820503  0.68310311  1
  Zr  Zr9  1  0.83727114  0.33524366  0.68652409  1
  Zr  Zr10  1  0.33920363  0.34876952  0.18508080  1
  Zr  Zr11  1  0.83921476  0.34892219  0.18506627  1
  Zr  Zr12  1  0.33361400  0.33521094  0.98254139  1
  Zr  Zr13  1  0.83331829  0.33324705  0.98243864  1
  Zr  Zr14  1  0.33363930  0.33383199  0.48202078  1
  Zr  Zr15  1  0.83409987  0.33256637  0.48239748  1
  Zr  Zr16  1  0.16702127  0.66583830  0.01762061  1
  Zr  Zr17  1  0.66685205  0.66652756  0.01797544  1
  Zr  Zr18  1  0.16660095  0.66650325  0.51759172  1
  Zr  Zr19  1  0.66640114  0.66715849  0.51748175  1
  Zr  Zr20  1  0.16477571  0.65130031  0.31494971  1
  Zr  Zr21  1  0.66478185  0.65105185  0.31498919  1
  Zr  Zr22  1  0.16472515  0.67771590  0.81579847  1
  Zr  Zr23  1  0.66686492  0.66735439  0.81484794  1
  Si  Si0  1  0.35085955  0.70244231  0.25019356  1
  Si  Si1  1  0.85079124  0.70238677  0.25017336  1
  Si  Si2  1  0.99963955  0.29751525  0.24981594  1
  Si  Si3  1  0.49964939  0.29747953  0.24982193  1
  Si  Si4  1  0.64783473  0.29504570  0.74999415  1
  Si  Si5  1  0.00161406  0.70470625  0.74972243  1
  Si  Si6  1  0.49850421  0.70285338  0.75002163  1
  Si  Si7  1  0.35061853  0.99779637  0.74991758  1
  Si  Si8  1  0.85258826  0.00193170  0.75027973  1
  Si  Si9  1  0.48159206  0.33321179  0.58255930  1
  Si  Si10  1  0.98145572  0.33393495  0.58299374  1
  Si  Si11  1  0.18619266  0.03957805  0.58256583  1
  Si  Si12  1  0.68652051  0.04021348  0.58400851  1
  Si  Si13  1  0.33283727  0.62642523  0.58446017  1
  Si  Si14  1  0.83186577  0.62379627  0.58372205  1
  Si  Si15  1  0.48205543  0.63069815  0.08236342  1
  Si  Si16  1  0.98205614  0.63052624  0.08212519  1
  Si  Si17  1  0.33160323  0.04099211  0.08473629  1
  Si  Si18  1  0.83170661  0.04081021  0.08489132  1
  Si  Si19  1  0.18675218  0.33197733  0.08358735  1
  Si  Si20  1  0.68684591  0.33196584  0.08352685  1
  Si  Si21  1  0.31276337  0.66551793  0.91489799  1
  Si  Si22  1  0.81285707  0.66409313  0.91679209  1
  Si  Si23  1  0.02032631  0.37305440  0.91665776  1
  Si  Si24  1  0.51936621  0.37208528  0.91651260  1
  Si  Si25  1  0.16707170  0.96395336  0.91817181  1
  Si  Si26  1  0.66648040  0.96146911  0.91667077  1
  Si  Si27  1  0.31127153  0.95921169  0.41517223  1
  Si  Si28  1  0.81127992  0.95920197  0.41510132  1
  Si  Si29  1  0.16669059  0.36959547  0.41771717  1
  Si  Si30  1  0.66679141  0.36967261  0.41797669  1
  Si  Si31  1  0.02076171  0.66801998  0.41647529  1
  Si  Si32  1  0.52069374  0.66800588  0.41631971  1
  S  S0  1  0.14692636  0.00003062  0.25001742  1
  S  S1  1  0.64692246  -0.00001732  0.24998975  1
  S  S2  1  0.14728683  0.29439670  0.74993072  1
  O  O0  1  0.10559291  0.01937859  0.30259920  1
  O  O1  1  0.60559824  0.01937470  0.30258693  1
  O  O2  1  0.40898233  0.79444648  0.30782418  1
  O  O3  1  0.90898558  0.79447328  0.30779250  1
  O  O4  1  0.48759406  0.17772853  0.30662380  1
  O  O5  1  0.98762836  0.17768028  0.30661714  1
  O  O6  1  0.10616309  0.19204588  0.80263251  1
  O  O7  1  0.60294835  0.17580522  0.80693258  1
  O  O8  1  0.48344274  0.79154840  0.80694887  1
  O  O9  1  0.98881846  0.79934279  0.80665182  1
  O  O10  1  0.41087312  0.03122834  0.80710030  1
  O  O11  1  0.91004553  0.02432708  0.80779460  1
  O  O12  1  0.39622894  0.97127984  0.69261006  1
  O  O13  1  0.89873256  0.97341433  0.69362106  1
  O  O14  1  0.09627836  0.21129736  0.69725085  1
  O  O15  1  0.58759449  0.20744802  0.69308416  1
  O  O16  1  0.01306646  0.82083087  0.69216880  1
  O  O17  1  0.51447392  0.82183178  0.69299409  1
  O  O18  1  0.39871095  0.82227142  0.19339245  1
  O  O19  1  0.89869266  0.82226258  0.19338595  1
  O  O20  1  0.01164188  0.20516052  0.19225239  1
  O  O21  1  0.51165541  0.20527367  0.19224223  1
  O  O22  1  0.09590735  0.98062956  0.19740258  1
  O  O23  1  0.59591850  0.98058355  0.19738576  1
  O  O24  1  0.43764775  0.36531546  0.63968662  1
  O  O25  1  0.93512154  0.36774329  0.63691930  1
  O  O26  1  0.24861407  0.13257497  0.63727989  1
  O  O27  1  0.74618917  0.12757420  0.64038354  1
  O  O28  1  0.31698067  0.50712607  0.64136047  1
  O  O29  1  0.81695287  0.50830772  0.64052818  1
  O  O30  1  0.43658420  0.50395956  0.13686309  1
  O  O31  1  0.93642441  0.50413171  0.13673945  1
  O  O32  1  0.31622576  0.12667012  0.14152631  1
  O  O33  1  0.81624962  0.12667791  0.14157878  1
  O  O34  1  0.24995531  0.36435528  0.13739829  1
  O  O35  1  0.75000429  0.36452954  0.13743963  1
  O  O36  1  0.22753944  0.29930111  0.02483659  1
  O  O37  1  0.72805765  0.29981063  0.02493851  1
  O  O38  1  0.42240039  0.54770446  0.02501428  1
  O  O39  1  0.92227288  0.54754961  0.02485866  1
  O  O40  1  0.34942859  0.15916232  0.02700251  1
  O  O41  1  0.84960663  0.15846662  0.02705652  1
  O  O42  1  0.22773237  0.15582784  0.52473121  1
  O  O43  1  0.72976893  0.15745190  0.52619362  1
  O  O44  1  0.34843355  0.53869779  0.52728836  1
  O  O45  1  0.84991233  0.54184069  0.52612416  1
  O  O46  1  0.42149784  0.30160644  0.52610940  1
  O  O47  1  0.92272565  0.29710540  0.52492568  1
  O  O48  1  0.26958389  0.69732943  0.97259966  1
  O  O49  1  0.77151447  0.70000743  0.97392978  1
  O  O50  1  0.07782892  0.45528029  0.97511634  1
  O  O51  1  0.57871864  0.45952264  0.97362848  1
  O  O52  1  0.14852688  0.84426582  0.97529172  1
  O  O53  1  0.65115026  0.84284131  0.97380594  1
  O  O54  1  0.27023295  0.84113498  0.47296771  1
  O  O55  1  0.77032821  0.84148567  0.47291627  1
  O  O56  1  0.14865118  0.45266467  0.47509473  1
  O  O57  1  0.64859298  0.45313157  0.47514540  1
  O  O58  1  0.07804126  0.70055442  0.47514032  1
  O  O59  1  0.57788324  0.70022399  0.47498254  1
  O  O60  1  0.06774494  0.63567524  0.36263975  1
  O  O61  1  0.56764663  0.63530984  0.36253953  1
  O  O62  1  0.25289567  0.87338063  0.35843001  1
  O  O63  1  0.75298421  0.87341543  0.35836145  1
  O  O64  1  0.18439630  0.49600157  0.36314626  1
  O  O65  1  0.68445593  0.49596712  0.36327943  1
  O  O66  1  0.06708401  0.49907361  0.86259754  1
  O  O67  1  0.56322476  0.49093904  0.85971539  1
  O  O68  1  0.18428721  0.87305315  0.86327594  1
  O  O69  1  0.68244823  0.87388239  0.85982363  1
  O  O70  1  0.25312523  0.63235036  0.85823700  1
  O  O71  1  0.75479852  0.63540022  0.85973533  1
  O  O72  1  0.01312320  0.83672343  0.40993928  1
  O  O73  1  0.51308333  0.83658312  0.40982607  1
  O  O74  1  0.40491428  0.97725107  0.41102933  1
  O  O75  1  0.90504644  0.97748774  0.41108492  1
  O  O76  1  0.08418207  0.18474888  0.40958487  1
  O  O77  1  0.58434487  0.18506134  0.40947275  1
  O  O78  1  0.01319839  0.18957068  0.90984831  1
  O  O79  1  0.51086723  0.18758500  0.91186954  1
  O  O80  1  0.08458505  0.98412093  0.90972742  1
  O  O81  1  0.58249258  0.97787746  0.91179702  1
  O  O82  1  0.40531135  0.83367625  0.91106786  1
  O  O83  1  0.90605095  0.83343934  0.91177731  1
  O  O84  1  0.48893318  0.16512234  0.58791861  1
  O  O85  1  0.99198332  0.16898196  0.59090667  1
  O  O86  1  0.09466732  0.02608550  0.58970016  1
  O  O87  1  0.59370550  0.02205267  0.58831172  1
  O  O88  1  0.41673168  0.81096761  0.58882276  1
  O  O89  1  0.91659158  0.81113005  0.58827511  1
  O  O90  1  0.49189463  0.81512535  0.09062482  1
  O  O91  1  0.99178109  0.81509440  0.09048103  1
  O  O92  1  0.41615633  0.02265607  0.08894699  1
  O  O93  1  0.91634156  0.02252794  0.08888633  1
  O  O94  1  0.09467980  0.16321423  0.09006222  1
  O  O95  1  0.59483953  0.16333911  0.09015257  1
  O  O96  1  0.34637638  0.17036153  0.74474864  1
  O  O97  1  0.83825073  0.16048906  0.74614507  1
  O  O98  1  0.23119208  0.31285120  0.74550484  1
  O  O99  1  0.73933177  0.31160300  0.74516555  1
  O  O100  1  0.41316699  0.51932364  0.74530917  1
  O  O101  1  0.91310090  0.52952561  0.74524049  1
  O  O102  1  0.34063028  0.51776399  0.24573574  1
  O  O103  1  0.84066241  0.51785787  0.24576601  1
  O  O104  1  0.40989251  0.29344768  0.24548901  1
  O  O105  1  0.90989524  0.29338662  0.24547185  1
  O  O106  1  0.23080571  0.14876715  0.24560558  1
  O  O107  1  0.73082406  0.14875868  0.24558755  1
  O  O108  1  0.32186081  0.49867311  0.92131729  1
  O  O109  1  0.82307692  0.49961609  0.92165242  1
  O  O110  1  0.42697705  0.35508410  0.92163146  1
  O  O111  1  0.92751033  0.35351433  0.92183015  1
  O  O112  1  0.25103276  0.14742167  0.92210197  1
  O  O113  1  0.75066070  0.14533816  0.92200946  1
  O  O114  1  0.32260147  0.14536787  0.42163059  1
  O  O115  1  0.82252630  0.14547360  0.42143727  1
  O  O116  1  0.25079135  0.35462027  0.42200909  1
  O  O117  1  0.75092076  0.35439433  0.42243489  1
  O  O118  1  0.42772774  0.50169924  0.42163922  1
  O  O119  1  0.92783611  0.50161628  0.42166601  1
  O  O120  1  0.17722912  0.49858176  0.07842480  1
  O  O121  1  0.67715182  0.49829739  0.07829140  1
  O  O122  1  0.07369460  0.64562871  0.07786781  1
  O  O123  1  0.57366182  0.64577435  0.07786767  1
  O  O124  1  0.24987051  0.85434370  0.07821619  1
  O  O125  1  0.74987063  0.85440496  0.07849094  1
  O  O126  1  0.17714423  0.85481292  0.57826680  1
  O  O127  1  0.67794804  0.85528546  0.57813276  1
  O  O128  1  0.24921443  0.64400765  0.57851805  1
  O  O129  1  0.74993633  0.64633253  0.57818038  1
  O  O130  1  0.07349282  0.50138075  0.57793055  1
  O  O131  1  0.57313004  0.50165469  0.57854183  1
  O  O132  1  0.15638098  0.85138291  0.25442501  1
  O  O133  1  0.65640665  0.85136507  0.25442582  1
  O  O134  1  0.26314980  0.70657594  0.25454426  1
  O  O135  1  0.76314058  0.70658697  0.25451466  1
  O  O136  1  0.08179858  0.48222301  0.25421447  1
  O  O137  1  0.58180151  0.48225098  0.25419308  1
  O  O138  1  0.15676920  0.46133793  0.75435914  1
  O  O139  1  0.65512312  0.47848796  0.75502395  1
  O  O140  1  0.08371100  0.68420189  0.75421216  1
  O  O141  1  0.58215689  0.68551414  0.75474482  1
  O  O142  1  0.26253421  0.82139358  0.75492654  1
  O  O143  1  0.76133812  0.82974795  0.75462850  1
loop_
_geom_bond_atom_site_label_1
_geom_bond_atom_site_label_2
_geom_bond_distance
_geom_bond_site_symmetry_2
Na0 O104 2.379089 1_565
Na0 O134 2.379165 1_555
Na0 O132 2.638935 1_555
Na0 O106 2.639729 1_565
Na0 O62 2.780641 1_555
Na0 O32 2.780858 1_565
Na0 O4 2.986140 1_565
Na0 O18 2.986954 1_555
Na1 O105 2.378785 1_555
Na1 O135 2.379457 1_545
Na1 O133 2.636570 1_545
Na1 O107 2.637339 1_555
Na1 O63 2.777382 1_545
Na1 O33 2.780014 1_555
Na1 O5 2.987693 1_555
Na1 O19 2.989072 1_545
Na2 O142 2.389152 1_555
Na2 O100 2.496191 1_555
Na2 O138 2.635634 1_555
Na2 O98 2.654605 1_555
Na2 O70 2.755658 1_555
Na2 O28 2.804096 1_555
Na2 O8 2.920348 1_555
Na2 O12 2.966073 1_555
Na3 O101 2.407138 1_555
Na3 O143 2.516617 1_555
Na3 O99 2.573991 1_555
Na3 O139 2.598085 1_555
Na3 O29 2.758620 1_555
Na3 O71 2.799427 1_555
Na4 O96 2.508247 1_555
Na4 O139 2.510075 1_555
Na4 O141 2.579854 1_555
Na4 O100 2.651922 1_555
Na4 O67 2.764878 1_555
Na4 O24 2.820276 1_555
Na4 O15 2.976564 1_555
Na4 O10 2.978223 1_555
Na5 O97 2.468497 1_555
Na5 O99 2.518727 1_555
Na5 O141 2.587639 1_545
Na5 O143 2.627128 1_545
Na5 O27 2.763065 1_555
Na5 O69 2.806809 1_545
Na6 O128 2.511827 1_555
Na6 O86 2.524859 1_555
Na6 O85 2.560052 1_455
Na6 O130 2.575687 1_555
Na6 O56 2.678667 1_555
Na6 O14 2.896288 1_555
Na6 O42 2.977242 1_555
Na6 O28 3.011623 1_555
Na7 O87 2.529760 1_555
Na7 O129 2.552593 1_555
Na7 O84 2.595149 1_555
Na7 O131 2.601852 1_555
Na7 O57 2.755670 1_555
Na7 O15 2.770785 1_555
Na7 O29 2.973873 1_555
Na7 O43 2.997319 1_555
Na8 O130 2.498019 1_555
Na8 O89 2.572049 1_455
Na8 O126 2.581589 1_555
Na8 O86 2.669221 1_565
Na8 O58 2.735602 1_555
Na8 O16 2.780206 1_555
Na8 O25 2.901304 1_455
Na8 O45 2.985913 1_455
Na9 O88 2.528874 1_555
Na9 O131 2.543574 1_555
Na9 O87 2.573883 1_565
Na9 O127 2.581868 1_555
Na9 O59 2.735657 1_555
Na9 O17 2.779627 1_555
Na10 O84 2.536713 1_565
Na10 O126 2.543034 1_555
Na10 O128 2.582039 1_555
Na10 O88 2.582358 1_555
Na10 O12 2.761254 1_555
Na10 O54 2.799784 1_555
Na10 O26 2.974868 1_565
Na10 O46 3.013781 1_565
Na11 O127 2.499522 1_555
Na11 O129 2.595668 1_555
Na11 O85 2.604474 1_565
Na11 O89 2.633675 1_555
Na11 O55 2.798962 1_555
Na11 O13 2.820169 1_555
Na11 O27 2.956727 1_565
Na11 O47 2.966024 1_565
Na12 O94 2.515902 1_565
Na12 O124 2.526351 1_555
Na12 O91 2.567081 1_455
Na12 O122 2.588930 1_555
Na12 O52 2.694817 1_554
Na12 O22 2.884197 1_555
Na12 O36 2.972659 1_565
Na12 O32 2.989059 1_565
Na13 O95 2.506982 1_565
Na13 O125 2.532684 1_555
Na13 O90 2.564337 1_555
Na13 O123 2.594307 1_555
Na13 O53 2.744033 1_554
Na13 O23 2.882317 1_555
Na13 O37 2.968639 1_565
Na13 O33 2.991434 1_565
Na14 O120 2.516071 1_555
Na14 O124 2.588557 1_555
Na14 O90 2.603455 1_555
Na14 O92 2.626431 1_565
Na14 O48 2.805279 1_554
Na14 O18 2.807826 1_555
Na14 O34 2.943656 1_555
Na14 O38 2.974801 1_555
Na15 O121 2.516129 1_555
Na15 O125 2.592219 1_555
Na15 O91 2.601523 1_555
Na15 O93 2.629545 1_565
Na15 O49 2.773848 1_554
Na15 O19 2.803541 1_555
Na15 O35 2.936237 1_555
Na15 O39 2.975628 1_555
Na16 O122 2.507403 1_555
Na16 O93 2.568547 1_455
Na16 O120 2.569745 1_555
Na16 O94 2.650279 1_555
Na16 O50 2.730169 1_554
Na16 O20 2.775294 1_555
Na16 O31 2.909593 1_455
Na16 O41 2.990189 1_455
Na17 O123 2.515746 1_555
Na17 O92 2.561208 1_555
Na17 O121 2.572442 1_555
Na17 O95 2.648203 1_555
Na17 O21 2.769337 1_555
Na17 O51 2.778006 1_554
Na17 O30 2.909015 1_555
Na17 O40 2.990852 1_555
Na18 O81 2.533325 1_555
Na18 O110 2.542256 1_555
Na18 O108 2.588259 1_555
Na18 O82 2.588838 1_555
Na18 O38 2.739793 1_556
Na18 O8 2.775583 1_555
Na19 O111 2.513426 1_555
Na19 O109 2.583739 1_555
Na19 O80 2.618687 1_655
Na19 O83 2.628848 1_555
Na19 O39 2.727492 1_556
Na19 O9 2.820357 1_555
Na19 O66 2.926363 1_655
Na19 O52 2.972374 1_655
Na20 O82 2.524616 1_545
Na20 O112 2.542772 1_555
Na20 O79 2.585738 1_555
Na20 O110 2.594134 1_555
Na20 O10 2.767063 1_555
Na20 O40 2.806635 1_556
Na20 O68 2.929537 1_545
Na20 O48 2.990220 1_545
Na21 O113 2.490388 1_555
Na21 O111 2.559086 1_555
Na21 O83 2.580055 1_545
Na21 O78 2.649112 1_655
Na21 O11 2.779265 1_555
Na21 O41 2.786517 1_556
Na21 O69 2.971027 1_545
Na21 O49 3.004680 1_545
Na22 O108 2.506573 1_555
Na22 O78 2.512869 1_555
Na22 O80 2.581556 1_545
Na22 O112 2.602374 1_555
Na22 O36 2.689951 1_556
Na22 O6 2.898505 1_555
Na22 O50 2.954117 1_555
Na22 O70 2.988171 1_555
Na23 O79 2.532592 1_555
Na23 O109 2.552654 1_555
Na23 O81 2.577308 1_545
Na23 O113 2.586184 1_555
Na23 O37 2.749788 1_556
Na23 O7 2.774580 1_555
Na24 O118 2.523663 1_555
Na24 O114 2.591058 1_555
Na24 O77 2.602399 1_555
Na24 O74 2.629102 1_545
Na24 O46 2.777353 1_555
Na24 O4 2.803843 1_555
Na24 O61 2.937769 1_555
Na24 O57 2.975211 1_555
Na25 O119 2.516847 1_555
Na25 O115 2.588570 1_555
Na25 O76 2.606693 1_655
Na25 O75 2.628817 1_545
Na25 O47 2.728846 1_555
Na25 O5 2.810311 1_555
Na25 O60 2.940373 1_655
Na25 O56 2.976580 1_655
Na26 O72 2.507900 1_545
Na26 O114 2.527869 1_555
Na26 O76 2.569268 1_555
Na26 O116 2.597031 1_555
Na26 O42 2.703410 1_555
Na26 O0 2.882149 1_555
Na26 O58 2.967823 1_545
Na26 O62 2.989502 1_545
Na27 O73 2.509386 1_545
Na27 O115 2.527636 1_555
Na27 O77 2.565061 1_555
Na27 O117 2.591473 1_555
Na27 O43 2.739191 1_555
Na27 O1 2.886461 1_555
Na27 O59 2.969721 1_545
Na27 O63 2.998005 1_545
Na28 O116 2.512081 1_555
Na28 O74 2.560836 1_555
Na28 O118 2.569601 1_555
Na28 O73 2.645149 1_555
Na28 O2 2.765726 1_555
Na28 O44 2.803566 1_555
Na28 O64 2.909429 1_555
Na28 O54 2.989884 1_555
Na29 O117 2.506718 1_555
Na29 O119 2.567135 1_555
Na29 O75 2.569971 1_555
Na29 O72 2.648543 1_655
Na29 O45 2.768680 1_555
Na29 O3 2.770295 1_555
Na29 O65 2.905472 1_555
Na29 O55 2.994533 1_555
Na30 O89 2.639209 1_445
Na30 O86 2.640991 1_555
Na30 O76 2.641764 1_555
Na30 O75 2.644283 1_445
Na30 O72 2.645855 1_545
Na30 O85 2.671767 1_455
Na31 O87 2.585663 1_565
Na31 O84 2.596737 1_565
Na31 O88 2.616197 1_555
Na31 O73 2.668621 1_555
Na31 O74 2.674617 1_555
Na31 O77 2.678557 1_565
Na32 O94 2.629887 1_555
Na32 O83 2.641081 1_444
Na32 O93 2.643149 1_455
Na32 O80 2.651977 1_544
Na32 O91 2.654938 1_445
Na32 O78 2.656217 1_554
Na33 O81 2.585188 1_555
Na33 O79 2.596978 1_565
Na33 O82 2.617406 1_555
Na33 O92 2.673038 1_566
Na33 O95 2.674019 1_566
Na33 O90 2.680892 1_556
Na34 O110 2.577729 1_555
Na34 O112 2.580049 1_555
Na34 O96 2.604793 1_555
Na34 O108 2.635814 1_555
Na34 O100 2.637157 1_555
Na34 O98 2.754261 1_555
Na35 O97 2.537085 1_555
Na35 O101 2.571512 1_555
Na35 O111 2.624346 1_555
Na35 O99 2.628038 1_555
Na35 O109 2.686887 1_555
Na35 O113 2.694217 1_555
Na36 O102 2.515966 1_555
Na36 O104 2.582000 1_555
Na36 O118 2.587078 1_555
Na36 O116 2.655441 1_555
Na36 O114 2.719081 1_555
Na36 O106 2.769464 1_555
Na37 O103 2.519114 1_555
Na37 O119 2.584794 1_555
Na37 O105 2.587272 1_555
Na37 O117 2.656228 1_555
Na37 O115 2.711441 1_555
Na37 O107 2.772581 1_555
Na38 O136 2.518586 1_555
Na38 O120 2.584063 1_555
Na38 O134 2.586210 1_555
Na38 O122 2.650740 1_555
Na38 O124 2.715914 1_555
Na38 O132 2.775373 1_555
Na39 O137 2.513754 1_555
Na39 O135 2.581359 1_555
Na39 O121 2.590846 1_555
Na39 O123 2.655956 1_555
Na39 O125 2.715624 1_555
Na39 O133 2.772342 1_555
Na40 O140 2.503629 1_555
Na40 O126 2.581366 1_555
Na40 O142 2.596701 1_555
Na40 O130 2.646200 1_555
Na40 O128 2.707868 1_555
Na40 O138 2.778257 1_555
Na41 O143 2.606138 1_555
Na41 O131 2.618285 1_555
Na41 O129 2.620312 1_555
Na41 O139 2.621023 1_555
Na41 O141 2.625156 1_555
Na41 O127 2.629463 1_555
O0 S0 1.492316 1_555
O0 Zr0 2.279240 1_445
O1 S1 1.492660 1_555
O1 Zr1 2.280666 1_545
O2 Si0 1.653693 1_555
O2 Zr1 2.021159 1_555
O3 Si1 1.654148 1_555
O3 Zr0 2.019109 1_555
O4 Si3 1.659060 1_555
O4 Zr1 2.036013 1_545
O5 Si2 1.659681 1_555
O5 Zr0 2.034730 1_545
O6 S2 1.495495 1_555
O6 Zr2 2.284907 1_445
O7 Si4 1.649374 1_555
O7 Zr3 2.059596 1_545
O8 Si6 1.645518 1_555
O8 Zr3 2.067179 1_555
O9 Si5 1.660848 1_655
O9 Zr2 2.029446 1_555
O10 Si7 1.653834 1_545
O10 Zr3 2.060420 1_545
O11 Si8 1.647566 1_555
O11 Zr2 2.024036 1_545
O12 Si7 1.652174 1_555
O12 Zr5 2.057643 1_555
O13 Si8 1.653779 1_565
O13 Zr4 2.039750 1_555
O14 S2 1.494726 1_555
O14 Zr4 2.287208 1_445
O15 Si4 1.649535 1_555
O15 Zr5 2.059340 1_545
O16 Si5 1.655058 1_555
O16 Zr4 2.017408 1_455
O17 Si6 1.646044 1_555
O17 Zr5 2.064139 1_555
O18 Si0 1.659243 1_555
O18 Zr7 2.036298 1_565
O19 Si1 1.659353 1_555
O19 Zr6 2.035016 1_565
O20 Si2 1.654055 1_455
O20 Zr6 2.019083 1_455
O21 Si3 1.653573 1_555
O21 Zr7 2.019848 1_555
O22 S0 1.492644 1_565
O22 Zr6 2.278818 1_465
O23 S1 1.492284 1_565
O23 Zr7 2.281408 1_565
O24 Si9 1.652344 1_555
O24 Zr8 2.017029 1_555
O25 Si10 1.628433 1_555
O25 Zr9 2.035413 1_555
O26 Si11 1.635751 1_555
O26 Zr8 2.018613 1_555
O27 Si12 1.634834 1_555
O27 Zr9 2.107277 1_555
O28 Si13 1.645763 1_555
O28 Zr8 2.088543 1_555
O29 Si14 1.626329 1_555
O29 Zr9 2.109773 1_555
O30 Si15 1.637761 1_555
O30 Zr10 1.992448 1_555
O31 Si16 1.638791 1_555
O31 Zr11 1.992180 1_555
O32 Si17 1.629202 1_555
O32 Zr10 2.135036 1_555
O33 Si18 1.628936 1_555
O33 Zr11 2.135541 1_555
O34 Si19 1.627829 1_555
O34 Zr10 2.050766 1_555
O35 Si20 1.628798 1_555
O35 Zr11 2.049579 1_555
O36 Si19 1.651694 1_555
O36 Zr12 2.067335 1_554
O37 Si20 1.650972 1_555
O37 Zr13 2.063742 1_554
O38 Si15 1.646814 1_555
O38 Zr12 2.075787 1_554
O39 Si16 1.646307 1_555
O39 Zr13 2.085527 1_554
O40 Si17 1.649882 1_555
O40 Zr12 2.070067 1_554
O41 Si18 1.648899 1_555
O41 Zr13 2.066472 1_554
O42 Si11 1.644715 1_555
O42 Zr14 2.076159 1_555
O43 Si12 1.652884 1_555
O43 Zr15 2.063685 1_555
O44 Si13 1.648961 1_555
O44 Zr14 2.063034 1_555
O45 Si14 1.645653 1_555
O45 Zr15 2.074426 1_555
O46 Si9 1.641297 1_555
O46 Zr14 2.064483 1_555
O47 Si10 1.649868 1_555
O47 Zr15 2.075865 1_555
O48 Si21 1.653603 1_555
O48 Zr16 2.054909 1_556
O49 Si22 1.640011 1_555
O49 Zr17 2.071216 1_556
O50 Si23 1.649564 1_555
O50 Zr16 2.068695 1_556
O51 Si24 1.646076 1_555
O51 Zr17 2.065068 1_556
O52 Si25 1.644759 1_555
O52 Zr16 2.092769 1_556
O53 Si26 1.648014 1_555
O53 Zr17 2.067742 1_556
O54 Si27 1.649986 1_555
O54 Zr18 2.064681 1_555
O55 Si28 1.648692 1_555
O55 Zr19 2.066061 1_555
O56 Si29 1.647358 1_555
O56 Zr18 2.084924 1_555
O57 Si30 1.646855 1_555
O57 Zr19 2.085545 1_555
O58 Si31 1.651417 1_555
O58 Zr18 2.066736 1_555
O59 Si32 1.650865 1_555
O59 Zr19 2.061567 1_555
O60 Si31 1.628211 1_555
O60 Zr20 2.050657 1_555
O61 Si32 1.628360 1_555
O61 Zr21 2.050163 1_555
O62 Si27 1.629208 1_555
O62 Zr20 2.133567 1_555
O63 Si28 1.628476 1_555
O63 Zr21 2.134363 1_555
O64 Si29 1.637860 1_555
O64 Zr20 1.992162 1_555
O65 Si30 1.639583 1_555
O65 Zr21 1.992291 1_555
O66 Si23 1.630873 1_555
O66 Zr22 2.046691 1_555
O67 Si24 1.642137 1_555
O67 Zr23 2.072910 1_555
O68 Si25 1.638402 1_555
O68 Zr22 1.989227 1_555
O69 Si26 1.645151 1_555
O69 Zr23 2.068079 1_555
O70 Si21 1.637969 1_555
O70 Zr22 2.123594 1_555
O71 Si22 1.634897 1_555
O71 Zr23 2.073454 1_555
O72 Si31 1.647765 1_555
O72 Zr0 2.151663 1_455
O73 Si32 1.646221 1_555
O73 Zr1 2.149582 1_555
O74 Si27 1.661264 1_555
O74 Zr1 2.073543 1_555
O75 Si28 1.662418 1_555
O75 Zr0 2.074849 1_555
O76 Si29 1.640895 1_555
O76 Zr0 2.165665 1_445
O77 Si30 1.640159 1_555
O77 Zr1 2.163974 1_545
O78 Si23 1.647966 1_555
O78 Zr2 2.146355 1_445
O79 Si24 1.642391 1_555
O79 Zr3 2.166676 1_545
O80 Si25 1.642274 1_555
O80 Zr2 2.152540 1_455
O81 Si26 1.642173 1_555
O81 Zr3 2.175503 1_555
O82 Si21 1.645785 1_555
O82 Zr3 2.159900 1_555
O83 Si22 1.658984 1_555
O83 Zr2 2.073730 1_555
O84 Si9 1.636743 1_555
O84 Zr5 2.171479 1_545
O85 Si10 1.647138 1_555
O85 Zr4 2.154417 1_545
O86 Si11 1.645861 1_555
O86 Zr4 2.143457 1_445
O87 Si12 1.645751 1_555
O87 Zr5 2.169271 1_545
O88 Si13 1.642402 1_555
O88 Zr5 2.165797 1_555
O89 Si14 1.663987 1_555
O89 Zr4 2.070438 1_555
O90 Si15 1.638876 1_555
O90 Zr7 2.163929 1_565
O91 Si16 1.641294 1_555
O91 Zr6 2.165754 1_565
O92 Si17 1.661829 1_555
O92 Zr7 2.074552 1_555
O93 Si18 1.662769 1_555
O93 Zr6 2.074991 1_555
O94 Si19 1.647641 1_555
O94 Zr6 2.149726 1_455
O95 Si20 1.646728 1_555
O95 Zr7 2.148764 1_555
O96 Si7 1.646349 1_545
O96 Zr8 2.123661 1_555
O97 Si8 1.623435 1_555
O97 Zr9 2.133121 1_555
O98 S2 1.480723 1_555
O98 Zr8 2.353681 1_555
O99 Si4 1.628540 1_555
O99 Zr9 2.185173 1_555
O100 Si6 1.649252 1_555
O100 Zr8 2.173563 1_555
O101 Si5 1.636345 1_655
O101 Zr9 2.126715 1_555
O102 Si0 1.630373 1_555
O102 Zr10 2.091247 1_555
O103 Si1 1.629686 1_555
O103 Zr11 2.091391 1_555
O104 Si3 1.648452 1_555
O104 Zr10 2.143194 1_555
O105 Si2 1.647803 1_555
O105 Zr11 2.144123 1_555
O106 S0 1.478752 1_555
O106 Zr10 2.387848 1_555
O107 S1 1.479127 1_555
O107 Zr11 2.388273 1_555
O108 Si21 1.645735 1_555
O108 Zr12 2.161580 1_555
O109 Si22 1.633103 1_555
O109 Zr13 2.162817 1_555
O110 Si24 1.643697 1_555
O110 Zr12 2.164100 1_555
O111 Si23 1.641767 1_655
O111 Zr13 2.170121 1_555
O112 Si25 1.636703 1_545
O112 Zr12 2.156969 1_555
O113 Si26 1.642656 1_545
O113 Zr13 2.157752 1_555
O114 Si27 1.639262 1_545
O114 Zr14 2.163361 1_555
O115 Si28 1.640688 1_545
O115 Zr15 2.159185 1_555
O116 Si29 1.635890 1_555
O116 Zr14 2.146238 1_555
O117 Si30 1.638234 1_555
O117 Zr15 2.154525 1_555
O118 Si32 1.645216 1_555
O118 Zr14 2.165936 1_555
O119 Si31 1.644936 1_655
O119 Zr15 2.171750 1_555
O120 Si19 1.645701 1_555
O120 Zr16 2.169056 1_555
O121 Si20 1.645141 1_555
O121 Zr17 2.169448 1_555
O122 Si16 1.636106 1_455
O122 Zr16 2.152715 1_555
O123 Si15 1.635959 1_555
O123 Zr17 2.143930 1_555
O124 Si17 1.641099 1_565
O124 Zr16 2.163822 1_555
O125 Si18 1.640270 1_565
O125 Zr17 2.160961 1_555
O126 Si11 1.640030 1_565
O126 Zr18 2.169355 1_555
O127 Si12 1.647844 1_565
O127 Zr19 2.161965 1_555
O128 Si13 1.643516 1_555
O128 Zr18 2.163702 1_555
O129 Si14 1.638348 1_555
O129 Zr19 2.166296 1_555
O130 Si10 1.639371 1_455
O130 Zr18 2.149193 1_555
O131 Si9 1.636609 1_555
O131 Zr19 2.162440 1_555
O132 S0 1.478321 1_565
O132 Zr20 2.389327 1_555
O133 S1 1.478410 1_565
O133 Zr21 2.391417 1_555
O134 Si0 1.648462 1_555
O134 Zr20 2.143361 1_555
O135 Si1 1.647675 1_555
O135 Zr21 2.143742 1_555
O136 Si2 1.629921 1_455
O136 Zr20 2.091299 1_555
O137 Si3 1.630175 1_555
O137 Zr21 2.091282 1_555
O138 S2 1.472612 1_555
O138 Zr22 2.400533 1_555
O139 Si4 1.642892 1_555
O139 Zr23 2.153808 1_555
O140 Si5 1.628632 1_555
O140 Zr22 2.089336 1_555
O141 Si6 1.640675 1_555
O141 Zr23 2.163048 1_555
O142 Si7 1.638877 1_555
O142 Zr22 2.149141 1_555
O143 Si8 1.649615 1_565
O143 Zr23 2.151273 1_555
