# generated using pymatgen
data_MgAlH4O2F5
_symmetry_space_group_name_H-M   'P 1'
_cell_length_a   7.14467217
_cell_length_b   7.14467217
_cell_length_c   7.14467217
_cell_angle_alpha   124.73824528
_cell_angle_beta   119.51733913
_cell_angle_gamma   86.41581077
_symmetry_Int_Tables_number   1
_chemical_formula_structural   MgAlH4O2F5
_chemical_formula_sum   'Mg2 Al2 H8 O4 F10'
_cell_volume   248.36390395
_cell_formula_units_Z   2
loop_
 _symmetry_equiv_pos_site_id
 _symmetry_equiv_pos_as_xyz
  1  'x, y, z'
loop_
 _atom_site_type_symbol
 _atom_site_label
 _atom_site_symmetry_multiplicity
 _atom_site_fract_x
 _atom_site_fract_y
 _atom_site_fract_z
 _atom_site_occupancy
  Mg  Mg0  1  0.50000000  0.50000000  0.00000000  1
  Mg  Mg1  1  0.00000000  0.00000000  0.00000000  1
  Al  Al0  1  0.50000000  0.50000000  0.50000000  1
  Al  Al1  1  0.00000000  0.50000000  0.00000000  1
  H  H0  1  0.98822900  0.72088600  0.51640200  1
  H  H1  1  0.51177100  0.02817200  0.73265700  1
  H  H2  1  0.79551500  0.27911400  0.26734300  1
  H  H3  1  0.70448500  0.97182800  0.48359800  1
  H  H4  1  0.20448500  0.72088600  0.73265700  1
  H  H5  1  0.48822900  0.97182800  0.26734300  1
  H  H6  1  0.01177100  0.27911400  0.48359800  1
  H  H7  1  0.29551500  0.02817200  0.51640200  1
  O  O0  1  0.42313200  0.13261400  0.70948200  1
  O  O1  1  0.92313200  0.21365000  0.29051800  1
  O  O2  1  0.07686800  0.78635000  0.70948200  1
  O  O3  1  0.57686800  0.86738600  0.29051800  1
  F  F0  1  0.91981300  0.18819500  0.85591400  1
  F  F1  1  0.25000000  0.57091800  0.32091800  1
  F  F2  1  0.75000000  0.42908200  0.67908200  1
  F  F3  1  0.83228100  0.56389900  0.14408600  1
  F  F4  1  0.16771900  0.43610100  0.85591400  1
  F  F5  1  0.58018700  0.43610100  0.26838200  1
  F  F6  1  0.41981300  0.56389900  0.73161800  1
  F  F7  1  0.08018700  0.81180500  0.14408600  1
  F  F8  1  0.66771900  0.81180500  0.73161800  1
  F  F9  1  0.33228100  0.18819500  0.26838200  1
loop_
_geom_bond_atom_site_label_1
_geom_bond_atom_site_label_2
_geom_bond_distance
_geom_bond_site_symmetry_2
Mg0 O3 2.085091 1_555
Mg0 O0 2.085091 1_554
Mg1 O2 2.085091 1_544
Mg1 O1 2.085091 1_455
Al0 F5 1.820887 1_555
Al0 F9 1.820887 1_555
Al0 F8 1.820887 1_555
Al0 F6 1.820887 1_555
Al0 F1 1.859553 1_555
Al0 F2 1.859553 1_555
Al1 F4 1.820887 1_554
Al1 F0 1.820887 1_454
Al1 F7 1.820887 1_555
Al1 F3 1.820887 1_455
Al1 F2 1.859553 1_454
Al1 F1 1.859553 1_555
H0 O2 0.981676 1_655
H1 O0 0.981682 1_555
H2 O1 0.981682 1_555
H3 O3 0.981678 1_555
H4 O2 0.981682 1_555
H5 O3 0.981682 1_555
H6 O1 0.981676 1_455
H7 O0 0.981678 1_555
F0 Mg1 2.023843 1_656
F3 Mg0 2.023843 1_555
F4 Mg0 2.023843 1_556
F5 Mg0 2.023843 1_555
F6 Mg0 2.023843 1_556
F7 Mg1 2.023843 1_565
F8 Mg1 2.023843 1_666
F9 Mg1 2.023843 1_555
