# generated using pymatgen
data_Ba2TbMgSbO6
_symmetry_space_group_name_H-M   'P 1'
_cell_length_a   6.35184858
_cell_length_b   6.35545902
_cell_length_c   7.24128452
_cell_angle_alpha   64.39507782
_cell_angle_beta   63.98632049
_cell_angle_gamma   60.01878940
_symmetry_Int_Tables_number   1
_chemical_formula_structural   Ba2TbMgSbO6
_chemical_formula_sum   'Ba2 Tb1 Mg1 Sb1 O6'
_cell_volume   218.87041027
_cell_formula_units_Z   1
loop_
 _symmetry_equiv_pos_site_id
 _symmetry_equiv_pos_as_xyz
  1  'x, y, z'
loop_
 _atom_site_type_symbol
 _atom_site_label
 _atom_site_symmetry_multiplicity
 _atom_site_fract_x
 _atom_site_fract_y
 _atom_site_fract_z
 _atom_site_occupancy
  Ba  Ba0  1  0.67916680  0.68388459  0.95778180  1
  Ba  Ba1  1  0.27826664  0.28070718  0.16275954  1
  Tb  Tb0  1  0.02804755  0.02827451  0.91563040  1
  Mg  Mg0  1  0.88042745  0.89097692  0.34816819  1
  Sb  Sb0  1  0.47105787  0.46908748  0.58879677  1
  O  O0  1  0.25998565  0.70007624  0.77995247  1
  O  O1  1  0.23459757  0.79091875  0.19402173  1
  O  O2  1  0.71408086  0.25441730  0.76667388  1
  O  O3  1  0.26482797  0.25441730  0.76667388  1
  O  O4  1  0.78407971  0.24173798  0.19010261  1
  O  O5  1  0.78046195  0.79091875  0.19402173  1
loop_
_geom_bond_atom_site_label_1
_geom_bond_atom_site_label_2
_geom_bond_distance
_geom_bond_site_symmetry_2
Ba0 O4 2.489266 1_556
Ba0 O5 2.492362 1_556
Ba0 O1 2.492362 1_556
Ba1 O0 2.896290 1_554
Ba1 O3 2.984094 1_554
Ba1 O2 2.984094 1_554
Ba1 O5 3.164916 1_545
Ba1 O1 3.164916 1_545
Ba1 O4 3.184853 1_455
Ba1 O4 3.184853 1_555
Ba1 O5 3.212987 1_455
Ba1 O1 3.212988 1_555
Mg0 O5 1.921533 1_555
Mg0 O1 1.921533 1_655
Mg0 O4 1.923464 1_565
O0 Sb0 2.007509 1_555
O0 Tb0 2.217407 1_565
O1 Tb0 2.402978 1_564
O2 Sb0 2.005906 1_555
O2 Tb0 2.211008 1_655
O3 Sb0 2.005906 1_555
O3 Tb0 2.211008 1_555
O4 Tb0 2.391646 1_654
O5 Tb0 2.402978 1_664
