# generated using pymatgen
data_LiCu2P3O10
_symmetry_space_group_name_H-M   'P 1'
_cell_length_a   8.32659300
_cell_length_b   4.69800300
_cell_length_c   9.33459031
_cell_angle_alpha   76.93493649
_cell_angle_beta   90.00000000
_cell_angle_gamma   90.00000000
_symmetry_Int_Tables_number   1
_chemical_formula_structural   LiCu2P3O10
_chemical_formula_sum   'Li2 Cu4 P6 O20'
_cell_volume   355.70147709
_cell_formula_units_Z   2
loop_
 _symmetry_equiv_pos_site_id
 _symmetry_equiv_pos_as_xyz
  1  'x, y, z'
loop_
 _atom_site_type_symbol
 _atom_site_label
 _atom_site_symmetry_multiplicity
 _atom_site_fract_x
 _atom_site_fract_y
 _atom_site_fract_z
 _atom_site_occupancy
  Li  Li0  1  0.00000000  0.00000000  0.00000000  1
  Li  Li1  1  0.50000000  0.00000000  0.00000000  1
  Cu  Cu0  1  0.43576700  0.04128700  0.66772500  1
  Cu  Cu1  1  0.93576700  0.95871300  0.33227500  1
  Cu  Cu2  1  0.06423300  0.04128700  0.66772500  1
  Cu  Cu3  1  0.56423300  0.95871300  0.33227500  1
  P  P0  1  0.25000000  0.59393700  0.45390700  1
  P  P1  1  0.25000000  0.33678500  0.17824400  1
  P  P2  1  0.25000000  0.47425900  0.86109600  1
  P  P3  1  0.75000000  0.40606300  0.54609300  1
  P  P4  1  0.75000000  0.66321500  0.82175600  1
  P  P5  1  0.75000000  0.52574100  0.13890400  1
  O  O0  1  0.90291700  0.69320700  0.14756900  1
  O  O1  1  0.25000000  0.57043000  0.02340800  1
  O  O2  1  0.40319900  0.76144200  0.47085900  1
  O  O3  1  0.59615900  0.83841300  0.81234500  1
  O  O4  1  0.09680100  0.76144200  0.47085900  1
  O  O5  1  0.59708300  0.69320700  0.14756900  1
  O  O6  1  0.75000000  0.42957000  0.97659200  1
  O  O7  1  0.09708300  0.30679300  0.85243100  1
  O  O8  1  0.25000000  0.28717400  0.55867000  1
  O  O9  1  0.40384100  0.16158700  0.18765500  1
  O  O10  1  0.59680100  0.23855800  0.52914100  1
  O  O11  1  0.90384100  0.83841300  0.81234500  1
  O  O12  1  0.25000000  0.78359500  0.75527800  1
  O  O13  1  0.75000000  0.21640500  0.24472200  1
  O  O14  1  0.90319900  0.23855800  0.52914100  1
  O  O15  1  0.75000000  0.71282600  0.44133000  1
  O  O16  1  0.09615900  0.16158700  0.18765500  1
  O  O17  1  0.75000000  0.44915500  0.71333000  1
  O  O18  1  0.25000000  0.55084500  0.28667000  1
  O  O19  1  0.40291700  0.30679300  0.85243100  1
loop_
_geom_bond_atom_site_label_1
_geom_bond_atom_site_label_2
_geom_bond_distance
_geom_bond_site_symmetry_2
Li0 O0 1.931506 1_445
Li0 O7 1.931506 1_554
Li0 O16 2.210649 1_555
Li0 O11 2.210649 1_444
Li1 O5 1.931506 1_545
Li1 O19 1.931506 1_554
Li1 O9 2.210649 1_555
Li1 O3 2.210649 1_544
Cu0 O10 1.946346 1_555
Cu0 O3 1.983107 1_545
Cu0 O12 2.019617 1_545
Cu0 O8 2.057103 1_555
Cu0 O19 2.361299 1_555
Cu0 O2 2.504261 1_545
Cu1 O4 1.946346 1_655
Cu1 O16 1.983107 1_665
Cu1 O13 2.019617 1_565
Cu1 O15 2.057103 1_555
Cu1 O0 2.361299 1_555
Cu1 O14 2.504261 1_565
Cu2 O14 1.946346 1_455
Cu2 O11 1.983107 1_445
Cu2 O12 2.019617 1_545
Cu2 O8 2.057103 1_555
Cu2 O7 2.361299 1_555
Cu2 O4 2.504261 1_545
Cu3 O2 1.946346 1_555
Cu3 O9 1.983107 1_565
Cu3 O13 2.019617 1_565
Cu3 O15 2.057103 1_555
Cu3 O5 2.361299 1_555
Cu3 O10 2.504261 1_565
O0 P5 1.508487 1_555
O1 P1 1.605171 1_555
O1 P2 1.676068 1_554
O2 P0 1.525724 1_555
O3 P4 1.514390 1_555
O4 P0 1.525724 1_555
O5 P5 1.508487 1_555
O6 P4 1.605171 1_555
O6 P5 1.676068 1_556
O7 P2 1.508487 1_555
O8 P0 1.547940 1_555
O9 P1 1.514390 1_555
O10 P3 1.525724 1_555
O11 P4 1.514390 1_555
O12 P2 1.561618 1_555
O13 P5 1.561618 1_555
O14 P3 1.525724 1_555
O15 P3 1.547940 1_555
O16 P1 1.514390 1_555
O17 P4 1.579839 1_555
O17 P3 1.618909 1_555
O18 P1 1.579839 1_555
O18 P0 1.618909 1_555
O19 P2 1.508487 1_555
