# generated using pymatgen
data_GeI2
_symmetry_space_group_name_H-M   'P 1'
_cell_length_a   4.26312893
_cell_length_b   4.26312964
_cell_length_c   21.80161840
_cell_angle_alpha   90.00000000
_cell_angle_beta   90.00000000
_cell_angle_gamma   120.00000265
_symmetry_Int_Tables_number   1
_chemical_formula_structural   GeI2
_chemical_formula_sum   'Ge3 I6'
_cell_volume   343.14396104
_cell_formula_units_Z   3
loop_
 _symmetry_equiv_pos_site_id
 _symmetry_equiv_pos_as_xyz
  1  'x, y, z'
loop_
 _atom_site_type_symbol
 _atom_site_label
 _atom_site_symmetry_multiplicity
 _atom_site_fract_x
 _atom_site_fract_y
 _atom_site_fract_z
 _atom_site_occupancy
  Ge  Ge0  1  0.00000000  -0.00000000  0.00000000  1
  Ge  Ge1  1  0.33333300  0.66666700  0.33156131  1
  Ge  Ge2  1  0.66666700  0.33333300  0.66843869  1
  I  I0  1  0.00000000  -0.00000000  0.25156309  1
  I  I1  1  0.00000000  -0.00000000  0.74843691  1
  I  I2  1  0.33333300  0.66666700  0.07984414  1
  I  I3  1  0.66666700  0.33333300  0.92015586  1
  I  I4  1  0.33333300  0.66666700  0.58851741  1
  I  I5  1  0.66666700  0.33333300  0.41148259  1
loop_
_geom_bond_atom_site_label_1
_geom_bond_atom_site_label_2
_geom_bond_distance
_geom_bond_site_symmetry_2
Ge0 I3 3.014668 1_454
Ge0 I2 3.014668 1_545
Ge0 I3 3.014671 1_554
Ge0 I2 3.014671 1_445
Ge0 I3 3.014671 1_444
Ge0 I2 3.014671 1_555
Ge1 I5 3.015639 1_455
Ge1 I5 3.015640 1_565
Ge1 I5 3.015646 1_555
Ge1 I0 3.016609 1_565
Ge1 I0 3.016612 1_665
Ge1 I0 3.016612 1_555
Ge2 I4 3.015639 1_655
Ge2 I4 3.015640 1_545
Ge2 I4 3.015646 1_555
Ge2 I1 3.016609 1_655
Ge2 I1 3.016612 1_555
Ge2 I1 3.016612 1_665
