# generated using pymatgen
data_SmIn2Ir
_symmetry_space_group_name_H-M   'P 1'
_cell_length_a   4.34093025
_cell_length_b   5.59464118
_cell_length_c   8.02030601
_cell_angle_alpha   90.00000000
_cell_angle_beta   90.00000000
_cell_angle_gamma   112.82725845
_symmetry_Int_Tables_number   1
_chemical_formula_structural   SmIn2Ir
_chemical_formula_sum   'Sm2 In4 Ir2'
_cell_volume   179.52524536
_cell_formula_units_Z   2
loop_
 _symmetry_equiv_pos_site_id
 _symmetry_equiv_pos_as_xyz
  1  'x, y, z'
loop_
 _atom_site_type_symbol
 _atom_site_label
 _atom_site_symmetry_multiplicity
 _atom_site_fract_x
 _atom_site_fract_y
 _atom_site_fract_z
 _atom_site_occupancy
  Sm  Sm0  1  0.06998515  0.13996931  0.75000000  1
  Sm  Sm1  1  0.93001485  0.86003069  0.25000000  1
  In  In0  1  0.35532199  0.71064197  0.55059199  1
  In  In1  1  0.64467801  0.28935803  0.44940801  1
  In  In2  1  0.35532199  0.71064197  0.94940801  1
  In  In3  1  0.64467801  0.28935803  0.05059199  1
  Ir  Ir0  1  0.22039798  0.44079595  0.25000000  1
  Ir  Ir1  1  0.77960202  0.55920405  0.75000000  1
loop_
_geom_bond_atom_site_label_1
_geom_bond_atom_site_label_2
_geom_bond_distance
_geom_bond_site_symmetry_2
In0 Ir0 2.783574 1_555
In0 Ir1 2.806863 1_555
In0 Ir1 2.806870 1_455
In0 In1 3.092505 1_565
In0 In1 3.176239 1_555
In0 In1 3.176251 1_455
In0 In2 3.198627 1_555
In0 Sm1 3.334131 1_555
In0 Sm1 3.334139 1_455
In0 Sm0 3.349179 1_555
In0 Sm0 3.488505 1_665
In0 Sm0 3.488507 1_565
In1 Ir1 2.783574 1_555
In1 Ir0 2.806863 1_555
In1 Ir0 2.806870 1_655
In1 In3 3.198627 1_555
In1 Sm0 3.334131 1_555
In1 Sm0 3.334139 1_655
In1 Sm1 3.349179 1_555
In1 Sm1 3.488505 1_445
In1 Sm1 3.488507 1_545
In2 Ir0 2.783574 1_556
In2 Ir1 2.806863 1_555
In2 Ir1 2.806870 1_455
In2 In3 3.092505 1_566
In2 In3 3.176239 1_556
In2 In3 3.176251 1_456
In2 Sm1 3.334131 1_556
In2 Sm1 3.334139 1_456
In2 Sm0 3.349179 1_555
In2 Sm0 3.488505 1_665
In2 Sm0 3.488507 1_565
In3 Ir1 2.783574 1_554
In3 Ir0 2.806863 1_555
In3 Ir0 2.806870 1_655
In3 Sm0 3.334131 1_554
In3 Sm0 3.334139 1_654
In3 Sm1 3.349179 1_555
In3 Sm1 3.488505 1_445
In3 Sm1 3.488507 1_545
Ir0 Sm1 2.994694 1_445
Ir0 Sm1 3.063356 1_555
Ir0 Sm1 3.063359 1_455
Ir1 Sm0 2.994694 1_665
Ir1 Sm0 3.063356 1_555
Ir1 Sm0 3.063359 1_655
