# generated using pymatgen
data_Pr5C2Br9
_symmetry_space_group_name_H-M   'P 1'
_cell_length_a   19.46911500
_cell_length_b   10.36139000
_cell_length_c   12.20761817
_cell_angle_alpha   55.67093904
_cell_angle_beta   90.00000000
_cell_angle_gamma   90.00000000
_symmetry_Int_Tables_number   1
_chemical_formula_structural   Pr5C2Br9
_chemical_formula_sum   'Pr20 C8 Br36'
_cell_volume   2033.65157814
_cell_formula_units_Z   4
loop_
 _symmetry_equiv_pos_site_id
 _symmetry_equiv_pos_as_xyz
  1  'x, y, z'
loop_
 _atom_site_type_symbol
 _atom_site_label
 _atom_site_symmetry_multiplicity
 _atom_site_fract_x
 _atom_site_fract_y
 _atom_site_fract_z
 _atom_site_occupancy
  Pr  Pr0  1  0.41617600  0.17740200  0.51976600  1
  Pr  Pr1  1  0.91617600  0.82259800  0.98023400  1
  Pr  Pr2  1  0.58382400  0.82259800  0.48023400  1
  Pr  Pr3  1  0.08382400  0.17740200  0.01976600  1
  Pr  Pr4  1  0.23265300  0.16340500  0.40772700  1
  Pr  Pr5  1  0.73265300  0.83659500  0.09227300  1
  Pr  Pr6  1  0.76734700  0.83659500  0.59227300  1
  Pr  Pr7  1  0.26734700  0.16340500  0.90772700  1
  Pr  Pr8  1  0.27701100  0.59430700  0.27304200  1
  Pr  Pr9  1  0.77701100  0.40569300  0.22695800  1
  Pr  Pr10  1  0.72298900  0.40569300  0.72695800  1
  Pr  Pr11  1  0.22298900  0.59430700  0.77304200  1
  Pr  Pr12  1  0.47410300  0.61078500  0.26470400  1
  Pr  Pr13  1  0.97410300  0.38921500  0.23529600  1
  Pr  Pr14  1  0.52589700  0.38921500  0.73529600  1
  Pr  Pr15  1  0.02589700  0.61078500  0.76470400  1
  Pr  Pr16  1  0.38224000  0.38291200  0.13966300  1
  Pr  Pr17  1  0.88224000  0.61708800  0.36033700  1
  Pr  Pr18  1  0.61776000  0.61708800  0.86033700  1
  Pr  Pr19  1  0.11776000  0.38291200  0.63966300  1
  C  C0  1  0.38231400  0.43738000  0.31691600  1
  C  C1  1  0.88231400  0.56262000  0.18308400  1
  C  C2  1  0.61768600  0.56262000  0.68308400  1
  C  C3  1  0.11768600  0.43738000  0.81691600  1
  C  C4  1  0.32554400  0.33196400  0.34949400  1
  C  C5  1  0.82554400  0.66803600  0.15050600  1
  C  C6  1  0.67445600  0.66803600  0.65050600  1
  C  C7  1  0.17445600  0.33196400  0.84949400  1
  Br  Br0  1  0.46933600  0.10567200  0.33101000  1
  Br  Br1  1  0.96933600  0.89432800  0.16899000  1
  Br  Br2  1  0.53066400  0.89432800  0.66899000  1
  Br  Br3  1  0.03066400  0.10567200  0.83101000  1
  Br  Br4  1  0.02728800  0.66819000  0.49959400  1
  Br  Br5  1  0.52728800  0.33181000  0.00040600  1
  Br  Br6  1  0.97271200  0.33181000  0.50040600  1
  Br  Br7  1  0.47271200  0.66819000  0.99959400  1
  Br  Br8  1  0.54942100  0.34578400  0.49872800  1
  Br  Br9  1  0.04942100  0.65421600  0.00127200  1
  Br  Br10  1  0.45057900  0.65421600  0.50127200  1
  Br  Br11  1  0.95057900  0.34578400  0.99872800  1
  Br  Br12  1  0.37210500  0.86630000  0.15446100  1
  Br  Br13  1  0.87210500  0.13370000  0.34553900  1
  Br  Br14  1  0.62789500  0.13370000  0.84553900  1
  Br  Br15  1  0.12789500  0.86630000  0.65446100  1
  Br  Br16  1  0.41084700  0.14127000  0.78039600  1
  Br  Br17  1  0.91084700  0.85873000  0.71960400  1
  Br  Br18  1  0.58915300  0.85873000  0.21960400  1
  Br  Br19  1  0.08915300  0.14127000  0.28039600  1
  Br  Br20  1  0.13993800  0.43276100  0.35015800  1
  Br  Br21  1  0.63993800  0.56723900  0.14984200  1
  Br  Br22  1  0.86006200  0.56723900  0.64984200  1
  Br  Br23  1  0.36006200  0.43276100  0.85015800  1
  Br  Br24  1  0.17751700  0.89850100  0.09836300  1
  Br  Br25  1  0.67751700  0.10149900  0.40163700  1
  Br  Br26  1  0.82248300  0.10149900  0.90163700  1
  Br  Br27  1  0.32248300  0.89850100  0.59836300  1
  Br  Br28  1  0.22672400  0.15341700  0.67761000  1
  Br  Br29  1  0.72672400  0.84658300  0.82239000  1
  Br  Br30  1  0.77327600  0.84658300  0.32239000  1
  Br  Br31  1  0.27327600  0.15341700  0.17761000  1
  Br  Br32  1  0.23499500  0.62386000  0.50598500  1
  Br  Br33  1  0.73499500  0.37614000  0.99401500  1
  Br  Br34  1  0.76500500  0.37614000  0.49401500  1
  Br  Br35  1  0.26500500  0.62386000  0.00598500  1
loop_
_geom_bond_atom_site_label_1
_geom_bond_atom_site_label_2
_geom_bond_distance
_geom_bond_site_symmetry_2
C0 C4 1.443208 1_555
C0 Pr12 2.352943 1_555
C0 Pr8 2.480237 1_555
C0 Pr0 2.509848 1_555
C0 Pr16 2.525484 1_555
C1 C5 1.443208 1_555
C1 Pr13 2.352943 1_555
C1 Pr9 2.480237 1_555
C1 Pr1 2.509848 1_554
C1 Pr17 2.525484 1_555
C2 C6 1.443208 1_555
C2 Pr14 2.352943 1_555
C2 Pr10 2.480237 1_555
C2 Pr2 2.509848 1_555
C2 Pr18 2.525484 1_555
C3 C7 1.443208 1_555
C3 Pr15 2.352943 1_555
C3 Pr11 2.480237 1_555
C3 Pr3 2.509848 1_556
C3 Pr19 2.525484 1_555
C4 Pr4 2.329374 1_555
C4 Pr0 2.498867 1_555
C4 Pr8 2.508250 1_555
C4 Pr16 2.556054 1_555
C5 Pr5 2.329374 1_555
C5 Pr1 2.498867 1_554
C5 Pr9 2.508250 1_555
C5 Pr17 2.556054 1_555
C6 Pr6 2.329374 1_555
C6 Pr2 2.498867 1_555
C6 Pr10 2.508250 1_555
C6 Pr18 2.556054 1_555
C7 Pr7 2.329374 1_555
C7 Pr3 2.498867 1_556
C7 Pr11 2.508250 1_555
C7 Pr19 2.556054 1_555
Br0 Pr0 2.977378 1_555
Br0 Pr16 3.002548 1_555
Br0 Pr2 3.295938 1_545
Br1 Pr1 2.977378 1_554
Br1 Pr17 3.002548 1_555
Br1 Pr3 3.295938 1_665
Br2 Pr2 2.977378 1_555
Br2 Pr18 3.002548 1_555
Br2 Pr0 3.295938 1_565
Br3 Pr3 2.977378 1_556
Br3 Pr19 3.002548 1_555
Br3 Pr1 3.295938 1_445
Br4 Pr15 2.942345 1_555
Br4 Pr19 3.010463 1_555
Br4 Pr17 3.487165 1_455
Br5 Pr14 2.942345 1_554
Br5 Pr18 3.010463 1_554
Br5 Pr16 3.487165 1_555
Br6 Pr13 2.942345 1_555
Br6 Pr17 3.010463 1_555
Br6 Pr19 3.487165 1_655
Br7 Pr12 2.942345 1_556
Br7 Pr16 3.010463 1_556
Br7 Pr18 3.487165 1_555
Br8 Pr12 3.000622 1_555
Br8 Pr0 3.055182 1_555
Br8 Pr14 3.196592 1_555
Br9 Pr13 3.000622 1_455
Br9 Pr1 3.055182 1_454
Br9 Pr15 3.196592 1_554
Br10 Pr14 3.000622 1_555
Br10 Pr2 3.055182 1_555
Br10 Pr12 3.196592 1_555
Br11 Pr15 3.000622 1_655
Br11 Pr3 3.055182 1_656
Br11 Pr13 3.196592 1_556
Br12 Pr12 2.957222 1_555
Br12 Pr8 2.977281 1_555
Br12 Pr7 3.500090 1_564
Br13 Pr13 2.957222 1_555
Br13 Pr9 2.977281 1_555
Br13 Pr6 3.500090 1_545
Br14 Pr14 2.957222 1_555
Br14 Pr10 2.977281 1_555
Br14 Pr5 3.500090 1_546
Br15 Pr15 2.957222 1_555
Br15 Pr11 2.977281 1_555
Br15 Pr4 3.500090 1_565
Br16 Pr0 2.988390 1_555
Br16 Pr14 3.213268 1_555
Br16 Pr7 3.267461 1_555
Br17 Pr1 2.988390 1_555
Br17 Pr15 3.213268 1_655
Br17 Pr6 3.267461 1_555
Br18 Pr2 2.988390 1_555
Br18 Pr12 3.213268 1_555
Br18 Pr5 3.267461 1_555
Br19 Pr3 2.988390 1_555
Br19 Pr13 3.213268 1_455
Br19 Pr4 3.267461 1_555
Br20 Pr8 3.005430 1_555
Br20 Pr4 3.054360 1_555
Br20 Pr19 3.299194 1_555
Br20 Pr13 3.647951 1_455
Br21 Pr9 3.005430 1_555
Br21 Pr5 3.054360 1_555
Br21 Pr18 3.299194 1_554
Br21 Pr12 3.647951 1_555
Br22 Pr10 3.005430 1_555
Br22 Pr6 3.054360 1_555
Br22 Pr17 3.299194 1_555
Br22 Pr15 3.647951 1_655
Br23 Pr11 3.005430 1_555
Br23 Pr7 3.054360 1_555
Br23 Pr16 3.299194 1_556
Br23 Pr14 3.647951 1_555
Br24 Pr7 2.967119 1_564
Br24 Pr3 3.077606 1_565
Br24 Pr8 3.263899 1_555
Br25 Pr6 2.967119 1_545
Br25 Pr2 3.077606 1_545
Br25 Pr9 3.263899 1_555
Br26 Pr5 2.967119 1_546
Br26 Pr1 3.077606 1_545
Br26 Pr10 3.263899 1_555
Br27 Pr4 2.967119 1_565
Br27 Pr0 3.077606 1_565
Br27 Pr11 3.263899 1_555
Br28 Pr7 2.975839 1_555
Br28 Pr19 3.021093 1_555
Br28 Pr4 3.239452 1_555
Br29 Pr6 2.975839 1_555
Br29 Pr18 3.021093 1_555
Br29 Pr5 3.239452 1_556
Br30 Pr5 2.975839 1_555
Br30 Pr17 3.021093 1_555
Br30 Pr6 3.239452 1_555
Br31 Pr4 2.975839 1_555
Br31 Pr16 3.021093 1_555
Br31 Pr7 3.239452 1_554
Br32 Pr19 3.083885 1_555
Br32 Pr11 3.106589 1_555
Br32 Pr8 3.135530 1_555
Br33 Pr18 3.083885 1_555
Br33 Pr10 3.106589 1_555
Br33 Pr9 3.135530 1_556
Br34 Pr17 3.083885 1_555
Br34 Pr9 3.106589 1_555
Br34 Pr10 3.135530 1_555
Br35 Pr16 3.083885 1_555
Br35 Pr8 3.106589 1_555
Br35 Pr11 3.135530 1_554
