# generated using pymatgen
data_MgMn3HO6
_symmetry_space_group_name_H-M   'P 1'
_cell_length_a   2.88716819
_cell_length_b   5.28577364
_cell_length_c   8.80165864
_cell_angle_alpha   100.68106943
_cell_angle_beta   99.45254480
_cell_angle_gamma   90.05405310
_symmetry_Int_Tables_number   1
_chemical_formula_structural   MgMn3HO6
_chemical_formula_sum   'Mg1 Mn3 H1 O6'
_cell_volume   130.13367091
_cell_formula_units_Z   1
loop_
 _symmetry_equiv_pos_site_id
 _symmetry_equiv_pos_as_xyz
  1  'x, y, z'
loop_
 _atom_site_type_symbol
 _atom_site_label
 _atom_site_symmetry_multiplicity
 _atom_site_fract_x
 _atom_site_fract_y
 _atom_site_fract_z
 _atom_site_occupancy
  Mg  Mg0  1  0.01934034  0.47713137  0.99727543  1
  Mn  Mn0  1  0.02112149  0.97687692  0.00101337  1
  Mn  Mn1  1  0.34917494  0.48509393  0.65802568  1
  Mn  Mn2  1  0.68760706  0.53329282  0.33308258  1
  H  H0  1  0.25142587  0.93768366  0.45707114  1
  O  O0  1  0.55893990  0.77390159  0.07630291  1
  O  O1  1  0.48733572  0.18571017  0.93337209  1
  O  O2  1  0.12577438  0.36124131  0.20990126  1
  O  O3  1  0.91938068  0.62672143  0.79824006  1
  O  O4  1  0.24671486  0.75010522  0.45022901  1
  O  O5  1  0.78220277  0.32840359  0.52499846  1
loop_
_geom_bond_atom_site_label_1
_geom_bond_atom_site_label_2
_geom_bond_distance
_geom_bond_site_symmetry_2
Mg0 O3 2.031077 1_455
Mg0 O2 2.051449 1_556
Mg0 O1 2.106896 1_455
Mg0 O1 2.108845 1_555
Mg0 O0 2.146301 1_556
Mg0 O0 2.148162 1_456
Mn0 O1 1.971995 1_564
Mn0 O1 1.973182 1_464
Mn0 O0 1.980433 1_455
Mn0 O0 1.982428 1_555
Mn0 O3 2.302067 1_454
Mn0 O2 2.455809 1_565
Mn1 O5 1.934745 1_555
Mn1 O5 1.935174 1_455
Mn1 O3 1.944628 1_555
Mn1 O3 1.945653 1_455
Mn1 O4 2.483456 1_555
Mn2 O2 1.920373 1_555
Mn2 O2 1.920967 1_655
Mn2 O4 1.998171 1_555
Mn2 O4 1.998514 1_655
Mn2 O5 2.151266 1_555
H0 O4 0.982064 1_555
