# generated using pymatgen
data_Na2Mg(CoO2)2
_symmetry_space_group_name_H-M   'P 1'
_cell_length_a   3.20549978
_cell_length_b   3.22072260
_cell_length_c   12.89042697
_cell_angle_alpha   90.43788617
_cell_angle_beta   90.00000005
_cell_angle_gamma   119.84375748
_symmetry_Int_Tables_number   1
_chemical_formula_structural   Na2Mg(CoO2)2
_chemical_formula_sum   'Na2 Mg1 Co2 O4'
_cell_volume   115.42815440
_cell_formula_units_Z   1
loop_
 _symmetry_equiv_pos_site_id
 _symmetry_equiv_pos_as_xyz
  1  'x, y, z'
loop_
 _atom_site_type_symbol
 _atom_site_label
 _atom_site_symmetry_multiplicity
 _atom_site_fract_x
 _atom_site_fract_y
 _atom_site_fract_z
 _atom_site_occupancy
  Na  Na0  1  0.67715957  0.35431814  0.19107356  1
  Na  Na1  1  0.31615622  0.63231343  0.81271016  1
  Mg  Mg0  1  0.33632744  0.67265588  0.60108094  1
  Co  Co0  1  -0.00273941  -0.00547883  0.40836626  1
  Co  Co1  1  0.00495421  0.00990841  0.00489006  1
  O  O0  1  0.33712573  0.67425045  0.43732400  1
  O  O1  1  0.66970316  0.33940731  0.65264257  1
  O  O2  1  0.64938881  0.29877861  0.92598886  1
  O  O3  1  0.34525729  0.69051358  0.09092359  1
loop_
_geom_bond_atom_site_label_1
_geom_bond_atom_site_label_2
_geom_bond_distance
_geom_bond_site_symmetry_2
Na0 O3 2.250171 1_545
Na0 O3 2.266911 1_555
Na0 O3 2.266911 1_655
Na1 O2 2.356006 1_565
Na1 O2 2.364992 1_555
Na1 O2 2.364992 1_455
Mg0 O1 1.971844 1_555
Mg0 O1 1.971845 1_455
Mg0 O1 1.972152 1_565
Mg0 O0 2.110941 1_555
Co0 O0 1.874709 1_445
Co0 O0 1.874711 1_545
Co0 O0 1.932009 1_555
Co1 O2 2.066139 1_554
Co1 O2 2.066141 1_454
Co1 O3 2.147621 1_445
Co1 O3 2.147623 1_545
Co1 O3 2.192682 1_555
Co1 O2 2.223843 1_444
