# generated using pymatgen
data_Rb2P3
_symmetry_space_group_name_H-M   'P 1'
_cell_length_a   6.61903508
_cell_length_b   6.61903460
_cell_length_c   8.61717260
_cell_angle_alpha   110.79401611
_cell_angle_beta   110.79401674
_cell_angle_gamma   94.33813813
_symmetry_Int_Tables_number   1
_chemical_formula_structural   Rb2P3
_chemical_formula_sum   'Rb4 P6'
_cell_volume   321.04639887
_cell_formula_units_Z   2
loop_
 _symmetry_equiv_pos_site_id
 _symmetry_equiv_pos_as_xyz
  1  'x, y, z'
loop_
 _atom_site_type_symbol
 _atom_site_label
 _atom_site_symmetry_multiplicity
 _atom_site_fract_x
 _atom_site_fract_y
 _atom_site_fract_z
 _atom_site_occupancy
  Rb  Rb0  1  0.25000000  0.75000000  0.50000000  1
  Rb  Rb1  1  0.75000000  0.25000000  0.50000000  1
  Rb  Rb2  1  0.27960539  0.72039461  -0.00000000  1
  Rb  Rb3  1  0.72039461  0.27960539  0.00000000  1
  P  P0  1  0.85288214  0.85288214  0.70576428  1
  P  P1  1  0.14711786  0.14711786  0.29423572  1
  P  P2  1  0.13328097  0.13328097  0.85371656  1
  P  P3  1  0.27956241  0.27956241  0.14628344  1
  P  P4  1  0.86671903  0.86671903  0.14628344  1
  P  P5  1  0.72043759  0.72043759  0.85371656  1
loop_
_geom_bond_atom_site_label_1
_geom_bond_atom_site_label_2
_geom_bond_distance
_geom_bond_site_symmetry_2
P0 P5 2.152526 1_555
P0 P2 2.152542 1_665
P0 Rb3 3.470463 1_566
P0 Rb2 3.470463 1_656
P0 Rb1 3.638612 1_565
P0 Rb0 3.638612 1_655
P0 Rb1 3.638612 1_555
P0 Rb0 3.638613 1_555
P1 P3 2.152526 1_555
P1 P4 2.152542 1_445
P1 Rb2 3.470463 1_545
P1 Rb3 3.470463 1_455
P1 Rb0 3.638612 1_545
P1 Rb1 3.638612 1_455
P1 Rb0 3.638612 1_555
P1 Rb1 3.638613 1_555
P2 P3 2.150055 1_556
P2 Rb2 3.460550 1_546
P2 Rb3 3.460550 1_456
P2 Rb2 3.565755 1_556
P2 Rb3 3.565756 1_556
P2 Rb0 3.577933 1_545
P2 Rb1 3.577933 1_455
P3 Rb2 3.460540 1_545
P3 Rb3 3.460540 1_455
P3 Rb2 3.565769 1_555
P3 Rb3 3.565769 1_555
P3 Rb0 3.577935 1_555
P3 Rb1 3.577935 1_555
P4 P5 2.150055 1_554
P4 Rb3 3.460550 1_565
P4 Rb2 3.460550 1_655
P4 Rb3 3.565755 1_555
P4 Rb2 3.565756 1_555
P4 Rb1 3.577933 1_565
P4 Rb0 3.577933 1_655
P5 Rb3 3.460540 1_566
P5 Rb2 3.460540 1_656
P5 Rb3 3.565769 1_556
P5 Rb2 3.565769 1_556
P5 Rb1 3.577935 1_555
P5 Rb0 3.577935 1_555
