# generated using pymatgen
data_NaTiAlP2SO12
_symmetry_space_group_name_H-M   'P 1'
_cell_length_a   8.47465786
_cell_length_b   8.47138250
_cell_length_c   22.12316542
_cell_angle_alpha   89.97510542
_cell_angle_beta   90.00000000
_cell_angle_gamma   120.01279072
_symmetry_Int_Tables_number   1
_chemical_formula_structural   NaTiAlP2SO12
_chemical_formula_sum   'Na6 Ti6 Al6 P12 S6 O72'
_cell_volume   1375.30277486
_cell_formula_units_Z   6
loop_
 _symmetry_equiv_pos_site_id
 _symmetry_equiv_pos_as_xyz
  1  'x, y, z'
loop_
 _atom_site_type_symbol
 _atom_site_label
 _atom_site_symmetry_multiplicity
 _atom_site_fract_x
 _atom_site_fract_y
 _atom_site_fract_z
 _atom_site_occupancy
  Na  Na0  1  0.99344759  0.99621344  0.50117132  1
  Na  Na1  1  0.00276586  0.99621344  0.00117132  1
  Na  Na2  1  0.66011459  0.32954644  0.83450432  1
  Na  Na3  1  0.66943286  0.32954644  0.33450432  1
  Na  Na4  1  0.32678059  0.66288044  0.16783832  1
  Na  Na5  1  0.33609886  0.66288044  0.66783832  1
  Ti  Ti0  1  0.00152932  0.00418719  0.35379921  1
  Ti  Ti1  1  0.00265787  0.00418719  0.85379921  1
  Ti  Ti2  1  0.66819632  0.33752019  0.68713221  1
  Ti  Ti3  1  0.66932487  0.33752019  0.18713221  1
  Ti  Ti4  1  0.33486232  0.67085419  0.02046621  1
  Ti  Ti5  1  0.33599087  0.67085419  0.52046621  1
  Al  Al0  1  0.99031381  0.00655066  0.64705779  1
  Al  Al1  1  0.01623685  0.00655066  0.14705779  1
  Al  Al2  1  0.65698081  0.33988366  0.98039079  1
  Al  Al3  1  0.68290385  0.33988366  0.48039079  1
  Al  Al4  1  0.32364681  0.67321766  0.31372479  1
  Al  Al5  1  0.34956985  0.67321766  0.81372479  1
  P  P0  1  0.28642291  0.99584570  0.24912661  1
  P  P1  1  0.00712853  0.29093647  0.24856479  1
  P  P2  1  0.28380794  0.29093647  0.74856479  1
  P  P3  1  0.70942279  0.99584570  0.74912661  1
  P  P4  1  0.95308991  0.32917870  0.58245961  1
  P  P5  1  0.67379553  0.62426947  0.58189779  1
  P  P6  1  0.95047494  0.62426947  0.08189779  1
  P  P7  1  0.37608979  0.32917870  0.08245961  1
  P  P8  1  0.61975591  0.66251270  0.91579361  1
  P  P9  1  0.34046153  0.95760347  0.91523179  1
  P  P10  1  0.61714094  0.95760347  0.41523179  1
  P  P11  1  0.04275579  0.66251270  0.41579361  1
  S  S0  1  0.70969815  0.71599696  0.24930780  1
  S  S1  1  0.00629882  0.71599696  0.74930780  1
  S  S2  1  0.37636515  0.04932996  0.58264080  1
  S  S3  1  0.67296582  0.04932996  0.08264080  1
  S  S4  1  0.04303115  0.38266396  0.91597480  1
  S  S5  1  0.33963182  0.38266396  0.41597480  1
  O  O0  1  0.19964869  0.03004936  0.30621978  1
  O  O1  1  0.82295090  0.79218395  0.30447787  1
  O  O2  1  0.96878278  0.16928822  0.30625649  1
  O  O3  1  0.20050544  0.16928822  0.80625649  1
  O  O4  1  0.96923305  0.79218395  0.80447787  1
  O  O5  1  0.83040067  0.03004936  0.80621978  1
  O  O6  1  0.79525194  0.96353569  0.69351798  1
  O  O7  1  0.16834141  0.19870659  0.69288489  1
  O  O8  1  0.03410232  0.82578025  0.69483348  1
  O  O9  1  0.79167793  0.82578025  0.19483348  1
  O  O10  1  0.03036518  0.19870659  0.19288489  1
  O  O11  1  0.16828375  0.96353569  0.19351798  1
  O  O12  1  0.86631569  0.36338236  0.63955278  1
  O  O13  1  0.48961790  0.12551695  0.63781087  1
  O  O14  1  0.63544978  0.50262122  0.63958949  1
  O  O15  1  0.86717244  0.50262122  0.13958949  1
  O  O16  1  0.63590005  0.12551695  0.13781087  1
  O  O17  1  0.49706767  0.36338236  0.13955278  1
  O  O18  1  0.46191894  0.29686869  0.02685098  1
  O  O19  1  0.83500841  0.53203959  0.02621789  1
  O  O20  1  0.70076932  0.15911325  0.02816648  1
  O  O21  1  0.45834493  0.15911325  0.52816648  1
  O  O22  1  0.69703218  0.53203959  0.52621789  1
  O  O23  1  0.83495075  0.29686869  0.52685098  1
  O  O24  1  0.53298169  0.69671636  0.97288678  1
  O  O25  1  0.15628390  0.45885095  0.97114487  1
  O  O26  1  0.30211578  0.83595522  0.97292349  1
  O  O27  1  0.53383844  0.83595522  0.47292349  1
  O  O28  1  0.30256605  0.45885095  0.47114487  1
  O  O29  1  0.16373367  0.69671636  0.47288678  1
  O  O30  1  0.12858494  0.63020269  0.36018498  1
  O  O31  1  0.50167441  0.86537359  0.35955189  1
  O  O32  1  0.36743532  0.49244725  0.36150048  1
  O  O33  1  0.12501093  0.49244725  0.86150048  1
  O  O34  1  0.36369818  0.86537359  0.85955189  1
  O  O35  1  0.50161675  0.63020269  0.86018498  1
  O  O36  1  0.02522833  0.83558197  0.40908786  1
  O  O37  1  0.80873787  0.97582451  0.40884509  1
  O  O38  1  0.17260512  0.19843885  0.41078362  1
  O  O39  1  0.02583373  0.19843885  0.91078362  1
  O  O40  1  0.16708664  0.97582451  0.90884509  1
  O  O41  1  0.81035364  0.83558197  0.90908786  1
  O  O42  1  0.97688480  0.16286782  0.59099547  1
  O  O43  1  0.19389446  0.02606461  0.59086033  1
  O  O44  1  0.84234753  0.81194776  0.59220961  1
  O  O45  1  0.96960022  0.81194776  0.09220961  1
  O  O46  1  0.83217015  0.02606461  0.09086033  1
  O  O47  1  0.18598302  0.16286782  0.09099547  1
  O  O48  1  0.69189533  0.16891497  0.74242086  1
  O  O49  1  0.47540487  0.30915751  0.74217809  1
  O  O50  1  0.83927212  0.53177185  0.74411662  1
  O  O51  1  0.69250073  0.53177185  0.24411662  1
  O  O52  1  0.83375364  0.30915751  0.24217809  1
  O  O53  1  0.47702064  0.16891497  0.24242086  1
  O  O54  1  0.64355180  0.49620082  0.92432847  1
  O  O55  1  0.86056146  0.35939761  0.92419333  1
  O  O56  1  0.50901453  0.14528076  0.92554261  1
  O  O57  1  0.63626722  0.14528076  0.42554261  1
  O  O58  1  0.49883715  0.35939761  0.42419333  1
  O  O59  1  0.85265002  0.49620082  0.42432847  1
  O  O60  1  0.35856133  0.50224897  0.07575486  1
  O  O61  1  0.14207087  0.64249151  0.07551209  1
  O  O62  1  0.50593812  0.86510585  0.07745062  1
  O  O63  1  0.35916673  0.86510585  0.57745062  1
  O  O64  1  0.50041964  0.64249151  0.57551209  1
  O  O65  1  0.14368664  0.50224897  0.57575486  1
  O  O66  1  0.31021780  0.82953482  0.25766247  1
  O  O67  1  0.52722746  0.69273161  0.25752733  1
  O  O68  1  0.17568053  0.47861476  0.25887661  1
  O  O69  1  0.30293322  0.47861476  0.75887661  1
  O  O70  1  0.16550315  0.69273161  0.75752733  1
  O  O71  1  0.51931602  0.82953482  0.75766247  1
loop_
_geom_bond_atom_site_label_1
_geom_bond_atom_site_label_2
_geom_bond_distance
_geom_bond_site_symmetry_2
Na0 O44 2.475974 1_555
Na0 O42 2.482435 1_565
Na0 O37 2.526261 1_555
Na0 O36 2.538381 1_655
Na0 O43 2.541133 1_665
Na0 O38 2.575590 1_665
Na1 O45 2.475974 1_455
Na1 O47 2.482435 1_565
Na1 O40 2.526261 1_554
Na1 O41 2.538381 1_454
Na1 O46 2.541133 1_465
Na1 O39 2.575590 1_564
Na2 O56 2.475974 1_555
Na2 O54 2.482435 1_555
Na2 O49 2.526261 1_555
Na2 O48 2.538381 1_555
Na2 O55 2.541133 1_555
Na2 O50 2.575590 1_555
Na3 O57 2.475974 1_555
Na3 O59 2.482435 1_555
Na3 O52 2.526261 1_555
Na3 O53 2.538381 1_555
Na3 O58 2.541133 1_555
Na3 O51 2.575590 1_555
Na4 O68 2.475974 1_555
Na4 O66 2.482435 1_555
Na4 O61 2.526261 1_555
Na4 O60 2.538381 1_555
Na4 O67 2.541133 1_555
Na4 O62 2.575590 1_555
Na5 O69 2.475974 1_555
Na5 O71 2.482435 1_555
Na5 O64 2.526261 1_555
Na5 O65 2.538381 1_555
Na5 O70 2.541133 1_555
Na5 O63 2.575590 1_555
Al0 O6 1.821812 1_545
Al0 O42 1.858531 1_555
Al0 O7 1.870423 1_655
Al0 O44 1.922563 1_545
Al0 O8 2.041337 1_645
Al0 O43 2.064975 1_655
Al1 O11 1.821812 1_545
Al1 O47 1.858531 1_555
Al1 O10 1.870423 1_555
Al1 O45 1.922563 1_445
Al1 O9 2.041337 1_445
Al1 O46 2.064975 1_455
Al2 O18 1.821812 1_556
Al2 O54 1.858531 1_555
Al2 O19 1.870423 1_556
Al2 O56 1.922563 1_555
Al2 O20 2.041337 1_556
Al2 O55 2.064975 1_555
Al3 O23 1.821812 1_555
Al3 O59 1.858531 1_555
Al3 O22 1.870423 1_555
Al3 O57 1.922563 1_555
Al3 O21 2.041337 1_555
Al3 O58 2.064975 1_555
Al4 O30 1.821812 1_555
Al4 O66 1.858531 1_555
Al4 O31 1.870423 1_555
Al4 O68 1.922563 1_555
Al4 O32 2.041337 1_555
Al4 O67 2.064975 1_555
Al5 O35 1.821812 1_555
Al5 O71 1.858531 1_555
Al5 O34 1.870423 1_555
Al5 O69 1.922563 1_555
Al5 O33 2.041337 1_555
Al5 O70 2.064975 1_555
O0 P0 1.559999 1_545
O0 Ti0 1.899161 1_555
O1 S0 1.486079 1_555
O1 Ti0 1.997269 1_665
O2 P1 1.568577 1_655
O2 Ti0 1.877893 1_655
O3 P2 1.568577 1_555
O3 Ti1 1.877893 1_555
O4 S1 1.486080 1_655
O4 Ti1 1.997269 1_665
O5 P3 1.559999 1_545
O5 Ti1 1.899161 1_655
O6 P3 1.522148 1_555
O7 P2 1.523599 1_555
O8 S1 1.467184 1_555
O9 S0 1.467184 1_555
O10 P1 1.523599 1_555
O11 P0 1.522148 1_555
O12 P4 1.559999 1_555
O12 Ti2 1.899161 1_555
O13 S2 1.486079 1_555
O13 Ti2 1.997269 1_555
O14 P5 1.568577 1_555
O14 Ti2 1.877893 1_555
O15 P6 1.568577 1_555
O15 Ti3 1.877893 1_555
O16 S3 1.486080 1_555
O16 Ti3 1.997269 1_555
O17 P7 1.559999 1_555
O17 Ti3 1.899161 1_555
O18 P7 1.522148 1_555
O19 P6 1.523599 1_555
O20 S3 1.467184 1_555
O21 S2 1.467184 1_555
O22 P5 1.523599 1_555
O23 P4 1.522148 1_555
O24 P8 1.559999 1_555
O24 Ti4 1.899161 1_556
O25 S4 1.486079 1_555
O25 Ti4 1.997269 1_556
O26 P9 1.568577 1_555
O26 Ti4 1.877893 1_556
O27 P10 1.568577 1_555
O27 Ti5 1.877893 1_555
O28 S5 1.486080 1_555
O28 Ti5 1.997269 1_555
O29 P11 1.559999 1_555
O29 Ti5 1.899161 1_555
O30 P11 1.522148 1_555
O31 P10 1.523599 1_555
O32 S5 1.467184 1_555
O33 S4 1.467184 1_555
O34 P9 1.523599 1_555
O35 P8 1.522148 1_555
O36 P11 1.552836 1_555
O36 Ti0 1.965200 1_565
O37 P10 1.558686 1_555
O37 Ti0 1.953768 1_665
O38 S5 1.497544 1_555
O38 Ti0 2.003568 1_555
O39 S4 1.497547 1_555
O39 Ti1 2.003568 1_555
O40 P9 1.558678 1_555
O40 Ti1 1.953768 1_565
O41 P8 1.552841 1_555
O41 Ti1 1.965200 1_665
O42 P4 1.531425 1_555
O43 S2 1.469104 1_555
O44 P5 1.532512 1_555
O45 P6 1.532515 1_555
O46 S3 1.469096 1_555
O47 P7 1.531430 1_555
O48 P3 1.552836 1_545
O48 Ti2 1.965200 1_555
O49 P2 1.558686 1_555
O49 Ti2 1.953768 1_555
O50 S1 1.497544 1_655
O50 Ti2 2.003568 1_555
O51 S0 1.497547 1_555
O51 Ti3 2.003568 1_555
O52 P1 1.558678 1_655
O52 Ti3 1.953768 1_555
O53 P0 1.552841 1_545
O53 Ti3 1.965200 1_555
O54 P8 1.531435 1_555
O55 S4 1.469090 1_655
O56 P9 1.532507 1_545
O57 P10 1.532500 1_545
O58 S5 1.469107 1_555
O59 P11 1.531425 1_655
O60 P7 1.552848 1_555
O60 Ti4 1.965200 1_555
O61 P6 1.558672 1_455
O61 Ti4 1.953768 1_555
O62 S3 1.497541 1_565
O62 Ti4 2.003568 1_555
O63 S2 1.497534 1_565
O63 Ti5 2.003568 1_555
O64 P5 1.558689 1_555
O64 Ti5 1.953768 1_555
O65 P4 1.552838 1_455
O65 Ti5 1.965200 1_555
O66 P0 1.531425 1_555
O67 S0 1.469104 1_555
O68 P1 1.532512 1_555
O69 P2 1.532515 1_555
O70 S1 1.469096 1_555
O71 P3 1.531430 1_555
