# generated using pymatgen
data_NaHfInSi(SO6)2
_symmetry_space_group_name_H-M   'P 1'
_cell_length_a   8.88535730
_cell_length_b   8.94186109
_cell_length_c   23.45558804
_cell_angle_alpha   89.52581662
_cell_angle_beta   90.00000000
_cell_angle_gamma   119.79118774
_symmetry_Int_Tables_number   1
_chemical_formula_structural   NaHfInSi(SO6)2
_chemical_formula_sum   'Na6 Hf6 In6 Si6 S12 O72'
_cell_volume   1617.22332498
_cell_formula_units_Z   6
loop_
 _symmetry_equiv_pos_site_id
 _symmetry_equiv_pos_as_xyz
  1  'x, y, z'
loop_
 _atom_site_type_symbol
 _atom_site_label
 _atom_site_symmetry_multiplicity
 _atom_site_fract_x
 _atom_site_fract_y
 _atom_site_fract_z
 _atom_site_occupancy
  Na  Na0  1  0.02130818  0.01183428  0.50357309  1
  Na  Na1  1  0.99052610  0.01183428  0.00357309  1
  Na  Na2  1  0.68562673  0.33070209  0.83603534  1
  Na  Na3  1  0.64507636  0.33070209  0.33603534  1
  Na  Na4  1  0.34099762  0.68821995  0.16960496  1
  Na  Na5  1  0.34722133  0.68821995  0.66960496  1
  Hf  Hf0  1  0.01940439  0.01331082  0.35413750  1
  Hf  Hf1  1  0.99390643  0.01331082  0.85413750  1
  Hf  Hf2  1  0.65795015  0.31141291  0.68650620  1
  Hf  Hf3  1  0.65346376  0.31141291  0.18650620  1
  Hf  Hf4  1  0.33261006  0.66554046  0.01982572  1
  Hf  Hf5  1  0.33292940  0.66554046  0.51982572  1
  In  In0  1  0.99715750  0.99681020  0.64941555  1
  In  In1  1  0.99965270  0.99681020  0.14941555  1
  In  In2  1  0.68365727  0.32573485  0.98201857  1
  In  In3  1  0.64207857  0.32573485  0.48201857  1
  In  In4  1  0.33661780  0.67058350  0.31540101  1
  In  In5  1  0.33396470  0.67058350  0.81540101  1
  Si  Si0  1  0.28924839  0.99239747  0.24874395  1
  Si  Si1  1  0.70314908  0.99239747  0.74874395  1
  Si  Si2  1  0.36380607  0.03253577  0.58383695  1
  Si  Si3  1  0.66873070  0.03253577  0.08383695  1
  Si  Si4  1  0.04449255  0.38132435  0.91543223  1
  Si  Si5  1  0.33683080  0.38132435  0.41543223  1
  S  S0  1  0.70929810  0.70543565  0.25033525  1
  S  S1  1  0.99910008  0.29298079  0.24971520  1
  S  S2  1  0.29388070  0.29298079  0.74971520  1
  S  S3  1  0.99613755  0.70543565  0.75033525  1
  S  S4  1  0.95641703  0.33615894  0.58167936  1
  S  S5  1  0.66710640  0.62479072  0.58305791  1
  S  S6  1  0.95768531  0.62479072  0.08305791  1
  S  S7  1  0.37974291  0.33615894  0.08167936  1
  S  S8  1  0.62717334  0.66431025  0.91759689  1
  S  S9  1  0.33121466  0.96032380  0.91668893  1
  S  S10  1  0.62910815  0.96032380  0.41668893  1
  S  S11  1  0.03713591  0.66431025  0.41759689  1
  O  O0  1  0.19624371  0.02267372  0.30535723  1
  O  O1  1  0.81491106  0.79213714  0.30162932  1
  O  O2  1  0.96873058  0.18103674  0.30139861  1
  O  O3  1  0.21230615  0.18103674  0.80139861  1
  O  O4  1  0.97722608  0.79213714  0.80162932  1
  O  O5  1  0.82643001  0.02267372  0.80535723  1
  O  O6  1  0.78833507  0.96827341  0.69173064  1
  O  O7  1  0.19294406  0.21596179  0.69825241  1
  O  O8  1  0.02622826  0.80855508  0.69809156  1
  O  O9  1  0.78232682  0.80855508  0.19809156  1
  O  O10  1  0.02301773  0.21596179  0.19825241  1
  O  O11  1  0.17993833  0.96827341  0.19173064  1
  O  O12  1  0.87377725  0.36158997  0.63371995  1
  O  O13  1  0.49082371  0.13089259  0.63957763  1
  O  O14  1  0.64348329  0.51789323  0.63477571  1
  O  O15  1  0.87441094  0.51789323  0.13477571  1
  O  O16  1  0.64006988  0.13089259  0.13957763  1
  O  O17  1  0.48781372  0.36158997  0.13371995  1
  O  O18  1  0.46145391  0.31749876  0.03004188  1
  O  O19  1  0.85397478  0.55187377  0.03145967  1
  O  O20  1  0.69878820  0.14476750  0.02709460  1
  O  O21  1  0.44598030  0.14476750  0.52709460  1
  O  O22  1  0.69789999  0.55187377  0.53145967  1
  O  O23  1  0.85604585  0.31749876  0.53004188  1
  O  O24  1  0.54501071  0.69649743  0.96829112  1
  O  O25  1  0.16431685  0.47426800  0.97217716  1
  O  O26  1  0.31093080  0.85093171  0.96820093  1
  O  O27  1  0.53999991  0.85093171  0.46820093  1
  O  O28  1  0.30995015  0.47426800  0.47217716  1
  O  O29  1  0.15148571  0.69649743  0.46829112  1
  O  O30  1  0.11295782  0.64182399  0.36536563  1
  O  O31  1  0.52393823  0.88989206  0.36533266  1
  O  O32  1  0.35808360  0.48931378  0.35810335  1
  O  O33  1  0.13122918  0.48931378  0.85810335  1
  O  O34  1  0.36595283  0.88989206  0.86533266  1
  O  O35  1  0.52886517  0.64182399  0.86536563  1
  O  O36  1  0.01680826  0.82103895  0.41150632  1
  O  O37  1  0.79739711  0.96441111  0.41083851  1
  O  O38  1  0.15746589  0.18704119  0.41045446  1
  O  O39  1  0.02957529  0.18704119  0.91045446  1
  O  O40  1  0.16701400  0.96441111  0.91083851  1
  O  O41  1  0.80423068  0.82103895  0.91150632  1
  O  O42  1  0.97823485  0.18477399  0.58801704  1
  O  O43  1  0.17256096  0.01251220  0.59058319  1
  O  O44  1  0.81466778  0.79998773  0.58774766  1
  O  O45  1  0.98531995  0.79998773  0.08774766  1
  O  O46  1  0.83995123  0.01251220  0.09058319  1
  O  O47  1  0.20653915  0.18477399  0.08801704  1
  O  O48  1  0.69357225  0.17347921  0.74379078  1
  O  O49  1  0.47034598  0.31067719  0.74429233  1
  O  O50  1  0.83507765  0.53498301  0.74421442  1
  O  O51  1  0.69990636  0.53498301  0.24421442  1
  O  O52  1  0.84033221  0.31067719  0.24429233  1
  O  O53  1  0.47990796  0.17347921  0.24379078  1
  O  O54  1  0.64317423  0.51071189  0.92654551  1
  O  O55  1  0.85083957  0.35760655  0.91718346  1
  O  O56  1  0.47688428  0.13666818  0.92348639  1
  O  O57  1  0.65978489  0.13666818  0.42348639  1
  O  O58  1  0.50676798  0.35760655  0.41718346  1
  O  O59  1  0.86753867  0.51071189  0.42654551  1
  O  O60  1  0.36388401  0.49489256  0.07712974  1
  O  O61  1  0.13153844  0.63556132  0.07685395  1
  O  O62  1  0.49089914  0.84314327  0.07660094  1
  O  O63  1  0.35224313  0.84314327  0.57660094  1
  O  O64  1  0.50402188  0.63556132  0.57685395  1
  O  O65  1  0.13100754  0.49489256  0.57712974  1
  O  O66  1  0.31699568  0.82712532  0.25581268  1
  O  O67  1  0.53271596  0.68089926  0.25490002  1
  O  O68  1  0.15044156  0.46419963  0.25583795  1
  O  O69  1  0.31375707  0.46419963  0.75583795  1
  O  O70  1  0.14818230  0.68089926  0.75490002  1
  O  O71  1  0.51012863  0.82712532  0.75581268  1
loop_
_geom_bond_atom_site_label_1
_geom_bond_atom_site_label_2
_geom_bond_distance
_geom_bond_site_symmetry_2
Na0 O43 2.442022 1_555
Na0 O38 2.597805 1_555
Na0 O42 2.664534 1_455
Na0 O44 2.709180 1_445
Na0 O36 2.751147 1_545
Na0 O37 2.836589 1_445
Na1 O46 2.442022 1_555
Na1 O39 2.597805 1_654
Na1 O47 2.664534 1_655
Na1 O45 2.709180 1_545
Na1 O41 2.751147 1_544
Na1 O40 2.836589 1_644
Na2 O55 2.343570 1_555
Na2 O48 2.609942 1_555
Na2 O50 2.695010 1_555
Na2 O56 2.720531 1_555
Na2 O54 2.810703 1_555
Na2 O49 2.826249 1_555
Na3 O58 2.343570 1_555
Na3 O53 2.609942 1_555
Na3 O51 2.695010 1_555
Na3 O57 2.720531 1_555
Na3 O59 2.810703 1_555
Na3 O52 2.826249 1_555
Na4 O66 2.445754 1_555
Na4 O62 2.562889 1_555
Na4 O67 2.649032 1_555
Na4 O68 2.744673 1_555
Na4 O61 2.750375 1_555
Na4 O60 2.854117 1_555
Na5 O71 2.445754 1_555
Na5 O63 2.562889 1_555
Na5 O70 2.649032 1_555
Na5 O69 2.744673 1_555
Na5 O64 2.750375 1_555
Na5 O65 2.854117 1_555
Hf0 O0 1.911217 1_555
Hf0 O38 1.950220 1_555
Hf0 O2 2.150025 1_455
Hf0 O36 2.165504 1_545
Hf0 O37 2.232593 1_445
Hf0 O1 2.280175 1_445
Hf1 O5 1.911217 1_555
Hf1 O39 1.950220 1_655
Hf1 O3 2.150025 1_655
Hf1 O41 2.165504 1_545
Hf1 O40 2.232593 1_645
Hf1 O4 2.280175 1_545
Hf2 O13 1.915700 1_555
Hf2 O48 1.946094 1_555
Hf2 O12 2.132528 1_555
Hf2 O49 2.145876 1_555
Hf2 O14 2.257528 1_555
Hf2 O50 2.285616 1_555
Hf3 O16 1.915700 1_555
Hf3 O53 1.946094 1_555
Hf3 O17 2.132528 1_555
Hf3 O52 2.145876 1_555
Hf3 O15 2.257528 1_555
Hf3 O51 2.285616 1_555
Hf4 O25 1.975004 1_554
Hf4 O62 2.022157 1_555
Hf4 O26 2.129684 1_554
Hf4 O61 2.138035 1_555
Hf4 O24 2.138888 1_554
Hf4 O60 2.144671 1_555
Hf5 O28 1.975004 1_555
Hf5 O63 2.022157 1_555
Hf5 O27 2.129684 1_555
Hf5 O64 2.138035 1_555
Hf5 O29 2.138888 1_555
Hf5 O65 2.144671 1_555
In0 O6 2.004569 1_555
In0 O43 2.032809 1_665
In0 O8 2.145736 1_655
In0 O7 2.197335 1_665
In0 O44 2.241725 1_555
In0 O42 2.273305 1_565
In1 O11 2.004569 1_655
In1 O46 2.032809 1_565
In1 O9 2.145736 1_555
In1 O10 2.197335 1_665
In1 O45 2.241725 1_555
In1 O47 2.273305 1_665
In2 O20 1.985525 1_556
In2 O55 2.042713 1_555
In2 O19 2.173004 1_556
In2 O18 2.241977 1_556
In2 O56 2.251776 1_555
In2 O54 2.261376 1_555
In3 O21 1.985525 1_555
In3 O58 2.042713 1_555
In3 O22 2.173004 1_555
In3 O23 2.241977 1_555
In3 O57 2.251776 1_555
In3 O59 2.261376 1_555
In4 O32 1.986758 1_555
In4 O66 2.037989 1_555
In4 O31 2.186830 1_555
In4 O30 2.208197 1_555
In4 O67 2.212782 1_555
In4 O68 2.259029 1_555
In5 O33 1.986758 1_555
In5 O71 2.037989 1_555
In5 O34 2.186830 1_555
In5 O35 2.208197 1_555
In5 O70 2.212782 1_555
In5 O69 2.259029 1_555
O0 Si0 1.657639 1_545
O1 S0 1.490537 1_555
O2 S1 1.501962 1_555
O3 S2 1.501962 1_555
O4 S3 1.490537 1_555
O5 Si1 1.657639 1_545
O6 Si1 1.604612 1_555
O7 S2 1.461411 1_555
O8 S3 1.469578 1_455
O9 S0 1.469578 1_555
O10 S1 1.461411 1_455
O11 Si0 1.604612 1_555
O12 S4 1.500456 1_555
O13 Si2 1.670127 1_555
O14 S5 1.486847 1_555
O15 S6 1.486847 1_555
O16 Si3 1.670127 1_555
O17 S7 1.500456 1_555
O18 S7 1.464807 1_555
O19 S6 1.468014 1_555
O20 Si3 1.600433 1_555
O21 Si2 1.600433 1_555
O22 S5 1.468014 1_555
O23 S4 1.464807 1_555
O24 S8 1.498040 1_555
O25 Si4 1.653733 1_555
O26 S9 1.501469 1_555
O27 S10 1.501469 1_555
O28 Si5 1.653733 1_555
O29 S11 1.498040 1_555
O30 S11 1.460786 1_555
O31 S10 1.465834 1_555
O32 Si5 1.604238 1_555
O33 Si4 1.604238 1_555
O34 S9 1.465834 1_555
O35 S8 1.460786 1_555
O36 S11 1.505090 1_555
O37 S10 1.483820 1_555
O38 Si5 1.680412 1_555
O39 Si4 1.680415 1_555
O40 S9 1.483812 1_555
O41 S8 1.505095 1_555
O42 S4 1.466122 1_555
O43 Si2 1.625378 1_555
O44 S5 1.465331 1_555
O45 S6 1.465334 1_555
O46 Si3 1.625369 1_555
O47 S7 1.466127 1_555
O48 Si1 1.666245 1_545
O49 S2 1.500943 1_555
O50 S3 1.492607 1_555
O51 S0 1.492611 1_555
O52 S1 1.500934 1_555
O53 Si0 1.666250 1_545
O54 S8 1.462844 1_555
O55 Si4 1.626232 1_655
O56 S9 1.470800 1_545
O57 S10 1.470793 1_545
O58 Si5 1.626249 1_555
O59 S11 1.462834 1_655
O60 S7 1.497365 1_555
O61 S6 1.506197 1_455
O62 Si3 1.655073 1_565
O63 Si2 1.655065 1_565
O64 S5 1.506215 1_555
O65 S4 1.497355 1_455
O66 Si0 1.621815 1_555
O67 S0 1.476108 1_555
O68 S1 1.459716 1_455
O69 S2 1.459719 1_555
O70 S3 1.476099 1_455
O71 Si1 1.621820 1_555
