# generated using pymatgen
data_Na2YGaSi(SO6)2
_symmetry_space_group_name_H-M   'P 1'
_cell_length_a   8.98325983
_cell_length_b   9.04222107
_cell_length_c   23.03815558
_cell_angle_alpha   89.09313414
_cell_angle_beta   89.21934166
_cell_angle_gamma   119.96070665
_symmetry_Int_Tables_number   1
_chemical_formula_structural   Na2YGaSi(SO6)2
_chemical_formula_sum   'Na12 Y6 Ga6 Si6 S12 O72'
_cell_volume   1620.58075465
_cell_formula_units_Z   6
loop_
 _symmetry_equiv_pos_site_id
 _symmetry_equiv_pos_as_xyz
  1  'x, y, z'
loop_
 _atom_site_type_symbol
 _atom_site_label
 _atom_site_symmetry_multiplicity
 _atom_site_fract_x
 _atom_site_fract_y
 _atom_site_fract_z
 _atom_site_occupancy
  Na  Na0  1  0.99691663  0.62999281  0.25386538  1
  Na  Na1  1  0.37572323  0.00932930  0.74465004  1
  Na  Na2  1  0.65791415  0.96152255  0.59607256  1
  Na  Na3  1  0.03208022  0.34292904  0.10144413  1
  Na  Na4  1  0.99500853  0.67892486  0.93272835  1
  Na  Na5  1  0.32353096  0.02303069  0.41895140  1
  Na  Na6  1  0.00869776  0.98357506  0.50028318  1
  Na  Na7  1  0.02962808  0.98251080  0.00376189  1
  Na  Na8  1  0.66647391  0.29603469  0.82771440  1
  Na  Na9  1  0.68513585  0.33665375  0.33868566  1
  Na  Na10  1  0.33838079  0.65859126  0.17540758  1
  Na  Na11  1  0.33025026  0.66287388  0.66309375  1
  Y  Y0  1  0.99455069  0.00736949  0.84681093  1
  Y  Y1  1  0.99888869  0.98706079  0.15673635  1
  Y  Y2  1  0.65468927  0.32405978  0.98111053  1
  Y  Y3  1  0.33252570  0.68325009  0.02268408  1
  Y  Y4  1  0.31673553  0.67889939  0.51495674  1
  Y  Y5  1  0.35765864  0.68925680  0.80824105  1
  Ga  Ga0  1  0.96676235  0.98522725  0.34956621  1
  Ga  Ga1  1  0.01551630  0.00469773  0.64645110  1
  Ga  Ga2  1  0.66608873  0.32052439  0.67830734  1
  Ga  Ga3  1  0.68866941  0.32213857  0.19097788  1
  Ga  Ga4  1  0.66618530  0.35657917  0.48559215  1
  Ga  Ga5  1  0.28627822  0.62089371  0.32068739  1
  Si  Si0  1  0.99941016  0.29073711  0.25177907  1
  Si  Si1  1  0.71585334  0.01385969  0.73622277  1
  Si  Si2  1  0.37544532  0.06073094  0.58171896  1
  Si  Si3  1  0.95173678  0.62244843  0.08672876  1
  Si  Si4  1  0.33333980  0.97569125  0.90808730  1
  Si  Si5  1  0.01490548  0.66916264  0.41249959  1
  S  S0  1  0.31749068  0.00131025  0.25627926  1
  S  S1  1  0.68171398  0.68895068  0.25787954  1
  S  S2  1  0.30712519  0.30017990  0.74022531  1
  S  S3  1  0.98780003  0.69684754  0.74385205  1
  S  S4  1  0.94870733  0.32962088  0.58104916  1
  S  S5  1  0.67580869  0.62657242  0.58553640  1
  S  S6  1  0.66469645  0.03771699  0.09161627  1
  S  S7  1  0.37520247  0.33449153  0.09189578  1
  S  S8  1  0.63435601  0.66584214  0.91694959  1
  S  S9  1  0.04521539  0.37141231  0.91807975  1
  S  S10  1  0.62698758  0.96070792  0.41378084  1
  S  S11  1  0.32933009  0.36713888  0.41570563  1
  O  O0  1  0.24351726  0.02834948  0.30962574  1
  O  O1  1  0.80824625  0.77613743  0.30513456  1
  O  O2  1  0.98375508  0.15847818  0.30415299  1
  O  O3  1  0.23103291  0.19555757  0.79475809  1
  O  O4  1  0.96862316  0.76816614  0.79935399  1
  O  O5  1  0.80754113  0.02250747  0.79697557  1
  O  O6  1  0.82312483  0.99721211  0.67995730  1
  O  O7  1  0.20307632  0.21026040  0.68978807  1
  O  O8  1  0.03062994  0.82434988  0.69497871  1
  O  O9  1  0.75352314  0.78892659  0.20243438  1
  O  O10  1  0.02086776  0.22332501  0.18939215  1
  O  O11  1  0.19664454  0.96277693  0.20681115  1
  O  O12  1  0.87510557  0.35264372  0.63592558  1
  O  O13  1  0.49330498  0.14436606  0.63838348  1
  O  O14  1  0.66439486  0.52233811  0.63739645  1
  O  O15  1  0.84571923  0.50103143  0.14506203  1
  O  O16  1  0.64260740  0.11986096  0.14357317  1
  O  O17  1  0.46674187  0.32629319  0.14302421  1
  O  O18  1  0.45562276  0.32706434  0.03621947  1
  O  O19  1  0.86524901  0.53858680  0.02492899  1
  O  O20  1  0.66930182  0.12858337  0.03709372  1
  O  O21  1  0.46857958  0.17402753  0.52044266  1
  O  O22  1  0.69347027  0.55149193  0.53068152  1
  O  O23  1  0.84599815  0.32325260  0.53014281  1
  O  O24  1  0.53730931  0.65356315  0.97034664  1
  O  O25  1  0.13257837  0.44742192  0.97307030  1
  O  O26  1  0.31570612  0.84880246  0.96337023  1
  O  O27  1  0.56610574  0.87264608  0.47219194  1
  O  O28  1  0.31527533  0.45518248  0.46746304  1
  O  O29  1  0.15371563  0.73075152  0.46475355  1
  O  O30  1  0.09883120  0.62809980  0.35448983  1
  O  O31  1  0.50959003  0.85735025  0.36800403  1
  O  O32  1  0.35078669  0.47260219  0.36197201  1
  O  O33  1  0.14991729  0.47143804  0.86680836  1
  O  O34  1  0.34275737  0.89224189  0.84589248  1
  O  O35  1  0.53949332  0.65978986  0.86434101  1
  O  O36  1  0.00578478  0.84720018  0.40055205  1
  O  O37  1  0.80400908  0.98677950  0.40701925  1
  O  O38  1  0.17589160  0.19469067  0.41302940  1
  O  O39  1  0.01043980  0.19388148  0.91702400  1
  O  O40  1  0.15066298  0.97462751  0.91269592  1
  O  O41  1  0.80177102  0.82745984  0.91742027  1
  O  O42  1  0.95585325  0.16964946  0.58097563  1
  O  O43  1  0.17813988  0.03356491  0.58891179  1
  O  O44  1  0.82829171  0.80146458  0.58692141  1
  O  O45  1  0.97841207  0.81368111  0.08962203  1
  O  O46  1  0.82884707  0.03696325  0.09259835  1
  O  O47  1  0.19509815  0.18708360  0.09090060  1
  O  O48  1  0.68919949  0.18362157  0.73532459  1
  O  O49  1  0.48301571  0.32266743  0.73600461  1
  O  O50  1  0.83089549  0.53263583  0.73523491  1
  O  O51  1  0.66778863  0.51912427  0.25377850  1
  O  O52  1  0.82915417  0.32081474  0.25176571  1
  O  O53  1  0.48530834  0.15972199  0.24334753  1
  O  O54  1  0.67156072  0.52327960  0.91400405  1
  O  O55  1  0.88005566  0.37330969  0.91570110  1
  O  O56  1  0.50158312  0.16360571  0.91154088  1
  O  O57  1  0.63359479  0.12806673  0.41495851  1
  O  O58  1  0.48536623  0.34895129  0.41757485  1
  O  O59  1  0.82822938  0.49662899  0.42827243  1
  O  O60  1  0.36349607  0.49366187  0.09209775  1
  O  O61  1  0.13981605  0.62950286  0.08989139  1
  O  O62  1  0.51796717  0.86033188  0.09195674  1
  O  O63  1  0.36537721  0.87297408  0.57816827  1
  O  O64  1  0.51825035  0.64336605  0.58415177  1
  O  O65  1  0.12695832  0.47821136  0.57735027  1
  O  O66  1  0.34015308  0.84900222  0.26145971  1
  O  O67  1  0.51418093  0.67795594  0.26902030  1
  O  O68  1  0.16622832  0.48806485  0.25846796  1
  O  O69  1  0.31705738  0.46743518  0.74392046  1
  O  O70  1  0.14083937  0.67242744  0.74654683  1
  O  O71  1  0.51786451  0.84746813  0.73418388  1
loop_
_geom_bond_atom_site_label_1
_geom_bond_atom_site_label_2
_geom_bond_distance
_geom_bond_site_symmetry_2
Na0 O52 2.426379 1_555
Na0 O68 2.433365 1_655
Na0 O30 2.506944 1_655
Na0 O51 2.605083 1_555
Na0 O66 2.717788 1_655
Na0 O11 2.810739 1_655
Na0 O15 2.844492 1_555
Na0 O1 2.871572 1_555
Na1 O71 2.387482 1_545
Na1 O48 2.449489 1_555
Na1 O34 2.497745 1_545
Na1 O49 2.499085 1_555
Na1 O13 2.673376 1_555
Na1 O70 2.703213 1_545
Na1 O3 2.839798 1_555
Na1 O8 2.948854 1_545
Na2 O63 2.378158 1_555
Na2 O6 2.379297 1_555
Na2 O42 2.397722 1_565
Na2 O64 2.520922 1_555
Na2 O44 2.587469 1_555
Na2 O13 2.885111 1_565
Na2 O27 2.990982 1_555
Na3 O10 2.258618 1_555
Na3 O61 2.277809 1_555
Na3 O46 2.451903 1_455
Na3 O47 2.500346 1_555
Na3 O60 2.586113 1_555
Na3 O15 2.871646 1_455
Na4 O40 2.350850 1_655
Na4 O19 2.418836 1_556
Na4 O55 2.460066 1_555
Na4 O54 2.564825 1_555
Na4 O26 2.612894 1_655
Na4 O41 2.696665 1_555
Na5 O57 2.452921 1_555
Na5 O38 2.498269 1_555
Na5 O29 2.503246 1_545
Na5 O36 2.525179 1_545
Na5 O58 2.552661 1_555
Na5 O0 2.634890 1_555
Na5 O21 2.726936 1_555
Na6 O43 2.473264 1_565
Na6 O44 2.542497 1_455
Na6 O36 2.619056 1_555
Na6 O38 2.621686 1_565
Na6 O42 2.717514 1_465
Na6 O37 2.856121 1_455
Na7 O40 2.368298 1_554
Na7 O45 2.373389 1_455
Na7 O47 2.667189 1_565
Na7 O41 2.728555 1_454
Na7 O39 2.809503 1_564
Na7 O46 2.915932 1_465
Na8 O56 2.331265 1_555
Na8 O48 2.422655 1_555
Na8 O55 2.662742 1_555
Na8 O49 2.777280 1_555
Na8 O50 2.812773 1_555
Na8 O54 2.866050 1_555
Na9 O52 2.414078 1_555
Na9 O57 2.420764 1_555
Na9 O59 2.512794 1_555
Na9 O58 2.579320 1_555
Na9 O51 2.595358 1_555
Na9 O53 2.820700 1_555
Na10 O68 2.423863 1_555
Na10 O60 2.524593 1_555
Na10 O62 2.547855 1_555
Na10 O61 2.603067 1_555
Na10 O66 2.641287 1_555
Na10 O67 2.646598 1_555
Na11 O71 2.379254 1_555
Na11 O69 2.507007 1_555
Na11 O64 2.532773 1_555
Na11 O70 2.581084 1_555
Na11 O63 2.608343 1_555
Na11 O65 2.679974 1_555
Ga0 O2 1.810243 1_565
Ga0 O36 1.860673 1_655
Ga0 O37 1.964205 1_555
Ga0 O1 2.015438 1_555
Ga0 O38 2.421331 1_665
Ga0 O0 2.477453 1_665
Ga1 O6 1.852734 1_445
Ga1 O43 1.874820 1_555
Ga1 O8 2.023666 1_545
Ga1 O7 2.065704 1_555
Ga1 O44 2.267649 1_445
Ga1 O42 2.352992 1_455
Ga2 O13 1.846140 1_555
Ga2 O48 1.874470 1_555
Ga2 O12 1.989892 1_555
Ga2 O14 2.047510 1_555
Ga2 O49 2.108320 1_555
Ga2 O50 2.210625 1_555
Ga3 O15 1.830775 1_555
Ga3 O52 1.901779 1_555
Ga3 O16 2.007220 1_555
Ga3 O53 2.038120 1_555
Ga3 O17 2.308678 1_555
Ga3 O51 2.389345 1_555
Ga4 O21 1.874300 1_555
Ga4 O59 1.876158 1_555
Ga4 O22 1.969456 1_555
Ga4 O23 2.067612 1_555
Ga4 O58 2.249355 1_555
Ga4 O57 2.553105 1_555
Ga5 O68 1.860960 1_555
Ga5 O30 1.876599 1_555
Ga5 O32 1.946583 1_555
Ga5 O67 2.175686 1_555
Ga5 O66 2.290478 1_555
Ga5 O31 2.373466 1_555
O0 S0 1.470155 1_555
O1 S1 1.504852 1_555
O2 Si0 1.639385 1_555
O3 S2 1.494545 1_555
O3 Y0 2.258762 1_455
O4 S3 1.487139 1_555
O4 Y0 2.346589 1_565
O5 Si1 1.616800 1_555
O5 Y0 2.106281 1_555
O6 Si1 1.657882 1_565
O7 S2 1.478301 1_555
O8 S3 1.499680 1_455
O9 S1 1.491147 1_555
O9 Y1 2.260384 1_555
O10 Si0 1.616177 1_455
O10 Y1 2.191485 1_445
O11 S0 1.505724 1_565
O11 Y1 2.229899 1_455
O12 S4 1.483869 1_555
O13 Si2 1.632868 1_555
O14 S5 1.480129 1_555
O15 Si3 1.671070 1_555
O16 S6 1.480792 1_555
O17 S7 1.467544 1_555
O18 S7 1.482440 1_555
O18 Y2 2.190500 1_554
O19 Si3 1.637556 1_555
O19 Y2 2.192932 1_554
O20 S6 1.478696 1_555
O20 Y2 2.229144 1_554
O21 Si2 1.675801 1_555
O22 S5 1.487423 1_555
O23 S4 1.486140 1_555
O24 S8 1.468144 1_555
O24 Y3 2.313691 1_556
O25 S9 1.486332 1_555
O25 Y3 2.321069 1_556
O26 Si4 1.652371 1_555
O26 Y3 2.073110 1_556
O27 S10 1.501694 1_555
O27 Y4 2.241311 1_555
O28 S11 1.482525 1_555
O28 Y4 2.309424 1_555
O29 Si5 1.637925 1_555
O29 Y4 2.101650 1_555
O30 Si5 1.661381 1_555
O31 S10 1.474760 1_555
O32 S11 1.500513 1_555
O33 S9 1.477887 1_555
O33 Y5 2.314838 1_555
O34 Si4 1.650540 1_555
O34 Y5 2.105183 1_555
O35 S8 1.477098 1_555
O35 Y5 2.211550 1_555
O36 Si5 1.671060 1_555
O37 S10 1.492085 1_555
O38 S11 1.481140 1_555
O39 S9 1.475005 1_555
O39 Y0 2.309409 1_455
O40 Si4 1.638234 1_555
O40 Y0 2.194715 1_465
O41 S8 1.484354 1_555
O41 Y0 2.305921 1_565
O42 S4 1.479627 1_555
O43 Si2 1.668893 1_555
O44 S5 1.489085 1_555
O45 Si3 1.625454 1_555
O45 Y1 2.163050 1_555
O46 S6 1.478502 1_555
O46 Y1 2.334343 1_545
O47 S7 1.497608 1_555
O47 Y1 2.309683 1_445
O48 Si1 1.667422 1_555
O49 S2 1.490539 1_555
O50 S3 1.468819 1_555
O51 S1 1.481794 1_555
O52 Si0 1.681867 1_555
O53 S0 1.493529 1_555
O54 S8 1.486780 1_555
O54 Y2 2.300192 1_555
O55 S9 1.494052 1_655
O55 Y2 2.358585 1_555
O56 Si4 1.618726 1_545
O56 Y2 2.169349 1_555
O57 S10 1.485245 1_545
O58 S11 1.491767 1_555
O59 Si5 1.652412 1_655
O60 S7 1.494625 1_555
O60 Y3 2.444436 1_555
O61 Si3 1.661284 1_455
O61 Y3 2.166391 1_555
O62 S6 1.482494 1_565
O62 Y3 2.318412 1_555
O63 Si2 1.657835 1_565
O63 Y4 2.173378 1_555
O64 S5 1.497715 1_555
O64 Y4 2.562202 1_555
O65 S4 1.490078 1_455
O65 Y4 2.241937 1_555
O66 S0 1.492608 1_565
O67 S1 1.476477 1_555
O68 Si0 1.672549 1_455
O69 S2 1.473751 1_555
O69 Y5 2.393748 1_555
O70 S3 1.499256 1_455
O70 Y5 2.371340 1_555
O71 Si1 1.661615 1_565
O71 Y5 2.197298 1_555
