# generated using pymatgen
data_Co3Mo3N
_symmetry_space_group_name_H-M   'P 1'
_cell_length_a   7.81345781
_cell_length_b   7.81345781
_cell_length_c   7.81345781
_cell_angle_alpha   60.00000000
_cell_angle_beta   60.00000000
_cell_angle_gamma   60.00000000
_symmetry_Int_Tables_number   1
_chemical_formula_structural   Co3Mo3N
_chemical_formula_sum   'Co12 Mo12 N4'
_cell_volume   337.29881549
_cell_formula_units_Z   4
loop_
 _symmetry_equiv_pos_site_id
 _symmetry_equiv_pos_as_xyz
  1  'x, y, z'
loop_
 _atom_site_type_symbol
 _atom_site_label
 _atom_site_symmetry_multiplicity
 _atom_site_fract_x
 _atom_site_fract_y
 _atom_site_fract_z
 _atom_site_occupancy
  Co  Co0  1  0.62500000  0.12500000  0.62500000  1
  Co  Co1  1  0.62500000  0.62500000  0.12500000  1
  Co  Co2  1  0.12500000  0.62500000  0.62500000  1
  Co  Co3  1  0.62500000  0.62500000  0.62500000  1
  Co  Co4  1  0.83040900  0.50877300  0.83040900  1
  Co  Co5  1  0.41959100  0.41959100  0.74122700  1
  Co  Co6  1  0.74122700  0.41959100  0.41959100  1
  Co  Co7  1  0.41959100  0.41959100  0.41959100  1
  Co  Co8  1  0.50877300  0.83040900  0.83040900  1
  Co  Co9  1  0.83040900  0.83040900  0.83040900  1
  Co  Co10  1  0.83040900  0.83040900  0.50877300  1
  Co  Co11  1  0.41959100  0.74122700  0.41959100  1
  Mo  Mo0  1  0.20209600  0.20209600  0.79790400  1
  Mo  Mo1  1  0.45209600  0.04790400  0.04790400  1
  Mo  Mo2  1  0.04790400  0.45209600  0.45209600  1
  Mo  Mo3  1  0.45209600  0.45209600  0.04790400  1
  Mo  Mo4  1  0.45209600  0.04790400  0.45209600  1
  Mo  Mo5  1  0.04790400  0.45209600  0.04790400  1
  Mo  Mo6  1  0.79790400  0.20209600  0.79790400  1
  Mo  Mo7  1  0.79790400  0.20209600  0.20209600  1
  Mo  Mo8  1  0.20209600  0.79790400  0.79790400  1
  Mo  Mo9  1  0.20209600  0.79790400  0.20209600  1
  Mo  Mo10  1  0.04790400  0.04790400  0.45209600  1
  Mo  Mo11  1  0.79790400  0.79790400  0.20209600  1
  N  N0  1  0.12500000  0.62500000  0.12500000  1
  N  N1  1  0.12500000  0.12500000  0.62500000  1
  N  N2  1  0.62500000  0.12500000  0.12500000  1
  N  N3  1  0.12500000  0.12500000  0.12500000  1
loop_
_geom_bond_atom_site_label_1
_geom_bond_atom_site_label_2
_geom_bond_distance
_geom_bond_site_symmetry_2
Co0 Co5 2.374303 1_555
Co0 Co9 2.374303 1_545
Co0 Co6 2.374303 1_555
Co0 Co8 2.374303 1_545
Co0 Co10 2.374303 1_545
Co0 Co7 2.374303 1_555
Co0 Mo10 2.732383 1_655
Co0 Mo1 2.732383 1_556
Co0 Mo6 2.732383 1_555
Co0 Mo4 2.732383 1_555
Co0 Mo7 2.732383 1_555
Co0 Mo0 2.732383 1_555
Co1 Co11 2.374303 1_555
Co1 Co6 2.374303 1_555
Co1 Co9 2.374303 1_554
Co1 Co7 2.374303 1_555
Co1 Co8 2.374303 1_554
Co1 Co4 2.374303 1_554
Co1 Mo5 2.732383 1_655
Co1 Mo1 2.732383 1_565
Co1 Mo11 2.732383 1_555
Co1 Mo7 2.732383 1_555
Co1 Mo3 2.732383 1_555
Co1 Mo9 2.732383 1_555
Co2 Co9 2.374303 1_455
Co2 Co5 2.374303 1_555
Co2 Co4 2.374303 1_455
Co2 Co7 2.374303 1_555
Co2 Mo10 2.732383 1_565
Co2 Mo5 2.732383 1_556
Co2 Mo8 2.732383 1_555
Co2 Mo9 2.732383 1_555
Co2 Mo2 2.732383 1_555
Co2 Mo0 2.732383 1_555
Co3 Co8 2.374303 1_555
Co3 Co4 2.374303 1_555
Co3 Co5 2.374303 1_555
Co3 Co6 2.374303 1_555
Co3 Mo4 2.732383 1_565
Co3 Mo2 2.732383 1_655
Co3 Mo3 2.732383 1_556
Co3 Mo11 2.732383 1_555
Co3 Mo8 2.732383 1_555
Co3 Mo6 2.732383 1_555
Co4 Co8 2.513089 1_555
Co4 Co9 2.513089 1_555
Co4 Mo6 2.674413 1_555
Co4 Mo0 2.674413 1_655
Co4 Mo7 2.674413 1_556
Co4 Mo2 2.711963 1_655
Co4 Mo5 2.711963 1_656
Co4 Mo3 2.711963 1_556
Co5 Co6 2.513089 1_555
Co5 Co7 2.513089 1_555
Co5 Mo1 2.674413 1_556
Co5 Mo5 2.674413 1_556
Co5 Mo3 2.674413 1_556
Co5 Mo8 2.711963 1_555
Co5 Mo6 2.711963 1_555
Co5 Mo0 2.711963 1_555
Co6 Co7 2.513089 1_555
Co6 Mo5 2.674413 1_655
Co6 Mo10 2.674413 1_655
Co6 Mo2 2.674413 1_655
Co6 Mo6 2.711963 1_555
Co6 Mo11 2.711963 1_555
Co6 Mo7 2.711963 1_555
Co7 Mo3 2.674413 1_555
Co7 Mo4 2.674413 1_555
Co7 Mo2 2.674413 1_555
Co7 Mo0 2.711963 1_555
Co7 Mo7 2.711963 1_555
Co7 Mo9 2.711963 1_555
Co8 Co9 2.513089 1_555
Co8 Mo8 2.674413 1_555
Co8 Mo9 2.674413 1_556
Co8 Mo0 2.674413 1_565
Co8 Mo4 2.711963 1_565
Co8 Mo3 2.711963 1_556
Co8 Mo1 2.711963 1_566
Co9 Mo8 2.674413 1_655
Co9 Mo6 2.674413 1_565
Co9 Mo11 2.674413 1_556
Co9 Mo1 2.711963 1_566
Co9 Mo10 2.711963 1_665
Co9 Mo5 2.711963 1_656
Co10 Co3 2.374303 1_555
Co10 Co2 2.374303 1_655
Co10 Co4 2.513089 1_555
Co10 Co8 2.513089 1_555
Co10 Co9 2.513089 1_555
Co10 Mo11 2.674413 1_555
Co10 Mo9 2.674413 1_655
Co10 Mo7 2.674413 1_565
Co10 Mo4 2.711963 1_565
Co10 Mo2 2.711963 1_655
Co10 Mo10 2.711963 1_665
Co11 Co2 2.374303 1_555
Co11 Co3 2.374303 1_555
Co11 Co6 2.513089 1_555
Co11 Co7 2.513089 1_555
Co11 Co5 2.513089 1_555
Co11 Mo1 2.674413 1_565
Co11 Mo4 2.674413 1_565
Co11 Mo10 2.674413 1_565
Co11 Mo11 2.711963 1_555
Co11 Mo8 2.711963 1_555
Co11 Mo9 2.711963 1_555
Mo0 N1 2.131049 1_555
Mo0 N3 2.131049 1_556
Mo1 N3 2.131049 1_555
Mo1 N2 2.131049 1_555
Mo2 N0 2.131049 1_555
Mo2 N1 2.131049 1_555
Mo3 N0 2.131049 1_555
Mo3 N2 2.131049 1_555
Mo4 N1 2.131049 1_555
Mo4 N2 2.131049 1_555
Mo5 N0 2.131049 1_555
Mo5 N3 2.131049 1_555
Mo6 N2 2.131049 1_556
Mo6 N1 2.131049 1_655
Mo7 N2 2.131049 1_555
Mo7 N3 2.131049 1_655
Mo8 N0 2.131049 1_556
Mo8 N1 2.131049 1_565
Mo9 N0 2.131049 1_555
Mo9 N3 2.131049 1_565
Mo10 N3 2.131049 1_555
Mo10 N1 2.131049 1_555
Mo11 N2 2.131049 1_565
Mo11 N0 2.131049 1_655
