# generated using pymatgen
data_MgMn2CoO6
_symmetry_space_group_name_H-M   'P 1'
_cell_length_a   6.49847996
_cell_length_b   2.98618791
_cell_length_c   6.08148859
_cell_angle_alpha   85.96977058
_cell_angle_beta   101.67143486
_cell_angle_gamma   76.97623817
_symmetry_Int_Tables_number   1
_chemical_formula_structural   MgMn2CoO6
_chemical_formula_sum   'Mg1 Mn2 Co1 O6'
_cell_volume   111.76891783
_cell_formula_units_Z   1
loop_
 _symmetry_equiv_pos_site_id
 _symmetry_equiv_pos_as_xyz
  1  'x, y, z'
loop_
 _atom_site_type_symbol
 _atom_site_label
 _atom_site_symmetry_multiplicity
 _atom_site_fract_x
 _atom_site_fract_y
 _atom_site_fract_z
 _atom_site_occupancy
  Mg  Mg0  1  0.65220000  0.67421800  0.15813700  1
  Mn  Mn0  1  0.01491500  0.00808700  0.98964900  1
  Mn  Mn1  1  0.67549800  0.66551300  0.65673100  1
  Co  Co0  1  0.31149000  0.31077100  0.35994000  1
  O  O0  1  0.99579500  0.49354700  0.19725700  1
  O  O1  1  0.36230500  0.80325900  0.57306600  1
  O  O2  1  0.69628600  0.19422000  0.91725000  1
  O  O3  1  0.31953500  0.82546800  0.12265400  1
  O  O4  1  0.65387400  0.13785100  0.40451500  1
  O  O5  1  0.99173500  0.54535900  0.77799700  1
loop_
_geom_bond_atom_site_label_1
_geom_bond_atom_site_label_2
_geom_bond_distance
_geom_bond_site_symmetry_2
Mg0 O3 2.069177 1_555
Mg0 O4 2.110396 1_565
Mg0 O4 2.111584 1_555
Mg0 O0 2.134796 1_555
Mg0 O2 2.136020 1_554
Mg0 O2 2.165636 1_564
Mn0 O3 1.916752 1_546
Mn0 O5 1.943166 1_455
Mn0 O0 1.961431 1_446
Mn0 O5 1.963210 1_445
Mn0 O2 1.966779 1_455
Mn0 O0 1.987620 1_456
Mn1 O1 1.935125 1_555
Mn1 O4 1.970094 1_565
Mn1 O5 1.978171 1_555
Mn1 O2 2.005834 1_555
Mn1 O4 2.282013 1_555
Mn1 O2 2.319958 1_565
Co0 O1 1.846877 1_545
Co0 O0 2.020826 1_455
Co0 O3 2.049980 1_555
Co0 O1 2.065304 1_555
Co0 O3 2.115578 1_545
Co0 O4 2.123465 1_555
