# generated using pymatgen
data_YbBH4
_symmetry_space_group_name_H-M   'P 1'
_cell_length_a   7.81329000
_cell_length_b   8.54023600
_cell_length_c   8.62649900
_cell_angle_alpha   90.00000000
_cell_angle_beta   90.00000000
_cell_angle_gamma   90.00000000
_symmetry_Int_Tables_number   1
_chemical_formula_structural   YbBH4
_chemical_formula_sum   'Yb8 B8 H32'
_cell_volume   575.62333641
_cell_formula_units_Z   8
loop_
 _symmetry_equiv_pos_site_id
 _symmetry_equiv_pos_as_xyz
  1  'x, y, z'
loop_
 _atom_site_type_symbol
 _atom_site_label
 _atom_site_symmetry_multiplicity
 _atom_site_fract_x
 _atom_site_fract_y
 _atom_site_fract_z
 _atom_site_occupancy
  Yb  Yb0  1  0.24960100  0.01722100  0.98269300  1
  Yb  Yb1  1  0.24960100  0.48277900  0.98269300  1
  Yb  Yb2  1  0.24960100  0.01722100  0.51730700  1
  Yb  Yb3  1  0.24960100  0.48277900  0.51730700  1
  Yb  Yb4  1  0.75039900  0.98277900  0.01730700  1
  Yb  Yb5  1  0.75039900  0.51722100  0.01730700  1
  Yb  Yb6  1  0.75039900  0.98277900  0.48269300  1
  Yb  Yb7  1  0.75039900  0.51722100  0.48269300  1
  B  B0  1  0.44081500  0.75000000  0.03205700  1
  B  B1  1  0.44081500  0.75000000  0.46794300  1
  B  B2  1  0.93687900  0.03127100  0.75000000  1
  B  B3  1  0.93687900  0.46872900  0.75000000  1
  B  B4  1  0.55918500  0.25000000  0.96794300  1
  B  B5  1  0.55918500  0.25000000  0.53205700  1
  B  B6  1  0.06312100  0.96872900  0.25000000  1
  B  B7  1  0.06312100  0.53127100  0.25000000  1
  H  H0  1  0.32131000  0.98454300  0.75000000  1
  H  H1  1  0.32131000  0.51545700  0.75000000  1
  H  H2  1  0.83238400  0.75000000  0.98519100  1
  H  H3  1  0.83238400  0.75000000  0.51480900  1
  H  H4  1  0.67869000  0.01545700  0.25000000  1
  H  H5  1  0.67869000  0.48454300  0.25000000  1
  H  H6  1  0.16761600  0.25000000  0.01480900  1
  H  H7  1  0.16761600  0.25000000  0.48519100  1
  H  H8  1  0.36383600  0.75000000  0.91057400  1
  H  H9  1  0.36383600  0.75000000  0.58942600  1
  H  H10  1  0.85824500  0.90954800  0.75000000  1
  H  H11  1  0.85824500  0.59045200  0.75000000  1
  H  H12  1  0.63616400  0.25000000  0.08942600  1
  H  H13  1  0.63616400  0.25000000  0.41057400  1
  H  H14  1  0.14175500  0.09045200  0.25000000  1
  H  H15  1  0.14175500  0.40954800  0.25000000  1
  H  H16  1  0.52433000  0.12974300  0.89935500  1
  H  H17  1  0.52433000  0.37025700  0.89935500  1
  H  H18  1  0.52433000  0.12974300  0.60064500  1
  H  H19  1  0.52433000  0.37025700  0.60064500  1
  H  H20  1  0.02587900  0.90049300  0.13097900  1
  H  H21  1  0.02587900  0.59950700  0.13097900  1
  H  H22  1  0.02587900  0.90049300  0.36902100  1
  H  H23  1  0.02587900  0.59950700  0.36902100  1
  H  H24  1  0.47567000  0.87025700  0.10064500  1
  H  H25  1  0.47567000  0.62974300  0.10064500  1
  H  H26  1  0.47567000  0.87025700  0.39935500  1
  H  H27  1  0.47567000  0.62974300  0.39935500  1
  H  H28  1  0.97412100  0.09950700  0.86902100  1
  H  H29  1  0.97412100  0.40049300  0.86902100  1
  H  H30  1  0.97412100  0.09950700  0.63097900  1
  H  H31  1  0.97412100  0.40049300  0.63097900  1
loop_
_geom_bond_atom_site_label_1
_geom_bond_atom_site_label_2
_geom_bond_distance
_geom_bond_site_symmetry_2
B0 H8 1.208305 1_554
B0 H24 1.216150 1_555
B0 H25 1.216150 1_555
B1 H9 1.208305 1_555
B1 H26 1.216150 1_555
B1 H27 1.216150 1_555
B2 H10 1.207529 1_545
B2 H30 1.215917 1_555
B2 H28 1.215917 1_555
B3 H11 1.207529 1_555
B3 H31 1.215917 1_555
B3 H29 1.215917 1_555
B4 H12 1.208305 1_556
B4 H16 1.216150 1_555
B4 H17 1.216150 1_555
B5 H13 1.208305 1_555
B5 H18 1.216150 1_555
B5 H19 1.216150 1_555
B6 H14 1.207529 1_565
B6 H20 1.215917 1_555
B6 H22 1.215917 1_555
B7 H15 1.207529 1_555
B7 H21 1.215917 1_555
B7 H23 1.215917 1_555
H0 Yb2 2.102655 1_565
H0 Yb0 2.102655 1_565
H1 Yb1 2.102655 1_555
H1 Yb3 2.102655 1_555
H2 Yb5 2.106937 1_556
H2 Yb4 2.106937 1_556
H3 Yb6 2.106937 1_555
H3 Yb7 2.106937 1_555
H4 Yb4 2.102655 1_545
H4 Yb6 2.102655 1_545
H5 Yb7 2.102655 1_555
H5 Yb5 2.102655 1_555
H6 Yb1 2.106937 1_554
H6 Yb0 2.106937 1_554
H7 Yb3 2.106937 1_555
H7 Yb2 2.106937 1_555
H8 Yb0 2.528205 1_565
H8 Yb1 2.528205 1_555
H9 Yb2 2.528205 1_565
H9 Yb3 2.528205 1_555
H10 Yb6 2.533466 1_555
H10 Yb4 2.533466 1_556
H11 Yb5 2.533466 1_556
H11 Yb7 2.533466 1_555
H12 Yb5 2.528205 1_555
H12 Yb4 2.528205 1_545
H13 Yb7 2.528205 1_555
H13 Yb6 2.528205 1_545
H14 Yb0 2.533466 1_554
H14 Yb2 2.533466 1_555
H15 Yb3 2.533466 1_555
H15 Yb1 2.533466 1_554
H16 Yb4 2.393866 1_546
H16 Yb0 2.459251 1_555
H17 Yb5 2.393866 1_556
H17 Yb1 2.459251 1_555
H18 Yb6 2.393866 1_545
H18 Yb2 2.459251 1_555
H19 Yb7 2.393866 1_555
H19 Yb3 2.459251 1_555
H20 Yb0 2.384455 1_564
H20 Yb4 2.467439 1_455
H21 Yb1 2.384455 1_554
H21 Yb5 2.467439 1_455
H22 Yb2 2.384455 1_565
H22 Yb6 2.467439 1_455
H23 Yb3 2.384455 1_555
H23 Yb7 2.467439 1_455
H24 Yb0 2.393866 1_564
H24 Yb4 2.459251 1_555
H25 Yb1 2.393866 1_554
H25 Yb5 2.459251 1_555
H26 Yb2 2.393866 1_565
H26 Yb6 2.459251 1_555
H27 Yb3 2.393866 1_555
H27 Yb7 2.459251 1_555
H28 Yb4 2.384455 1_546
H28 Yb0 2.467439 1_655
H29 Yb5 2.384455 1_556
H29 Yb1 2.467439 1_655
H30 Yb6 2.384455 1_545
H30 Yb2 2.467439 1_655
H31 Yb7 2.384455 1_555
H31 Yb3 2.467439 1_655
