# generated using pymatgen
data_Cd(AuF4)2
_symmetry_space_group_name_H-M   'P 1'
_cell_length_a   5.72717549
_cell_length_b   5.72717549
_cell_length_c   10.32115001
_cell_angle_alpha   90.00000000
_cell_angle_beta   90.00000000
_cell_angle_gamma   90.00000000
_symmetry_Int_Tables_number   1
_chemical_formula_structural   Cd(AuF4)2
_chemical_formula_sum   'Cd2 Au4 F16'
_cell_volume   338.53928439
_cell_formula_units_Z   2
loop_
 _symmetry_equiv_pos_site_id
 _symmetry_equiv_pos_as_xyz
  1  'x, y, z'
loop_
 _atom_site_type_symbol
 _atom_site_label
 _atom_site_symmetry_multiplicity
 _atom_site_fract_x
 _atom_site_fract_y
 _atom_site_fract_z
 _atom_site_occupancy
  Cd  Cd0  1  -0.00000000  0.00000000  0.25000000  1
  Cd  Cd1  1  -0.00000000  0.00000000  0.75000000  1
  Au  Au0  1  0.50000000  0.00000000  -0.00000000  1
  Au  Au1  1  -0.00000000  0.50000000  -0.00000000  1
  Au  Au2  1  -0.00000000  0.50000000  0.50000000  1
  Au  Au3  1  0.50000000  0.00000000  0.50000000  1
  F  F0  1  0.69212598  0.84826328  0.63044334  1
  F  F1  1  0.30787402  0.15173672  0.63044334  1
  F  F2  1  0.84826328  0.69212598  0.86955666  1
  F  F3  1  0.84826328  0.30787402  0.63044334  1
  F  F4  1  0.15173672  0.69212598  0.63044334  1
  F  F5  1  0.30787402  0.84826328  0.86955666  1
  F  F6  1  0.84826328  0.69212598  0.13044334  1
  F  F7  1  0.30787402  0.84826328  0.13044334  1
  F  F8  1  0.69212598  0.15173672  0.13044334  1
  F  F9  1  0.84826328  0.30787402  0.36955666  1
  F  F10  1  0.15173672  0.69212598  0.36955666  1
  F  F11  1  0.15173672  0.30787402  0.13044334  1
  F  F12  1  0.69212598  0.84826328  0.36955666  1
  F  F13  1  0.30787402  0.15173672  0.36955666  1
  F  F14  1  0.15173672  0.30787402  0.86955666  1
  F  F15  1  0.69212598  0.15173672  0.86955666  1
loop_
_geom_bond_atom_site_label_1
_geom_bond_atom_site_label_2
_geom_bond_distance
_geom_bond_site_symmetry_2
Cd0 F12 2.320972 1_445
Cd0 F6 2.320972 1_445
Cd0 F13 2.320972 1_555
Cd0 F9 2.320972 1_455
Cd0 F10 2.320972 1_545
Cd0 F11 2.320972 1_555
Cd0 F8 2.320972 1_455
Cd0 F7 2.320972 1_545
Cd1 F2 2.320972 1_445
Cd1 F0 2.320972 1_445
Cd1 F5 2.320972 1_545
Cd1 F1 2.320972 1_555
Cd1 F15 2.320972 1_455
Cd1 F14 2.320972 1_555
Cd1 F4 2.320972 1_545
Cd1 F3 2.320972 1_455
Au0 F7 1.943846 1_545
Au0 F8 1.943846 1_555
Au0 F5 1.943846 1_544
Au0 F15 1.943846 1_554
Au1 F6 1.943846 1_455
Au1 F11 1.943846 1_555
Au1 F2 1.943846 1_454
Au1 F14 1.943846 1_554
Au2 F9 1.943846 1_455
Au2 F3 1.943846 1_455
Au2 F10 1.943846 1_555
Au2 F4 1.943846 1_555
Au3 F1 1.943846 1_555
Au3 F0 1.943846 1_545
Au3 F13 1.943846 1_555
Au3 F12 1.943846 1_545
