# generated using pymatgen
data_Rh
_symmetry_space_group_name_H-M   'P 1'
_cell_length_a   5.34667110
_cell_length_b   5.34667110
_cell_length_c   5.34667110
_cell_angle_alpha   109.47122063
_cell_angle_beta   109.47122063
_cell_angle_gamma   109.47122063
_symmetry_Int_Tables_number   1
_chemical_formula_structural   Rh
_chemical_formula_sum   Rh8
_cell_volume   117.65991159
_cell_formula_units_Z   8
loop_
 _symmetry_equiv_pos_site_id
 _symmetry_equiv_pos_as_xyz
  1  'x, y, z'
loop_
 _atom_site_type_symbol
 _atom_site_label
 _atom_site_symmetry_multiplicity
 _atom_site_fract_x
 _atom_site_fract_y
 _atom_site_fract_z
 _atom_site_occupancy
  Rh  Rh0_0  1  0.00000000  0.00000000  0.00000000  1
  Rh  Rh0_1  1  0.00000000  0.00000000  0.50000000  1
  Rh  Rh0_2  1  1.00000000  0.50000000  0.00000000  1
  Rh  Rh0_3  1  1.00000000  0.50000000  0.50000000  1
  Rh  Rh0_4  1  0.50000000  0.00000000  0.00000000  1
  Rh  Rh0_5  1  0.50000000  0.00000000  0.50000000  1
  Rh  Rh0_6  1  0.50000000  0.50000000  0.00000000  1
  Rh  Rh0_7  1  0.50000000  0.50000000  0.50000000  1
loop_
_geom_bond_atom_site_label_1
_geom_bond_atom_site_label_2
_geom_bond_distance
_geom_bond_site_symmetry_2
Rh0_0 Rh0_7 2.673336 1_555
Rh0_0 Rh0_1 2.673336 1_555
Rh0_0 Rh0_2 2.673336 1_445
Rh0_0 Rh0_4 2.673336 1_555
Rh0_0 Rh0_4 2.673336 1_455
Rh0_0 Rh0_2 2.673336 1_455
Rh0_0 Rh0_1 2.673336 1_554
Rh0_0 Rh0_7 2.673336 1_444
Rh0_1 Rh0_3 2.673336 1_445
Rh0_1 Rh0_6 2.673336 1_556
Rh0_1 Rh0_5 2.673336 1_555
Rh0_1 Rh0_3 2.673336 1_455
Rh0_1 Rh0_6 2.673336 1_445
Rh0_1 Rh0_5 2.673336 1_455
Rh0_2 Rh0_5 2.673336 1_554
Rh0_2 Rh0_3 2.673336 1_555
Rh0_2 Rh0_3 2.673336 1_554
Rh0_2 Rh0_6 2.673336 1_555
Rh0_2 Rh0_5 2.673336 1_665
Rh0_2 Rh0_6 2.673336 1_655
Rh0_3 Rh0_7 2.673336 1_655
Rh0_3 Rh0_4 2.673336 1_555
Rh0_3 Rh0_4 2.673336 1_666
Rh0_3 Rh0_7 2.673336 1_555
Rh0_4 Rh0_6 2.673336 1_555
Rh0_4 Rh0_6 2.673336 1_545
Rh0_4 Rh0_5 2.673336 1_555
Rh0_4 Rh0_5 2.673336 1_554
Rh0_5 Rh0_7 2.673336 1_545
Rh0_5 Rh0_7 2.673336 1_555
Rh0_6 Rh0_7 2.673336 1_555
Rh0_6 Rh0_7 2.673336 1_554
