# generated using pymatgen
data_Rb4In2S5
_symmetry_space_group_name_H-M   'P 1'
_cell_length_a   7.65342792
_cell_length_b   9.40853453
_cell_length_c   10.91417417
_cell_angle_alpha   107.05325561
_cell_angle_beta   109.07571277
_cell_angle_gamma   85.63323914
_symmetry_Int_Tables_number   1
_chemical_formula_structural   Rb4In2S5
_chemical_formula_sum   'Rb8 In4 S10'
_cell_volume   709.92147936
_cell_formula_units_Z   2
loop_
 _symmetry_equiv_pos_site_id
 _symmetry_equiv_pos_as_xyz
  1  'x, y, z'
loop_
 _atom_site_type_symbol
 _atom_site_label
 _atom_site_symmetry_multiplicity
 _atom_site_fract_x
 _atom_site_fract_y
 _atom_site_fract_z
 _atom_site_occupancy
  Rb  Rb0  1  0.22576975  0.52852272  0.66031062  1
  Rb  Rb1  1  0.50262464  0.78979884  0.08271760  1
  Rb  Rb2  1  0.89050746  0.81786676  0.90919728  1
  Rb  Rb3  1  0.10949254  0.18213324  0.09080272  1
  Rb  Rb4  1  0.45668159  0.81229445  0.54337877  1
  Rb  Rb5  1  0.54331841  0.18770555  0.45662123  1
  Rb  Rb6  1  0.49737536  0.21020116  0.91728240  1
  Rb  Rb7  1  0.77423025  0.47147728  0.33968938  1
  In  In0  1  0.87566286  0.40912325  0.83034291  1
  In  In1  1  0.96861631  0.99970197  0.34006945  1
  In  In2  1  0.03138369  0.00029803  0.65993055  1
  In  In3  1  0.12433714  0.59087675  0.16965709  1
  S  S0  1  0.74154344  0.10737078  0.18325773  1
  S  S1  1  0.21039362  0.47809817  0.95580155  1
  S  S2  1  0.19522317  0.86422467  0.22990416  1
  S  S3  1  0.80477683  0.13577533  0.77009584  1
  S  S4  1  0.17107132  0.15660006  0.56422069  1
  S  S5  1  0.82892868  0.84339994  0.43577931  1
  S  S6  1  0.78960638  0.52190183  0.04419845  1
  S  S7  1  0.72816560  0.52150383  0.65286992  1
  S  S8  1  0.25845656  0.89262922  0.81674227  1
  S  S9  1  0.27183440  0.47849617  0.34713008  1
loop_
_geom_bond_atom_site_label_1
_geom_bond_atom_site_label_2
_geom_bond_distance
_geom_bond_site_symmetry_2
Rb0 S8 3.336750 1_555
Rb0 S4 3.362072 1_555
Rb0 S1 3.434206 1_555
Rb0 S9 3.442104 1_555
Rb0 S7 3.787835 1_455
Rb0 S7 3.867513 1_555
Rb1 S2 3.188369 1_555
Rb1 S6 3.239277 1_555
Rb1 S8 3.268200 1_554
Rb1 S0 3.327556 1_565
Rb1 S1 3.480319 1_554
Rb1 S5 3.755198 1_555
Rb2 S7 3.290209 1_555
Rb2 S2 3.435786 1_656
Rb2 S8 3.466784 1_655
Rb2 S3 3.659942 1_565
Rb2 S6 3.741516 1_556
Rb2 S0 3.826671 1_566
Rb3 S9 3.290209 1_555
Rb3 S3 3.435786 1_454
Rb3 S0 3.466784 1_455
Rb3 S2 3.659942 1_545
Rb3 S1 3.741516 1_554
Rb3 S8 3.826671 1_544
Rb4 S9 3.347057 1_555
Rb4 S5 3.478045 1_555
Rb4 S2 3.507842 1_555
Rb4 S7 3.558008 1_555
Rb4 S8 3.638088 1_555
Rb4 S4 3.760078 1_565
Rb4 S3 3.871944 1_565
Rb5 S7 3.347057 1_555
Rb5 S4 3.478045 1_555
Rb5 S3 3.507842 1_555
Rb5 S9 3.558008 1_555
Rb5 S0 3.638088 1_555
Rb5 S5 3.760078 1_545
Rb5 S2 3.871944 1_545
Rb6 S3 3.188369 1_555
Rb6 S1 3.239277 1_555
Rb6 S0 3.268200 1_556
Rb6 S8 3.327556 1_545
Rb6 S6 3.480319 1_556
Rb6 S4 3.755198 1_555
Rb7 S0 3.336750 1_555
Rb7 S5 3.362072 1_555
Rb7 S6 3.434206 1_555
Rb7 S7 3.442104 1_555
Rb7 S9 3.787835 1_655
Rb7 S9 3.867513 1_555
In0 S7 2.394656 1_555
In0 S1 2.509621 1_655
In0 S3 2.515614 1_555
In0 S6 2.540335 1_556
In1 S0 2.404206 1_565
In1 S2 2.491132 1_655
In1 S5 2.503411 1_555
In1 S4 2.513451 1_665
In2 S8 2.404206 1_545
In2 S3 2.491132 1_455
In2 S4 2.503411 1_555
In2 S5 2.513451 1_445
In3 S9 2.394656 1_555
In3 S6 2.509621 1_455
In3 S2 2.515614 1_555
In3 S1 2.540335 1_554
