# generated using pymatgen
data_MgFe6(O2F)4
_symmetry_space_group_name_H-M   'P 1'
_cell_length_a   4.85928246
_cell_length_b   4.83512801
_cell_length_c   8.89155216
_cell_angle_alpha   89.87462997
_cell_angle_beta   90.11429436
_cell_angle_gamma   87.98949048
_symmetry_Int_Tables_number   1
_chemical_formula_structural   MgFe6(O2F)4
_chemical_formula_sum   'Mg1 Fe6 O8 F4'
_cell_volume   208.77971430
_cell_formula_units_Z   1
loop_
 _symmetry_equiv_pos_site_id
 _symmetry_equiv_pos_as_xyz
  1  'x, y, z'
loop_
 _atom_site_type_symbol
 _atom_site_label
 _atom_site_symmetry_multiplicity
 _atom_site_fract_x
 _atom_site_fract_y
 _atom_site_fract_z
 _atom_site_occupancy
  Mg  Mg0  1  0.48580300  0.98255300  0.14825800  1
  Fe  Fe0  1  0.99275200  0.98985100  0.98941000  1
  Fe  Fe1  1  0.94361300  0.97046900  0.35378000  1
  Fe  Fe2  1  0.05928800  0.04262400  0.65938300  1
  Fe  Fe3  1  0.55204400  0.47299300  0.15332300  1
  Fe  Fe4  1  0.46727300  0.52198500  0.84039400  1
  Fe  Fe5  1  0.50214900  0.50841000  0.50379900  1
  O  O0  1  0.19010600  0.79975700  0.49381500  1
  O  O1  1  0.17445800  0.81131300  0.83369600  1
  O  O2  1  0.33848300  0.28310400  0.00530500  1
  O  O3  1  0.32195100  0.32717600  0.67393600  1
  O  O4  1  0.66593900  0.71624300  0.99972200  1
  O  O5  1  0.64992100  0.70634400  0.31521200  1
  O  O6  1  0.83552400  0.17886500  0.16076500  1
  O  O7  1  0.80702100  0.21764100  0.50114700  1
  F  F0  1  0.16786900  0.76107400  0.15834400  1
  F  F1  1  0.34785900  0.25747700  0.31083400  1
  F  F2  1  0.67009900  0.71684400  0.67373300  1
  F  F3  1  0.81395900  0.22138600  0.83228800  1
loop_
_geom_bond_atom_site_label_1
_geom_bond_atom_site_label_2
_geom_bond_distance
_geom_bond_site_symmetry_2
Mg0 O6 1.978424 1_565
Mg0 O4 2.025213 1_554
Mg0 O2 2.038428 1_565
Mg0 O5 2.129584 1_555
Fe0 O1 1.843476 1_655
Fe0 O6 1.924080 1_566
Fe0 O4 2.104281 1_555
Fe0 O2 2.240524 1_666
Fe1 O7 1.881606 1_565
Fe1 O0 1.893809 1_655
Fe1 O5 1.978151 1_555
Fe1 O6 2.046516 1_565
Fe2 O3 1.913664 1_555
Fe2 O0 1.977175 1_545
Fe2 O1 1.977707 1_545
Fe2 O7 2.028164 1_455
Fe3 O4 1.896459 1_554
Fe3 O5 1.900857 1_555
Fe3 O2 1.928405 1_555
Fe3 O6 1.945811 1_555
Fe4 O3 1.903969 1_555
Fe4 O1 1.960808 1_555
Fe4 O4 1.971069 1_555
Fe4 O2 1.980600 1_556
Fe5 O3 1.968870 1_555
Fe5 O7 2.006487 1_555
Fe5 O0 2.034831 1_555
Fe5 O5 2.071062 1_555
F0 Mg0 1.912552 1_555
F0 Fe0 2.031145 1_454
F0 Fe1 2.273785 1_455
F0 Fe3 2.290270 1_555
F1 Fe3 2.025700 1_555
F1 Mg0 2.062938 1_545
F1 Fe5 2.246290 1_555
F1 Fe1 2.474304 1_445
F2 Fe5 2.006047 1_555
F2 Fe4 2.029752 1_555
F2 Fe2 2.506623 1_665
F3 Fe0 1.969758 1_545
F3 Fe2 2.114863 1_655
F3 Fe4 2.187427 1_555
