# generated using pymatgen
data_NaTaNbSi2PO12
_symmetry_space_group_name_H-M   'P 1'
_cell_length_a   8.88743858
_cell_length_b   8.88918096
_cell_length_c   22.87025105
_cell_angle_alpha   89.96494284
_cell_angle_beta   90.04414041
_cell_angle_gamma   119.96375910
_symmetry_Int_Tables_number   1
_chemical_formula_structural   NaTaNbSi2PO12
_chemical_formula_sum   'Na6 Ta6 Nb6 Si12 P6 O72'
_cell_volume   1565.30244063
_cell_formula_units_Z   6
loop_
 _symmetry_equiv_pos_site_id
 _symmetry_equiv_pos_as_xyz
  1  'x, y, z'
loop_
 _atom_site_type_symbol
 _atom_site_label
 _atom_site_symmetry_multiplicity
 _atom_site_fract_x
 _atom_site_fract_y
 _atom_site_fract_z
 _atom_site_occupancy
  Na  Na0  1  -0.00000990  0.00099118  0.49988387  1
  Na  Na1  1  0.99887289  0.00007220  0.00002847  1
  Na  Na2  1  0.66672201  0.33451584  0.83320637  1
  Na  Na3  1  0.66571547  0.33340730  0.33330458  1
  Na  Na4  1  0.33335061  0.66774889  0.16661879  1
  Na  Na5  1  0.33223980  0.66660213  0.66656418  1
  Ta  Ta0  1  0.99971791  0.99838466  0.85378565  1
  Ta  Ta1  1  0.00724657  0.00419016  0.64627911  1
  Ta  Ta2  1  0.67404577  0.33785947  0.97941048  1
  Ta  Ta3  1  0.33501985  0.66663420  0.02031698  1
  Ta  Ta4  1  0.34021936  0.67079586  0.31287036  1
  Ta  Ta5  1  0.32883410  0.65900796  0.81285965  1
  Nb  Nb0  1  0.00177327  0.00014519  0.35375725  1
  Nb  Nb1  1  0.99499792  0.99158526  0.14614463  1
  Nb  Nb2  1  0.66840758  0.33374697  0.68715510  1
  Nb  Nb3  1  0.66669700  0.33157995  0.18701000  1
  Nb  Nb4  1  0.66177091  0.32497276  0.47951485  1
  Nb  Nb5  1  0.33327693  0.66494517  0.52040340  1
  Si  Si0  1  0.28996042  0.99919904  0.25000049  1
  Si  Si1  1  0.70998767  0.70897577  0.25052117  1
  Si  Si2  1  0.28979883  0.28877094  0.75047216  1
  Si  Si3  1  0.00094254  0.71118536  0.75003937  1
  Si  Si4  1  0.95658461  0.33243900  0.58336294  1
  Si  Si5  1  0.37674828  0.04240201  0.58386509  1
  Si  Si6  1  0.95757375  0.62197414  0.08341331  1
  Si  Si7  1  0.66640935  0.04340346  0.08293301  1
  Si  Si8  1  0.62287781  0.66644044  0.91659513  1
  Si  Si9  1  0.04442935  0.37614495  0.91705188  1
  Si  Si10  1  0.62355692  0.95525773  0.41681092  1
  Si  Si11  1  0.33375641  0.37739205  0.41637446  1
  P  P0  1  0.00117081  0.28922358  0.24979939  1
  P  P1  1  0.71144213  0.99885568  0.74984889  1
  P  P2  1  0.66789467  0.62264006  0.58313146  1
  P  P3  1  0.37807828  0.33290797  0.08284910  1
  P  P4  1  0.33402897  0.95516445  0.91641666  1
  P  P5  1  0.04471941  0.66580312  0.41629900  1
  O  O0  1  0.19853528  0.03251026  0.30709508  1
  O  O1  1  0.83391364  0.80238363  0.30709013  1
  O  O2  1  0.96807634  0.17347666  0.30456722  1
  O  O3  1  0.19665325  0.16547655  0.80721861  1
  O  O4  1  0.96791618  0.80252854  0.80716710  1
  O  O5  1  0.82774904  0.03135683  0.80466845  1
  O  O6  1  0.79559903  0.96833980  0.69535485  1
  O  O7  1  0.16514427  0.19860415  0.69306940  1
  O  O8  1  0.03041993  0.83409195  0.69283216  1
  O  O9  1  0.80030041  0.83415197  0.19311619  1
  O  O10  1  0.03219130  0.20596572  0.19543969  1
  O  O11  1  0.16634776  0.96910917  0.19289639  1
  O  O12  1  0.86509562  0.36580545  0.64045084  1
  O  O13  1  0.50067673  0.13576564  0.64045237  1
  O  O14  1  0.63472033  0.50676781  0.63790355  1
  O  O15  1  0.86456611  0.49955999  0.14039331  1
  O  O16  1  0.63395849  0.13464024  0.14037994  1
  O  O17  1  0.49334634  0.36589277  0.13772671  1
  O  O18  1  0.46273195  0.30218828  0.02851484  1
  O  O19  1  0.83180964  0.53177896  0.02634410  1
  O  O20  1  0.69687584  0.16759058  0.02609988  1
  O  O21  1  0.46697143  0.16749480  0.52644672  1
  O  O22  1  0.69885079  0.53930676  0.52877164  1
  O  O23  1  0.83302320  0.30244130  0.52623874  1
  O  O24  1  0.53110662  0.69894799  0.97376740  1
  O  O25  1  0.16769312  0.46975255  0.97381070  1
  O  O26  1  0.30153346  0.83916570  0.97126160  1
  O  O27  1  0.53097110  0.83276315  0.47377240  1
  O  O28  1  0.30075863  0.46819154  0.47375367  1
  O  O29  1  0.16020685  0.69876279  0.47113575  1
  O  O30  1  0.12945725  0.63539453  0.36186626  1
  O  O31  1  0.49837954  0.86510803  0.35964545  1
  O  O32  1  0.36367917  0.50089486  0.35942286  1
  O  O33  1  0.13471086  0.50141605  0.85976282  1
  O  O34  1  0.36487282  0.87112339  0.86200954  1
  O  O35  1  0.49924832  0.63637289  0.85951304  1
  O  O36  1  0.02559001  0.82886589  0.40911451  1
  O  O37  1  0.81451216  0.97679356  0.40788257  1
  O  O38  1  0.16239095  0.18593178  0.40809314  1
  O  O39  1  0.02322416  0.18517654  0.90751392  1
  O  O40  1  0.17081984  0.97462990  0.90879161  1
  O  O41  1  0.81452784  0.83787235  0.90777006  1
  O  O42  1  0.97397895  0.15983101  0.59229799  1
  O  O43  1  0.18473401  0.02282622  0.59180416  1
  O  O44  1  0.82828682  0.80481734  0.59182492  1
  O  O45  1  0.97712041  0.81418458  0.09140235  1
  O  O46  1  0.83918809  0.02600412  0.09194008  1
  O  O47  1  0.19660210  0.17298047  0.09112488  1
  O  O48  1  0.69220506  0.16163049  0.74265903  1
  O  O49  1  0.48082223  0.31006150  0.74122772  1
  O  O50  1  0.82941366  0.51954208  0.74142916  1
  O  O51  1  0.68978135  0.51881045  0.24118789  1
  O  O52  1  0.83808403  0.30834766  0.24257673  1
  O  O53  1  0.48086055  0.17094730  0.24141554  1
  O  O54  1  0.64068245  0.49366107  0.92563693  1
  O  O55  1  0.85188565  0.35607156  0.92517729  1
  O  O56  1  0.49422927  0.13725354  0.92507011  1
  O  O57  1  0.64363594  0.14761222  0.42471696  1
  O  O58  1  0.50607956  0.35941770  0.42523790  1
  O  O59  1  0.86319236  0.50584844  0.42445772  1
  O  O60  1  0.35874737  0.49642498  0.07524872  1
  O  O61  1  0.14857683  0.64355279  0.07415090  1
  O  O62  1  0.49509200  0.85184973  0.07440563  1
  O  O63  1  0.35646284  0.85219676  0.57454348  1
  O  O64  1  0.50475529  0.64166242  0.57592369  1
  O  O65  1  0.14746947  0.50421964  0.57476794  1
  O  O66  1  0.30737383  0.82659861  0.25893112  1
  O  O67  1  0.51805065  0.68947569  0.25847875  1
  O  O68  1  0.16161467  0.47146329  0.25847030  1
  O  O69  1  0.31044149  0.48154750  0.75848726  1
  O  O70  1  0.17332270  0.69277328  0.75896349  1
  O  O71  1  0.52929647  0.83863136  0.75841801  1
loop_
_geom_bond_atom_site_label_1
_geom_bond_atom_site_label_2
_geom_bond_distance
_geom_bond_site_symmetry_2
Na0 O38 2.612098 1_555
Na0 O43 2.613382 1_555
Na0 O37 2.613772 1_445
Na0 O42 2.616207 1_455
Na0 O36 2.656051 1_545
Na0 O44 2.670826 1_445
Na1 O45 2.609998 1_545
Na1 O46 2.611089 1_555
Na1 O41 2.617979 1_544
Na1 O39 2.621400 1_654
Na1 O40 2.662914 1_644
Na1 O47 2.662952 1_655
Na2 O50 2.612736 1_555
Na2 O49 2.615035 1_555
Na2 O55 2.617113 1_555
Na2 O54 2.618189 1_555
Na2 O48 2.655889 1_555
Na2 O56 2.674722 1_555
Na3 O57 2.609513 1_555
Na3 O58 2.611485 1_555
Na3 O53 2.613323 1_555
Na3 O51 2.616214 1_555
Na3 O52 2.654848 1_555
Na3 O59 2.662108 1_555
Na4 O67 2.612273 1_555
Na4 O66 2.614268 1_555
Na4 O62 2.615852 1_555
Na4 O61 2.618699 1_555
Na4 O60 2.661750 1_555
Na4 O68 2.669650 1_555
Na5 O65 2.611187 1_555
Na5 O63 2.615125 1_555
Na5 O69 2.615578 1_555
Na5 O70 2.616851 1_555
Na5 O64 2.653698 1_555
Na5 O71 2.672395 1_555
Nb0 O0 1.944112 1_555
Nb0 O1 1.958365 1_445
Nb0 O38 1.988531 1_555
Nb0 O37 2.000740 1_445
Nb0 O2 2.046352 1_455
Nb0 O36 2.070001 1_545
Nb1 O9 1.920613 1_555
Nb1 O11 1.950236 1_655
Nb1 O45 1.957362 1_555
Nb1 O46 1.991991 1_565
Nb1 O10 2.093958 1_665
Nb1 O47 2.123386 1_665
Nb2 O12 1.944921 1_555
Nb2 O13 1.959464 1_555
Nb2 O50 1.988731 1_555
Nb2 O49 2.001319 1_555
Nb2 O14 2.044802 1_555
Nb2 O48 2.077822 1_555
Nb3 O16 1.944137 1_555
Nb3 O15 1.958761 1_555
Nb3 O53 1.990013 1_555
Nb3 O51 2.002098 1_555
Nb3 O17 2.050200 1_555
Nb3 O52 2.070911 1_555
Nb4 O21 1.920703 1_555
Nb4 O23 1.949408 1_555
Nb4 O57 1.957168 1_555
Nb4 O58 1.992325 1_555
Nb4 O22 2.093443 1_555
Nb4 O59 2.121582 1_555
Nb5 O28 1.943606 1_555
Nb5 O27 1.957683 1_555
Nb5 O65 1.989555 1_555
Nb5 O63 2.001427 1_555
Nb5 O29 2.045644 1_555
Nb5 O64 2.071107 1_555
O0 Si0 1.641757 1_545
O1 Si1 1.631526 1_555
O2 P0 1.552651 1_655
O3 Si2 1.632300 1_555
O3 Ta0 1.951376 1_445
O4 Si3 1.640856 1_655
O4 Ta0 1.938551 1_555
O5 P1 1.556900 1_545
O5 Ta0 2.031765 1_545
O6 P1 1.546207 1_555
O6 Ta1 2.074486 1_665
O7 Si2 1.644784 1_555
O7 Ta1 1.917927 1_555
O8 Si3 1.639179 1_555
O8 Ta1 1.941897 1_565
O9 Si1 1.647329 1_555
O10 P0 1.541042 1_555
O11 Si0 1.639742 1_555
O12 Si4 1.642178 1_555
O13 Si5 1.631800 1_555
O14 P2 1.553262 1_555
O15 Si6 1.633092 1_555
O16 Si7 1.643960 1_555
O17 P3 1.552113 1_555
O18 P3 1.546555 1_555
O18 Ta2 2.072856 1_554
O19 Si6 1.643017 1_555
O19 Ta2 1.917072 1_554
O20 Si7 1.637563 1_555
O20 Ta2 1.943361 1_554
O21 Si5 1.647133 1_555
O22 P2 1.541187 1_555
O23 Si4 1.639980 1_555
O24 Si8 1.641927 1_555
O24 Ta3 1.937878 1_556
O25 Si9 1.632821 1_555
O25 Ta3 1.950831 1_556
O26 P4 1.556106 1_555
O26 Ta3 2.037814 1_556
O27 Si10 1.632403 1_555
O28 Si11 1.642521 1_555
O29 P5 1.552493 1_555
O30 P5 1.547638 1_555
O30 Ta4 2.068160 1_555
O31 Si10 1.642441 1_555
O31 Ta4 1.917906 1_555
O32 Si11 1.636954 1_555
O32 Ta4 1.941693 1_555
O33 Si9 1.645540 1_555
O33 Ta5 1.917395 1_555
O34 P4 1.545236 1_555
O34 Ta5 2.078493 1_555
O35 Si8 1.639463 1_555
O35 Ta5 1.942787 1_555
O36 P5 1.550085 1_555
O37 Si10 1.623101 1_555
O38 Si11 1.631780 1_555
O39 Si9 1.626532 1_555
O39 Ta0 1.991522 1_445
O40 P4 1.553904 1_555
O40 Ta0 2.063258 1_455
O41 Si8 1.634479 1_555
O41 Ta0 1.980963 1_555
O42 Si4 1.629837 1_555
O42 Ta1 1.982837 1_655
O43 Si5 1.636841 1_555
O43 Ta1 1.951811 1_555
O44 P2 1.545332 1_555
O44 Ta1 2.098933 1_665
O45 Si6 1.639114 1_555
O46 Si7 1.631261 1_555
O47 P3 1.538807 1_555
O48 P1 1.548116 1_545
O49 Si2 1.625511 1_555
O50 Si3 1.634206 1_655
O51 Si1 1.622485 1_555
O52 P0 1.550077 1_655
O53 Si0 1.631142 1_545
O54 Si8 1.633712 1_555
O54 Ta2 1.981416 1_555
O55 Si9 1.640149 1_655
O55 Ta2 1.951899 1_555
O56 P4 1.544074 1_545
O56 Ta2 2.105070 1_555
O57 Si10 1.638213 1_545
O58 Si11 1.629743 1_555
O59 P5 1.538841 1_655
O60 P3 1.556142 1_555
O60 Ta3 2.056204 1_555
O61 Si6 1.624351 1_455
O61 Ta3 1.991688 1_555
O62 Si7 1.632746 1_565
O62 Ta3 1.981133 1_555
O63 Si5 1.622512 1_565
O64 P2 1.549983 1_555
O65 Si4 1.631212 1_455
O66 Si0 1.629854 1_555
O66 Ta4 1.981490 1_555
O67 Si1 1.636488 1_555
O67 Ta4 1.952814 1_555
O68 P0 1.545775 1_555
O68 Ta4 2.096975 1_555
O69 Si2 1.640142 1_555
O69 Ta5 1.950893 1_555
O70 Si3 1.632626 1_555
O70 Ta5 1.982657 1_555
O71 P1 1.544195 1_555
O71 Ta5 2.105524 1_555
