# generated using pymatgen
data_Na2Hf2Si(PO6)2
_symmetry_space_group_name_H-M   'P 1'
_cell_length_a   8.98042359
_cell_length_b   8.98042329
_cell_length_c   23.02200879
_cell_angle_alpha   90.01833946
_cell_angle_beta   89.98166055
_cell_angle_gamma   119.78964059
_symmetry_Int_Tables_number   1
_chemical_formula_structural   Na2Hf2Si(PO6)2
_chemical_formula_sum   'Na12 Hf12 Si6 P12 O72'
_cell_volume   1611.32866375
_cell_formula_units_Z   6
loop_
 _symmetry_equiv_pos_site_id
 _symmetry_equiv_pos_as_xyz
  1  'x, y, z'
loop_
 _atom_site_type_symbol
 _atom_site_label
 _atom_site_symmetry_multiplicity
 _atom_site_fract_x
 _atom_site_fract_y
 _atom_site_fract_z
 _atom_site_occupancy
  Na  Na0  1  0.00064586  0.63357127  0.25048759  1
  Na  Na1  1  0.36642873  0.99935414  0.75048759  1
  Na  Na2  1  0.66395658  0.96894486  0.58581745  1
  Na  Na3  1  0.03105514  0.33604342  0.08581745  1
  Na  Na4  1  0.97361868  0.66987266  0.91889525  1
  Na  Na5  1  0.33012734  0.02638132  0.41889525  1
  Na  Na6  1  0.00453794  0.99594090  0.50034887  1
  Na  Na7  1  0.00405910  0.99546206  0.00034887  1
  Na  Na8  1  0.66493740  0.32593648  0.83374738  1
  Na  Na9  1  0.67406352  0.33506260  0.33374738  1
  Na  Na10  1  0.34482594  0.67109217  0.16680623  1
  Na  Na11  1  0.32890783  0.65517406  0.66680623  1
  Hf  Hf0  1  0.99260249  0.00186124  0.35309793  1
  Hf  Hf1  1  0.99813876  0.00739751  0.85309793  1
  Hf  Hf2  1  0.00333741  0.99893265  0.64743853  1
  Hf  Hf3  1  0.00106735  0.99666259  0.14743853  1
  Hf  Hf4  1  0.66951928  0.33371604  0.68612211  1
  Hf  Hf5  1  0.66628396  0.33048072  0.18612211  1
  Hf  Hf6  1  0.65920112  0.32895099  0.98071745  1
  Hf  Hf7  1  0.67104901  0.34079888  0.48071745  1
  Hf  Hf8  1  0.33504014  0.67494591  0.01960609  1
  Hf  Hf9  1  0.32505409  0.66495986  0.51960609  1
  Hf  Hf10  1  0.33037840  0.65929035  0.31388771  1
  Hf  Hf11  1  0.34070965  0.66962160  0.81388771  1
  Si  Si0  1  0.00024167  0.29173145  0.24835056  1
  Si  Si1  1  0.70826855  0.99975833  0.74835056  1
  Si  Si2  1  0.37297830  0.04250456  0.58215650  1
  Si  Si3  1  0.95749544  0.62702170  0.08215650  1
  Si  Si4  1  0.33465737  0.96234152  0.91502976  1
  Si  Si5  1  0.03765848  0.66534263  0.41502976  1
  P  P0  1  0.29242888  0.00245135  0.25172971  1
  P  P1  1  0.70864776  0.71101670  0.24970115  1
  P  P2  1  0.28898330  0.29135224  0.74970115  1
  P  P3  1  0.99754865  0.70757112  0.75172971  1
  P  P4  1  0.95843856  0.33455990  0.58360763  1
  P  P5  1  0.66690776  0.62373938  0.58382850  1
  P  P6  1  0.66544010  0.04156144  0.08360763  1
  P  P7  1  0.37626062  0.33309224  0.08382850  1
  P  P8  1  0.62392182  0.66674315  0.91687177  1
  P  P9  1  0.04484052  0.37652331  0.91774879  1
  P  P10  1  0.62347669  0.95515948  0.41774879  1
  P  P11  1  0.33325685  0.37607818  0.41687177  1
  O  O0  1  0.20728510  0.02428380  0.30697139  1
  O  O1  1  0.82615060  0.79238401  0.30337852  1
  O  O2  1  0.97467940  0.17322401  0.30459852  1
  O  O3  1  0.20761599  0.17384940  0.80337852  1
  O  O4  1  0.97571620  0.79271490  0.80697139  1
  O  O5  1  0.82677599  0.02532060  0.80459852  1
  O  O6  1  0.79401182  0.97471009  0.68946079  1
  O  O7  1  0.17823229  0.20294550  0.69560183  1
  O  O8  1  0.03238829  0.82772049  0.69848125  1
  O  O9  1  0.79705450  0.82176771  0.19560183  1
  O  O10  1  0.02528991  0.20598818  0.18946079  1
  O  O11  1  0.17227951  0.96761171  0.19848125  1
  O  O12  1  0.87434126  0.36226277  0.63761894  1
  O  O13  1  0.49534751  0.13188882  0.63963881  1
  O  O14  1  0.64380876  0.51494504  0.63795019  1
  O  O15  1  0.86811118  0.50465249  0.13963881  1
  O  O16  1  0.63773723  0.12565874  0.13761894  1
  O  O17  1  0.48505496  0.35619124  0.13795019  1
  O  O18  1  0.46046110  0.30541002  0.02947313  1
  O  O19  1  0.84465689  0.53532119  0.02399497  1
  O  O20  1  0.69578519  0.15750036  0.03002178  1
  O  O21  1  0.46467881  0.15534311  0.52399497  1
  O  O22  1  0.69458998  0.53953890  0.52947313  1
  O  O23  1  0.84249964  0.30421481  0.53002178  1
  O  O24  1  0.53828235  0.69034376  0.97103272  1
  O  O25  1  0.15192248  0.45762386  0.97347846  1
  O  O26  1  0.30114673  0.83441122  0.97066969  1
  O  O27  1  0.54237614  0.84807752  0.47347846  1
  O  O28  1  0.30965624  0.46171765  0.47103272  1
  O  O29  1  0.16558878  0.69885327  0.47066969  1
  O  O30  1  0.12953682  0.64208774  0.35684609  1
  O  O31  1  0.50687392  0.86859240  0.36467501  1
  O  O32  1  0.36080229  0.48703192  0.36260567  1
  O  O33  1  0.13140760  0.49312608  0.86467501  1
  O  O34  1  0.35791226  0.87046318  0.85684609  1
  O  O35  1  0.51296808  0.63919771  0.86260567  1
  O  O36  1  0.03045618  0.84370978  0.41012862  1
  O  O37  1  0.80346147  0.97675613  0.41097250  1
  O  O38  1  0.17477813  0.19349607  0.41025234  1
  O  O39  1  0.02324387  0.19653853  0.91097250  1
  O  O40  1  0.15629022  0.96954382  0.91012862  1
  O  O41  1  0.80650393  0.82522187  0.91025234  1
  O  O42  1  0.96791986  0.16710340  0.58966671  1
  O  O43  1  0.18161172  0.01878958  0.58902419  1
  O  O44  1  0.82530329  0.80796445  0.58929269  1
  O  O45  1  0.98121042  0.81838828  0.08902419  1
  O  O46  1  0.83289660  0.03208014  0.08966671  1
  O  O47  1  0.19203555  0.17469671  0.08929269  1
  O  O48  1  0.67945134  0.16802205  0.74458396  1
  O  O49  1  0.46830168  0.30616374  0.74280403  1
  O  O50  1  0.83734602  0.53065243  0.74367377  1
  O  O51  1  0.69383626  0.53169832  0.24280403  1
  O  O52  1  0.83197795  0.32054866  0.24458396  1
  O  O53  1  0.46934757  0.16265398  0.24367377  1
  O  O54  1  0.65081351  0.50843930  0.92233164  1
  O  O55  1  0.86602874  0.36515318  0.92350261  1
  O  O56  1  0.50458484  0.15073939  0.92207294  1
  O  O57  1  0.63484682  0.13397126  0.42350261  1
  O  O58  1  0.49156070  0.34918649  0.42233164  1
  O  O59  1  0.84926061  0.49541516  0.42207294  1
  O  O60  1  0.35288936  0.49276983  0.07689360  1
  O  O61  1  0.14538035  0.63381349  0.07751257  1
  O  O62  1  0.50934939  0.86139451  0.07663611  1
  O  O63  1  0.36618651  0.85461965  0.57751257  1
  O  O64  1  0.50723017  0.64711064  0.57689360  1
  O  O65  1  0.13860549  0.49065061  0.57663611  1
  O  O66  1  0.30864334  0.83842607  0.25695691  1
  O  O67  1  0.53120786  0.69412227  0.25676479  1
  O  O68  1  0.16849416  0.48722838  0.25443530  1
  O  O69  1  0.30587773  0.46879214  0.75676479  1
  O  O70  1  0.16157393  0.69135666  0.75695691  1
  O  O71  1  0.51277162  0.83150584  0.75443530  1
loop_
_geom_bond_atom_site_label_1
_geom_bond_atom_site_label_2
_geom_bond_distance
_geom_bond_site_symmetry_2
Na0 O51 2.440366 1_455
Na0 O68 2.444602 1_555
Na0 O52 2.446220 1_455
Na0 O66 2.449714 1_555
Na0 O30 2.693502 1_555
Na0 O15 2.810757 1_455
Na0 O1 2.861945 1_455
Na0 O11 2.866179 1_555
Na1 O49 2.440366 1_565
Na1 O71 2.444602 1_555
Na1 O48 2.446220 1_565
Na1 O70 2.449714 1_555
Na1 O34 2.693502 1_555
Na1 O13 2.810757 1_565
Na1 O3 2.861945 1_565
Na1 O8 2.866179 1_555
Na2 O63 2.348121 1_555
Na2 O42 2.408178 1_565
Na2 O44 2.505473 1_555
Na2 O64 2.516803 1_555
Na2 O6 2.646087 1_555
Na2 O27 2.807404 1_555
Na2 O13 2.858069 1_565
Na2 O23 2.913844 1_565
Na3 O61 2.348121 1_555
Na3 O46 2.408178 1_455
Na3 O47 2.505473 1_555
Na3 O60 2.516803 1_555
Na3 O10 2.646087 1_555
Na3 O25 2.807404 1_554
Na3 O15 2.858069 1_455
Na3 O20 2.913844 1_455
Na4 O40 2.363840 1_655
Na4 O55 2.409609 1_555
Na4 O41 2.513750 1_555
Na4 O54 2.517096 1_555
Na4 O19 2.695442 1_556
Na4 O4 2.799632 1_555
Na4 O26 2.817480 1_655
Na4 O33 2.884078 1_655
Na5 O36 2.363840 1_545
Na5 O57 2.409609 1_555
Na5 O38 2.513750 1_555
Na5 O58 2.517096 1_555
Na5 O21 2.695442 1_555
Na5 O0 2.799632 1_555
Na5 O29 2.817480 1_545
Na5 O31 2.884078 1_545
Na6 O43 2.532999 1_565
Na6 O36 2.559556 1_555
Na6 O44 2.633188 1_455
Na6 O38 2.663160 1_565
Na6 O42 2.683081 1_465
Na6 O37 2.686496 1_455
Na7 O45 2.532999 1_455
Na7 O40 2.559556 1_554
Na7 O47 2.633188 1_565
Na7 O41 2.663160 1_454
Na7 O46 2.683081 1_465
Na7 O39 2.686496 1_564
Na8 O48 2.534443 1_555
Na8 O56 2.536313 1_555
Na8 O55 2.650473 1_555
Na8 O54 2.658121 1_555
Na8 O49 2.687745 1_555
Na8 O50 2.692446 1_555
Na9 O52 2.534443 1_555
Na9 O59 2.536313 1_555
Na9 O57 2.650473 1_555
Na9 O58 2.658121 1_555
Na9 O51 2.687745 1_555
Na9 O53 2.692446 1_555
Na10 O68 2.589573 1_555
Na10 O67 2.606045 1_555
Na10 O62 2.627613 1_555
Na10 O61 2.636708 1_555
Na10 O60 2.639609 1_555
Na10 O66 2.674700 1_555
Na11 O71 2.589573 1_555
Na11 O69 2.606045 1_555
Na11 O65 2.627613 1_555
Na11 O63 2.636708 1_555
Na11 O64 2.639609 1_555
Na11 O70 2.674700 1_555
Hf0 O2 1.971847 1_555
Hf0 O1 2.071024 1_545
Hf0 O37 2.080733 1_545
Hf0 O36 2.082739 1_645
Hf0 O0 2.120912 1_655
Hf0 O38 2.138210 1_655
Hf1 O5 1.971847 1_555
Hf1 O3 2.071024 1_655
Hf1 O39 2.080733 1_655
Hf1 O40 2.082739 1_645
Hf1 O4 2.120912 1_545
Hf1 O41 2.138210 1_545
Hf2 O6 2.027234 1_455
Hf2 O43 2.029424 1_565
Hf2 O7 2.047821 1_565
Hf2 O8 2.052548 1_555
Hf2 O44 2.136522 1_455
Hf2 O42 2.151702 1_465
Hf3 O10 2.027234 1_565
Hf3 O45 2.029424 1_455
Hf3 O9 2.047821 1_455
Hf3 O11 2.052548 1_555
Hf3 O47 2.136522 1_565
Hf3 O46 2.151702 1_465
Hf4 O13 2.014880 1_555
Hf4 O48 2.041277 1_555
Hf4 O12 2.055791 1_555
Hf4 O14 2.075266 1_555
Hf4 O50 2.122758 1_555
Hf4 O49 2.140985 1_555
Hf5 O15 2.014880 1_555
Hf5 O52 2.041277 1_555
Hf5 O16 2.055791 1_555
Hf5 O17 2.075266 1_555
Hf5 O53 2.122758 1_555
Hf5 O51 2.140985 1_555
Hf6 O56 2.025804 1_555
Hf6 O18 2.028289 1_556
Hf6 O19 2.033247 1_556
Hf6 O20 2.066645 1_556
Hf6 O54 2.129011 1_555
Hf6 O55 2.165488 1_555
Hf7 O59 2.025804 1_555
Hf7 O22 2.028289 1_555
Hf7 O21 2.033247 1_555
Hf7 O23 2.066645 1_555
Hf7 O58 2.129011 1_555
Hf7 O57 2.165488 1_555
Hf8 O26 1.961398 1_554
Hf8 O61 2.046548 1_555
Hf8 O24 2.085423 1_554
Hf8 O62 2.091254 1_555
Hf8 O25 2.109915 1_554
Hf8 O60 2.168817 1_555
Hf9 O29 1.961398 1_555
Hf9 O63 2.046548 1_555
Hf9 O28 2.085423 1_555
Hf9 O65 2.091254 1_555
Hf9 O27 2.109915 1_555
Hf9 O64 2.168817 1_555
Hf10 O30 1.994287 1_555
Hf10 O68 2.035272 1_555
Hf10 O32 2.036404 1_555
Hf10 O31 2.109938 1_555
Hf10 O67 2.125608 1_555
Hf10 O66 2.158104 1_555
Hf11 O34 1.994287 1_555
Hf11 O71 2.035272 1_555
Hf11 O35 2.036404 1_555
Hf11 O33 2.109938 1_555
Hf11 O69 2.125608 1_555
Hf11 O70 2.158104 1_555
O0 P0 1.545538 1_555
O1 P1 1.551981 1_555
O2 Si0 1.618682 1_655
O3 P2 1.551981 1_555
O4 P3 1.545538 1_555
O5 Si1 1.618682 1_545
O6 Si1 1.628756 1_555
O7 P2 1.544764 1_555
O8 P3 1.558869 1_455
O9 P1 1.544764 1_555
O10 Si0 1.628756 1_555
O11 P0 1.558869 1_565
O12 P4 1.537636 1_555
O13 Si2 1.651365 1_555
O14 P5 1.532749 1_555
O15 Si3 1.651365 1_555
O16 P6 1.537636 1_555
O17 P7 1.532749 1_555
O18 P7 1.544499 1_555
O19 Si3 1.633680 1_555
O20 P6 1.548839 1_555
O21 Si2 1.633680 1_555
O22 P5 1.544499 1_555
O23 P4 1.548839 1_555
O24 P8 1.533730 1_555
O25 P9 1.550994 1_555
O26 Si4 1.645732 1_555
O27 P10 1.550994 1_555
O28 P11 1.533730 1_555
O29 Si5 1.645732 1_555
O30 Si5 1.639823 1_555
O31 P10 1.544397 1_555
O32 P11 1.539643 1_555
O33 P9 1.544397 1_555
O34 Si4 1.639823 1_555
O35 P8 1.539643 1_555
O36 Si5 1.638836 1_555
O37 P10 1.537165 1_555
O38 P11 1.555150 1_555
O39 P9 1.537165 1_555
O40 Si4 1.638836 1_555
O41 P8 1.555150 1_555
O42 P4 1.554215 1_555
O43 Si2 1.630937 1_555
O44 P5 1.561389 1_555
O45 Si3 1.630937 1_555
O46 P6 1.554215 1_555
O47 P7 1.561389 1_555
O48 Si1 1.657261 1_545
O49 P2 1.556651 1_555
O50 P3 1.535337 1_555
O51 P1 1.556651 1_555
O52 Si0 1.657261 1_655
O53 P0 1.535337 1_555
O54 P8 1.560910 1_555
O55 P9 1.563181 1_655
O56 Si4 1.628523 1_545
O57 P10 1.563181 1_545
O58 P11 1.560910 1_555
O59 Si5 1.628523 1_655
O60 P7 1.557253 1_555
O61 Si3 1.661239 1_455
O62 P6 1.534581 1_565
O63 Si2 1.661239 1_565
O64 P5 1.557253 1_555
O65 P4 1.534581 1_455
O66 P0 1.555221 1_565
O67 P1 1.532412 1_555
O68 Si0 1.658039 1_555
O69 P2 1.532412 1_555
O70 P3 1.555221 1_455
O71 Si1 1.658039 1_555
