# generated using pymatgen
data_MgCu2(RhO2)4
_symmetry_space_group_name_H-M   'P 1'
_cell_length_a   6.30069206
_cell_length_b   6.25283248
_cell_length_c   6.45108638
_cell_angle_alpha   89.99929688
_cell_angle_beta   120.78669121
_cell_angle_gamma   119.74335527
_symmetry_Int_Tables_number   1
_chemical_formula_structural   MgCu2(RhO2)4
_chemical_formula_sum   'Mg1 Cu2 Rh4 O8'
_cell_volume   178.25128503
_cell_formula_units_Z   1
loop_
 _symmetry_equiv_pos_site_id
 _symmetry_equiv_pos_as_xyz
  1  'x, y, z'
loop_
 _atom_site_type_symbol
 _atom_site_label
 _atom_site_symmetry_multiplicity
 _atom_site_fract_x
 _atom_site_fract_y
 _atom_site_fract_z
 _atom_site_occupancy
  Mg  Mg0  1  0.13971100  0.57078100  0.06967800  1
  Cu  Cu0  1  0.96057500  0.98043700  0.97969700  1
  Cu  Cu1  1  0.69584200  0.84781300  0.34880900  1
  Rh  Rh0  1  0.69072500  0.34520800  0.09970900  1
  Rh  Rh1  1  0.69066700  0.34528700  0.59100400  1
  Rh  Rh2  1  0.20776800  0.35284000  0.60387200  1
  Rh  Rh3  1  0.20777000  0.85476500  0.60371900  1
  O  O0  1  0.16850000  0.58412300  0.37912400  1
  O  O1  1  0.72988600  0.15339600  0.36503800  1
  O  O2  1  0.69175900  0.12918900  0.84604800  1
  O  O3  1  0.72989700  0.57630400  0.36507200  1
  O  O4  1  0.16830300  0.58412300  0.78900000  1
  O  O5  1  0.22787000  0.11382800  0.83238800  1
  O  O6  1  0.22782600  0.11389500  0.39541400  1
  O  O7  1  0.69206800  0.56259300  0.84601000  1
loop_
_geom_bond_atom_site_label_1
_geom_bond_atom_site_label_2
_geom_bond_distance
_geom_bond_site_symmetry_2
Mg0 O4 1.907085 1_554
Mg0 O0 1.907678 1_555
Mg0 O7 2.393797 1_454
Mg0 O2 2.402221 1_454
Cu0 O2 2.131998 1_565
Cu0 O7 2.133732 1_555
Cu0 O5 2.163248 1_665
Cu0 O6 2.169555 1_666
Cu1 O3 1.810423 1_555
Cu1 O1 1.810611 1_565
O0 Rh3 2.059587 1_555
O0 Rh2 2.059736 1_555
O0 Rh0 2.127445 1_455
O1 Rh1 2.070912 1_555
O1 Rh0 2.071326 1_555
O1 Rh2 2.126116 1_655
O2 Rh0 2.126496 1_556
O2 Rh1 2.128494 1_555
O2 Rh3 2.148362 1_545
O3 Rh1 2.070387 1_555
O3 Rh0 2.071993 1_555
O3 Rh3 2.126162 1_655
O4 Rh2 2.059222 1_555
O4 Rh3 2.059361 1_555
O4 Rh1 2.126998 1_455
O5 Rh0 2.058449 1_556
O5 Rh2 2.102237 1_555
O5 Rh3 2.102714 1_545
O6 Rh1 2.058278 1_555
O6 Rh3 2.101839 1_545
O6 Rh2 2.101921 1_555
O7 Rh1 2.127413 1_555
O7 Rh0 2.128138 1_556
O7 Rh2 2.149656 1_555
