# generated using pymatgen
data_Na4Mg(CoO3)2
_symmetry_space_group_name_H-M   'P 1'
_cell_length_a   6.61706754
_cell_length_b   6.61706754
_cell_length_c   5.88068011
_cell_angle_alpha   77.17484338
_cell_angle_beta   102.82515662
_cell_angle_gamma   124.26785393
_symmetry_Int_Tables_number   1
_chemical_formula_structural   Na4Mg(CoO3)2
_chemical_formula_sum   'Na4 Mg1 Co2 O6'
_cell_volume   205.97537786
_cell_formula_units_Z   1
loop_
 _symmetry_equiv_pos_site_id
 _symmetry_equiv_pos_as_xyz
  1  'x, y, z'
loop_
 _atom_site_type_symbol
 _atom_site_label
 _atom_site_symmetry_multiplicity
 _atom_site_fract_x
 _atom_site_fract_y
 _atom_site_fract_z
 _atom_site_occupancy
  Na  Na0  1  0.38971552  0.61028448  0.24877352  1
  Na  Na1  1  0.04298343  0.95701657  0.56632831  1
  Na  Na2  1  0.09186467  0.90813533  0.09697772  1
  Na  Na3  1  0.56200956  0.43799044  0.67488480  1
  Mg  Mg0  1  0.81862506  0.18137494  0.77134365  1
  Co  Co0  1  0.33234928  0.66765072  0.74366990  1
  Co  Co1  1  0.64622247  0.35377753  0.22215555  1
  O  O0  1  0.22339691  0.77660309  0.89146821  1
  O  O1  1  0.65308968  0.84495125  0.69368977  1
  O  O2  1  0.15504875  0.34691032  0.69368977  1
  O  O3  1  0.81109948  0.63693415  0.34194964  1
  O  O4  1  0.36306585  0.18890052  0.34194964  1
  O  O5  1  0.72302934  0.27697066  -0.00563048  1
loop_
_geom_bond_atom_site_label_1
_geom_bond_atom_site_label_2
_geom_bond_distance
_geom_bond_site_symmetry_2
Na0 O0 2.479541 1_554
Na0 O4 2.630017 1_555
Na0 O3 2.630017 1_555
Na1 O3 2.294238 1_455
Na1 O4 2.294238 1_565
Na1 O0 2.466667 1_555
Na1 O1 2.494764 1_455
Na1 O2 2.494764 1_565
Na2 O0 2.182343 1_554
Na2 O3 2.243505 1_455
Na2 O4 2.243505 1_565
Na3 O5 2.302464 1_556
Na3 O2 2.429416 1_555
Na3 O1 2.429416 1_555
Na3 O3 2.475473 1_555
Na3 O4 2.475473 1_555
Mg0 O5 1.925529 1_556
Mg0 O1 1.961459 1_545
Mg0 O2 1.961459 1_655
Co0 O0 1.713664 1_555
Co0 O1 1.813023 1_555
Co0 O2 1.813023 1_555
Co1 O3 1.771997 1_555
Co1 O4 1.771997 1_555
Co1 O5 1.790625 1_555
