# generated using pymatgen
data_Na7MgNb3(SiO4)6
_symmetry_space_group_name_H-M   'P 1'
_cell_length_a   9.11705245
_cell_length_b   9.11705213
_cell_length_c   22.51354908
_cell_angle_alpha   90.00000000
_cell_angle_beta   90.00000000
_cell_angle_gamma   120.00000113
_symmetry_Int_Tables_number   1
_chemical_formula_structural   Na7MgNb3(SiO4)6
_chemical_formula_sum   'Na21 Mg3 Nb9 Si18 O72'
_cell_volume   1620.62853485
_cell_formula_units_Z   3
loop_
 _symmetry_equiv_pos_site_id
 _symmetry_equiv_pos_as_xyz
  1  'x, y, z'
loop_
 _atom_site_type_symbol
 _atom_site_label
 _atom_site_symmetry_multiplicity
 _atom_site_fract_x
 _atom_site_fract_y
 _atom_site_fract_z
 _atom_site_occupancy
  Na  Na0  1  0.64031634  0.02020501  0.24473365  1
  Na  Na1  1  0.37988867  0.35968366  0.24473365  1
  Na  Na2  1  0.97979499  0.62011133  0.24473365  1
  Na  Na3  1  0.63206244  0.61503164  0.74615865  1
  Na  Na4  1  0.98296921  0.36793756  0.74615865  1
  Na  Na5  1  0.38496836  0.01703079  0.74615865  1
  Na  Na6  1  0.30851497  0.33509517  0.58587884  1
  Na  Na7  1  0.02658120  0.69148503  0.58587884  1
  Na  Na8  1  0.66490483  0.97341880  0.58587884  1
  Na  Na9  1  0.31055230  0.97595594  0.08630924  1
  Na  Na10  1  0.66540464  0.68944770  0.08630924  1
  Na  Na11  1  0.02404406  0.33459536  0.08630924  1
  Na  Na12  1  0.96510287  0.28243184  0.40688675  1
  Na  Na13  1  0.31732797  0.03489713  0.40688675  1
  Na  Na14  1  0.71756816  0.68267203  0.40688675  1
  Na  Na15  1  -0.00000000  -0.00000000  0.49240293  1
  Na  Na16  1  -0.00000000  -0.00000000  0.99848292  1
  Na  Na17  1  0.66666700  0.33333300  0.83199808  1
  Na  Na18  1  0.66666700  0.33333300  0.32142954  1
  Na  Na19  1  0.33333300  0.66666700  0.16590896  1
  Na  Na20  1  0.33333300  0.66666700  0.66851643  1
  Mg  Mg0  1  -0.00000000  -0.00000000  0.35179675  1
  Mg  Mg1  1  0.66666700  0.33333300  0.68682832  1
  Mg  Mg2  1  0.66666700  0.33333300  0.18437354  1
  Nb  Nb0  1  -0.00000000  -0.00000000  0.85707109  1
  Nb  Nb1  1  -0.00000000  -0.00000000  0.64710536  1
  Nb  Nb2  1  -0.00000000  -0.00000000  0.14926493  1
  Nb  Nb3  1  0.66666700  0.33333300  0.97824619  1
  Nb  Nb4  1  0.66666700  0.33333300  0.47991302  1
  Nb  Nb5  1  0.33333300  0.66666700  0.01791794  1
  Nb  Nb6  1  0.33333300  0.66666700  0.51890836  1
  Nb  Nb7  1  0.33333300  0.66666700  0.31017180  1
  Nb  Nb8  1  0.33333300  0.66666700  0.81465770  1
  Si  Si0  1  0.29344687  0.00380169  0.25412583  1
  Si  Si1  1  0.71035482  0.70655313  0.25412583  1
  Si  Si2  1  0.99619831  0.28964518  0.25412583  1
  Si  Si3  1  0.29064149  0.29096478  0.75140564  1
  Si  Si4  1  0.00032329  0.70935851  0.75140564  1
  Si  Si5  1  0.70903522  0.99967671  0.75140564  1
  Si  Si6  1  0.95732349  0.33443038  0.58597256  1
  Si  Si7  1  0.37710790  0.04267651  0.58597256  1
  Si  Si8  1  0.66556962  0.62289210  0.58597256  1
  Si  Si9  1  0.95678300  0.62274943  0.08503877  1
  Si  Si10  1  0.66596742  0.04321700  0.08503877  1
  Si  Si11  1  0.37725057  0.33403258  0.08503877  1
  Si  Si12  1  0.62570295  0.66465620  0.91637338  1
  Si  Si13  1  0.03895225  0.37429705  0.91637338  1
  Si  Si14  1  0.33534380  0.96104775  0.91637338  1
  Si  Si15  1  0.62479952  0.95928418  0.41629245  1
  Si  Si16  1  0.33448366  0.37520048  0.41629245  1
  Si  Si17  1  0.04071582  0.66551634  0.41629245  1
  O  O0  1  0.20802439  0.02851475  0.31228274  1
  O  O1  1  0.82049036  0.79197561  0.31228274  1
  O  O2  1  0.97148525  0.17950964  0.31228274  1
  O  O3  1  0.18599379  0.16625504  0.80641514  1
  O  O4  1  0.98026125  0.81400621  0.80641514  1
  O  O5  1  0.83374496  0.01973875  0.80641514  1
  O  O6  1  0.80080054  0.96830737  0.69103844  1
  O  O7  1  0.16750683  0.19919946  0.69103844  1
  O  O8  1  0.03169263  0.83249317  0.69103844  1
  O  O9  1  0.80287930  0.83313245  0.19357300  1
  O  O10  1  0.03025315  0.19712070  0.19357300  1
  O  O11  1  0.16686755  0.96974685  0.19357300  1
  O  O12  1  0.88421294  0.37693887  0.64363787  1
  O  O13  1  0.49272693  0.11578706  0.64363787  1
  O  O14  1  0.62306113  0.50727307  0.64363787  1
  O  O15  1  0.88815736  0.51090638  0.14332538  1
  O  O16  1  0.62275002  0.11184264  0.14332538  1
  O  O17  1  0.48909362  0.37724998  0.14332538  1
  O  O18  1  0.47149231  0.30190861  0.02750216  1
  O  O19  1  0.83041730  0.52850769  0.02750216  1
  O  O20  1  0.69809139  0.16958270  0.02750216  1
  O  O21  1  0.46900492  0.16569583  0.52680071  1
  O  O22  1  0.69669191  0.53099508  0.52680071  1
  O  O23  1  0.83430417  0.30330809  0.52680071  1
  O  O24  1  0.52923288  0.68883741  0.97411130  1
  O  O25  1  0.15960353  0.47076712  0.97411130  1
  O  O26  1  0.31116259  0.84039647  0.97411130  1
  O  O27  1  0.52261924  0.84096670  0.47486722  1
  O  O28  1  0.31834646  0.47738076  0.47486722  1
  O  O29  1  0.15903330  0.68165354  0.47486722  1
  O  O30  1  0.13398601  0.63189116  0.35917413  1
  O  O31  1  0.49790415  0.86601399  0.35917413  1
  O  O32  1  0.36810884  0.50209585  0.35917413  1
  O  O33  1  0.13749870  0.49544979  0.85771384  1
  O  O34  1  0.35795009  0.86250130  0.85771384  1
  O  O35  1  0.50455021  0.64204991  0.85771384  1
  O  O36  1  0.02278347  0.83063684  0.41652921  1
  O  O37  1  0.80785336  0.97721653  0.41652921  1
  O  O38  1  0.16936316  0.19214664  0.41652921  1
  O  O39  1  0.02445480  0.18933384  0.91028387  1
  O  O40  1  0.16487904  0.97554520  0.91028387  1
  O  O41  1  0.81066616  0.83512096  0.91028387  1
  O  O42  1  0.97508000  0.16193894  0.58813484  1
  O  O43  1  0.18685893  0.02492000  0.58813484  1
  O  O44  1  0.83806106  0.81314107  0.58813484  1
  O  O45  1  0.97685840  0.81469912  0.08829660  1
  O  O46  1  0.83784072  0.02314160  0.08829660  1
  O  O47  1  0.18530088  0.16215928  0.08829660  1
  O  O48  1  0.69074763  0.16499993  0.74768023  1
  O  O49  1  0.47425330  0.30925237  0.74768023  1
  O  O50  1  0.83500007  0.52574670  0.74768023  1
  O  O51  1  0.68105403  0.52004491  0.24527201  1
  O  O52  1  0.83899188  0.31894597  0.24527201  1
  O  O53  1  0.47995509  0.16100812  0.24527201  1
  O  O54  1  0.64004658  0.49477574  0.92259175  1
  O  O55  1  0.85473017  0.35995342  0.92259175  1
  O  O56  1  0.50522426  0.14526983  0.92259175  1
  O  O57  1  0.63317725  0.14425835  0.42328642  1
  O  O58  1  0.51108210  0.36682275  0.42328642  1
  O  O59  1  0.85574165  0.48891790  0.42328642  1
  O  O60  1  0.34637938  0.49795983  0.07426237  1
  O  O61  1  0.15157945  0.65362062  0.07426237  1
  O  O62  1  0.50204017  0.84842055  0.07426237  1
  O  O63  1  0.34560041  0.84876495  0.57586197  1
  O  O64  1  0.50316355  0.65439959  0.57586197  1
  O  O65  1  0.15123505  0.49683645  0.57586197  1
  O  O66  1  0.29920443  0.82164889  0.25540929  1
  O  O67  1  0.52244347  0.70079557  0.25540929  1
  O  O68  1  0.17835111  0.47755653  0.25540929  1
  O  O69  1  0.29897964  0.47694350  0.75444212  1
  O  O70  1  0.17796286  0.70102036  0.75444212  1
  O  O71  1  0.52305650  0.82203714  0.75444212  1
loop_
_geom_bond_atom_site_label_1
_geom_bond_atom_site_label_2
_geom_bond_distance
_geom_bond_site_symmetry_2
Na0 O53 2.379575 1_555
Na0 O52 2.401221 1_555
Na0 O16 2.463700 1_555
Na0 O67 2.561902 1_545
Na0 O66 2.716009 1_545
Na0 O31 2.911169 1_545
Na1 O51 2.379582 1_555
Na1 O53 2.401228 1_555
Na1 O17 2.463703 1_555
Na1 O68 2.561911 1_555
Na1 O67 2.716010 1_555
Na1 O32 2.911171 1_555
Na2 O52 2.379583 1_555
Na2 O51 2.401219 1_555
Na2 O15 2.463702 1_555
Na2 O66 2.561904 1_655
Na2 O68 2.716002 1_655
Na2 O30 2.911167 1_655
Na3 O50 2.364972 1_555
Na3 O49 2.414970 1_555
Na3 O14 2.493723 1_555
Na3 O71 2.541628 1_555
Na3 O69 2.649223 1_555
Na3 O35 2.829519 1_555
Na4 O48 2.364966 1_555
Na4 O50 2.414962 1_555
Na4 O12 2.493720 1_555
Na4 O69 2.541619 1_655
Na4 O70 2.649222 1_655
Na4 O33 2.829516 1_655
Na5 O49 2.364964 1_555
Na5 O48 2.414970 1_555
Na5 O13 2.493722 1_555
Na5 O70 2.541621 1_545
Na5 O71 2.649215 1_545
Na5 O34 2.829515 1_545
Na6 O43 2.468435 1_555
Na6 O65 2.529020 1_555
Na6 O64 2.551196 1_555
Na6 O42 2.633813 1_455
Na6 O7 2.683299 1_555
Na6 O28 2.796584 1_555
Na6 O14 2.806658 1_555
Na6 O21 2.924898 1_555
Na7 O44 2.468444 1_455
Na7 O63 2.529005 1_555
Na7 O65 2.551182 1_555
Na7 O43 2.633813 1_565
Na7 O8 2.683301 1_555
Na7 O29 2.796575 1_555
Na7 O12 2.806657 1_455
Na7 O22 2.924898 1_455
Na8 O42 2.468437 1_565
Na8 O64 2.529005 1_555
Na8 O63 2.551199 1_555
Na8 O44 2.633805 1_555
Na8 O6 2.683297 1_555
Na8 O27 2.796580 1_555
Na8 O13 2.806658 1_565
Na8 O23 2.924898 1_565
Na9 O47 2.475173 1_565
Na9 O62 2.550158 1_555
Na9 O61 2.559519 1_555
Na9 O45 2.635586 1_455
Na9 O11 2.734371 1_555
Na9 O16 2.785291 1_565
Na9 O26 2.813344 1_554
Na9 O18 2.894232 1_565
Na10 O45 2.475165 1_555
Na10 O60 2.550172 1_555
Na10 O62 2.559535 1_555
Na10 O46 2.635586 1_565
Na10 O9 2.734369 1_555
Na10 O17 2.785291 1_555
Na10 O24 2.813352 1_554
Na10 O19 2.894232 1_555
Na11 O46 2.475166 1_455
Na11 O61 2.550174 1_555
Na11 O60 2.559519 1_555
Na11 O47 2.635578 1_555
Na11 O10 2.734366 1_555
Na11 O15 2.785291 1_455
Na11 O25 2.813348 1_554
Na11 O20 2.894232 1_455
Na12 O2 2.339837 1_555
Na12 O38 2.392811 1_655
Na12 O37 2.419986 1_545
Na12 O59 2.559570 1_555
Na12 O57 2.658731 1_555
Na12 O30 2.961391 1_655
Na12 O23 2.995591 1_555
Na13 O0 2.339833 1_555
Na13 O36 2.392804 1_545
Na13 O38 2.419978 1_555
Na13 O57 2.559587 1_555
Na13 O58 2.658732 1_555
Na13 O31 2.961391 1_545
Na13 O21 2.995596 1_555
Na14 O1 2.339835 1_555
Na14 O37 2.392802 1_555
Na14 O36 2.419986 1_655
Na14 O58 2.559584 1_555
Na14 O59 2.658747 1_555
Na14 O32 2.961391 1_555
Na14 O22 2.995599 1_555
Na15 O36 2.380338 1_545
Na15 O38 2.380338 1_555
Na15 O37 2.380338 1_445
Na15 O44 2.685516 1_445
Na15 O43 2.685516 1_555
Na15 O42 2.685516 1_455
Na16 O39 2.566593 1_555
Na16 O41 2.566593 1_445
Na16 O40 2.566593 1_545
Na16 O45 2.575020 1_446
Na16 O47 2.575020 1_556
Na16 O46 2.575020 1_456
Na17 O50 2.518723 1_555
Na17 O48 2.518723 1_555
Na17 O49 2.518723 1_555
Na17 O54 2.596627 1_555
Na17 O56 2.596627 1_555
Na17 O55 2.596627 1_555
Na18 O51 2.373055 1_555
Na18 O53 2.373055 1_555
Na18 O52 2.373056 1_555
Na18 O57 2.792307 1_555
Na18 O59 2.792307 1_555
Na18 O58 2.792307 1_555
Na19 O66 2.567699 1_555
Na19 O68 2.567699 1_555
Na19 O67 2.567699 1_555
Na19 O62 2.611523 1_555
Na19 O60 2.611523 1_555
Na19 O61 2.611523 1_555
Na20 O69 2.508093 1_555
Na20 O71 2.508093 1_555
Na20 O70 2.508094 1_555
Na20 O63 2.633324 1_555
Na20 O65 2.633324 1_555
Na20 O64 2.633324 1_555
Mg0 O1 1.990703 1_445
Mg0 O2 1.990703 1_455
Mg0 O0 1.990703 1_555
Mg0 O36 2.207260 1_545
Mg0 O38 2.207260 1_555
Mg0 O37 2.207260 1_445
Mg1 O13 2.061271 1_555
Mg1 O14 2.061271 1_555
Mg1 O12 2.061271 1_555
Mg1 O50 2.148796 1_555
Mg1 O48 2.148796 1_555
Mg1 O49 2.148796 1_555
Mg2 O16 2.069674 1_555
Mg2 O15 2.069674 1_555
Mg2 O17 2.069674 1_555
Mg2 O51 2.138077 1_555
Mg2 O53 2.138077 1_555
Mg2 O52 2.138077 1_555
Nb0 O4 1.975675 1_445
Nb0 O3 1.975675 1_555
Nb0 O5 1.975675 1_455
Nb0 O39 2.019833 1_555
Nb0 O41 2.019833 1_445
Nb0 O40 2.019833 1_545
Nb1 O7 1.958391 1_555
Nb1 O8 1.958391 1_545
Nb1 O6 1.958391 1_445
Nb1 O44 2.080732 1_445
Nb1 O43 2.080732 1_555
Nb1 O42 2.080732 1_455
Nb2 O10 1.950702 1_555
Nb2 O9 1.950702 1_445
Nb2 O11 1.950702 1_545
Nb2 O45 2.103856 1_445
Nb2 O47 2.103856 1_555
Nb2 O46 2.103857 1_455
Nb3 O19 1.992066 1_556
Nb3 O20 1.992066 1_556
Nb3 O18 1.992066 1_556
Nb3 O54 2.037774 1_555
Nb3 O56 2.037774 1_555
Nb3 O55 2.037774 1_555
Nb4 O22 1.985821 1_555
Nb4 O21 1.985821 1_555
Nb4 O23 1.985821 1_555
Nb4 O57 2.040510 1_555
Nb4 O59 2.040510 1_555
Nb4 O58 2.040510 1_555
Nb5 O25 1.960210 1_554
Nb5 O26 1.960210 1_554
Nb5 O24 1.960210 1_554
Nb5 O62 2.042550 1_555
Nb5 O60 2.042550 1_555
Nb5 O61 2.042550 1_555
Nb6 O28 1.934980 1_555
Nb6 O27 1.934980 1_555
Nb6 O29 1.934980 1_555
Nb6 O63 2.056013 1_555
Nb6 O65 2.056013 1_555
Nb6 O64 2.056013 1_555
Nb7 O31 2.011101 1_555
Nb7 O32 2.011101 1_555
Nb7 O30 2.011101 1_555
Nb7 O66 2.013209 1_555
Nb7 O68 2.013209 1_555
Nb7 O67 2.013209 1_555
Nb8 O34 1.943465 1_555
Nb8 O33 1.943465 1_555
Nb8 O35 1.943465 1_555
Nb8 O69 2.094303 1_555
Nb8 O71 2.094303 1_555
Nb8 O70 2.094303 1_555
O0 Si0 1.595958 1_555
O1 Si1 1.595958 1_555
O2 Si2 1.595958 1_555
O3 Si3 1.628499 1_555
O4 Si4 1.628499 1_655
O5 Si5 1.628499 1_545
O6 Si5 1.693550 1_555
O7 Si3 1.693550 1_555
O8 Si4 1.693550 1_555
O9 Si1 1.711244 1_555
O10 Si2 1.711244 1_455
O11 Si0 1.711244 1_565
O12 Si6 1.593194 1_555
O13 Si7 1.593194 1_555
O14 Si8 1.593194 1_555
O15 Si9 1.585936 1_555
O16 Si10 1.585936 1_555
O17 Si11 1.585936 1_555
O18 Si11 1.659396 1_555
O19 Si9 1.659396 1_555
O20 Si10 1.659396 1_555
O21 Si7 1.671787 1_555
O22 Si8 1.671787 1_555
O23 Si6 1.671787 1_555
O24 Si12 1.644921 1_555
O25 Si13 1.644921 1_555
O26 Si14 1.644921 1_555
O27 Si15 1.663006 1_555
O28 Si16 1.663006 1_555
O29 Si17 1.663006 1_555
O30 Si17 1.652692 1_555
O31 Si15 1.652692 1_555
O32 Si16 1.652692 1_555
O33 Si13 1.667017 1_555
O34 Si14 1.667017 1_555
O35 Si12 1.667017 1_555
O36 Si17 1.593469 1_555
O37 Si15 1.593478 1_555
O38 Si16 1.593474 1_555
O39 Si13 1.630046 1_555
O40 Si14 1.630037 1_555
O41 Si12 1.630042 1_555
O42 Si6 1.660204 1_555
O43 Si7 1.660213 1_555
O44 Si8 1.660209 1_555
O45 Si9 1.667672 1_555
O46 Si10 1.667663 1_555
O47 Si11 1.667668 1_555
O48 Si5 1.599366 1_545
O49 Si3 1.599375 1_555
O50 Si4 1.599371 1_655
O51 Si1 1.596318 1_555
O52 Si2 1.596309 1_555
O53 Si0 1.596315 1_555
O54 Si12 1.624208 1_555
O55 Si13 1.624189 1_655
O56 Si14 1.624197 1_545
O57 Si15 1.657054 1_545
O58 Si16 1.657072 1_555
O59 Si17 1.657062 1_655
O60 Si11 1.671033 1_555
O61 Si9 1.671015 1_455
O62 Si10 1.671022 1_565
O63 Si7 1.658905 1_565
O64 Si8 1.658923 1_555
O65 Si6 1.658912 1_455
O66 Si0 1.687802 1_565
O67 Si1 1.687811 1_555
O68 Si2 1.687807 1_455
O69 Si3 1.660283 1_555
O70 Si4 1.660274 1_555
O71 Si5 1.660279 1_555
