# generated using pymatgen
data_Na3H(SO4)2
_symmetry_space_group_name_H-M   'P 1'
_cell_length_a   9.78555900
_cell_length_b   8.76019200
_cell_length_c   9.24518647
_cell_angle_alpha   71.45429227
_cell_angle_beta   90.00000000
_cell_angle_gamma   90.00000000
_symmetry_Int_Tables_number   1
_chemical_formula_structural   Na3H(SO4)2
_chemical_formula_sum   'Na12 H4 S8 O32'
_cell_volume   751.37275993
_cell_formula_units_Z   4
loop_
 _symmetry_equiv_pos_site_id
 _symmetry_equiv_pos_as_xyz
  1  'x, y, z'
loop_
 _atom_site_type_symbol
 _atom_site_label
 _atom_site_symmetry_multiplicity
 _atom_site_fract_x
 _atom_site_fract_y
 _atom_site_fract_z
 _atom_site_occupancy
  Na  Na0  1  0.50000000  0.00000000  0.50000000  1
  Na  Na1  1  0.00000000  0.00000000  0.00000000  1
  Na  Na2  1  0.00000000  0.50000000  0.50000000  1
  Na  Na3  1  0.50000000  0.50000000  0.00000000  1
  Na  Na4  1  0.15603100  0.11327700  0.62833600  1
  Na  Na5  1  0.65603100  0.88672300  0.87166400  1
  Na  Na6  1  0.84396900  0.88672300  0.37166400  1
  Na  Na7  1  0.34396900  0.11327700  0.12833600  1
  Na  Na8  1  0.49567500  0.24057200  0.72497300  1
  Na  Na9  1  0.99567500  0.75942800  0.77502700  1
  Na  Na10  1  0.50432500  0.75942800  0.27502700  1
  Na  Na11  1  0.00432500  0.24057200  0.22497300  1
  H  H0  1  0.26354800  0.60463200  0.38280200  1
  H  H1  1  0.76354800  0.39536800  0.11719800  1
  H  H2  1  0.73645200  0.39536800  0.61719800  1
  H  H3  1  0.23645200  0.60463200  0.88280200  1
  S  S0  1  0.18006500  0.86521300  0.40454900  1
  S  S1  1  0.68006500  0.13478700  0.09545100  1
  S  S2  1  0.81993500  0.13478700  0.59545100  1
  S  S3  1  0.31993500  0.86521300  0.90454900  1
  S  S4  1  0.30836800  0.36085000  0.35799200  1
  S  S5  1  0.80836800  0.63915000  0.14200800  1
  S  S6  1  0.69163200  0.63915000  0.64200800  1
  S  S7  1  0.19163200  0.36085000  0.85799200  1
  O  O0  1  0.09361300  0.96384500  0.27617900  1
  O  O1  1  0.59361300  0.03615500  0.22382100  1
  O  O2  1  0.90638700  0.03615500  0.72382100  1
  O  O3  1  0.40638700  0.96384500  0.77617900  1
  O  O4  1  0.16372700  0.68962100  0.41675900  1
  O  O5  1  0.66372700  0.31037900  0.08324100  1
  O  O6  1  0.83627300  0.31037900  0.58324100  1
  O  O7  1  0.33627300  0.68962100  0.91675900  1
  O  O8  1  0.13449100  0.88497600  0.54972800  1
  O  O9  1  0.63449100  0.11502400  0.95027200  1
  O  O10  1  0.86550900  0.11502400  0.45027200  1
  O  O11  1  0.36550900  0.88497600  0.04972800  1
  O  O12  1  0.32646900  0.90994400  0.37349700  1
  O  O13  1  0.82646900  0.09005600  0.12650300  1
  O  O14  1  0.67353100  0.09005600  0.62650300  1
  O  O15  1  0.17353100  0.90994400  0.87349700  1
  O  O16  1  0.15179300  0.53378800  0.85551800  1
  O  O17  1  0.65179300  0.46621200  0.64448200  1
  O  O18  1  0.84820700  0.46621200  0.14448200  1
  O  O19  1  0.34820700  0.53378800  0.35551800  1
  O  O20  1  0.12470700  0.24584200  0.99226400  1
  O  O21  1  0.62470700  0.75415800  0.50773600  1
  O  O22  1  0.87529300  0.75415800  0.00773600  1
  O  O23  1  0.37529300  0.24584200  0.49226400  1
  O  O24  1  0.34252000  0.34611200  0.87381800  1
  O  O25  1  0.84252000  0.65388800  0.62618200  1
  O  O26  1  0.65748000  0.65388800  0.12618200  1
  O  O27  1  0.15748000  0.34611200  0.37381800  1
  O  O28  1  0.14239400  0.34267900  0.71471500  1
  O  O29  1  0.64239400  0.65732100  0.78528500  1
  O  O30  1  0.85760600  0.65732100  0.28528500  1
  O  O31  1  0.35760600  0.34267900  0.21471500  1
loop_
_geom_bond_atom_site_label_1
_geom_bond_atom_site_label_2
_geom_bond_distance
_geom_bond_site_symmetry_2
Na0 O14 2.336808 1_555
Na0 O12 2.336808 1_545
Na0 O23 2.456507 1_555
Na0 O21 2.456507 1_545
Na0 O3 2.635245 1_545
Na0 O1 2.635245 1_555
Na1 O15 2.336808 1_544
Na1 O13 2.336808 1_455
Na1 O20 2.456507 1_554
Na1 O22 2.456507 1_445
Na1 O0 2.635245 1_545
Na1 O2 2.635245 1_454
Na2 O4 2.259487 1_555
Na2 O6 2.259487 1_455
Na2 O30 2.457880 1_455
Na2 O28 2.457880 1_555
Na2 O25 2.559963 1_455
Na2 O27 2.559963 1_555
Na3 O7 2.259487 1_554
Na3 O5 2.259487 1_555
Na3 O29 2.457880 1_554
Na3 O31 2.457880 1_555
Na3 O24 2.559963 1_554
Na3 O26 2.559963 1_555
Na4 O8 2.344570 1_545
Na4 O28 2.390596 1_555
Na4 O15 2.402336 1_545
Na4 O23 2.570112 1_555
Na4 O27 2.577663 1_555
Na4 O2 2.612305 1_455
Na4 O3 2.906123 1_545
Na5 O9 2.344570 1_565
Na5 O29 2.390596 1_555
Na5 O14 2.402336 1_565
Na5 O22 2.570112 1_556
Na5 O26 2.577663 1_556
Na5 O3 2.612305 1_555
Na5 O2 2.906123 1_565
Na6 O10 2.344570 1_565
Na6 O30 2.390596 1_555
Na6 O13 2.402336 1_565
Na6 O21 2.570112 1_555
Na6 O25 2.577663 1_555
Na6 O0 2.612305 1_655
Na6 O1 2.906123 1_565
Na7 O11 2.344570 1_545
Na7 O31 2.390596 1_555
Na7 O12 2.402336 1_545
Na7 O20 2.570112 1_554
Na7 O24 2.577663 1_554
Na7 O1 2.612305 1_555
Na7 O0 2.906123 1_545
Na8 O24 2.409126 1_555
Na8 O17 2.420556 1_555
Na8 O9 2.436428 1_555
Na8 O23 2.440355 1_555
Na8 O3 2.476722 1_545
Na8 O14 2.521904 1_555
Na9 O25 2.409126 1_555
Na9 O16 2.420556 1_655
Na9 O8 2.436428 1_655
Na9 O22 2.440355 1_556
Na9 O2 2.476722 1_565
Na9 O15 2.521904 1_655
Na10 O26 2.409126 1_555
Na10 O19 2.420556 1_555
Na10 O11 2.436428 1_555
Na10 O21 2.440355 1_555
Na10 O1 2.476722 1_565
Na10 O12 2.521904 1_555
Na11 O27 2.409126 1_555
Na11 O18 2.420556 1_455
Na11 O10 2.436428 1_455
Na11 O20 2.440355 1_554
Na11 O0 2.476722 1_545
Na11 O13 2.521904 1_455
H0 O19 1.111156 1_555
H0 O4 1.325027 1_555
H1 O18 1.111156 1_555
H1 O5 1.325027 1_555
H2 O17 1.111156 1_555
H2 O6 1.325027 1_555
H3 O16 1.111156 1_555
H3 O7 1.325027 1_555
O0 S0 1.489443 1_555
O1 S1 1.489443 1_555
O2 S2 1.489443 1_555
O3 S3 1.489443 1_555
O4 S0 1.514585 1_555
O5 S1 1.514585 1_555
O6 S2 1.514585 1_555
O7 S3 1.514585 1_555
O8 S0 1.475872 1_555
O9 S1 1.475872 1_556
O10 S2 1.475872 1_555
O11 S3 1.475872 1_554
O12 S0 1.488918 1_555
O13 S1 1.488918 1_555
O14 S2 1.488918 1_555
O15 S3 1.488918 1_555
O16 S7 1.557432 1_555
O17 S6 1.557432 1_555
O18 S5 1.557432 1_555
O19 S4 1.557432 1_555
O20 S7 1.479646 1_555
O21 S6 1.479646 1_555
O22 S5 1.479646 1_555
O23 S4 1.479646 1_555
O24 S7 1.485322 1_555
O25 S6 1.485322 1_555
O26 S5 1.485322 1_555
O27 S4 1.485322 1_555
O28 S7 1.465007 1_555
O29 S6 1.465007 1_555
O30 S5 1.465007 1_555
O31 S4 1.465007 1_555
