# generated using pymatgen
data_Na5La3Sn(PO4)6
_symmetry_space_group_name_H-M   'P 1'
_cell_length_a   9.47016507
_cell_length_b   9.47276446
_cell_length_c   23.46682153
_cell_angle_alpha   89.81094631
_cell_angle_beta   89.93316482
_cell_angle_gamma   120.08923851
_symmetry_Int_Tables_number   1
_chemical_formula_structural   Na5La3Sn(PO4)6
_chemical_formula_sum   'Na15 La9 Sn3 P18 O72'
_cell_volume   1821.47529814
_cell_formula_units_Z   3
loop_
 _symmetry_equiv_pos_site_id
 _symmetry_equiv_pos_as_xyz
  1  'x, y, z'
loop_
 _atom_site_type_symbol
 _atom_site_label
 _atom_site_symmetry_multiplicity
 _atom_site_fract_x
 _atom_site_fract_y
 _atom_site_fract_z
 _atom_site_occupancy
  Na  Na0  1  0.64284746  0.00145114  0.25895928  1
  Na  Na1  1  0.36226460  0.36351978  0.26106751  1
  Na  Na2  1  0.99475433  0.63404842  0.25891617  1
  Na  Na3  1  0.65684541  0.66006970  0.75565742  1
  Na  Na4  1  0.99837937  0.35720346  0.75597888  1
  Na  Na5  1  0.03552532  0.70040963  0.57426778  1
  Na  Na6  1  0.66419705  0.96596282  0.57377657  1
  Na  Na7  1  0.66147522  0.69675242  0.07367192  1
  Na  Na8  1  0.03774676  0.33540711  0.07299828  1
  Na  Na9  1  0.01856372  0.01688881  0.49691658  1
  Na  Na10  1  0.02111043  0.00192740  0.99681698  1
  Na  Na11  1  0.65409028  0.32097712  0.83995177  1
  Na  Na12  1  0.66764239  0.33249917  0.34761367  1
  Na  Na13  1  0.33611580  0.68330579  0.17202354  1
  Na  Na14  1  0.33475750  0.67183963  0.67214859  1
  La  La0  1  0.99431417  0.99673175  0.35609495  1
  La  La1  1  0.00214693  0.99853189  0.85480596  1
  La  La2  1  0.01696068  0.01054769  0.65235808  1
  La  La3  1  0.01263997  0.00052161  0.14575795  1
  La  La4  1  0.64788724  0.32348520  0.68647450  1
  La  La5  1  0.65792001  0.32430137  0.17841161  1
  La  La6  1  0.33272706  0.67710727  0.01031945  1
  La  La7  1  0.33200992  0.65126879  0.51380892  1
  La  La8  1  0.33347756  0.66370995  0.33140001  1
  Sn  Sn0  1  0.66270152  0.32967831  0.97773245  1
  Sn  Sn1  1  0.66133536  0.33273994  0.48473427  1
  Sn  Sn2  1  0.33297093  0.67483924  0.82430013  1
  P  P0  1  0.30340391  0.98996837  0.25196672  1
  P  P1  1  0.68958451  0.69715834  0.24532027  1
  P  P2  1  0.00856343  0.31064010  0.24570118  1
  P  P3  1  0.30294491  0.33063532  0.75726658  1
  P  P4  1  0.01664472  0.69552496  0.75064840  1
  P  P5  1  0.68249037  0.98089287  0.75152817  1
  P  P6  1  0.94678136  0.32400742  0.58411410  1
  P  P7  1  0.36637234  0.03630155  0.57774952  1
  P  P8  1  0.67963347  0.63611317  0.58350967  1
  P  P9  1  0.94910167  0.62334493  0.07798266  1
  P  P10  1  0.67912350  0.04233105  0.07809294  1
  P  P11  1  0.36875179  0.33019114  0.07651602  1
  P  P12  1  0.62325126  0.64237254  0.91763813  1
  P  P13  1  0.01793317  0.37460675  0.91827969  1
  P  P14  1  0.35831795  0.98463846  0.91640627  1
  P  P15  1  0.64665652  0.99671061  0.42243825  1
  P  P16  1  0.35001277  0.34879088  0.41581599  1
  P  P17  1  0.00376382  0.65097564  0.42260180  1
  O  O0  1  0.20995680  0.00523644  0.30249518  1
  O  O1  1  0.80627429  0.79440385  0.29395331  1
  O  O2  1  0.99107921  0.19444724  0.29454980  1
  O  O3  1  0.21670550  0.21931750  0.80756737  1
  O  O4  1  0.98102571  0.78662145  0.79716739  1
  O  O5  1  0.80475714  0.00586978  0.79864868  1
  O  O6  1  0.74704794  0.94923235  0.69451767  1
  O  O7  1  0.20260101  0.25556282  0.70199050  1
  O  O8  1  0.04259773  0.78444105  0.69250720  1
  O  O9  1  0.76447382  0.78493541  0.18755884  1
  O  O10  1  0.02423218  0.23764610  0.18818874  1
  O  O11  1  0.20983054  0.97581197  0.19602908  1
  O  O12  1  0.87317026  0.33302850  0.64173508  1
  O  O13  1  0.45578416  0.11715518  0.63323486  1
  O  O14  1  0.66490524  0.55201409  0.64131411  1
  O  O15  1  0.87675600  0.54888757  0.13702062  1
  O  O16  1  0.66995764  0.10970040  0.13710572  1
  O  O17  1  0.44130479  0.32863009  0.13536156  1
  O  O18  1  0.47596468  0.32328181  0.02721489  1
  O  O19  1  0.83044063  0.51410700  0.02975916  1
  O  O20  1  0.67928875  0.15598413  0.02935542  1
  O  O21  1  0.46085196  0.14372761  0.52548152  1
  O  O22  1  0.68447651  0.52933104  0.53347775  1
  O  O23  1  0.82897478  0.30704268  0.53437749  1
  O  O24  1  0.55210682  0.65945359  0.97424360  1
  O  O25  1  0.10625273  0.44336544  0.97501029  1
  O  O26  1  0.33953083  0.89704422  0.97281369  1
  O  O27  1  0.55242200  0.88913821  0.47408744  1
  O  O28  1  0.33589036  0.45413796  0.46262097  1
  O  O29  1  0.11005734  0.66446076  0.47440656  1
  O  O30  1  0.08454780  0.63825428  0.36607008  1
  O  O31  1  0.55610949  0.91416237  0.36570985  1
  O  O32  1  0.36138925  0.43060706  0.35685118  1
  O  O33  1  0.11797314  0.49067135  0.86639608  1
  O  O34  1  0.37309980  0.88556784  0.86496990  1
  O  O35  1  0.51178505  0.63277624  0.86538492  1
  O  O36  1  0.97739594  0.79824392  0.42145502  1
  O  O37  1  0.82118456  0.02418472  0.42217864  1
  O  O38  1  0.20300518  0.17546175  0.41914501  1
  O  O39  1  0.99105578  0.20301190  0.91007650  1
  O  O40  1  0.21385259  0.01208785  0.90957524  1
  O  O41  1  0.79652703  0.78702821  0.91063120  1
  O  O42  1  0.95995668  0.16685094  0.58189837  1
  O  O43  1  0.19064881  0.00978743  0.57754693  1
  O  O44  1  0.84358333  0.80232286  0.58101492  1
  O  O45  1  0.96073410  0.79232778  0.07239931  1
  O  O46  1  0.84287386  0.04108224  0.07311522  1
  O  O47  1  0.19255819  0.18367265  0.07115329  1
  O  O48  1  0.66211873  0.13241233  0.75007958  1
  O  O49  1  0.48236590  0.37060334  0.75312019  1
  O  O50  1  0.86911933  0.51738064  0.74904435  1
  O  O51  1  0.66262065  0.52073145  0.24728553  1
  O  O52  1  0.85639362  0.33340152  0.24735588  1
  O  O53  1  0.47899976  0.14137328  0.25147802  1
  O  O54  1  0.62847243  0.47877185  0.91751099  1
  O  O55  1  0.84843368  0.36846332  0.91863328  1
  O  O56  1  0.52219188  0.15274848  0.91677146  1
  O  O57  1  0.65445413  0.16523555  0.42535113  1
  O  O58  1  0.51267164  0.34675491  0.42297020  1
  O  O59  1  0.83480150  0.48958654  0.42642490  1
  O  O60  1  0.36032962  0.48981745  0.07483925  1
  O  O61  1  0.11576663  0.63186968  0.07469706  1
  O  O62  1  0.53705746  0.86422163  0.07507091  1
  O  O63  1  0.35230218  0.86544925  0.57615006  1
  O  O64  1  0.53744094  0.67216965  0.57855130  1
  O  O65  1  0.11455180  0.48162826  0.57846614  1
  O  O66  1  0.31804717  0.83335983  0.25596573  1
  O  O67  1  0.52107159  0.68767343  0.25280912  1
  O  O68  1  0.16451382  0.48194103  0.25289477  1
  O  O69  1  0.30619436  0.49891184  0.76323255  1
  O  O70  1  0.17389471  0.68266333  0.76234844  1
  O  O71  1  0.51441815  0.81841627  0.76237543  1
loop_
_geom_bond_atom_site_label_1
_geom_bond_atom_site_label_2
_geom_bond_distance
_geom_bond_site_symmetry_2
Na0 O53 2.501320 1_555
Na0 O67 2.598416 1_545
Na0 O31 2.633333 1_545
Na0 O66 2.663053 1_545
Na0 O52 2.769202 1_555
Na0 O2 2.981044 1_555
Na0 O16 3.001532 1_555
Na1 O32 2.339001 1_555
Na1 O51 2.482014 1_555
Na1 O68 2.628338 1_555
Na1 O67 2.663281 1_555
Na1 O53 2.834819 1_555
Na2 O52 2.483048 1_555
Na2 O68 2.646530 1_655
Na2 O30 2.649415 1_655
Na2 O66 2.673137 1_655
Na2 O51 2.781825 1_555
Na2 O1 2.982094 1_555
Na2 O15 3.033275 1_555
Na3 O49 2.389748 1_555
Na3 O71 2.474629 1_555
Na3 O4 2.852289 1_555
Na3 O35 2.866294 1_555
Na3 O14 2.889550 1_555
Na4 O50 2.385040 1_555
Na4 O69 2.531309 1_655
Na4 O70 2.674956 1_655
Na4 O48 2.810324 1_555
Na4 O7 2.853420 1_655
Na4 O33 2.861449 1_655
Na4 O12 2.895699 1_555
Na5 O44 2.453789 1_455
Na5 O29 2.519567 1_555
Na5 O65 2.533562 1_555
Na5 O43 2.537256 1_565
Na5 O63 2.596877 1_555
Na5 O8 2.880737 1_555
Na6 O64 2.417986 1_555
Na6 O42 2.482311 1_565
Na6 O27 2.523375 1_555
Na6 O63 2.610238 1_555
Na6 O44 2.820838 1_555
Na6 O23 2.941183 1_565
Na6 O6 2.965780 1_555
Na7 O62 2.404266 1_555
Na7 O45 2.505830 1_555
Na7 O24 2.507162 1_554
Na7 O60 2.524006 1_555
Na7 O46 2.823399 1_565
Na7 O9 2.827656 1_555
Na8 O46 2.453543 1_455
Na8 O25 2.463743 1_554
Na8 O47 2.516044 1_555
Na8 O61 2.520798 1_555
Na8 O60 2.644637 1_555
Na8 O10 2.836345 1_555
Na9 O38 2.445766 1_555
Na9 O43 2.521275 1_555
Na9 O37 2.590589 1_455
Na9 O36 2.606490 1_445
Na9 O42 2.666410 1_455
Na9 O44 2.713052 1_445
Na10 O47 2.422160 1_556
Na10 O45 2.500220 1_446
Na10 O46 2.611047 1_456
Na10 O40 2.710386 1_555
Na10 O39 2.893460 1_455
Na10 O41 2.907570 1_445
Na11 O56 2.308555 1_555
Na11 O54 2.446697 1_555
Na11 O55 2.486393 1_555
Na11 O49 2.790294 1_555
Na11 O48 2.793743 1_555
Na11 O50 2.885136 1_555
Na12 O58 2.343819 1_555
Na12 O57 2.374013 1_555
Na12 O59 2.409096 1_555
Na12 O53 2.890007 1_555
Na12 O52 2.950480 1_555
Na12 O51 2.963501 1_555
Na13 O66 2.488300 1_555
Na13 O67 2.568904 1_555
Na13 O68 2.596488 1_555
Na13 O62 2.903237 1_555
Na13 O61 2.967704 1_555
Na13 O60 3.010141 1_555
Na14 O69 2.618492 1_555
Na14 O70 2.638600 1_555
Na14 O71 2.639104 1_555
Na14 O63 2.851765 1_555
Na14 O64 2.914222 1_555
Na14 O65 2.949187 1_555
La0 O1 2.360788 1_555
La0 O37 2.363253 1_565
La0 O0 2.363774 1_665
La0 O36 2.364696 1_555
La0 O38 2.372724 1_665
La0 O2 2.373697 1_565
La1 O5 2.317602 1_465
La1 O40 2.331719 1_565
La1 O3 2.334528 1_565
La1 O4 2.348411 1_455
La1 O41 2.363674 1_455
La1 O39 2.380231 1_465
La2 O7 2.401131 1_555
La2 O43 2.406841 1_555
La2 O42 2.450510 1_455
La2 O8 2.458213 1_545
La2 O44 2.484006 1_445
La2 O6 2.520230 1_445
La3 O11 2.318486 1_545
La3 O10 2.411801 1_555
La3 O9 2.413516 1_445
La3 O47 2.446867 1_555
La3 O45 2.479306 1_445
La3 O46 2.501960 1_455
La4 O13 2.268653 1_555
La4 O12 2.337282 1_555
La4 O14 2.338821 1_555
La4 O48 2.397779 1_555
La4 O49 2.408883 1_555
La4 O50 2.466869 1_555
La5 O17 2.306373 1_555
La5 O15 2.307644 1_555
La5 O16 2.308728 1_555
La5 O53 2.417287 1_555
La5 O52 2.450185 1_555
La5 O51 2.452254 1_555
La6 O26 2.229925 1_554
La6 O24 2.325110 1_554
La6 O25 2.333174 1_554
La6 O62 2.404281 1_555
La6 O61 2.406906 1_555
La6 O60 2.440611 1_555
La7 O28 2.239390 1_555
La7 O29 2.357082 1_555
La7 O27 2.359808 1_555
La7 O64 2.398951 1_555
La7 O65 2.404971 1_555
La7 O63 2.433682 1_555
La8 O30 2.387821 1_555
La8 O31 2.392306 1_555
La8 O32 2.424733 1_555
La8 O66 2.440265 1_555
La8 O68 2.486829 1_555
La8 O67 2.488823 1_555
O0 P0 1.528750 1_545
O1 P1 1.536686 1_555
O2 P2 1.536695 1_655
O3 P3 1.516015 1_555
O4 P4 1.532114 1_655
O5 P5 1.532783 1_545
O6 P5 1.561464 1_555
O7 P3 1.556507 1_555
O8 P4 1.554176 1_555
O9 P1 1.559072 1_555
O10 P2 1.558913 1_555
O11 P0 1.552772 1_555
O12 P6 1.542710 1_555
O13 P7 1.535526 1_555
O14 P8 1.541160 1_555
O15 P9 1.546964 1_555
O16 P10 1.547154 1_555
O17 P11 1.546451 1_555
O18 P11 1.561432 1_555
O18 Sn0 2.089662 1_554
O19 P9 1.568100 1_555
O19 Sn0 2.074143 1_554
O20 P10 1.567595 1_555
O20 Sn0 2.108530 1_554
O21 P7 1.554610 1_555
O21 Sn1 2.073821 1_555
O22 P8 1.567800 1_555
O22 Sn1 2.104726 1_555
O23 P6 1.567566 1_555
O23 Sn1 2.080080 1_555
O24 P12 1.534039 1_555
O25 P13 1.535644 1_555
O26 P14 1.522012 1_555
O27 P15 1.543154 1_555
O28 P16 1.536511 1_555
O29 P17 1.543519 1_555
O30 P17 1.565520 1_555
O31 P15 1.567209 1_555
O32 P16 1.560703 1_555
O33 P13 1.591482 1_555
O33 Sn2 2.141789 1_555
O34 P14 1.579905 1_555
O34 Sn2 2.071906 1_555
O35 P12 1.591763 1_555
O35 Sn2 2.152613 1_555
O36 P17 1.535665 1_655
O37 P15 1.538896 1_545
O38 P16 1.532005 1_555
O39 P13 1.526875 1_655
O40 P14 1.523801 1_545
O41 P12 1.529932 1_555
O42 P6 1.556041 1_555
O43 P7 1.553502 1_555
O44 P8 1.562388 1_555
O45 P9 1.553519 1_555
O46 P10 1.560951 1_555
O47 P11 1.551091 1_555
O48 P5 1.541372 1_545
O49 P3 1.547332 1_555
O50 P4 1.561271 1_655
O51 P1 1.559476 1_555
O52 P2 1.560822 1_655
O53 P0 1.559119 1_545
O54 P12 1.575134 1_555
O54 Sn0 2.131629 1_555
O55 P13 1.576827 1_655
O55 Sn0 2.120176 1_555
O56 P14 1.570524 1_545
O56 Sn0 2.100052 1_555
O57 P15 1.562414 1_545
O57 Sn1 2.091654 1_555
O58 P16 1.559417 1_555
O58 Sn1 2.071571 1_555
O59 P17 1.565737 1_655
O59 Sn1 2.076656 1_555
O60 P11 1.553997 1_555
O61 P9 1.541270 1_455
O62 P10 1.544886 1_565
O63 P7 1.556503 1_565
O64 P8 1.550732 1_555
O65 P6 1.546221 1_455
O66 P0 1.560208 1_555
O67 P1 1.562418 1_555
O68 P2 1.562755 1_555
O69 P3 1.585503 1_555
O69 Sn2 2.118520 1_555
O70 P4 1.578149 1_555
O70 Sn2 2.122471 1_555
O71 P5 1.583404 1_555
O71 Sn2 2.133533 1_555
