# generated using pymatgen
data_Re6P13
_symmetry_space_group_name_H-M   'P 1'
_cell_length_a   9.52365919
_cell_length_b   9.52365919
_cell_length_c   9.52365881
_cell_angle_alpha   111.74815741
_cell_angle_beta   111.74815741
_cell_angle_gamma   111.74815682
_symmetry_Int_Tables_number   1
_chemical_formula_structural   Re6P13
_chemical_formula_sum   'Re12 P26'
_cell_volume   602.42495033
_cell_formula_units_Z   2
loop_
 _symmetry_equiv_pos_site_id
 _symmetry_equiv_pos_as_xyz
  1  'x, y, z'
loop_
 _atom_site_type_symbol
 _atom_site_label
 _atom_site_symmetry_multiplicity
 _atom_site_fract_x
 _atom_site_fract_y
 _atom_site_fract_z
 _atom_site_occupancy
  Re  Re0  1  0.82080100  0.91031800  0.33076600  1
  Re  Re1  1  0.91031800  0.33076600  0.82080100  1
  Re  Re2  1  0.33076600  0.82080100  0.91031800  1
  Re  Re3  1  0.17919900  0.08968200  0.66923400  1
  Re  Re4  1  0.08968200  0.66923400  0.17919900  1
  Re  Re5  1  0.66923400  0.17919900  0.08968200  1
  Re  Re6  1  0.83443700  0.73040600  0.50253900  1
  Re  Re7  1  0.73040600  0.50253900  0.83443700  1
  Re  Re8  1  0.50253900  0.83443700  0.73040600  1
  Re  Re9  1  0.16556300  0.26959400  0.49746100  1
  Re  Re10  1  0.26959400  0.49746100  0.16556300  1
  Re  Re11  1  0.49746100  0.16556300  0.26959400  1
  P  P0  1  0.36870400  0.36870400  0.36870400  1
  P  P1  1  0.63129600  0.63129600  0.63129600  1
  P  P2  1  0.96382100  0.00316800  0.19630600  1
  P  P3  1  0.00316800  0.19630600  0.96382100  1
  P  P4  1  0.19630600  0.96382100  0.00316800  1
  P  P5  1  0.03617900  0.99683200  0.80369400  1
  P  P6  1  0.99683200  0.80369400  0.03617900  1
  P  P7  1  0.80369400  0.03617900  0.99683200  1
  P  P8  1  0.37957300  0.00810500  0.79521000  1
  P  P9  1  0.00810500  0.79521000  0.37957300  1
  P  P10  1  0.79521000  0.37957300  0.00810500  1
  P  P11  1  0.62042700  0.99189500  0.20479000  1
  P  P12  1  0.99189500  0.20479000  0.62042700  1
  P  P13  1  0.20479000  0.62042700  0.99189500  1
  P  P14  1  0.40324700  0.22622800  0.61239400  1
  P  P15  1  0.22622800  0.61239500  0.40324700  1
  P  P16  1  0.61239500  0.40324700  0.22622800  1
  P  P17  1  0.59675300  0.77377200  0.38760500  1
  P  P18  1  0.77377200  0.38760600  0.59675300  1
  P  P19  1  0.38760500  0.59675300  0.77377200  1
  P  P20  1  0.60356800  0.61150400  0.00003200  1
  P  P21  1  0.61150400  0.00003200  0.60356800  1
  P  P22  1  0.00003200  0.60356800  0.61150400  1
  P  P23  1  0.39643200  0.38849600  0.99996800  1
  P  P24  1  0.38849600  0.99996800  0.39643200  1
  P  P25  1  0.99996800  0.39643200  0.38849600  1
loop_
_geom_bond_atom_site_label_1
_geom_bond_atom_site_label_2
_geom_bond_distance
_geom_bond_site_symmetry_2
P0 P1 2.204193 1_555
P0 Re10 2.720287 1_555
P0 Re9 2.720287 1_555
P0 Re11 2.720287 1_555
P1 Re7 2.720287 1_555
P1 Re6 2.720287 1_555
P1 Re8 2.720287 1_555
P2 P7 2.164344 1_554
P2 P6 2.164344 1_545
P2 Re9 2.294857 1_655
P2 Re0 2.348643 1_545
P3 P5 2.164344 1_545
P3 P7 2.164344 1_455
P3 Re10 2.294858 1_556
P3 Re1 2.348643 1_455
P4 P5 2.164344 1_554
P4 P6 2.164344 1_455
P4 Re11 2.294857 1_565
P4 Re2 2.348643 1_554
P5 Re6 2.294857 1_455
P5 Re3 2.348643 1_565
P6 Re7 2.294858 1_554
P6 Re4 2.348643 1_655
P7 Re8 2.294857 1_545
P7 Re5 2.348643 1_556
P8 Re5 2.383167 1_556
P8 Re8 2.387977 1_545
P8 Re3 2.403614 1_555
P8 Re2 2.410837 1_545
P9 Re3 2.383167 1_565
P9 Re6 2.387977 1_455
P9 Re4 2.403614 1_555
P9 Re0 2.410837 1_455
P10 Re4 2.383167 1_655
P10 Re7 2.387977 1_554
P10 Re5 2.403614 1_555
P10 Re1 2.410837 1_554
P11 Re2 2.383167 1_554
P11 Re11 2.387977 1_565
P11 Re0 2.403614 1_555
P11 Re5 2.410837 1_565
P12 Re0 2.383167 1_545
P12 Re9 2.387977 1_655
P12 Re1 2.403614 1_555
P12 Re3 2.410837 1_655
P13 Re1 2.383167 1_455
P13 Re10 2.387977 1_556
P13 Re2 2.403614 1_555
P13 Re4 2.410837 1_556
P14 P24 2.273864 1_545
P14 Re9 2.384186 1_555
P14 Re3 2.420413 1_555
P14 Re7 2.453994 1_555
P15 P25 2.273869 1_455
P15 Re10 2.384187 1_555
P15 Re4 2.420406 1_555
P15 Re8 2.453994 1_555
P16 P23 2.273869 1_554
P16 Re11 2.384187 1_555
P16 Re5 2.420406 1_555
P16 Re6 2.453994 1_555
P17 P21 2.273869 1_565
P17 Re6 2.384187 1_555
P17 Re0 2.420406 1_555
P17 Re10 2.453994 1_555
P18 P22 2.273864 1_655
P18 Re7 2.384186 1_555
P18 Re1 2.420413 1_555
P18 Re11 2.453994 1_555
P19 P20 2.273869 1_556
P19 Re8 2.384187 1_555
P19 Re2 2.420406 1_555
P19 Re9 2.453994 1_555
P20 P23 2.301219 1_554
P20 Re7 2.480146 1_554
P20 Re0 2.542698 1_555
P21 P24 2.301219 1_545
P21 Re8 2.480146 1_545
P21 Re1 2.542698 1_555
P22 P25 2.301219 1_455
P22 Re6 2.480146 1_455
P22 Re2 2.542698 1_555
P23 Re10 2.480146 1_556
P23 Re3 2.542698 1_555
P24 Re11 2.480146 1_565
P24 Re4 2.542698 1_555
P25 Re9 2.480146 1_655
P25 Re5 2.542698 1_555
