# generated using pymatgen
data_Na4NbAl3Si3(SO8)3
_symmetry_space_group_name_H-M   'P 1'
_cell_length_a   8.70920830
_cell_length_b   8.71247395
_cell_length_c   22.06214321
_cell_angle_alpha   89.65318998
_cell_angle_beta   90.38544636
_cell_angle_gamma   119.81985515
_symmetry_Int_Tables_number   1
_chemical_formula_structural   Na4NbAl3Si3(SO8)3
_chemical_formula_sum   'Na12 Nb3 Al9 Si9 S9 O72'
_cell_volume   1452.35256925
_cell_formula_units_Z   3
loop_
 _symmetry_equiv_pos_site_id
 _symmetry_equiv_pos_as_xyz
  1  'x, y, z'
loop_
 _atom_site_type_symbol
 _atom_site_label
 _atom_site_symmetry_multiplicity
 _atom_site_fract_x
 _atom_site_fract_y
 _atom_site_fract_z
 _atom_site_occupancy
  Na  Na0  1  0.63830736  0.99988605  0.25151148  1
  Na  Na1  1  0.36227581  0.36259247  0.25120950  1
  Na  Na2  1  0.99965245  0.63660206  0.25187869  1
  Na  Na3  1  0.30385160  0.33627599  0.58591961  1
  Na  Na4  1  0.66909135  0.97100041  0.58602757  1
  Na  Na5  1  0.29602584  0.96411856  0.08469950  1
  Na  Na6  1  0.00106865  0.98826223  0.50116384  1
  Na  Na7  1  0.98860324  0.00113230  0.99279283  1
  Na  Na8  1  0.66743684  0.33408705  0.82606419  1
  Na  Na9  1  0.66798127  0.33384808  0.33033596  1
  Na  Na10  1  0.33445071  0.65506644  0.16931331  1
  Na  Na11  1  0.32026017  0.66790476  0.66136191  1
  Nb  Nb0  1  0.66891340  0.33421897  0.97194831  1
  Nb  Nb1  1  0.66686900  0.33436205  0.48361254  1
  Nb  Nb2  1  0.33268507  0.66684726  0.81400366  1
  Al  Al0  1  0.99991140  0.99922538  0.34055417  1
  Al  Al1  1  0.00005775  0.99897222  0.85914367  1
  Al  Al2  1  0.00114649  0.99646434  0.64121327  1
  Al  Al3  1  0.99522684  0.00158919  0.16134815  1
  Al  Al4  1  0.66616778  0.33187772  0.67665219  1
  Al  Al5  1  0.66776182  0.33562719  0.19319659  1
  Al  Al6  1  0.33479431  0.66207940  0.01022885  1
  Al  Al7  1  0.32888730  0.66738642  0.52499007  1
  Al  Al8  1  0.33303882  0.66684021  0.30793604  1
  Si  Si0  1  0.28796145  0.00060485  0.24909115  1
  Si  Si1  1  0.71177034  0.71177365  0.25089645  1
  Si  Si2  1  0.00036795  0.28791793  0.25064429  1
  Si  Si3  1  0.96348404  0.33985421  0.58876183  1
  Si  Si4  1  0.37131028  0.03544690  0.58770088  1
  Si  Si5  1  0.66775402  0.62747296  0.58738582  1
  Si  Si6  1  0.62761898  0.68363846  0.91888432  1
  Si  Si7  1  0.05568545  0.37222675  0.91855811  1
  Si  Si8  1  0.31775305  0.94397994  0.92033966  1
  S  S0  1  0.28600170  0.27788788  0.74874132  1
  S  S1  1  0.99128398  0.71597094  0.74856186  1
  S  S2  1  0.72161344  0.00798883  0.74876855  1
  S  S3  1  0.95671828  0.62415631  0.08619390  1
  S  S4  1  0.67148118  0.04133972  0.08638728  1
  S  S5  1  0.37444331  0.33732487  0.08544816  1
  S  S6  1  0.62090970  0.94636332  0.41530517  1
  S  S7  1  0.32511519  0.37872803  0.41518988  1
  S  S8  1  0.05558278  0.67432725  0.41524960  1
  O  O0  1  0.20539167  0.05205796  0.30612945  1
  O  O1  1  0.84511217  0.79094420  0.30877657  1
  O  O2  1  0.94605981  0.15470835  0.30865193  1
  O  O3  1  0.19780904  0.17541248  0.80306454  1
  O  O4  1  0.97806944  0.80122690  0.80378083  1
  O  O5  1  0.82463091  0.02101480  0.80303879  1
  O  O6  1  0.80157530  0.98437988  0.69309014  1
  O  O7  1  0.18132218  0.19766303  0.69292037  1
  O  O8  1  0.01585168  0.82474950  0.69401622  1
  O  O9  1  0.79058561  0.84296866  0.19243350  1
  O  O10  1  0.05447952  0.21028179  0.19246982  1
  O  O11  1  0.16279133  0.95210747  0.18773687  1
  O  O12  1  0.87071172  0.37665728  0.64466746  1
  O  O13  1  0.50969762  0.12495320  0.64298766  1
  O  O14  1  0.61302275  0.48657265  0.64211603  1
  O  O15  1  0.86827230  0.51589312  0.14066887  1
  O  O16  1  0.64275057  0.12885288  0.13982830  1
  O  O17  1  0.48243223  0.35696363  0.14052737  1
  O  O18  1  0.46392229  0.31053339  0.03185785  1
  O  O19  1  0.84921066  0.53456350  0.03133509  1
  O  O20  1  0.68965351  0.14949958  0.03119255  1
  O  O21  1  0.46368894  0.17337183  0.52677628  1
  O  O22  1  0.70672169  0.53570369  0.52603240  1
  O  O23  1  0.82712562  0.29054929  0.52742514  1
  O  O24  1  0.53765661  0.70808030  0.97788732  1
  O  O25  1  0.16879028  0.46396987  0.97789791  1
  O  O26  1  0.29703535  0.83606713  0.98235951  1
  O  O27  1  0.53391036  0.84620269  0.47119505  1
  O  O28  1  0.31335872  0.46557462  0.47109539  1
  O  O29  1  0.15986280  0.68683918  0.47003845  1
  O  O30  1  0.13661524  0.65112924  0.35981918  1
  O  O31  1  0.51284683  0.86204603  0.36057336  1
  O  O32  1  0.34767832  0.48693217  0.36061021  1
  O  O33  1  0.13366522  0.50213037  0.85755807  1
  O  O34  1  0.36769617  0.86283531  0.86013238  1
  O  O35  1  0.49724978  0.63067524  0.85778750  1
  O  O36  1  0.03646209  0.83367205  0.41229189  1
  O  O37  1  0.79897976  0.96518863  0.41223230  1
  O  O38  1  0.16704751  0.20041368  0.41179663  1
  O  O39  1  0.02464890  0.18141032  0.90522705  1
  O  O40  1  0.15689142  0.97377854  0.90642798  1
  O  O41  1  0.81828205  0.84260656  0.90546577  1
  O  O42  1  0.97861231  0.16185949  0.59487642  1
  O  O43  1  0.18498901  0.02953391  0.59319346  1
  O  O44  1  0.83534791  0.82222246  0.59368149  1
  O  O45  1  0.97416533  0.80264795  0.08767514  1
  O  O46  1  0.83287494  0.02722745  0.09036657  1
  O  O47  1  0.19897108  0.17287296  0.08797253  1
  O  O48  1  0.69951579  0.16656289  0.74586837  1
  O  O49  1  0.46593929  0.29864282  0.74557904  1
  O  O50  1  0.83348610  0.53668420  0.74468038  1
  O  O51  1  0.68677949  0.51482678  0.24000388  1
  O  O52  1  0.82787093  0.31261353  0.23933382  1
  O  O53  1  0.48495464  0.17204382  0.23871621  1
  O  O54  1  0.64025890  0.49920062  0.92559404  1
  O  O55  1  0.85859233  0.35943942  0.92478160  1
  O  O56  1  0.50088542  0.14104560  0.92613855  1
  O  O57  1  0.63680307  0.12831198  0.41784945  1
  O  O58  1  0.49110332  0.36210991  0.41754315  1
  O  O59  1  0.87399988  0.50960466  0.41867813  1
  O  O60  1  0.35935877  0.49858232  0.07956380  1
  O  O61  1  0.13651925  0.64267389  0.08280601  1
  O  O62  1  0.50645873  0.86513532  0.08183648  1
  O  O63  1  0.36336836  0.85174500  0.57245100  1
  O  O64  1  0.49451777  0.64449283  0.57121438  1
  O  O65  1  0.15613416  0.50295565  0.57334406  1
  O  O66  1  0.31230947  0.82817013  0.25998948  1
  O  O67  1  0.51426062  0.68606834  0.26101756  1
  O  O68  1  0.17132676  0.48538453  0.26091278  1
  O  O69  1  0.30420050  0.46101030  0.75101602  1
  O  O70  1  0.15657304  0.69740076  0.75084198  1
  O  O71  1  0.53833741  0.84387890  0.75133914  1
loop_
_geom_bond_atom_site_label_1
_geom_bond_atom_site_label_2
_geom_bond_distance
_geom_bond_site_symmetry_2
Na0 O52 2.396836 1_565
Na0 O67 2.396871 1_555
Na0 O53 2.468881 1_565
Na0 O66 2.472542 1_555
Na0 O2 2.640464 1_565
Na0 O31 2.668516 1_555
Na0 O9 2.678587 1_555
Na0 O16 2.694382 1_565
Na1 O68 2.394361 1_555
Na1 O53 2.397336 1_555
Na1 O67 2.456623 1_555
Na1 O51 2.466766 1_555
Na1 O0 2.638355 1_555
Na1 O10 2.657541 1_555
Na1 O17 2.673420 1_555
Na1 O32 2.681045 1_555
Na2 O66 2.389447 1_655
Na2 O51 2.395360 1_555
Na2 O68 2.441893 1_655
Na2 O52 2.467100 1_555
Na2 O30 2.631581 1_655
Na2 O1 2.653046 1_555
Na2 O15 2.689187 1_555
Na2 O11 2.770016 1_655
Na3 O43 2.342034 1_555
Na3 O64 2.373935 1_555
Na3 O65 2.385227 1_555
Na3 O42 2.468744 1_455
Na3 O7 2.624431 1_555
Na3 O14 2.640108 1_555
Na3 O28 2.751153 1_555
Na3 O21 2.768870 1_555
Na4 O63 2.345286 1_555
Na4 O42 2.368260 1_565
Na4 O44 2.380341 1_555
Na4 O64 2.492740 1_555
Na4 O6 2.599422 1_555
Na4 O13 2.683489 1_565
Na4 O23 2.736115 1_565
Na4 O27 2.776107 1_555
Na5 O47 2.357751 1_565
Na5 O62 2.383404 1_555
Na5 O61 2.430255 1_555
Na5 O45 2.433193 1_455
Na5 O26 2.526479 1_554
Na5 O11 2.537085 1_555
Na5 O18 2.863129 1_565
Na5 O16 2.884289 1_565
Na6 O36 2.491271 1_555
Na6 O43 2.491930 1_565
Na6 O44 2.503882 1_455
Na6 O37 2.567895 1_455
Na6 O38 2.594279 1_565
Na6 O42 2.633977 1_465
Na7 O41 2.403330 1_545
Na7 O39 2.403909 1_655
Na7 O40 2.495182 1_645
Na7 O46 2.622421 1_556
Na7 O45 2.670514 1_546
Na7 O47 2.695340 1_656
Na8 O49 2.398697 1_555
Na8 O48 2.404620 1_555
Na8 O50 2.426663 1_555
Na8 O55 2.674889 1_555
Na8 O54 2.707590 1_555
Na8 O56 2.716464 1_555
Na9 O51 2.488845 1_555
Na9 O52 2.510481 1_555
Na9 O53 2.523933 1_555
Na9 O57 2.547504 1_555
Na9 O58 2.560901 1_555
Na9 O59 2.572817 1_555
Na10 O60 2.481750 1_555
Na10 O67 2.482325 1_555
Na10 O68 2.490272 1_555
Na10 O61 2.529599 1_555
Na10 O62 2.566671 1_555
Na10 O66 2.577737 1_555
Na11 O65 2.415108 1_555
Na11 O63 2.434739 1_555
Na11 O70 2.530583 1_555
Na11 O64 2.579490 1_555
Na11 O69 2.625061 1_555
Na11 O71 2.643583 1_555
Nb0 O54 1.873442 1_555
Nb0 O55 1.876014 1_555
Nb0 O56 1.883269 1_555
Nb0 O19 2.122060 1_556
Nb0 O20 2.142788 1_556
Nb0 O18 2.153818 1_556
Nb1 O22 1.866402 1_555
Nb1 O23 1.880231 1_555
Nb1 O21 1.882418 1_555
Nb1 O58 2.204584 1_555
Nb1 O59 2.215106 1_555
Nb1 O57 2.226044 1_555
Nb2 O35 1.874421 1_555
Nb2 O33 1.875898 1_555
Nb2 O34 1.882397 1_555
Nb2 O70 2.176695 1_555
Nb2 O71 2.181344 1_555
Nb2 O69 2.189021 1_555
Al0 O2 1.779406 1_565
Al0 O1 1.780896 1_555
Al0 O0 1.784953 1_665
Al0 O36 2.260293 1_655
Al0 O38 2.264230 1_665
Al0 O37 2.272987 1_555
Al1 O41 1.807365 1_455
Al1 O40 1.810619 1_555
Al1 O39 1.812204 1_565
Al1 O5 2.041266 1_465
Al1 O4 2.047184 1_455
Al1 O3 2.057315 1_565
Al2 O44 1.818812 1_455
Al2 O43 1.824639 1_565
Al2 O42 1.849542 1_465
Al2 O8 1.944004 1_555
Al2 O7 2.025074 1_565
Al2 O6 2.045806 1_455
Al3 O9 1.764088 1_545
Al3 O10 1.766597 1_655
Al3 O11 1.807140 1_645
Al3 O46 2.186695 1_555
Al3 O47 2.317769 1_655
Al3 O45 2.322422 1_545
Al4 O12 1.773686 1_555
Al4 O14 1.792910 1_555
Al4 O13 1.793893 1_555
Al4 O48 2.207751 1_555
Al4 O49 2.228318 1_555
Al4 O50 2.230908 1_555
Al5 O52 1.810307 1_555
Al5 O51 1.814233 1_555
Al5 O53 1.822646 1_555
Al5 O15 2.033879 1_555
Al5 O17 2.064119 1_555
Al5 O16 2.076335 1_555
Al6 O25 1.759938 1_554
Al6 O24 1.760820 1_554
Al6 O26 1.807154 1_554
Al6 O60 2.164967 1_555
Al6 O62 2.287432 1_555
Al6 O61 2.306061 1_555
Al7 O63 1.817395 1_555
Al7 O65 1.820294 1_555
Al7 O64 1.850548 1_555
Al7 O29 1.971582 1_555
Al7 O27 2.064829 1_555
Al7 O28 2.076123 1_555
Al8 O68 1.828914 1_555
Al8 O67 1.829614 1_555
Al8 O66 1.832761 1_555
Al8 O32 1.999584 1_555
Al8 O31 2.010976 1_555
Al8 O30 2.011717 1_555
O0 Si0 1.625190 1_555
O1 Si1 1.627598 1_555
O2 Si2 1.628714 1_655
O3 S0 1.463167 1_555
O4 S1 1.465256 1_555
O5 S2 1.461966 1_555
O6 S2 1.480963 1_565
O7 S0 1.482540 1_555
O8 S1 1.476520 1_455
O9 Si1 1.629438 1_555
O10 Si2 1.631731 1_555
O11 Si0 1.651708 1_565
O12 Si3 1.597737 1_555
O13 Si4 1.614155 1_555
O14 Si5 1.612452 1_555
O15 S3 1.484447 1_555
O16 S4 1.496209 1_555
O17 S5 1.489139 1_555
O18 S5 1.502099 1_555
O19 S3 1.490005 1_555
O20 S4 1.495411 1_555
O21 Si4 1.712147 1_555
O22 Si5 1.695814 1_555
O23 Si3 1.704146 1_555
O24 Si6 1.592716 1_555
O25 Si7 1.592288 1_555
O26 Si8 1.614856 1_555
O27 S6 1.482557 1_555
O28 S7 1.481321 1_555
O29 S8 1.478569 1_555
O30 S8 1.480163 1_555
O31 S6 1.480306 1_555
O32 S7 1.477332 1_555
O33 Si7 1.668151 1_555
O34 Si8 1.666841 1_555
O35 Si6 1.668791 1_555
O36 S8 1.479194 1_555
O37 S6 1.478152 1_555
O38 S7 1.478946 1_555
O39 Si7 1.575227 1_555
O40 Si8 1.574589 1_555
O41 Si6 1.574031 1_555
O42 Si3 1.625083 1_555
O43 Si4 1.603109 1_555
O44 Si5 1.601794 1_555
O45 S3 1.485948 1_555
O46 S4 1.472637 1_555
O47 S5 1.487931 1_555
O48 S2 1.487641 1_555
O49 S0 1.487581 1_555
O50 S1 1.483579 1_555
O51 Si1 1.637765 1_555
O52 Si2 1.637463 1_655
O53 Si0 1.636884 1_555
O54 Si6 1.670037 1_555
O55 Si7 1.670483 1_655
O56 Si8 1.668678 1_545
O57 S6 1.522494 1_545
O58 S7 1.523336 1_555
O59 S8 1.519667 1_655
O60 S5 1.479572 1_555
O61 S3 1.494625 1_455
O62 S4 1.495997 1_565
O63 Si4 1.604892 1_565
O64 Si5 1.624878 1_555
O65 Si3 1.606456 1_455
O66 Si0 1.634491 1_565
O67 Si1 1.637182 1_555
O68 Si2 1.637261 1_555
O69 S0 1.523964 1_555
O70 S1 1.526937 1_455
O71 S2 1.525062 1_565
