# generated using pymatgen
data_K2Na2Eu2MgNb2O10
_symmetry_space_group_name_H-M   'P 1'
_cell_length_a   5.68395354
_cell_length_b   5.68395354
_cell_length_c   9.43779740
_cell_angle_alpha   90.00000000
_cell_angle_beta   90.00000000
_cell_angle_gamma   90.00000000
_symmetry_Int_Tables_number   1
_chemical_formula_structural   K2Na2Eu2MgNb2O10
_chemical_formula_sum   'K2 Na2 Eu2 Mg1 Nb2 O10'
_cell_volume   304.91001474
_cell_formula_units_Z   1
loop_
 _symmetry_equiv_pos_site_id
 _symmetry_equiv_pos_as_xyz
  1  'x, y, z'
loop_
 _atom_site_type_symbol
 _atom_site_label
 _atom_site_symmetry_multiplicity
 _atom_site_fract_x
 _atom_site_fract_y
 _atom_site_fract_z
 _atom_site_occupancy
  K  K0  1  0.25000000  0.75000000  0.97045079  1
  K  K1  1  0.75000000  0.25000000  0.97045079  1
  Na  Na0  1  0.75000000  0.75000000  0.15988858  1
  Na  Na1  1  0.25000000  0.25000000  0.74601723  1
  Eu  Eu0  1  0.75000000  0.25000000  0.52597265  1
  Eu  Eu1  1  0.25000000  0.75000000  0.52597265  1
  Mg  Mg0  1  0.75000000  0.75000000  0.40055427  1
  Nb  Nb0  1  0.25000000  0.25000000  0.28683327  1
  Nb  Nb1  1  0.75000000  0.75000000  0.73673522  1
  O  O0  1  0.75000000  0.75000000  0.94048831  1
  O  O1  1  0.25000000  0.25000000  0.08759428  1
  O  O2  1  0.98494221  0.98494221  0.67757919  1
  O  O3  1  0.51505779  0.51505779  0.67757919  1
  O  O4  1  0.49383852  0.49383852  0.34600930  1
  O  O5  1  0.98494221  0.51505779  0.67757919  1
  O  O6  1  0.51505779  0.98494221  0.67757919  1
  O  O7  1  0.00616148  0.49383852  0.34600930  1
  O  O8  1  0.00616148  0.00616148  0.34600930  1
  O  O9  1  0.49383852  0.00616148  0.34600930  1
loop_
_geom_bond_atom_site_label_1
_geom_bond_atom_site_label_2
_geom_bond_distance
_geom_bond_site_symmetry_2
K0 O0 2.856011 1_555
K0 O0 2.856011 1_455
K0 O1 3.049448 1_566
K0 O1 3.049448 1_556
K1 O0 2.856011 1_555
K1 O0 2.856011 1_545
K1 O1 3.049448 1_656
K1 O1 3.049448 1_556
Na0 O0 2.070655 1_554
Na0 O8 2.706560 1_665
Na0 O9 2.706560 1_565
Na0 O4 2.706560 1_555
Na0 O7 2.706560 1_655
Na1 O2 2.226373 1_445
Na1 O3 2.226373 1_555
Na1 O6 2.226373 1_545
Na1 O5 2.226373 1_455
Eu0 O5 2.469888 1_555
Eu0 O3 2.469888 1_555
Eu0 O2 2.469888 1_545
Eu0 O6 2.469888 1_545
Eu0 O9 2.631659 1_555
Eu0 O7 2.631659 1_655
Eu0 O8 2.631659 1_655
Eu0 O4 2.631659 1_555
Eu1 O6 2.469888 1_555
Eu1 O3 2.469888 1_555
Eu1 O5 2.469888 1_455
Eu1 O2 2.469888 1_455
Eu1 O9 2.631659 1_565
Eu1 O8 2.631659 1_565
Eu1 O7 2.631659 1_555
Eu1 O4 2.631659 1_555
Mg0 O8 2.122483 1_665
Mg0 O7 2.122483 1_655
Mg0 O4 2.122483 1_555
Mg0 O9 2.122483 1_565
Nb0 O1 1.880377 1_555
Nb0 O9 2.038068 1_555
Nb0 O7 2.038068 1_555
Nb0 O4 2.038068 1_555
Nb0 O8 2.038068 1_555
Nb1 O0 1.922980 1_555
Nb1 O2 1.969338 1_555
Nb1 O5 1.969338 1_555
Nb1 O6 1.969338 1_555
Nb1 O3 1.969338 1_555
