# generated using pymatgen
data_La2Al2I
_symmetry_space_group_name_H-M   'P 1'
_cell_length_a   4.39632039
_cell_length_b   4.39631924
_cell_length_c   17.78227420
_cell_angle_alpha   90.00000000
_cell_angle_beta   90.00000000
_cell_angle_gamma   119.99999313
_symmetry_Int_Tables_number   1
_chemical_formula_structural   La2Al2I
_chemical_formula_sum   'La4 Al4 I2'
_cell_volume   297.64358055
_cell_formula_units_Z   2
loop_
 _symmetry_equiv_pos_site_id
 _symmetry_equiv_pos_as_xyz
  1  'x, y, z'
loop_
 _atom_site_type_symbol
 _atom_site_label
 _atom_site_symmetry_multiplicity
 _atom_site_fract_x
 _atom_site_fract_y
 _atom_site_fract_z
 _atom_site_occupancy
  La  La0  1  -0.00000000  0.00000000  0.38175405  1
  La  La1  1  0.00000000  0.00000000  0.88175405  1
  La  La2  1  0.00000000  0.00000000  0.61824595  1
  La  La3  1  -0.00000000  0.00000000  0.11824595  1
  Al  Al0  1  0.66666700  0.33333300  0.49339114  1
  Al  Al1  1  0.33333300  0.66666700  0.99339114  1
  Al  Al2  1  0.33333300  0.66666700  0.50660886  1
  Al  Al3  1  0.66666700  0.33333300  0.00660886  1
  I  I0  1  0.33333300  0.66666700  0.25000000  1
  I  I1  1  0.66666700  0.33333300  0.75000000  1
loop_
_geom_bond_atom_site_label_1
_geom_bond_atom_site_label_2
_geom_bond_distance
_geom_bond_site_symmetry_2
Al0 Al2 2.549073 1_545
Al0 Al2 2.549074 1_655
Al0 Al2 2.549081 1_555
Al0 La0 3.222328 1_655
Al0 La0 3.222330 1_665
Al0 La0 3.222331 1_555
Al0 La2 3.372214 1_655
Al0 La2 3.372217 1_665
Al0 La2 3.372217 1_555
Al1 Al3 2.549073 1_566
Al1 Al3 2.549074 1_456
Al1 Al3 2.549081 1_556
Al1 La1 3.222328 1_565
Al1 La1 3.222330 1_555
Al1 La1 3.222331 1_665
Al1 La3 3.372214 1_566
Al1 La3 3.372217 1_556
Al1 La3 3.372217 1_666
Al2 La2 3.222328 1_565
Al2 La2 3.222330 1_555
Al2 La2 3.222331 1_665
Al2 La0 3.372214 1_565
Al2 La0 3.372217 1_555
Al2 La0 3.372217 1_665
Al3 La3 3.222328 1_655
Al3 La3 3.222330 1_665
Al3 La3 3.222331 1_555
Al3 La1 3.372214 1_654
Al3 La1 3.372217 1_664
Al3 La1 3.372217 1_554
I0 La3 3.454222 1_565
I0 La0 3.454222 1_565
I0 La3 3.454224 1_555
I0 La0 3.454224 1_555
I0 La0 3.454225 1_665
I0 La3 3.454225 1_665
I1 La2 3.454222 1_655
I1 La1 3.454222 1_655
I1 La2 3.454224 1_665
I1 La1 3.454224 1_665
I1 La2 3.454225 1_555
I1 La1 3.454225 1_555
