# generated using pymatgen
data_Na8Al2Si5Sn2SO24
_symmetry_space_group_name_H-M   'P 1'
_cell_length_a   8.98211481
_cell_length_b   8.96303080
_cell_length_c   21.99259609
_cell_angle_alpha   90.00049871
_cell_angle_beta   89.43395973
_cell_angle_gamma   119.87672468
_symmetry_Int_Tables_number   1
_chemical_formula_structural   Na8Al2Si5Sn2SO24
_chemical_formula_sum   'Na24 Al6 Si15 Sn6 S3 O72'
_cell_volume   1535.14923158
_cell_formula_units_Z   3
loop_
 _symmetry_equiv_pos_site_id
 _symmetry_equiv_pos_as_xyz
  1  'x, y, z'
loop_
 _atom_site_type_symbol
 _atom_site_label
 _atom_site_symmetry_multiplicity
 _atom_site_fract_x
 _atom_site_fract_y
 _atom_site_fract_z
 _atom_site_occupancy
  Na  Na0  1  0.63680539  0.00067713  0.25286624  1
  Na  Na1  1  0.36294007  0.36373023  0.24689896  1
  Na  Na2  1  0.99995704  0.63491395  0.25000056  1
  Na  Na3  1  0.63458735  0.63594200  0.74688822  1
  Na  Na4  1  0.00064609  0.36656280  0.74999726  1
  Na  Na5  1  0.36638658  0.00112034  0.75009624  1
  Na  Na6  1  0.30251311  0.33780222  0.58507828  1
  Na  Na7  1  0.03583320  0.69950240  0.58265905  1
  Na  Na8  1  0.66539838  0.96480899  0.58268632  1
  Na  Na9  1  0.28785179  0.96433158  0.08193947  1
  Na  Na10  1  0.66732005  0.69266237  0.08690155  1
  Na  Na11  1  0.04188019  0.33661478  0.08710725  1
  Na  Na12  1  0.97379972  0.66681435  0.91632473  1
  Na  Na13  1  0.70133781  0.04161320  0.91117100  1
  Na  Na14  1  0.32305146  0.28670023  0.91850221  1
  Na  Na15  1  0.96122481  0.29524455  0.41208496  1
  Na  Na16  1  0.32954240  0.02314826  0.41517820  1
  Na  Na17  1  0.71348630  0.67950198  0.41718925  1
  Na  Na18  1  0.99350649  0.99245596  0.49932067  1
  Na  Na19  1  0.01429362  0.00539653  0.00028132  1
  Na  Na20  1  0.66687518  0.32600718  0.83398020  1
  Na  Na21  1  0.67407292  0.33250530  0.33191958  1
  Na  Na22  1  0.32597663  0.65810065  0.16555867  1
  Na  Na23  1  0.33380795  0.66700351  0.66394913  1
  Al  Al0  1  0.98749294  0.98586835  0.34838022  1
  Al  Al1  1  0.01419965  0.01223590  0.85023816  1
  Al  Al2  1  0.01353746  0.99914274  0.15129914  1
  Al  Al3  1  0.66361708  0.33256326  0.98263872  1
  Al  Al4  1  0.29654985  0.64342896  0.01748825  1
  Al  Al5  1  0.33810544  0.68592301  0.52262860  1
  Si  Si0  1  0.28262585  0.00242047  0.25054071  1
  Si  Si1  1  0.71770956  0.71990317  0.24907507  1
  Si  Si2  1  0.99957556  0.27717590  0.24977187  1
  Si  Si3  1  0.29165609  0.29174262  0.75238112  1
  Si  Si4  1  0.99753321  0.71455594  0.75364075  1
  Si  Si5  1  0.71344834  0.99864710  0.75442462  1
  Si  Si6  1  0.97258650  0.33978892  0.58224367  1
  Si  Si7  1  0.37297603  0.03854436  0.58265013  1
  Si  Si8  1  0.65934375  0.62828181  0.58154448  1
  Si  Si9  1  0.95666715  0.62815492  0.08002627  1
  Si  Si10  1  0.37202113  0.33697283  0.07960266  1
  Si  Si11  1  0.03008870  0.36336078  0.91927114  1
  Si  Si12  1  0.33581860  0.96255729  0.92144318  1
  Si  Si13  1  0.62826171  0.95597415  0.41802363  1
  Si  Si14  1  0.04421408  0.67275775  0.41880661  1
  Sn  Sn0  1  0.99967456  0.00068041  0.64840709  1
  Sn  Sn1  1  0.66965732  0.33523701  0.68625902  1
  Sn  Sn2  1  0.66888644  0.34350888  0.18632712  1
  Sn  Sn3  1  0.67582778  0.33223161  0.48394658  1
  Sn  Sn4  1  0.32963639  0.67255054  0.31224008  1
  Sn  Sn5  1  0.32421103  0.67045162  0.81578563  1
  S  S0  1  0.66563117  0.04000838  0.08091207  1
  S  S1  1  0.62419604  0.66572636  0.91950657  1
  S  S2  1  0.33144676  0.37429161  0.41759627  1
  O  O0  1  0.19768430  0.03599036  0.31084277  1
  O  O1  1  0.83067694  0.79727205  0.30978436  1
  O  O2  1  0.97070070  0.16377838  0.31110860  1
  O  O3  1  0.20424860  0.16880526  0.81085288  1
  O  O4  1  0.96729938  0.80689419  0.81205595  1
  O  O5  1  0.83694036  0.02904425  0.81181029  1
  O  O6  1  0.78147854  0.95691588  0.69063665  1
  O  O7  1  0.17657208  0.22208207  0.69061185  1
  O  O8  1  0.04069368  0.82603086  0.69046955  1
  O  O9  1  0.80304731  0.83859886  0.18873062  1
  O  O10  1  0.02913677  0.19237329  0.18861646  1
  O  O11  1  0.16953011  0.96657392  0.18978697  1
  O  O12  1  0.89167195  0.38426183  0.64248471  1
  O  O13  1  0.49598537  0.11793688  0.64241383  1
  O  O14  1  0.61876065  0.50634867  0.64240454  1
  O  O15  1  0.88687409  0.50255405  0.14158666  1
  O  O16  1  0.62904589  0.11066487  0.13769973  1
  O  O17  1  0.49068609  0.37897829  0.14200211  1
  O  O18  1  0.47039504  0.30050457  0.02388794  1
  O  O19  1  0.82745891  0.52919215  0.02373568  1
  O  O20  1  0.69378951  0.15446880  0.02834989  1
  O  O21  1  0.45020779  0.16453593  0.52245272  1
  O  O22  1  0.70506040  0.54785886  0.52177942  1
  O  O23  1  0.84574565  0.28533246  0.52327121  1
  O  O24  1  0.53815422  0.69333087  0.97209478  1
  O  O25  1  0.16286693  0.45473671  0.97493843  1
  O  O26  1  0.30729785  0.82884297  0.97711485  1
  O  O27  1  0.53218748  0.82928176  0.47549772  1
  O  O28  1  0.30792811  0.45977818  0.47142354  1
  O  O29  1  0.16861218  0.69882844  0.47580391  1
  O  O30  1  0.11348507  0.61747337  0.35729122  1
  O  O31  1  0.50944885  0.88063576  0.35637117  1
  O  O32  1  0.36474959  0.48072847  0.36102406  1
  O  O33  1  0.10872005  0.48883398  0.85822452  1
  O  O34  1  0.38694831  0.89153023  0.85918345  1
  O  O35  1  0.51917372  0.63204930  0.86299355  1
  O  O36  1  0.02958914  0.84730302  0.41085261  1
  O  O37  1  0.82174093  0.98076900  0.41114239  1
  O  O38  1  0.17730375  0.20359889  0.41314425  1
  O  O39  1  0.01261266  0.17246665  0.91129460  1
  O  O40  1  0.15788751  0.97175626  0.91314949  1
  O  O41  1  0.79623358  0.82098440  0.91385701  1
  O  O42  1  0.98490093  0.16482792  0.58688280  1
  O  O43  1  0.18348001  0.02111284  0.58615450  1
  O  O44  1  0.83469449  0.81570638  0.58578807  1
  O  O45  1  0.97185168  0.81827125  0.08840554  1
  O  O46  1  0.82277625  0.02678462  0.08553641  1
  O  O47  1  0.18035514  0.16425470  0.08778831  1
  O  O48  1  0.69505481  0.17229194  0.74964108  1
  O  O49  1  0.48144973  0.30721275  0.74835069  1
  O  O50  1  0.82540335  0.52256232  0.74981861  1
  O  O51  1  0.69479364  0.52459295  0.24780431  1
  O  O52  1  0.82658736  0.30008876  0.24570239  1
  O  O53  1  0.47992704  0.17123281  0.24538507  1
  O  O54  1  0.64281704  0.50949624  0.92402676  1
  O  O55  1  0.84152366  0.35031723  0.92869653  1
  O  O56  1  0.50679111  0.15595234  0.92790434  1
  O  O57  1  0.64036233  0.14803994  0.42036736  1
  O  O58  1  0.48827664  0.35688815  0.42025192  1
  O  O59  1  0.84714388  0.50053551  0.42048920  1
  O  O60  1  0.35940004  0.51527598  0.07151301  1
  O  O61  1  0.15068533  0.65005181  0.07505764  1
  O  O62  1  0.51325692  0.86593869  0.07474983  1
  O  O63  1  0.35675275  0.85083488  0.57688448  1
  O  O64  1  0.48764983  0.64302544  0.57372350  1
  O  O65  1  0.15930020  0.50910944  0.57215938  1
  O  O66  1  0.30572405  0.83017625  0.25156246  1
  O  O67  1  0.52009608  0.69044821  0.25372571  1
  O  O68  1  0.17285250  0.47293462  0.25338498  1
  O  O69  1  0.31708715  0.48614882  0.75801629  1
  O  O70  1  0.16890582  0.69203442  0.75419202  1
  O  O71  1  0.52117952  0.82608067  0.75758104  1
loop_
_geom_bond_atom_site_label_1
_geom_bond_atom_site_label_2
_geom_bond_distance
_geom_bond_site_symmetry_2
Na0 O52 2.360011 1_555
Na0 O67 2.434454 1_545
Na0 O31 2.523952 1_545
Na0 O53 2.549545 1_555
Na0 O66 2.579500 1_545
Na0 O16 2.731999 1_555
Na0 O9 2.906721 1_545
Na0 O2 2.912084 1_555
Na1 O68 2.356634 1_555
Na1 O53 2.426453 1_555
Na1 O17 2.539445 1_555
Na1 O67 2.544892 1_555
Na1 O51 2.585264 1_555
Na1 O32 2.717235 1_555
Na1 O0 2.902559 1_555
Na1 O10 2.911968 1_555
Na2 O51 2.407407 1_555
Na2 O66 2.412512 1_655
Na2 O68 2.602606 1_655
Na2 O52 2.605225 1_555
Na2 O30 2.615022 1_655
Na2 O15 2.640323 1_555
Na2 O1 2.884985 1_555
Na2 O11 2.891317 1_655
Na3 O50 2.389949 1_555
Na3 O71 2.392085 1_555
Na3 O69 2.483345 1_555
Na3 O14 2.547842 1_555
Na3 O49 2.556525 1_555
Na3 O35 2.740016 1_555
Na3 O6 2.781009 1_555
Na4 O48 2.409360 1_455
Na4 O69 2.496682 1_555
Na4 O70 2.532405 1_555
Na4 O50 2.574003 1_455
Na4 O12 2.602777 1_455
Na4 O33 2.606614 1_555
Na4 O7 2.806706 1_555
Na4 O5 2.948019 1_455
Na5 O49 2.402256 1_555
Na5 O70 2.435247 1_545
Na5 O48 2.560491 1_555
Na5 O71 2.568919 1_545
Na5 O13 2.605970 1_555
Na5 O34 2.635186 1_545
Na5 O8 2.870958 1_545
Na5 O3 2.882263 1_555
Na6 O64 2.402360 1_555
Na6 O65 2.463323 1_555
Na6 O42 2.476928 1_455
Na6 O43 2.485303 1_555
Na6 O7 2.553728 1_555
Na6 O28 2.718473 1_555
Na6 O14 2.781373 1_555
Na6 O21 2.843417 1_555
Na7 O65 2.464894 1_555
Na7 O44 2.495146 1_455
Na7 O63 2.502487 1_555
Na7 O43 2.503494 1_565
Na7 O8 2.619639 1_555
Na7 O29 2.626180 1_555
Na7 O12 2.777175 1_455
Na7 O22 2.919340 1_455
Na8 O63 2.435355 1_555
Na8 O44 2.475814 1_555
Na8 O64 2.514928 1_555
Na8 O42 2.517510 1_565
Na8 O6 2.617423 1_555
Na8 O27 2.659324 1_555
Na8 O23 2.811886 1_565
Na8 O13 2.822392 1_565
Na9 O47 2.425091 1_565
Na9 O61 2.453943 1_555
Na9 O45 2.465843 1_455
Na9 O62 2.583473 1_555
Na9 O11 2.593652 1_555
Na9 O26 2.650146 1_554
Na9 O18 2.904138 1_565
Na9 O16 2.947171 1_565
Na10 O45 2.384199 1_555
Na10 O60 2.435037 1_555
Na10 O62 2.558690 1_555
Na10 O9 2.584122 1_555
Na10 O46 2.598512 1_565
Na10 O17 2.721857 1_555
Na10 O24 2.790337 1_554
Na10 O19 2.864557 1_555
Na11 O47 2.418385 1_555
Na11 O46 2.478430 1_455
Na11 O61 2.485423 1_555
Na11 O60 2.499301 1_555
Na11 O10 2.552636 1_555
Na11 O25 2.681083 1_554
Na11 O15 2.759741 1_455
Na12 O40 2.388422 1_655
Na12 O55 2.483689 1_555
Na12 O41 2.579452 1_555
Na12 O54 2.582427 1_555
Na12 O4 2.629451 1_555
Na12 O19 2.674489 1_556
Na12 O33 2.746184 1_655
Na12 O26 2.935068 1_655
Na13 O39 2.434313 1_655
Na13 O55 2.434845 1_555
Na13 O56 2.451668 1_555
Na13 O41 2.514120 1_545
Na13 O5 2.520996 1_555
Na13 O34 2.714839 1_545
Na13 O20 2.780988 1_556
Na14 O39 2.452143 1_555
Na14 O40 2.452445 1_545
Na14 O56 2.464432 1_555
Na14 O54 2.558243 1_555
Na14 O3 2.605146 1_555
Na14 O18 2.652559 1_556
Na14 O25 2.828894 1_555
Na14 O35 2.949572 1_555
Na15 O37 2.448918 1_545
Na15 O38 2.455884 1_655
Na15 O57 2.506257 1_555
Na15 O59 2.518836 1_555
Na15 O2 2.534464 1_555
Na15 O23 2.630822 1_555
Na15 O30 2.774217 1_655
Na16 O36 2.350847 1_545
Na16 O57 2.439902 1_555
Na16 O38 2.586967 1_555
Na16 O58 2.597571 1_555
Na16 O0 2.621203 1_555
Na16 O21 2.651183 1_555
Na16 O31 2.816139 1_545
Na16 O29 2.844812 1_545
Na17 O37 2.374072 1_555
Na17 O59 2.437191 1_555
Na17 O36 2.465917 1_655
Na17 O22 2.568374 1_555
Na17 O58 2.574424 1_555
Na17 O1 2.577938 1_555
Na18 O44 2.419884 1_555
Na18 O36 2.447605 1_655
Na18 O37 2.459701 1_555
Na18 O42 2.493451 1_565
Na18 O43 2.500467 1_665
Na18 O38 2.593160 1_665
Na19 O40 2.401056 1_544
Na19 O47 2.428311 1_555
Na19 O45 2.462311 1_445
Na19 O39 2.468967 1_554
Na19 O46 2.603134 1_455
Na19 O41 2.651248 1_444
Na20 O48 2.395996 1_555
Na20 O50 2.450706 1_555
Na20 O49 2.476138 1_555
Na20 O56 2.532882 1_555
Na20 O55 2.563491 1_555
Na20 O54 2.649308 1_555
Na21 O52 2.429322 1_555
Na21 O51 2.468813 1_555
Na21 O57 2.469566 1_555
Na21 O59 2.491248 1_555
Na21 O53 2.511275 1_555
Na21 O58 2.627929 1_555
Na22 O68 2.459743 1_555
Na22 O66 2.502415 1_555
Na22 O60 2.525343 1_555
Na22 O61 2.528729 1_555
Na22 O67 2.539127 1_555
Na22 O62 2.664614 1_555
Na23 O63 2.465292 1_555
Na23 O64 2.476842 1_555
Na23 O65 2.527314 1_555
Na23 O70 2.540888 1_555
Na23 O69 2.584849 1_555
Na23 O71 2.604513 1_555
Al0 O1 1.792598 1_555
Al0 O2 1.865350 1_565
Al0 O0 1.889965 1_665
Al0 O37 2.003863 1_555
Al0 O36 2.012778 1_655
Al0 O38 2.340307 1_665
Al1 O3 1.793824 1_555
Al1 O4 1.872033 1_445
Al1 O5 1.880820 1_455
Al1 O39 1.971245 1_555
Al1 O40 2.052669 1_545
Al1 O41 2.308987 1_445
Al2 O11 1.787685 1_555
Al2 O10 1.858294 1_565
Al2 O9 1.892533 1_455
Al2 O45 2.021638 1_455
Al2 O47 2.033644 1_565
Al2 O46 2.358160 1_465
Al3 O18 1.841115 1_556
Al3 O19 1.879090 1_556
Al3 O55 1.922353 1_555
Al3 O56 1.936753 1_555
Al3 O20 2.017068 1_556
Al3 O54 2.124008 1_555
Al4 O25 1.782359 1_554
Al4 O61 1.835154 1_555
Al4 O26 1.843373 1_554
Al4 O60 1.925889 1_555
Al4 O24 2.212758 1_554
Al4 O62 2.352248 1_555
Al5 O63 1.842261 1_555
Al5 O27 1.870058 1_555
Al5 O29 1.896842 1_555
Al5 O65 1.925421 1_555
Al5 O64 1.938859 1_555
Al5 O28 2.215574 1_555
O0 Si0 1.624853 1_555
O1 Si1 1.618284 1_555
O2 Si2 1.628026 1_555
O3 Si3 1.613200 1_555
O4 Si4 1.620550 1_555
O5 Si5 1.619866 1_545
O6 Si5 1.640755 1_555
O6 Sn0 2.013855 1_565
O7 Si3 1.639673 1_555
O7 Sn0 2.052298 1_455
O8 Si4 1.637752 1_455
O8 Sn0 2.005814 1_465
O9 Si1 1.627310 1_555
O10 Si2 1.628240 1_455
O11 Si0 1.619275 1_565
O12 Si6 1.646798 1_555
O12 Sn1 2.045888 1_555
O13 Si7 1.643184 1_555
O13 Sn1 2.039464 1_555
O14 Si8 1.646900 1_555
O14 Sn1 2.049057 1_555
O15 Si9 1.665373 1_555
O15 Sn2 2.003803 1_555
O16 S0 1.505999 1_555
O16 Sn2 2.211506 1_555
O17 Si10 1.670385 1_555
O17 Sn2 2.037428 1_555
O18 Si10 1.629519 1_555
O19 Si9 1.633724 1_555
O20 S0 1.479354 1_555
O21 Si7 1.646389 1_555
O21 Sn3 2.003667 1_555
O22 Si8 1.643183 1_555
O22 Sn3 1.998795 1_555
O23 Si6 1.641191 1_555
O23 Sn3 1.979716 1_555
O24 S1 1.472733 1_555
O25 Si11 1.627167 1_555
O26 Si12 1.639821 1_555
O27 Si13 1.622980 1_555
O28 S2 1.479663 1_555
O29 Si14 1.625407 1_555
O30 Si14 1.659361 1_555
O30 Sn4 2.000478 1_555
O31 Si13 1.656491 1_555
O31 Sn4 2.014676 1_555
O32 S2 1.501969 1_555
O32 Sn4 2.180258 1_555
O33 Si11 1.660139 1_555
O33 Sn5 2.023042 1_555
O34 Si12 1.664298 1_555
O34 Sn5 2.013231 1_555
O35 S1 1.505048 1_555
O35 Sn5 2.213469 1_555
O36 Si14 1.643344 1_555
O37 Si13 1.643914 1_555
O38 S2 1.469533 1_555
O39 Si11 1.647988 1_555
O40 Si12 1.652678 1_555
O41 S1 1.481095 1_555
O42 Si6 1.629377 1_555
O42 Sn0 2.052102 1_555
O43 Si7 1.630914 1_555
O43 Sn0 2.070690 1_455
O44 Si8 1.636564 1_555
O44 Sn0 2.105666 1_565
O45 Si9 1.650815 1_555
O46 S0 1.478587 1_555
O47 Si10 1.652708 1_555
O48 Si5 1.648398 1_545
O48 Sn1 2.113374 1_555
O49 Si3 1.641575 1_555
O49 Sn1 2.077737 1_555
O50 Si4 1.646412 1_555
O50 Sn1 2.104414 1_555
O51 Si1 1.657944 1_555
O51 Sn2 2.036271 1_555
O52 Si2 1.668874 1_555
O52 Sn2 2.109221 1_555
O53 Si0 1.663569 1_555
O53 Sn2 2.073027 1_555
O54 S1 1.494105 1_555
O55 Si11 1.649573 1_655
O56 Si12 1.653934 1_545
O57 Si13 1.670839 1_545
O57 Sn3 2.065667 1_555
O58 S2 1.494195 1_555
O58 Sn3 2.294895 1_555
O59 Si14 1.671512 1_655
O59 Sn3 2.058185 1_555
O60 Si10 1.667166 1_555
O61 Si9 1.656179 1_455
O62 S0 1.483923 1_565
O63 Si7 1.619891 1_565
O64 Si8 1.622845 1_555
O65 Si6 1.619242 1_455
O66 Si0 1.657154 1_565
O66 Sn4 2.032471 1_555
O67 Si1 1.661413 1_555
O67 Sn4 2.071593 1_555
O68 Si2 1.670047 1_455
O68 Sn4 2.094151 1_555
O69 Si3 1.645525 1_555
O69 Sn5 2.059935 1_555
O70 Si4 1.649314 1_455
O70 Sn5 2.030886 1_555
O71 Si5 1.648047 1_555
O71 Sn5 2.052077 1_555
