# generated using pymatgen
data_NaMgCo2(MoO5)2
_symmetry_space_group_name_H-M   'P 1'
_cell_length_a   5.94731266
_cell_length_b   5.95226281
_cell_length_c   8.14445817
_cell_angle_alpha   64.93654058
_cell_angle_beta   65.84676569
_cell_angle_gamma   64.39933468
_symmetry_Int_Tables_number   1
_chemical_formula_structural   NaMgCo2(MoO5)2
_chemical_formula_sum   'Na1 Mg1 Co2 Mo2 O10'
_cell_volume   226.32281652
_cell_formula_units_Z   1
loop_
 _symmetry_equiv_pos_site_id
 _symmetry_equiv_pos_as_xyz
  1  'x, y, z'
loop_
 _atom_site_type_symbol
 _atom_site_label
 _atom_site_symmetry_multiplicity
 _atom_site_fract_x
 _atom_site_fract_y
 _atom_site_fract_z
 _atom_site_occupancy
  Na  Na0  1  0.00770300  0.99327000  0.95950400  1
  Mg  Mg0  1  0.05680000  0.05054300  0.32120800  1
  Co  Co0  1  0.99901200  0.48476900  0.51941400  1
  Co  Co1  1  0.49661700  0.99955200  0.50646200  1
  Mo  Mo0  1  0.40571600  0.40923200  0.79419500  1
  Mo  Mo1  1  0.59496000  0.59723500  0.20134200  1
  O  O0  1  0.85638900  0.81135700  0.53590700  1
  O  O1  1  0.17051400  0.20805900  0.42643200  1
  O  O2  1  0.75116800  0.30432100  0.75740000  1
  O  O3  1  0.30664700  0.75542400  0.74982900  1
  O  O4  1  0.24874200  0.73379200  0.22014100  1
  O  O5  1  0.72058900  0.24178800  0.24298700  1
  O  O6  1  0.25242300  0.25598400  0.03067000  1
  O  O7  1  0.76258800  0.74823800  0.97736400  1
  O  O8  1  0.32073700  0.32415900  0.63911300  1
  O  O9  1  0.65356300  0.67602800  0.36803300  1
loop_
_geom_bond_atom_site_label_1
_geom_bond_atom_site_label_2
_geom_bond_distance
_geom_bond_site_symmetry_2
Na0 O3 2.338787 1_555
Na0 O2 2.344581 1_465
Na0 O7 2.399502 1_455
Na0 O4 2.597244 1_556
Na0 O5 2.814065 1_466
Na0 O6 2.885235 1_566
Na0 O8 2.998833 1_565
Mg0 O1 1.942648 1_555
Mg0 O0 2.038834 1_445
Mg0 O5 2.039822 1_455
Mg0 O4 2.054578 1_545
Mg0 O6 2.230055 1_555
Co0 O0 1.794283 1_555
Co0 O1 1.816441 1_655
Co0 O2 2.085546 1_555
Co0 O8 2.163686 1_655
Co0 O9 2.428894 1_555
Co0 O4 2.494581 1_655
Co1 O1 1.998893 1_565
Co1 O0 2.002881 1_555
Co1 O3 2.112494 1_555
Co1 O8 2.256482 1_565
Co1 O5 2.270945 1_565
Co1 O9 2.296858 1_555
Mo0 O6 1.779284 1_556
Mo0 O3 1.793894 1_555
Mo0 O2 1.801873 1_555
Mo0 O8 1.841902 1_555
Mo1 O7 1.739640 1_554
Mo1 O9 1.803458 1_555
Mo1 O4 1.823448 1_555
Mo1 O5 1.839251 1_555
