# generated using pymatgen
data_CsUCuTe3
_symmetry_space_group_name_H-M   'P 1'
_cell_length_a   8.95449679
_cell_length_b   8.95449679
_cell_length_c   11.29624300
_cell_angle_alpha   90.00000000
_cell_angle_beta   90.00000000
_cell_angle_gamma   151.73504933
_symmetry_Int_Tables_number   1
_chemical_formula_structural   CsUCuTe3
_chemical_formula_sum   'Cs2 U2 Cu2 Te6'
_cell_volume   428.92542181
_cell_formula_units_Z   2
loop_
 _symmetry_equiv_pos_site_id
 _symmetry_equiv_pos_as_xyz
  1  'x, y, z'
loop_
 _atom_site_type_symbol
 _atom_site_label
 _atom_site_symmetry_multiplicity
 _atom_site_fract_x
 _atom_site_fract_y
 _atom_site_fract_z
 _atom_site_occupancy
  Cs  Cs0  1  0.25650600  0.74349400  0.75000000  1
  Cs  Cs1  1  0.74349400  0.25650600  0.25000000  1
  U  U0  1  0.00000000  0.00000000  0.50000000  1
  U  U1  1  0.00000000  0.00000000  0.00000000  1
  Cu  Cu0  1  0.53314900  0.46685100  0.75000000  1
  Cu  Cu1  1  0.46685100  0.53314900  0.25000000  1
  Te  Te0  1  0.61680500  0.38319500  0.94087000  1
  Te  Te1  1  0.38319500  0.61680500  0.44087000  1
  Te  Te2  1  0.38319500  0.61680500  0.05913000  1
  Te  Te3  1  0.61680500  0.38319500  0.55913000  1
  Te  Te4  1  0.05658500  0.94341500  0.25000000  1
  Te  Te5  1  0.94341500  0.05658500  0.75000000  1
loop_
_geom_bond_atom_site_label_1
_geom_bond_atom_site_label_2
_geom_bond_distance
_geom_bond_site_symmetry_2
Cs0 Te3 3.913490 1_565
Cs0 Te0 3.913490 1_565
Cs0 Te3 3.913490 1_455
Cs0 Te0 3.913490 1_455
Cs0 Te5 3.913694 1_565
Cs0 Te5 3.913694 1_455
Cs0 Te2 4.127349 1_556
Cs0 Te1 4.127349 1_555
Cs1 Te2 3.913490 1_655
Cs1 Te1 3.913490 1_655
Cs1 Te2 3.913490 1_545
Cs1 Te1 3.913490 1_545
Cs1 Te4 3.913694 1_655
Cs1 Te4 3.913694 1_545
Cs1 Te0 4.127349 1_554
Cs1 Te3 4.127349 1_555
Cu0 Te3 2.599923 1_555
Cu0 Te0 2.599923 1_555
Cu0 Te5 2.684931 1_455
Cu0 Te5 2.684931 1_565
Cu1 Te2 2.599923 1_555
Cu1 Te1 2.599923 1_555
Cu1 Te4 2.684931 1_655
Cu1 Te4 2.684931 1_545
Te0 U1 3.056367 1_556
Te0 U1 3.056367 1_666
Te1 U0 3.056367 1_555
Te1 U0 3.056367 1_665
Te2 U1 3.056367 1_555
Te2 U1 3.056367 1_665
Te3 U0 3.056367 1_555
Te3 U0 3.056367 1_665
Te4 U0 2.990157 1_565
Te4 U1 2.990157 1_565
Te5 U1 2.990157 1_656
Te5 U0 2.990157 1_655
