# generated using pymatgen
data_Na6Hf2Si5Ge2SO24
_symmetry_space_group_name_H-M   'P 1'
_cell_length_a   8.94520033
_cell_length_b   8.91814989
_cell_length_c   22.19643223
_cell_angle_alpha   90.29099812
_cell_angle_beta   89.61711290
_cell_angle_gamma   119.91515476
_symmetry_Int_Tables_number   1
_chemical_formula_structural   Na6Hf2Si5Ge2SO24
_chemical_formula_sum   'Na18 Hf6 Si15 Ge6 S3 O72'
_cell_volume   1534.75385646
_cell_formula_units_Z   3
loop_
 _symmetry_equiv_pos_site_id
 _symmetry_equiv_pos_as_xyz
  1  'x, y, z'
loop_
 _atom_site_type_symbol
 _atom_site_label
 _atom_site_symmetry_multiplicity
 _atom_site_fract_x
 _atom_site_fract_y
 _atom_site_fract_z
 _atom_site_occupancy
  Na  Na0  1  0.64008654  0.00563503  0.24953890  1
  Na  Na1  1  0.36437240  0.36641023  0.24760521  1
  Na  Na2  1  0.99904186  0.63475806  0.24963636  1
  Na  Na3  1  0.63348519  0.63455998  0.74895814  1
  Na  Na4  1  0.00009984  0.36638359  0.75121340  1
  Na  Na5  1  0.36862825  0.00208457  0.75158603  1
  Na  Na6  1  0.30301948  0.33189644  0.58583937  1
  Na  Na7  1  0.02838383  0.69694015  0.58283895  1
  Na  Na8  1  0.66962376  0.97056890  0.58318714  1
  Na  Na9  1  0.03428220  0.32883530  0.08623825  1
  Na  Na10  1  0.96997210  0.66665139  0.91748339  1
  Na  Na11  1  0.33254307  0.02548849  0.41648129  1
  Na  Na12  1  0.98237181  0.98830530  0.49814180  1
  Na  Na13  1  0.01064302  0.00416039  0.00054538  1
  Na  Na14  1  0.65807269  0.31720947  0.83865616  1
  Na  Na15  1  0.68320313  0.33919965  0.33241885  1
  Na  Na16  1  0.33978900  0.67157181  0.16228201  1
  Na  Na17  1  0.33492416  0.66652015  0.66767182  1
  Hf  Hf0  1  0.98929478  0.99254828  0.34974125  1
  Hf  Hf1  1  0.99983500  0.99970753  0.64848825  1
  Hf  Hf2  1  0.66953876  0.33410733  0.68907200  1
  Hf  Hf3  1  0.68225309  0.33609240  0.47686929  1
  Hf  Hf4  1  0.33629852  0.67496464  0.51874523  1
  Hf  Hf5  1  0.32741541  0.67148725  0.81933876  1
  Si  Si0  1  0.30015150  0.00803436  0.24813218  1
  Si  Si1  1  0.70843362  0.71175482  0.24511303  1
  Si  Si2  1  0.99896003  0.29199896  0.24525867  1
  Si  Si3  1  0.29186783  0.29243397  0.75240442  1
  Si  Si4  1  -0.00014399  0.71649643  0.75562555  1
  Si  Si5  1  0.71549484  0.99868623  0.75539068  1
  Si  Si6  1  0.96227938  0.33187815  0.58418880  1
  Si  Si7  1  0.37520106  0.04434287  0.58174385  1
  Si  Si8  1  0.66586409  0.62411368  0.58349771  1
  Si  Si9  1  0.94508360  0.62497096  0.08286659  1
  Si  Si10  1  0.38051491  0.33710379  0.08255835  1
  Si  Si11  1  0.02508401  0.35762310  0.91912191  1
  Si  Si12  1  0.33724987  0.96657957  0.92218722  1
  Si  Si13  1  0.62416107  0.95505821  0.41236955  1
  Si  Si14  1  0.04369843  0.66617893  0.41167967  1
  Ge  Ge0  1  0.02071629  0.01987946  0.85309641  1
  Ge  Ge1  1  0.01874380  0.99630734  0.14901797  1
  Ge  Ge2  1  0.66753847  0.34927748  0.18497432  1
  Ge  Ge3  1  0.65955866  0.32626622  0.98392404  1
  Ge  Ge4  1  0.29217688  0.64128591  0.01908427  1
  Ge  Ge5  1  0.33023653  0.68084120  0.30761259  1
  S  S0  1  0.66321405  0.04158720  0.08312628  1
  S  S1  1  0.62297719  0.66516471  0.92050584  1
  S  S2  1  0.33396440  0.37767596  0.41303143  1
  O  O0  1  0.22663050  0.05372573  0.30841982  1
  O  O1  1  0.83224541  0.78501165  0.30407109  1
  O  O2  1  0.95541365  0.16645830  0.30306015  1
  O  O3  1  0.20587893  0.15982452  0.80876849  1
  O  O4  1  0.96595557  0.80907937  0.81414691  1
  O  O5  1  0.85096407  0.03707405  0.80999042  1
  O  O6  1  0.78679188  0.96237532  0.69191969  1
  O  O7  1  0.17712098  0.21774704  0.69120375  1
  O  O8  1  0.03793064  0.82727443  0.69359731  1
  O  O9  1  0.80268092  0.84977195  0.18990259  1
  O  O10  1  0.04158246  0.20305863  0.18679557  1
  O  O11  1  0.16220910  0.95331368  0.19293330  1
  O  O12  1  0.88419361  0.37299881  0.64468703  1
  O  O13  1  0.49417092  0.12685257  0.64184381  1
  O  O14  1  0.63218591  0.51010542  0.64485116  1
  O  O15  1  0.86558207  0.49526360  0.14201597  1
  O  O16  1  0.63459013  0.11821785  0.13922436  1
  O  O17  1  0.49564914  0.36771176  0.14411708  1
  O  O18  1  0.47410749  0.30146711  0.02581985  1
  O  O19  1  0.82977663  0.52974923  0.02276415  1
  O  O20  1  0.69796261  0.15873046  0.03004722  1
  O  O21  1  0.45957177  0.16190756  0.52214270  1
  O  O22  1  0.70009292  0.53195867  0.52636197  1
  O  O23  1  0.83476358  0.29365003  0.52740957  1
  O  O24  1  0.53407115  0.68829261  0.97234321  1
  O  O25  1  0.15066846  0.44691959  0.97829224  1
  O  O26  1  0.29437676  0.81835207  0.97622183  1
  O  O27  1  0.54206023  0.84674181  0.47451227  1
  O  O28  1  0.31297538  0.45716828  0.46988415  1
  O  O29  1  0.15475445  0.69175427  0.47317125  1
  O  O30  1  0.13952938  0.63908933  0.35178346  1
  O  O31  1  0.49625949  0.85719477  0.35387993  1
  O  O32  1  0.35539986  0.48144456  0.35947689  1
  O  O33  1  0.11129525  0.48674224  0.86103151  1
  O  O34  1  0.37139224  0.88884768  0.85975139  1
  O  O35  1  0.52330578  0.64172594  0.86360205  1
  O  O36  1  0.04313351  0.84909817  0.40937822  1
  O  O37  1  0.81690999  0.98219155  0.41060505  1
  O  O38  1  0.17801055  0.20315528  0.41106261  1
  O  O39  1  0.01404592  0.16928818  0.91155250  1
  O  O40  1  0.15225599  0.96757192  0.91403050  1
  O  O41  1  0.79874224  0.81897558  0.91618107  1
  O  O42  1  0.97991439  0.16057432  0.58612156  1
  O  O43  1  0.18341203  0.01993365  0.58574288  1
  O  O44  1  0.83596183  0.81501392  0.58628309  1
  O  O45  1  0.96934805  0.81936950  0.09141426  1
  O  O46  1  0.82345295  0.03163463  0.08651031  1
  O  O47  1  0.18098677  0.16589881  0.09069597  1
  O  O48  1  0.69539599  0.17065801  0.75099214  1
  O  O49  1  0.48054685  0.30803947  0.74916539  1
  O  O50  1  0.82864658  0.52563248  0.75197428  1
  O  O51  1  0.68718876  0.51700503  0.23989030  1
  O  O52  1  0.82671145  0.31420442  0.23748952  1
  O  O53  1  0.49424112  0.17659305  0.23743485  1
  O  O54  1  0.64247322  0.50751402  0.92269404  1
  O  O55  1  0.84069375  0.35715349  0.92917193  1
  O  O56  1  0.51027678  0.15672851  0.93008836  1
  O  O57  1  0.62322044  0.13804358  0.41423643  1
  O  O58  1  0.48733040  0.35662559  0.41755609  1
  O  O59  1  0.85287737  0.49760760  0.41353690  1
  O  O60  1  0.35242324  0.51112786  0.07371099  1
  O  O61  1  0.13837501  0.63448079  0.07732642  1
  O  O62  1  0.50841723  0.86821677  0.07598285  1
  O  O63  1  0.35471963  0.85150797  0.57983156  1
  O  O64  1  0.49319144  0.64068858  0.57918227  1
  O  O65  1  0.15247466  0.50033317  0.57781750  1
  O  O66  1  0.31640221  0.83087283  0.25239222  1
  O  O67  1  0.51251681  0.68585783  0.25547776  1
  O  O68  1  0.17606202  0.48558739  0.25410091  1
  O  O69  1  0.31401573  0.48384481  0.75940043  1
  O  O70  1  0.17075745  0.69422254  0.75863228  1
  O  O71  1  0.52385787  0.82748796  0.75986988  1
loop_
_geom_bond_atom_site_label_1
_geom_bond_atom_site_label_2
_geom_bond_distance
_geom_bond_site_symmetry_2
Na0 O52 2.418787 1_555
Na0 O53 2.468096 1_555
Na0 O67 2.491645 1_545
Na0 O66 2.512773 1_545
Na0 O31 2.657836 1_545
Na0 O16 2.661184 1_555
Na0 O2 2.723387 1_555
Na0 O9 2.787798 1_545
Na1 O68 2.401832 1_555
Na1 O67 2.476935 1_555
Na1 O53 2.494045 1_555
Na1 O51 2.509798 1_555
Na1 O17 2.570262 1_555
Na1 O32 2.697875 1_555
Na1 O0 2.775849 1_555
Na1 O10 2.849179 1_555
Na2 O51 2.452593 1_555
Na2 O66 2.484076 1_655
Na2 O52 2.494719 1_555
Na2 O68 2.528157 1_655
Na2 O30 2.590403 1_655
Na2 O15 2.684349 1_555
Na2 O1 2.726758 1_555
Na2 O11 2.767882 1_655
Na3 O71 2.378267 1_555
Na3 O50 2.385286 1_555
Na3 O69 2.487969 1_555
Na3 O49 2.525401 1_555
Na3 O14 2.556027 1_555
Na3 O35 2.734689 1_555
Na3 O6 2.836530 1_555
Na3 O4 2.962868 1_555
Na4 O48 2.393867 1_455
Na4 O69 2.467054 1_555
Na4 O70 2.540141 1_555
Na4 O50 2.557620 1_455
Na4 O12 2.600869 1_455
Na4 O33 2.650314 1_555
Na4 O7 2.843639 1_555
Na4 O5 2.866110 1_455
Na5 O49 2.392965 1_555
Na5 O70 2.418459 1_545
Na5 O48 2.533939 1_555
Na5 O71 2.559155 1_545
Na5 O34 2.614385 1_545
Na5 O13 2.679065 1_555
Na5 O3 2.776553 1_555
Na5 O8 2.875496 1_545
Na6 O64 2.414026 1_555
Na6 O43 2.432271 1_555
Na6 O65 2.474917 1_555
Na6 O42 2.506629 1_455
Na6 O7 2.572872 1_555
Na6 O28 2.794166 1_555
Na6 O14 2.876492 1_555
Na6 O21 2.885749 1_555
Na7 O44 2.425411 1_455
Na7 O43 2.497910 1_565
Na7 O65 2.501301 1_555
Na7 O63 2.531940 1_555
Na7 O29 2.686945 1_555
Na7 O8 2.697597 1_555
Na7 O22 2.842689 1_455
Na7 O12 2.862561 1_455
Na8 O42 2.426867 1_565
Na8 O63 2.467082 1_555
Na8 O44 2.490850 1_555
Na8 O64 2.553766 1_555
Na8 O6 2.653429 1_555
Na8 O27 2.663288 1_555
Na8 O23 2.789840 1_565
Na8 O13 2.870017 1_565
Na9 O46 2.365588 1_455
Na9 O47 2.397624 1_555
Na9 O61 2.409883 1_555
Na9 O60 2.489662 1_555
Na9 O10 2.518887 1_555
Na9 O25 2.613908 1_554
Na9 O15 2.864160 1_455
Na9 O20 2.895941 1_455
Na10 O40 2.345718 1_655
Na10 O55 2.417147 1_555
Na10 O41 2.503728 1_555
Na10 O54 2.541639 1_555
Na10 O4 2.636658 1_555
Na10 O19 2.643267 1_556
Na10 O33 2.779204 1_655
Na10 O26 2.840388 1_655
Na11 O36 2.267689 1_545
Na11 O57 2.272972 1_555
Na11 O58 2.561245 1_555
Na11 O38 2.573824 1_555
Na11 O21 2.626693 1_555
Na11 O0 2.643607 1_555
Na11 O29 2.874192 1_545
Na11 O31 2.910678 1_545
Na12 O44 2.430812 1_555
Na12 O37 2.434290 1_555
Na12 O42 2.485352 1_565
Na12 O36 2.520392 1_655
Na12 O43 2.574807 1_665
Na12 O38 2.667892 1_665
Na13 O40 2.402538 1_544
Na13 O39 2.460796 1_554
Na13 O47 2.495127 1_555
Na13 O45 2.517358 1_445
Na13 O41 2.592410 1_444
Na13 O46 2.620400 1_455
Na14 O48 2.450835 1_555
Na14 O56 2.453830 1_555
Na14 O55 2.507637 1_555
Na14 O49 2.526878 1_555
Na14 O54 2.565135 1_555
Na14 O50 2.579381 1_555
Na15 O59 2.326651 1_555
Na15 O57 2.421605 1_555
Na15 O52 2.526250 1_555
Na15 O51 2.590275 1_555
Na15 O58 2.624798 1_555
Na15 O53 2.641341 1_555
Na16 O60 2.460670 1_555
Na16 O66 2.514867 1_555
Na16 O61 2.521118 1_555
Na16 O62 2.525282 1_555
Na16 O67 2.554677 1_555
Na16 O68 2.573166 1_555
Na17 O64 2.489740 1_555
Na17 O63 2.508225 1_555
Na17 O65 2.537482 1_555
Na17 O69 2.561096 1_555
Na17 O70 2.571200 1_555
Na17 O71 2.588734 1_555
Hf0 O1 1.957886 1_555
Hf0 O37 2.010672 1_555
Hf0 O2 2.015019 1_565
Hf0 O36 2.064238 1_655
Hf0 O0 2.114198 1_665
Hf0 O38 2.252175 1_665
Hf1 O6 2.004442 1_555
Hf1 O8 2.006569 1_655
Hf1 O7 2.029922 1_665
Hf1 O42 2.069957 1_565
Hf1 O43 2.084551 1_665
Hf1 O44 2.088996 1_555
Hf2 O14 2.020340 1_555
Hf2 O13 2.021468 1_555
Hf2 O12 2.022799 1_555
Hf2 O49 2.066943 1_555
Hf2 O48 2.104322 1_555
Hf2 O50 2.114251 1_555
Hf3 O23 1.950049 1_555
Hf3 O22 1.997074 1_555
Hf3 O59 2.044385 1_555
Hf3 O21 2.072067 1_555
Hf3 O57 2.094213 1_555
Hf3 O58 2.271262 1_555
Hf4 O27 1.969068 1_555
Hf4 O29 1.987196 1_555
Hf4 O63 2.016682 1_555
Hf4 O65 2.070306 1_555
Hf4 O64 2.078436 1_555
Hf4 O28 2.137728 1_555
Hf5 O34 1.985811 1_555
Hf5 O33 2.030503 1_555
Hf5 O70 2.032717 1_555
Hf5 O71 2.077250 1_555
Hf5 O69 2.089060 1_555
Hf5 O35 2.143771 1_555
Ge0 O3 1.788281 1_555
Ge0 O5 1.870262 1_455
Ge0 O39 1.877028 1_555
Ge0 O4 1.895312 1_445
Ge0 O40 2.001645 1_545
Ge0 O41 2.356555 1_445
Ge1 O11 1.804277 1_555
Ge1 O45 1.900425 1_455
Ge1 O9 1.932903 1_455
Ge1 O10 1.937903 1_565
Ge1 O47 1.968498 1_565
Ge1 O46 2.379449 1_465
Ge2 O15 1.852595 1_555
Ge2 O51 1.864477 1_555
Ge2 O17 1.867060 1_555
Ge2 O53 1.934825 1_555
Ge2 O52 1.988461 1_555
Ge2 O16 2.177436 1_555
Ge3 O18 1.811399 1_556
Ge3 O56 1.867159 1_555
Ge3 O19 1.897469 1_556
Ge3 O55 1.926157 1_555
Ge3 O20 1.982593 1_556
Ge3 O54 2.180529 1_555
Ge4 O25 1.799333 1_554
Ge4 O26 1.839325 1_554
Ge4 O61 1.860503 1_555
Ge4 O60 1.937781 1_555
Ge4 O24 2.236910 1_554
Ge4 O62 2.352539 1_555
Ge5 O30 1.832438 1_555
Ge5 O31 1.846082 1_555
Ge5 O66 1.868620 1_555
Ge5 O67 1.975428 1_555
Ge5 O68 1.987582 1_555
Ge5 O32 2.227465 1_555
O0 Si0 1.624579 1_555
O1 Si1 1.629415 1_555
O2 Si2 1.619934 1_555
O3 Si3 1.627976 1_555
O4 Si4 1.641517 1_655
O5 Si5 1.629733 1_545
O6 Si5 1.638830 1_555
O7 Si3 1.634040 1_555
O8 Si4 1.630811 1_555
O9 Si1 1.641353 1_555
O10 Si2 1.656209 1_455
O11 Si0 1.635662 1_565
O12 Si6 1.632043 1_555
O13 Si7 1.637526 1_555
O14 Si8 1.637731 1_555
O15 Si9 1.658301 1_555
O16 S0 1.498231 1_555
O17 Si10 1.654334 1_555
O18 Si10 1.623336 1_555
O19 Si9 1.642547 1_555
O20 S0 1.503265 1_555
O21 Si7 1.621882 1_555
O22 Si8 1.616403 1_555
O23 Si6 1.622541 1_555
O24 S1 1.465565 1_555
O25 Si11 1.654656 1_555
O26 Si12 1.684438 1_555
O27 Si13 1.633237 1_555
O28 S2 1.500264 1_555
O29 Si14 1.640364 1_555
O30 Si14 1.657950 1_555
O31 Si13 1.663894 1_555
O32 S2 1.461974 1_555
O33 Si11 1.642950 1_555
O34 Si12 1.640178 1_555
O35 S1 1.503467 1_555
O36 Si14 1.634886 1_555
O37 Si13 1.617382 1_555
O38 S2 1.484885 1_555
O39 Si11 1.640418 1_555
O40 Si12 1.670291 1_555
O41 S1 1.486930 1_555
O42 Si6 1.612999 1_555
O43 Si7 1.619932 1_555
O44 Si8 1.622901 1_555
O45 Si9 1.646395 1_555
O46 S0 1.482050 1_555
O47 Si10 1.682197 1_555
O48 Si5 1.634253 1_545
O49 Si3 1.623977 1_555
O50 Si4 1.627725 1_655
O51 Si1 1.653811 1_555
O52 Si2 1.658691 1_555
O53 Si0 1.650854 1_555
O54 S1 1.501614 1_555
O55 Si11 1.660882 1_655
O56 Si12 1.638494 1_545
O57 Si13 1.636417 1_545
O58 S2 1.478624 1_555
O59 Si14 1.617260 1_655
O60 Si10 1.703840 1_555
O61 Si9 1.691999 1_455
O62 S0 1.482590 1_565
O63 Si7 1.636441 1_565
O64 Si8 1.626850 1_555
O65 Si6 1.618963 1_455
O66 Si0 1.660454 1_565
O67 Si1 1.664036 1_555
O68 Si2 1.673783 1_455
O69 Si3 1.624103 1_555
O70 Si4 1.638711 1_555
O71 Si5 1.633476 1_555
