# generated using pymatgen
data_Nd(AlBr4)3
_symmetry_space_group_name_H-M   'P 1'
_cell_length_a   10.58442396
_cell_length_b   10.58488522
_cell_length_c   18.56130586
_cell_angle_alpha   90.01323878
_cell_angle_beta   89.98947707
_cell_angle_gamma   120.01031720
_symmetry_Int_Tables_number   1
_chemical_formula_structural   Nd(AlBr4)3
_chemical_formula_sum   'Nd3 Al9 Br36'
_cell_volume   1800.72488527
_cell_formula_units_Z   3
loop_
 _symmetry_equiv_pos_site_id
 _symmetry_equiv_pos_as_xyz
  1  'x, y, z'
loop_
 _atom_site_type_symbol
 _atom_site_label
 _atom_site_symmetry_multiplicity
 _atom_site_fract_x
 _atom_site_fract_y
 _atom_site_fract_z
 _atom_site_occupancy
  Nd  Nd0  1  -0.00016259  0.73448792  0.66662791  1
  Nd  Nd1  1  0.73447481  -0.00023003  0.33335558  1
  Nd  Nd2  1  0.26548331  0.26544294  -0.00001215  1
  Al  Al0  1  0.90534766  0.90528872  0.49997965  1
  Al  Al1  1  0.33525461  0.69852421  0.39010018  1
  Al  Al2  1  0.30125688  0.63730688  0.72364040  1
  Al  Al3  1  0.36313877  0.66454376  0.05682628  1
  Al  Al4  1  0.09530702  -0.00012812  0.83332532  1
  Al  Al5  1  -0.00020239  0.09522596  0.16662948  1
  Al  Al6  1  0.69832306  0.33522306  0.60990438  1
  Al  Al7  1  0.66457063  0.36308653  0.94315089  1
  Al  Al8  1  0.63719655  0.30124721  0.27642182  1
  Br  Br0  1  0.28682048  0.50712518  0.46118713  1
  Br  Br1  1  0.21951993  0.71276633  0.12761331  1
  Br  Br2  1  0.49322781  0.78109070  0.79424404  1
  Br  Br3  1  0.70695995  0.47915154  0.70911466  1
  Br  Br4  1  0.52087657  0.22843560  0.04257423  1
  Br  Br5  1  0.77203466  0.29247392  0.37576036  1
  Br  Br6  1  0.22877478  0.52094833  0.95730258  1
  Br  Br7  1  0.29241020  0.77194637  0.62422022  1
  Br  Br8  1  0.47912130  0.70697937  0.29090112  1
  Br  Br9  1  0.92005687  0.51103931  0.55311318  1
  Br  Br10  1  0.48852531  0.40841251  0.88614280  1
  Br  Br11  1  0.59150249  0.07957983  0.21949989  1
  Br  Br12  1  0.40836581  0.48843598  0.11385359  1
  Br  Br13  1  0.07969091  0.59176877  0.78060692  1
  Br  Br14  1  0.51103677  0.92026896  0.44691242  1
  Br  Br15  1  0.12784633  0.93096288  0.53071350  1
  Br  Br16  1  0.06941359  0.19661148  0.86403216  1
  Br  Br17  1  0.80342012  0.87236853  0.19750884  1
  Br  Br18  1  0.19655908  0.06931162  0.13591949  1
  Br  Br19  1  0.87247991  0.80344390  0.80247782  1
  Br  Br20  1  0.93130372  0.12782463  0.46905719  1
  Br  Br21  1  0.23278370  0.03290735  0.73068288  1
  Br  Br22  1  0.96689879  0.19939672  0.06386578  1
  Br  Br23  1  0.80034155  0.76745730  0.39756464  1
  Br  Br24  1  0.19942982  0.96692960  0.93610794  1
  Br  Br25  1  0.76794121  0.80075921  0.60259451  1
  Br  Br26  1  0.03292286  0.23267244  0.26929574  1
  Br  Br27  1  0.14366597  0.71872530  0.35203111  1
  Br  Br28  1  0.28055180  0.42519703  0.68581247  1
  Br  Br29  1  0.57512691  0.85617654  0.01904449  1
  Br  Br30  1  0.42514502  0.28060430  0.31434387  1
  Br  Br31  1  0.85610218  0.57514222  0.98106034  1
  Br  Br32  1  0.71851156  0.14360195  0.64789809  1
  Br  Br33  1  0.50677238  0.28675037  0.53891173  1
  Br  Br34  1  0.71295328  0.21964072  0.87236377  1
  Br  Br35  1  0.78091705  0.49307416  0.20571944  1
loop_
_geom_bond_atom_site_label_1
_geom_bond_atom_site_label_2
_geom_bond_distance
_geom_bond_site_symmetry_2
Al0 Br15 2.303394 1_655
Al0 Br20 2.303606 1_565
Al0 Br23 2.314061 1_555
Al0 Br25 2.314611 1_555
Al1 Br0 2.251731 1_555
Al1 Br27 2.256448 1_555
Al1 Br8 2.362148 1_555
Al1 Br14 2.390389 1_555
Al2 Br2 2.251439 1_555
Al2 Br28 2.255860 1_555
Al2 Br7 2.362192 1_555
Al2 Br13 2.391374 1_555
Al3 Br1 2.252279 1_555
Al3 Br29 2.255687 1_555
Al3 Br6 2.362761 1_554
Al3 Br12 2.391253 1_555
Al4 Br16 2.303679 1_555
Al4 Br19 2.303907 1_445
Al4 Br21 2.315089 1_555
Al4 Br24 2.315442 1_545
Al5 Br18 2.303984 1_555
Al5 Br17 2.304105 1_445
Al5 Br26 2.315089 1_555
Al5 Br22 2.315304 1_455
Al6 Br33 2.251732 1_555
Al6 Br32 2.256369 1_555
Al6 Br3 2.362156 1_555
Al6 Br9 2.390302 1_555
Al7 Br34 2.251804 1_555
Al7 Br31 2.256340 1_555
Al7 Br4 2.362620 1_556
Al7 Br10 2.391044 1_555
Al8 Br35 2.251630 1_555
Al8 Br30 2.256023 1_555
Al8 Br5 2.361968 1_555
Al8 Br11 2.391513 1_555
Br3 Nd0 3.025789 1_655
Br4 Nd2 3.024178 1_555
Br5 Nd1 3.023827 1_555
Br6 Nd2 3.024106 1_556
Br7 Nd0 3.022826 1_555
Br8 Nd1 3.025132 1_565
Br9 Nd0 2.957533 1_655
Br10 Nd2 2.958809 1_556
Br11 Nd1 2.958129 1_555
Br12 Nd2 2.958616 1_555
Br13 Nd0 2.958309 1_555
Br14 Nd1 2.958392 1_565
Br15 Nd0 3.115698 1_555
Br16 Nd2 3.113577 1_556
Br17 Nd1 3.113058 1_565
Br18 Nd2 3.113636 1_555
Br19 Nd0 3.112907 1_655
Br20 Nd1 3.114072 1_555
Br21 Nd0 3.111128 1_545
Br22 Nd2 3.109862 1_655
Br23 Nd1 3.109605 1_565
Br24 Nd2 3.109237 1_566
Br25 Nd0 3.106922 1_655
Br26 Nd1 3.111265 1_455
