# generated using pymatgen
data_MgV4(O2F)4
_symmetry_space_group_name_H-M   'P 1'
_cell_length_a   5.15058359
_cell_length_b   9.45313049
_cell_length_c   5.25489148
_cell_angle_alpha   104.27012373
_cell_angle_beta   120.10244573
_cell_angle_gamma   72.58048746
_symmetry_Int_Tables_number   1
_chemical_formula_structural   MgV4(O2F)4
_chemical_formula_sum   'Mg1 V4 O8 F4'
_cell_volume   209.75384200
_cell_formula_units_Z   1
loop_
 _symmetry_equiv_pos_site_id
 _symmetry_equiv_pos_as_xyz
  1  'x, y, z'
loop_
 _atom_site_type_symbol
 _atom_site_label
 _atom_site_symmetry_multiplicity
 _atom_site_fract_x
 _atom_site_fract_y
 _atom_site_fract_z
 _atom_site_occupancy
  Mg  Mg0  1  0.93287200  0.30498800  0.10793000  1
  V  V0  1  0.95883600  0.97373600  0.96598500  1
  V  V1  1  0.67584400  0.73287600  0.22076700  1
  V  V2  1  0.50900400  0.49736300  0.53940600  1
  V  V3  1  0.26991400  0.24498600  0.77267000  1
  O  O0  1  0.35772000  0.88386100  0.19202100  1
  O  O1  1  0.76922700  0.88291700  0.02176200  1
  O  O2  1  0.26947500  0.38150800  0.49805400  1
  O  O3  1  0.67832800  0.63055700  0.44753200  1
  O  O4  1  0.24138600  0.13941800  0.96897700  1
  O  O5  1  0.51740900  0.63091600  0.88286800  1
  O  O6  1  0.68219800  0.13954800  0.82232000  1
  O  O7  1  0.89316600  0.39002000  0.76691900  1
  F  F0  1  0.09593200  0.64238200  0.28838300  1
  F  F1  1  0.04740900  0.14074800  0.37130000  1
  F  F2  1  0.52892000  0.37895500  0.13376400  1
  F  F3  1  0.94736100  0.87327900  0.61184100  1
loop_
_geom_bond_atom_site_label_1
_geom_bond_atom_site_label_2
_geom_bond_distance
_geom_bond_site_symmetry_2
Mg0 O7 2.035486 1_554
Mg0 O2 2.046047 1_655
Mg0 O6 2.115052 1_554
Mg0 O4 2.149246 1_654
O0 V1 1.789555 1_555
O0 V0 1.832524 1_454
O1 V0 1.640089 1_554
O1 V1 2.231789 1_555
O2 V2 1.786464 1_555
O2 V3 2.158965 1_555
O3 V1 1.703286 1_555
O3 V2 1.989596 1_555
O4 V3 1.681957 1_555
O4 V0 2.429149 1_445
O5 V1 1.709238 1_556
O5 V2 1.919449 1_555
O6 V0 1.795599 1_545
O6 V3 1.968757 1_555
O7 V2 1.843133 1_555
O7 V3 2.003689 1_655
F0 V1 1.951946 1_455
F0 V2 2.115635 1_555
F1 V3 1.989924 1_555
F1 Mg0 2.089466 1_455
F1 V0 2.244088 1_444
F2 Mg0 2.049802 1_555
F2 V3 2.066809 1_554
F2 V2 2.186662 1_555
F3 V0 1.849490 1_555
F3 V1 2.196447 1_555
