# generated using pymatgen
data_MgCo6O7F5
_symmetry_space_group_name_H-M   'P 1'
_cell_length_a   8.36968782
_cell_length_b   5.90287569
_cell_length_c   5.73377245
_cell_angle_alpha   65.64395363
_cell_angle_beta   63.29490571
_cell_angle_gamma   61.43275632
_symmetry_Int_Tables_number   1
_chemical_formula_structural   MgCo6O7F5
_chemical_formula_sum   'Mg1 Co6 O7 F5'
_cell_volume   215.09523264
_cell_formula_units_Z   1
loop_
 _symmetry_equiv_pos_site_id
 _symmetry_equiv_pos_as_xyz
  1  'x, y, z'
loop_
 _atom_site_type_symbol
 _atom_site_label
 _atom_site_symmetry_multiplicity
 _atom_site_fract_x
 _atom_site_fract_y
 _atom_site_fract_z
 _atom_site_occupancy
  Mg  Mg0  1  0.83504359  0.16999723  0.65748052  1
  Co  Co0  1  0.83774088  0.66459156  0.66585797  1
  Co  Co1  1  0.32808949  0.66155502  0.66500518  1
  Co  Co2  1  0.62846351  0.34692638  0.30406012  1
  Co  Co3  1  0.21165892  0.34804389  0.35602458  1
  Co  Co4  1  0.47760093  0.99493235  0.99297448  1
  Co  Co5  1  0.02738403  0.99428890  0.02248915  1
  O  O0  1  0.32572603  0.35640443  0.98715162  1
  O  O1  1  0.66730047  0.02720439  0.63346786  1
  O  O2  1  0.36632623  0.43734644  0.44186981  1
  O  O3  1  0.33562038  0.98317187  0.35850848  1
  O  O4  1  0.66182414  0.63826080  0.01675716  1
  O  O5  1  0.00281499  0.30269086  0.69332423  1
  O  O6  1  0.01321692  0.68435077  0.31926932  1
  F  F0  1  0.63127365  0.52641196  0.56646630  1
  F  F1  1  0.31172568  0.88100498  0.89258961  1
  F  F2  1  0.92959141  0.22944370  0.26230754  1
  F  F3  1  0.02801206  0.80640193  0.75998863  1
  F  F4  1  0.71669670  0.11760754  0.06313543  1
loop_
_geom_bond_atom_site_label_1
_geom_bond_atom_site_label_2
_geom_bond_distance
_geom_bond_site_symmetry_2
Mg0 O5 2.017813 1_655
Mg0 O1 2.025274 1_555
Co0 O6 1.862580 1_655
Co0 O4 1.881073 1_556
Co0 O5 1.895412 1_655
Co0 O1 1.908153 1_565
Co0 F3 2.438895 1_655
Co0 F0 2.567655 1_555
Co1 O0 1.978321 1_555
Co1 O3 1.989868 1_555
Co1 O2 2.028405 1_555
Co1 F3 2.106298 1_555
Co1 F1 2.112704 1_555
Co1 F0 2.131183 1_555
Co2 O2 1.841911 1_555
Co2 O4 1.859636 1_555
Co2 F4 1.988815 1_555
Co2 O1 2.063938 1_555
Co2 F0 2.181113 1_555
Co2 F2 2.193952 1_555
Co3 O0 1.879189 1_554
Co3 O6 1.886823 1_555
Co3 O3 1.888473 1_545
Co3 O2 1.906638 1_555
Co3 O5 1.962000 1_555
Co4 O3 1.878839 1_556
Co4 O0 1.885505 1_565
Co4 O4 1.917337 1_556
Co4 O1 1.957042 1_565
Co4 F1 2.154393 1_555
Co5 O6 1.927480 1_555
Co5 F1 1.990290 1_554
Co5 F2 1.990902 1_465
Co5 O5 2.018749 1_564
Co5 F3 2.204453 1_554
Co5 F4 2.265164 1_465
F0 Mg0 2.017440 1_555
F2 Mg0 1.970162 1_555
F3 Mg0 2.014429 1_465
F4 Mg0 2.028714 1_554
