# generated using pymatgen
data_V2O5
_symmetry_space_group_name_H-M   'P 1'
_cell_length_a   9.98432540
_cell_length_b   3.57243296
_cell_length_c   9.97151125
_cell_angle_alpha   90.00000000
_cell_angle_beta   90.00000000
_cell_angle_gamma   90.00000000
_symmetry_Int_Tables_number   1
_chemical_formula_structural   V2O5
_chemical_formula_sum   'V8 O20'
_cell_volume   355.66718520
_cell_formula_units_Z   4
loop_
 _symmetry_equiv_pos_site_id
 _symmetry_equiv_pos_as_xyz
  1  'x, y, z'
loop_
 _atom_site_type_symbol
 _atom_site_label
 _atom_site_symmetry_multiplicity
 _atom_site_fract_x
 _atom_site_fract_y
 _atom_site_fract_z
 _atom_site_occupancy
  V  V0  1  0.12519716  0.75000000  0.01538079  1
  V  V1  1  0.37480284  0.25000000  0.51538079  1
  V  V2  1  0.62519716  0.75000000  0.48461921  1
  V  V3  1  0.87480284  0.25000000  0.98461921  1
  V  V4  1  0.07042513  0.25000000  0.60480443  1
  V  V5  1  0.42957487  0.75000000  0.10480443  1
  V  V6  1  0.57042513  0.25000000  0.89519557  1
  V  V7  1  0.92957487  0.75000000  0.39519557  1
  O  O0  1  0.00387712  0.75000000  0.25343979  1
  O  O1  1  0.06337269  0.75000000  0.54329109  1
  O  O2  1  0.07092090  0.25000000  0.03547440  1
  O  O3  1  0.20979438  0.75000000  0.88011541  1
  O  O4  1  0.24414365  0.25000000  0.63976830  1
  O  O5  1  0.25585635  0.75000000  0.13976830  1
  O  O6  1  0.29020562  0.25000000  0.38011541  1
  O  O7  1  0.42907910  0.75000000  0.53547440  1
  O  O8  1  0.43662731  0.25000000  0.04329109  1
  O  O9  1  0.49612288  0.25000000  0.75344079  1
  O  O10  1  0.50387712  0.75000000  0.24655921  1
  O  O11  1  0.56337269  0.75000000  0.95670891  1
  O  O12  1  0.57092090  0.25000000  0.46452560  1
  O  O13  1  0.70979338  0.75000000  0.61988459  1
  O  O14  1  0.74414365  0.25000000  0.86023170  1
  O  O15  1  0.75585635  0.75000000  0.36023170  1
  O  O16  1  0.79020662  0.25000000  0.11988459  1
  O  O17  1  0.92907910  0.75000000  0.96452560  1
  O  O18  1  0.93662731  0.25000000  0.45670891  1
  O  O19  1  0.99612288  0.25000000  0.74655921  1
loop_
_geom_bond_atom_site_label_1
_geom_bond_atom_site_label_2
_geom_bond_distance
_geom_bond_site_symmetry_2
O0 V7 1.596368 1_455
O1 V4 1.889911 1_565
O1 V4 1.889911 1_555
O1 V7 1.991313 1_455
O2 V0 1.877334 1_555
O2 V0 1.877334 1_545
O2 V3 2.022705 1_454
O3 V0 1.591443 1_556
O4 V4 1.769155 1_555
O4 V1 1.800071 1_555
O5 V5 1.769155 1_555
O5 V0 1.800071 1_555
O6 V1 1.591443 1_555
O7 V1 1.877334 1_565
O7 V1 1.877334 1_555
O7 V2 2.022705 1_555
O8 V5 1.889911 1_555
O8 V5 1.889911 1_545
O8 V6 1.991313 1_554
O9 V6 1.596359 1_555
O10 V5 1.596359 1_555
O11 V6 1.889911 1_555
O11 V6 1.889911 1_565
O11 V5 1.991313 1_556
O12 V2 1.877334 1_555
O12 V2 1.877334 1_545
O12 V1 2.022705 1_555
O13 V2 1.591437 1_555
O14 V6 1.769155 1_555
O14 V3 1.800071 1_555
O15 V7 1.769155 1_555
O15 V2 1.800071 1_555
O16 V3 1.591437 1_554
O17 V3 1.877334 1_565
O17 V3 1.877334 1_555
O17 V0 2.022705 1_656
O18 V7 1.889911 1_555
O18 V7 1.889911 1_545
O18 V4 1.991313 1_655
O19 V4 1.596359 1_655
