# generated using pymatgen
data_Na15Nb5Zn7(PO4)18
_symmetry_space_group_name_H-M   'P 1'
_cell_length_a   8.97035922
_cell_length_b   8.94951717
_cell_length_c   22.22909371
_cell_angle_alpha   89.91703196
_cell_angle_beta   90.19888301
_cell_angle_gamma   119.93140735
_symmetry_Int_Tables_number   1
_chemical_formula_structural   Na15Nb5Zn7(PO4)18
_chemical_formula_sum   'Na15 Nb5 Zn7 P18 O72'
_cell_volume   1546.53214889
_cell_formula_units_Z   1
loop_
 _symmetry_equiv_pos_site_id
 _symmetry_equiv_pos_as_xyz
  1  'x, y, z'
loop_
 _atom_site_type_symbol
 _atom_site_label
 _atom_site_symmetry_multiplicity
 _atom_site_fract_x
 _atom_site_fract_y
 _atom_site_fract_z
 _atom_site_occupancy
  Na  Na0  1  0.98666616  0.63120284  0.24422621  1
  Na  Na1  1  0.65001457  0.63576689  0.74667239  1
  Na  Na2  1  0.98564546  0.34906915  0.74688315  1
  Na  Na3  1  0.36423886  0.01397727  0.74664827  1
  Na  Na4  1  0.29274207  0.33351883  0.58457266  1
  Na  Na5  1  0.04239608  0.70891823  0.58520470  1
  Na  Na6  1  0.66506129  0.95913700  0.58482440  1
  Na  Na7  1  0.65443058  0.68944231  0.07812526  1
  Na  Na8  1  0.31916380  0.02403831  0.41066065  1
  Na  Na9  1  0.98753717  0.99895684  0.49465954  1
  Na  Na10  1  0.01146904  0.00956267  0.98710380  1
  Na  Na11  1  0.66706996  0.33351360  0.83154793  1
  Na  Na12  1  0.66333775  0.32954497  0.32187780  1
  Na  Na13  1  0.32981429  0.66782671  0.15466510  1
  Na  Na14  1  0.33372316  0.66716016  0.66088853  1
  Nb  Nb0  1  0.00431168  0.00721091  0.14516499  1
  Nb  Nb1  1  0.66620521  0.32999910  0.97935553  1
  Nb  Nb2  1  0.67142955  0.33778923  0.47788980  1
  Nb  Nb3  1  0.33833883  0.66443118  0.31193569  1
  Nb  Nb4  1  0.33262132  0.66651579  0.81967662  1
  Zn  Zn0  1  0.99273645  0.00088805  0.35023399  1
  Zn  Zn1  1  0.99993854  -0.00000212  0.85115847  1
  Zn  Zn2  1  0.99960055  0.00051195  0.65417631  1
  Zn  Zn3  1  0.66692967  0.33273402  0.68120510  1
  Zn  Zn4  1  0.65995638  0.32510977  0.18279515  1
  Zn  Zn5  1  0.32530313  0.66576508  0.01644226  1
  Zn  Zn6  1  0.33506874  0.66598232  0.51279438  1
  P  P0  1  0.29513146  0.00434476  0.25391539  1
  P  P1  1  0.71155875  0.70966800  0.25080306  1
  P  P2  1  0.99808486  0.29003125  0.25297612  1
  P  P3  1  0.29408954  0.29535143  0.74944476  1
  P  P4  1  0.00129077  0.70619732  0.74945528  1
  P  P5  1  0.70399051  0.99799081  0.74949801  1
  P  P6  1  0.96228299  0.33430675  0.58516363  1
  P  P7  1  0.37295903  0.03880796  0.58356408  1
  P  P8  1  0.66539697  0.62756159  0.58514205  1
  P  P9  1  0.96155249  0.62433980  0.08705324  1
  P  P10  1  0.66486514  0.04137078  0.08610541  1
  P  P11  1  0.37786896  0.33513284  0.08497272  1
  P  P12  1  0.63249039  0.66967935  0.92176064  1
  P  P13  1  0.03905415  0.36907337  0.92061747  1
  P  P14  1  0.33040861  0.96149723  0.92048813  1
  P  P15  1  0.62987672  0.95847146  0.41957805  1
  P  P16  1  0.33060769  0.37203187  0.41998481  1
  P  P17  1  0.04174972  0.66744764  0.41773708  1
  O  O0  1  0.21475057  0.01887197  0.31192013  1
  O  O1  1  0.82481902  0.79312610  0.30496876  1
  O  O2  1  0.97916020  0.18826897  0.30869823  1
  O  O3  1  0.20637899  0.17639176  0.80206249  1
  O  O4  1  0.97039457  0.79379896  0.80216594  1
  O  O5  1  0.82288767  0.02950026  0.80226041  1
  O  O6  1  0.76590002  0.95410410  0.69020337  1
  O  O7  1  0.18798418  0.23361995  0.69000139  1
  O  O8  1  0.04466263  0.81242184  0.69012490  1
  O  O9  1  0.79488429  0.82456552  0.19250793  1
  O  O10  1  0.02447648  0.19932654  0.19558867  1
  O  O11  1  0.16664040  0.97204974  0.19897837  1
  O  O12  1  0.88280711  0.36055828  0.64220632  1
  O  O13  1  0.47985074  0.12004313  0.64052677  1
  O  O14  1  0.64036176  0.52232436  0.64238576  1
  O  O15  1  0.88127945  0.52935118  0.14518986  1
  O  O16  1  0.64506913  0.12338442  0.14179122  1
  O  O17  1  0.48865305  0.36524897  0.13989860  1
  O  O18  1  0.46703346  0.30453319  0.02817656  1
  O  O19  1  0.83304668  0.52864756  0.03233063  1
  O  O20  1  0.69100679  0.15801484  0.02869107  1
  O  O21  1  0.47561317  0.15572030  0.52666224  1
  O  O22  1  0.67968477  0.52055036  0.52942085  1
  O  O23  1  0.84112085  0.31960058  0.52920601  1
  O  O24  1  0.54734758  0.68591585  0.97801045  1
  O  O25  1  0.14754739  0.45733747  0.97450036  1
  O  O26  1  0.31491654  0.85543849  0.97462259  1
  O  O27  1  0.55018829  0.86406545  0.47811845  1
  O  O28  1  0.31255890  0.45000543  0.47814153  1
  O  O29  1  0.14594945  0.69147272  0.47497496  1
  O  O30  1  0.13336017  0.64044664  0.36127803  1
  O  O31  1  0.50090889  0.86063254  0.36504073  1
  O  O32  1  0.35550807  0.49410585  0.36451435  1
  O  O33  1  0.12960477  0.48925829  0.86203864  1
  O  O34  1  0.35778335  0.87030930  0.86181016  1
  O  O35  1  0.50784664  0.64239545  0.86484410  1
  O  O36  1  0.01861217  0.82339754  0.41054640  1
  O  O37  1  0.80849050  0.98748997  0.41103171  1
  O  O38  1  0.18403169  0.18871155  0.41191113  1
  O  O39  1  0.00943880  0.19006717  0.90946482  1
  O  O40  1  0.18078170  0.99095140  0.91001291  1
  O  O41  1  0.80954211  0.82096366  0.91073470  1
  O  O42  1  0.96651562  0.16449479  0.58337722  1
  O  O43  1  0.19811052  0.03262040  0.58221544  1
  O  O44  1  0.83417249  0.80175016  0.58313616  1
  O  O45  1  0.96471891  0.80626728  0.08956027  1
  O  O46  1  0.83937341  0.03112176  0.08924210  1
  O  O47  1  0.19632384  0.16316282  0.09059329  1
  O  O48  1  0.67099900  0.15190248  0.74515065  1
  O  O49  1  0.48026135  0.32783687  0.74535539  1
  O  O50  1  0.84792575  0.51951669  0.74526441  1
  O  O51  1  0.68358755  0.52861456  0.24333388  1
  O  O52  1  0.85396980  0.33122419  0.24486380  1
  O  O53  1  0.47471517  0.15291884  0.24474829  1
  O  O54  1  0.63803680  0.49481510  0.92280132  1
  O  O55  1  0.85924813  0.36457218  0.92333450  1
  O  O56  1  0.50543809  0.14205940  0.92222969  1
  O  O57  1  0.63016992  0.13796023  0.42059795  1
  O  O58  1  0.50363551  0.36175133  0.42122587  1
  O  O59  1  0.85981572  0.49696050  0.42171968  1
  O  O60  1  0.35110401  0.48870569  0.07625060  1
  O  O61  1  0.14153072  0.65545418  0.07823192  1
  O  O62  1  0.52063934  0.85554247  0.07816930  1
  O  O63  1  0.35276282  0.85800526  0.57791799  1
  O  O64  1  0.50499691  0.64659903  0.57822274  1
  O  O65  1  0.14129893  0.49477994  0.57813261  1
  O  O66  1  0.29694327  0.82469204  0.25619107  1
  O  O67  1  0.52884171  0.69835471  0.25782604  1
  O  O68  1  0.17253014  0.47491503  0.25612901  1
  O  O69  1  0.31429055  0.48269238  0.75907442  1
  O  O70  1  0.16854430  0.68651374  0.75881256  1
  O  O71  1  0.51760872  0.83063205  0.75907975  1
loop_
_geom_bond_atom_site_label_1
_geom_bond_atom_site_label_2
_geom_bond_distance
_geom_bond_site_symmetry_2
Na0 O52 2.331417 1_555
Na0 O15 2.388004 1_555
Na0 O51 2.396569 1_555
Na0 O66 2.450016 1_655
Na0 O68 2.670053 1_655
Na0 O11 2.830373 1_655
Na0 O1 2.854782 1_555
Na0 O30 2.894274 1_655
Na1 O49 2.392988 1_555
Na1 O50 2.465536 1_555
Na1 O14 2.515944 1_555
Na1 O71 2.568819 1_555
Na1 O69 2.628655 1_555
Na1 O4 2.775907 1_555
Na1 O6 2.795737 1_555
Na1 O35 2.937592 1_555
Na2 O50 2.394689 1_555
Na2 O48 2.472028 1_555
Na2 O12 2.520905 1_555
Na2 O69 2.582990 1_655
Na2 O70 2.633842 1_655
Na2 O5 2.767998 1_555
Na2 O7 2.802122 1_655
Na2 O33 2.857242 1_655
Na3 O48 2.389097 1_555
Na3 O49 2.461003 1_555
Na3 O13 2.563104 1_555
Na3 O70 2.571080 1_545
Na3 O71 2.628755 1_545
Na3 O3 2.776084 1_555
Na3 O8 2.805667 1_545
Na3 O34 2.850796 1_545
Na4 O43 2.386195 1_555
Na4 O65 2.429702 1_555
Na4 O64 2.484515 1_555
Na4 O7 2.519046 1_555
Na4 O42 2.536659 1_455
Na4 O28 2.554716 1_555
Na5 O44 2.393543 1_455
Na5 O63 2.419339 1_555
Na5 O65 2.486586 1_555
Na5 O8 2.507015 1_555
Na5 O43 2.511957 1_565
Na5 O29 2.655729 1_555
Na6 O42 2.394178 1_565
Na6 O64 2.428715 1_555
Na6 O63 2.481512 1_555
Na6 O6 2.516567 1_555
Na6 O44 2.533670 1_555
Na6 O27 2.554600 1_555
Na7 O62 2.330336 1_555
Na7 O60 2.398768 1_555
Na7 O24 2.414847 1_554
Na7 O45 2.448840 1_555
Na7 O46 2.664725 1_565
Na7 O9 2.825053 1_555
Na7 O19 2.826796 1_555
Na7 O17 2.865654 1_555
Na8 O38 2.329203 1_555
Na8 O0 2.374836 1_555
Na8 O36 2.379476 1_545
Na8 O57 2.455477 1_555
Na8 O58 2.633731 1_555
Na8 O31 2.867045 1_545
Na8 O21 2.888049 1_555
Na8 O29 2.950368 1_545
Na9 O37 2.421001 1_555
Na9 O38 2.529942 1_665
Na9 O42 2.531683 1_565
Na9 O44 2.541926 1_555
Na9 O36 2.547836 1_655
Na9 O43 2.618223 1_665
Na10 O40 2.354243 1_545
Na10 O39 2.368448 1_555
Na10 O41 2.438806 1_445
Na10 O47 2.763959 1_556
Na10 O46 2.810368 1_456
Na10 O45 2.811825 1_446
Na11 O49 2.524819 1_555
Na11 O48 2.529441 1_555
Na11 O50 2.529644 1_555
Na11 O56 2.575367 1_555
Na11 O54 2.579493 1_555
Na11 O55 2.590582 1_555
Na12 O53 2.370615 1_555
Na12 O52 2.418644 1_555
Na12 O51 2.434262 1_555
Na12 O57 2.707130 1_555
Na12 O58 2.729168 1_555
Na12 O59 2.761188 1_555
Na13 O61 2.354913 1_555
Na13 O62 2.405430 1_555
Na13 O60 2.441410 1_555
Na13 O66 2.752810 1_555
Na13 O68 2.763761 1_555
Na13 O67 2.829732 1_555
Na14 O63 2.459667 1_555
Na14 O65 2.464210 1_555
Na14 O64 2.464503 1_555
Na14 O71 2.683557 1_555
Na14 O69 2.687851 1_555
Na14 O70 2.691349 1_555
Nb0 O10 1.984698 1_555
Nb0 O47 1.999217 1_555
Nb0 O46 2.020551 1_455
Nb0 O11 2.023466 1_545
Nb0 O9 2.062280 1_445
Nb0 O45 2.062525 1_445
Nb1 O20 1.989075 1_556
Nb1 O18 2.007036 1_556
Nb1 O56 2.023410 1_555
Nb1 O55 2.030844 1_555
Nb1 O19 2.031216 1_556
Nb1 O54 2.045563 1_555
Nb2 O22 1.968974 1_555
Nb2 O23 1.969636 1_555
Nb2 O59 2.012762 1_555
Nb2 O21 2.016874 1_555
Nb2 O58 2.050918 1_555
Nb2 O57 2.073639 1_555
Nb3 O32 1.985248 1_555
Nb3 O67 1.988633 1_555
Nb3 O31 2.010501 1_555
Nb3 O68 2.025755 1_555
Nb3 O30 2.061435 1_555
Nb3 O66 2.062431 1_555
Nb4 O33 1.960717 1_555
Nb4 O34 1.961442 1_555
Nb4 O35 1.962742 1_555
Nb4 O70 2.068125 1_555
Nb4 O69 2.069586 1_555
Nb4 O71 2.074343 1_555
O0 P0 1.516520 1_555
O0 Zn0 2.099770 1_455
O1 P1 1.508868 1_555
O1 Zn0 1.984580 1_565
O2 P2 1.495461 1_555
O2 Zn0 1.969285 1_555
O3 P3 1.512425 1_555
O3 Zn1 2.050416 1_455
O4 P4 1.511988 1_655
O4 Zn1 2.043890 1_565
O5 P5 1.511551 1_545
O5 Zn1 2.044323 1_555
O6 P5 1.556993 1_555
O6 Zn2 2.085778 1_565
O7 P3 1.557500 1_555
O7 Zn2 2.078332 1_455
O8 P4 1.557353 1_555
O8 Zn2 2.075669 1_465
O9 P1 1.590954 1_555
O10 P2 1.593493 1_455
O11 P0 1.600683 1_565
O12 P6 1.531532 1_555
O12 Zn3 2.023210 1_555
O13 P7 1.532930 1_555
O13 Zn3 2.015900 1_555
O14 P8 1.531045 1_555
O14 Zn3 2.019462 1_555
O15 P9 1.517793 1_555
O15 Zn4 2.089772 1_555
O16 P10 1.495577 1_555
O16 Zn4 1.967543 1_555
O17 P11 1.508706 1_555
O17 Zn4 1.984767 1_555
O18 P11 1.592264 1_555
O19 P9 1.596894 1_555
O20 P10 1.589820 1_555
O21 P7 1.607916 1_555
O22 P8 1.610854 1_555
O23 P6 1.610652 1_555
O24 P12 1.511889 1_555
O24 Zn5 2.093468 1_556
O25 P13 1.494409 1_555
O25 Zn5 1.979338 1_556
O26 P14 1.494838 1_555
O26 Zn5 1.976607 1_556
O27 P15 1.522753 1_555
O27 Zn6 2.013238 1_555
O28 P16 1.516985 1_555
O28 Zn6 1.995983 1_555
O29 P17 1.526681 1_555
O29 Zn6 2.003137 1_555
O30 P17 1.585884 1_555
O31 P15 1.599140 1_555
O32 P16 1.586939 1_555
O33 P13 1.625953 1_555
O34 P14 1.622634 1_555
O35 P12 1.621460 1_555
O36 P17 1.518136 1_555
O36 Zn0 2.175804 1_465
O37 P15 1.502467 1_555
O37 Zn0 2.095169 1_565
O38 P16 1.516311 1_555
O38 Zn0 2.182137 1_455
O39 P13 1.508139 1_555
O39 Zn1 2.107507 1_455
O40 P14 1.508626 1_555
O40 Zn1 2.113245 1_465
O41 P12 1.507147 1_555
O41 Zn1 2.125274 1_565
O42 P6 1.539604 1_555
O42 Zn2 2.267905 1_555
O43 P7 1.541758 1_555
O43 Zn2 2.306533 1_455
O44 P8 1.539258 1_555
O44 Zn2 2.284232 1_565
O45 P9 1.615218 1_555
O46 P10 1.614394 1_555
O47 P11 1.592498 1_555
O48 P5 1.549344 1_545
O48 Zn3 2.166301 1_555
O49 P3 1.548625 1_555
O49 Zn3 2.186882 1_555
O50 P4 1.548696 1_655
O50 Zn3 2.177276 1_555
O51 P1 1.520131 1_555
O51 Zn4 2.189239 1_555
O52 P2 1.521004 1_555
O52 Zn4 2.196372 1_555
O53 P0 1.506178 1_555
O53 Zn4 2.118225 1_555
O54 P12 1.590493 1_555
O55 P13 1.594561 1_655
O56 P14 1.595551 1_545
O57 P15 1.605220 1_545
O58 P16 1.600160 1_555
O59 P17 1.585872 1_655
O60 P11 1.520665 1_555
O60 Zn5 2.165592 1_555
O61 P9 1.508612 1_455
O61 Zn5 2.115705 1_555
O62 P10 1.524092 1_565
O62 Zn5 2.204067 1_555
O63 P7 1.541007 1_565
O63 Zn6 2.192612 1_555
O64 P8 1.538177 1_555
O64 Zn6 2.171798 1_555
O65 P6 1.537963 1_455
O65 Zn6 2.198124 1_555
O66 P0 1.616693 1_565
O67 P1 1.599122 1_555
O68 P2 1.614661 1_455
O69 P3 1.608497 1_555
O70 P4 1.608336 1_555
O71 P5 1.608287 1_555
