# generated using pymatgen
data_MgCo6(OF)6
_symmetry_space_group_name_H-M   'P 1'
_cell_length_a   5.17677080
_cell_length_b   14.66113876
_cell_length_c   2.99856658
_cell_angle_alpha   90.00000000
_cell_angle_beta   90.00000000
_cell_angle_gamma   103.92218229
_symmetry_Int_Tables_number   1
_chemical_formula_structural   MgCo6(OF)6
_chemical_formula_sum   'Mg1 Co6 O6 F6'
_cell_volume   220.89765032
_cell_formula_units_Z   1
loop_
 _symmetry_equiv_pos_site_id
 _symmetry_equiv_pos_as_xyz
  1  'x, y, z'
loop_
 _atom_site_type_symbol
 _atom_site_label
 _atom_site_symmetry_multiplicity
 _atom_site_fract_x
 _atom_site_fract_y
 _atom_site_fract_z
 _atom_site_occupancy
  Mg  Mg0  1  -0.00000000  0.50000000  0.99602429  1
  Co  Co0  1  -0.00000000  0.00000000  0.99325295  1
  Co  Co1  1  0.21904451  0.29201756  0.99474758  1
  Co  Co2  1  0.78095549  0.70798244  0.99474758  1
  Co  Co3  1  0.68499403  0.15195657  0.49364876  1
  Co  Co4  1  0.50000000  0.50000000  0.49577166  1
  Co  Co5  1  0.31500597  0.84804343  0.49364876  1
  O  O0  1  0.11345518  0.93710023  0.49333568  1
  O  O1  1  0.13769771  0.77688870  0.99381026  1
  O  O2  1  0.30398165  0.42945607  0.99569644  1
  O  O3  1  0.69601835  0.57054393  0.99569644  1
  O  O4  1  0.86230229  0.22311130  0.99381026  1
  O  O5  1  0.88654482  0.06289977  0.49333568  1
  F  F0  1  0.41101189  0.24971920  0.49468238  1
  F  F1  1  0.19950964  0.57412090  0.49591588  1
  F  F2  1  0.42229587  0.09436369  0.99355507  1
  F  F3  1  0.57770413  0.90563631  0.99355507  1
  F  F4  1  0.80049036  0.42587910  0.49591588  1
  F  F5  1  0.58898811  0.75028080  0.49468238  1
loop_
_geom_bond_atom_site_label_1
_geom_bond_atom_site_label_2
_geom_bond_distance
_geom_bond_site_symmetry_2
Mg0 O2 2.080679 1_555
Mg0 O3 2.080679 1_455
Co0 O5 1.924349 1_455
Co0 O0 1.924349 1_545
Co0 O5 1.924736 1_456
Co0 O0 1.924736 1_546
Co0 F3 2.288620 1_445
Co0 F2 2.288620 1_555
Co1 O4 1.879730 1_455
Co1 O2 1.956333 1_555
Co1 F0 1.978883 1_556
Co1 F0 1.979180 1_555
Co2 O1 1.879730 1_655
Co2 O3 1.956333 1_555
Co2 F5 1.978883 1_556
Co2 F5 1.979180 1_555
Co3 O5 1.857146 1_555
Co3 O4 1.927801 1_554
Co3 O4 1.928554 1_555
Co3 F2 2.063206 1_555
Co3 F2 2.063614 1_554
Co3 F0 2.245963 1_555
Co4 O2 1.959982 1_555
Co4 O3 1.959982 1_555
Co4 O2 1.960327 1_554
Co4 O3 1.960327 1_554
Co4 F1 2.100989 1_555
Co4 F4 2.100989 1_555
Co5 O0 1.857146 1_555
Co5 O1 1.927801 1_554
Co5 O1 1.928554 1_555
Co5 F3 2.063206 1_555
Co5 F3 2.063614 1_554
Co5 F5 2.245963 1_555
F1 Mg0 1.988569 1_554
F1 Mg0 1.989059 1_555
F4 Mg0 1.988569 1_654
F4 Mg0 1.989059 1_655
