# generated using pymatgen
data_MgMn4(CuO4)3
_symmetry_space_group_name_H-M   'P 1'
_cell_length_a   6.47769061
_cell_length_b   6.58411573
_cell_length_c   7.01472236
_cell_angle_alpha   110.20593908
_cell_angle_beta   114.33116126
_cell_angle_gamma   106.36635378
_symmetry_Int_Tables_number   1
_chemical_formula_structural   MgMn4(CuO4)3
_chemical_formula_sum   'Mg1 Mn4 Cu3 O12'
_cell_volume   222.14835672
_cell_formula_units_Z   1
loop_
 _symmetry_equiv_pos_site_id
 _symmetry_equiv_pos_as_xyz
  1  'x, y, z'
loop_
 _atom_site_type_symbol
 _atom_site_label
 _atom_site_symmetry_multiplicity
 _atom_site_fract_x
 _atom_site_fract_y
 _atom_site_fract_z
 _atom_site_occupancy
  Mg  Mg0  1  0.57038100  0.47138100  0.13637700  1
  Mn  Mn0  1  0.01183800  0.99346800  0.52436900  1
  Mn  Mn1  1  0.00338400  0.48536700  0.01993000  1
  Mn  Mn2  1  0.49995400  0.48529100  0.49490800  1
  Mn  Mn3  1  0.49111300  0.01140600  0.03517600  1
  Cu  Cu0  1  0.47028200  0.60105500  0.85628300  1
  Cu  Cu1  1  0.99707900  0.48983300  0.50873700  1
  Cu  Cu2  1  0.50312000  0.98839700  0.51006600  1
  O  O0  1  0.52921600  0.80536300  0.66718100  1
  O  O1  1  0.13697000  0.80458800  0.32947400  1
  O  O2  1  0.86802700  0.17615000  0.68964300  1
  O  O3  1  0.20567700  0.33833600  0.52841000  1
  O  O4  1  0.29331800  0.44910100  0.19016000  1
  O  O5  1  0.69695000  0.50616100  0.81667200  1
  O  O6  1  0.80020000  0.31449900  0.16878100  1
  O  O7  1  0.67995700  0.84586100  0.19059600  1
  O  O8  1  0.47604600  0.16317700  0.33873900  1
  O  O9  1  0.20592700  0.66722900  0.85694700  1
  O  O10  1  0.80855900  0.65374000  0.50451100  1
  O  O11  1  0.32491800  0.12459700  0.83096000  1
loop_
_geom_bond_atom_site_label_1
_geom_bond_atom_site_label_2
_geom_bond_distance
_geom_bond_site_symmetry_2
Mg0 O4 1.957731 1_555
Mg0 O10 2.005420 1_555
Mg0 O6 2.021081 1_555
Mg0 O11 2.024673 1_554
Mg0 O7 2.207086 1_555
Mn0 O11 1.902675 1_565
Mn0 O7 2.037423 1_455
Mn0 O2 2.053473 1_465
Mn0 O1 2.092698 1_555
Mn0 O10 2.174937 1_455
Mn0 O3 2.247825 1_565
Mn1 O4 1.900496 1_555
Mn1 O5 1.986877 1_454
Mn1 O1 2.038452 1_555
Mn1 O2 2.084050 1_454
Mn1 O6 2.279828 1_455
Mn1 O9 2.399704 1_554
Mn2 O4 1.878516 1_555
Mn2 O0 1.940177 1_555
Mn2 O8 1.947349 1_555
Mn2 O10 1.954165 1_555
Mn2 O5 2.013770 1_555
Mn2 O3 2.027792 1_555
Mn3 O11 1.919727 1_554
Mn3 O6 1.944106 1_555
Mn3 O9 1.972690 1_544
Mn3 O8 2.073348 1_555
Mn3 O7 2.084791 1_545
Mn3 O0 2.619057 1_544
Cu0 O5 1.832125 1_555
Cu0 O7 1.863539 1_556
Cu0 O9 1.883570 1_555
Cu0 O3 1.884730 1_555
Cu0 O0 2.252861 1_555
Cu1 O10 1.841669 1_555
Cu1 O6 1.846198 1_555
Cu1 O3 1.881711 1_655
Cu1 O9 1.891157 1_655
Cu2 O2 1.877837 1_565
Cu2 O1 1.882109 1_555
Cu2 O0 1.890590 1_555
Cu2 O8 1.922189 1_565
