# generated using pymatgen
data_Na6MgTa5Si6(PO12)3
_symmetry_space_group_name_H-M   'P 1'
_cell_length_a   8.93900906
_cell_length_b   8.93900875
_cell_length_c   22.69348604
_cell_angle_alpha   89.90419713
_cell_angle_beta   90.09580286
_cell_angle_gamma   120.09483638
_symmetry_Int_Tables_number   1
_chemical_formula_structural   Na6MgTa5Si6(PO12)3
_chemical_formula_sum   'Na12 Mg2 Ta10 Si12 P6 O72'
_cell_volume   1568.89528179
_cell_formula_units_Z   2
loop_
 _symmetry_equiv_pos_site_id
 _symmetry_equiv_pos_as_xyz
  1  'x, y, z'
loop_
 _atom_site_type_symbol
 _atom_site_label
 _atom_site_symmetry_multiplicity
 _atom_site_fract_x
 _atom_site_fract_y
 _atom_site_fract_z
 _atom_site_occupancy
  Na  Na0  1  0.37517928  0.36667392  0.24302953  1
  Na  Na1  1  0.98541539  0.61872959  0.24404425  1
  Na  Na2  1  0.63332608  0.62482072  0.74302953  1
  Na  Na3  1  0.38127041  0.01458461  0.74404425  1
  Na  Na4  1  0.66072323  0.97366011  0.58528566  1
  Na  Na5  1  0.02633989  0.33927677  0.08528566  1
  Na  Na6  1  0.00879502  0.99839926  0.49886552  1
  Na  Na7  1  0.00160074  0.99120498  0.99886552  1
  Na  Na8  1  0.67651397  0.32928210  0.83140469  1
  Na  Na9  1  0.67071790  0.32348603  0.33140469  1
  Na  Na10  1  0.34586315  0.67932569  0.16381722  1
  Na  Na11  1  0.32067431  0.65413685  0.66381722  1
  Mg  Mg0  1  0.67131639  0.33107079  0.68394645  1
  Mg  Mg1  1  0.66892921  0.32868361  0.18394645  1
  Ta  Ta0  1  0.99744418  0.00373624  0.35732125  1
  Ta  Ta1  1  0.99626376  0.00255582  0.85732125  1
  Ta  Ta2  1  0.99963190  0.99778213  0.64380327  1
  Ta  Ta3  1  0.00221787  0.00036810  0.14380327  1
  Ta  Ta4  1  0.66391616  0.33712191  0.97848522  1
  Ta  Ta5  1  0.66287809  0.33608384  0.47848522  1
  Ta  Ta6  1  0.33377779  0.66772630  0.01987077  1
  Ta  Ta7  1  0.33227370  0.66622221  0.51987077  1
  Ta  Ta8  1  0.33277417  0.66650607  0.31466252  1
  Ta  Ta9  1  0.33349393  0.66722583  0.81466252  1
  Si  Si0  1  0.99247102  0.28808731  0.24990068  1
  Si  Si1  1  0.71191269  0.00752898  0.74990068  1
  Si  Si2  1  0.37833989  0.04585154  0.58559191  1
  Si  Si3  1  0.66266369  0.61566252  0.58675680  1
  Si  Si4  1  0.95414846  0.62166011  0.08559191  1
  Si  Si5  1  0.38433748  0.33733631  0.08675680  1
  Si  Si6  1  0.62111058  0.66501751  0.91683080  1
  Si  Si7  1  0.04216185  0.37877683  0.91739444  1
  Si  Si8  1  0.33490755  0.95706704  0.91653248  1
  Si  Si9  1  0.62122317  0.95783815  0.41739444  1
  Si  Si10  1  0.33498249  0.37888942  0.41683080  1
  Si  Si11  1  0.04293296  0.66509245  0.41653248  1
  P  P0  1  0.28741748  0.00008633  0.25087737  1
  P  P1  1  0.71250116  0.71619982  0.25064508  1
  P  P2  1  0.28380018  0.28749884  0.75064508  1
  P  P3  1  -0.00008633  0.71258252  0.75087737  1
  P  P4  1  0.95565367  0.33755724  0.58432790  1
  P  P5  1  0.66244276  0.04434633  0.08432790  1
  O  O0  1  0.19213997  0.01887847  0.30462700  1
  O  O1  1  0.82855939  0.80678981  0.30469862  1
  O  O2  1  0.98280876  0.16670782  0.30602204  1
  O  O3  1  0.19321019  0.17144061  0.80469862  1
  O  O4  1  0.98112153  0.80786003  0.80462700  1
  O  O5  1  0.83329218  0.01719124  0.80602204  1
  O  O6  1  0.80249659  0.96875716  0.69221672  1
  O  O7  1  0.16999439  0.19779425  0.69558145  1
  O  O8  1  0.03400491  0.83345274  0.69569928  1
  O  O9  1  0.80220575  0.83000561  0.19558145  1
  O  O10  1  0.03124284  0.19750341  0.19221672  1
  O  O11  1  0.16654726  0.96599509  0.19569928  1
  O  O12  1  0.88108063  0.36684628  0.63956419  1
  O  O13  1  0.49188336  0.11106650  0.64408150  1
  O  O14  1  0.63370871  0.51505339  0.64689072  1
  O  O15  1  0.88893350  0.50811664  0.14408150  1
  O  O16  1  0.63315372  0.11891937  0.13956419  1
  O  O17  1  0.48494661  0.36629129  0.14689072  1
  O  O18  1  0.47204321  0.30330103  0.02793664  1
  O  O19  1  0.83309125  0.52568361  0.02726295  1
  O  O20  1  0.70156655  0.16101235  0.02904703  1
  O  O21  1  0.47431639  0.16690875  0.52726295  1
  O  O22  1  0.69669897  0.52795679  0.52793664  1
  O  O23  1  0.83898765  0.29843345  0.52904703  1
  O  O24  1  0.52902642  0.69605189  0.97287229  1
  O  O25  1  0.16276691  0.46669869  0.97516437  1
  O  O26  1  0.30413830  0.83200097  0.97248725  1
  O  O27  1  0.53330131  0.83723309  0.47516437  1
  O  O28  1  0.30394811  0.47097358  0.47287229  1
  O  O29  1  0.16799903  0.69586170  0.47248725  1
  O  O30  1  0.13586206  0.63818354  0.35727215  1
  O  O31  1  0.49901672  0.86064656  0.35957344  1
  O  O32  1  0.36232529  0.49716593  0.35735467  1
  O  O33  1  0.13935344  0.50098328  0.85957344  1
  O  O34  1  0.36181646  0.86413794  0.85727215  1
  O  O35  1  0.50283407  0.63767471  0.85735467  1
  O  O36  1  0.02465555  0.83569148  0.40656674  1
  O  O37  1  0.80980469  0.97206408  0.40825561  1
  O  O38  1  0.16546690  0.18717017  0.40819129  1
  O  O39  1  0.02793592  0.19019531  0.90825561  1
  O  O40  1  0.16430852  0.97534445  0.90656674  1
  O  O41  1  0.81282983  0.83453310  0.90819129  1
  O  O42  1  0.97215537  0.16853515  0.59101917  1
  O  O43  1  0.18431421  0.02563409  0.59121411  1
  O  O44  1  0.83476644  0.81916154  0.59087670  1
  O  O45  1  0.97436591  0.81568579  0.09121411  1
  O  O46  1  0.83146485  0.02784463  0.09101917  1
  O  O47  1  0.18083846  0.16523356  0.09087670  1
  O  O48  1  0.68105813  0.16740925  0.74868781  1
  O  O49  1  0.46423097  0.30993727  0.74733990  1
  O  O50  1  0.83830541  0.53742752  0.74580728  1
  O  O51  1  0.69006273  0.53576903  0.24733990  1
  O  O52  1  0.83259075  0.31894187  0.24868781  1
  O  O53  1  0.46257248  0.16169459  0.24580728  1
  O  O54  1  0.63989766  0.49426424  0.92356340  1
  O  O55  1  0.85210017  0.35552214  0.92496128  1
  O  O56  1  0.50648544  0.14456422  0.92466473  1
  O  O57  1  0.64447786  0.14789983  0.42496128  1
  O  O58  1  0.50573576  0.36010234  0.42356340  1
  O  O59  1  0.85543578  0.49351456  0.42466473  1
  O  O60  1  0.34639537  0.49891459  0.07470945  1
  O  O61  1  0.14895085  0.64761041  0.07330983  1
  O  O62  1  0.50828269  0.85926961  0.07417616  1
  O  O63  1  0.35238959  0.85104915  0.57330983  1
  O  O64  1  0.50108541  0.65360463  0.57470945  1
  O  O65  1  0.14073039  0.49171731  0.57417616  1
  O  O66  1  0.29626584  0.82961162  0.25594368  1
  O  O67  1  0.52952795  0.69900478  0.25620094  1
  O  O68  1  0.17837890  0.47999609  0.25609886  1
  O  O69  1  0.30099522  0.47047205  0.75620094  1
  O  O70  1  0.17038838  0.70373416  0.75594368  1
  O  O71  1  0.52000391  0.82162110  0.75609886  1
loop_
_geom_bond_atom_site_label_1
_geom_bond_atom_site_label_2
_geom_bond_distance
_geom_bond_site_symmetry_2
Na0 O53 2.325209 1_555
Na0 O17 2.394423 1_555
Na0 O51 2.439241 1_555
Na0 O68 2.449245 1_555
Na0 O67 2.590208 1_555
Na0 O32 2.872365 1_555
Na0 O10 2.898301 1_555
Na1 O52 2.320960 1_555
Na1 O51 2.358590 1_555
Na1 O15 2.452212 1_555
Na1 O66 2.468544 1_655
Na1 O68 2.594342 1_655
Na1 O30 2.862999 1_655
Na1 O11 2.900930 1_655
Na1 O1 3.010759 1_555
Na2 O50 2.325209 1_555
Na2 O14 2.394423 1_555
Na2 O49 2.439241 1_555
Na2 O71 2.449245 1_555
Na2 O69 2.590208 1_555
Na2 O35 2.872365 1_555
Na2 O6 2.898301 1_555
Na3 O48 2.320960 1_555
Na3 O49 2.358590 1_555
Na3 O13 2.452212 1_555
Na3 O70 2.468544 1_545
Na3 O71 2.594342 1_545
Na3 O34 2.862999 1_545
Na3 O8 2.900930 1_545
Na3 O3 3.010759 1_555
Na4 O63 2.416760 1_555
Na4 O42 2.436732 1_565
Na4 O64 2.487161 1_555
Na4 O44 2.549000 1_555
Na4 O13 2.727299 1_565
Na4 O6 2.746205 1_555
Na4 O27 2.763588 1_555
Na4 O23 2.819811 1_565
Na5 O61 2.416760 1_555
Na5 O46 2.436732 1_455
Na5 O60 2.487161 1_555
Na5 O47 2.549000 1_555
Na5 O15 2.727299 1_455
Na5 O10 2.746205 1_555
Na5 O25 2.763588 1_554
Na5 O20 2.819811 1_455
Na6 O43 2.553543 1_565
Na6 O38 2.582827 1_565
Na6 O36 2.596298 1_555
Na6 O44 2.616703 1_455
Na6 O37 2.648979 1_455
Na6 O42 2.702997 1_465
Na7 O45 2.553543 1_456
Na7 O41 2.582827 1_455
Na7 O40 2.596298 1_555
Na7 O47 2.616703 1_566
Na7 O39 2.648979 1_565
Na7 O46 2.702997 1_466
Na8 O48 2.384812 1_555
Na8 O50 2.574011 1_555
Na8 O55 2.578280 1_555
Na8 O49 2.632511 1_555
Na8 O56 2.645351 1_555
Na8 O54 2.674466 1_555
Na9 O52 2.384812 1_555
Na9 O53 2.574011 1_555
Na9 O57 2.578280 1_555
Na9 O51 2.632510 1_555
Na9 O59 2.645351 1_555
Na9 O58 2.674466 1_555
Na10 O62 2.547624 1_555
Na10 O60 2.590096 1_555
Na10 O67 2.611863 1_555
Na10 O61 2.624254 1_555
Na10 O66 2.642349 1_555
Na10 O68 2.669206 1_555
Na11 O65 2.547624 1_555
Na11 O64 2.590097 1_555
Na11 O69 2.611863 1_555
Na11 O63 2.624254 1_555
Na11 O70 2.642349 1_555
Na11 O71 2.669206 1_555
Mg0 O12 2.009108 1_555
Mg0 O14 2.018377 1_555
Mg0 O13 2.023954 1_555
Mg0 O48 2.103946 1_555
Mg0 O50 2.200423 1_555
Mg0 O49 2.278007 1_555
Mg1 O16 2.009107 1_555
Mg1 O17 2.018377 1_555
Mg1 O15 2.023954 1_555
Mg1 O52 2.103946 1_555
Mg1 O53 2.200423 1_555
Mg1 O51 2.278007 1_555
O0 P0 1.545657 1_555
O0 Ta0 2.060926 1_455
O1 P1 1.547029 1_555
O1 Ta0 2.034741 1_565
O2 Si0 1.645754 1_555
O2 Ta0 1.918231 1_555
O3 P2 1.547029 1_555
O3 Ta1 2.034741 1_455
O4 P3 1.545657 1_655
O4 Ta1 2.060926 1_565
O5 Si1 1.645754 1_555
O5 Ta1 1.918231 1_555
O6 Si1 1.666103 1_565
O6 Ta2 1.981596 1_555
O7 P2 1.555761 1_555
O7 Ta2 2.041306 1_445
O8 P3 1.579484 1_555
O8 Ta2 2.021095 1_455
O9 P1 1.555761 1_555
O9 Ta3 2.041306 1_665
O10 Si0 1.666103 1_455
O10 Ta3 1.981596 1_555
O11 P0 1.579484 1_565
O11 Ta3 2.021095 1_565
O12 P4 1.504363 1_555
O13 Si2 1.592643 1_555
O14 Si3 1.581681 1_555
O15 Si4 1.592643 1_555
O16 P5 1.504363 1_555
O17 Si5 1.581681 1_555
O18 Si5 1.653201 1_555
O18 Ta4 1.943663 1_554
O19 Si4 1.651411 1_555
O19 Ta4 1.948761 1_554
O20 P5 1.554039 1_555
O20 Ta4 2.105257 1_554
O21 Si2 1.651411 1_555
O21 Ta5 1.948761 1_555
O22 Si3 1.653201 1_555
O22 Ta5 1.943663 1_555
O23 P4 1.554039 1_555
O23 Ta5 2.105257 1_555
O24 Si6 1.614195 1_555
O24 Ta6 1.951914 1_556
O25 Si7 1.627169 1_555
O25 Ta6 1.959931 1_556
O26 Si8 1.620482 1_555
O26 Ta6 1.940814 1_556
O27 Si9 1.627169 1_555
O27 Ta7 1.959931 1_555
O28 Si10 1.614195 1_555
O28 Ta7 1.951914 1_555
O29 Si11 1.620482 1_555
O29 Ta7 1.940814 1_555
O30 Si11 1.661826 1_555
O30 Ta8 1.911902 1_555
O31 Si9 1.648375 1_555
O31 Ta8 1.916587 1_555
O32 Si10 1.654234 1_555
O32 Ta8 1.922253 1_555
O33 Si7 1.648375 1_555
O33 Ta9 1.916587 1_555
O34 Si8 1.661826 1_555
O34 Ta9 1.911902 1_555
O35 Si6 1.654234 1_555
O35 Ta9 1.922253 1_555
O36 Si11 1.628501 1_555
O36 Ta0 1.981027 1_465
O37 Si9 1.639199 1_555
O37 Ta0 1.938746 1_565
O38 Si10 1.633222 1_555
O38 Ta0 1.951389 1_455
O39 Si7 1.639199 1_555
O39 Ta1 1.938746 1_455
O40 Si8 1.628501 1_555
O40 Ta1 1.981027 1_465
O41 Si6 1.633222 1_555
O41 Ta1 1.951389 1_565
O42 P4 1.596957 1_555
O42 Ta2 2.047886 1_545
O43 Si2 1.656319 1_555
O43 Ta2 1.950656 1_445
O44 Si3 1.696496 1_555
O44 Ta2 1.950533 1_555
O45 Si4 1.656319 1_555
O45 Ta3 1.950656 1_665
O46 P5 1.596957 1_555
O46 Ta3 2.047886 1_655
O47 Si5 1.696496 1_555
O47 Ta3 1.950533 1_555
O48 Si1 1.585721 1_555
O49 P2 1.524184 1_555
O50 P3 1.511067 1_655
O51 P1 1.524184 1_555
O52 Si0 1.585721 1_555
O53 P0 1.511067 1_555
O54 Si6 1.624051 1_555
O54 Ta4 1.966827 1_555
O55 Si7 1.614264 1_655
O55 Ta4 2.015150 1_555
O56 Si8 1.617910 1_545
O56 Ta4 2.001749 1_555
O57 Si9 1.614264 1_545
O57 Ta5 2.015150 1_555
O58 Si10 1.624051 1_555
O58 Ta5 1.966827 1_555
O59 Si11 1.617910 1_655
O59 Ta5 2.001749 1_555
O60 Si5 1.663000 1_555
O60 Ta6 2.000625 1_555
O61 Si4 1.661347 1_455
O61 Ta6 1.985124 1_555
O62 P5 1.550149 1_565
O62 Ta6 2.050805 1_555
O63 Si2 1.661347 1_565
O63 Ta7 1.985124 1_555
O64 Si3 1.663000 1_555
O64 Ta7 2.000625 1_555
O65 P4 1.550149 1_455
O65 Ta7 2.050805 1_555
O66 P0 1.569054 1_565
O66 Ta8 2.115928 1_555
O67 P1 1.569461 1_555
O67 Ta8 2.105220 1_555
O68 Si0 1.692734 1_455
O68 Ta8 2.035770 1_555
O69 P2 1.569461 1_555
O69 Ta9 2.105220 1_555
O70 P3 1.569054 1_555
O70 Ta9 2.115928 1_555
O71 Si1 1.692734 1_565
O71 Ta9 2.035770 1_555
