# generated using pymatgen
data_MgVS2
_symmetry_space_group_name_H-M   'P 1'
_cell_length_a   7.50320141
_cell_length_b   7.50320263
_cell_length_c   7.75158982
_cell_angle_alpha   34.23463285
_cell_angle_beta   34.23463109
_cell_angle_gamma   47.08866079
_symmetry_Int_Tables_number   1
_chemical_formula_structural   MgVS2
_chemical_formula_sum   'Mg1 V1 S2'
_cell_volume   138.11553612
_cell_formula_units_Z   1
loop_
 _symmetry_equiv_pos_site_id
 _symmetry_equiv_pos_as_xyz
  1  'x, y, z'
loop_
 _atom_site_type_symbol
 _atom_site_label
 _atom_site_symmetry_multiplicity
 _atom_site_fract_x
 _atom_site_fract_y
 _atom_site_fract_z
 _atom_site_occupancy
  Mg  Mg0  1  0.50000000  0.50000000  0.00000000  1
  V  V0  1  0.00000000  0.00000000  0.00000000  1
  S  S0  1  0.64206178  0.64206177  0.48852006  1
  S  S1  1  0.35793822  0.35793823  0.51147994  1
loop_
_geom_bond_atom_site_label_1
_geom_bond_atom_site_label_2
_geom_bond_distance
_geom_bond_site_symmetry_2
Mg0 S1 2.358680 1_555
Mg0 S0 2.358680 1_554
S0 V0 2.226065 1_665
S1 V0 2.226065 1_556
