# generated using pymatgen
data_HfTiP2SO12
_symmetry_space_group_name_H-M   'P 1'
_cell_length_a   8.75293290
_cell_length_b   8.75549064
_cell_length_c   22.54978381
_cell_angle_alpha   90.45287273
_cell_angle_beta   89.97722232
_cell_angle_gamma   119.97381243
_symmetry_Int_Tables_number   1
_chemical_formula_structural   HfTiP2SO12
_chemical_formula_sum   'Hf6 Ti6 P12 S6 O72'
_cell_volume   1496.94011931
_cell_formula_units_Z   6
loop_
 _symmetry_equiv_pos_site_id
 _symmetry_equiv_pos_as_xyz
  1  'x, y, z'
loop_
 _atom_site_type_symbol
 _atom_site_label
 _atom_site_symmetry_multiplicity
 _atom_site_fract_x
 _atom_site_fract_y
 _atom_site_fract_z
 _atom_site_occupancy
  Hf  Hf0  1  0.00229043  0.00090815  0.85480788  1
  Hf  Hf1  1  0.67018830  0.33748488  0.19327319  1
  Hf  Hf2  1  0.65937980  0.33785091  0.97814631  1
  Hf  Hf3  1  0.33420017  0.67065907  0.02444386  1
  Hf  Hf4  1  0.33722757  0.66915411  0.52376726  1
  Hf  Hf5  1  0.34527184  0.67168584  0.80678018  1
  Ti  Ti0  1  0.99869943  0.00465564  0.35664228  1
  Ti  Ti1  1  0.98959445  0.00728733  0.64179959  1
  Ti  Ti2  1  0.01760271  0.00595092  0.14581953  1
  Ti  Ti3  1  0.66360042  0.33500511  0.68835043  1
  Ti  Ti4  1  0.68585654  0.34096330  0.47639821  1
  Ti  Ti5  1  0.32224839  0.67367087  0.31095293  1
  P  P0  1  0.27965840  0.99719133  0.25221303  1
  P  P1  1  0.00889722  0.28445803  0.25172032  1
  P  P2  1  0.28527746  0.28015455  0.74633975  1
  P  P3  1  0.71860533  0.01050328  0.74691043  1
  P  P4  1  0.94690481  0.33253390  0.58406279  1
  P  P5  1  0.67422067  0.61625651  0.58384212  1
  P  P6  1  0.95233721  0.62659338  0.08577722  1
  P  P7  1  0.37534570  0.33000966  0.08583447  1
  P  P8  1  0.62124112  0.66903593  0.91633804  1
  P  P9  1  0.33387574  0.95269827  0.91618038  1
  P  P10  1  0.61842677  0.95428423  0.41538712  1
  P  P11  1  0.04706389  0.67130050  0.41590558  1
  S  S0  1  0.71235450  0.72255854  0.25154441  1
  S  S1  1  0.99524369  0.70999563  0.74664696  1
  S  S2  1  0.37987358  0.05428559  0.58349002  1
  S  S3  1  0.67661783  0.04823198  0.08524292  1
  S  S4  1  0.04569033  0.38082970  0.91612012  1
  S  S5  1  0.33650709  0.37839534  0.41541723  1
  O  O0  1  0.18951120  0.02392280  0.30612744  1
  O  O1  1  0.82517925  0.80163223  0.30456299  1
  O  O2  1  0.97841990  0.16693859  0.30629114  1
  O  O3  1  0.20796947  0.16827841  0.80222884  1
  O  O4  1  0.96447721  0.78758786  0.80126298  1
  O  O5  1  0.83149925  0.04049910  0.80247056  1
  O  O6  1  0.80794643  0.97674190  0.69264923  1
  O  O7  1  0.16524933  0.18572597  0.69230762  1
  O  O8  1  0.02646063  0.82180973  0.69534755  1
  O  O9  1  0.79091785  0.82745875  0.19812681  1
  O  O10  1  0.03522971  0.19517191  0.19641791  1
  O  O11  1  0.16505881  0.96369678  0.19571292  1
  O  O12  1  0.85769166  0.35896690  0.63820958  1
  O  O13  1  0.49148529  0.13219760  0.63706891  1
  O  O14  1  0.64332258  0.49983171  0.63864204  1
  O  O15  1  0.86593998  0.50784729  0.13960542  1
  O  O16  1  0.64341238  0.13012181  0.13750393  1
  O  O17  1  0.49270924  0.35887857  0.13976784  1
  O  O18  1  0.45553100  0.29374804  0.03018717  1
  O  O19  1  0.83772375  0.54103108  0.03017871  1
  O  O20  1  0.70383374  0.15545986  0.03182876  1
  O  O21  1  0.45956431  0.16121256  0.53055777  1
  O  O22  1  0.70075454  0.52608075  0.52844086  1
  O  O23  1  0.83095031  0.29932329  0.52767478  1
  O  O24  1  0.53435034  0.69507713  0.97150184  1
  O  O25  1  0.15472456  0.46111843  0.96956571  1
  O  O26  1  0.30391141  0.83865250  0.97120679  1
  O  O27  1  0.53942328  0.83802461  0.47035682  1
  O  O28  1  0.30082744  0.45657496  0.46906090  1
  O  O29  1  0.16320619  0.70264872  0.47054878  1
  O  O30  1  0.13313892  0.63483988  0.36105773  1
  O  O31  1  0.49685641  0.86223569  0.36114160  1
  O  O32  1  0.36622649  0.48973691  0.36345824  1
  O  O33  1  0.12520438  0.48761376  0.86317139  1
  O  O34  1  0.35711408  0.86268519  0.86079153  1
  O  O35  1  0.50467414  0.63679282  0.86115933  1
  O  O36  1  0.02084377  0.82866819  0.40342981  1
  O  O37  1  0.80333926  0.97876122  0.40265516  1
  O  O38  1  0.17681142  0.20053882  0.40723224  1
  O  O39  1  0.02855412  0.20505882  0.90926626  1
  O  O40  1  0.17265668  0.97567674  0.90761270  1
  O  O41  1  0.80215213  0.83179907  0.90665475  1
  O  O42  1  0.96454394  0.16558268  0.59287053  1
  O  O43  1  0.20266363  0.03081525  0.59265807  1
  O  O44  1  0.83901758  0.79888226  0.59520407  1
  O  O45  1  0.96862741  0.80857232  0.09726140  1
  O  O46  1  0.83001387  0.02644437  0.09432122  1
  O  O47  1  0.19125062  0.16455970  0.09559683  1
  O  O48  1  0.69650617  0.17097705  0.73574132  1
  O  O49  1  0.47018254  0.30380203  0.73501112  1
  O  O50  1  0.83725371  0.53318298  0.73980947  1
  O  O51  1  0.69489671  0.54417880  0.24474890  1
  O  O52  1  0.84591804  0.30497080  0.24271594  1
  O  O53  1  0.46299232  0.15716848  0.24285494  1
  O  O54  1  0.64162964  0.50569731  0.92397063  1
  O  O55  1  0.86926542  0.35871228  0.92482167  1
  O  O56  1  0.50019465  0.13296311  0.92528958  1
  O  O57  1  0.63883076  0.13831391  0.42738397  1
  O  O58  1  0.49077086  0.35622148  0.42572783  1
  O  O59  1  0.86288103  0.50387387  0.42614610  1
  O  O60  1  0.35173384  0.48924924  0.07569296  1
  O  O61  1  0.13655293  0.65046664  0.07632945  1
  O  O62  1  0.51698937  0.87197364  0.07795269  1
  O  O63  1  0.36265546  0.87627064  0.57637328  1
  O  O64  1  0.51173277  0.63766115  0.57439915  1
  O  O65  1  0.12977222  0.49307399  0.57432947  1
  O  O66  1  0.29704955  0.83008593  0.26133470  1
  O  O67  1  0.53505087  0.69894896  0.26052644  1
  O  O68  1  0.17375393  0.46726561  0.26324561  1
  O  O69  1  0.30229690  0.46225711  0.75487398  1
  O  O70  1  0.15050758  0.68778977  0.75580512  1
  O  O71  1  0.53531149  0.84477918  0.75380563  1
loop_
_geom_bond_atom_site_label_1
_geom_bond_atom_site_label_2
_geom_bond_distance
_geom_bond_site_symmetry_2
Hf0 O40 2.006261 1_545
Hf0 O41 2.015432 1_445
Hf0 O3 2.045466 1_555
Hf0 O5 2.067238 1_455
Hf0 O39 2.076241 1_555
Hf0 O4 2.098285 1_445
Hf1 O15 2.024451 1_555
Hf1 O52 2.033202 1_555
Hf1 O53 2.048644 1_555
Hf1 O17 2.049359 1_555
Hf1 O51 2.060365 1_555
Hf1 O16 2.114638 1_555
Hf2 O54 1.983154 1_555
Hf2 O18 2.006721 1_556
Hf2 O56 2.012483 1_555
Hf2 O19 2.042501 1_556
Hf2 O55 2.126191 1_555
Hf2 O20 2.195165 1_556
Hf3 O61 2.022153 1_555
Hf3 O26 2.023042 1_554
Hf3 O60 2.038289 1_555
Hf3 O24 2.041623 1_554
Hf3 O62 2.067025 1_555
Hf3 O25 2.109727 1_554
Hf4 O64 2.034661 1_555
Hf4 O27 2.044666 1_555
Hf4 O65 2.050106 1_555
Hf4 O29 2.073559 1_555
Hf4 O63 2.075596 1_555
Hf4 O28 2.111634 1_555
Hf5 O35 1.994211 1_555
Hf5 O71 1.999702 1_555
Hf5 O34 2.021236 1_555
Hf5 O69 2.037402 1_555
Hf5 O70 2.119357 1_555
Hf5 O33 2.203014 1_555
O0 P0 1.527979 1_545
O0 Ti0 1.958430 1_455
O1 S0 1.479397 1_555
O1 Ti0 2.028907 1_565
O2 P1 1.545848 1_655
O2 Ti0 1.901893 1_555
O3 P2 1.536954 1_555
O4 S1 1.490017 1_555
O5 P3 1.533484 1_555
O6 P3 1.555807 1_565
O6 Ti1 1.868902 1_565
O7 P2 1.545643 1_555
O7 Ti1 1.917038 1_455
O8 S1 1.456573 1_455
O8 Ti1 2.180435 1_465
O9 S0 1.467356 1_555
O9 Ti2 2.167802 1_665
O10 P1 1.543956 1_555
O10 Ti2 1.945565 1_555
O11 P0 1.554541 1_555
O11 Ti2 1.885038 1_565
O12 P4 1.526277 1_555
O12 Ti3 1.963328 1_555
O13 S2 1.483738 1_555
O13 Ti3 2.013904 1_555
O14 P5 1.543836 1_555
O14 Ti3 1.911090 1_555
O15 P6 1.536154 1_555
O16 S3 1.477139 1_555
O17 P7 1.528062 1_555
O18 P7 1.543913 1_555
O19 P6 1.541002 1_555
O20 S3 1.477531 1_555
O21 S2 1.467043 1_555
O21 Ti4 2.192104 1_555
O22 P5 1.550941 1_555
O22 Ti4 1.944239 1_555
O23 P4 1.559410 1_555
O23 Ti4 1.885009 1_555
O24 P8 1.531608 1_555
O25 S4 1.474660 1_555
O26 P9 1.537257 1_555
O27 P10 1.538425 1_555
O28 S5 1.493167 1_555
O29 P11 1.530989 1_555
O30 P11 1.559668 1_555
O30 Ti5 1.890587 1_555
O31 P10 1.551337 1_555
O31 Ti5 1.947553 1_555
O32 S5 1.468068 1_555
O32 Ti5 2.189387 1_555
O33 S4 1.466596 1_555
O34 P9 1.538480 1_555
O35 P8 1.541611 1_555
O36 P11 1.533747 1_555
O36 Ti0 1.961943 1_465
O37 P10 1.549838 1_555
O37 Ti0 1.914920 1_565
O38 S5 1.494509 1_555
O38 Ti0 1.993021 1_455
O39 S4 1.476615 1_555
O40 P9 1.534154 1_555
O41 P8 1.528337 1_555
O42 P4 1.558874 1_555
O42 Ti1 1.874652 1_555
O43 S2 1.474051 1_555
O43 Ti1 2.089647 1_455
O44 P5 1.546687 1_555
O44 Ti1 1.933487 1_565
O45 P6 1.546786 1_555
O45 Ti2 1.897223 1_665
O46 S3 1.462125 1_555
O46 Ti2 2.091879 1_655
O47 P7 1.554281 1_555
O47 Ti2 1.853561 1_555
O48 P3 1.533670 1_555
O48 Ti3 1.930107 1_555
O49 P2 1.547004 1_555
O49 Ti3 1.894432 1_555
O50 S1 1.479852 1_555
O50 Ti3 2.000461 1_555
O51 S0 1.497941 1_555
O52 P1 1.537962 1_655
O53 P0 1.529714 1_545
O54 P8 1.538055 1_555
O55 S4 1.470449 1_655
O56 P9 1.533559 1_545
O57 P10 1.551413 1_545
O57 Ti4 1.943904 1_555
O58 S5 1.475754 1_555
O58 Ti4 2.114498 1_555
O59 P11 1.563610 1_655
O59 Ti4 1.880232 1_555
O60 P7 1.527043 1_555
O61 P6 1.533840 1_455
O62 S3 1.484065 1_565
O63 S2 1.496356 1_565
O64 P5 1.539626 1_555
O65 P4 1.530502 1_455
O66 P0 1.559947 1_555
O66 Ti5 1.871440 1_555
O67 S0 1.473802 1_555
O67 Ti5 2.098052 1_555
O68 P1 1.548393 1_555
O68 Ti5 1.932857 1_555
O69 P2 1.535960 1_555
O70 S1 1.480622 1_455
O71 P3 1.542992 1_565
