# generated using pymatgen
data_Zn3B7ClO13
_symmetry_space_group_name_H-M   'P 1'
_cell_length_a   8.65923854
_cell_length_b   8.65923854
_cell_length_c   8.65923867
_cell_angle_alpha   59.80068696
_cell_angle_beta   59.80068696
_cell_angle_gamma   59.80068319
_symmetry_Int_Tables_number   1
_chemical_formula_structural   Zn3B7ClO13
_chemical_formula_sum   'Zn6 B14 Cl2 O26'
_cell_volume   457.04046940
_cell_formula_units_Z   2
loop_
 _symmetry_equiv_pos_site_id
 _symmetry_equiv_pos_as_xyz
  1  'x, y, z'
loop_
 _atom_site_type_symbol
 _atom_site_label
 _atom_site_symmetry_multiplicity
 _atom_site_fract_x
 _atom_site_fract_y
 _atom_site_fract_z
 _atom_site_occupancy
  Zn  Zn0  1  0.02760700  0.02872700  0.46440200  1
  Zn  Zn1  1  0.02872700  0.46440200  0.02760700  1
  Zn  Zn2  1  0.46440200  0.02760700  0.02872700  1
  Zn  Zn3  1  0.52872700  0.52760700  0.96440200  1
  Zn  Zn4  1  0.52760700  0.96440200  0.52872700  1
  Zn  Zn5  1  0.96440200  0.52872700  0.52760700  1
  B  B0  1  0.73310900  0.42711900  0.42664600  1
  B  B1  1  0.39687300  0.39687300  0.39687300  1
  B  B2  1  0.89687300  0.89687300  0.89687300  1
  B  B3  1  0.42711900  0.42664600  0.73310900  1
  B  B4  1  0.42664600  0.73310900  0.42711900  1
  B  B5  1  0.92711900  0.23310900  0.92664600  1
  B  B6  1  0.23310900  0.92664600  0.92711900  1
  B  B7  1  0.92664600  0.92711900  0.23310900  1
  B  B8  1  0.75214600  0.75336300  0.24583400  1
  B  B9  1  0.24583400  0.75214600  0.75336300  1
  B  B10  1  0.75336300  0.24583400  0.75214600  1
  B  B11  1  0.25214600  0.74583400  0.25336300  1
  B  B12  1  0.25336300  0.25214600  0.74583400  1
  B  B13  1  0.74583400  0.25336300  0.25214600  1
  Cl  Cl0  1  0.23033700  0.23033700  0.23033700  1
  Cl  Cl1  1  0.73033700  0.73033700  0.73033700  1
  O  O0  1  0.38736600  0.56509200  0.81056900  1
  O  O1  1  0.81056900  0.38736600  0.56509200  1
  O  O2  1  0.75167000  0.28522900  0.89946900  1
  O  O3  1  0.89946900  0.75167000  0.28522900  1
  O  O4  1  0.28522900  0.89946900  0.75167000  1
  O  O5  1  0.39946900  0.78522900  0.25167000  1
  O  O6  1  0.25167000  0.39946900  0.78522900  1
  O  O7  1  0.78522900  0.25167000  0.39946900  1
  O  O8  1  0.01206300  0.01206300  0.01206300  1
  O  O9  1  0.51206300  0.51206300  0.51206300  1
  O  O10  1  0.89336500  0.05433400  0.73516100  1
  O  O11  1  0.73516100  0.89336500  0.05433400  1
  O  O12  1  0.05433400  0.73516100  0.89336500  1
  O  O13  1  0.39336500  0.23516100  0.55433400  1
  O  O14  1  0.55433400  0.39336500  0.23516100  1
  O  O15  1  0.23516100  0.55433400  0.39336500  1
  O  O16  1  0.29975000  0.74701500  0.06475700  1
  O  O17  1  0.06475700  0.29975000  0.74701500  1
  O  O18  1  0.74701500  0.06475700  0.29975000  1
  O  O19  1  0.79975000  0.56475700  0.24701500  1
  O  O20  1  0.24701500  0.79975000  0.56475700  1
  O  O21  1  0.56475700  0.24701500  0.79975000  1
  O  O22  1  0.06509200  0.88736600  0.31056900  1
  O  O23  1  0.31056900  0.06509200  0.88736600  1
  O  O24  1  0.88736600  0.31056900  0.06509200  1
  O  O25  1  0.56509200  0.81056900  0.38736600  1
loop_
_geom_bond_atom_site_label_1
_geom_bond_atom_site_label_2
_geom_bond_distance
_geom_bond_site_symmetry_2
B0 O19 1.448046 1_555
B0 O7 1.459535 1_555
B0 O1 1.472113 1_555
B0 O9 1.567966 1_555
B1 O15 1.378845 1_555
B1 O14 1.378845 1_555
B1 O13 1.378845 1_555
B2 O12 1.378845 1_655
B2 O10 1.378845 1_565
B2 O11 1.378845 1_556
B3 O21 1.448045 1_555
B3 O6 1.459535 1_555
B3 O0 1.472113 1_555
B3 O9 1.567966 1_555
B4 O20 1.448045 1_555
B4 O5 1.459535 1_555
B4 O25 1.472113 1_555
B4 O9 1.567966 1_555
B5 O17 1.448046 1_655
B5 O2 1.459535 1_555
B5 O24 1.472113 1_556
B5 O8 1.567966 1_656
B6 O16 1.448045 1_556
B6 O4 1.459535 1_555
B6 O23 1.472113 1_565
B6 O8 1.567966 1_566
B7 O18 1.448045 1_565
B7 O3 1.459535 1_555
B7 O22 1.472113 1_655
B7 O8 1.567966 1_665
B8 O19 1.465428 1_555
B8 O3 1.469001 1_555
B8 O25 1.475625 1_555
B8 O11 1.511515 1_555
B9 O20 1.465428 1_555
B9 O4 1.469001 1_555
B9 O0 1.475625 1_555
B9 O12 1.511515 1_555
B10 O21 1.465428 1_555
B10 O2 1.469001 1_555
B10 O1 1.475625 1_555
B10 O10 1.511515 1_555
B11 O16 1.465428 1_555
B11 O5 1.469001 1_555
B11 O22 1.475625 1_555
B11 O15 1.511515 1_555
B12 O17 1.465428 1_555
B12 O6 1.469001 1_555
B12 O23 1.475625 1_555
B12 O13 1.511515 1_555
B13 O18 1.465428 1_555
B13 O7 1.469001 1_555
B13 O24 1.475625 1_555
B13 O14 1.511515 1_555
Cl0 Zn2 2.486263 1_555
Cl0 Zn1 2.486263 1_555
Cl0 Zn0 2.486263 1_555
Cl1 Zn4 2.486263 1_555
Cl1 Zn5 2.486263 1_555
Cl1 Zn3 2.486263 1_555
O0 Zn3 2.045443 1_555
O1 Zn5 2.045443 1_555
O2 Zn3 2.113543 1_555
O3 Zn5 2.113543 1_555
O4 Zn4 2.113543 1_555
O5 Zn2 2.113543 1_565
O6 Zn1 2.113543 1_556
O7 Zn0 2.113543 1_655
O10 Zn0 2.102214 1_655
O11 Zn2 2.102214 1_565
O12 Zn1 2.102214 1_556
O13 Zn4 2.102214 1_545
O14 Zn3 2.102214 1_554
O15 Zn5 2.102214 1_455
O16 Zn3 2.105702 1_554
O17 Zn5 2.105702 1_455
O18 Zn4 2.105702 1_545
O19 Zn1 2.105702 1_655
O20 Zn0 2.105702 1_565
O21 Zn2 2.105702 1_556
O22 Zn0 2.045443 1_565
O23 Zn2 2.045443 1_556
O24 Zn1 2.045443 1_655
O25 Zn4 2.045443 1_555
