# generated using pymatgen
data_MgMn2Zn2O6
_symmetry_space_group_name_H-M   'P 1'
_cell_length_a   5.88558814
_cell_length_b   5.88558779
_cell_length_c   5.88558719
_cell_angle_alpha   52.43677688
_cell_angle_beta   52.43677562
_cell_angle_gamma   52.43677417
_symmetry_Int_Tables_number   1
_chemical_formula_structural   MgMn2Zn2O6
_chemical_formula_sum   'Mg1 Mn2 Zn2 O6'
_cell_volume   118.56160569
_cell_formula_units_Z   1
loop_
 _symmetry_equiv_pos_site_id
 _symmetry_equiv_pos_as_xyz
  1  'x, y, z'
loop_
 _atom_site_type_symbol
 _atom_site_label
 _atom_site_symmetry_multiplicity
 _atom_site_fract_x
 _atom_site_fract_y
 _atom_site_fract_z
 _atom_site_occupancy
  Mg  Mg0  1  0.00000000  0.00000000  0.00000000  1
  Mn  Mn0  1  0.35208500  0.35208500  0.35208500  1
  Mn  Mn1  1  0.64791500  0.64791500  0.64791500  1
  Zn  Zn0  1  0.17131100  0.17131100  0.17131100  1
  Zn  Zn1  1  0.82868900  0.82868900  0.82868900  1
  O  O0  1  0.05083500  0.75807100  0.41854800  1
  O  O1  1  0.41854800  0.05083500  0.75807100  1
  O  O2  1  0.75807100  0.41854800  0.05083500  1
  O  O3  1  0.24192900  0.58145200  0.94916500  1
  O  O4  1  0.58145200  0.94916500  0.24192900  1
  O  O5  1  0.94916500  0.24192900  0.58145200  1
loop_
_geom_bond_atom_site_label_1
_geom_bond_atom_site_label_2
_geom_bond_distance
_geom_bond_site_symmetry_2
Mg0 O0 2.070700 1_545
Mg0 O5 2.070700 1_454
Mg0 O2 2.070700 1_455
Mg0 O3 2.070700 1_544
Mg0 O4 2.070700 1_445
Mg0 O1 2.070700 1_554
Mn0 O1 2.033382 1_555
Mn0 O0 2.033382 1_555
Mn0 O2 2.033382 1_555
Mn0 O3 2.184156 1_554
Mn0 O4 2.184156 1_545
Mn0 O5 2.184156 1_455
Mn1 O4 2.033382 1_555
Mn1 O5 2.033382 1_555
Mn1 O3 2.033382 1_555
Mn1 O2 2.184156 1_556
Mn1 O1 2.184156 1_565
Mn1 O0 2.184156 1_655
O0 Zn1 2.102801 1_455
O0 Zn0 2.250586 1_565
O1 Zn1 2.102802 1_545
O1 Zn0 2.250586 1_556
O2 Zn1 2.102802 1_554
O2 Zn0 2.250586 1_655
O3 Zn0 2.102802 1_556
O3 Zn1 2.250586 1_455
O4 Zn0 2.102802 1_565
O4 Zn1 2.250586 1_554
O5 Zn0 2.102801 1_655
O5 Zn1 2.250586 1_545
