# generated using pymatgen
data_PrOs2
_symmetry_space_group_name_H-M   'P 1'
_cell_length_a   5.44844299
_cell_length_b   5.44844258
_cell_length_c   5.44844312
_cell_angle_alpha   60.00000923
_cell_angle_beta   60.00001169
_cell_angle_gamma   59.99999815
_symmetry_Int_Tables_number   1
_chemical_formula_structural   PrOs2
_chemical_formula_sum   'Pr2 Os4'
_cell_volume   114.36740713
_cell_formula_units_Z   2
loop_
 _symmetry_equiv_pos_site_id
 _symmetry_equiv_pos_as_xyz
  1  'x, y, z'
loop_
 _atom_site_type_symbol
 _atom_site_label
 _atom_site_symmetry_multiplicity
 _atom_site_fract_x
 _atom_site_fract_y
 _atom_site_fract_z
 _atom_site_occupancy
  Pr  Pr0  1  0.12500000  0.12500000  0.12500000  1
  Pr  Pr1  1  0.87500000  0.87500000  0.87500000  1
  Os  Os0  1  0.00000000  0.50000000  0.50000000  1
  Os  Os1  1  0.50000000  0.00000000  0.50000000  1
  Os  Os2  1  0.50000000  0.50000000  -0.00000000  1
  Os  Os3  1  0.50000000  0.50000000  0.50000000  1
loop_
_geom_bond_atom_site_label_1
_geom_bond_atom_site_label_2
_geom_bond_distance
_geom_bond_site_symmetry_2
Pr0 Pr1 3.336476 1_444
Pr0 Pr1 3.336476 1_454
Pr0 Pr1 3.336476 1_544
Pr0 Pr1 3.336477 1_445
Os0 Os1 2.724221 1_465
Os0 Os1 2.724221 1_555
Os0 Os3 2.724221 1_555
Os0 Os3 2.724221 1_455
Os0 Os2 2.724222 1_555
Os0 Os2 2.724222 1_456
Os0 Pr0 3.194433 1_555
Os0 Pr1 3.194433 1_455
Os0 Pr0 3.194433 1_565
Os0 Pr1 3.194433 1_445
Os0 Pr0 3.194433 1_556
Os0 Pr1 3.194433 1_454
Os1 Os3 2.724221 1_555
Os1 Os3 2.724221 1_545
Os1 Os2 2.724222 1_555
Os1 Os2 2.724222 1_546
Os1 Pr1 3.194433 1_545
Os1 Pr0 3.194433 1_555
Os1 Pr1 3.194433 1_544
Os1 Pr0 3.194433 1_556
Os1 Pr0 3.194433 1_655
Os1 Pr1 3.194433 1_445
Os2 Os3 2.724222 1_554
Os2 Os3 2.724222 1_555
Os2 Pr1 3.194433 1_544
Os2 Pr0 3.194433 1_565
Os2 Pr1 3.194433 1_454
Os2 Pr0 3.194433 1_655
Os2 Pr1 3.194433 1_554
Os2 Pr0 3.194433 1_555
Os3 Pr1 3.194433 1_545
Os3 Pr0 3.194433 1_565
Os3 Pr1 3.194433 1_455
Os3 Pr0 3.194433 1_655
Os3 Pr1 3.194434 1_554
Os3 Pr0 3.194434 1_556
