# generated using pymatgen
data_TbInIr
_symmetry_space_group_name_H-M   'P 1'
_cell_length_a   7.45541151
_cell_length_b   7.45541196
_cell_length_c   3.98489026
_cell_angle_alpha   90.00000000
_cell_angle_beta   90.00000000
_cell_angle_gamma   119.99999794
_symmetry_Int_Tables_number   1
_chemical_formula_structural   TbInIr
_chemical_formula_sum   'Tb3 In3 Ir3'
_cell_volume   191.81840376
_cell_formula_units_Z   3
loop_
 _symmetry_equiv_pos_site_id
 _symmetry_equiv_pos_as_xyz
  1  'x, y, z'
loop_
 _atom_site_type_symbol
 _atom_site_label
 _atom_site_symmetry_multiplicity
 _atom_site_fract_x
 _atom_site_fract_y
 _atom_site_fract_z
 _atom_site_occupancy
  Tb  Tb0  1  0.40653718  0.40653718  -0.00000000  1
  Tb  Tb1  1  0.59346282  -0.00000000  0.00000000  1
  Tb  Tb2  1  -0.00000000  0.59346282  0.00000000  1
  In  In0  1  -0.00000000  0.25487284  0.50000000  1
  In  In1  1  0.74512716  0.74512716  0.50000000  1
  In  In2  1  0.25487284  -0.00000000  0.50000000  1
  Ir  Ir0  1  -0.00000000  -0.00000000  0.00000000  1
  Ir  Ir1  1  0.33333300  0.66666700  0.50000000  1
  Ir  Ir2  1  0.66666700  0.33333300  0.50000000  1
loop_
_geom_bond_atom_site_label_1
_geom_bond_atom_site_label_2
_geom_bond_distance
_geom_bond_site_symmetry_2
In0 Ir0 2.753276 1_556
In0 Ir0 2.753276 1_555
In0 Ir2 2.823429 1_455
In0 Ir1 2.823434 1_555
In0 Tb2 3.215909 1_555
In0 Tb2 3.215909 1_556
In0 Tb0 3.317775 1_555
In0 Tb0 3.317775 1_556
In0 Tb1 3.317775 1_455
In0 Tb1 3.317775 1_456
In1 Ir0 2.753276 1_666
In1 Ir0 2.753276 1_665
In1 Ir1 2.823436 1_555
In1 Ir2 2.823436 1_555
In1 Tb0 3.215909 1_555
In1 Tb0 3.215909 1_556
In1 Tb2 3.317775 1_655
In1 Tb2 3.317775 1_656
In1 Tb1 3.317775 1_565
In1 Tb1 3.317775 1_566
In2 Ir0 2.753276 1_555
In2 Ir0 2.753276 1_556
In2 Ir1 2.823429 1_545
In2 Ir2 2.823434 1_555
In2 Tb1 3.215909 1_555
In2 Tb1 3.215909 1_556
In2 Tb0 3.317775 1_555
In2 Tb0 3.317775 1_556
In2 Tb2 3.317775 1_545
In2 Tb2 3.317775 1_546
Ir0 Tb1 3.030902 1_455
Ir0 Tb2 3.030902 1_545
Ir0 Tb0 3.030902 1_555
Ir1 Tb2 3.014513 1_555
Ir1 Tb2 3.014513 1_556
Ir1 Tb1 3.014515 1_565
Ir1 Tb1 3.014515 1_566
Ir1 Tb0 3.014519 1_555
Ir1 Tb0 3.014519 1_556
Ir2 Tb1 3.014513 1_555
Ir2 Tb1 3.014513 1_556
Ir2 Tb2 3.014515 1_655
Ir2 Tb2 3.014515 1_656
Ir2 Tb0 3.014518 1_555
Ir2 Tb0 3.014518 1_556
