# generated using pymatgen
data_MgZn2(NiO2)4
_symmetry_space_group_name_H-M   'P 1'
_cell_length_a   6.61712824
_cell_length_b   6.77935914
_cell_length_c   6.75639567
_cell_angle_alpha   74.34788490
_cell_angle_beta   128.98861522
_cell_angle_gamma   128.93194373
_symmetry_Int_Tables_number   1
_chemical_formula_structural   MgZn2(NiO2)4
_chemical_formula_sum   'Mg1 Zn2 Ni4 O8'
_cell_volume   179.26348042
_cell_formula_units_Z   1
loop_
 _symmetry_equiv_pos_site_id
 _symmetry_equiv_pos_as_xyz
  1  'x, y, z'
loop_
 _atom_site_type_symbol
 _atom_site_label
 _atom_site_symmetry_multiplicity
 _atom_site_fract_x
 _atom_site_fract_y
 _atom_site_fract_z
 _atom_site_occupancy
  Mg  Mg0  1  0.73671900  0.37462400  0.61264000  1
  Zn  Zn0  1  0.24522900  0.11312000  0.88024400  1
  Zn  Zn1  1  0.74983400  0.89480300  0.10813800  1
  Ni  Ni0  1  0.47969900  0.94807800  0.45529600  1
  Ni  Ni1  1  0.51379600  0.56685200  0.56374100  1
  Ni  Ni2  1  0.02362900  0.54135100  0.05160000  1
  Ni  Ni3  1  0.99129900  0.44578300  0.43838000  1
  O  O0  1  0.01476700  0.73272800  0.23974900  1
  O  O1  1  0.47956900  0.74747900  0.71914500  1
  O  O2  1  0.49011100  0.75894300  0.26824300  1
  O  O3  1  0.99831200  0.73291300  0.77941500  1
  O  O4  1  0.55416600  0.30169000  0.78916200  1
  O  O5  1  0.49953800  0.21642500  0.26052400  1
  O  O6  1  0.02781000  0.28569500  0.26059500  1
  O  O7  1  0.94552700  0.21451500  0.69812700  1
loop_
_geom_bond_atom_site_label_1
_geom_bond_atom_site_label_2
_geom_bond_distance
_geom_bond_site_symmetry_2
Mg0 O5 1.958616 1_555
Mg0 O4 1.967263 1_555
Mg0 O3 1.975896 1_555
Mg0 O7 1.990799 1_555
Ni0 O0 1.892549 1_555
Ni0 O5 1.919370 1_565
Ni0 O7 1.921909 1_565
Ni0 O1 1.928639 1_555
Ni0 O2 2.083508 1_555
Ni1 O1 1.998694 1_555
Ni1 O3 2.034708 1_555
Ni1 O2 2.041153 1_555
Ni1 O4 2.058325 1_555
Ni1 O6 2.069899 1_555
Ni2 O2 1.898338 1_555
Ni2 O6 1.920709 1_555
Ni2 O3 1.921868 1_454
Ni2 O4 1.927192 1_454
Ni2 O0 2.093336 1_555
Ni3 O6 2.019214 1_655
Ni3 O0 2.020707 1_655
Ni3 O5 2.044333 1_555
Ni3 O7 2.053558 1_555
Ni3 O1 2.072864 1_655
O0 Zn1 2.236834 1_455
O1 Zn1 2.088146 1_556
O2 Zn1 2.187340 1_555
O3 Zn0 2.007849 1_665
O4 Zn0 2.016450 1_555
O5 Zn0 1.993211 1_554
O6 Zn1 2.104644 1_445
O7 Zn0 2.026275 1_655
