# generated using pymatgen
data_MgTe4Mo4(SeS)2
_symmetry_space_group_name_H-M   'P 1'
_cell_length_a   6.80510958
_cell_length_b   6.80466047
_cell_length_c   85.33166869
_cell_angle_alpha   90.24603141
_cell_angle_beta   89.85809729
_cell_angle_gamma   120.00591067
_symmetry_Int_Tables_number   1
_chemical_formula_structural   MgTe4Mo4(SeS)2
_chemical_formula_sum   'Mg8 Te32 Mo32 Se16 S16'
_cell_volume   3421.78366467
_cell_formula_units_Z   8
loop_
 _symmetry_equiv_pos_site_id
 _symmetry_equiv_pos_as_xyz
  1  'x, y, z'
loop_
 _atom_site_type_symbol
 _atom_site_label
 _atom_site_symmetry_multiplicity
 _atom_site_fract_x
 _atom_site_fract_y
 _atom_site_fract_z
 _atom_site_occupancy
  Mg  Mg0_0  1  0.00002350  0.49570900  0.18566850  1
  Mg  Mg0_1  1  0.00002350  0.49570900  0.68566850  1
  Mg  Mg0_2  1  0.00002350  0.99570900  0.18566850  1
  Mg  Mg0_3  1  0.00002350  0.99570900  0.68566850  1
  Mg  Mg0_4  1  0.50002350  0.49570900  0.18566850  1
  Mg  Mg0_5  1  0.50002350  0.49570900  0.68566850  1
  Mg  Mg0_6  1  0.50002350  0.99570900  0.18566850  1
  Mg  Mg0_7  1  0.50002350  0.99570900  0.68566850  1
  Te  Te0_0  1  0.16671950  0.33437550  0.35130700  1
  Te  Te0_1  1  0.16671950  0.33437550  0.85130700  1
  Te  Te0_2  1  0.16671950  0.83437550  0.35130700  1
  Te  Te0_3  1  0.16671950  0.83437550  0.85130700  1
  Te  Te0_4  1  0.66671950  0.33437550  0.35130700  1
  Te  Te0_5  1  0.66671950  0.33437550  0.85130700  1
  Te  Te0_6  1  0.66671950  0.83437550  0.35130700  1
  Te  Te0_7  1  0.66671950  0.83437550  0.85130700  1
  Te  Te1_0  1  0.33340100  0.16575100  0.02489100  1
  Te  Te1_1  1  0.33340100  0.16575100  0.52489100  1
  Te  Te1_2  1  0.33340100  0.66575100  0.02489100  1
  Te  Te1_3  1  0.33340100  0.66575100  0.52489100  1
  Te  Te1_4  1  0.83340100  0.16575100  0.02489100  1
  Te  Te1_5  1  0.83340100  0.16575100  0.52489100  1
  Te  Te1_6  1  0.83340100  0.66575100  0.02489100  1
  Te  Te1_7  1  0.83340100  0.66575100  0.52489100  1
  Te  Te2_0  1  0.33320850  0.16783450  0.06884400  1
  Te  Te2_1  1  0.33320850  0.16783450  0.56884400  1
  Te  Te2_2  1  0.33320850  0.66783450  0.06884400  1
  Te  Te2_3  1  0.33320850  0.66783450  0.56884400  1
  Te  Te2_4  1  0.83320850  0.16783450  0.06884400  1
  Te  Te2_5  1  0.83320850  0.16783450  0.56884400  1
  Te  Te2_6  1  0.83320850  0.66783450  0.06884400  1
  Te  Te2_7  1  0.83320850  0.66783450  0.56884400  1
  Te  Te3_0  1  0.16689000  0.33217250  0.30740350  1
  Te  Te3_1  1  0.16689000  0.33217250  0.80740350  1
  Te  Te3_2  1  0.16689000  0.83217250  0.30740350  1
  Te  Te3_3  1  0.16689000  0.83217250  0.80740350  1
  Te  Te3_4  1  0.66689000  0.33217250  0.30740350  1
  Te  Te3_5  1  0.66689000  0.33217250  0.80740350  1
  Te  Te3_6  1  0.66689000  0.83217250  0.30740350  1
  Te  Te3_7  1  0.66689000  0.83217250  0.80740350  1
  Mo  Mo0_0  1  0.16666100  0.33340400  0.04686500  1
  Mo  Mo0_1  1  0.16666100  0.33340400  0.54686500  1
  Mo  Mo0_2  1  0.16666100  0.83340400  0.04686500  1
  Mo  Mo0_3  1  0.16666100  0.83340400  0.54686500  1
  Mo  Mo0_4  1  0.66666100  0.33340400  0.04686500  1
  Mo  Mo0_5  1  0.66666100  0.33340400  0.54686500  1
  Mo  Mo0_6  1  0.66666100  0.83340400  0.04686500  1
  Mo  Mo0_7  1  0.66666100  0.83340400  0.54686500  1
  Mo  Mo1_0  1  0.16668300  0.33318250  0.23702950  1
  Mo  Mo1_1  1  0.16668300  0.33318250  0.73702950  1
  Mo  Mo1_2  1  0.16668300  0.83318250  0.23702950  1
  Mo  Mo1_3  1  0.16668300  0.83318250  0.73702950  1
  Mo  Mo1_4  1  0.66668300  0.33318250  0.23702950  1
  Mo  Mo1_5  1  0.66668300  0.33318250  0.73702950  1
  Mo  Mo1_6  1  0.66668300  0.83318250  0.23702950  1
  Mo  Mo1_7  1  0.66668300  0.83318250  0.73702950  1
  Mo  Mo2_0  1  0.33319800  0.16801600  0.13824250  1
  Mo  Mo2_1  1  0.33319800  0.16801600  0.63824250  1
  Mo  Mo2_2  1  0.33319800  0.66801600  0.13824250  1
  Mo  Mo2_3  1  0.33319800  0.66801600  0.63824250  1
  Mo  Mo2_4  1  0.83319800  0.16801600  0.13824250  1
  Mo  Mo2_5  1  0.83319800  0.16801600  0.63824250  1
  Mo  Mo2_6  1  0.83319800  0.66801600  0.13824250  1
  Mo  Mo2_7  1  0.83319800  0.66801600  0.63824250  1
  Mo  Mo3_0  1  0.33344300  0.16660200  0.32935650  1
  Mo  Mo3_1  1  0.33344300  0.16660200  0.82935650  1
  Mo  Mo3_2  1  0.33344300  0.66660200  0.32935650  1
  Mo  Mo3_3  1  0.33344300  0.66660200  0.82935650  1
  Mo  Mo3_4  1  0.83344300  0.16660200  0.32935650  1
  Mo  Mo3_5  1  0.83344300  0.16660200  0.82935650  1
  Mo  Mo3_6  1  0.83344300  0.66660200  0.32935650  1
  Mo  Mo3_7  1  0.83344300  0.66660200  0.82935650  1
  Se  Se0_0  1  0.33347300  0.16561250  0.21740600  1
  Se  Se0_1  1  0.33347300  0.16561250  0.71740600  1
  Se  Se0_2  1  0.33347300  0.66561250  0.21740600  1
  Se  Se0_3  1  0.33347300  0.66561250  0.71740600  1
  Se  Se0_4  1  0.83347300  0.16561250  0.21740600  1
  Se  Se0_5  1  0.83347300  0.16561250  0.71740600  1
  Se  Se0_6  1  0.83347300  0.66561250  0.21740600  1
  Se  Se0_7  1  0.83347300  0.66561250  0.71740600  1
  Se  Se1_0  1  0.33324900  0.16749900  0.25625250  1
  Se  Se1_1  1  0.33324900  0.16749900  0.75625250  1
  Se  Se1_2  1  0.33324900  0.66749900  0.25625250  1
  Se  Se1_3  1  0.33324900  0.66749900  0.75625250  1
  Se  Se1_4  1  0.83324900  0.16749900  0.25625250  1
  Se  Se1_5  1  0.83324900  0.16749900  0.75625250  1
  Se  Se1_6  1  0.83324900  0.66749900  0.25625250  1
  Se  Se1_7  1  0.83324900  0.66749900  0.75625250  1
  S  S0_0  1  0.16644100  0.33582750  0.15604800  1
  S  S0_1  1  0.16644100  0.33582750  0.65604800  1
  S  S0_2  1  0.16644100  0.83582750  0.15604800  1
  S  S0_3  1  0.16644100  0.83582750  0.65604800  1
  S  S0_4  1  0.66644100  0.33582750  0.15604800  1
  S  S0_5  1  0.66644100  0.33582750  0.65604800  1
  S  S0_6  1  0.66644100  0.83582750  0.15604800  1
  S  S0_7  1  0.66644100  0.83582750  0.65604800  1
  S  S1_0  1  0.16660950  0.33401350  0.12082350  1
  S  S1_1  1  0.16660950  0.33401350  0.62082350  1
  S  S1_2  1  0.16660950  0.83401350  0.12082350  1
  S  S1_3  1  0.16660950  0.83401350  0.62082350  1
  S  S1_4  1  0.66660950  0.33401350  0.12082350  1
  S  S1_5  1  0.66660950  0.33401350  0.62082350  1
  S  S1_6  1  0.66660950  0.83401350  0.12082350  1
  S  S1_7  1  0.66660950  0.83401350  0.62082350  1
loop_
_geom_bond_atom_site_label_1
_geom_bond_atom_site_label_2
_geom_bond_distance
_geom_bond_site_symmetry_2
Mg0_0 S0_0 3.170054 1_555
Mg0_0 S0_4 3.203135 1_455
Mg0_0 S0_2 3.231424 1_555
Mg0_0 Se0_4 3.339933 1_455
Mg0_0 Se0_2 3.346608 1_555
Mg0_0 Se0_6 3.350247 1_455
Mg0_0 Mg0_6 3.402139 1_445
Mg0_0 Mg0_6 3.402139 1_555
Mg0_0 Mg0_2 3.402330 1_555
Mg0_0 Mg0_2 3.402330 1_545
Mg0_0 Mg0_4 3.402555 1_455
Mg0_0 Mg0_4 3.402555 1_555
Mg0_1 S0_1 3.170054 1_555
Mg0_1 S0_5 3.203135 1_455
Mg0_1 S0_3 3.231424 1_555
Mg0_1 Se0_5 3.339933 1_455
Mg0_1 Se0_3 3.346608 1_555
Mg0_1 Se0_7 3.350247 1_455
Mg0_1 Mg0_7 3.402139 1_445
Mg0_1 Mg0_7 3.402139 1_555
Mg0_1 Mg0_3 3.402330 1_545
Mg0_1 Mg0_3 3.402330 1_555
Mg0_1 Mg0_5 3.402555 1_455
Mg0_1 Mg0_5 3.402555 1_555
Mg0_2 S0_2 3.170054 1_555
Mg0_2 S0_6 3.203135 1_455
Mg0_2 S0_0 3.231424 1_565
Mg0_2 Se0_6 3.339933 1_455
Mg0_2 Se0_0 3.346608 1_565
Mg0_2 Se0_4 3.350247 1_465
Mg0_2 Mg0_4 3.402139 1_455
Mg0_2 Mg0_4 3.402139 1_565
Mg0_2 Mg0_6 3.402555 1_455
Mg0_2 Mg0_6 3.402555 1_555
Mg0_3 S0_3 3.170054 1_555
Mg0_3 S0_7 3.203135 1_455
Mg0_3 S0_1 3.231424 1_565
Mg0_3 Se0_7 3.339933 1_455
Mg0_3 Se0_1 3.346608 1_565
Mg0_3 Se0_5 3.350247 1_465
Mg0_3 Mg0_5 3.402139 1_455
Mg0_3 Mg0_5 3.402139 1_565
Mg0_3 Mg0_7 3.402555 1_455
Mg0_3 Mg0_7 3.402555 1_555
Mg0_4 S0_4 3.170054 1_555
Mg0_4 S0_0 3.203135 1_555
Mg0_4 S0_6 3.231424 1_555
Mg0_4 Se0_0 3.339933 1_555
Mg0_4 Se0_6 3.346608 1_555
Mg0_4 Se0_2 3.350247 1_555
Mg0_4 Mg0_6 3.402330 1_545
Mg0_4 Mg0_6 3.402330 1_555
Mg0_5 S0_5 3.170054 1_555
Mg0_5 S0_1 3.203135 1_555
Mg0_5 S0_7 3.231424 1_555
Mg0_5 Se0_1 3.339933 1_555
Mg0_5 Se0_7 3.346608 1_555
Mg0_5 Se0_3 3.350247 1_555
Mg0_5 Mg0_7 3.402330 1_545
Mg0_5 Mg0_7 3.402330 1_555
Mg0_6 S0_6 3.170054 1_555
Mg0_6 S0_2 3.203135 1_555
Mg0_6 S0_4 3.231424 1_565
Mg0_6 Se0_2 3.339933 1_555
Mg0_6 Se0_4 3.346608 1_565
Mg0_6 Se0_0 3.350247 1_565
Mg0_7 S0_7 3.170054 1_555
Mg0_7 S0_3 3.203135 1_555
Mg0_7 S0_5 3.231424 1_565
Mg0_7 Se0_3 3.339933 1_555
Mg0_7 Se0_5 3.346608 1_565
Mg0_7 Se0_1 3.350247 1_565
Mo0_0 Te1_0 2.714902 1_555
Mo0_0 Te2_2 2.715697 1_555
Mo0_0 Te1_4 2.715810 1_455
Mo0_0 Te2_4 2.715893 1_455
Mo0_0 Te1_2 2.716094 1_555
Mo0_0 Te2_0 2.716099 1_555
Mo0_1 Te1_1 2.714902 1_555
Mo0_1 Te2_3 2.715697 1_555
Mo0_1 Te1_5 2.715810 1_455
Mo0_1 Te2_5 2.715893 1_455
Mo0_1 Te1_3 2.716094 1_555
Mo0_1 Te2_1 2.716099 1_555
Mo0_2 Te1_2 2.714902 1_555
Mo0_2 Te2_0 2.715697 1_565
Mo0_2 Te1_6 2.715810 1_455
Mo0_2 Te2_6 2.715893 1_455
Mo0_2 Te1_0 2.716094 1_565
Mo0_2 Te2_2 2.716099 1_555
Mo0_3 Te1_3 2.714902 1_555
Mo0_3 Te2_1 2.715697 1_565
Mo0_3 Te1_7 2.715810 1_455
Mo0_3 Te2_7 2.715893 1_455
Mo0_3 Te1_1 2.716094 1_565
Mo0_3 Te2_3 2.716099 1_555
Mo0_4 Te1_4 2.714902 1_555
Mo0_4 Te2_6 2.715697 1_555
Mo0_4 Te1_0 2.715810 1_555
Mo0_4 Te2_0 2.715893 1_555
Mo0_4 Te1_6 2.716094 1_555
Mo0_4 Te2_4 2.716099 1_555
Mo0_5 Te1_5 2.714902 1_555
Mo0_5 Te2_7 2.715697 1_555
Mo0_5 Te1_1 2.715810 1_555
Mo0_5 Te2_1 2.715893 1_555
Mo0_5 Te1_7 2.716094 1_555
Mo0_5 Te2_5 2.716099 1_555
Mo0_6 Te1_6 2.714902 1_555
Mo0_6 Te2_4 2.715697 1_565
Mo0_6 Te1_2 2.715810 1_555
Mo0_6 Te2_2 2.715893 1_555
Mo0_6 Te1_4 2.716094 1_565
Mo0_6 Te2_6 2.716099 1_555
Mo0_7 Te1_7 2.714902 1_555
Mo0_7 Te2_5 2.715697 1_565
Mo0_7 Te1_3 2.715810 1_555
Mo0_7 Te2_3 2.715893 1_555
Mo0_7 Te1_5 2.716094 1_565
Mo0_7 Te2_7 2.716099 1_555
Mo1_0 Se1_2 2.559065 1_555
Mo1_0 Se1_4 2.559137 1_455
Mo1_0 Se1_0 2.559264 1_555
Mo1_0 Se0_0 2.580906 1_555
Mo1_0 Se0_4 2.581130 1_455
Mo1_0 Se0_2 2.581545 1_555
Mo1_1 Se1_3 2.559065 1_555
Mo1_1 Se1_5 2.559137 1_455
Mo1_1 Se1_1 2.559264 1_555
Mo1_1 Se0_1 2.580906 1_555
Mo1_1 Se0_5 2.581130 1_455
Mo1_1 Se0_3 2.581545 1_555
Mo1_2 Se1_0 2.559065 1_565
Mo1_2 Se1_6 2.559137 1_455
Mo1_2 Se1_2 2.559264 1_555
Mo1_2 Se0_2 2.580906 1_555
Mo1_2 Se0_6 2.581130 1_455
Mo1_2 Se0_0 2.581545 1_565
Mo1_3 Se1_1 2.559065 1_565
Mo1_3 Se1_7 2.559137 1_455
Mo1_3 Se1_3 2.559264 1_555
Mo1_3 Se0_3 2.580906 1_555
Mo1_3 Se0_7 2.581130 1_455
Mo1_3 Se0_1 2.581545 1_565
Mo1_4 Se1_6 2.559065 1_555
Mo1_4 Se1_0 2.559137 1_555
Mo1_4 Se1_4 2.559264 1_555
Mo1_4 Se0_4 2.580906 1_555
Mo1_4 Se0_0 2.581130 1_555
Mo1_4 Se0_6 2.581545 1_555
Mo1_5 Se1_7 2.559065 1_555
Mo1_5 Se1_1 2.559137 1_555
Mo1_5 Se1_5 2.559264 1_555
Mo1_5 Se0_5 2.580906 1_555
Mo1_5 Se0_1 2.581130 1_555
Mo1_5 Se0_7 2.581545 1_555
Mo1_6 Se1_4 2.559065 1_565
Mo1_6 Se1_2 2.559137 1_555
Mo1_6 Se1_6 2.559264 1_555
Mo1_6 Se0_6 2.580906 1_555
Mo1_6 Se0_2 2.581130 1_555
Mo1_6 Se0_4 2.581545 1_565
Mo1_7 Se1_5 2.559065 1_565
Mo1_7 Se1_3 2.559137 1_555
Mo1_7 Se1_7 2.559264 1_555
Mo1_7 Se0_7 2.580906 1_555
Mo1_7 Se0_3 2.581130 1_555
Mo1_7 Se0_5 2.581545 1_565
Mo2_0 S1_2 2.462188 1_545
Mo2_0 S1_4 2.463246 1_555
Mo2_0 S1_0 2.464538 1_555
Mo2_0 S0_2 2.482170 1_545
Mo2_0 S0_4 2.483405 1_555
Mo2_0 S0_0 2.484516 1_555
Mo2_1 S1_3 2.462188 1_545
Mo2_1 S1_5 2.463246 1_555
Mo2_1 S1_1 2.464538 1_555
Mo2_1 S0_3 2.482170 1_545
Mo2_1 S0_5 2.483405 1_555
Mo2_1 S0_1 2.484516 1_555
Mo2_2 S1_0 2.462188 1_555
Mo2_2 S1_6 2.463246 1_555
Mo2_2 S1_2 2.464538 1_555
Mo2_2 S0_0 2.482170 1_555
Mo2_2 S0_6 2.483405 1_555
Mo2_2 S0_2 2.484516 1_555
Mo2_3 S1_1 2.462188 1_555
Mo2_3 S1_7 2.463246 1_555
Mo2_3 S1_3 2.464538 1_555
Mo2_3 S0_1 2.482170 1_555
Mo2_3 S0_7 2.483405 1_555
Mo2_3 S0_3 2.484516 1_555
Mo2_4 S1_6 2.462188 1_545
Mo2_4 S1_0 2.463246 1_655
Mo2_4 S1_4 2.464538 1_555
Mo2_4 S0_6 2.482170 1_545
Mo2_4 S0_0 2.483405 1_655
Mo2_4 S0_4 2.484516 1_555
Mo2_5 S1_7 2.462188 1_545
Mo2_5 S1_1 2.463246 1_655
Mo2_5 S1_5 2.464538 1_555
Mo2_5 S0_7 2.482170 1_545
Mo2_5 S0_1 2.483405 1_655
Mo2_5 S0_5 2.484516 1_555
Mo2_6 S1_4 2.462188 1_555
Mo2_6 S1_2 2.463246 1_655
Mo2_6 S1_6 2.464538 1_555
Mo2_6 S0_4 2.482170 1_555
Mo2_6 S0_2 2.483405 1_655
Mo2_6 S0_6 2.484516 1_555
Mo2_7 S1_5 2.462188 1_555
Mo2_7 S1_3 2.463246 1_655
Mo2_7 S1_7 2.464538 1_555
Mo2_7 S0_5 2.482170 1_555
Mo2_7 S0_3 2.483405 1_655
Mo2_7 S0_7 2.484516 1_555
Mo3_0 Te0_0 2.713967 1_555
Mo3_0 Te3_2 2.714167 1_545
Mo3_0 Te0_2 2.714191 1_545
Mo3_0 Te3_4 2.714339 1_555
Mo3_0 Te0_4 2.714495 1_555
Mo3_0 Te3_0 2.714589 1_555
Mo3_1 Te0_1 2.713967 1_555
Mo3_1 Te3_3 2.714167 1_545
Mo3_1 Te0_3 2.714191 1_545
Mo3_1 Te3_5 2.714339 1_555
Mo3_1 Te0_5 2.714495 1_555
Mo3_1 Te3_1 2.714589 1_555
Mo3_2 Te0_2 2.713967 1_555
Mo3_2 Te3_0 2.714167 1_555
Mo3_2 Te0_0 2.714191 1_555
Mo3_2 Te3_6 2.714339 1_555
Mo3_2 Te0_6 2.714495 1_555
Mo3_2 Te3_2 2.714589 1_555
Mo3_3 Te0_3 2.713967 1_555
Mo3_3 Te3_1 2.714167 1_555
Mo3_3 Te0_1 2.714191 1_555
Mo3_3 Te3_7 2.714339 1_555
Mo3_3 Te0_7 2.714495 1_555
Mo3_3 Te3_3 2.714589 1_555
Mo3_4 Te0_4 2.713967 1_555
Mo3_4 Te3_6 2.714167 1_545
Mo3_4 Te0_6 2.714191 1_545
Mo3_4 Te3_0 2.714339 1_655
Mo3_4 Te0_0 2.714495 1_655
Mo3_4 Te3_4 2.714589 1_555
Mo3_5 Te0_5 2.713967 1_555
Mo3_5 Te3_7 2.714167 1_545
Mo3_5 Te0_7 2.714191 1_545
Mo3_5 Te3_1 2.714339 1_655
Mo3_5 Te0_1 2.714495 1_655
Mo3_5 Te3_5 2.714589 1_555
Mo3_6 Te0_6 2.713967 1_555
Mo3_6 Te3_4 2.714167 1_555
Mo3_6 Te0_4 2.714191 1_555
Mo3_6 Te3_2 2.714339 1_655
Mo3_6 Te0_2 2.714495 1_655
Mo3_6 Te3_6 2.714589 1_555
Mo3_7 Te0_7 2.713967 1_555
Mo3_7 Te3_5 2.714167 1_555
Mo3_7 Te0_5 2.714191 1_555
Mo3_7 Te3_3 2.714339 1_655
Mo3_7 Te0_3 2.714495 1_655
Mo3_7 Te3_7 2.714589 1_555
