# generated using pymatgen
data_Na2Ca2SiGe2S5O24
_symmetry_space_group_name_H-M   'P 1'
_cell_length_a   8.86842903
_cell_length_b   8.86526559
_cell_length_c   23.06846709
_cell_angle_alpha   89.07318587
_cell_angle_beta   90.10541711
_cell_angle_gamma   119.89761479
_symmetry_Int_Tables_number   1
_chemical_formula_structural   Na2Ca2SiGe2S5O24
_chemical_formula_sum   'Na6 Ca6 Si3 Ge6 S15 O72'
_cell_volume   1572.05211594
_cell_formula_units_Z   3
loop_
 _symmetry_equiv_pos_site_id
 _symmetry_equiv_pos_as_xyz
  1  'x, y, z'
loop_
 _atom_site_type_symbol
 _atom_site_label
 _atom_site_symmetry_multiplicity
 _atom_site_fract_x
 _atom_site_fract_y
 _atom_site_fract_z
 _atom_site_occupancy
  Na  Na0  1  0.00291431  0.00273613  0.49930902  1
  Na  Na1  1  0.99848790  0.99497873  0.00354778  1
  Na  Na2  1  0.66591039  0.31794527  0.83194319  1
  Na  Na3  1  0.64733510  0.32141081  0.33072430  1
  Na  Na4  1  0.31343631  0.66349514  0.16902620  1
  Na  Na5  1  0.33198563  0.66322857  0.66767215  1
  Ca  Ca0  1  0.01500803  0.00548192  0.34192239  1
  Ca  Ca1  1  0.00017809  0.00355323  0.85541551  1
  Ca  Ca2  1  0.66698854  0.33165089  0.68521656  1
  Ca  Ca3  1  0.66105494  0.33194286  0.48367198  1
  Ca  Ca4  1  0.32359354  0.66572242  0.02855057  1
  Ca  Ca5  1  0.33376345  0.66872273  0.52297304  1
  Si  Si0  1  0.31624629  0.00380598  0.24949684  1
  Si  Si1  1  0.69701303  0.98137056  0.75013571  1
  Si  Si2  1  0.94161658  0.61966325  0.08965882  1
  Ge  Ge0  1  0.98734353  0.99305044  0.65444483  1
  Ge  Ge1  1  0.01508308  0.96537196  0.15228701  1
  Ge  Ge2  1  0.66962691  0.32292014  0.18378047  1
  Ge  Ge3  1  0.69045226  0.36191195  0.98512030  1
  Ge  Ge4  1  0.33286997  0.68653345  0.31730462  1
  Ge  Ge5  1  0.34500017  0.68238104  0.81233735  1
  S  S0  1  0.69733470  0.69266839  0.24561460  1
  S  S1  1  0.00028919  0.30386205  0.24471583  1
  S  S2  1  0.28353322  0.30217944  0.74896478  1
  S  S3  1  0.01482325  0.71541811  0.74998673  1
  S  S4  1  0.97027969  0.31168617  0.58901970  1
  S  S5  1  0.33883037  0.02737922  0.59104817  1
  S  S6  1  0.68846709  0.65814912  0.58836370  1
  S  S7  1  0.68812382  0.06047066  0.08672177  1
  S  S8  1  0.37409391  0.31216298  0.08821956  1
  S  S9  1  0.61553832  0.64646242  0.91885555  1
  S  S10  1  0.03047616  0.38190295  0.91859639  1
  S  S11  1  0.35433632  0.97113976  0.91635156  1
  S  S12  1  0.62239711  0.96051294  0.41072460  1
  S  S13  1  0.33758877  0.39191011  0.40882202  1
  S  S14  1  0.03901364  0.65970850  0.41187121  1
  O  O0  1  0.25970687  0.05870630  0.30591412  1
  O  O1  1  0.80002834  0.76451050  0.29747431  1
  O  O2  1  0.96250742  0.20294490  0.29839132  1
  O  O3  1  0.21072059  0.20212724  0.80201404  1
  O  O4  1  0.99700591  0.79873868  0.80081015  1
  O  O5  1  0.80555035  0.02889509  0.80898224  1
  O  O6  1  0.79510440  0.95095309  0.69355657  1
  O  O7  1  0.17363718  0.21233031  0.69581540  1
  O  O8  1  0.04276005  0.82540048  0.69486272  1
  O  O9  1  0.78705018  0.81689275  0.19316649  1
  O  O10  1  0.03019562  0.21876650  0.19397814  1
  O  O11  1  0.17616854  0.94896908  0.19311459  1
  O  O12  1  0.88208092  0.32695560  0.63970771  1
  O  O13  1  0.44877005  0.11251033  0.64055668  1
  O  O14  1  0.66965051  0.55322751  0.63977924  1
  O  O15  1  0.82807555  0.49648626  0.14352521  1
  O  O16  1  0.65447030  0.13773823  0.13884355  1
  O  O17  1  0.47853878  0.32504536  0.13977363  1
  O  O18  1  0.44694715  0.28373345  0.03310343  1
  O  O19  1  0.82962960  0.54618645  0.02744428  1
  O  O20  1  0.71085832  0.16889349  0.03214632  1
  O  O21  1  0.41024613  0.12496127  0.53584767  1
  O  O22  1  0.70585456  0.58013688  0.53448621  1
  O  O23  1  0.87486137  0.29262429  0.53462836  1
  O  O24  1  0.52705114  0.65966064  0.96942461  1
  O  O25  1  0.13310298  0.46958938  0.96879794  1
  O  O26  1  0.33890386  0.86666346  0.96733518  1
  O  O27  1  0.53361505  0.86335137  0.46310748  1
  O  O28  1  0.33317875  0.47793973  0.46139135  1
  O  O29  1  0.13617550  0.66754405  0.46363076  1
  O  O30  1  0.13212230  0.64918247  0.35606898  1
  O  O31  1  0.51606712  0.87012110  0.35553016  1
  O  O32  1  0.35219799  0.50314185  0.35254539  1
  O  O33  1  0.10188081  0.47982559  0.86255804  1
  O  O34  1  0.37314280  0.88968639  0.86038530  1
  O  O35  1  0.51841211  0.62514051  0.86311648  1
  O  O36  1  0.02354286  0.81649561  0.40767756  1
  O  O37  1  0.79220856  0.97224532  0.40538025  1
  O  O38  1  0.17762715  0.22344704  0.40532098  1
  O  O39  1  0.00249347  0.20444604  0.91707468  1
  O  O40  1  0.20088724  0.99337409  0.91320095  1
  O  O41  1  0.79422054  0.79267423  0.91501041  1
  O  O42  1  0.97926955  0.14469754  0.59462076  1
  O  O43  1  0.16625484  0.02320640  0.59830499  1
  O  O44  1  0.85930029  0.83020611  0.59248303  1
  O  O45  1  0.95112347  0.81470664  0.09452165  1
  O  O46  1  0.85248871  0.05617980  0.09316783  1
  O  O47  1  0.19328779  0.15169741  0.09426954  1
  O  O48  1  0.66891277  0.14817179  0.75054078  1
  O  O49  1  0.46150223  0.33591939  0.74188353  1
  O  O50  1  0.86546901  0.54133961  0.74440463  1
  O  O51  1  0.67498827  0.51560332  0.23721264  1
  O  O52  1  0.84264826  0.32717833  0.23628837  1
  O  O53  1  0.51067922  0.16916285  0.23228393  1
  O  O54  1  0.62460813  0.47555391  0.92313823  1
  O  O55  1  0.84988435  0.37116674  0.92362736  1
  O  O56  1  0.51790424  0.14582008  0.91841102  1
  O  O57  1  0.63415290  0.13247949  0.40967836  1
  O  O58  1  0.49509127  0.37574599  0.40674851  1
  O  O59  1  0.86788846  0.50026717  0.41104562  1
  O  O60  1  0.35895288  0.46848778  0.08534880  1
  O  O61  1  0.13055472  0.64231034  0.09193898  1
  O  O62  1  0.53628150  0.88630491  0.08314766  1
  O  O63  1  0.30376009  0.84655429  0.58791499  1
  O  O64  1  0.54491575  0.69687767  0.58588412  1
  O  O65  1  0.15068336  0.45816204  0.58656674  1
  O  O66  1  0.33329917  0.82286318  0.25835578  1
  O  O67  1  0.52154104  0.67480931  0.24888783  1
  O  O68  1  0.15532394  0.48281067  0.25023702  1
  O  O69  1  0.28471614  0.47326189  0.75151657  1
  O  O70  1  0.17976502  0.70356272  0.75307211  1
  O  O71  1  0.50647003  0.79913936  0.75660497  1
loop_
_geom_bond_atom_site_label_1
_geom_bond_atom_site_label_2
_geom_bond_distance
_geom_bond_site_symmetry_2
Na0 O44 2.557953 1_445
Na0 O42 2.610827 1_455
Na0 O43 2.661895 1_555
Na0 O36 2.764614 1_545
Na0 O37 2.785738 1_445
Na0 O38 2.789797 1_555
Na1 O45 2.521966 1_555
Na1 O47 2.642470 1_665
Na1 O46 2.644132 1_565
Na1 O39 2.691384 1_664
Na1 O41 2.745124 1_554
Na1 O40 2.757900 1_654
Na2 O48 2.433887 1_555
Na2 O56 2.438146 1_555
Na2 O55 2.571001 1_555
Na2 O54 2.668382 1_555
Na2 O50 2.742600 1_555
Na2 O49 2.809114 1_555
Na3 O58 2.411441 1_555
Na3 O57 2.417282 1_555
Na3 O59 2.600589 1_555
Na3 O53 2.627866 1_555
Na3 O51 2.671749 1_555
Na3 O52 2.769599 1_555
Na4 O61 2.350440 1_555
Na4 O68 2.390633 1_555
Na4 O66 2.473532 1_555
Na4 O67 2.572761 1_555
Na4 O60 2.772051 1_555
Na4 O62 2.779982 1_555
Na5 O69 2.438593 1_555
Na5 O71 2.502928 1_555
Na5 O70 2.518951 1_555
Na5 O63 2.529092 1_555
Na5 O65 2.564326 1_555
Na5 O64 2.578360 1_555
Ca0 O0 2.143620 1_555
Ca0 O2 2.245796 1_455
Ca0 O36 2.270996 1_545
Ca0 O1 2.292004 1_445
Ca0 O38 2.293078 1_555
Ca0 O37 2.355877 1_445
Ca1 O5 2.132846 1_455
Ca1 O3 2.182761 1_555
Ca1 O4 2.215259 1_445
Ca1 O40 2.258519 1_545
Ca1 O39 2.289285 1_555
Ca1 O41 2.289796 1_445
Ca2 O12 2.197832 1_555
Ca2 O14 2.201155 1_555
Ca2 O48 2.205721 1_555
Ca2 O13 2.211378 1_555
Ca2 O49 2.260596 1_555
Ca2 O50 2.286819 1_555
Ca3 O22 2.362945 1_555
Ca3 O59 2.366431 1_555
Ca3 O21 2.373340 1_555
Ca3 O23 2.394993 1_555
Ca3 O57 2.402694 1_555
Ca3 O58 2.450277 1_555
Ca4 O61 2.181117 1_555
Ca4 O26 2.205484 1_554
Ca4 O25 2.217632 1_554
Ca4 O24 2.286264 1_554
Ca4 O60 2.311591 1_555
Ca4 O62 2.315589 1_555
Ca5 O27 2.215600 1_555
Ca5 O29 2.217659 1_555
Ca5 O28 2.224346 1_555
Ca5 O65 2.274103 1_555
Ca5 O64 2.282722 1_555
Ca5 O63 2.301440 1_555
Ge0 O6 1.794534 1_555
Ge0 O42 1.937172 1_565
Ge0 O43 1.959501 1_665
Ge0 O44 1.960411 1_555
Ge0 O8 2.000372 1_655
Ge0 O7 2.066841 1_665
Ge1 O11 1.773902 1_555
Ge1 O45 1.783544 1_455
Ge1 O9 2.006185 1_455
Ge1 O47 2.085961 1_565
Ge1 O46 2.387827 1_465
Ge1 O10 2.399700 1_565
Ge2 O15 1.734251 1_555
Ge2 O53 1.771430 1_555
Ge2 O16 1.903248 1_555
Ge2 O52 1.939067 1_555
Ge2 O17 1.981830 1_555
Ge2 O51 2.103900 1_555
Ge3 O19 1.783966 1_556
Ge3 O55 1.976392 1_555
Ge3 O54 1.984234 1_555
Ge3 O20 2.094178 1_556
Ge3 O18 2.204759 1_556
Ge3 O56 2.354573 1_555
Ge4 O66 1.803388 1_555
Ge4 O31 1.863108 1_555
Ge4 O30 1.867464 1_555
Ge4 O32 1.888939 1_555
Ge4 O68 2.319747 1_555
Ge4 O67 2.343030 1_555
Ge5 O71 1.805823 1_555
Ge5 O34 2.067852 1_555
Ge5 O70 2.076139 1_555
Ge5 O35 2.178743 1_555
Ge5 O69 2.187373 1_555
Ge5 O33 2.301654 1_555
O0 Si0 1.564698 1_555
O1 S0 1.452121 1_555
O2 S1 1.453512 1_655
O3 S2 1.448492 1_555
O4 S3 1.445753 1_655
O5 Si1 1.598823 1_545
O6 Si1 1.668059 1_555
O7 S2 1.529993 1_555
O8 S3 1.532748 1_555
O9 S0 1.548109 1_555
O10 S1 1.496181 1_555
O11 Si0 1.698153 1_565
O12 S4 1.453075 1_555
O13 S5 1.454230 1_555
O14 S6 1.452625 1_555
O15 Si2 1.617098 1_555
O16 S7 1.495246 1_555
O17 S8 1.476570 1_555
O18 S8 1.507731 1_555
O19 Si2 1.688345 1_555
O20 S7 1.522548 1_555
O21 S5 1.480594 1_555
O22 S6 1.477038 1_555
O23 S4 1.476265 1_555
O24 S9 1.445569 1_555
O25 S10 1.446964 1_555
O26 S11 1.448731 1_555
O27 S12 1.454586 1_555
O28 S13 1.453843 1_555
O29 S14 1.453341 1_555
O30 S14 1.559556 1_555
O31 S12 1.558144 1_555
O32 S13 1.583156 1_555
O33 S10 1.498139 1_555
O34 S11 1.538536 1_555
O35 S9 1.507468 1_555
O36 S14 1.464884 1_555
O37 S12 1.462208 1_555
O38 S13 1.463153 1_555
O39 S10 1.466403 1_555
O40 S11 1.470591 1_555
O41 S9 1.465682 1_555
O42 S4 1.525144 1_555
O43 S5 1.521855 1_555
O44 S6 1.526880 1_555
O45 Si2 1.694233 1_555
O46 S7 1.484124 1_555
O47 S8 1.527975 1_555
O48 Si1 1.617615 1_545
O49 S2 1.461485 1_555
O50 S3 1.456243 1_655
O51 S0 1.496820 1_555
O52 S1 1.523413 1_655
O53 Si0 1.656404 1_555
O54 S9 1.558374 1_555
O55 S10 1.560738 1_655
O56 S11 1.505759 1_545
O57 S12 1.475131 1_545
O58 S13 1.474408 1_555
O59 S14 1.470966 1_655
O60 S8 1.457922 1_555
O61 Si2 1.585972 1_455
O62 S7 1.461202 1_565
O63 S5 1.475937 1_565
O64 S6 1.475369 1_555
O65 S4 1.475109 1_455
O66 Si0 1.693787 1_565
O67 S0 1.488379 1_555
O68 S1 1.501602 1_555
O69 S2 1.513589 1_555
O70 S3 1.519361 1_555
O71 Si1 1.661120 1_555
