# generated using pymatgen
data_Na10Y4Mg4Si3(S3O16)3
_symmetry_space_group_name_H-M   'P 1'
_cell_length_a   18.41370961
_cell_length_b   9.19290117
_cell_length_c   23.16951467
_cell_angle_alpha   90.02276507
_cell_angle_beta   89.89251391
_cell_angle_gamma   120.20956693
_symmetry_Int_Tables_number   1
_chemical_formula_structural   Na10Y4Mg4Si3(S3O16)3
_chemical_formula_sum   'Na30 Y12 Mg12 Si9 S27 O144'
_cell_volume   3389.37486494
_cell_formula_units_Z   3
loop_
 _symmetry_equiv_pos_site_id
 _symmetry_equiv_pos_as_xyz
  1  'x, y, z'
loop_
 _atom_site_type_symbol
 _atom_site_label
 _atom_site_symmetry_multiplicity
 _atom_site_fract_x
 _atom_site_fract_y
 _atom_site_fract_z
 _atom_site_occupancy
  Na  Na0  1  0.19277325  0.36773815  0.24055248  1
  Na  Na1  1  0.69226432  0.37159965  0.24058405  1
  Na  Na2  1  0.99070900  0.64270061  0.25487226  1
  Na  Na3  1  0.49206825  0.63566198  0.26352759  1
  Na  Na4  1  0.32518949  0.66060821  0.74305787  1
  Na  Na5  1  0.82228513  0.65436358  0.74243227  1
  Na  Na6  1  0.99194686  0.34319357  0.75250523  1
  Na  Na7  1  0.19322352  0.01051163  0.73622262  1
  Na  Na8  1  0.69387611  0.01078276  0.73747752  1
  Na  Na9  1  0.52403550  0.70462892  0.56870327  1
  Na  Na10  1  0.32565632  0.97156589  0.59087210  1
  Na  Na11  1  0.82548000  0.96648790  0.59015766  1
  Na  Na12  1  0.15507587  0.98831828  0.07774722  1
  Na  Na13  1  0.65496757  0.98761024  0.07756599  1
  Na  Na14  1  0.32740638  0.67929337  0.09393679  1
  Na  Na15  1  0.82692264  0.67967042  0.09471461  1
  Na  Na16  1  0.65844270  0.00971909  0.42695579  1
  Na  Na17  1  0.35865941  0.67674649  0.40637679  1
  Na  Na18  1  0.02234573  0.00300947  0.49732650  1
  Na  Na19  1  0.51471473  0.01180589  0.49437195  1
  Na  Na20  1  0.01189157  0.03637383  0.99637670  1
  Na  Na21  1  0.51220834  0.03708245  0.99562769  1
  Na  Na22  1  0.34746802  0.31602430  0.82695969  1
  Na  Na23  1  0.83380492  0.31203245  0.83026615  1
  Na  Na24  1  0.34547581  0.34483603  0.33171335  1
  Na  Na25  1  0.84018756  0.35354798  0.32745846  1
  Na  Na26  1  0.17599211  0.65160439  0.16109685  1
  Na  Na27  1  0.67687319  0.65214400  0.16367024  1
  Na  Na28  1  0.16975677  0.68781847  0.65498699  1
  Na  Na29  1  0.66924738  0.67189875  0.65723435  1
  Y  Y0  1  0.00327391  0.00017431  0.64716437  1
  Y  Y1  1  0.50248707  0.00848323  0.65000540  1
  Y  Y2  1  0.99566933  0.00517163  0.15148531  1
  Y  Y3  1  0.49636857  0.00454553  0.15069080  1
  Y  Y4  1  0.32981038  0.33234136  0.98141028  1
  Y  Y5  1  0.82965292  0.33314289  0.98129559  1
  Y  Y6  1  0.32839559  0.32579116  0.48121687  1
  Y  Y7  1  0.83069116  0.33383609  0.48436694  1
  Y  Y8  1  0.17247893  0.67386239  0.31516919  1
  Y  Y9  1  0.67008166  0.67168449  0.31865443  1
  Y  Y10  1  0.17212661  0.67631508  0.81977141  1
  Y  Y11  1  0.66633265  0.66767438  0.81785873  1
  Mg  Mg0  1  0.99168823  0.98259530  0.34985878  1
  Mg  Mg1  1  0.49520041  0.98561954  0.34964465  1
  Mg  Mg2  1  0.99407680  0.00595424  0.85176803  1
  Mg  Mg3  1  0.49398635  0.00751144  0.85121854  1
  Mg  Mg4  1  0.33401883  0.30606774  0.68090054  1
  Mg  Mg5  1  0.83154167  0.31357058  0.67904857  1
  Mg  Mg6  1  0.33196231  0.34535580  0.18259840  1
  Mg  Mg7  1  0.83051663  0.34396157  0.18213954  1
  Mg  Mg8  1  0.16293252  0.64374363  0.01687122  1
  Mg  Mg9  1  0.66271489  0.64368367  0.01732514  1
  Mg  Mg10  1  0.15986471  0.67296374  0.51711511  1
  Mg  Mg11  1  0.66393564  0.67469603  0.51349526  1
  Si  Si0  1  0.35043479  0.69160035  0.24941967  1
  Si  Si1  1  0.85069347  0.69367446  0.24818615  1
  Si  Si2  1  0.35329029  0.00806860  0.74987251  1
  Si  Si3  1  0.85331702  0.00726889  0.74887947  1
  Si  Si4  1  0.18225132  0.02163960  0.58511649  1
  Si  Si5  1  0.68241746  0.02335801  0.58381603  1
  Si  Si6  1  0.18290163  0.33686509  0.08596828  1
  Si  Si7  1  0.68291056  0.33724662  0.08558042  1
  Si  Si8  1  0.51666251  0.67393728  0.41585790  1
  S  S0  1  0.14770890  0.00575750  0.25059537  1
  S  S1  1  0.64994190  0.00604757  0.25034402  1
  S  S2  1  0.99618197  0.29515961  0.25386663  1
  S  S3  1  0.49716552  0.29440596  0.25327896  1
  S  S4  1  0.14806480  0.29275251  0.75382982  1
  S  S5  1  0.65165675  0.29507646  0.75345004  1
  S  S6  1  0.99722735  0.70215097  0.75395083  1
  S  S7  1  0.49687261  0.70313997  0.75203373  1
  S  S8  1  0.48269324  0.34144991  0.58413157  1
  S  S9  1  0.98435250  0.34355781  0.58545088  1
  S  S10  1  0.33050868  0.62554788  0.58619209  1
  S  S11  1  0.82897810  0.62716728  0.58676259  1
  S  S12  1  0.48473905  0.62682279  0.08471889  1
  S  S13  1  0.98488142  0.62725271  0.08465141  1
  S  S14  1  0.32901254  0.03544564  0.08369918  1
  S  S15  1  0.82941036  0.03653540  0.08350758  1
  S  S16  1  0.32091605  0.67863354  0.91840238  1
  S  S17  1  0.81955260  0.67817724  0.91731424  1
  S  S18  1  0.01917124  0.36328993  0.91592095  1
  S  S19  1  0.51923205  0.36213070  0.91816130  1
  S  S20  1  0.15994626  0.96171883  0.91878107  1
  S  S21  1  0.66082427  0.96094870  0.91824278  1
  S  S22  1  0.31730383  0.95899505  0.41972832  1
  S  S23  1  0.82158214  0.96629133  0.41966212  1
  S  S24  1  0.15928472  0.36632162  0.41782628  1
  S  S25  1  0.66395059  0.36561182  0.41695537  1
  S  S26  1  0.01975930  0.67604927  0.41559269  1
  O  O0  1  0.10563304  0.03432879  0.29974882  1
  O  O1  1  0.60854551  0.03132610  0.30140982  1
  O  O2  1  0.40786532  0.79076551  0.30545808  1
  O  O3  1  0.91651655  0.79809956  0.29965975  1
  O  O4  1  0.49051969  0.19285333  0.30385505  1
  O  O5  1  0.98976405  0.19389925  0.30439411  1
  O  O6  1  0.10827423  0.18262296  0.80387983  1
  O  O7  1  0.60882893  0.18684171  0.80351726  1
  O  O8  1  0.48897478  0.79318488  0.80192944  1
  O  O9  1  0.98832712  0.78775389  0.80458964  1
  O  O10  1  0.40947943  0.01291531  0.80377245  1
  O  O11  1  0.91720532  0.03690873  0.80160526  1
  O  O12  1  0.38704662  0.96880184  0.68877193  1
  O  O13  1  0.88728420  0.96505428  0.68906433  1
  O  O14  1  0.09732242  0.21855504  0.70102533  1
  O  O15  1  0.60345235  0.22192668  0.69970836  1
  O  O16  1  0.01668086  0.80850168  0.70167892  1
  O  O17  1  0.51419226  0.80647612  0.69840119  1
  O  O18  1  0.38931629  0.79256734  0.18848253  1
  O  O19  1  0.88707318  0.78786836  0.18535848  1
  O  O20  1  0.01577840  0.22830419  0.20109280  1
  O  O21  1  0.51282877  0.22275685  0.20017233  1
  O  O22  1  0.09858731  0.98047826  0.19634433  1
  O  O23  1  0.59859191  0.98323569  0.19760392  1
  O  O24  1  0.44219303  0.36689750  0.63499415  1
  O  O25  1  0.94595012  0.36569833  0.63929732  1
  O  O26  1  0.23687410  0.10788531  0.64453038  1
  O  O27  1  0.73879244  0.11631372  0.64124283  1
  O  O28  1  0.32490215  0.52987816  0.63855154  1
  O  O29  1  0.82515698  0.53421591  0.64051403  1
  O  O30  1  0.44680410  0.52770370  0.13741162  1
  O  O31  1  0.94737198  0.52898169  0.13761506  1
  O  O32  1  0.32392199  0.12527238  0.13488386  1
  O  O33  1  0.82432234  0.12609430  0.13474109  1
  O  O34  1  0.23788598  0.36084475  0.14475870  1
  O  O35  1  0.73769678  0.36062405  0.14421839  1
  O  O36  1  0.23140031  0.30420015  0.03189845  1
  O  O37  1  0.73120604  0.30421813  0.03138142  1
  O  O38  1  0.43179625  0.54363380  0.03373154  1
  O  O39  1  0.93188381  0.54310340  0.03384775  1
  O  O40  1  0.34366999  0.13607312  0.03056686  1
  O  O41  1  0.84390120  0.13725890  0.03039098  1
  O  O42  1  0.23234046  0.14165519  0.53012793  1
  O  O43  1  0.72673532  0.13193372  0.52465587  1
  O  O44  1  0.34487336  0.54951376  0.53375204  1
  O  O45  1  0.84092201  0.54508566  0.53567553  1
  O  O46  1  0.43214036  0.31942507  0.53155670  1
  O  O47  1  0.92937714  0.32165913  0.53537112  1
  O  O48  1  0.27424902  0.68991184  0.96865729  1
  O  O49  1  0.77421065  0.68954748  0.96819321  1
  O  O50  1  0.07256131  0.46051580  0.96472095  1
  O  O51  1  0.57013950  0.45351469  0.96870763  1
  O  O52  1  0.15458415  0.86079560  0.97001220  1
  O  O53  1  0.65552004  0.86147996  0.96982253  1
  O  O54  1  0.27474626  0.85526786  0.47084655  1
  O  O55  1  0.78023263  0.86621704  0.47247202  1
  O  O56  1  0.15234557  0.45857013  0.46748232  1
  O  O57  1  0.66080982  0.46035635  0.46727564  1
  O  O58  1  0.07239370  0.68618278  0.46488195  1
  O  O59  1  0.57517259  0.69492524  0.47227821  1
  O  O60  1  0.05601101  0.65559391  0.36040473  1
  O  O61  1  0.55970722  0.65626551  0.35609368  1
  O  O62  1  0.26655006  0.87783373  0.36724873  1
  O  O63  1  0.76700442  0.88487936  0.36882611  1
  O  O64  1  0.17078343  0.46410259  0.36331824  1
  O  O65  1  0.67552192  0.45943943  0.36241141  1
  O  O66  1  0.05491069  0.45402263  0.86040356  1
  O  O67  1  0.55780703  0.45971225  0.86451939  1
  O  O68  1  0.16780921  0.87961809  0.86514437  1
  O  O69  1  0.66873453  0.87806117  0.86482176  1
  O  O70  1  0.27152735  0.65416211  0.86429616  1
  O  O71  1  0.76987401  0.65550195  0.86347142  1
  O  O72  1  0.01400712  0.83136627  0.41337922  1
  O  O73  1  0.51112549  0.84872194  0.41278127  1
  O  O74  1  0.40083408  0.97103938  0.41409076  1
  O  O75  1  0.90530655  0.98584702  0.41272511  1
  O  O76  1  0.08610551  0.19561106  0.41329404  1
  O  O77  1  0.58794916  0.19661524  0.41417489  1
  O  O78  1  0.01323679  0.19601738  0.91455301  1
  O  O79  1  0.51335843  0.19529503  0.91483796  1
  O  O80  1  0.08494092  0.98020622  0.91496368  1
  O  O81  1  0.58574882  0.97963473  0.91423709  1
  O  O82  1  0.40451321  0.83157736  0.91468133  1
  O  O83  1  0.90339462  0.83150706  0.91310859  1
  O  O84  1  0.48728511  0.18506298  0.58869885  1
  O  O85  1  0.98629451  0.18353583  0.58851859  1
  O  O86  1  0.08763614  -0.00189994  0.58548250  1
  O  O87  1  0.58578562  0.99209614  0.58556722  1
  O  O88  1  0.40674962  0.80010708  0.58809051  1
  O  O89  1  0.90169830  0.80203529  0.58743739  1
  O  O90  1  0.49067275  0.79632697  0.08797591  1
  O  O91  1  0.99134429  0.79711425  0.08762212  1
  O  O92  1  0.39965996  -0.00086784  0.08685505  1
  O  O93  1  0.90037025  0.00118618  0.08660069  1
  O  O94  1  0.09009354  0.16147088  0.08640777  1
  O  O95  1  0.59031313  0.16143149  0.08592403  1
  O  O96  1  0.33976374  0.17061102  0.74645061  1
  O  O97  1  0.84390845  0.17680086  0.74372970  1
  O  O98  1  0.23519531  0.32415973  0.74684762  1
  O  O99  1  0.73728582  0.31641233  0.74829587  1
  O  O100  1  0.41839722  0.53904823  0.74557623  1
  O  O101  1  0.91810561  0.53671769  0.74632034  1
  O  O102  1  0.34442537  0.50540428  0.24740106  1
  O  O103  1  0.84326855  0.50557803  0.24617762  1
  O  O104  1  0.42180402  0.31178262  0.24699858  1
  O  O105  1  0.92012423  0.30905845  0.24655927  1
  O  O106  1  0.23375564  0.15071702  0.24488401  1
  O  O107  1  0.73477298  0.15504623  0.24467872  1
  O  O108  1  0.33079357  0.52754971  0.92175800  1
  O  O109  1  0.82959100  0.52682788  0.92006306  1
  O  O110  1  0.43362005  0.34049430  0.92130912  1
  O  O111  1  0.93372350  0.34244063  0.92023024  1
  O  O112  1  0.23820536  0.13090268  0.91956813  1
  O  O113  1  0.73910818  0.13056629  0.91866265  1
  O  O114  1  0.32854425  0.12971310  0.42163464  1
  O  O115  1  0.82785921  0.13546280  0.42268053  1
  O  O116  1  0.23910592  0.35934230  0.42116124  1
  O  O117  1  0.73866007  0.33905433  0.41974120  1
  O  O118  1  0.41963731  0.51290545  0.41808637  1
  O  O119  1  0.93387627  0.52442679  0.42019611  1
  O  O120  1  0.17951766  0.51069777  0.07706333  1
  O  O121  1  0.67971915  0.51119917  0.07711535  1
  O  O122  1  0.07197471  0.65762381  0.07694031  1
  O  O123  1  0.57186331  0.65846846  0.07709355  1
  O  O124  1  0.24891431  0.87076429  0.07900301  1
  O  O125  1  0.74939608  0.87163861  0.07881900  1
  O  O126  1  0.17869029  0.84007211  0.57767848  1
  O  O127  1  0.67614085  0.83743696  0.57896380  1
  O  O128  1  0.25491715  0.64296672  0.58017169  1
  O  O129  1  0.75109750  0.63696777  0.58151488  1
  O  O130  1  0.06898513  0.48794685  0.57801633  1
  O  O131  1  0.56817619  0.49055756  0.57845817  1
  O  O132  1  0.14972037  0.84594623  0.25660179  1
  O  O133  1  0.65469084  0.84987424  0.25442675  1
  O  O134  1  0.25239696  0.65775777  0.25193430  1
  O  O135  1  0.75420296  0.66238952  0.25331324  1
  O  O136  1  0.06985485  0.47237304  0.25838060  1
  O  O137  1  0.57291568  0.46852605  0.25633837  1
  O  O138  1  0.15263441  0.45985512  0.75981620  1
  O  O139  1  0.66300332  0.46749533  0.75817846  1
  O  O140  1  0.06841726  0.66778527  0.75936870  1
  O  O141  1  0.57128882  0.67925062  0.75723600  1
  O  O142  1  0.25491717  0.83374302  0.75366246  1
  O  O143  1  0.75660758  0.83907274  0.75583041  1
loop_
_geom_bond_atom_site_label_1
_geom_bond_atom_site_label_2
_geom_bond_distance
_geom_bond_site_symmetry_2
Na0 O134 2.331953 1_555
Na0 O34 2.380372 1_555
Na0 O102 2.422777 1_555
Na0 O106 2.464813 1_555
Na0 O136 2.899289 1_555
Na1 O135 2.338008 1_555
Na1 O35 2.402698 1_555
Na1 O103 2.412487 1_555
Na1 O107 2.480590 1_555
Na1 O137 2.779238 1_555
Na2 O103 2.357601 1_555
Na2 O132 2.561399 1_655
Na2 O136 2.622826 1_655
Na2 O3 2.634678 1_555
Na2 O105 2.668807 1_555
Na2 O60 2.702963 1_655
Na2 O31 2.876978 1_555
Na3 O102 2.385786 1_555
Na3 O61 2.441147 1_555
Na3 O104 2.609570 1_555
Na3 O137 2.627808 1_555
Na3 O133 2.636870 1_555
Na3 O2 2.756610 1_555
Na4 O100 2.475557 1_555
Na4 O142 2.517737 1_555
Na4 O98 2.676170 1_555
Na4 O28 2.701601 1_555
Na4 O12 2.767008 1_555
Na4 O138 2.783406 1_555
Na4 O8 2.959183 1_555
Na4 O70 2.966706 1_555
Na5 O101 2.492366 1_555
Na5 O143 2.550857 1_555
Na5 O139 2.571502 1_555
Na5 O29 2.618236 1_555
Na5 O99 2.688177 1_555
Na5 O13 2.770599 1_555
Na5 O71 2.965846 1_555
Na6 O97 2.370150 1_555
Na6 O140 2.585366 1_655
Na6 O138 2.596552 1_655
Na6 O11 2.685746 1_555
Na6 O66 2.729859 1_655
Na6 O101 2.733040 1_555
Na6 O25 2.797364 1_555
Na6 O14 2.954325 1_655
Na7 O26 2.287300 1_555
Na7 O96 2.347125 1_555
Na7 O142 2.440170 1_545
Na7 O98 2.594066 1_555
Na7 O140 2.864596 1_545
Na7 O16 2.930942 1_545
Na8 O97 2.395996 1_555
Na8 O27 2.405031 1_555
Na8 O143 2.417459 1_545
Na8 O99 2.517120 1_555
Na8 O141 2.769064 1_545
Na9 O87 2.325121 1_555
Na9 O127 2.439843 1_555
Na9 O59 2.441801 1_555
Na9 O131 2.489013 1_555
Na9 O88 2.745900 1_555
Na9 O44 2.974532 1_555
Na10 O126 2.364100 1_555
Na10 O12 2.542090 1_555
Na10 O84 2.614107 1_565
Na10 O128 2.631388 1_555
Na10 O88 2.662027 1_555
Na10 O26 2.800263 1_565
Na10 O54 2.958757 1_555
Na11 O127 2.399173 1_555
Na11 O89 2.528631 1_555
Na11 O13 2.563541 1_555
Na11 O85 2.608659 1_565
Na11 O129 2.630143 1_555
Na11 O27 2.837264 1_565
Na11 O55 2.865749 1_555
Na12 O94 2.433381 1_565
Na12 O124 2.456356 1_555
Na12 O91 2.626103 1_455
Na12 O122 2.627254 1_555
Na12 O36 2.725069 1_565
Na12 O52 2.755415 1_554
Na12 O22 2.924335 1_555
Na13 O95 2.433415 1_565
Na13 O125 2.454890 1_555
Na13 O123 2.614882 1_555
Na13 O90 2.635670 1_555
Na13 O37 2.733522 1_565
Na13 O53 2.754244 1_554
Na13 O23 2.960012 1_555
Na13 O33 3.019826 1_565
Na14 O120 2.393090 1_555
Na14 O18 2.448573 1_555
Na14 O92 2.550495 1_565
Na14 O90 2.637859 1_555
Na14 O34 2.795195 1_555
Na14 O124 2.805246 1_555
Na15 O19 2.350586 1_555
Na15 O121 2.385611 1_555
Na15 O93 2.564607 1_565
Na15 O91 2.658555 1_555
Na15 O35 2.786309 1_555
Na15 O125 2.797421 1_555
Na16 O73 2.370567 1_545
Na16 O43 2.560212 1_555
Na16 O117 2.622020 1_555
Na16 O77 2.640210 1_555
Na16 O59 2.712806 1_545
Na16 O115 2.729080 1_555
Na17 O118 2.303532 1_555
Na17 O74 2.416630 1_555
Na17 O73 2.436824 1_555
Na17 O2 2.534806 1_555
Na17 O116 2.647905 1_555
Na18 O86 2.383955 1_555
Na18 O72 2.459940 1_545
Na18 O76 2.491255 1_555
Na18 O75 2.860973 1_445
Na18 O89 2.926265 1_445
Na18 O85 2.959674 1_455
Na19 O73 2.392528 1_545
Na19 O77 2.417660 1_555
Na19 O87 2.541521 1_545
Na19 O74 2.687162 1_545
Na19 O84 2.893269 1_555
Na19 O88 2.923772 1_545
Na20 O78 2.390396 1_555
Na20 O94 2.467846 1_556
Na20 O80 2.514498 1_545
Na20 O83 2.735975 1_445
Na20 O93 2.829755 1_456
Na20 O91 2.934897 1_446
Na21 O79 2.364465 1_555
Na21 O95 2.471249 1_556
Na21 O81 2.525490 1_545
Na21 O82 2.694454 1_545
Na21 O92 2.853235 1_556
Na21 O90 2.958245 1_546
Na22 O96 2.257167 1_555
Na22 O100 2.600763 1_555
Na22 O110 2.645644 1_555
Na22 O98 2.809801 1_555
Na22 O112 2.844139 1_555
Na23 O97 2.414437 1_555
Na23 O99 2.617646 1_555
Na23 O113 2.660867 1_555
Na23 O101 2.687787 1_555
Na23 O111 2.702675 1_555
Na23 O109 2.895522 1_555
Na24 O102 2.454881 1_555
Na24 O118 2.478191 1_555
Na24 O104 2.517786 1_555
Na24 O114 2.780141 1_555
Na24 O106 2.789656 1_555
Na24 O116 2.897699 1_555
Na25 O103 2.329159 1_555
Na25 O105 2.538121 1_555
Na25 O107 2.687558 1_555
Na25 O119 2.710117 1_555
Na25 O117 2.796249 1_555
Na25 O115 2.912400 1_555
Na26 O120 2.356934 1_555
Na26 O134 2.518547 1_555
Na26 O124 2.598276 1_555
Na26 O122 2.755784 1_555
Na26 O136 2.891516 1_555
Na26 O132 3.030663 1_555
Na27 O121 2.401917 1_555
Na27 O135 2.495253 1_555
Na27 O125 2.646032 1_555
Na27 O137 2.803453 1_555
Na27 O123 2.809599 1_555
Na27 O133 2.938287 1_555
Na28 O126 2.227931 1_555
Na28 O128 2.504732 1_555
Na28 O130 2.564844 1_555
Na28 O142 2.716552 1_555
Na29 O127 2.329722 1_555
Na29 O129 2.434993 1_555
Na29 O131 2.542098 1_555
Na29 O143 2.773311 1_555
Na29 O141 2.955251 1_555
Na29 O139 2.966355 1_555
Mg0 O3 1.946099 1_555
Mg0 O75 2.166028 1_555
Mg0 O72 2.201482 1_655
Mg0 O5 2.226031 1_565
Mg0 O0 2.227895 1_665
Mg0 O76 2.366166 1_665
Mg1 O2 1.987161 1_555
Mg1 O73 2.045517 1_555
Mg1 O1 2.211482 1_565
Mg1 O4 2.220248 1_565
Mg1 O74 2.241202 1_555
Mg1 O77 2.363922 1_565
Mg2 O11 1.961423 1_555
Mg2 O78 2.161714 1_655
Mg2 O83 2.162878 1_545
Mg2 O6 2.201468 1_655
Mg2 O9 2.239345 1_545
Mg2 O80 2.325374 1_645
Mg3 O10 1.927846 1_555
Mg3 O79 2.158775 1_555
Mg3 O82 2.191702 1_545
Mg3 O7 2.212592 1_555
Mg3 O8 2.238379 1_545
Mg3 O81 2.344769 1_545
Mg4 O26 1.988459 1_555
Mg4 O96 2.000781 1_555
Mg4 O24 2.069599 1_555
Mg4 O28 2.360914 1_555
Mg4 O100 2.429845 1_555
Mg4 O98 2.442866 1_555
Mg5 O27 1.964719 1_555
Mg5 O97 2.041931 1_555
Mg5 O25 2.119711 1_555
Mg5 O29 2.273116 1_555
Mg5 O99 2.371143 1_555
Mg5 O101 2.427863 1_555
Mg6 O34 2.010917 1_555
Mg6 O102 2.032611 1_555
Mg6 O30 2.191746 1_555
Mg6 O32 2.243849 1_555
Mg6 O106 2.300094 1_555
Mg6 O104 2.362603 1_555
Mg7 O35 1.996459 1_555
Mg7 O103 2.027919 1_555
Mg7 O31 2.212971 1_555
Mg7 O33 2.235894 1_555
Mg7 O107 2.266076 1_555
Mg7 O105 2.365513 1_555
Mg8 O120 1.978128 1_555
Mg8 O50 2.061924 1_554
Mg8 O48 2.178492 1_554
Mg8 O122 2.228156 1_555
Mg8 O52 2.344092 1_554
Mg8 O124 2.369713 1_555
Mg9 O121 1.971591 1_555
Mg9 O51 2.058553 1_554
Mg9 O49 2.192983 1_554
Mg9 O123 2.225932 1_555
Mg9 O53 2.346669 1_554
Mg9 O125 2.368380 1_555
Mg10 O126 1.978222 1_555
Mg10 O58 2.068341 1_555
Mg10 O130 2.193876 1_555
Mg10 O54 2.204101 1_555
Mg10 O56 2.224911 1_555
Mg10 O128 2.401998 1_555
Mg11 O59 1.982395 1_555
Mg11 O127 2.061731 1_555
Mg11 O55 2.188290 1_555
Mg11 O57 2.217436 1_555
Mg11 O131 2.286589 1_555
Mg11 O129 2.397927 1_555
O0 S0 1.472244 1_555
O1 S1 1.486469 1_555
O2 Si0 1.633779 1_555
O3 Si1 1.626825 1_555
O4 S3 1.464599 1_555
O5 S2 1.463103 1_555
O6 S4 1.468955 1_555
O7 S5 1.471548 1_555
O8 S7 1.470573 1_555
O9 S6 1.466642 1_555
O10 Si2 1.609500 1_555
O11 Si3 1.622696 1_555
O12 Si2 1.656163 1_565
O12 Y1 2.161284 1_565
O13 Si3 1.644102 1_565
O13 Y0 2.215150 1_665
O14 S4 1.482358 1_555
O14 Y0 2.257021 1_555
O15 S5 1.480991 1_555
O15 Y1 2.228874 1_555
O16 S6 1.482511 1_455
O16 Y0 2.280731 1_565
O17 S7 1.497618 1_555
O17 Y1 2.271058 1_565
O18 Si0 1.641960 1_555
O18 Y3 2.139885 1_565
O19 Si1 1.652630 1_555
O19 Y2 2.140244 1_565
O20 S2 1.491295 1_455
O20 Y2 2.213851 1_455
O21 S3 1.490047 1_555
O21 Y3 2.194968 1_555
O22 S0 1.498207 1_565
O22 Y2 2.272380 1_465
O23 S1 1.495263 1_565
O23 Y3 2.267568 1_565
O24 S8 1.473670 1_555
O25 S9 1.496423 1_555
O26 Si4 1.654415 1_555
O27 Si5 1.640056 1_555
O28 S10 1.471350 1_555
O29 S11 1.492022 1_555
O30 S12 1.471694 1_555
O31 S13 1.472698 1_555
O32 S14 1.474379 1_555
O33 S15 1.473818 1_555
O34 Si6 1.646042 1_555
O35 Si7 1.642092 1_555
O36 Si6 1.649999 1_555
O36 Y4 2.059015 1_554
O37 Si7 1.651429 1_555
O37 Y5 2.052025 1_554
O38 S12 1.477891 1_555
O38 Y4 2.259425 1_554
O39 S13 1.476554 1_555
O39 Y5 2.258758 1_554
O40 S14 1.480699 1_555
O40 Y4 2.254730 1_554
O41 S15 1.481281 1_555
O41 Y5 2.254692 1_554
O42 Si4 1.632126 1_555
O42 Y6 2.063755 1_555
O43 Si5 1.648716 1_555
O43 Y7 2.097583 1_555
O44 S10 1.489615 1_555
O44 Y6 2.274850 1_555
O45 S11 1.477876 1_555
O45 Y7 2.202479 1_555
O46 S8 1.485176 1_555
O46 Y6 2.265847 1_555
O47 S9 1.486867 1_555
O47 Y7 2.219017 1_555
O48 S16 1.480122 1_555
O49 S17 1.477059 1_555
O50 S18 1.470679 1_555
O51 S19 1.472029 1_555
O52 S20 1.479101 1_555
O53 S21 1.477986 1_555
O54 S22 1.473624 1_555
O55 S23 1.488531 1_555
O56 S24 1.472028 1_555
O57 S25 1.473394 1_555
O58 S26 1.471533 1_555
O59 Si8 1.644001 1_555
O60 S26 1.496295 1_555
O60 Y8 2.314149 1_555
O61 Si8 1.642353 1_555
O61 Y9 2.146345 1_555
O62 S22 1.486745 1_555
O62 Y8 2.170243 1_555
O63 S23 1.484677 1_555
O63 Y9 2.205364 1_555
O64 S24 1.502060 1_555
O64 Y8 2.214691 1_555
O65 S25 1.483704 1_555
O65 Y9 2.245775 1_555
O66 S18 1.492880 1_555
O66 Y10 2.296987 1_555
O67 S19 1.486707 1_555
O67 Y11 2.228465 1_555
O68 S20 1.497846 1_555
O68 Y10 2.179928 1_555
O69 S21 1.498028 1_555
O69 Y11 2.199767 1_555
O70 S16 1.499130 1_555
O70 Y10 2.199590 1_555
O71 S17 1.499574 1_555
O71 Y11 2.233114 1_555
O72 S26 1.484847 1_555
O73 Si8 1.661984 1_555
O74 S22 1.490958 1_555
O75 S23 1.468028 1_555
O76 S24 1.470346 1_555
O77 S25 1.479381 1_555
O78 S18 1.486070 1_555
O79 S19 1.484211 1_555
O80 S20 1.476787 1_555
O81 S21 1.479414 1_555
O82 S16 1.474928 1_555
O83 S17 1.479669 1_555
O84 S8 1.485822 1_555
O84 Y1 2.278519 1_555
O85 S9 1.491106 1_555
O85 Y0 2.306333 1_655
O86 Si4 1.644010 1_555
O86 Y0 2.115982 1_555
O87 Si5 1.653924 1_565
O87 Y1 2.197306 1_565
O88 S10 1.510297 1_555
O88 Y1 2.333258 1_565
O89 S11 1.487061 1_555
O89 Y0 2.304435 1_665
O90 S12 1.508090 1_555
O90 Y3 2.362766 1_565
O91 S13 1.506714 1_555
O91 Y2 2.387244 1_565
O92 S14 1.498823 1_555
O92 Y3 2.298219 1_555
O93 S15 1.498564 1_555
O93 Y2 2.299109 1_555
O94 Si6 1.657529 1_555
O94 Y2 2.199759 1_455
O95 Si7 1.657190 1_555
O95 Y3 2.192179 1_555
O96 Si2 1.635777 1_555
O97 Si3 1.656829 1_555
O98 S4 1.488799 1_555
O99 S5 1.492301 1_555
O100 S7 1.480890 1_555
O101 S6 1.495920 1_555
O102 Si0 1.659409 1_555
O103 Si1 1.665196 1_555
O104 S3 1.481962 1_555
O105 S2 1.478982 1_555
O106 S0 1.475923 1_555
O107 S1 1.476362 1_555
O108 S16 1.490811 1_555
O108 Y4 2.258338 1_555
O109 S17 1.494314 1_555
O109 Y5 2.277526 1_555
O110 S19 1.487974 1_555
O110 Y4 2.333356 1_555
O111 S18 1.489386 1_655
O111 Y5 2.346596 1_555
O112 S20 1.496835 1_545
O112 Y4 2.278397 1_555
O113 S21 1.499159 1_545
O113 Y5 2.288254 1_555
O114 S22 1.476781 1_545
O114 Y6 2.271088 1_555
O115 S23 1.501958 1_545
O115 Y7 2.296428 1_555
O116 S24 1.505238 1_555
O116 Y6 2.292112 1_555
O117 S25 1.514791 1_555
O117 Y7 2.281999 1_555
O118 Si8 1.650519 1_555
O118 Y6 2.237313 1_555
O119 S26 1.495448 1_655
O119 Y7 2.351994 1_555
O120 Si6 1.643368 1_555
O121 Si7 1.641339 1_555
O122 S13 1.493364 1_455
O123 S12 1.489589 1_555
O124 S14 1.494175 1_565
O125 S15 1.494450 1_565
O126 Si4 1.646109 1_565
O127 Si5 1.657804 1_565
O128 S10 1.485795 1_555
O129 S11 1.486655 1_555
O130 S9 1.462083 1_455
O131 S8 1.483895 1_555
O132 S0 1.494664 1_565
O132 Y8 2.278279 1_555
O133 S1 1.484677 1_565
O133 Y9 2.334273 1_555
O134 Si0 1.671380 1_555
O134 Y8 2.131913 1_555
O135 Si1 1.654892 1_555
O135 Y9 2.196114 1_555
O136 S2 1.510511 1_455
O136 Y8 2.284315 1_555
O137 S3 1.505397 1_555
O137 Y9 2.327814 1_555
O138 S4 1.501965 1_555
O138 Y10 2.301985 1_555
O139 S5 1.494879 1_555
O139 Y11 2.277497 1_555
O140 S6 1.500448 1_455
O140 Y10 2.338986 1_555
O141 S7 1.497964 1_555
O141 Y11 2.289950 1_555
O142 Si2 1.713293 1_565
O142 Y10 2.130120 1_555
O143 Si3 1.678129 1_565
O143 Y11 2.160650 1_555
