# generated using pymatgen
data_Na7Al2Zn2P5SO24
_symmetry_space_group_name_H-M   'P 1'
_cell_length_a   8.84871073
_cell_length_b   8.84044278
_cell_length_c   21.56944404
_cell_angle_alpha   90.18765711
_cell_angle_beta   89.92200876
_cell_angle_gamma   119.99141346
_symmetry_Int_Tables_number   1
_chemical_formula_structural   Na7Al2Zn2P5SO24
_chemical_formula_sum   'Na21 Al6 Zn6 P15 S3 O72'
_cell_volume   1461.36538895
_cell_formula_units_Z   3
loop_
 _symmetry_equiv_pos_site_id
 _symmetry_equiv_pos_as_xyz
  1  'x, y, z'
loop_
 _atom_site_type_symbol
 _atom_site_label
 _atom_site_symmetry_multiplicity
 _atom_site_fract_x
 _atom_site_fract_y
 _atom_site_fract_z
 _atom_site_occupancy
  Na  Na0  1  0.63587339  0.99162733  0.25126183  1
  Na  Na1  1  0.00173693  0.63383447  0.25448622  1
  Na  Na2  1  0.63275355  0.64225956  0.74794243  1
  Na  Na3  1  0.00967066  0.36814651  0.75132593  1
  Na  Na4  1  0.36211906  0.99211736  0.75118950  1
  Na  Na5  1  0.28698787  0.33302899  0.58605023  1
  Na  Na6  1  0.04719709  0.71455737  0.58354450  1
  Na  Na7  1  0.66981646  0.95293505  0.58363916  1
  Na  Na8  1  0.28727494  0.95345965  0.08092319  1
  Na  Na9  1  0.66683456  0.71201567  0.08628998  1
  Na  Na10  1  0.04752616  0.33183803  0.08430364  1
  Na  Na11  1  0.98756206  0.66799079  0.91671356  1
  Na  Na12  1  0.32899300  0.31177429  0.92084839  1
  Na  Na13  1  0.97663888  0.31781956  0.41475388  1
  Na  Na14  1  0.68764848  0.67064745  0.41987762  1
  Na  Na15  1  0.01057651  0.99543859  0.50118050  1
  Na  Na16  1  0.99398976  0.00703877  0.00063691  1
  Na  Na17  1  0.66866799  0.31244142  0.83549748  1
  Na  Na18  1  0.65135416  0.32546300  0.33411447  1
  Na  Na19  1  0.33428857  0.64239008  0.16941257  1
  Na  Na20  1  0.33464401  0.66815654  0.66705761  1
  Al  Al0  1  0.98810188  0.99169664  0.34801605  1
  Al  Al1  1  0.00546865  0.00897033  0.84672912  1
  Al  Al2  1  0.66766320  0.33375781  0.68644673  1
  Al  Al3  1  0.67087970  0.33935898  0.18533560  1
  Al  Al4  1  0.66663504  0.32141525  0.98388890  1
  Al  Al5  1  0.67029920  0.32935825  0.48350719  1
  Zn  Zn0  1  0.99995620  0.00185905  0.64986658  1
  Zn  Zn1  1  0.99413499  0.00287118  0.14912154  1
  Zn  Zn2  1  0.32314255  0.66529335  0.01594430  1
  Zn  Zn3  1  0.33489777  0.68461673  0.51551429  1
  Zn  Zn4  1  0.33267806  0.66214092  0.32147053  1
  Zn  Zn5  1  0.32586445  0.67152921  0.82142620  1
  P  P0  1  0.70113125  0.69657476  0.24846649  1
  P  P1  1  0.99847335  0.29427994  0.24906608  1
  P  P2  1  0.30046376  0.29597595  0.74915028  1
  P  P3  1  0.99424692  0.70459878  0.74887876  1
  P  P4  1  0.70953545  0.00355038  0.74789421  1
  P  P5  1  0.95304231  0.33630085  0.58374590  1
  P  P6  1  0.38846983  0.05372576  0.58449604  1
  P  P7  1  0.66380448  0.61266064  0.58269855  1
  P  P8  1  0.94952961  0.61472628  0.08305133  1
  P  P9  1  0.66286497  0.04757781  0.08616219  1
  P  P10  1  0.38901203  0.33545534  0.08267802  1
  P  P11  1  0.02200532  0.35411741  0.91667193  1
  P  P12  1  0.33344202  0.97568807  0.91610808  1
  P  P13  1  0.63838168  0.97368844  0.41538667  1
  P  P14  1  0.02694976  0.67126415  0.41678666  1
  S  S0  1  0.29316978  0.00937217  0.24925066  1
  S  S1  1  0.64207326  0.67195978  0.91659732  1
  S  S2  1  0.33116874  0.35404911  0.41738269  1
  O  O0  1  0.19534237  0.02253394  0.30256680  1
  O  O1  1  0.82519663  0.79352927  0.30452845  1
  O  O2  1  0.97595828  0.17188600  0.30463685  1
  O  O3  1  0.20616628  0.17458792  0.80525345  1
  O  O4  1  0.97171552  0.80099955  0.80586117  1
  O  O5  1  0.83792985  0.03028185  0.80110926  1
  O  O6  1  0.77523752  0.96787839  0.68669334  1
  O  O7  1  0.19171450  0.22436028  0.68988082  1
  O  O8  1  0.02636469  0.81044359  0.68936457  1
  O  O9  1  0.77937951  0.80376945  0.18908397  1
  O  O10  1  0.02354798  0.22125851  0.18800148  1
  O  O11  1  0.19746414  0.98365669  0.19039206  1
  O  O12  1  0.86044929  0.35177665  0.64260397  1
  O  O13  1  0.49101901  0.13980100  0.64494169  1
  O  O14  1  0.64858128  0.50690392  0.64213137  1
  O  O15  1  0.86265850  0.50825958  0.14254164  1
  O  O16  1  0.64654927  0.13586409  0.14634401  1
  O  O17  1  0.50054349  0.35079424  0.13963893  1
  O  O18  1  0.47975256  0.32459548  0.02252865  1
  O  O19  1  0.84004790  0.52213849  0.02461836  1
  O  O20  1  0.67911569  0.15933782  0.02958443  1
  O  O21  1  0.48630749  0.16391080  0.52797331  1
  O  O22  1  0.67546330  0.51801062  0.52391836  1
  O  O23  1  0.84923181  0.32431245  0.52458002  1
  O  O24  1  0.56395517  0.69531196  0.97378098  1
  O  O25  1  0.14405946  0.43084681  0.97375921  1
  O  O26  1  0.29237221  0.85646453  0.97331632  1
  O  O27  1  0.56458201  0.85241827  0.47241715  1
  O  O28  1  0.29377979  0.42596909  0.47411083  1
  O  O29  1  0.13290075  0.70008911  0.47635518  1
  O  O30  1  0.10666469  0.62795984  0.36078047  1
  O  O31  1  0.52892307  0.89319929  0.35708877  1
  O  O32  1  0.37111953  0.47344451  0.36456646  1
  O  O33  1  0.10033234  0.47487615  0.86001230  1
  O  O34  1  0.36549622  0.89825541  0.85763796  1
  O  O35  1  0.53094378  0.64058889  0.86196870  1
  O  O36  1  0.00380773  0.83330032  0.40647594  1
  O  O37  1  0.82738318  0.99798395  0.40705452  1
  O  O38  1  0.17248434  0.18018846  0.40634923  1
  O  O39  1  0.00581051  0.17256040  0.90574764  1
  O  O40  1  0.16531553  0.99354197  0.90800905  1
  O  O41  1  0.82104429  0.82727393  0.90955449  1
  O  O42  1  0.96971225  0.17022629  0.58322063  1
  O  O43  1  0.20469952  0.03388020  0.58398560  1
  O  O44  1  0.82981660  0.79515794  0.58207705  1
  O  O45  1  0.96974547  0.79901067  0.08374727  1
  O  O46  1  0.82815528  0.02947993  0.08482442  1
  O  O47  1  0.20588894  0.16924307  0.08312448  1
  O  O48  1  0.69703847  0.17483945  0.74564021  1
  O  O49  1  0.48292863  0.30753814  0.74575055  1
  O  O50  1  0.82364899  0.52083793  0.74614149  1
  O  O51  1  0.69263874  0.51566519  0.24506048  1
  O  O52  1  0.82308047  0.30304593  0.24778467  1
  O  O53  1  0.46999525  0.16950251  0.24829361  1
  O  O54  1  0.66451297  0.51306623  0.92094159  1
  O  O55  1  0.84053280  0.33952230  0.92636230  1
  O  O56  1  0.49257762  0.16379358  0.92470325  1
  O  O57  1  0.66526754  0.16052846  0.42460448  1
  O  O58  1  0.48793447  0.33355789  0.42450314  1
  O  O59  1  0.83713902  0.50655886  0.42292088  1
  O  O60  1  0.36947446  0.50012814  0.08147284  1
  O  O61  1  0.13229693  0.63147794  0.08138720  1
  O  O62  1  0.49838787  0.86414835  0.08309486  1
  O  O63  1  0.37079024  0.86985102  0.58285324  1
  O  O64  1  0.49844769  0.63077498  0.58130679  1
  O  O65  1  0.13678711  0.50120527  0.58255668  1
  O  O66  1  0.31640367  0.85414405  0.25510552  1
  O  O67  1  0.52123281  0.67971813  0.25705617  1
  O  O68  1  0.15127549  0.48187125  0.25681140  1
  O  O69  1  0.32837312  0.48143428  0.75844307  1
  O  O70  1  0.15250995  0.67680749  0.75520627  1
  O  O71  1  0.52508988  0.84517325  0.75713521  1
loop_
_geom_bond_atom_site_label_1
_geom_bond_atom_site_label_2
_geom_bond_distance
_geom_bond_site_symmetry_2
Na0 O52 2.402250 1_565
Na0 O67 2.419394 1_555
Na0 O66 2.457744 1_555
Na0 O31 2.459071 1_555
Na0 O16 2.579534 1_565
Na0 O53 2.634338 1_565
Na0 O2 2.850256 1_565
Na0 O9 2.873737 1_555
Na1 O68 2.309984 1_555
Na1 O51 2.399400 1_455
Na1 O66 2.474807 1_555
Na1 O30 2.485167 1_555
Na1 O52 2.539245 1_455
Na1 O15 2.683622 1_455
Na1 O1 2.790834 1_455
Na2 O69 2.345011 1_555
Na2 O50 2.412331 1_555
Na2 O71 2.422910 1_555
Na2 O49 2.567742 1_555
Na2 O14 2.609424 1_555
Na2 O35 2.615678 1_555
Na2 O6 2.830782 1_555
Na2 O4 2.883917 1_555
Na3 O70 2.366670 1_555
Na3 O48 2.421076 1_455
Na3 O69 2.481154 1_555
Na3 O33 2.502698 1_555
Na3 O50 2.601339 1_455
Na3 O12 2.660635 1_455
Na3 O5 2.804021 1_455
Na3 O7 2.827964 1_555
Na4 O71 2.378661 1_555
Na4 O49 2.440028 1_565
Na4 O34 2.449216 1_555
Na4 O70 2.459689 1_555
Na4 O48 2.573115 1_565
Na4 O13 2.604066 1_565
Na4 O3 2.841682 1_565
Na4 O8 2.900161 1_555
Na5 O64 2.348924 1_555
Na5 O43 2.366492 1_555
Na5 O7 2.418380 1_555
Na5 O42 2.432567 1_455
Na5 O65 2.441124 1_555
Na5 O28 2.543932 1_555
Na6 O44 2.362050 1_455
Na6 O65 2.383471 1_555
Na6 O43 2.445014 1_565
Na6 O29 2.455026 1_555
Na6 O8 2.470760 1_555
Na6 O63 2.480713 1_555
Na7 O63 2.366038 1_555
Na7 O42 2.374020 1_565
Na7 O6 2.389372 1_555
Na7 O44 2.434124 1_555
Na7 O64 2.468794 1_555
Na7 O27 2.564527 1_555
Na8 O47 2.352160 1_565
Na8 O62 2.364390 1_555
Na8 O45 2.434597 1_455
Na8 O61 2.465909 1_555
Na8 O26 2.479876 1_554
Na8 O11 2.545756 1_555
Na9 O60 2.348410 1_555
Na9 O45 2.391209 1_555
Na9 O9 2.398413 1_555
Na9 O46 2.431156 1_565
Na9 O62 2.457697 1_555
Na9 O24 2.570790 1_554
Na10 O61 2.366015 1_555
Na10 O46 2.392872 1_455
Na10 O10 2.410224 1_555
Na10 O47 2.458425 1_555
Na10 O60 2.468973 1_555
Na10 O25 2.538051 1_554
Na11 O54 2.478217 1_555
Na11 O41 2.500827 1_555
Na11 O40 2.503861 1_655
Na11 O55 2.528706 1_555
Na11 O26 2.654114 1_655
Na11 O33 2.663128 1_655
Na11 O19 2.666861 1_556
Na11 O4 2.702492 1_555
Na12 O56 2.389109 1_555
Na12 O40 2.451843 1_545
Na12 O39 2.506033 1_555
Na12 O18 2.541204 1_556
Na12 O54 2.588297 1_555
Na12 O25 2.607224 1_555
Na12 O3 2.745640 1_555
Na12 O35 2.842698 1_555
Na13 O57 2.395858 1_555
Na13 O37 2.455757 1_545
Na13 O59 2.528906 1_555
Na13 O38 2.573362 1_655
Na13 O23 2.634856 1_555
Na13 O30 2.657055 1_655
Na13 O2 2.697784 1_555
Na13 O28 2.783508 1_655
Na14 O59 2.403669 1_555
Na14 O36 2.440612 1_655
Na14 O37 2.531122 1_555
Na14 O22 2.596566 1_555
Na14 O58 2.598081 1_555
Na14 O27 2.605100 1_555
Na14 O32 2.724211 1_555
Na14 O1 2.745786 1_555
Na15 O43 2.382624 1_565
Na15 O44 2.432963 1_455
Na15 O36 2.475116 1_555
Na15 O42 2.487706 1_465
Na15 O38 2.564877 1_565
Na15 O37 2.606885 1_455
Na16 O46 2.402400 1_555
Na16 O47 2.458034 1_655
Na16 O39 2.491421 1_654
Na16 O45 2.503569 1_545
Na16 O41 2.506690 1_544
Na16 O40 2.544660 1_644
Na17 O48 2.363863 1_555
Na17 O56 2.412125 1_555
Na17 O55 2.419166 1_555
Na17 O49 2.527315 1_555
Na17 O50 2.545532 1_555
Na17 O54 2.566560 1_555
Na18 O53 2.383749 1_555
Na18 O58 2.447883 1_555
Na18 O51 2.460810 1_555
Na18 O52 2.471160 1_555
Na18 O57 2.479830 1_555
Na18 O59 2.508405 1_555
Na19 O60 2.377135 1_555
Na19 O67 2.424399 1_555
Na19 O68 2.429360 1_555
Na19 O62 2.566869 1_555
Na19 O61 2.577702 1_555
Na19 O66 2.686734 1_555
Na20 O65 2.444035 1_555
Na20 O63 2.455573 1_555
Na20 O64 2.469555 1_555
Na20 O70 2.516388 1_555
Na20 O71 2.533039 1_555
Na20 O69 2.557875 1_555
Al0 O1 1.869521 1_555
Al0 O2 1.898863 1_565
Al0 O37 1.928953 1_555
Al0 O36 1.943380 1_655
Al0 O0 1.973642 1_665
Al0 O38 2.072584 1_665
Al1 O5 1.867077 1_455
Al1 O3 1.871533 1_555
Al1 O4 1.920324 1_445
Al1 O39 1.922401 1_555
Al1 O40 1.991348 1_545
Al1 O41 2.113577 1_445
Al2 O13 1.870570 1_555
Al2 O14 1.885098 1_555
Al2 O12 1.885392 1_555
Al2 O49 1.994874 1_555
Al2 O50 2.001749 1_555
Al2 O48 2.012267 1_555
Al3 O17 1.846775 1_555
Al3 O15 1.852797 1_555
Al3 O16 1.895626 1_555
Al3 O51 1.952801 1_555
Al3 O52 2.042368 1_555
Al3 O53 2.144043 1_555
Al4 O20 1.790090 1_556
Al4 O18 1.863493 1_556
Al4 O19 1.883204 1_556
Al4 O55 1.919092 1_555
Al4 O56 1.947219 1_555
Al4 O54 2.182048 1_555
Al5 O21 1.825956 1_555
Al5 O23 1.835331 1_555
Al5 O22 1.859492 1_555
Al5 O57 1.940385 1_555
Al5 O59 2.009317 1_555
Al5 O58 2.071450 1_555
O0 S0 1.477326 1_555
O1 P0 1.567863 1_555
O2 P1 1.561890 1_555
O3 P2 1.556527 1_555
O4 P3 1.561734 1_555
O5 P4 1.548377 1_555
O6 P4 1.535744 1_565
O6 Zn0 2.018736 1_565
O7 P2 1.533014 1_555
O7 Zn0 2.036984 1_455
O8 P3 1.531405 1_455
O8 Zn0 2.012281 1_465
O9 P0 1.538694 1_555
O9 Zn1 2.028252 1_565
O10 P1 1.528926 1_455
O10 Zn1 1.996505 1_455
O11 S0 1.479590 1_565
O11 Zn1 2.090286 1_465
O12 P5 1.552364 1_555
O13 P6 1.551999 1_555
O14 P7 1.554695 1_555
O15 P8 1.550876 1_555
O16 P9 1.555811 1_555
O17 P10 1.539575 1_555
O18 P10 1.552597 1_555
O19 P8 1.549461 1_555
O20 P9 1.533453 1_555
O21 P6 1.531837 1_555
O22 P7 1.548304 1_555
O23 P5 1.545522 1_555
O24 S1 1.476631 1_555
O24 Zn2 2.206609 1_556
O25 P11 1.551936 1_555
O25 Zn2 2.083947 1_556
O26 P12 1.545949 1_555
O26 Zn2 2.060746 1_556
O27 P13 1.547748 1_555
O27 Zn3 2.045756 1_555
O28 S2 1.488284 1_555
O28 Zn3 2.305223 1_555
O29 P14 1.535270 1_555
O29 Zn3 2.043591 1_555
O30 P14 1.538846 1_555
O30 Zn4 2.050081 1_555
O31 P13 1.527766 1_555
O31 Zn4 2.055562 1_555
O32 S2 1.473304 1_555
O32 Zn4 2.083470 1_555
O33 P11 1.542772 1_555
O33 Zn5 2.057706 1_555
O34 P12 1.525474 1_555
O34 Zn5 2.009545 1_555
O35 S1 1.469924 1_555
O35 Zn5 2.152846 1_555
O36 P14 1.561679 1_555
O37 P13 1.586108 1_555
O38 S2 1.493837 1_555
O39 P11 1.555600 1_555
O40 P12 1.582507 1_555
O41 S1 1.497716 1_555
O42 P5 1.547196 1_555
O42 Zn0 2.183306 1_555
O43 P6 1.545968 1_555
O43 Zn0 2.205590 1_455
O44 P7 1.546523 1_555
O44 Zn0 2.231999 1_565
O45 P8 1.547535 1_555
O45 Zn1 2.208675 1_565
O46 P9 1.549015 1_555
O46 Zn1 2.118697 1_555
O47 P10 1.550668 1_555
O47 Zn1 2.225277 1_455
O48 P4 1.573377 1_555
O49 P2 1.567618 1_555
O50 P3 1.571398 1_555
O51 P0 1.564597 1_555
O52 P1 1.592435 1_555
O53 S0 1.496100 1_555
O54 S1 1.516944 1_555
O55 P11 1.559182 1_655
O56 P12 1.562128 1_545
O57 P13 1.558693 1_545
O58 S2 1.494203 1_555
O59 P14 1.585667 1_655
O60 P10 1.549753 1_555
O60 Zn2 2.216162 1_555
O61 P8 1.548925 1_455
O61 Zn2 2.103638 1_555
O62 P9 1.546692 1_565
O62 Zn2 2.203869 1_555
O63 P6 1.553542 1_565
O63 Zn3 2.087540 1_555
O64 P7 1.549803 1_555
O64 Zn3 2.243550 1_555
O65 P5 1.549175 1_455
O65 Zn3 2.227115 1_555
O66 S0 1.491524 1_565
O66 Zn4 2.282936 1_555
O67 P0 1.533884 1_555
O67 Zn4 2.115234 1_555
O68 P1 1.537341 1_455
O68 Zn4 2.120266 1_555
O69 P2 1.543510 1_555
O69 Zn5 2.166209 1_555
O70 P3 1.544310 1_455
O70 Zn5 2.115018 1_555
O71 P4 1.542800 1_565
O71 Zn5 2.165426 1_555
