# generated using pymatgen
data_ZnCu
_symmetry_space_group_name_H-M   'P 1'
_cell_length_a   5.47677795
_cell_length_b   5.47677795
_cell_length_c   6.67376746
_cell_angle_alpha   90.00000000
_cell_angle_beta   90.00000000
_cell_angle_gamma   90.01783793
_symmetry_Int_Tables_number   1
_chemical_formula_structural   ZnCu
_chemical_formula_sum   'Zn8 Cu8'
_cell_volume   200.18029065
_cell_formula_units_Z   8
loop_
 _symmetry_equiv_pos_site_id
 _symmetry_equiv_pos_as_xyz
  1  'x, y, z'
loop_
 _atom_site_type_symbol
 _atom_site_label
 _atom_site_symmetry_multiplicity
 _atom_site_fract_x
 _atom_site_fract_y
 _atom_site_fract_z
 _atom_site_occupancy
  Zn  Zn0_0  1  0.25000000  0.25000000  0.25000000  1
  Zn  Zn0_1  1  0.25000000  0.25000000  0.75000000  1
  Zn  Zn0_2  1  0.25000000  0.75000000  0.25000000  1
  Zn  Zn0_3  1  0.25000000  0.75000000  0.75000000  1
  Zn  Zn0_4  1  0.75000000  0.25000000  0.25000000  1
  Zn  Zn0_5  1  0.75000000  0.25000000  0.75000000  1
  Zn  Zn0_6  1  0.75000000  0.75000000  0.25000000  1
  Zn  Zn0_7  1  0.75000000  0.75000000  0.75000000  1
  Cu  Cu0_0  1  0.00000000  0.00000000  0.00000000  1
  Cu  Cu0_1  1  0.00000000  0.00000000  0.50000000  1
  Cu  Cu0_2  1  0.00000000  0.50000000  0.00000000  1
  Cu  Cu0_3  1  0.00000000  0.50000000  0.50000000  1
  Cu  Cu0_4  1  0.50000000  0.00000000  0.00000000  1
  Cu  Cu0_5  1  0.50000000  0.00000000  0.50000000  1
  Cu  Cu0_6  1  0.50000000  0.50000000  0.00000000  1
  Cu  Cu0_7  1  0.50000000  0.50000000  0.50000000  1
loop_
_geom_bond_atom_site_label_1
_geom_bond_atom_site_label_2
_geom_bond_distance
_geom_bond_site_symmetry_2
Zn0_0 Zn0_4 2.738389 1_555
Zn0_0 Zn0_2 2.738389 1_555
Zn0_0 Zn0_2 2.738389 1_545
Zn0_0 Zn0_4 2.738389 1_455
Zn0_1 Zn0_3 2.738389 1_545
Zn0_1 Zn0_5 2.738389 1_555
Zn0_1 Zn0_5 2.738389 1_455
Zn0_1 Zn0_3 2.738389 1_555
Zn0_2 Zn0_6 2.738389 1_455
Zn0_2 Zn0_6 2.738389 1_555
Zn0_3 Zn0_7 2.738389 1_555
Zn0_3 Zn0_7 2.738389 1_455
Zn0_4 Zn0_6 2.738389 1_545
Zn0_4 Zn0_6 2.738389 1_555
Zn0_5 Zn0_7 2.738389 1_555
Zn0_5 Zn0_7 2.738389 1_545
Cu0_0 Zn0_6 2.555762 1_445
Cu0_0 Zn0_0 2.555762 1_555
Cu0_0 Zn0_7 2.555762 1_444
Cu0_0 Zn0_1 2.555762 1_554
Cu0_0 Zn0_4 2.556218 1_455
Cu0_0 Zn0_2 2.556218 1_545
Cu0_0 Zn0_3 2.556218 1_544
Cu0_0 Zn0_5 2.556218 1_454
Cu0_0 Cu0_4 2.738389 1_455
Cu0_0 Cu0_4 2.738389 1_555
Cu0_0 Cu0_2 2.738389 1_555
Cu0_0 Cu0_2 2.738389 1_545
Cu0_1 Zn0_7 2.555762 1_445
Cu0_1 Zn0_6 2.555762 1_445
Cu0_1 Zn0_0 2.555762 1_555
Cu0_1 Zn0_1 2.555762 1_555
Cu0_1 Zn0_5 2.556218 1_455
Cu0_1 Zn0_3 2.556218 1_545
Cu0_1 Zn0_4 2.556218 1_455
Cu0_1 Zn0_2 2.556218 1_545
Cu0_1 Cu0_3 2.738389 1_545
Cu0_1 Cu0_5 2.738389 1_555
Cu0_1 Cu0_5 2.738389 1_455
Cu0_1 Cu0_3 2.738389 1_555
Cu0_2 Zn0_2 2.555762 1_555
Cu0_2 Zn0_4 2.555762 1_455
Cu0_2 Zn0_3 2.555762 1_554
Cu0_2 Zn0_5 2.555762 1_454
Cu0_2 Zn0_0 2.556218 1_555
Cu0_2 Zn0_6 2.556218 1_455
Cu0_2 Zn0_7 2.556218 1_454
Cu0_2 Zn0_1 2.556218 1_554
Cu0_2 Cu0_6 2.738389 1_555
Cu0_2 Cu0_6 2.738389 1_455
Cu0_3 Zn0_2 2.555762 1_555
Cu0_3 Zn0_5 2.555762 1_455
Cu0_3 Zn0_3 2.555762 1_555
Cu0_3 Zn0_4 2.555762 1_455
Cu0_3 Zn0_7 2.556218 1_455
Cu0_3 Zn0_1 2.556218 1_555
Cu0_3 Zn0_0 2.556218 1_555
Cu0_3 Zn0_6 2.556218 1_455
Cu0_3 Cu0_7 2.738389 1_555
Cu0_3 Cu0_7 2.738389 1_455
Cu0_4 Zn0_2 2.555762 1_545
Cu0_4 Zn0_4 2.555762 1_555
Cu0_4 Zn0_3 2.555762 1_544
Cu0_4 Zn0_5 2.555762 1_554
Cu0_4 Zn0_0 2.556218 1_555
Cu0_4 Zn0_6 2.556218 1_545
Cu0_4 Zn0_1 2.556218 1_554
Cu0_4 Zn0_7 2.556218 1_544
Cu0_4 Cu0_6 2.738389 1_555
Cu0_4 Cu0_6 2.738389 1_545
Cu0_5 Zn0_2 2.555762 1_545
Cu0_5 Zn0_5 2.555762 1_555
Cu0_5 Zn0_4 2.555762 1_555
Cu0_5 Zn0_3 2.555762 1_545
Cu0_5 Zn0_7 2.556218 1_545
Cu0_5 Zn0_1 2.556218 1_555
Cu0_5 Zn0_0 2.556218 1_555
Cu0_5 Zn0_6 2.556218 1_545
Cu0_5 Cu0_7 2.738389 1_545
Cu0_5 Cu0_7 2.738389 1_555
Cu0_6 Zn0_6 2.555762 1_555
Cu0_6 Zn0_0 2.555762 1_555
Cu0_6 Zn0_7 2.555762 1_554
Cu0_6 Zn0_1 2.555762 1_554
Cu0_6 Zn0_4 2.556218 1_555
Cu0_6 Zn0_2 2.556218 1_555
Cu0_6 Zn0_3 2.556218 1_554
Cu0_6 Zn0_5 2.556218 1_554
Cu0_7 Zn0_7 2.555762 1_555
Cu0_7 Zn0_6 2.555762 1_555
Cu0_7 Zn0_0 2.555762 1_555
Cu0_7 Zn0_1 2.555762 1_555
Cu0_7 Zn0_5 2.556218 1_555
Cu0_7 Zn0_3 2.556218 1_555
Cu0_7 Zn0_4 2.556218 1_555
Cu0_7 Zn0_2 2.556218 1_555
