# generated using pymatgen
data_Na5In2SiSn2P5O24
_symmetry_space_group_name_H-M   'P 1'
_cell_length_a   9.03019156
_cell_length_b   9.02890197
_cell_length_c   22.55573952
_cell_angle_alpha   90.00451154
_cell_angle_beta   89.82987230
_cell_angle_gamma   120.16247627
_symmetry_Int_Tables_number   1
_chemical_formula_structural   Na5In2SiSn2P5O24
_chemical_formula_sum   'Na15 In6 Si3 Sn6 P15 O72'
_cell_volume   1590.02423083
_cell_formula_units_Z   3
loop_
 _symmetry_equiv_pos_site_id
 _symmetry_equiv_pos_as_xyz
  1  'x, y, z'
loop_
 _atom_site_type_symbol
 _atom_site_label
 _atom_site_symmetry_multiplicity
 _atom_site_fract_x
 _atom_site_fract_y
 _atom_site_fract_z
 _atom_site_occupancy
  Na  Na0  1  0.00351440  0.64408645  0.25282011  1
  Na  Na1  1  0.62988022  0.64167426  0.75308776  1
  Na  Na2  1  0.37101890  0.99715187  0.75251208  1
  Na  Na3  1  0.66096613  0.97249808  0.58857791  1
  Na  Na4  1  0.30045573  0.97503446  0.08188775  1
  Na  Na5  1  0.68329638  0.69831201  0.07910807  1
  Na  Na6  1  0.02486535  0.33172052  0.08454164  1
  Na  Na7  1  0.96472889  0.29948094  0.41638246  1
  Na  Na8  1  0.33676679  0.03365424  0.42138689  1
  Na  Na9  1  0.00546788  0.98197931  0.50123605  1
  Na  Na10  1  0.00132279  0.99218717  0.99654264  1
  Na  Na11  1  0.68869818  0.32793000  0.83841867  1
  Na  Na12  1  0.64851437  0.33733436  0.33416756  1
  Na  Na13  1  0.34670595  0.66675514  0.17193545  1
  Na  Na14  1  0.30491830  0.64478641  0.66792095  1
  In  In0  1  0.99626640  0.99676288  0.34951992  1
  In  In1  1  0.99799919  0.99931318  0.15379903  1
  In  In2  1  0.66783745  0.33904027  0.97815563  1
  In  In3  1  0.66120057  0.33701180  0.48552420  1
  In  In4  1  0.33965254  0.66593491  0.31498581  1
  In  In5  1  0.33120474  0.66672268  0.81576664  1
  Si  Si0  1  0.71125730  0.00753264  0.74895736  1
  Si  Si1  1  0.36235490  0.03079054  0.58186835  1
  Si  Si2  1  0.96440401  0.62987067  0.08372454  1
  Sn  Sn0  1  0.99762383  0.00265090  0.85394424  1
  Sn  Sn1  1  0.00362414  0.00276374  0.64739677  1
  Sn  Sn2  1  0.67031953  0.33219710  0.68361734  1
  Sn  Sn3  1  0.66737068  0.32978357  0.18459193  1
  Sn  Sn4  1  0.33003848  0.66603752  0.01274585  1
  Sn  Sn5  1  0.33451625  0.66595003  0.52064868  1
  P  P0  1  0.30733627  0.00524921  0.25061639  1
  P  P1  1  0.69773953  0.69271809  0.24566661  1
  P  P2  1  0.99469328  0.30104007  0.25003307  1
  P  P3  1  0.29314520  0.28967994  0.74914176  1
  P  P4  1  0.99437153  0.70721289  0.75014153  1
  P  P5  1  0.96604134  0.33576218  0.58177786  1
  P  P6  1  0.66633824  0.63093568  0.58586837  1
  P  P7  1  0.66208423  0.03762195  0.08127638  1
  P  P8  1  0.37555969  0.33723053  0.08261142  1
  P  P9  1  0.63567294  0.67214611  0.91409783  1
  P  P10  1  0.03742219  0.36338664  0.91722969  1
  P  P11  1  0.32873138  0.96787127  0.91392913  1
  P  P12  1  0.63159239  0.96203345  0.41990850  1
  P  P13  1  0.33228341  0.37140997  0.41692643  1
  P  P14  1  0.03926085  0.66685253  0.41541687  1
  O  O0  1  0.22495520  0.02403627  0.30794178  1
  O  O1  1  0.82308236  0.78709197  0.29660204  1
  O  O2  1  0.98379684  0.20237134  0.30680463  1
  O  O3  1  0.21304795  0.16885654  0.80333365  1
  O  O4  1  0.96060521  0.78716090  0.80581966  1
  O  O5  1  0.82906641  0.03200271  0.80655527  1
  O  O6  1  0.79276242  0.97522746  0.68838059  1
  O  O7  1  0.18962535  0.21011878  0.69218967  1
  O  O8  1  0.03071028  0.82410974  0.69539036  1
  O  O9  1  0.77036012  0.78042000  0.18489489  1
  O  O10  1  0.00489588  0.21589425  0.19186673  1
  O  O11  1  0.20103990  0.98385020  0.19406004  1
  O  O12  1  0.88081822  0.36766025  0.63636907  1
  O  O13  1  0.49250704  0.12537979  0.63865431  1
  O  O14  1  0.64788145  0.53111988  0.64450575  1
  O  O15  1  0.88967210  0.50860927  0.14457479  1
  O  O16  1  0.61591840  0.11037346  0.13718124  1
  O  O17  1  0.49181907  0.37257281  0.13820833  1
  O  O18  1  0.44184167  0.28446852  0.02940061  1
  O  O19  1  0.82671076  0.54675507  0.03141919  1
  O  O20  1  0.69689471  0.15058699  0.02772467  1
  O  O21  1  0.44021377  0.12871750  0.51965575  1
  O  O22  1  0.69652729  0.55187057  0.53134665  1
  O  O23  1  0.86530541  0.30965469  0.52419634  1
  O  O24  1  0.54338231  0.68662817  0.97208424  1
  O  O25  1  0.13324831  0.44495798  0.97791440  1
  O  O26  1  0.31089704  0.85955359  0.97174078  1
  O  O27  1  0.55398954  0.86408160  0.47978404  1
  O  O28  1  0.31144259  0.46215469  0.47281042  1
  O  O29  1  0.16348056  0.69428089  0.46803388  1
  O  O30  1  0.11119311  0.64095351  0.35631152  1
  O  O31  1  0.51216238  0.87226745  0.36765545  1
  O  O32  1  0.34492034  0.46779488  0.36001196  1
  O  O33  1  0.13317973  0.47272124  0.86425127  1
  O  O34  1  0.34110375  0.88371292  0.85666550  1
  O  O35  1  0.54227228  0.66686912  0.85710787  1
  O  O36  1  0.03024941  0.83386274  0.41477455  1
  O  O37  1  0.81225863  0.98345431  0.41490419  1
  O  O38  1  0.16580170  0.19042438  0.41705660  1
  O  O39  1  0.03184713  0.18727349  0.91629758  1
  O  O40  1  0.15911795  0.97543191  0.91411253  1
  O  O41  1  0.81566434  0.83873767  0.91645220  1
  O  O42  1  0.97145556  0.16695531  0.58842751  1
  O  O43  1  0.17121082  0.00668381  0.58815260  1
  O  O44  1  0.81890621  0.81860582  0.58883938  1
  O  O45  1  0.00179402  0.82726282  0.08899863  1
  O  O46  1  0.81987771  0.01573293  0.08954467  1
  O  O47  1  0.18845979  0.19223666  0.09191036  1
  O  O48  1  0.68679943  0.17728501  0.74578012  1
  O  O49  1  0.47589605  0.30807223  0.74420292  1
  O  O50  1  0.82362985  0.53203150  0.74363885  1
  O  O51  1  0.68840205  0.51350652  0.24594381  1
  O  O52  1  0.82764116  0.31528515  0.24924030  1
  O  O53  1  0.48742461  0.16957511  0.24611496  1
  O  O54  1  0.65201960  0.51188664  0.91605118  1
  O  O55  1  0.85683251  0.33796712  0.91878899  1
  O  O56  1  0.48631695  0.14642211  0.91794757  1
  O  O57  1  0.65297008  0.14472936  0.42104066  1
  O  O58  1  0.48947815  0.34674144  0.41944990  1
  O  O59  1  0.86299853  0.50330143  0.42265768  1
  O  O60  1  0.37397759  0.51041462  0.07549549  1
  O  O61  1  0.15476953  0.64215976  0.07639707  1
  O  O62  1  0.49896895  0.85326288  0.07542119  1
  O  O63  1  0.35358646  0.84167078  0.58185329  1
  O  O64  1  0.50027248  0.64459007  0.58214181  1
  O  O65  1  0.15055285  0.49174358  0.57936643  1
  O  O66  1  0.32165210  0.84119197  0.25200863  1
  O  O67  1  0.51918052  0.67061302  0.25162241  1
  O  O68  1  0.14933463  0.48666438  0.25011032  1
  O  O69  1  0.31969539  0.47078855  0.75458092  1
  O  O70  1  0.15112917  0.68425268  0.75420826  1
  O  O71  1  0.51746957  0.83696506  0.75127098  1
loop_
_geom_bond_atom_site_label_1
_geom_bond_atom_site_label_2
_geom_bond_distance
_geom_bond_site_symmetry_2
Na0 O68 2.374488 1_555
Na0 O51 2.478380 1_455
Na0 O66 2.506525 1_555
Na0 O30 2.537023 1_555
Na0 O52 2.569987 1_455
Na0 O15 2.695372 1_455
Na0 O1 2.720561 1_455
Na0 O11 2.972684 1_555
Na1 O50 2.413460 1_555
Na1 O69 2.425690 1_555
Na1 O71 2.437230 1_555
Na1 O35 2.520366 1_555
Na1 O49 2.615128 1_555
Na1 O14 2.679818 1_555
Na1 O4 2.852718 1_555
Na1 O6 2.983288 1_555
Na2 O71 2.400713 1_555
Na2 O48 2.477207 1_565
Na2 O49 2.477930 1_565
Na2 O70 2.507581 1_555
Na2 O34 2.521824 1_555
Na2 O13 2.801195 1_565
Na2 O3 2.822198 1_565
Na2 O8 2.956868 1_555
Na3 O63 2.414633 1_555
Na3 O44 2.440554 1_555
Na3 O42 2.448854 1_565
Na3 O6 2.543824 1_555
Na3 O64 2.564393 1_555
Na3 O27 2.641325 1_555
Na3 O13 2.755894 1_565
Na4 O45 2.336874 1_555
Na4 O62 2.534277 1_555
Na4 O61 2.608949 1_555
Na4 O47 2.628969 1_565
Na4 O18 2.691518 1_565
Na4 O11 2.696687 1_555
Na4 O26 2.713947 1_554
Na4 O16 2.772449 1_565
Na5 O60 2.434371 1_555
Na5 O46 2.497968 1_565
Na5 O9 2.507256 1_555
Na5 O45 2.513164 1_655
Na5 O19 2.545400 1_555
Na5 O62 2.660038 1_555
Na5 O24 2.705360 1_554
Na5 O17 2.879800 1_555
Na6 O47 2.380580 1_555
Na6 O61 2.441490 1_555
Na6 O46 2.504133 1_455
Na6 O25 2.601606 1_554
Na6 O10 2.606671 1_555
Na6 O60 2.732803 1_555
Na6 O15 2.797129 1_455
Na6 O20 2.871095 1_455
Na7 O57 2.436042 1_555
Na7 O59 2.438975 1_555
Na7 O38 2.462410 1_655
Na7 O37 2.467971 1_545
Na7 O23 2.607324 1_555
Na7 O2 2.656334 1_555
Na8 O21 2.393449 1_555
Na8 O36 2.433618 1_545
Na8 O58 2.444763 1_555
Na8 O57 2.506235 1_555
Na8 O38 2.567769 1_555
Na8 O0 2.738950 1_555
Na8 O29 2.849062 1_545
Na8 O31 2.899700 1_545
Na9 O43 2.411460 1_565
Na9 O36 2.437121 1_555
Na9 O44 2.530196 1_455
Na9 O38 2.547439 1_565
Na9 O37 2.622906 1_455
Na9 O42 2.694963 1_465
Na10 O41 2.382676 1_455
Na10 O40 2.389774 1_555
Na10 O39 2.442182 1_565
Na10 O45 2.563835 1_556
Na10 O46 2.731273 1_466
Na10 O47 2.774713 1_566
Na11 O55 2.340457 1_555
Na11 O48 2.488533 1_555
Na11 O56 2.492941 1_555
Na11 O54 2.546273 1_555
Na11 O50 2.679487 1_555
Na11 O49 2.814054 1_555
Na12 O58 2.424063 1_555
Na12 O51 2.457698 1_555
Na12 O53 2.481410 1_555
Na12 O52 2.575025 1_555
Na12 O57 2.633759 1_555
Na12 O59 2.662063 1_555
Na13 O67 2.370589 1_555
Na13 O68 2.449336 1_555
Na13 O66 2.479709 1_555
Na13 O62 2.668598 1_555
Na13 O60 2.670338 1_555
Na13 O61 2.707851 1_555
Na14 O65 2.433644 1_555
Na14 O70 2.514896 1_555
Na14 O63 2.516407 1_555
Na14 O69 2.553301 1_555
Na14 O64 2.615028 1_555
Na14 O71 2.627436 1_555
In0 O1 2.118928 1_555
In0 O2 2.144351 1_565
In0 O0 2.163867 1_665
In0 O37 2.176069 1_555
In0 O36 2.209170 1_655
In0 O38 2.246137 1_665
In1 O10 2.107785 1_665
In1 O11 2.114952 1_655
In1 O9 2.128993 1_555
In1 O45 2.145572 1_655
In1 O47 2.217303 1_665
In1 O46 2.227813 1_565
In2 O19 2.079647 1_556
In2 O54 2.154932 1_555
In2 O20 2.159818 1_556
In2 O56 2.168833 1_555
In2 O55 2.170002 1_555
In2 O18 2.172376 1_556
In3 O22 2.076806 1_555
In3 O21 2.081237 1_555
In3 O23 2.164715 1_555
In3 O58 2.187268 1_555
In3 O59 2.195729 1_555
In3 O57 2.237328 1_555
In4 O32 2.078525 1_555
In4 O31 2.098328 1_555
In4 O67 2.142442 1_555
In4 O30 2.167222 1_555
In4 O66 2.192796 1_555
In4 O68 2.221253 1_555
In5 O33 2.074339 1_555
In5 O35 2.123748 1_555
In5 O34 2.126410 1_555
In5 O71 2.166988 1_555
In5 O69 2.204713 1_555
In5 O70 2.206651 1_555
O0 P0 1.541148 1_555
O1 P1 1.538021 1_555
O2 P2 1.534411 1_555
O3 P3 1.552217 1_555
O3 Sn0 2.095924 1_455
O4 P4 1.552412 1_555
O4 Sn0 2.103275 1_565
O5 Si0 1.624918 1_555
O5 Sn0 1.986111 1_555
O6 Si0 1.644203 1_565
O6 Sn1 2.013926 1_665
O7 P3 1.540210 1_555
O7 Sn1 2.048606 1_555
O8 P4 1.548070 1_455
O8 Sn1 2.057171 1_565
O9 P1 1.552108 1_555
O10 P2 1.546319 1_455
O11 P0 1.551416 1_565
O12 P5 1.551921 1_555
O12 Sn2 2.056183 1_555
O13 Si1 1.658727 1_555
O13 Sn2 2.022377 1_555
O14 P6 1.561160 1_555
O14 Sn2 2.100510 1_555
O15 Si2 1.670388 1_555
O15 Sn3 2.045428 1_555
O16 P7 1.570750 1_555
O16 Sn3 2.088447 1_555
O17 P8 1.564510 1_555
O17 Sn3 2.093385 1_555
O18 P8 1.519167 1_555
O19 Si2 1.603742 1_555
O20 P7 1.507939 1_555
O21 Si1 1.617046 1_555
O22 P6 1.513182 1_555
O23 P5 1.536687 1_555
O24 P9 1.589130 1_555
O24 Sn4 2.053505 1_556
O25 P10 1.590987 1_555
O25 Sn4 2.050134 1_556
O26 P11 1.588538 1_555
O26 Sn4 2.059819 1_556
O27 P12 1.571291 1_555
O27 Sn5 2.098632 1_555
O28 P13 1.564916 1_555
O28 Sn5 2.051643 1_555
O29 P14 1.567430 1_555
O29 Sn5 2.065726 1_555
O30 P14 1.549641 1_555
O31 P12 1.529095 1_555
O32 P13 1.522457 1_555
O33 P10 1.512091 1_555
O34 P11 1.530509 1_555
O35 P9 1.527111 1_555
O36 P14 1.550474 1_555
O37 P12 1.547128 1_555
O38 P13 1.568969 1_555
O39 P10 1.565560 1_555
O39 Sn0 2.082488 1_455
O40 P11 1.567047 1_555
O40 Sn0 2.097830 1_465
O41 P9 1.565496 1_555
O41 Sn0 2.102588 1_565
O42 P5 1.556552 1_555
O42 Sn1 2.118162 1_655
O43 Si1 1.633338 1_555
O43 Sn1 2.002825 1_555
O44 P6 1.558322 1_555
O44 Sn1 2.125371 1_665
O45 Si2 1.643171 1_455
O46 P7 1.545565 1_555
O47 P8 1.545198 1_555
O48 Si0 1.656289 1_555
O48 Sn2 2.038418 1_555
O49 P3 1.576995 1_555
O49 Sn2 2.144487 1_555
O50 P4 1.565614 1_555
O50 Sn2 2.122621 1_555
O51 P1 1.577415 1_555
O51 Sn3 2.094603 1_555
O52 P2 1.577215 1_555
O52 Sn3 2.107370 1_555
O53 P0 1.559052 1_555
O53 Sn3 2.069645 1_555
O54 P9 1.527132 1_555
O55 P10 1.528671 1_655
O56 P11 1.525629 1_545
O57 P12 1.561709 1_545
O58 P13 1.544676 1_555
O59 P14 1.541841 1_655
O60 P8 1.579084 1_555
O60 Sn4 2.167696 1_555
O61 Si2 1.673725 1_455
O61 Sn4 2.063094 1_555
O62 P7 1.579580 1_565
O62 Sn4 2.145746 1_555
O63 Si1 1.669164 1_565
O63 Sn5 2.044303 1_555
O64 P6 1.567679 1_555
O64 Sn5 2.122246 1_555
O65 P5 1.550463 1_455
O65 Sn5 2.085489 1_555
O66 P0 1.550574 1_565
O67 P1 1.527452 1_555
O68 P2 1.551479 1_455
O69 P3 1.533826 1_555
O70 P4 1.533245 1_455
O71 Si0 1.651666 1_565
