# generated using pymatgen
data_Na3AlSiSn(PO6)2
_symmetry_space_group_name_H-M   'P 1'
_cell_length_a   8.84147534
_cell_length_b   8.84147506
_cell_length_c   21.88275880
_cell_angle_alpha   90.04389756
_cell_angle_beta   89.95610245
_cell_angle_gamma   120.14465384
_symmetry_Int_Tables_number   1
_chemical_formula_structural   Na3AlSiSn(PO6)2
_chemical_formula_sum   'Na18 Al6 Si6 Sn6 P12 O72'
_cell_volume   1479.26885658
_cell_formula_units_Z   6
loop_
 _symmetry_equiv_pos_site_id
 _symmetry_equiv_pos_as_xyz
  1  'x, y, z'
loop_
 _atom_site_type_symbol
 _atom_site_label
 _atom_site_symmetry_multiplicity
 _atom_site_fract_x
 _atom_site_fract_y
 _atom_site_fract_z
 _atom_site_occupancy
  Na  Na0  1  0.00325772  0.99709532  0.49699268  1
  Na  Na1  1  0.00290468  0.99674228  0.99699268  1
  Na  Na2  1  0.66493454  0.32748294  0.83048606  1
  Na  Na3  1  0.67251706  0.33506546  0.33048606  1
  Na  Na4  1  0.34779121  0.67294822  0.16361696  1
  Na  Na5  1  0.32705178  0.65220879  0.66361696  1
  Na  Na6  1  0.36066628  0.36331547  0.24739319  1
  Na  Na7  1  0.99549876  0.62561914  0.24842234  1
  Na  Na8  1  0.63668453  0.63933372  0.74739319  1
  Na  Na9  1  0.37438086  0.00450124  0.74842234  1
  Na  Na10  1  0.03556406  0.70050170  0.58002232  1
  Na  Na11  1  0.65942083  0.96395967  0.58485628  1
  Na  Na12  1  0.29949830  0.96443594  0.08002232  1
  Na  Na13  1  0.03604033  0.34057917  0.08485628  1
  Na  Na14  1  0.97012339  0.67031068  0.91851333  1
  Na  Na15  1  0.69709171  0.03027656  0.91191279  1
  Na  Na16  1  0.96972344  0.30290829  0.41191279  1
  Na  Na17  1  0.32968932  0.02987661  0.41851333  1
  Al  Al0  1  0.99026861  0.99189015  0.35296438  1
  Al  Al1  1  0.00810985  0.00973139  0.85296438  1
  Al  Al2  1  0.67158068  0.32538297  0.68621424  1
  Al  Al3  1  0.67461703  0.32841932  0.18621424  1
  Al  Al4  1  0.32861054  0.66945660  0.01902052  1
  Al  Al5  1  0.33054340  0.67138946  0.51902052  1
  Si  Si0  1  0.98890840  0.28285985  0.25283298  1
  Si  Si1  1  0.71714015  0.01109160  0.75283298  1
  Si  Si2  1  0.37593879  0.03923567  0.58483883  1
  Si  Si3  1  0.96076433  0.62406121  0.08483883  1
  Si  Si4  1  0.32625431  0.96129064  0.91807130  1
  Si  Si5  1  0.03870936  0.67374569  0.41807130  1
  Sn  Sn0  1  0.00554252  0.00662688  0.64916151  1
  Sn  Sn1  1  0.99337312  0.99445748  0.14916151  1
  Sn  Sn2  1  0.66311692  0.33659527  0.98249789  1
  Sn  Sn3  1  0.66340473  0.33688308  0.48249789  1
  Sn  Sn4  1  0.33025476  0.66521044  0.31587560  1
  Sn  Sn5  1  0.33478956  0.66974524  0.81587560  1
  P  P0  1  0.29801841  0.00696477  0.25139852  1
  P  P1  1  0.70948884  0.70692533  0.25231941  1
  P  P2  1  0.29307467  0.29051116  0.75231941  1
  P  P3  1  0.99303523  0.70198159  0.75139852  1
  P  P4  1  0.96130536  0.33921626  0.58388657  1
  P  P5  1  0.65708068  0.61900878  0.58701024  1
  P  P6  1  0.66078374  0.03869464  0.08388657  1
  P  P7  1  0.38099122  0.34291932  0.08701024  1
  P  P8  1  0.62182428  0.66872259  0.91849312  1
  P  P9  1  0.04854127  0.37227594  0.91978601  1
  P  P10  1  0.62772406  0.95145873  0.41978601  1
  P  P11  1  0.33127741  0.37817572  0.41849312  1
  O  O0  1  0.20712865  0.03378145  0.30698478  1
  O  O1  1  0.83359881  0.79917870  0.30575292  1
  O  O2  1  0.97444526  0.16554736  0.31175403  1
  O  O3  1  0.20082130  0.16640119  0.80575292  1
  O  O4  1  0.96621855  0.79287135  0.80698478  1
  O  O5  1  0.83445264  0.02555474  0.81175403  1
  O  O6  1  0.78688903  0.96003937  0.69052316  1
  O  O7  1  0.18754195  0.22214999  0.69232858  1
  O  O8  1  0.03940898  0.81858453  0.69278737  1
  O  O9  1  0.77785001  0.81245805  0.19232858  1
  O  O10  1  0.03996063  0.21311097  0.19052316  1
  O  O11  1  0.18141547  0.96059102  0.19278737  1
  O  O12  1  0.86914245  0.37155244  0.63746356  1
  O  O13  1  0.50379350  0.13783939  0.64236259  1
  O  O14  1  0.63976183  0.50964366  0.64376579  1
  O  O15  1  0.86216061  0.49620650  0.14236259  1
  O  O16  1  0.62844756  0.13085755  0.13746356  1
  O  O17  1  0.49035634  0.36023817  0.14376579  1
  O  O18  1  0.44893666  0.29015414  0.02984567  1
  O  O19  1  0.85180536  0.55155676  0.02073317  1
  O  O20  1  0.70263638  0.15023397  0.02425852  1
  O  O21  1  0.44844324  0.14819464  0.52073317  1
  O  O22  1  0.70984586  0.55106334  0.52984567  1
  O  O23  1  0.84976603  0.29736362  0.52425852  1
  O  O24  1  0.52099994  0.69098278  0.97108333  1
  O  O25  1  0.15807331  0.46142152  0.97681212  1
  O  O26  1  0.29554837  0.83298040  0.97611555  1
  O  O27  1  0.53857848  0.84192669  0.47681212  1
  O  O28  1  0.30901722  0.47900006  0.47108333  1
  O  O29  1  0.16701960  0.70445163  0.47611555  1
  O  O30  1  0.11100274  0.62404038  0.35587976  1
  O  O31  1  0.50937970  0.87775783  0.36246966  1
  O  O32  1  0.36729585  0.47928843  0.35693733  1
  O  O33  1  0.12224217  0.49062030  0.86246966  1
  O  O34  1  0.37595962  0.88899726  0.85587976  1
  O  O35  1  0.52071157  0.63270415  0.85693733  1
  O  O36  1  0.03002652  0.85180066  0.40814267  1
  O  O37  1  0.81108668  0.97545317  0.41167327  1
  O  O38  1  0.16404747  0.19581394  0.41360564  1
  O  O39  1  0.02454683  0.18891332  0.91167327  1
  O  O40  1  0.14819934  0.96997348  0.90814267  1
  O  O41  1  0.80418606  0.83595253  0.91360564  1
  O  O42  1  0.97188747  0.16968028  0.58896952  1
  O  O43  1  0.17438052  0.00477211  0.58773305  1
  O  O44  1  0.82240680  0.80859507  0.58959317  1
  O  O45  1  0.99522789  0.82561948  0.08773305  1
  O  O46  1  0.83031972  0.02811253  0.08896952  1
  O  O47  1  0.19140493  0.17759320  0.08959317  1
  O  O48  1  0.69130007  0.17962664  0.74473278  1
  O  O49  1  0.47729717  0.31175857  0.74547347  1
  O  O50  1  0.82502690  0.52504083  0.74203704  1
  O  O51  1  0.68824143  0.52270283  0.24547347  1
  O  O52  1  0.82037336  0.30869993  0.24473278  1
  O  O53  1  0.47495917  0.17497310  0.24203704  1
  O  O54  1  0.65300461  0.51048321  0.92115317  1
  O  O55  1  0.86133146  0.35217528  0.92229537  1
  O  O56  1  0.50812938  0.15210326  0.92206129  1
  O  O57  1  0.64782472  0.13866854  0.42229537  1
  O  O58  1  0.48951679  0.34699539  0.42115317  1
  O  O59  1  0.84789674  0.49187062  0.42206129  1
  O  O60  1  0.36245284  0.50500866  0.07736014  1
  O  O61  1  0.15467121  0.64058849  0.07829181  1
  O  O62  1  0.49757337  0.85748131  0.07581718  1
  O  O63  1  0.35941151  0.84532879  0.57829181  1
  O  O64  1  0.49499134  0.63754716  0.57736014  1
  O  O65  1  0.14251869  0.50242663  0.57581718  1
  O  O66  1  0.31826849  0.84263708  0.25575707  1
  O  O67  1  0.52324952  0.68280282  0.25722086  1
  O  O68  1  0.16890552  0.48249133  0.25363755  1
  O  O69  1  0.31719718  0.47675048  0.75722086  1
  O  O70  1  0.15736292  0.68173151  0.75575707  1
  O  O71  1  0.51750867  0.83109448  0.75363755  1
loop_
_geom_bond_atom_site_label_1
_geom_bond_atom_site_label_2
_geom_bond_distance
_geom_bond_site_symmetry_2
Na0 O36 2.405688 1_555
Na0 O38 2.435136 1_565
Na0 O37 2.467190 1_455
Na0 O43 2.477452 1_565
Na0 O44 2.600799 1_455
Na0 O42 2.622178 1_465
Na1 O40 2.405688 1_555
Na1 O41 2.435136 1_455
Na1 O39 2.467190 1_565
Na1 O45 2.477452 1_456
Na1 O47 2.600799 1_566
Na1 O46 2.622178 1_466
Na2 O48 2.363525 1_555
Na2 O49 2.450513 1_555
Na2 O56 2.486670 1_555
Na2 O50 2.513658 1_555
Na2 O55 2.592885 1_555
Na2 O54 2.594539 1_555
Na3 O52 2.363525 1_555
Na3 O51 2.450513 1_555
Na3 O59 2.486670 1_555
Na3 O53 2.513658 1_555
Na3 O57 2.592884 1_555
Na3 O58 2.594539 1_555
Na4 O62 2.436783 1_555
Na4 O60 2.443969 1_555
Na4 O61 2.448869 1_555
Na4 O67 2.545305 1_555
Na4 O68 2.557919 1_555
Na4 O66 2.602365 1_555
Na5 O65 2.436783 1_555
Na5 O64 2.443969 1_555
Na5 O63 2.448869 1_555
Na5 O69 2.545305 1_555
Na5 O71 2.557919 1_555
Na5 O70 2.602365 1_555
Na6 O53 2.344668 1_555
Na6 O68 2.407735 1_555
Na6 O67 2.452151 1_555
Na6 O51 2.505301 1_555
Na6 O17 2.546578 1_555
Na6 O32 2.595598 1_555
Na6 O10 2.751959 1_555
Na6 O0 2.839512 1_555
Na7 O51 2.393647 1_555
Na7 O52 2.428510 1_555
Na7 O68 2.431906 1_655
Na7 O66 2.520312 1_655
Na7 O30 2.567203 1_655
Na7 O15 2.594382 1_555
Na7 O11 2.840497 1_655
Na7 O1 2.859743 1_555
Na8 O50 2.344668 1_555
Na8 O71 2.407735 1_555
Na8 O69 2.452151 1_555
Na8 O49 2.505301 1_555
Na8 O14 2.546578 1_555
Na8 O35 2.595598 1_555
Na8 O6 2.751959 1_555
Na8 O4 2.839512 1_555
Na9 O49 2.393647 1_555
Na9 O48 2.428510 1_555
Na9 O71 2.431906 1_545
Na9 O70 2.520312 1_545
Na9 O34 2.567203 1_545
Na9 O13 2.594382 1_555
Na9 O8 2.840497 1_545
Na9 O3 2.859743 1_555
Na10 O43 2.335682 1_565
Na10 O65 2.373308 1_555
Na10 O63 2.481328 1_555
Na10 O44 2.513394 1_455
Na10 O29 2.545072 1_555
Na10 O8 2.672224 1_555
Na10 O22 2.725023 1_455
Na10 O12 2.812192 1_455
Na11 O63 2.315749 1_555
Na11 O42 2.429395 1_565
Na11 O44 2.441891 1_555
Na11 O64 2.500988 1_555
Na11 O6 2.580959 1_555
Na11 O27 2.595717 1_555
Na11 O13 2.821225 1_565
Na11 O23 2.880982 1_565
Na12 O45 2.335682 1_455
Na12 O62 2.373308 1_555
Na12 O61 2.481328 1_555
Na12 O47 2.513394 1_565
Na12 O26 2.545072 1_554
Na12 O11 2.672224 1_555
Na12 O18 2.725023 1_565
Na12 O16 2.812192 1_565
Na13 O61 2.315749 1_555
Na13 O46 2.429395 1_455
Na13 O47 2.441891 1_555
Na13 O60 2.500988 1_555
Na13 O10 2.580959 1_555
Na13 O25 2.595717 1_554
Na13 O15 2.821225 1_455
Na13 O20 2.880982 1_455
Na14 O40 2.315328 1_655
Na14 O54 2.425281 1_555
Na14 O19 2.469232 1_556
Na14 O55 2.475213 1_555
Na14 O41 2.543095 1_555
Na14 O4 2.678333 1_555
Na14 O26 2.789698 1_655
Na14 O33 2.824461 1_655
Na15 O41 2.341781 1_545
Na15 O56 2.409828 1_555
Na15 O55 2.471632 1_555
Na15 O39 2.504172 1_655
Na15 O5 2.515385 1_555
Na15 O20 2.667423 1_556
Na15 O34 2.750667 1_545
Na15 O24 2.900277 1_545
Na16 O38 2.341781 1_655
Na16 O59 2.409828 1_555
Na16 O57 2.471632 1_555
Na16 O37 2.504171 1_545
Na16 O2 2.515385 1_555
Na16 O23 2.667423 1_555
Na16 O30 2.750667 1_655
Na16 O28 2.900277 1_655
Na17 O36 2.315328 1_545
Na17 O58 2.425281 1_555
Na17 O21 2.469232 1_555
Na17 O57 2.475213 1_555
Na17 O38 2.543095 1_555
Na17 O0 2.678333 1_555
Na17 O29 2.789698 1_545
Na17 O31 2.824461 1_545
Al0 O2 1.846152 1_565
Al0 O1 1.875693 1_555
Al0 O36 1.885701 1_655
Al0 O37 1.986788 1_555
Al0 O0 2.027357 1_665
Al0 O38 2.142320 1_665
Al1 O5 1.846152 1_455
Al1 O3 1.875693 1_555
Al1 O40 1.885701 1_545
Al1 O39 1.986788 1_555
Al1 O4 2.027357 1_445
Al1 O41 2.142320 1_445
Al2 O13 1.843960 1_555
Al2 O48 1.886660 1_555
Al2 O12 1.907211 1_555
Al2 O50 2.010680 1_555
Al2 O14 2.014722 1_555
Al2 O49 2.106125 1_555
Al3 O15 1.843960 1_555
Al3 O52 1.886660 1_555
Al3 O16 1.907211 1_555
Al3 O53 2.010680 1_555
Al3 O17 2.014722 1_555
Al3 O51 2.106125 1_555
Al4 O26 1.866611 1_554
Al4 O24 1.924177 1_554
Al4 O61 1.927613 1_555
Al4 O25 1.929711 1_554
Al4 O62 2.011318 1_555
Al4 O60 2.067294 1_555
Al5 O29 1.866611 1_555
Al5 O28 1.924177 1_555
Al5 O63 1.927613 1_555
Al5 O27 1.929711 1_555
Al5 O65 2.011318 1_555
Al5 O64 2.067294 1_555
O0 P0 1.539804 1_555
O1 P1 1.529103 1_555
O2 Si0 1.619626 1_555
O3 P2 1.529103 1_555
O4 P3 1.539804 1_555
O5 Si1 1.619626 1_555
O6 Si1 1.649407 1_565
O6 Sn0 1.980993 1_665
O7 P2 1.547100 1_555
O7 Sn0 2.008136 1_555
O8 P3 1.566085 1_455
O8 Sn0 2.065923 1_565
O9 P1 1.547100 1_555
O9 Sn1 2.008136 1_555
O10 Si0 1.649407 1_455
O10 Sn1 1.980993 1_445
O11 P0 1.566085 1_565
O11 Sn1 2.065923 1_455
O12 P4 1.533717 1_555
O13 Si2 1.622685 1_555
O14 P5 1.534197 1_555
O15 Si3 1.622685 1_555
O16 P6 1.533717 1_555
O17 P7 1.534197 1_555
O18 P7 1.556523 1_555
O18 Sn2 2.011163 1_554
O19 Si3 1.639301 1_555
O19 Sn2 1.977515 1_554
O20 P6 1.564209 1_555
O20 Sn2 2.062322 1_554
O21 Si2 1.639301 1_555
O21 Sn3 1.977515 1_555
O22 P5 1.556523 1_555
O22 Sn3 2.011163 1_555
O23 P4 1.564209 1_555
O23 Sn3 2.062322 1_555
O24 P8 1.527112 1_555
O25 P9 1.532976 1_555
O26 Si4 1.632899 1_555
O27 P10 1.532976 1_555
O28 P11 1.527112 1_555
O29 Si5 1.632899 1_555
O30 Si5 1.653382 1_555
O30 Sn4 1.986412 1_555
O31 P10 1.551940 1_555
O31 Sn4 2.022288 1_555
O32 P11 1.558945 1_555
O32 Sn4 2.039660 1_555
O33 P9 1.551939 1_555
O33 Sn5 2.022288 1_555
O34 Si4 1.653382 1_555
O34 Sn5 1.986412 1_555
O35 P8 1.558945 1_555
O35 Sn5 2.039660 1_555
O36 Si5 1.628911 1_555
O37 P10 1.535898 1_555
O38 P11 1.550113 1_555
O39 P9 1.535898 1_555
O40 Si4 1.628911 1_555
O41 P8 1.550113 1_555
O42 P4 1.552127 1_555
O42 Sn0 2.082338 1_655
O43 Si2 1.651397 1_555
O43 Sn0 2.014217 1_555
O44 P5 1.577548 1_555
O44 Sn0 2.130466 1_665
O45 Si3 1.651397 1_555
O45 Sn1 2.014217 1_555
O46 P6 1.552127 1_555
O46 Sn1 2.082338 1_545
O47 P7 1.577548 1_555
O47 Sn1 2.130466 1_445
O48 Si1 1.626775 1_555
O49 P2 1.550183 1_555
O50 P3 1.536839 1_555
O51 P1 1.550183 1_555
O52 Si0 1.626775 1_555
O53 P0 1.536839 1_555
O54 P8 1.557021 1_555
O54 Sn2 2.077280 1_555
O55 P9 1.574405 1_655
O55 Sn2 2.140111 1_555
O56 Si4 1.647689 1_545
O56 Sn2 2.010485 1_555
O57 P10 1.574405 1_545
O57 Sn3 2.140111 1_555
O58 P11 1.557021 1_555
O58 Sn3 2.077280 1_555
O59 Si5 1.647689 1_655
O59 Sn3 2.010485 1_555
O60 P7 1.536782 1_555
O61 Si3 1.652018 1_455
O62 P6 1.535698 1_565
O63 Si2 1.652018 1_565
O64 P5 1.536782 1_555
O65 P4 1.535698 1_455
O66 P0 1.553567 1_565
O66 Sn4 2.091205 1_555
O67 P1 1.554163 1_555
O67 Sn4 2.076939 1_555
O68 Si0 1.681403 1_455
O68 Sn4 2.045664 1_555
O69 P2 1.554163 1_555
O69 Sn5 2.076939 1_555
O70 P3 1.553567 1_455
O70 Sn5 2.091205 1_555
O71 Si1 1.681403 1_565
O71 Sn5 2.045664 1_555
