# generated using pymatgen
data_U2C3
_symmetry_space_group_name_H-M   'P 1'
_cell_length_a   7.00055238
_cell_length_b   7.00055256
_cell_length_c   7.00055255
_cell_angle_alpha   109.47122064
_cell_angle_beta   109.47122115
_cell_angle_gamma   109.47122394
_symmetry_Int_Tables_number   1
_chemical_formula_structural   U2C3
_chemical_formula_sum   'U8 C12'
_cell_volume   264.10403635
_cell_formula_units_Z   4
loop_
 _symmetry_equiv_pos_site_id
 _symmetry_equiv_pos_as_xyz
  1  'x, y, z'
loop_
 _atom_site_type_symbol
 _atom_site_label
 _atom_site_symmetry_multiplicity
 _atom_site_fract_x
 _atom_site_fract_y
 _atom_site_fract_z
 _atom_site_occupancy
  U  U0  1  0.59804087  0.59804087  0.59804087  1
  U  U1  1  0.40195913  0.50000000  0.00000000  1
  U  U2  1  0.50000000  -0.00000000  0.40195913  1
  U  U3  1  0.00000000  0.40195913  0.50000000  1
  U  U4  1  0.50000000  -0.00000000  0.90195913  1
  U  U5  1  0.00000000  0.90195913  0.50000000  1
  U  U6  1  0.90195913  0.50000000  0.00000000  1
  U  U7  1  0.09804087  0.09804087  0.09804087  1
  C  C0  1  0.75000000  0.78606162  0.03606162  1
  C  C1  1  0.75000000  0.96393838  0.21393838  1
  C  C2  1  0.28606162  0.25000000  0.53606162  1
  C  C3  1  0.53606162  0.28606162  0.25000000  1
  C  C4  1  0.21393838  0.75000000  0.96393838  1
  C  C5  1  0.96393838  0.21393838  0.75000000  1
  C  C6  1  0.25000000  0.71393838  0.46393838  1
  C  C7  1  0.71393838  0.46393838  0.25000000  1
  C  C8  1  0.25000000  0.53606162  0.28606162  1
  C  C9  1  0.46393838  0.25000000  0.71393838  1
  C  C10  1  0.03606162  0.75000000  0.78606162  1
  C  C11  1  0.78606162  0.03606162  0.75000000  1
loop_
_geom_bond_atom_site_label_1
_geom_bond_atom_site_label_2
_geom_bond_distance
_geom_bond_site_symmetry_2
C0 C1 1.437874 1_555
C0 U7 2.451648 1_665
C0 U1 2.451648 1_555
C0 U0 2.543225 1_554
C0 U6 2.543226 1_555
C1 U4 2.451648 1_564
C1 U5 2.451648 1_655
C1 U3 2.543225 1_665
C1 U2 2.543225 1_565
C2 C9 1.437874 1_555
C2 U0 2.451648 1_555
C2 U5 2.451648 1_545
C2 U7 2.543225 1_555
C2 U3 2.543226 1_555
C3 C7 1.437874 1_555
C3 U0 2.451648 1_555
C3 U4 2.451648 1_554
C3 U7 2.543225 1_555
C3 U2 2.543226 1_555
C4 U6 2.451648 1_456
C4 U4 2.451648 1_565
C4 U2 2.543225 1_566
C4 U1 2.543226 1_556
C5 U5 2.451648 1_645
C5 U6 2.451648 1_556
C5 U1 2.543225 1_656
C5 U3 2.543226 1_655
C6 C8 1.437874 1_555
C6 U3 2.451648 1_555
C6 U2 2.451648 1_565
C6 U4 2.543225 1_565
C6 U5 2.543226 1_555
C7 U1 2.451648 1_555
C7 U3 2.451648 1_655
C7 U5 2.543225 1_655
C7 U6 2.543225 1_555
C8 U0 2.451648 1_555
C8 U6 2.451648 1_455
C8 U7 2.543225 1_555
C8 U1 2.543226 1_555
C9 U2 2.451648 1_555
C9 U1 2.451648 1_556
C9 U6 2.543225 1_556
C9 U4 2.543226 1_555
C10 C4 1.437874 1_555
C10 U7 2.451648 1_566
C10 U3 2.451648 1_555
C10 U0 2.543225 1_455
C10 U5 2.543226 1_555
C11 C5 1.437874 1_555
C11 U7 2.451648 1_656
C11 U2 2.451648 1_555
C11 U0 2.543225 1_545
C11 U4 2.543225 1_555
