# generated using pymatgen
data_FeCu2GeS4
_symmetry_space_group_name_H-M   'P 1'
_cell_length_a   6.45308518
_cell_length_b   6.45308518
_cell_length_c   6.45308518
_cell_angle_alpha   131.13061360
_cell_angle_beta   131.13061360
_cell_angle_gamma   71.60564347
_symmetry_Int_Tables_number   1
_chemical_formula_structural   FeCu2GeS4
_chemical_formula_sum   'Fe1 Cu2 Ge1 S4'
_cell_volume   149.16948342
_cell_formula_units_Z   1
loop_
 _symmetry_equiv_pos_site_id
 _symmetry_equiv_pos_as_xyz
  1  'x, y, z'
loop_
 _atom_site_type_symbol
 _atom_site_label
 _atom_site_symmetry_multiplicity
 _atom_site_fract_x
 _atom_site_fract_y
 _atom_site_fract_z
 _atom_site_occupancy
  Fe  Fe0  1  0.00000000  0.00000000  0.00000000  1
  Cu  Cu0  1  0.75000000  0.25000000  0.50000000  1
  Cu  Cu1  1  0.25000000  0.75000000  0.50000000  1
  Ge  Ge0  1  0.50000000  0.50000000  0.00000000  1
  S  S0  1  0.37573800  0.87622200  0.00000000  1
  S  S1  1  0.87622200  0.37573800  0.00000000  1
  S  S2  1  0.62426200  0.62426200  0.50048300  1
  S  S3  1  0.12377800  0.12377800  0.49951700  1
loop_
_geom_bond_atom_site_label_1
_geom_bond_atom_site_label_2
_geom_bond_distance
_geom_bond_site_symmetry_2
Fe0 S0 2.301032 1_545
Fe0 S1 2.301032 1_455
Fe0 S2 2.301032 1_444
Fe0 S3 2.301038 1_555
Cu0 S3 2.290839 1_655
Cu0 S1 2.290842 1_556
Cu0 S0 2.290842 1_545
Cu0 S2 2.290845 1_555
Cu1 S3 2.290839 1_565
Cu1 S1 2.290842 1_455
Cu1 S0 2.290842 1_556
Cu1 S2 2.290845 1_555
Ge0 S2 2.304021 1_555
Ge0 S3 2.304027 1_554
Ge0 S0 2.304027 1_555
Ge0 S1 2.304027 1_555
