# generated using pymatgen
data_InP
_symmetry_space_group_name_H-M   'P 1'
_cell_length_a   4.17472510
_cell_length_b   4.17472489
_cell_length_c   4.17472507
_cell_angle_alpha   59.99999852
_cell_angle_beta   60.00000018
_cell_angle_gamma   60.00000303
_symmetry_Int_Tables_number   1
_chemical_formula_structural   InP
_chemical_formula_sum   'In1 P1'
_cell_volume   51.44801613
_cell_formula_units_Z   1
loop_
 _symmetry_equiv_pos_site_id
 _symmetry_equiv_pos_as_xyz
  1  'x, y, z'
loop_
 _atom_site_type_symbol
 _atom_site_label
 _atom_site_symmetry_multiplicity
 _atom_site_fract_x
 _atom_site_fract_y
 _atom_site_fract_z
 _atom_site_occupancy
  In  In0  1  -0.00000000  -0.00000000  0.00000000  1
  P  P0  1  0.25000000  0.25000000  0.25000000  1
loop_
_geom_bond_atom_site_label_1
_geom_bond_atom_site_label_2
_geom_bond_distance
_geom_bond_site_symmetry_2
In0 P0 2.556486 1_545
In0 P0 2.556487 1_554
In0 P0 2.556487 1_555
In0 P0 2.556487 1_455
