# generated using pymatgen
data_In2Cu2O5
_symmetry_space_group_name_H-M   'P 1'
_cell_length_a   3.34853300
_cell_length_b   10.73283700
_cell_length_c   12.46229900
_cell_angle_alpha   90.00000000
_cell_angle_beta   90.00000000
_cell_angle_gamma   90.00000000
_symmetry_Int_Tables_number   1
_chemical_formula_structural   In2Cu2O5
_chemical_formula_sum   'In8 Cu8 O20'
_cell_volume   447.88578998
_cell_formula_units_Z   4
loop_
 _symmetry_equiv_pos_site_id
 _symmetry_equiv_pos_as_xyz
  1  'x, y, z'
loop_
 _atom_site_type_symbol
 _atom_site_label
 _atom_site_symmetry_multiplicity
 _atom_site_fract_x
 _atom_site_fract_y
 _atom_site_fract_z
 _atom_site_occupancy
  In  In0  1  0.28150200  0.53799300  0.82949900  1
  In  In1  1  0.71849800  0.46200700  0.32949900  1
  In  In2  1  0.21849800  0.03799300  0.82949900  1
  In  In3  1  0.78150200  0.96200700  0.32949900  1
  In  In4  1  0.28425200  0.71285700  0.50019700  1
  In  In5  1  0.71574800  0.28714300  0.00019700  1
  In  In6  1  0.21574800  0.21285700  0.50019700  1
  In  In7  1  0.78425200  0.78714300  0.00019700  1
  Cu  Cu0  1  0.84126500  0.76032300  0.71795300  1
  Cu  Cu1  1  0.15873500  0.23967700  0.21795300  1
  Cu  Cu2  1  0.65873500  0.26032300  0.71795300  1
  Cu  Cu3  1  0.34126500  0.73967700  0.21795300  1
  Cu  Cu4  1  0.82851200  0.49179700  0.61113300  1
  Cu  Cu5  1  0.17148800  0.50820300  0.11113300  1
  Cu  Cu6  1  0.67148800  0.99179700  0.61113300  1
  Cu  Cu7  1  0.32851200  0.00820300  0.11113300  1
  O  O0  1  0.27162400  0.92066100  0.97061100  1
  O  O1  1  0.72837600  0.07933900  0.47061100  1
  O  O2  1  0.22837600  0.42066100  0.97061100  1
  O  O3  1  0.77162400  0.57933900  0.47061100  1
  O  O4  1  0.72106300  0.93010700  0.76157700  1
  O  O5  1  0.27893700  0.06989300  0.26157700  1
  O  O6  1  0.77893700  0.43010700  0.76157700  1
  O  O7  1  0.22106300  0.56989300  0.26157700  1
  O  O8  1  0.17566100  0.62493300  0.66416000  1
  O  O9  1  0.82433900  0.37506700  0.16416000  1
  O  O10  1  0.32433900  0.12493300  0.66416000  1
  O  O11  1  0.67566100  0.87506700  0.16416000  1
  O  O12  1  0.79034400  0.82174900  0.56727600  1
  O  O13  1  0.20965600  0.17825100  0.06727600  1
  O  O14  1  0.70965600  0.32174900  0.56727600  1
  O  O15  1  0.29034400  0.67825100  0.06727600  1
  O  O16  1  0.28298600  0.82852000  0.35809300  1
  O  O17  1  0.71701400  0.17148000  0.85809300  1
  O  O18  1  0.21701400  0.32852000  0.35809300  1
  O  O19  1  0.78298600  0.67148000  0.85809300  1
loop_
_geom_bond_atom_site_label_1
_geom_bond_atom_site_label_2
_geom_bond_distance
_geom_bond_site_symmetry_2
In0 O2 2.170276 1_555
In0 O6 2.198128 1_555
In0 O6 2.211174 1_455
In0 O19 2.228486 1_455
In0 O19 2.235940 1_555
In0 O8 2.289538 1_555
In1 O3 2.170276 1_555
In1 O7 2.198128 1_555
In1 O7 2.211174 1_655
In1 O18 2.228486 1_655
In1 O18 2.235940 1_555
In1 O9 2.289538 1_555
In2 O0 2.170276 1_545
In2 O4 2.198128 1_445
In2 O4 2.211174 1_545
In2 O17 2.228486 1_555
In2 O17 2.235940 1_455
In2 O10 2.289538 1_555
In3 O1 2.170276 1_565
In3 O5 2.198128 1_665
In3 O5 2.211174 1_565
In3 O16 2.228486 1_555
In3 O16 2.235940 1_655
In3 O11 2.289538 1_555
In4 O16 2.162709 1_555
In4 O12 2.190893 1_455
In4 O3 2.202924 1_555
In4 O12 2.221852 1_555
In4 O3 2.266288 1_455
In4 O8 2.279922 1_555
In5 O17 2.162709 1_554
In5 O13 2.190893 1_655
In5 O2 2.202924 1_554
In5 O13 2.221852 1_555
In5 O2 2.266288 1_654
In5 O9 2.279922 1_555
In6 O18 2.162709 1_555
In6 O14 2.190893 1_555
In6 O1 2.202924 1_455
In6 O14 2.221852 1_455
In6 O1 2.266288 1_555
In6 O10 2.279922 1_555
In7 O19 2.162709 1_554
In7 O15 2.190893 1_555
In7 O0 2.202924 1_654
In7 O15 2.221852 1_655
In7 O0 2.266288 1_554
In7 O11 2.279922 1_555
Cu0 O4 1.943763 1_555
Cu0 O8 1.953146 1_655
Cu0 O12 1.997444 1_555
Cu0 O19 1.999365 1_555
Cu1 O5 1.943763 1_555
Cu1 O9 1.953146 1_455
Cu1 O13 1.997444 1_555
Cu1 O18 1.999365 1_555
Cu2 O6 1.943763 1_555
Cu2 O10 1.953146 1_555
Cu2 O14 1.997444 1_555
Cu2 O17 1.999365 1_555
Cu3 O7 1.943763 1_555
Cu3 O11 1.953146 1_555
Cu3 O15 1.997444 1_555
Cu3 O16 1.999365 1_555
Cu4 O14 1.946306 1_555
Cu4 O8 1.956989 1_655
Cu4 O6 1.995273 1_555
Cu4 O3 1.996468 1_555
Cu5 O15 1.946306 1_555
Cu5 O9 1.956989 1_455
Cu5 O7 1.995273 1_555
Cu5 O2 1.996468 1_554
Cu6 O12 1.946306 1_555
Cu6 O10 1.956989 1_565
Cu6 O4 1.995273 1_555
Cu6 O1 1.996468 1_565
Cu7 O13 1.946306 1_555
Cu7 O11 1.956989 1_545
Cu7 O5 1.995273 1_555
Cu7 O0 1.996468 1_544
