# generated using pymatgen
data_Na6Ca7Zr(SO4)12
_symmetry_space_group_name_H-M   'P 1'
_cell_length_a   18.42085362
_cell_length_b   9.20255107
_cell_length_c   24.16052177
_cell_angle_alpha   90.06685110
_cell_angle_beta   89.94526887
_cell_angle_gamma   119.95370692
_symmetry_Int_Tables_number   1
_chemical_formula_structural   Na6Ca7Zr(SO4)12
_chemical_formula_sum   'Na18 Ca21 Zr3 S36 O144'
_cell_volume   3548.59955207
_cell_formula_units_Z   3
loop_
 _symmetry_equiv_pos_site_id
 _symmetry_equiv_pos_as_xyz
  1  'x, y, z'
loop_
 _atom_site_type_symbol
 _atom_site_label
 _atom_site_symmetry_multiplicity
 _atom_site_fract_x
 _atom_site_fract_y
 _atom_site_fract_z
 _atom_site_occupancy
  Na  Na0  1  0.32143048  0.64095529  0.74897653  1
  Na  Na1  1  0.65030782  0.33095439  0.58437877  1
  Na  Na2  1  0.98748032  0.66757124  0.91795483  1
  Na  Na3  1  0.66518026  0.30308884  0.91518911  1
  Na  Na4  1  0.16702766  0.02860468  0.41720767  1
  Na  Na5  1  0.66641236  0.02858841  0.41747747  1
  Na  Na6  1  0.99395702  0.00360635  0.49442113  1
  Na  Na7  1  0.48268664  0.97983632  0.50181830  1
  Na  Na8  1  0.00359758  0.01964045  0.99721115  1
  Na  Na9  1  0.48910536  0.98126846  0.99380156  1
  Na  Na10  1  0.33860208  0.32376911  0.83795079  1
  Na  Na11  1  0.82888892  0.31389546  0.82957097  1
  Na  Na12  1  0.34128743  0.34859907  0.33499732  1
  Na  Na13  1  0.84150473  0.34863844  0.33415438  1
  Na  Na14  1  0.16771563  0.66704234  0.16632951  1
  Na  Na15  1  0.66570349  0.66616738  0.16654438  1
  Na  Na16  1  0.16511928  0.67215474  0.66288475  1
  Na  Na17  1  0.66153211  0.67499502  0.67049506  1
  Ca  Ca0  1  0.99573921  0.99965249  0.34986533  1
  Ca  Ca1  1  0.49528698  0.00058512  0.35053573  1
  Ca  Ca2  1  0.00166211  0.01058562  0.85023558  1
  Ca  Ca3  1  0.49682774  0.99579608  0.84870057  1
  Ca  Ca4  1  0.49819965  0.99474100  0.65122307  1
  Ca  Ca5  1  0.33719783  0.32852875  0.68071327  1
  Ca  Ca6  1  0.83194019  0.33057760  0.68455872  1
  Ca  Ca7  1  0.33299551  0.33264226  0.18318271  1
  Ca  Ca8  1  0.83272944  0.33267566  0.18308654  1
  Ca  Ca9  1  0.33356234  0.33529503  0.98543253  1
  Ca  Ca10  1  0.83292610  0.32266908  0.98953376  1
  Ca  Ca11  1  0.33705547  0.34166013  0.48584691  1
  Ca  Ca12  1  0.84242004  0.34376408  0.48542518  1
  Ca  Ca13  1  0.17046675  0.66803964  0.01752136  1
  Ca  Ca14  1  0.66600466  0.67145303  0.01747080  1
  Ca  Ca15  1  0.16725388  0.65960025  0.51742562  1
  Ca  Ca16  1  0.66632572  0.67079105  0.51545258  1
  Ca  Ca17  1  0.16720569  0.66109503  0.31372741  1
  Ca  Ca18  1  0.66661116  0.66058991  0.31361085  1
  Ca  Ca19  1  0.16471253  0.66856917  0.81672803  1
  Ca  Ca20  1  0.66712325  0.67001539  0.81554562  1
  Zr  Zr0  1  0.00057315  0.00113366  0.65026216  1
  Zr  Zr1  1  0.00081495  -0.00003869  0.15044834  1
  Zr  Zr2  1  0.49981107  0.99981740  0.14992192  1
  S  S0  1  0.14585770  0.99884714  0.24975859  1
  S  S1  1  0.64556658  -0.00055425  0.24964776  1
  S  S2  1  0.35376198  0.70818789  0.24782933  1
  S  S3  1  0.85373048  0.70800460  0.24777003  1
  S  S4  1  0.00029452  0.29317858  0.24772652  1
  S  S5  1  0.50045266  0.29312482  0.24771882  1
  S  S6  1  0.14783033  0.29610893  0.74735149  1
  S  S7  1  0.65163370  0.30285119  0.75031139  1
  S  S8  1  0.00021907  0.70900984  0.74955218  1
  S  S9  1  0.49843780  0.69747004  0.74958583  1
  S  S10  1  0.34832453  0.99617582  0.75020505  1
  S  S11  1  0.85421104  0.99934993  0.74822679  1
  S  S12  1  0.48691442  0.33317209  0.58280712  1
  S  S13  1  0.98374741  0.32762443  0.58681077  1
  S  S14  1  0.17869386  0.02975755  0.58432801  1
  S  S15  1  0.68414276  0.03801512  0.58155062  1
  S  S16  1  0.33255045  0.63510799  0.58608010  1
  S  S17  1  0.83586387  0.63747629  0.58583473  1
  S  S18  1  0.48347573  0.63950241  0.08629071  1
  S  S19  1  0.98432615  0.64077961  0.08436702  1
  S  S20  1  0.33640377  0.03339302  0.08613580  1
  S  S21  1  0.83643896  0.03010865  0.08683873  1
  S  S22  1  0.18010620  0.32704095  0.08622041  1
  S  S23  1  0.67931507  0.32756634  0.08464986  1
  S  S24  1  0.31672629  0.66347817  0.91462997  1
  S  S25  1  0.81650827  0.66385895  0.91776740  1
  S  S26  1  0.01634937  0.37123509  0.91787529  1
  S  S27  1  0.51864150  0.36854331  0.91700777  1
  S  S28  1  0.16518065  0.96450777  0.91740099  1
  S  S29  1  0.66762801  0.97179796  0.91668497  1
  S  S30  1  0.31334396  0.96526524  0.41699580  1
  S  S31  1  0.81433174  0.96594990  0.41649450  1
  S  S32  1  0.16683764  0.36251385  0.41621537  1
  S  S33  1  0.66782780  0.36342386  0.41841955  1
  S  S34  1  0.01974396  0.66966880  0.41598463  1
  S  S35  1  0.51834886  0.66903079  0.41500158  1
  O  O0  1  0.10768668  0.01294511  0.30158914  1
  O  O1  1  0.60765069  0.01351459  0.30163808  1
  O  O2  1  0.40030960  0.78693755  0.29853737  1
  O  O3  1  0.90022394  0.78640748  0.29855994  1
  O  O4  1  0.49365807  0.20042595  0.29840762  1
  O  O5  1  0.99304991  0.19987502  0.29839612  1
  O  O6  1  0.10871203  0.20203716  0.79784452  1
  O  O7  1  0.60903570  0.20578237  0.80096684  1
  O  O8  1  0.48932139  0.78125306  0.79924674  1
  O  O9  1  0.99333235  0.78499690  0.80161526  1
  O  O10  1  0.39709414  0.01383506  0.80062408  1
  O  O11  1  0.90062771  0.01199305  0.79886128  1
  O  O12  1  0.39041557  0.97846462  0.70049330  1
  O  O13  1  0.90436574  0.99247464  0.69867887  1
  O  O14  1  0.09380753  0.19849676  0.69801086  1
  O  O15  1  0.60412507  0.21887363  0.69915826  1
  O  O16  1  0.00470570  0.82105047  0.70103757  1
  O  O17  1  0.50667031  0.79493262  0.69917162  1
  O  O18  1  0.40324643  0.81640798  0.19831686  1
  O  O19  1  0.90335398  0.81624227  0.19836029  1
  O  O20  1  0.00437081  0.19322813  0.19820393  1
  O  O21  1  0.50445145  0.19350963  0.19816923  1
  O  O22  1  0.09020829  0.99025676  0.20106178  1
  O  O23  1  0.59011883  0.99086550  0.20097688  1
  O  O24  1  0.44664865  0.34846853  0.63327846  1
  O  O25  1  0.94161401  0.34773191  0.63504530  1
  O  O26  1  0.23216903  0.11863548  0.63160496  1
  O  O27  1  0.73564941  0.12519671  0.63037531  1
  O  O28  1  0.32681730  0.54381425  0.63828786  1
  O  O29  1  0.82423726  0.53113837  0.63401920  1
  O  O30  1  0.44214379  0.53665887  0.13501000  1
  O  O31  1  0.93957119  0.53258158  0.13129354  1
  O  O32  1  0.32610212  0.11536028  0.13507781  1
  O  O33  1  0.82613276  0.11474252  0.13486621  1
  O  O34  1  0.23117206  0.34689378  0.13508966  1
  O  O35  1  0.73346887  0.34682225  0.13159297  1
  O  O36  1  0.21395332  0.29586816  0.03534400  1
  O  O37  1  0.71146208  0.29775697  0.03195431  1
  O  O38  1  0.43423954  0.57196687  0.03535726  1
  O  O39  1  0.93728659  0.57699451  0.03164484  1
  O  O40  1  0.35153303  0.13219784  0.03535301  1
  O  O41  1  0.85247812  0.12827294  0.03544881  1
  O  O42  1  0.20992048  0.12237102  0.53175007  1
  O  O43  1  0.72426933  0.13540259  0.52998823  1
  O  O44  1  0.33794529  0.54388296  0.53728179  1
  O  O45  1  0.85309858  0.57230469  0.53492068  1
  O  O46  1  0.43800092  0.31919918  0.53293964  1
  O  O47  1  0.93521870  0.29476453  0.53538067  1
  O  O48  1  0.27155265  0.67705594  0.96312302  1
  O  O49  1  0.77670112  0.68331541  0.96783064  1
  O  O50  1  0.06573425  0.45354769  0.96776145  1
  O  O51  1  0.56980533  0.45240259  0.96679358  1
  O  O52  1  0.15468689  0.85980619  0.96660049  1
  O  O53  1  0.66115632  0.87633142  0.96706632  1
  O  O54  1  0.27253786  0.86743981  0.46731651  1
  O  O55  1  0.77424554  0.86876101  0.46703637  1
  O  O56  1  0.15897592  0.44386027  0.46638220  1
  O  O57  1  0.66075399  0.44044871  0.47067875  1
  O  O58  1  0.06930781  0.68576529  0.46615630  1
  O  O59  1  0.56860901  0.68774681  0.46516829  1
  O  O60  1  0.06062645  0.65371776  0.36553707  1
  O  O61  1  0.55992214  0.65260802  0.36495818  1
  O  O62  1  0.26313036  0.88178015  0.36683209  1
  O  O63  1  0.76367994  0.88134483  0.36672459  1
  O  O64  1  0.17378346  0.45863577  0.36582841  1
  O  O65  1  0.67459705  0.46545086  0.36970944  1
  O  O66  1  0.05705220  0.47000278  0.86726237  1
  O  O67  1  0.55950012  0.46665908  0.86668701  1
  O  O68  1  0.17276486  0.88384104  0.86641343  1
  O  O69  1  0.67579889  0.89056956  0.86643813  1
  O  O70  1  0.27115700  0.65029078  0.86200170  1
  O  O71  1  0.76661551  0.64523445  0.86776282  1
  O  O72  1  0.01557268  0.82900599  0.41319541  1
  O  O73  1  0.51438907  0.82816471  0.41193523  1
  O  O74  1  0.39913579  0.98971820  0.41362091  1
  O  O75  1  0.90016125  0.99022749  0.41321057  1
  O  O76  1  0.09172458  0.18806434  0.41364232  1
  O  O77  1  0.59281685  0.19052596  0.41432217  1
  O  O78  1  0.00386378  0.19915197  0.91423881  1
  O  O79  1  0.51516927  0.20156225  0.91377734  1
  O  O80  1  0.08529441  0.97268376  0.91416878  1
  O  O81  1  0.59251039  0.99482316  0.91384382  1
  O  O82  1  0.40152054  0.81686270  0.91374085  1
  O  O83  1  0.90422394  0.80862265  0.91334825  1
  O  O84  1  0.49811943  0.18251116  0.58519052  1
  O  O85  1  0.99253274  0.17094486  0.59574468  1
  O  O86  1  0.09207762  0.01344525  0.59464967  1
  O  O87  1  0.60140762  0.03189530  0.58571736  1
  O  O88  1  0.40899975  0.80458997  0.58619121  1
  O  O89  1  0.91100584  0.81212075  0.59547586  1
  O  O90  1  0.49239633  0.81366904  0.09503779  1
  O  O91  1  0.99250267  0.81334767  0.09407671  1
  O  O92  1  0.41456729  0.01559547  0.09470028  1
  O  O93  1  0.91446477  0.01331198  0.09534170  1
  O  O94  1  0.09300036  0.17016601  0.09480161  1
  O  O95  1  0.59359747  0.17129308  0.09437199  1
  O  O96  1  0.33527052  0.14196901  0.74630573  1
  O  O97  1  0.84640445  0.15069103  0.74331923  1
  O  O98  1  0.23284512  0.31923951  0.74113488  1
  O  O99  1  0.73634957  0.31808854  0.74871554  1
  O  O100  1  0.41868024  0.53061424  0.74663014  1
  O  O101  1  0.92524533  0.54301655  0.74282677  1
  O  O102  1  0.34520006  0.54098153  0.24215756  1
  O  O103  1  0.84533071  0.54096529  0.24200730  1
  O  O104  1  0.42563938  0.31093920  0.24238757  1
  O  O105  1  0.92554068  0.31112400  0.24217069  1
  O  O106  1  0.22885467  0.14917105  0.24314375  1
  O  O107  1  0.72873260  0.14987771  0.24305482  1
  O  O108  1  0.32529746  0.51112516  0.91896124  1
  O  O109  1  0.82298029  0.50651439  0.92198581  1
  O  O110  1  0.43286426  0.34370825  0.92146614  1
  O  O111  1  0.93294958  0.36439826  0.92139888  1
  O  O112  1  0.23883752  0.13468429  0.92201447  1
  O  O113  1  0.74278499  0.14672028  0.91977553  1
  O  O114  1  0.31727111  0.13257364  0.42042381  1
  O  O115  1  0.81836867  0.13324149  0.41979892  1
  O  O116  1  0.24189556  0.33877305  0.41912105  1
  O  O117  1  0.74326078  0.34073289  0.42025759  1
  O  O118  1  0.43269083  0.52157103  0.41890215  1
  O  O119  1  0.93374368  0.52239273  0.41936126  1
  O  O120  1  0.16669345  0.47202161  0.08153819  1
  O  O121  1  0.66688107  0.47367204  0.08082943  1
  O  O122  1  0.06968708  0.66563390  0.08055904  1
  O  O123  1  0.56932120  0.66605044  0.08155759  1
  O  O124  1  0.26391363  0.86155202  0.08140508  1
  O  O125  1  0.76359040  0.85954167  0.08178451  1
  O  O126  1  0.16529449  0.85792700  0.58110717  1
  O  O127  1  0.67219602  0.86680759  0.57903676  1
  O  O128  1  0.25645140  0.65256514  0.58298682  1
  O  O129  1  0.75929102  0.65149099  0.58016658  1
  O  O130  1  0.06903337  0.47282854  0.58201458  1
  O  O131  1  0.57391311  0.48287424  0.58017886  1
  O  O132  1  0.15019889  0.84293388  0.24756418  1
  O  O133  1  0.65038426  0.84378781  0.24760522  1
  O  O134  1  0.27128828  0.69912044  0.24652097  1
  O  O135  1  0.77129533  0.69888237  0.24655814  1
  O  O136  1  0.07833096  0.45764095  0.24631378  1
  O  O137  1  0.57859657  0.45769502  0.24623114  1
  O  O138  1  0.15452116  0.46412973  0.74708564  1
  O  O139  1  0.66044344  0.47255630  0.75246848  1
  O  O140  1  0.07791315  0.69976404  0.74734496  1
  O  O141  1  0.57244308  0.67465618  0.75321020  1
  O  O142  1  0.26546461  0.83487594  0.75304001  1
  O  O143  1  0.77169188  0.84493954  0.74643503  1
loop_
_geom_bond_atom_site_label_1
_geom_bond_atom_site_label_2
_geom_bond_distance
_geom_bond_site_symmetry_2
Na0 O100 2.461638 1_555
Na0 O142 2.468551 1_555
Na0 O98 2.576584 1_555
Na0 O138 2.665934 1_555
Na0 O28 2.836078 1_555
Na0 O70 2.897595 1_555
Na0 O12 2.949258 1_555
Na0 O8 2.953467 1_555
Na1 O84 2.429286 1_555
Na1 O131 2.431147 1_555
Na1 O87 2.431279 1_555
Na1 O129 2.613140 1_555
Na1 O57 2.900079 1_555
Na1 O15 2.933219 1_555
Na2 O111 2.449823 1_555
Na2 O83 2.457230 1_555
Na2 O80 2.467170 1_655
Na2 O109 2.627424 1_555
Na2 O39 2.885399 1_556
Na2 O52 2.925523 1_655
Na2 O66 2.960859 1_655
Na2 O9 2.995041 1_555
Na3 O79 2.435572 1_555
Na3 O81 2.459331 1_545
Na3 O113 2.486255 1_555
Na3 O109 2.558748 1_555
Na3 O7 2.926113 1_555
Na3 O37 2.955434 1_556
Na3 O71 2.974459 1_555
Na3 O51 2.988599 1_555
Na4 O114 2.436615 1_555
Na4 O72 2.459611 1_545
Na4 O76 2.473497 1_555
Na4 O116 2.473906 1_555
Na4 O42 2.888801 1_555
Na4 O62 2.970110 1_545
Na4 O0 2.977642 1_555
Na4 O58 2.987681 1_545
Na5 O115 2.464574 1_555
Na5 O77 2.466265 1_555
Na5 O73 2.470688 1_545
Na5 O117 2.489762 1_555
Na5 O43 2.905942 1_555
Na5 O59 2.961961 1_545
Na5 O1 2.979732 1_555
Na5 O63 2.994400 1_545
Na6 O75 2.577542 1_545
Na6 O76 2.623371 1_655
Na6 O72 2.687289 1_645
Na6 O85 2.897651 1_555
Na6 O89 2.952155 1_545
Na6 O86 2.997261 1_655
Na7 O88 2.532817 1_555
Na7 O74 2.657861 1_555
Na7 O84 2.660794 1_565
Na7 O73 2.794569 1_555
Na7 O87 2.842727 1_565
Na7 O77 2.901229 1_565
Na8 O78 2.597551 1_555
Na8 O80 2.668064 1_545
Na8 O83 2.770450 1_445
Na8 O94 2.812851 1_556
Na8 O93 2.866658 1_456
Na8 O91 2.957174 1_446
Na9 O82 2.489009 1_555
Na9 O79 2.667183 1_565
Na9 O81 2.670590 1_555
Na9 O92 2.890106 1_566
Na9 O90 2.909893 1_556
Na9 O95 3.050381 1_566
Na10 O110 2.609175 1_555
Na10 O108 2.697553 1_555
Na10 O112 2.708871 1_555
Na10 O96 2.755814 1_555
Na10 O100 2.804801 1_555
Na11 O99 2.606867 1_555
Na11 O97 2.679124 1_555
Na11 O113 2.682680 1_555
Na11 O111 2.815806 1_555
Na11 O101 2.873068 1_555
Na11 O109 2.884826 1_555
Na12 O118 2.607835 1_555
Na12 O116 2.705412 1_555
Na12 O114 2.745407 1_555
Na12 O102 2.837672 1_555
Na12 O104 2.840813 1_555
Na12 O106 2.964153 1_555
Na13 O119 2.639641 1_555
Na13 O117 2.733088 1_555
Na13 O115 2.748945 1_555
Na13 O103 2.824596 1_555
Na13 O105 2.824851 1_555
Na13 O107 2.951348 1_555
Na14 O134 2.631406 1_555
Na14 O136 2.644440 1_555
Na14 O132 2.662550 1_555
Na14 O120 2.715839 1_555
Na14 O124 2.718140 1_555
Na14 O122 2.745714 1_555
Na15 O137 2.624994 1_555
Na15 O135 2.651836 1_555
Na15 O133 2.653135 1_555
Na15 O123 2.715400 1_555
Na15 O125 2.721938 1_555
Na15 O121 2.730737 1_555
Na16 O126 2.613192 1_555
Na16 O128 2.623971 1_555
Na16 O130 2.659176 1_555
Na16 O140 2.685010 1_555
Na16 O138 2.734326 1_555
Na16 O142 2.763993 1_555
Na17 O141 2.583720 1_555
Na17 O143 2.600241 1_555
Na17 O139 2.713795 1_555
Na17 O131 2.764148 1_555
Na17 O127 2.774724 1_555
Na17 O129 2.903933 1_555
Ca0 O3 2.243615 1_555
Ca0 O5 2.245092 1_565
Ca0 O75 2.300498 1_555
Ca0 O0 2.317708 1_665
Ca0 O76 2.333340 1_665
Ca0 O72 2.349545 1_655
Ca1 O4 2.242714 1_555
Ca1 O2 2.251282 1_545
Ca1 O74 2.299679 1_545
Ca1 O73 2.325102 1_545
Ca1 O1 2.333193 1_555
Ca1 O77 2.349706 1_555
Ca2 O11 2.243476 1_455
Ca2 O6 2.264056 1_555
Ca2 O78 2.308173 1_555
Ca2 O9 2.321582 1_445
Ca2 O80 2.328821 1_545
Ca2 O83 2.381423 1_445
Ca3 O10 2.249681 1_565
Ca3 O8 2.250992 1_555
Ca3 O7 2.312705 1_565
Ca3 O82 2.318820 1_555
Ca3 O79 2.350969 1_565
Ca3 O81 2.367471 1_555
Ca4 O17 2.244816 1_555
Ca4 O12 2.253998 1_555
Ca4 O88 2.314714 1_555
Ca4 O15 2.320058 1_565
Ca4 O84 2.353740 1_565
Ca4 O87 2.362744 1_565
Ca5 O24 2.244706 1_555
Ca5 O26 2.269148 1_555
Ca5 O28 2.322866 1_555
Ca5 O96 2.324984 1_555
Ca5 O100 2.336224 1_555
Ca5 O98 2.379983 1_555
Ca6 O27 2.254566 1_555
Ca6 O29 2.277002 1_555
Ca6 O25 2.283610 1_555
Ca6 O97 2.296424 1_555
Ca6 O99 2.304266 1_555
Ca6 O101 2.323943 1_555
Ca7 O32 2.259740 1_555
Ca7 O34 2.266200 1_555
Ca7 O30 2.270045 1_555
Ca7 O102 2.306609 1_555
Ca7 O104 2.311731 1_555
Ca7 O106 2.322819 1_555
Ca8 O33 2.268415 1_555
Ca8 O35 2.269465 1_555
Ca8 O31 2.282267 1_555
Ca8 O103 2.303139 1_555
Ca8 O105 2.311704 1_555
Ca8 O107 2.319752 1_555
Ca9 O108 2.339463 1_555
Ca9 O112 2.362684 1_555
Ca9 O110 2.365157 1_555
Ca9 O38 2.366969 1_556
Ca9 O36 2.374444 1_556
Ca9 O40 2.383558 1_556
Ca10 O41 2.282422 1_556
Ca10 O113 2.352363 1_555
Ca10 O111 2.354006 1_555
Ca10 O37 2.364993 1_556
Ca10 O39 2.390329 1_556
Ca10 O109 2.424016 1_555
Ca11 O44 2.229783 1_555
Ca11 O46 2.276715 1_555
Ca11 O118 2.355610 1_555
Ca11 O114 2.372196 1_555
Ca11 O116 2.373019 1_555
Ca11 O42 2.463300 1_555
Ca12 O119 2.306374 1_555
Ca12 O47 2.314555 1_555
Ca12 O43 2.325014 1_555
Ca12 O45 2.339538 1_555
Ca12 O115 2.366570 1_555
Ca12 O117 2.402238 1_555
Ca13 O48 2.245643 1_554
Ca13 O52 2.287004 1_554
Ca13 O50 2.293399 1_554
Ca13 O124 2.335422 1_555
Ca13 O120 2.352038 1_555
Ca13 O122 2.391678 1_555
Ca14 O51 2.265858 1_554
Ca14 O53 2.284617 1_554
Ca14 O49 2.319846 1_554
Ca14 O123 2.340586 1_555
Ca14 O125 2.352404 1_555
Ca14 O121 2.385825 1_555
Ca15 O56 2.275543 1_555
Ca15 O54 2.276394 1_555
Ca15 O58 2.299229 1_555
Ca15 O128 2.307471 1_555
Ca15 O130 2.357620 1_555
Ca15 O126 2.399727 1_555
Ca16 O55 2.241271 1_555
Ca16 O59 2.241763 1_555
Ca16 O131 2.322812 1_555
Ca16 O127 2.329084 1_555
Ca16 O57 2.334872 1_555
Ca16 O129 2.391298 1_555
Ca17 O60 2.299643 1_555
Ca17 O64 2.302548 1_555
Ca17 O62 2.303833 1_555
Ca17 O134 2.400082 1_555
Ca17 O136 2.403250 1_555
Ca17 O132 2.446298 1_555
Ca18 O61 2.293086 1_555
Ca18 O63 2.311256 1_555
Ca18 O65 2.313731 1_555
Ca18 O137 2.395829 1_555
Ca18 O135 2.405009 1_555
Ca18 O133 2.446456 1_555
Ca19 O68 2.255867 1_555
Ca19 O66 2.268163 1_555
Ca19 O142 2.306097 1_555
Ca19 O70 2.324518 1_555
Ca19 O140 2.431799 1_555
Ca19 O138 2.458947 1_555
Ca20 O67 2.292386 1_555
Ca20 O69 2.308158 1_555
Ca20 O141 2.321945 1_555
Ca20 O139 2.325986 1_555
Ca20 O71 2.329161 1_555
Ca20 O143 2.448155 1_555
O0 S0 1.472554 1_545
O1 S1 1.473313 1_555
O2 S2 1.463136 1_555
O3 S3 1.463814 1_555
O4 S5 1.462437 1_555
O5 S4 1.463368 1_655
O6 S6 1.461089 1_555
O7 S7 1.487373 1_555
O8 S9 1.479535 1_555
O9 S8 1.474295 1_655
O10 S10 1.474184 1_545
O11 S11 1.464085 1_545
O12 S10 1.481299 1_555
O13 S11 1.531901 1_555
O13 Zr0 2.090628 1_665
O14 S6 1.524931 1_555
O14 Zr0 2.112632 1_555
O15 S7 1.488286 1_555
O16 S8 1.536673 1_555
O16 Zr0 2.094763 1_565
O17 S9 1.475606 1_555
O18 S2 1.532286 1_555
O18 Zr2 2.093460 1_555
O19 S3 1.531099 1_555
O19 Zr1 2.095492 1_665
O20 S4 1.532805 1_555
O20 Zr1 2.092319 1_555
O21 S5 1.530897 1_555
O21 Zr2 2.094393 1_545
O22 S0 1.537045 1_555
O22 Zr1 2.089477 1_565
O23 S1 1.534209 1_565
O23 Zr2 2.106357 1_555
O24 S12 1.469382 1_555
O25 S13 1.461471 1_555
O26 S14 1.462677 1_555
O27 S15 1.474855 1_555
O28 S16 1.490518 1_555
O29 S17 1.466851 1_555
O30 S18 1.463641 1_555
O31 S19 1.462068 1_555
O32 S20 1.464119 1_555
O33 S21 1.460900 1_555
O34 S22 1.463666 1_555
O35 S23 1.462202 1_555
O36 S22 1.469114 1_555
O37 S23 1.485532 1_555
O38 S18 1.469911 1_555
O39 S19 1.486739 1_555
O40 S20 1.469250 1_555
O41 S21 1.476595 1_555
O42 S14 1.477334 1_555
O43 S15 1.496944 1_555
O44 S16 1.478324 1_555
O45 S17 1.470146 1_555
O46 S12 1.471735 1_555
O47 S13 1.471690 1_555
O48 S24 1.477287 1_555
O49 S25 1.470269 1_555
O50 S26 1.471694 1_555
O51 S27 1.484709 1_555
O52 S28 1.481538 1_555
O53 S29 1.471510 1_555
O54 S30 1.476019 1_555
O55 S31 1.475682 1_555
O56 S32 1.468419 1_555
O57 S33 1.484395 1_555
O58 S34 1.480383 1_555
O59 S35 1.482676 1_555
O60 S34 1.477323 1_555
O61 S35 1.478025 1_555
O62 S30 1.484943 1_555
O63 S31 1.482302 1_555
O64 S32 1.473101 1_555
O65 S33 1.472239 1_555
O66 S26 1.484564 1_555
O67 S27 1.477171 1_555
O68 S28 1.479605 1_555
O69 S29 1.471422 1_555
O70 S24 1.495357 1_555
O71 S25 1.475802 1_555
O72 S34 1.507733 1_555
O73 S35 1.504102 1_555
O74 S30 1.483067 1_555
O75 S31 1.484251 1_555
O76 S32 1.509089 1_555
O77 S33 1.501707 1_555
O78 S26 1.484729 1_555
O79 S27 1.507668 1_555
O80 S28 1.512642 1_555
O81 S29 1.502440 1_555
O82 S24 1.493645 1_555
O83 S25 1.499134 1_555
O84 S12 1.501395 1_555
O85 S13 1.544514 1_555
O85 Zr0 2.105991 1_655
O86 S14 1.546168 1_555
O86 Zr0 2.112985 1_555
O87 S15 1.500016 1_555
O88 S16 1.490779 1_555
O89 S17 1.526912 1_555
O89 Zr0 2.152386 1_665
O90 S18 1.541696 1_555
O90 Zr2 2.114926 1_555
O91 S19 1.536234 1_555
O91 Zr1 2.135404 1_665
O92 S20 1.542374 1_555
O92 Zr2 2.121082 1_545
O93 S21 1.534415 1_555
O93 Zr1 2.125433 1_655
O94 S22 1.545513 1_555
O94 Zr1 2.118732 1_555
O95 S23 1.532660 1_555
O95 Zr2 2.134058 1_545
O96 S10 1.479624 1_545
O97 S11 1.474732 1_545
O98 S6 1.478888 1_555
O99 S7 1.495932 1_555
O100 S9 1.506173 1_555
O101 S8 1.469812 1_655
O102 S2 1.472594 1_555
O103 S3 1.472514 1_555
O104 S5 1.472648 1_555
O105 S4 1.472751 1_655
O106 S0 1.471297 1_545
O107 S1 1.473433 1_555
O108 S24 1.490978 1_555
O109 S25 1.514587 1_555
O110 S27 1.483117 1_555
O111 S26 1.508194 1_655
O112 S28 1.477810 1_545
O113 S29 1.512602 1_545
O114 S30 1.507032 1_545
O115 S31 1.505787 1_545
O116 S32 1.505390 1_555
O117 S33 1.505419 1_555
O118 S35 1.483879 1_555
O119 S34 1.486320 1_655
O120 S22 1.477667 1_555
O121 S23 1.475345 1_555
O122 S19 1.474420 1_455
O123 S18 1.478967 1_555
O124 S20 1.479218 1_565
O125 S21 1.475109 1_565
O126 S14 1.475607 1_565
O127 S15 1.479197 1_565
O128 S16 1.490496 1_555
O129 S17 1.485623 1_555
O130 S13 1.473366 1_455
O131 S12 1.505167 1_555
O132 S0 1.477244 1_555
O133 S1 1.479526 1_565
O134 S2 1.479707 1_555
O135 S3 1.478718 1_555
O136 S4 1.478386 1_555
O137 S5 1.479876 1_555
O138 S6 1.488537 1_555
O139 S7 1.488207 1_555
O140 S8 1.476427 1_555
O141 S9 1.481974 1_555
O142 S10 1.508420 1_555
O143 S11 1.474679 1_555
