# generated using pymatgen
data_BaDyFe2O5
_symmetry_space_group_name_H-M   'P 1'
_cell_length_a   3.97871100
_cell_length_b   7.73136200
_cell_length_c   7.94089300
_cell_angle_alpha   90.00000000
_cell_angle_beta   90.00000000
_cell_angle_gamma   90.00000000
_symmetry_Int_Tables_number   1
_chemical_formula_structural   BaDyFe2O5
_chemical_formula_sum   'Ba2 Dy2 Fe4 O10'
_cell_volume   244.26865842
_cell_formula_units_Z   2
loop_
 _symmetry_equiv_pos_site_id
 _symmetry_equiv_pos_as_xyz
  1  'x, y, z'
loop_
 _atom_site_type_symbol
 _atom_site_label
 _atom_site_symmetry_multiplicity
 _atom_site_fract_x
 _atom_site_fract_y
 _atom_site_fract_z
 _atom_site_occupancy
  Ba  Ba0  1  0.00000000  0.00000000  0.50000000  1
  Ba  Ba1  1  0.00000000  0.00000000  0.00000000  1
  Dy  Dy0  1  0.00000000  0.50000000  0.50000000  1
  Dy  Dy1  1  0.00000000  0.50000000  0.00000000  1
  Fe  Fe0  1  0.50000000  0.73685000  0.25000000  1
  Fe  Fe1  1  0.50000000  0.26315000  0.75000000  1
  Fe  Fe2  1  0.50000000  0.72231100  0.75000000  1
  Fe  Fe3  1  0.50000000  0.27768900  0.25000000  1
  O  O0  1  0.50000000  0.68268400  0.49425800  1
  O  O1  1  0.50000000  0.31731600  0.50574200  1
  O  O2  1  0.50000000  0.68268400  0.00574200  1
  O  O3  1  0.50000000  0.31731600  0.99425800  1
  O  O4  1  0.00000000  0.68318900  0.75000000  1
  O  O5  1  0.00000000  0.31681100  0.25000000  1
  O  O6  1  0.00000000  0.68362700  0.25000000  1
  O  O7  1  0.00000000  0.31637300  0.75000000  1
  O  O8  1  0.50000000  0.98607700  0.25000000  1
  O  O9  1  0.50000000  0.01392300  0.75000000  1
loop_
_geom_bond_atom_site_label_1
_geom_bond_atom_site_label_2
_geom_bond_distance
_geom_bond_site_symmetry_2
Ba0 O8 2.812514 1_545
Ba0 O9 2.812514 1_455
Ba0 O8 2.812514 1_445
Ba0 O9 2.812514 1_555
Ba0 O7 3.150238 1_555
Ba0 O6 3.150238 1_545
Ba0 O5 3.152868 1_555
Ba0 O4 3.152868 1_545
Ba0 O0 3.158832 1_545
Ba0 O0 3.158832 1_445
Ba0 O1 3.158832 1_555
Ba0 O1 3.158832 1_455
Ba1 O8 2.812514 1_545
Ba1 O9 2.812514 1_554
Ba1 O8 2.812514 1_445
Ba1 O9 2.812514 1_454
Ba1 O7 3.150238 1_554
Ba1 O6 3.150238 1_545
Ba1 O5 3.152868 1_555
Ba1 O4 3.152868 1_544
Ba1 O3 3.158832 1_454
Ba1 O3 3.158832 1_554
Ba1 O2 3.158832 1_545
Ba1 O2 3.158832 1_445
Dy0 O4 2.438651 1_555
Dy0 O5 2.438651 1_555
Dy0 O0 2.440180 1_455
Dy0 O0 2.440180 1_555
Dy0 O1 2.440180 1_555
Dy0 O1 2.440180 1_455
Dy0 O6 2.440619 1_555
Dy0 O7 2.440619 1_555
Dy1 O4 2.438651 1_554
Dy1 O5 2.438651 1_555
Dy1 O2 2.440180 1_455
Dy1 O2 2.440180 1_555
Dy1 O3 2.440180 1_454
Dy1 O3 2.440180 1_554
Dy1 O6 2.440619 1_555
Dy1 O7 2.440619 1_554
Fe0 O8 1.926864 1_555
Fe0 O0 1.984320 1_555
Fe0 O2 1.984320 1_555
Fe0 O6 2.031467 1_555
Fe0 O6 2.031467 1_655
Fe1 O9 1.926864 1_555
Fe1 O1 1.984320 1_555
Fe1 O3 1.984320 1_555
Fe1 O7 2.031467 1_555
Fe1 O7 2.031467 1_655
Fe2 O4 2.012218 1_655
Fe2 O4 2.012218 1_555
Fe2 O2 2.053799 1_556
Fe2 O0 2.053799 1_555
Fe2 O9 2.254558 1_565
Fe3 O5 2.012218 1_655
Fe3 O5 2.012218 1_555
Fe3 O3 2.053799 1_554
Fe3 O1 2.053799 1_555
Fe3 O8 2.254558 1_545
