# generated using pymatgen
data_Ba2Mg(NiO3)2
_symmetry_space_group_name_H-M   'P 1'
_cell_length_a   5.98240234
_cell_length_b   5.49871294
_cell_length_c   5.49397610
_cell_angle_alpha   89.99999918
_cell_angle_beta   102.64226443
_cell_angle_gamma   117.35962412
_symmetry_Int_Tables_number   1
_chemical_formula_structural   Ba2Mg(NiO3)2
_chemical_formula_sum   'Ba2 Mg1 Ni2 O6'
_cell_volume   155.56091646
_cell_formula_units_Z   1
loop_
 _symmetry_equiv_pos_site_id
 _symmetry_equiv_pos_as_xyz
  1  'x, y, z'
loop_
 _atom_site_type_symbol
 _atom_site_label
 _atom_site_symmetry_multiplicity
 _atom_site_fract_x
 _atom_site_fract_y
 _atom_site_fract_z
 _atom_site_occupancy
  Ba  Ba0  1  0.59812357  0.29906228  0.73705078  1
  Ba  Ba1  1  0.44143045  0.72071473  0.12843555  1
  Mg  Mg0  1  0.12942877  0.56471388  0.54192405  1
  Ni  Ni0  1  0.94646406  0.97323203  0.54747013  1
  Ni  Ni1  1  0.06795448  0.03397724  0.06937622  1
  O  O0  1  0.94667426  0.20536438  0.29463906  1
  O  O1  1  0.52898376  0.76449238  0.62067717  1
  O  O2  1  0.06196883  0.27188421  0.78972274  1
  O  O3  1  0.94667326  0.74130888  0.29463906  1
  O  O4  1  0.06196883  0.79008462  0.78972274  1
  O  O5  1  0.43699573  0.21849837  0.21634351  1
loop_
_geom_bond_atom_site_label_1
_geom_bond_atom_site_label_2
_geom_bond_distance
_geom_bond_site_symmetry_2
Ba0 O5 2.776646 1_555
Ba0 O4 2.799259 1_655
Ba0 O2 2.799262 1_655
Ba0 O1 2.826115 1_545
Ba0 O1 2.826115 1_555
Ba0 O5 2.962741 1_556
Ba1 O1 2.628678 1_555
Ba1 O2 2.776412 1_554
Ba1 O4 2.776415 1_554
Ba1 O5 2.792552 1_555
Ba1 O5 2.792563 1_565
Ba1 O3 2.908574 1_555
Ba1 O0 2.908579 1_565
Ba1 O1 2.939033 1_554
Mg0 O1 2.059438 1_555
Mg0 O2 2.062084 1_555
Mg0 O4 2.062088 1_555
Mg0 O0 2.075966 1_455
Mg0 O3 2.075969 1_455
Ni0 O2 1.870858 1_665
Ni0 O4 1.870858 1_655
Ni0 O0 1.886270 1_565
Ni0 O3 1.886271 1_555
Ni0 O1 2.349828 1_555
Ni1 O5 1.927787 1_555
Ni1 O0 1.991910 1_455
Ni1 O3 1.991914 1_445
Ni1 O2 2.022907 1_554
Ni1 O4 2.022907 1_544
