# generated using pymatgen
data_MgTiNbO4
_symmetry_space_group_name_H-M   'P 1'
_cell_length_a   5.16685030
_cell_length_b   5.15838847
_cell_length_c   5.15839016
_cell_angle_alpha   131.88221128
_cell_angle_beta   131.94729411
_cell_angle_gamma   70.33059738
_symmetry_Int_Tables_number   1
_chemical_formula_structural   MgTiNbO4
_chemical_formula_sum   'Mg1 Ti1 Nb1 O4'
_cell_volume   74.62333103
_cell_formula_units_Z   1
loop_
 _symmetry_equiv_pos_site_id
 _symmetry_equiv_pos_as_xyz
  1  'x, y, z'
loop_
 _atom_site_type_symbol
 _atom_site_label
 _atom_site_symmetry_multiplicity
 _atom_site_fract_x
 _atom_site_fract_y
 _atom_site_fract_z
 _atom_site_occupancy
  Mg  Mg0  1  0.49058500  0.49146900  0.99911600  1
  Ti  Ti0  1  0.74289800  0.24143900  0.50145900  1
  Nb  Nb0  1  0.99071600  0.99150900  0.99920700  1
  O  O0  1  0.49016600  0.99100500  0.49916100  1
  O  O1  1  0.25029700  0.24943400  0.00086400  1
  O  O2  1  0.99136800  0.49202600  0.49934200  1
  O  O3  1  0.73444500  0.73359300  0.00085200  1
loop_
_geom_bond_atom_site_label_1
_geom_bond_atom_site_label_2
_geom_bond_distance
_geom_bond_site_symmetry_2
Mg0 O1 2.042973 1_556
Mg0 O3 2.043756 1_556
Mg0 O2 2.101043 1_455
Mg0 O0 2.102952 1_545
Mg0 O0 2.102952 1_556
Mg0 O2 2.102966 1_556
Nb0 O0 2.101800 1_656
Nb0 O0 2.102208 1_555
Nb0 O2 2.102953 1_566
Nb0 O2 2.102953 1_555
Nb0 O3 2.177017 1_556
Nb0 O1 2.177123 1_666
O0 Ti0 2.113914 1_565
O1 Ti0 2.100746 1_454
O1 Ti0 2.105418 1_555
O2 Ti0 2.115157 1_555
O3 Ti0 2.103993 1_565
O3 Ti0 2.103993 1_554
