# generated using pymatgen
data_Hg4As2I3
_symmetry_space_group_name_H-M   'P 1'
_cell_length_a   13.39567000
_cell_length_b   13.39567000
_cell_length_c   13.39567000
_cell_angle_alpha   90.00000000
_cell_angle_beta   90.00000000
_cell_angle_gamma   90.00000000
_symmetry_Int_Tables_number   1
_chemical_formula_structural   Hg4As2I3
_chemical_formula_sum   'Hg32 As16 I24'
_cell_volume   2403.77226922
_cell_formula_units_Z   8
loop_
 _symmetry_equiv_pos_site_id
 _symmetry_equiv_pos_as_xyz
  1  'x, y, z'
loop_
 _atom_site_type_symbol
 _atom_site_label
 _atom_site_symmetry_multiplicity
 _atom_site_fract_x
 _atom_site_fract_y
 _atom_site_fract_z
 _atom_site_occupancy
  Hg  Hg0  1  0.22503500  0.22503500  0.22503500  1
  Hg  Hg1  1  0.27496500  0.77496500  0.72503500  1
  Hg  Hg2  1  0.72503500  0.27496500  0.77496500  1
  Hg  Hg3  1  0.77496500  0.72503500  0.27496500  1
  Hg  Hg4  1  0.77496500  0.77496500  0.77496500  1
  Hg  Hg5  1  0.72503500  0.22503500  0.27496500  1
  Hg  Hg6  1  0.27496500  0.72503500  0.22503500  1
  Hg  Hg7  1  0.22503500  0.27496500  0.72503500  1
  Hg  Hg8  1  0.03934800  0.01262400  0.26257600  1
  Hg  Hg9  1  0.26257600  0.03934800  0.01262400  1
  Hg  Hg10  1  0.01262400  0.26257600  0.03934800  1
  Hg  Hg11  1  0.48737600  0.73742400  0.53934800  1
  Hg  Hg12  1  0.76257600  0.46065200  0.98737600  1
  Hg  Hg13  1  0.98737600  0.76257600  0.46065200  1
  Hg  Hg14  1  0.23742400  0.96065200  0.51262400  1
  Hg  Hg15  1  0.73742400  0.53934800  0.48737600  1
  Hg  Hg16  1  0.51262400  0.23742400  0.96065200  1
  Hg  Hg17  1  0.53934800  0.48737600  0.73742400  1
  Hg  Hg18  1  0.96065200  0.51262400  0.23742400  1
  Hg  Hg19  1  0.46065200  0.98737600  0.76257600  1
  Hg  Hg20  1  0.96065200  0.98737600  0.73742400  1
  Hg  Hg21  1  0.73742400  0.96065200  0.98737600  1
  Hg  Hg22  1  0.98737600  0.73742400  0.96065200  1
  Hg  Hg23  1  0.51262400  0.26257600  0.46065200  1
  Hg  Hg24  1  0.23742400  0.53934800  0.01262400  1
  Hg  Hg25  1  0.01262400  0.23742400  0.53934800  1
  Hg  Hg26  1  0.76257600  0.03934800  0.48737600  1
  Hg  Hg27  1  0.26257600  0.46065200  0.51262400  1
  Hg  Hg28  1  0.48737600  0.76257600  0.03934800  1
  Hg  Hg29  1  0.46065200  0.51262400  0.26257600  1
  Hg  Hg30  1  0.03934800  0.48737600  0.76257600  1
  Hg  Hg31  1  0.53934800  0.01262400  0.23742400  1
  As  As0  1  0.11345500  0.11345500  0.11345500  1
  As  As1  1  0.38654500  0.88654500  0.61345500  1
  As  As2  1  0.61345500  0.38654500  0.88654500  1
  As  As3  1  0.88654500  0.61345500  0.38654500  1
  As  As4  1  0.88654500  0.88654500  0.88654500  1
  As  As5  1  0.61345500  0.11345500  0.38654500  1
  As  As6  1  0.38654500  0.61345500  0.11345500  1
  As  As7  1  0.11345500  0.38654500  0.61345500  1
  As  As8  1  0.44687800  0.44687800  0.44687800  1
  As  As9  1  0.05312200  0.55312200  0.94687800  1
  As  As10  1  0.94687800  0.05312200  0.55312200  1
  As  As11  1  0.55312200  0.94687800  0.05312200  1
  As  As12  1  0.55312200  0.55312200  0.55312200  1
  As  As13  1  0.94687800  0.44687800  0.05312200  1
  As  As14  1  0.05312200  0.94687800  0.44687800  1
  As  As15  1  0.44687800  0.05312200  0.94687800  1
  I  I0  1  0.18640900  0.44174800  0.25946400  1
  I  I1  1  0.25946400  0.18640900  0.44174800  1
  I  I2  1  0.44174800  0.25946400  0.18640900  1
  I  I3  1  0.05825200  0.74053600  0.68640900  1
  I  I4  1  0.75946400  0.31359100  0.55825200  1
  I  I5  1  0.55825200  0.75946400  0.31359100  1
  I  I6  1  0.24053600  0.81359100  0.94174800  1
  I  I7  1  0.74053600  0.68640900  0.05825200  1
  I  I8  1  0.94174800  0.24053600  0.81359100  1
  I  I9  1  0.68640900  0.05825200  0.74053600  1
  I  I10  1  0.81359100  0.94174800  0.24053600  1
  I  I11  1  0.31359100  0.55825200  0.75946400  1
  I  I12  1  0.81359100  0.55825200  0.74053600  1
  I  I13  1  0.74053600  0.81359100  0.55825200  1
  I  I14  1  0.55825200  0.74053600  0.81359100  1
  I  I15  1  0.94174800  0.25946400  0.31359100  1
  I  I16  1  0.24053600  0.68640900  0.44174800  1
  I  I17  1  0.44174800  0.24053600  0.68640900  1
  I  I18  1  0.75946400  0.18640900  0.05825200  1
  I  I19  1  0.25946400  0.31359100  0.94174800  1
  I  I20  1  0.05825200  0.75946400  0.18640900  1
  I  I21  1  0.31359100  0.94174800  0.25946400  1
  I  I22  1  0.18640900  0.05825200  0.75946400  1
  I  I23  1  0.68640900  0.44174800  0.24053600  1
loop_
_geom_bond_atom_site_label_1
_geom_bond_atom_site_label_2
_geom_bond_distance
_geom_bond_site_symmetry_2
Hg0 I0 2.984616 1_555
Hg0 I2 2.984616 1_555
Hg0 I1 2.984616 1_555
Hg1 I6 2.984616 1_555
Hg1 I11 2.984616 1_555
Hg1 I3 2.984616 1_555
Hg2 I8 2.984616 1_555
Hg2 I4 2.984616 1_555
Hg2 I9 2.984616 1_555
Hg3 I10 2.984616 1_555
Hg3 I5 2.984616 1_555
Hg3 I7 2.984616 1_555
Hg4 I14 2.984616 1_555
Hg4 I12 2.984616 1_555
Hg4 I13 2.984616 1_555
Hg5 I15 2.984616 1_555
Hg5 I18 2.984616 1_555
Hg5 I23 2.984616 1_555
Hg6 I21 2.984616 1_555
Hg6 I20 2.984616 1_555
Hg6 I16 2.984616 1_555
Hg7 I19 2.984616 1_555
Hg7 I22 2.984616 1_555
Hg7 I17 2.984616 1_555
Hg8 I10 3.183421 1_445
Hg9 I6 3.183421 1_544
Hg10 I8 3.183421 1_454
Hg11 I5 3.183421 1_555
Hg12 I7 3.183421 1_556
Hg13 I3 3.183421 1_655
Hg14 I1 3.183421 1_565
Hg15 I4 3.183421 1_555
Hg16 I2 3.183421 1_556
Hg17 I11 3.183421 1_555
Hg18 I0 3.183421 1_655
Hg19 I9 3.183421 1_565
Hg20 I22 3.183421 1_665
Hg21 I18 3.183421 1_566
Hg22 I20 3.183421 1_656
Hg23 I17 3.183421 1_555
Hg24 I19 3.183421 1_554
Hg25 I15 3.183421 1_455
Hg26 I13 3.183421 1_545
Hg27 I16 3.183421 1_555
Hg28 I14 3.183421 1_554
Hg29 I23 3.183421 1_555
Hg30 I12 3.183421 1_455
Hg31 I21 3.183421 1_545
As0 Hg0 2.588877 1_555
As0 Hg10 2.607714 1_555
As0 Hg9 2.607714 1_555
As0 Hg8 2.607714 1_555
As1 Hg1 2.588877 1_555
As1 Hg19 2.607714 1_555
As1 Hg14 2.607714 1_555
As1 Hg11 2.607714 1_555
As2 Hg2 2.588877 1_555
As2 Hg16 2.607714 1_555
As2 Hg12 2.607714 1_555
As2 Hg17 2.607714 1_555
As3 Hg3 2.588877 1_555
As3 Hg18 2.607714 1_555
As3 Hg13 2.607714 1_555
As3 Hg15 2.607714 1_555
As4 Hg4 2.588877 1_555
As4 Hg20 2.607714 1_555
As4 Hg21 2.607714 1_555
As4 Hg22 2.607714 1_555
As5 Hg5 2.588877 1_555
As5 Hg31 2.607714 1_555
As5 Hg26 2.607714 1_555
As5 Hg23 2.607714 1_555
As6 Hg6 2.588877 1_555
As6 Hg24 2.607714 1_555
As6 Hg28 2.607714 1_555
As6 Hg29 2.607714 1_555
As7 Hg7 2.588877 1_555
As7 Hg25 2.607714 1_555
As7 Hg30 2.607714 1_555
As7 Hg27 2.607714 1_555
As8 Hg23 2.627720 1_555
As8 Hg27 2.627720 1_555
As8 Hg29 2.627720 1_555
As9 Hg22 2.627720 1_455
As9 Hg30 2.627720 1_555
As9 Hg24 2.627720 1_556
As10 As14 2.465071 1_645
As10 Hg20 2.627720 1_545
As10 Hg26 2.627720 1_555
As10 Hg25 2.627720 1_655
As11 As15 2.465071 1_564
As11 Hg21 2.627720 1_554
As11 Hg28 2.627720 1_555
As11 Hg31 2.627720 1_565
As12 As8 2.465071 1_555
As12 Hg15 2.627720 1_555
As12 Hg11 2.627720 1_555
As12 Hg17 2.627720 1_555
As13 As9 2.465071 1_654
As13 Hg10 2.627720 1_655
As13 Hg12 2.627720 1_554
As13 Hg18 2.627720 1_555
As14 Hg8 2.627720 1_565
As14 Hg13 2.627720 1_455
As14 Hg14 2.627720 1_555
As15 Hg9 2.627720 1_556
As15 Hg19 2.627720 1_545
As15 Hg16 2.627720 1_555
