# generated using pymatgen
data_CsNbO3
_symmetry_space_group_name_H-M   'P 1'
_cell_length_a   16.04611897
_cell_length_b   5.16960048
_cell_length_c   9.29149747
_cell_angle_alpha   86.83904432
_cell_angle_beta   90.00000000
_cell_angle_gamma   90.00000000
_symmetry_Int_Tables_number   1
_chemical_formula_structural   CsNbO3
_chemical_formula_sum   'Cs8 Nb8 O24'
_cell_volume   769.57588578
_cell_formula_units_Z   8
loop_
 _symmetry_equiv_pos_site_id
 _symmetry_equiv_pos_as_xyz
  1  'x, y, z'
loop_
 _atom_site_type_symbol
 _atom_site_label
 _atom_site_symmetry_multiplicity
 _atom_site_fract_x
 _atom_site_fract_y
 _atom_site_fract_z
 _atom_site_occupancy
  Cs  Cs0  1  0.39306039  0.11645870  0.01193983  1
  Cs  Cs1  1  0.89306039  0.88354130  0.48806017  1
  Cs  Cs2  1  0.60693961  0.88354130  0.98806017  1
  Cs  Cs3  1  0.10693961  0.11645870  0.51193983  1
  Cs  Cs4  1  0.24229293  0.59705965  0.79441718  1
  Cs  Cs5  1  0.74229293  0.40294035  0.70558282  1
  Cs  Cs6  1  0.75770707  0.40294035  0.20558282  1
  Cs  Cs7  1  0.25770707  0.59705965  0.29441718  1
  Nb  Nb0  1  0.50225256  0.52834039  0.68572374  1
  Nb  Nb1  1  0.00225256  0.47165961  0.81427626  1
  Nb  Nb2  1  0.49774744  0.47165961  0.31427626  1
  Nb  Nb3  1  0.99774744  0.52834039  0.18572374  1
  Nb  Nb4  1  0.39514459  0.03884535  0.55350354  1
  Nb  Nb5  1  0.89514459  0.96115465  0.94649646  1
  Nb  Nb6  1  0.60485541  0.96115465  0.44649646  1
  Nb  Nb7  1  0.10485541  0.03884535  0.05350354  1
  O  O0  1  0.39888718  0.25096046  0.36917859  1
  O  O1  1  0.89888718  0.74903954  0.13082141  1
  O  O2  1  0.60111282  0.74903954  0.63082141  1
  O  O3  1  0.10111282  0.25096046  0.86917859  1
  O  O4  1  0.28717456  0.93792802  0.54452366  1
  O  O5  1  0.78717456  0.06207198  0.95547634  1
  O  O6  1  0.71282544  0.06207198  0.45547634  1
  O  O7  1  0.21282544  0.93792802  0.04452366  1
  O  O8  1  0.43514332  0.82315364  0.73582129  1
  O  O9  1  0.93514332  0.17684636  0.76417871  1
  O  O10  1  0.56485668  0.17684636  0.26417871  1
  O  O11  1  0.06485668  0.82315364  0.23582129  1
  O  O12  1  0.46456588  0.74921083  0.46004623  1
  O  O13  1  0.96456588  0.25078917  0.03995377  1
  O  O14  1  0.53543412  0.25078917  0.53995377  1
  O  O15  1  0.03543412  0.74921083  0.96004623  1
  O  O16  1  0.10878513  0.32933570  0.17560794  1
  O  O17  1  0.60878513  0.67066430  0.32439206  1
  O  O18  1  0.89121487  0.67066430  0.82439206  1
  O  O19  1  0.39121487  0.32933570  0.67560794  1
  O  O20  1  0.95417375  0.39125972  0.35233296  1
  O  O21  1  0.45417375  0.60874028  0.14766704  1
  O  O22  1  0.04582625  0.60874028  0.64766704  1
  O  O23  1  0.54582625  0.39125972  0.85233296  1
loop_
_geom_bond_atom_site_label_1
_geom_bond_atom_site_label_2
_geom_bond_distance
_geom_bond_site_symmetry_2
Cs0 O21 3.012649 1_545
Cs0 O7 3.045772 1_545
Cs0 O21 3.063084 1_555
Cs0 O8 3.125082 1_544
Cs0 O23 3.161316 1_554
Cs0 O19 3.255531 1_554
Cs0 O0 3.429924 1_555
Cs0 O10 3.642823 1_555
Cs1 O20 3.012649 1_565
Cs1 O6 3.045772 1_565
Cs1 O20 3.063084 1_555
Cs1 O9 3.125082 1_565
Cs1 O22 3.161316 1_655
Cs1 O18 3.255531 1_555
Cs1 O1 3.429924 1_555
Cs1 O11 3.642823 1_655
Cs2 O23 3.012649 1_565
Cs2 O5 3.045772 1_565
Cs2 O23 3.063084 1_555
Cs2 O10 3.125082 1_566
Cs2 O21 3.161316 1_556
Cs2 O17 3.255531 1_556
Cs2 O2 3.429924 1_555
Cs2 O8 3.642823 1_555
Cs3 O22 3.012649 1_545
Cs3 O4 3.045772 1_545
Cs3 O22 3.063084 1_555
Cs3 O11 3.125082 1_545
Cs3 O20 3.161316 1_455
Cs3 O16 3.255531 1_555
Cs3 O3 3.429924 1_555
Cs3 O9 3.642823 1_455
Cs4 O4 2.926391 1_555
Cs4 O3 2.945962 1_555
Cs4 O19 3.002155 1_555
Cs4 O7 3.029969 1_556
Cs4 O8 3.341901 1_555
Cs4 O22 3.433978 1_555
Cs5 O5 2.926391 1_555
Cs5 O2 2.945962 1_555
Cs5 O18 3.002155 1_555
Cs5 O6 3.029969 1_555
Cs5 O9 3.341901 1_555
Cs5 O23 3.433978 1_555
Cs6 O6 2.926391 1_555
Cs6 O1 2.945962 1_555
Cs6 O17 3.002155 1_555
Cs6 O5 3.029969 1_554
Cs6 O10 3.341901 1_555
Cs6 O20 3.433978 1_555
Cs7 O7 2.926391 1_555
Cs7 O0 2.945962 1_555
Cs7 O16 3.002155 1_555
Cs7 O4 3.029969 1_555
Cs7 O11 3.341901 1_555
Cs7 O21 3.433978 1_555
Nb0 O23 1.807353 1_555
Nb0 O8 1.943522 1_555
Nb0 O2 2.003541 1_555
Nb0 O19 2.062139 1_555
Nb0 O14 2.095471 1_555
Nb0 O12 2.408796 1_555
Nb1 O22 1.807353 1_555
Nb1 O9 1.943522 1_455
Nb1 O3 2.003541 1_555
Nb1 O18 2.062139 1_455
Nb1 O15 2.095471 1_555
Nb1 O13 2.408796 1_456
Nb2 O21 1.807353 1_555
Nb2 O10 1.943522 1_555
Nb2 O0 2.003541 1_555
Nb2 O17 2.062139 1_555
Nb2 O12 2.095471 1_555
Nb2 O14 2.408796 1_555
Nb3 O20 1.807353 1_555
Nb3 O11 1.943522 1_655
Nb3 O1 2.003541 1_555
Nb3 O16 2.062139 1_655
Nb3 O13 2.095471 1_555
Nb3 O15 2.408796 1_654
Nb4 O4 1.812592 1_545
Nb4 O19 1.932406 1_555
Nb4 O0 1.982953 1_555
Nb4 O8 2.077642 1_545
Nb4 O12 2.092891 1_545
Nb4 O14 2.503714 1_555
Nb5 O5 1.812592 1_565
Nb5 O18 1.932406 1_555
Nb5 O1 1.982953 1_556
Nb5 O9 2.077642 1_565
Nb5 O13 2.092891 1_566
Nb5 O15 2.503714 1_655
Nb6 O6 1.812592 1_565
Nb6 O17 1.932406 1_555
Nb6 O2 1.982953 1_555
Nb6 O10 2.077642 1_565
Nb6 O14 2.092891 1_565
Nb6 O12 2.503714 1_555
Nb7 O7 1.812592 1_545
Nb7 O16 1.932406 1_555
Nb7 O3 1.982953 1_554
Nb7 O11 2.077642 1_545
Nb7 O15 2.092891 1_544
Nb7 O13 2.503714 1_455
