# generated using pymatgen
data_MgFe4(TeO6)2
_symmetry_space_group_name_H-M   'P 1'
_cell_length_a   5.30704482
_cell_length_b   5.30459529
_cell_length_c   9.00799271
_cell_angle_alpha   89.99747316
_cell_angle_beta   89.99723208
_cell_angle_gamma   76.35087886
_symmetry_Int_Tables_number   1
_chemical_formula_structural   MgFe4(TeO6)2
_chemical_formula_sum   'Mg1 Fe4 Te2 O12'
_cell_volume   246.42889480
_cell_formula_units_Z   1
loop_
 _symmetry_equiv_pos_site_id
 _symmetry_equiv_pos_as_xyz
  1  'x, y, z'
loop_
 _atom_site_type_symbol
 _atom_site_label
 _atom_site_symmetry_multiplicity
 _atom_site_fract_x
 _atom_site_fract_y
 _atom_site_fract_z
 _atom_site_occupancy
  Mg  Mg0  1  0.81031249  0.81117794  0.50000412  1
  Fe  Fe0  1  0.08952856  0.08986331  0.31644853  1
  Fe  Fe1  1  0.49594419  0.49683096  0.84124854  1
  Fe  Fe2  1  0.08954971  0.08987112  0.68355645  1
  Fe  Fe3  1  0.49597649  0.49686878  0.15872398  1
  Te  Te0  1  0.92699984  0.92827590  -0.00001141  1
  Te  Te1  1  0.47393066  0.47444251  0.50002632  1
  O  O0  1  0.63998043  0.64120310  0.65209673  1
  O  O1  1  0.32565716  0.32550116  0.66316708  1
  O  O2  1  0.63999927  0.64122218  0.34787881  1
  O  O3  1  0.17922235  0.80391965  0.15616174  1
  O  O4  1  0.80401498  0.18109916  0.15611838  1
  O  O5  1  0.80401110  0.18107678  0.84388407  1
  O  O6  1  0.35293874  0.35263109  0.00001524  1
  O  O7  1  0.18330907  0.79111027  0.49999855  1
  O  O8  1  0.79098624  0.18426553  0.49999680  1
  O  O9  1  0.17920815  0.80391561  0.84384233  1
  O  O10  1  0.32563498  0.32548325  0.33682266  1
  O  O11  1  0.69834861  0.70067973  0.00001807  1
loop_
_geom_bond_atom_site_label_1
_geom_bond_atom_site_label_2
_geom_bond_distance
_geom_bond_site_symmetry_2
Mg0 O7 1.957126 1_655
Mg0 O8 1.957415 1_565
Mg0 O0 1.972710 1_555
Mg0 O2 1.972916 1_555
Fe0 O10 1.976134 1_555
Fe0 O4 2.066417 1_455
Fe0 O3 2.066742 1_545
Fe0 O8 2.262770 1_455
Fe0 O7 2.262868 1_545
Fe1 O6 1.865544 1_556
Fe1 O5 2.046118 1_555
Fe1 O9 2.046291 1_555
Fe1 O0 2.085681 1_555
Fe1 O1 2.145672 1_555
Fe1 O11 2.217444 1_556
Fe2 O1 1.976171 1_555
Fe2 O5 2.066409 1_455
Fe2 O9 2.066707 1_545
Fe2 O8 2.262995 1_455
Fe2 O7 2.263008 1_545
Fe3 O6 1.865439 1_555
Fe3 O4 2.046075 1_555
Fe3 O3 2.046241 1_555
Fe3 O2 2.085742 1_555
Fe3 O10 2.145968 1_555
Fe3 O11 2.216722 1_555
O0 Te1 1.950307 1_555
O1 Te1 1.922565 1_555
O2 Te1 1.950793 1_555
O3 Te0 1.946628 1_455
O4 Te0 1.946686 1_545
O5 Te0 1.946412 1_546
O7 Te1 1.994440 1_555
O8 Te1 1.994551 1_555
O9 Te0 1.946359 1_456
O10 Te1 1.923217 1_555
O11 Te0 1.903022 1_555
