# generated using pymatgen
data_YbInPd
_symmetry_space_group_name_H-M   'P 1'
_cell_length_a   4.01955700
_cell_length_b   7.62356752
_cell_length_c   7.62356752
_cell_angle_alpha   119.99999583
_cell_angle_beta   90.00000000
_cell_angle_gamma   90.00000000
_symmetry_Int_Tables_number   1
_chemical_formula_structural   YbInPd
_chemical_formula_sum   'Yb3 In3 Pd3'
_cell_volume   202.31372372
_cell_formula_units_Z   3
loop_
 _symmetry_equiv_pos_site_id
 _symmetry_equiv_pos_as_xyz
  1  'x, y, z'
loop_
 _atom_site_type_symbol
 _atom_site_label
 _atom_site_symmetry_multiplicity
 _atom_site_fract_x
 _atom_site_fract_y
 _atom_site_fract_z
 _atom_site_occupancy
  Yb  Yb0  1  0.50000000  0.40781400  0.00000000  1
  Yb  Yb1  1  0.50000000  0.00000000  0.40781400  1
  Yb  Yb2  1  0.50000000  0.59218600  0.59218600  1
  In  In0  1  0.00000000  0.74165900  0.00000000  1
  In  In1  1  0.00000000  0.00000000  0.74165900  1
  In  In2  1  0.00000000  0.25834100  0.25834100  1
  Pd  Pd0  1  0.50000000  0.00000000  0.00000000  1
  Pd  Pd1  1  0.00000000  0.66666700  0.33333300  1
  Pd  Pd2  1  0.00000000  0.33333300  0.66666700  1
loop_
_geom_bond_atom_site_label_1
_geom_bond_atom_site_label_2
_geom_bond_distance
_geom_bond_site_symmetry_2
In0 Pd0 2.813905 1_565
In0 Pd0 2.813905 1_465
In0 Pd1 2.870068 1_555
In0 Pd2 2.870073 1_554
In0 Yb0 3.242945 1_455
In0 Yb0 3.242945 1_555
In0 Yb2 3.385383 1_454
In0 Yb2 3.385383 1_554
In0 Yb1 3.385383 1_565
In0 Yb1 3.385383 1_465
In1 Pd0 2.813905 1_456
In1 Pd0 2.813905 1_556
In1 Pd2 2.870068 1_555
In1 Pd1 2.870073 1_545
In1 Yb1 3.242945 1_455
In1 Yb1 3.242945 1_555
In1 Yb2 3.385383 1_445
In1 Yb2 3.385383 1_545
In1 Yb0 3.385383 1_556
In1 Yb0 3.385383 1_456
In2 Pd0 2.813905 1_455
In2 Pd0 2.813905 1_555
In2 Pd2 2.870076 1_555
In2 Pd1 2.870076 1_555
In2 Yb2 3.242945 1_455
In2 Yb2 3.242945 1_555
In2 Yb1 3.385383 1_555
In2 Yb0 3.385383 1_455
In2 Yb0 3.385383 1_555
In2 Yb1 3.385383 1_455
Pd0 Yb1 3.108998 1_555
Pd0 Yb0 3.108998 1_555
Pd0 Yb2 3.108998 1_544
Pd1 Yb1 3.062080 1_465
Pd1 Yb1 3.062080 1_565
Pd1 Yb0 3.062082 1_555
Pd1 Yb0 3.062082 1_455
Pd1 Yb2 3.062086 1_555
Pd1 Yb2 3.062086 1_455
Pd2 Yb0 3.062080 1_456
Pd2 Yb0 3.062080 1_556
Pd2 Yb1 3.062082 1_455
Pd2 Yb1 3.062082 1_555
Pd2 Yb2 3.062086 1_555
Pd2 Yb2 3.062086 1_455
