# generated using pymatgen
data_KMgMn4O8
_symmetry_space_group_name_H-M   'P 1'
_cell_length_a   6.13834833
_cell_length_b   6.09577800
_cell_length_c   6.40678923
_cell_angle_alpha   90.16956383
_cell_angle_beta   117.32408298
_cell_angle_gamma   119.73682288
_symmetry_Int_Tables_number   1
_chemical_formula_structural   KMgMn4O8
_chemical_formula_sum   'K1 Mg1 Mn4 O8'
_cell_volume   176.47541283
_cell_formula_units_Z   1
loop_
 _symmetry_equiv_pos_site_id
 _symmetry_equiv_pos_as_xyz
  1  'x, y, z'
loop_
 _atom_site_type_symbol
 _atom_site_label
 _atom_site_symmetry_multiplicity
 _atom_site_fract_x
 _atom_site_fract_y
 _atom_site_fract_z
 _atom_site_occupancy
  K  K0  1  0.50000600  0.99997300  0.50001300  1
  Mg  Mg0  1  0.50004000  0.49997400  0.50000900  1
  Mn  Mn0  1  0.99998200  0.99999500  0.99999400  1
  Mn  Mn1  1  0.99997500  0.49999800  0.99998900  1
  Mn  Mn2  1  0.50003700  0.00001500  0.99998500  1
  Mn  Mn3  1  0.49994700  0.49997900  0.00001100  1
  O  O0  1  0.00247100  0.75046100  0.79817400  1
  O  O1  1  0.02117300  0.25978500  0.81856400  1
  O  O2  1  0.56459400  0.30907600  0.80833700  1
  O  O3  1  0.56465600  0.75471400  0.80707000  1
  O  O4  1  0.43539500  0.69094400  0.19165000  1
  O  O5  1  0.43535900  0.24529300  0.19298100  1
  O  O6  1  0.99753200  0.24956900  0.20181100  1
  O  O7  1  0.97882900  0.74022400  0.18143000  1
loop_
_geom_bond_atom_site_label_1
_geom_bond_atom_site_label_2
_geom_bond_distance
_geom_bond_site_symmetry_2
K0 O1 2.422493 1_665
K0 O7 2.422580 1_455
K0 O4 2.475165 1_555
K0 O2 2.475373 1_565
K0 O3 2.480319 1_555
K0 O5 2.480457 1_565
Mg0 O5 2.256242 1_555
Mg0 O3 2.256849 1_555
Mg0 O2 2.272831 1_555
Mg0 O4 2.273268 1_555
Mg0 O0 2.322656 1_655
Mg0 O6 2.322998 1_455
Mn0 O7 1.954754 1_556
Mn0 O1 1.954806 1_665
Mn0 O3 1.974127 1_555
Mn0 O5 1.974353 1_666
Mn0 O0 2.003855 1_655
Mn0 O6 2.003866 1_566
Mn1 O7 1.956916 1_556
Mn1 O1 1.957017 1_655
Mn1 O2 1.974315 1_555
Mn1 O4 1.974488 1_656
Mn1 O6 2.002327 1_556
Mn1 O0 2.002431 1_655
Mn2 O2 2.221202 1_555
Mn2 O4 2.221324 1_546
Mn2 O3 2.224499 1_545
Mn2 O5 2.225000 1_556
Mn2 O6 2.250896 1_556
Mn2 O0 2.251231 1_545
Mn3 O4 1.978716 1_555
Mn3 O2 1.979069 1_554
Mn3 O5 1.986627 1_555
Mn3 O3 1.986771 1_554
Mn3 O1 2.171855 1_554
Mn3 O7 2.172383 1_555
