# generated using pymatgen
data_Rb2Te3
_symmetry_space_group_name_H-M   'P 1'
_cell_length_a   4.79232620
_cell_length_b   10.75268020
_cell_length_c   16.24681427
_cell_angle_alpha   90.00000000
_cell_angle_beta   90.00000000
_cell_angle_gamma   90.00000000
_symmetry_Int_Tables_number   1
_chemical_formula_structural   Rb2Te3
_chemical_formula_sum   'Rb8 Te12'
_cell_volume   837.20404266
_cell_formula_units_Z   4
loop_
 _symmetry_equiv_pos_site_id
 _symmetry_equiv_pos_as_xyz
  1  'x, y, z'
loop_
 _atom_site_type_symbol
 _atom_site_label
 _atom_site_symmetry_multiplicity
 _atom_site_fract_x
 _atom_site_fract_y
 _atom_site_fract_z
 _atom_site_occupancy
  Rb  Rb0  1  0.71948434  0.96894578  0.62327508  1
  Rb  Rb1  1  0.21948434  0.03105422  0.87672492  1
  Rb  Rb2  1  0.28051566  0.46894578  0.37672492  1
  Rb  Rb3  1  0.78051566  0.53105422  0.12327508  1
  Rb  Rb4  1  0.28051566  0.03105422  0.37672492  1
  Rb  Rb5  1  0.78051566  0.96894578  0.12327508  1
  Rb  Rb6  1  0.71948434  0.53105422  0.62327508  1
  Rb  Rb7  1  0.21948434  0.46894578  0.87672492  1
  Te  Te0  1  0.19288501  0.75000000  0.51433185  1
  Te  Te1  1  0.69288501  0.25000000  0.98566815  1
  Te  Te2  1  0.80711499  0.25000000  0.48566815  1
  Te  Te3  1  0.30711499  0.75000000  0.01433185  1
  Te  Te4  1  0.29246051  0.75000000  0.74074658  1
  Te  Te5  1  0.79246051  0.25000000  0.75925342  1
  Te  Te6  1  0.70753949  0.25000000  0.25925342  1
  Te  Te7  1  0.20753949  0.75000000  0.24074658  1
  Te  Te8  1  0.66748548  0.75000000  0.87587996  1
  Te  Te9  1  0.16748548  0.25000000  0.62412004  1
  Te  Te10  1  0.33251452  0.25000000  0.12412004  1
  Te  Te11  1  0.83251452  0.75000000  0.37587996  1
loop_
_geom_bond_atom_site_label_1
_geom_bond_atom_site_label_2
_geom_bond_distance
_geom_bond_site_symmetry_2
Rb0 Te4 3.656902 1_555
Rb0 Te9 3.707110 1_665
Rb0 Te0 3.717835 1_655
Rb0 Te5 3.759780 1_565
Rb0 Te2 3.782540 1_565
Rb0 Te0 3.878670 1_555
Rb0 Te9 4.016356 1_565
Rb0 Te4 4.089613 1_655
Rb1 Te5 3.656902 1_455
Rb1 Te8 3.707110 1_545
Rb1 Te1 3.717835 1_555
Rb1 Te4 3.759780 1_545
Rb1 Te3 3.782540 1_546
Rb1 Te1 3.878670 1_455
Rb1 Te8 4.016356 1_445
Rb1 Te5 4.089613 1_555
Rb2 Te6 3.656902 1_555
Rb2 Te11 3.707110 1_455
Rb2 Te2 3.717835 1_455
Rb2 Te7 3.759780 1_555
Rb2 Te0 3.782540 1_555
Rb2 Te2 3.878670 1_555
Rb2 Te11 4.016356 1_555
Rb2 Te6 4.089613 1_455
Rb3 Te7 3.656902 1_655
Rb3 Te10 3.707110 1_555
Rb3 Te3 3.717835 1_555
Rb3 Te6 3.759780 1_555
Rb3 Te1 3.782540 1_554
Rb3 Te3 3.878670 1_655
Rb3 Te10 4.016356 1_655
Rb3 Te7 4.089613 1_555
Rb4 Te6 3.656902 1_555
Rb4 Te11 3.707110 1_445
Rb4 Te2 3.717835 1_455
Rb4 Te7 3.759780 1_545
Rb4 Te0 3.782540 1_545
Rb4 Te2 3.878670 1_555
Rb4 Te11 4.016356 1_545
Rb4 Te6 4.089613 1_455
Rb5 Te7 3.656902 1_655
Rb5 Te10 3.707110 1_565
Rb5 Te3 3.717835 1_555
Rb5 Te6 3.759780 1_565
Rb5 Te1 3.782540 1_564
Rb5 Te3 3.878670 1_655
Rb5 Te10 4.016356 1_665
Rb5 Te7 4.089613 1_555
Rb6 Te4 3.656902 1_555
Rb6 Te9 3.707110 1_655
Rb6 Te0 3.717835 1_655
Rb6 Te5 3.759780 1_555
Rb6 Te2 3.782540 1_555
Rb6 Te0 3.878670 1_555
Rb6 Te9 4.016356 1_555
Rb6 Te4 4.089613 1_655
Rb7 Te5 3.656902 1_455
Rb7 Te8 3.707110 1_555
Rb7 Te1 3.717835 1_555
Rb7 Te4 3.759780 1_555
Rb7 Te3 3.782540 1_556
Rb7 Te1 3.878670 1_455
Rb7 Te8 4.016356 1_455
Rb7 Te5 4.089613 1_555
Te0 Te11 2.835910 1_455
Te1 Te10 2.835910 1_556
Te2 Te9 2.835910 1_655
Te3 Te8 2.835910 1_554
Te4 Te8 2.837295 1_555
Te5 Te9 2.837295 1_655
Te10 Te6 2.837295 1_555
Te11 Te7 2.837295 1_655
