# generated using pymatgen
data_MgFe6(OF)6
_symmetry_space_group_name_H-M   'P 1'
_cell_length_a   5.18836938
_cell_length_b   14.35957275
_cell_length_c   3.08806854
_cell_angle_alpha   89.80597446
_cell_angle_beta   90.30160290
_cell_angle_gamma   83.17064743
_symmetry_Int_Tables_number   1
_chemical_formula_structural   MgFe6(OF)6
_chemical_formula_sum   'Mg1 Fe6 O6 F6'
_cell_volume   228.43221373
_cell_formula_units_Z   1
loop_
 _symmetry_equiv_pos_site_id
 _symmetry_equiv_pos_as_xyz
  1  'x, y, z'
loop_
 _atom_site_type_symbol
 _atom_site_label
 _atom_site_symmetry_multiplicity
 _atom_site_fract_x
 _atom_site_fract_y
 _atom_site_fract_z
 _atom_site_occupancy
  Mg  Mg0  1  0.62750653  0.65730628  0.53707818  1
  Fe  Fe0  1  0.99811746  0.01257045  0.00517870  1
  Fe  Fe1  1  0.90278408  0.31647246  0.00426264  1
  Fe  Fe2  1  0.13776921  0.67603946  0.02777407  1
  Fe  Fe3  1  0.50485352  0.16844049  0.50045157  1
  Fe  Fe4  1  0.31114197  0.46012377  0.50941291  1
  Fe  Fe5  1  0.48551133  0.85472303  0.51147035  1
  O  O0  1  0.31306710  0.59267318  0.51469959  1
  O  O1  1  0.18103375  0.93555947  0.50764461  1
  O  O2  1  0.44616723  0.76078910  0.01582181  1
  O  O3  1  0.15928908  0.41787505  0.00856414  1
  O  O4  1  0.61661309  0.23402376  0.00076107  1
  O  O5  1  0.80279543  0.06871931  0.50319010  1
  F  F0  1  0.13932316  0.24780156  0.50576342  1
  F  F1  1  0.30605861  0.09516976  0.00446362  1
  F  F2  1  0.80808703  0.59758464  0.03852924  1
  F  F3  1  0.68327116  0.90991652  0.01197973  1
  F  F4  1  0.67402910  0.40937276  0.50343916  1
  F  F5  1  0.90257817  0.74688196  0.53951510  1
loop_
_geom_bond_atom_site_label_1
_geom_bond_atom_site_label_2
_geom_bond_distance
_geom_bond_site_symmetry_2
Mg0 O0 1.971562 1_555
Mg0 O2 2.230691 1_556
Mg0 O2 2.306453 1_555
Fe0 O5 1.964887 1_554
Fe0 O5 1.967908 1_555
Fe0 O1 2.062634 1_645
Fe0 O1 2.064319 1_644
Fe1 O4 2.006065 1_555
Fe1 O3 2.086229 1_655
Fe2 O0 2.058089 1_555
Fe2 O2 2.122749 1_555
Fe2 O0 2.130657 1_554
Fe3 O4 1.932266 1_555
Fe3 O4 1.934012 1_556
Fe3 O5 1.978257 1_555
Fe4 O3 1.866781 1_556
Fe4 O3 1.867655 1_555
Fe4 O0 1.904691 1_555
Fe5 O1 1.845733 1_555
Fe5 O2 2.068809 1_555
Fe5 O2 2.083600 1_556
F0 Fe3 2.093354 1_555
F0 Fe1 2.135117 1_455
F0 Fe1 2.142574 1_456
F1 Fe0 2.100049 1_455
F1 Fe3 2.183833 1_555
F1 Fe3 2.203899 1_554
F2 Mg0 1.948281 1_554
F2 Mg0 1.953591 1_555
F2 Fe2 2.157493 1_655
F3 Fe5 2.062723 1_554
F3 Fe5 2.064435 1_555
F3 Fe0 2.326926 1_565
F4 Fe4 1.936615 1_555
F4 Fe1 2.273826 1_556
F4 Fe1 2.284965 1_555
F5 Mg0 2.031724 1_555
F5 Fe2 2.114776 1_656
F5 Fe2 2.181090 1_655
F5 Fe5 2.507619 1_555
