# generated using pymatgen
data_Rb4MgV4O10
_symmetry_space_group_name_H-M   'P 1'
_cell_length_a   5.80427581
_cell_length_b   6.10057740
_cell_length_c   9.68276942
_cell_angle_alpha   107.24471817
_cell_angle_beta   107.54993829
_cell_angle_gamma   89.23265963
_symmetry_Int_Tables_number   1
_chemical_formula_structural   Rb4MgV4O10
_chemical_formula_sum   'Rb4 Mg1 V4 O10'
_cell_volume   311.11827087
_cell_formula_units_Z   1
loop_
 _symmetry_equiv_pos_site_id
 _symmetry_equiv_pos_as_xyz
  1  'x, y, z'
loop_
 _atom_site_type_symbol
 _atom_site_label
 _atom_site_symmetry_multiplicity
 _atom_site_fract_x
 _atom_site_fract_y
 _atom_site_fract_z
 _atom_site_occupancy
  Rb  Rb0  1  0.60127679  0.09956649  0.22328209  1
  Rb  Rb1  1  0.38224009  0.90086431  0.77961683  1
  Rb  Rb2  1  0.15091698  0.59439051  0.32497635  1
  Rb  Rb3  1  0.81407244  0.40360109  0.67189505  1
  Mg  Mg0  1  0.99560350  0.49972019  0.99897891  1
  V  V0  1  0.99683548  0.00245906  0.00644225  1
  V  V1  1  0.49600849  0.50081859  0.00126587  1
  V  V2  1  0.20985549  0.14827208  0.44849730  1
  V  V3  1  0.76798484  0.84836092  0.55310374  1
  O  O0  1  0.26198993  0.29030876  0.00762764  1
  O  O1  1  0.22450405  0.72998698  0.99337313  1
  O  O2  1  0.76535879  0.26953795  0.00453762  1
  O  O3  1  0.73172482  0.71286287  0.99803538  1
  O  O4  1  0.11091491  0.09652488  0.23894366  1
  O  O5  1  0.87264282  0.89858573  0.75789522  1
  O  O6  1  0.72733787  0.57359915  0.42915709  1
  O  O7  1  0.29694351  0.42738401  0.56321692  1
  O  O8  1  0.97040076  0.01438410  0.49226230  1
  O  O9  1  0.47916844  0.98877132  0.50689165  1
loop_
_geom_bond_atom_site_label_1
_geom_bond_atom_site_label_2
_geom_bond_distance
_geom_bond_site_symmetry_2
Mg0 O1 1.969815 1_655
Mg0 O2 1.974647 1_556
Mg0 O0 1.990530 1_656
Mg0 O3 1.995490 1_555
Mg0 Rb2 2.885660 1_656
Mg0 Rb3 2.896101 1_555
O0 V1 1.908437 1_555
O0 V0 2.345685 1_455
O0 Rb0 2.914083 1_555
O0 Rb1 2.963264 1_544
O0 Rb2 3.328972 1_555
O1 V1 2.091778 1_556
O1 V0 2.107742 1_466
O1 Rb1 2.942180 1_555
O1 Rb0 3.006971 1_566
O1 Rb3 3.362949 1_455
O2 V1 2.091289 1_555
O2 V0 2.098679 1_555
O2 Rb0 3.002252 1_555
O2 Rb1 3.009261 1_544
O2 Rb2 3.293649 1_655
O3 V1 1.908778 1_556
O3 V0 2.325447 1_566
O3 Rb1 2.948161 1_555
O3 Rb0 2.965285 1_566
O3 Rb3 3.333792 1_555
O4 V2 1.862492 1_555
O4 V0 2.044782 1_455
O4 Rb2 2.893951 1_555
O4 Rb0 2.896127 1_555
O4 Rb0 2.916033 1_455
O4 Rb2 3.392496 1_545
O5 V3 1.820243 1_555
O5 V0 2.185137 1_566
O5 Rb3 2.879828 1_555
O5 Rb1 2.901285 1_655
O5 Rb1 2.916310 1_555
O5 Rb3 3.409279 1_565
O6 V3 1.718361 1_555
O6 Rb3 2.751531 1_555
O6 Rb0 2.937885 1_555
O6 Rb2 2.942473 1_655
O6 Rb2 3.202584 1_555
O7 V2 1.718061 1_555
O7 Rb2 2.696127 1_555
O7 Rb3 2.883014 1_555
O7 Rb1 2.967021 1_555
O7 Rb3 3.296011 1_455
O8 V2 1.835557 1_655
O8 V3 1.885812 1_545
O8 Rb3 2.816386 1_555
O8 Rb2 2.962656 1_645
O8 Rb0 3.008500 1_555
O8 Rb1 3.320010 1_645
O9 V2 1.860766 1_565
O9 V3 1.865636 1_555
O9 Rb2 2.847359 1_555
O9 Rb3 2.932101 1_565
O9 Rb1 3.053083 1_555
O9 Rb0 3.284436 1_565
