# generated using pymatgen
data_NaLa3Zn(SO4)6
_symmetry_space_group_name_H-M   'P 1'
_cell_length_a   9.34800895
_cell_length_b   9.34800861
_cell_length_c   24.71823234
_cell_angle_alpha   90.00000000
_cell_angle_beta   90.00000000
_cell_angle_gamma   120.00000124
_symmetry_Int_Tables_number   1
_chemical_formula_structural   NaLa3Zn(SO4)6
_chemical_formula_sum   'Na3 La9 Zn3 S18 O72'
_cell_volume   1870.62295590
_cell_formula_units_Z   3
loop_
 _symmetry_equiv_pos_site_id
 _symmetry_equiv_pos_as_xyz
  1  'x, y, z'
loop_
 _atom_site_type_symbol
 _atom_site_label
 _atom_site_symmetry_multiplicity
 _atom_site_fract_x
 _atom_site_fract_y
 _atom_site_fract_z
 _atom_site_occupancy
  Na  Na0  1  0.00000000  0.00000000  0.98909828  1
  Na  Na1  1  0.66666700  0.33333300  0.84454672  1
  Na  Na2  1  0.66666700  0.33333300  0.33295990  1
  La  La0  1  0.00000000  0.00000000  0.64761415  1
  La  La1  1  0.00000000  0.00000000  0.14584392  1
  La  La2  1  0.66666700  0.33333300  0.68919044  1
  La  La3  1  0.66666700  0.33333300  0.18612210  1
  La  La4  1  0.66666700  0.33333300  0.47918239  1
  La  La5  1  0.33333300  0.66666700  0.01518712  1
  La  La6  1  0.33333300  0.66666700  0.51402900  1
  La  La7  1  0.33333300  0.66666700  0.31154126  1
  La  La8  1  0.33333300  0.66666700  0.81811016  1
  Zn  Zn0  1  0.00000000  0.00000000  0.35292659  1
  Zn  Zn1  1  0.00000000  0.00000000  0.84824594  1
  Zn  Zn2  1  0.66666700  0.33333300  0.98454215  1
  S  S0  1  0.28682561  0.00881095  0.25528568  1
  S  S1  1  0.72198533  0.71317439  0.25528568  1
  S  S2  1  0.99118905  0.27801467  0.25528568  1
  S  S3  1  0.28640563  0.28170105  0.75608460  1
  S  S4  1  0.99529542  0.71359437  0.75608460  1
  S  S5  1  0.71829895  0.00470458  0.75608460  1
  S  S6  1  0.96286181  0.33628872  0.58322071  1
  S  S7  1  0.37342792  0.03713819  0.58322071  1
  S  S8  1  0.66371128  0.62657208  0.58322071  1
  S  S9  1  0.94783504  0.61958876  0.07751434  1
  S  S10  1  0.67175472  0.05216496  0.07751434  1
  S  S11  1  0.38041124  0.32824528  0.07751434  1
  S  S12  1  0.64845001  0.66656864  0.91669233  1
  S  S13  1  0.01811763  0.35154999  0.91669233  1
  S  S14  1  0.33343136  0.98188237  0.91669233  1
  S  S15  1  0.64710068  0.96604160  0.41219939  1
  S  S16  1  0.31893992  0.35289932  0.41219939  1
  S  S17  1  0.03395840  0.68106008  0.41219939  1
  O  O0  1  0.19998014  0.02510972  0.30246208  1
  O  O1  1  0.82512958  0.80001986  0.30246208  1
  O  O2  1  0.97489028  0.17487042  0.30246208  1
  O  O3  1  0.19912733  0.17575495  0.80285168  1
  O  O4  1  0.97662761  0.80087267  0.80285168  1
  O  O5  1  0.82424505  0.02337239  0.80285168  1
  O  O6  1  0.79051553  0.98880566  0.70414678  1
  O  O7  1  0.19829013  0.20948447  0.70414678  1
  O  O8  1  0.01119434  0.80170987  0.70414678  1
  O  O9  1  0.79583185  0.80176701  0.20342054  1
  O  O10  1  0.00593517  0.20416815  0.20342054  1
  O  O11  1  0.19823299  0.99406483  0.20342054  1
  O  O12  1  0.88186796  0.35704284  0.63220711  1
  O  O13  1  0.47517588  0.11813204  0.63220711  1
  O  O14  1  0.64295716  0.52482412  0.63220711  1
  O  O15  1  0.87481572  0.53026716  0.12951369  1
  O  O16  1  0.65545244  0.12518428  0.12951369  1
  O  O17  1  0.46973284  0.34454756  0.12951369  1
  O  O18  1  0.46730491  0.30966455  0.03072758  1
  O  O19  1  0.84236064  0.53269509  0.03072758  1
  O  O20  1  0.69033545  0.15763936  0.03072758  1
  O  O21  1  0.45386257  0.14005979  0.53456826  1
  O  O22  1  0.68619823  0.54613743  0.53456826  1
  O  O23  1  0.85994021  0.31380177  0.53456826  1
  O  O24  1  0.56706894  0.69227578  0.96512296  1
  O  O25  1  0.12520583  0.43293106  0.96512296  1
  O  O26  1  0.30772422  0.87479417  0.96512296  1
  O  O27  1  0.56796795  0.86985937  0.46266632  1
  O  O28  1  0.30189042  0.43203205  0.46266632  1
  O  O29  1  0.13014063  0.69810958  0.46266632  1
  O  O30  1  0.11598147  0.64916129  0.36582391  1
  O  O31  1  0.53317883  0.88401853  0.36582391  1
  O  O32  1  0.35083871  0.46682117  0.36582391  1
  O  O33  1  0.09930779  0.45850241  0.86829185  1
  O  O34  1  0.35919362  0.90069221  0.86829185  1
  O  O35  1  0.54149759  0.64080638  0.86829185  1
  O  O36  1  0.02011161  0.82849028  0.40431588  1
  O  O37  1  0.80837867  0.97988839  0.40431588  1
  O  O38  1  0.17150972  0.19162133  0.40431588  1
  O  O39  1  0.00424648  0.18622086  0.90976191  1
  O  O40  1  0.18197437  0.99575352  0.90976191  1
  O  O41  1  0.81377914  0.81802563  0.90976191  1
  O  O42  1  0.97886392  0.18787518  0.58887766  1
  O  O43  1  0.20901126  0.02113608  0.58887766  1
  O  O44  1  0.81212482  0.79098874  0.58887766  1
  O  O45  1  0.96545286  0.78814775  0.08101718  1
  O  O46  1  0.82269489  0.03454714  0.08101718  1
  O  O47  1  0.21185225  0.17730511  0.08101718  1
  O  O48  1  0.70114233  0.15614998  0.75293371  1
  O  O49  1  0.45500865  0.29885767  0.75293371  1
  O  O50  1  0.84385002  0.54499135  0.75293371  1
  O  O51  1  0.70290984  0.54348708  0.25239927  1
  O  O52  1  0.84057824  0.29709016  0.25239927  1
  O  O53  1  0.45651292  0.15942176  0.25239927  1
  O  O54  1  0.66226733  0.51508488  0.92366928  1
  O  O55  1  0.85281855  0.33773267  0.92366928  1
  O  O56  1  0.48491512  0.14718145  0.92366928  1
  O  O57  1  0.66364934  0.13442949  0.41715068  1
  O  O58  1  0.47078115  0.33635066  0.41715068  1
  O  O59  1  0.86557051  0.52921885  0.41715068  1
  O  O60  1  0.36178849  0.47586725  0.07240638  1
  O  O61  1  0.11407776  0.63821151  0.07240638  1
  O  O62  1  0.52413275  0.88592224  0.07240638  1
  O  O63  1  0.35792985  0.87295633  0.57680963  1
  O  O64  1  0.51502549  0.64207015  0.57680963  1
  O  O65  1  0.12704367  0.48497451  0.57680963  1
  O  O66  1  0.30582649  0.86132678  0.25905131  1
  O  O67  1  0.55549929  0.69417351  0.25905131  1
  O  O68  1  0.13867322  0.44450071  0.25905131  1
  O  O69  1  0.30534208  0.44784526  0.76131592  1
  O  O70  1  0.14250218  0.69465792  0.76131592  1
  O  O71  1  0.55215474  0.85749782  0.76131592  1
loop_
_geom_bond_atom_site_label_1
_geom_bond_atom_site_label_2
_geom_bond_distance
_geom_bond_site_symmetry_2
Na0 O41 2.609324 1_445
Na0 O40 2.609324 1_545
Na0 O39 2.609324 1_555
Na0 O45 2.923870 1_446
Na0 O47 2.923870 1_556
Na0 O46 2.923870 1_456
Na1 O56 2.604471 1_555
Na1 O54 2.604471 1_555
Na1 O55 2.604471 1_555
Na1 O50 2.917022 1_555
Na1 O48 2.917022 1_555
Na1 O49 2.917023 1_555
Na2 O51 2.697016 1_555
Na2 O53 2.697016 1_555
Na2 O52 2.697016 1_555
Na2 O57 2.781419 1_555
Na2 O59 2.781419 1_555
Na2 O58 2.781419 1_555
La0 O44 2.361861 1_445
La0 O42 2.361861 1_455
La0 O43 2.361861 1_555
La0 O7 2.365060 1_555
La0 O8 2.365060 1_545
La0 O6 2.365060 1_445
La1 O10 2.359086 1_555
La1 O9 2.359086 1_445
La1 O11 2.359086 1_545
La1 O45 2.440163 1_445
La1 O47 2.440163 1_555
La1 O46 2.440163 1_455
La2 O13 2.373634 1_555
La2 O14 2.373634 1_555
La2 O12 2.373634 1_555
La2 O50 2.421485 1_555
La2 O48 2.421485 1_555
La2 O49 2.421485 1_555
La3 O16 2.356052 1_555
La3 O15 2.356052 1_555
La3 O17 2.356052 1_555
La3 O51 2.447945 1_555
La3 O53 2.447945 1_555
La3 O52 2.447945 1_555
La4 O22 2.345573 1_555
La4 O21 2.345573 1_555
La4 O23 2.345573 1_555
La4 O57 2.399289 1_555
La4 O59 2.399289 1_555
La4 O58 2.399289 1_555
La5 O62 2.393080 1_555
La5 O60 2.393080 1_555
La5 O61 2.393080 1_555
La5 O25 2.416552 1_554
La5 O24 2.416552 1_554
La5 O26 2.416552 1_554
La6 O63 2.395066 1_555
La6 O65 2.395066 1_555
La6 O64 2.395066 1_555
La6 O28 2.421662 1_555
La6 O27 2.421662 1_555
La6 O29 2.421662 1_555
La7 O68 2.351309 1_555
La7 O66 2.351309 1_555
La7 O67 2.351309 1_555
La7 O31 2.371258 1_555
La7 O30 2.371258 1_555
La7 O32 2.371258 1_555
La8 O69 2.385015 1_555
La8 O71 2.385015 1_555
La8 O70 2.385015 1_555
La8 O34 2.419520 1_555
La8 O33 2.419520 1_555
La8 O35 2.419521 1_555
O0 S0 1.471668 1_555
O0 Zn0 2.160325 1_555
O1 S1 1.471668 1_555
O1 Zn0 2.160325 1_665
O2 S2 1.471668 1_555
O2 Zn0 2.160325 1_655
O3 S3 1.474728 1_555
O3 Zn1 2.089269 1_555
O4 S4 1.474728 1_555
O4 Zn1 2.089269 1_665
O5 S5 1.474728 1_555
O5 Zn1 2.089269 1_655
O6 S5 1.492088 1_565
O7 S3 1.492088 1_555
O8 S4 1.492088 1_455
O9 S1 1.494744 1_555
O10 S2 1.494744 1_455
O11 S0 1.494744 1_565
O12 S6 1.491293 1_555
O13 S7 1.491293 1_555
O14 S8 1.491292 1_555
O15 S9 1.498415 1_555
O16 S10 1.498415 1_555
O17 S11 1.498415 1_555
O18 S11 1.472590 1_555
O18 Zn2 2.100730 1_554
O19 S9 1.472590 1_555
O19 Zn2 2.100730 1_554
O20 S10 1.472590 1_555
O20 Zn2 2.100730 1_554
O21 S7 1.487903 1_555
O22 S8 1.487903 1_555
O23 S6 1.487903 1_555
O24 S12 1.500801 1_555
O25 S13 1.500801 1_555
O26 S14 1.500801 1_555
O27 S15 1.498881 1_555
O28 S16 1.498881 1_555
O29 S17 1.498881 1_555
O30 S17 1.489803 1_555
O31 S15 1.489803 1_555
O32 S16 1.489803 1_555
O33 S13 1.499372 1_555
O34 S14 1.499372 1_555
O35 S12 1.499372 1_555
O36 S17 1.460307 1_555
O36 Zn0 2.126216 1_565
O37 S15 1.460316 1_555
O37 Zn0 2.126216 1_665
O38 S16 1.460312 1_555
O38 Zn0 2.126216 1_555
O39 S13 1.494765 1_555
O39 Zn1 2.296728 1_555
O40 S14 1.494756 1_555
O40 Zn1 2.296728 1_565
O41 S12 1.494761 1_555
O41 Zn1 2.296728 1_665
O42 S6 1.474538 1_555
O43 S7 1.474547 1_555
O44 S8 1.474543 1_555
O45 S9 1.502637 1_555
O46 S10 1.502628 1_555
O47 S11 1.502633 1_555
O48 S5 1.504355 1_555
O49 S3 1.504364 1_555
O50 S4 1.504360 1_555
O51 S1 1.506713 1_555
O52 S2 1.506704 1_555
O53 S0 1.506710 1_555
O54 S12 1.494854 1_555
O54 Zn2 2.285227 1_555
O55 S13 1.494836 1_655
O55 Zn2 2.285227 1_555
O56 S14 1.494844 1_545
O56 Zn2 2.285227 1_555
O57 S15 1.507702 1_545
O58 S16 1.507721 1_555
O59 S17 1.507710 1_655
O60 S11 1.480136 1_555
O61 S9 1.480117 1_455
O62 S10 1.480125 1_565
O63 S7 1.476238 1_565
O64 S8 1.476257 1_555
O65 S6 1.476246 1_455
O66 S0 1.478466 1_565
O67 S1 1.478476 1_555
O68 S2 1.478472 1_455
O69 S3 1.478276 1_555
O70 S4 1.478267 1_455
O71 S5 1.478272 1_565
