# generated using pymatgen
data_Na7Ca2In2P5SO24
_symmetry_space_group_name_H-M   'P 1'
_cell_length_a   9.29506572
_cell_length_b   9.27262538
_cell_length_c   23.01554867
_cell_angle_alpha   90.16638462
_cell_angle_beta   89.98282346
_cell_angle_gamma   119.88870473
_symmetry_Int_Tables_number   1
_chemical_formula_structural   Na7Ca2In2P5SO24
_chemical_formula_sum   'Na21 Ca6 In6 P15 S3 O72'
_cell_volume   1719.85128308
_cell_formula_units_Z   3
loop_
 _symmetry_equiv_pos_site_id
 _symmetry_equiv_pos_as_xyz
  1  'x, y, z'
loop_
 _atom_site_type_symbol
 _atom_site_label
 _atom_site_symmetry_multiplicity
 _atom_site_fract_x
 _atom_site_fract_y
 _atom_site_fract_z
 _atom_site_occupancy
  Na  Na0  1  0.64176739  0.99663773  0.25152963  1
  Na  Na1  1  0.99500714  0.62756174  0.25379464  1
  Na  Na2  1  0.63412508  0.63805962  0.74794527  1
  Na  Na3  1  0.00437766  0.36711019  0.75205756  1
  Na  Na4  1  0.36432196  0.99618747  0.75202109  1
  Na  Na5  1  0.29611142  0.33199804  0.58600750  1
  Na  Na6  1  0.03824804  0.70508113  0.58228966  1
  Na  Na7  1  0.66817546  0.96197467  0.58354270  1
  Na  Na8  1  0.29681182  0.96252392  0.07961697  1
  Na  Na9  1  0.66795038  0.70370570  0.08678627  1
  Na  Na10  1  0.03768096  0.33302835  0.08345892  1
  Na  Na11  1  0.98209308  0.66766021  0.91617457  1
  Na  Na12  1  0.32481274  0.29864964  0.91875239  1
  Na  Na13  1  0.96537272  0.30780342  0.41448503  1
  Na  Na14  1  0.70033476  0.67360105  0.41796314  1
  Na  Na15  1  0.00479226  0.99310568  0.50058689  1
  Na  Na16  1  0.99786821  0.00761556  0.99994223  1
  Na  Na17  1  0.66800867  0.31512092  0.83423496  1
  Na  Na18  1  0.66090965  0.32932868  0.33339715  1
  Na  Na19  1  0.33476894  0.64639129  0.16758317  1
  Na  Na20  1  0.33388561  0.66774663  0.66657954  1
  Ca  Ca0  1  0.99983975  0.99987759  0.65022802  1
  Ca  Ca1  1  0.00149721  0.00381953  0.15010853  1
  Ca  Ca2  1  0.33098754  0.66860978  0.01389636  1
  Ca  Ca3  1  0.33362718  0.67598323  0.51325002  1
  Ca  Ca4  1  0.33283577  0.66470119  0.31955385  1
  Ca  Ca5  1  0.33155876  0.67092557  0.82089952  1
  In  In0  1  0.99348037  0.99523962  0.34619283  1
  In  In1  1  0.00216860  0.00703702  0.84519987  1
  In  In2  1  0.66792886  0.33305235  0.68252288  1
  In  In3  1  0.66863460  0.33809007  0.18240056  1
  In  In4  1  0.66688187  0.32153570  0.98458529  1
  In  In5  1  0.66754756  0.32769287  0.48489722  1
  P  P0  1  0.70064545  0.69556788  0.24858167  1
  P  P1  1  0.99407350  0.30023980  0.24955521  1
  P  P2  1  0.30631755  0.30148736  0.74930084  1
  P  P3  1  0.99440089  0.69728629  0.74996674  1
  P  P4  1  0.70189535  0.00354269  0.74828709  1
  P  P5  1  0.96297806  0.33477519  0.58337575  1
  P  P6  1  0.37565256  0.04241884  0.58427042  1
  P  P7  1  0.66419591  0.62361653  0.58249451  1
  P  P8  1  0.95922354  0.62530939  0.08237706  1
  P  P9  1  0.66520405  0.03854824  0.08604704  1
  P  P10  1  0.37792628  0.33487729  0.08169695  1
  P  P11  1  0.02373431  0.35651743  0.91636177  1
  P  P12  1  0.33035418  0.97835982  0.91596259  1
  P  P13  1  0.64463576  0.97680248  0.41556919  1
  P  P14  1  0.02110534  0.66693096  0.41643860  1
  S  S0  1  0.30145654  0.00456336  0.24996465  1
  S  S1  1  0.64269610  0.66670156  0.91661284  1
  S  S2  1  0.33224746  0.35891002  0.41752310  1
  O  O0  1  0.21789143  0.02669461  0.30156675  1
  O  O1  1  0.81270177  0.77572868  0.30407583  1
  O  O2  1  0.97274352  0.19214763  0.30511886  1
  O  O3  1  0.22584464  0.19163363  0.80454017  1
  O  O4  1  0.96611026  0.77967802  0.80539098  1
  O  O5  1  0.81802967  0.03365571  0.80133876  1
  O  O6  1  0.77467064  0.97645796  0.69242088  1
  O  O7  1  0.19993821  0.22308384  0.69511200  1
  O  O8  1  0.01960866  0.80154449  0.69568133  1
  O  O9  1  0.78428600  0.79951549  0.19430456  1
  O  O10  1  0.01412267  0.22011218  0.19449313  1
  O  O11  1  0.20537281  0.98281562  0.19633824  1
  O  O12  1  0.88018193  0.35919623  0.63858038  1
  O  O13  1  0.47746901  0.11969453  0.64096811  1
  O  O14  1  0.64198715  0.51932302  0.63822385  1
  O  O15  1  0.87978681  0.52033647  0.13805788  1
  O  O16  1  0.63842376  0.11747553  0.14213464  1
  O  O17  1  0.48807682  0.35836890  0.13521313  1
  O  O18  1  0.45757100  0.31303024  0.02519824  1
  O  O19  1  0.85004446  0.54190143  0.02766901  1
  O  O20  1  0.69389609  0.15067892  0.03297065  1
  O  O21  1  0.46214522  0.15573828  0.53157539  1
  O  O22  1  0.68532189  0.53879363  0.52723979  1
  O  O23  1  0.85744190  0.31108311  0.52809803  1
  O  O24  1  0.56517657  0.68854263  0.96967710  1
  O  O25  1  0.13235348  0.43394543  0.97100326  1
  O  O26  1  0.30350152  0.87288054  0.97085793  1
  O  O27  1  0.56931937  0.86892225  0.47002114  1
  O  O28  1  0.30405410  0.43099035  0.47124618  1
  O  O29  1  0.11929921  0.68791470  0.47236524  1
  O  O30  1  0.09914316  0.63509958  0.36261029  1
  O  O31  1  0.54495730  0.89746175  0.36028789  1
  O  O32  1  0.35957911  0.46773713  0.36750889  1
  O  O33  1  0.10236994  0.46331516  0.86194817  1
  O  O34  1  0.35514938  0.90123043  0.86095953  1
  O  O35  1  0.54056557  0.64317522  0.86479290  1
  O  O36  1  0.99777079  0.82320882  0.41022268  1
  O  O37  1  0.82531673  0.99792095  0.41134582  1
  O  O38  1  0.17931979  0.19245147  0.40983686  1
  O  O39  1  0.01044316  0.18161432  0.91044762  1
  O  O40  1  0.16563960  0.99007730  0.91122399  1
  O  O41  1  0.81399602  0.81350560  0.91165935  1
  O  O42  1  0.97845741  0.17646117  0.58561383  1
  O  O43  1  0.20085833  0.02419531  0.58578661  1
  O  O44  1  0.82267381  0.79708383  0.58456806  1
  O  O45  1  0.97709007  0.80038820  0.08533739  1
  O  O46  1  0.82197414  0.02049100  0.08778247  1
  O  O47  1  0.20446011  0.17614425  0.08498232  1
  O  O48  1  0.68758688  0.16590020  0.74649925  1
  O  O49  1  0.48101917  0.31380694  0.74601618  1
  O  O50  1  0.83270710  0.52156628  0.74683012  1
  O  O51  1  0.69112167  0.52156636  0.24601764  1
  O  O52  1  0.82485614  0.30460407  0.24825757  1
  O  O53  1  0.47221115  0.15228249  0.24734655  1
  O  O54  1  0.65762915  0.51238460  0.92089190  1
  O  O55  1  0.85203948  0.35030265  0.92194786  1
  O  O56  1  0.48083220  0.16043969  0.92124269  1
  O  O57  1  0.67007588  0.15689097  0.42106938  1
  O  O58  1  0.48543213  0.34510880  0.42228985  1
  O  O59  1  0.84052087  0.50782480  0.42060137  1
  O  O60  1  0.36063215  0.49282224  0.07967106  1
  O  O61  1  0.13283749  0.64063298  0.07915181  1
  O  O62  1  0.50757591  0.86485581  0.08113418  1
  O  O63  1  0.36096245  0.86868149  0.58037724  1
  O  O64  1  0.50602773  0.63947233  0.57961339  1
  O  O65  1  0.13685085  0.49254092  0.58033975  1
  O  O66  1  0.31611502  0.85225983  0.25547839  1
  O  O67  1  0.53188735  0.68710674  0.25490815  1
  O  O68  1  0.13863915  0.48005289  0.25469310  1
  O  O69  1  0.32974283  0.47794589  0.75594949  1
  O  O70  1  0.14783101  0.67468025  0.75542003  1
  O  O71  1  0.52731041  0.84967996  0.75565268  1
loop_
_geom_bond_atom_site_label_1
_geom_bond_atom_site_label_2
_geom_bond_distance
_geom_bond_site_symmetry_2
Na0 O52 2.492861 1_565
Na0 O67 2.523238 1_555
Na0 O53 2.616089 1_565
Na0 O66 2.631508 1_555
Na0 O31 2.666156 1_555
Na0 O16 2.765291 1_565
Na0 O2 2.950107 1_565
Na1 O68 2.339622 1_655
Na1 O51 2.491792 1_555
Na1 O52 2.600615 1_555
Na1 O66 2.655738 1_655
Na1 O30 2.673407 1_655
Na1 O15 2.855901 1_555
Na1 O1 2.899683 1_555
Na2 O69 2.461253 1_555
Na2 O50 2.561553 1_555
Na2 O49 2.608090 1_555
Na2 O71 2.609081 1_555
Na2 O14 2.767418 1_555
Na2 O35 2.833707 1_555
Na3 O70 2.475175 1_555
Na3 O48 2.586786 1_455
Na3 O50 2.625019 1_455
Na3 O69 2.666930 1_555
Na3 O33 2.683416 1_555
Na3 O12 2.841741 1_455
Na3 O5 2.920392 1_455
Na3 O7 3.035354 1_555
Na4 O71 2.489911 1_555
Na4 O49 2.586132 1_565
Na4 O48 2.609514 1_565
Na4 O70 2.639218 1_555
Na4 O34 2.647049 1_555
Na4 O13 2.786665 1_565
Na5 O43 2.532086 1_555
Na5 O64 2.532883 1_555
Na5 O42 2.560072 1_455
Na5 O65 2.573333 1_555
Na5 O7 2.690409 1_555
Na5 O28 2.787631 1_555
Na6 O44 2.539492 1_455
Na6 O65 2.554557 1_555
Na6 O43 2.566734 1_565
Na6 O63 2.601210 1_555
Na6 O29 2.666402 1_555
Na6 O8 2.789555 1_555
Na7 O63 2.538841 1_555
Na7 O42 2.560976 1_565
Na7 O44 2.566937 1_555
Na7 O64 2.594045 1_555
Na7 O6 2.672906 1_555
Na7 O27 2.759260 1_555
Na8 O47 2.523675 1_565
Na8 O62 2.535311 1_555
Na8 O45 2.580203 1_455
Na8 O61 2.588034 1_555
Na8 O26 2.645732 1_554
Na8 O11 2.851251 1_555
Na9 O60 2.538076 1_555
Na9 O46 2.546971 1_565
Na9 O45 2.548410 1_555
Na9 O62 2.587128 1_555
Na9 O9 2.667130 1_555
Na9 O24 2.839479 1_554
Na10 O61 2.532791 1_555
Na10 O46 2.576650 1_455
Na10 O47 2.601642 1_555
Na10 O60 2.604203 1_555
Na10 O10 2.731588 1_555
Na10 O25 2.746084 1_554
Na11 O41 2.527423 1_555
Na11 O55 2.568170 1_555
Na11 O40 2.603874 1_655
Na11 O54 2.617931 1_555
Na11 O4 2.787753 1_555
Na11 O19 2.835534 1_556
Na11 O26 2.907374 1_655
Na11 O33 2.914533 1_655
Na12 O56 2.366766 1_555
Na12 O40 2.486787 1_545
Na12 O39 2.567395 1_555
Na12 O18 2.716341 1_556
Na12 O54 2.718354 1_555
Na12 O3 2.795944 1_555
Na12 O25 2.906374 1_555
Na13 O57 2.384966 1_555
Na13 O37 2.495452 1_545
Na13 O59 2.636313 1_555
Na13 O38 2.688754 1_655
Na13 O2 2.747391 1_555
Na13 O23 2.805936 1_555
Na13 O30 2.905401 1_655
Na14 O36 2.403838 1_555
Na14 O59 2.461986 1_555
Na14 O37 2.633876 1_555
Na14 O58 2.686215 1_555
Na14 O22 2.784198 1_555
Na14 O1 2.808074 1_555
Na14 O27 2.895428 1_555
Na14 O32 2.997996 1_555
Na15 O36 2.586539 1_455
Na15 O43 2.593235 1_565
Na15 O44 2.618641 1_455
Na15 O37 2.660915 1_455
Na15 O42 2.678683 1_465
Na15 O38 2.728153 1_565
Na16 O39 2.586630 1_655
Na16 O40 2.622324 1_645
Na16 O47 2.637062 1_656
Na16 O46 2.639260 1_556
Na16 O41 2.684065 1_545
Na16 O45 2.691529 1_546
Na17 O48 2.501934 1_555
Na17 O55 2.559294 1_555
Na17 O56 2.573302 1_555
Na17 O49 2.669171 1_555
Na17 O50 2.674838 1_555
Na17 O54 2.736337 1_555
Na18 O52 2.560934 1_555
Na18 O59 2.604557 1_555
Na18 O57 2.605788 1_555
Na18 O53 2.609088 1_555
Na18 O51 2.611972 1_555
Na18 O58 2.664902 1_555
Na19 O60 2.550218 1_555
Na19 O67 2.616757 1_555
Na19 O68 2.633514 1_555
Na19 O62 2.724161 1_555
Na19 O61 2.751374 1_555
Na19 O66 2.841428 1_555
Na20 O65 2.636533 1_555
Na20 O63 2.650449 1_555
Na20 O64 2.654880 1_555
Na20 O71 2.690810 1_555
Na20 O69 2.698736 1_555
Na20 O70 2.698833 1_555
Ca0 O8 2.204182 1_655
Ca0 O6 2.217587 1_555
Ca0 O7 2.227635 1_665
Ca0 O42 2.295817 1_565
Ca0 O43 2.306987 1_665
Ca0 O44 2.330315 1_555
Ca1 O10 2.198486 1_555
Ca1 O9 2.213117 1_445
Ca1 O46 2.264045 1_455
Ca1 O11 2.265270 1_545
Ca1 O47 2.316670 1_555
Ca1 O45 2.321516 1_445
Ca2 O25 2.258956 1_554
Ca2 O26 2.264403 1_554
Ca2 O61 2.289034 1_555
Ca2 O24 2.325336 1_554
Ca2 O62 2.325662 1_555
Ca2 O60 2.342391 1_555
Ca3 O29 2.255642 1_555
Ca3 O27 2.256748 1_555
Ca3 O63 2.275069 1_555
Ca3 O65 2.352849 1_555
Ca3 O28 2.352858 1_555
Ca3 O64 2.358098 1_555
Ca4 O32 2.253877 1_555
Ca4 O31 2.274408 1_555
Ca4 O30 2.276362 1_555
Ca4 O67 2.301555 1_555
Ca4 O68 2.307568 1_555
Ca4 O66 2.346933 1_555
Ca5 O34 2.231738 1_555
Ca5 O33 2.249205 1_555
Ca5 O70 2.291278 1_555
Ca5 O71 2.306555 1_555
Ca5 O35 2.315576 1_555
Ca5 O69 2.321922 1_555
In0 O1 2.118256 1_555
In0 O2 2.150685 1_565
In0 O37 2.174760 1_555
In0 O36 2.189751 1_555
In0 O0 2.210235 1_665
In0 O38 2.304631 1_665
In1 O5 2.105476 1_455
In1 O3 2.142330 1_555
In1 O4 2.163589 1_445
In1 O39 2.177935 1_555
In1 O40 2.209883 1_545
In1 O41 2.346369 1_445
In2 O13 2.112398 1_555
In2 O12 2.120740 1_555
In2 O14 2.122828 1_555
In2 O49 2.208321 1_555
In2 O48 2.213478 1_555
In2 O50 2.215870 1_555
In3 O17 2.085265 1_555
In3 O15 2.110137 1_555
In3 O16 2.130522 1_555
In3 O51 2.171007 1_555
In3 O52 2.226172 1_555
In3 O53 2.326903 1_555
In4 O20 2.054278 1_556
In4 O18 2.124041 1_556
In4 O19 2.139919 1_556
In4 O55 2.157474 1_555
In4 O56 2.182128 1_555
In4 O54 2.335580 1_555
In5 O21 2.077599 1_555
In5 O23 2.097789 1_555
In5 O22 2.115507 1_555
In5 O57 2.165765 1_555
In5 O59 2.213864 1_555
In5 O58 2.289792 1_555
O0 S0 1.487565 1_555
O1 P0 1.578724 1_555
O2 P1 1.577515 1_555
O3 P2 1.568777 1_555
O4 P3 1.573021 1_555
O5 P4 1.559653 1_555
O6 P4 1.529980 1_565
O7 P2 1.529957 1_555
O8 P3 1.526960 1_455
O9 P0 1.534140 1_555
O10 P1 1.524849 1_455
O11 S0 1.476947 1_565
O12 P5 1.558627 1_555
O13 P6 1.559292 1_555
O14 P7 1.559198 1_555
O15 P8 1.557350 1_555
O16 P9 1.562006 1_555
O17 P10 1.545882 1_555
O18 P10 1.557996 1_555
O19 P8 1.557670 1_555
O20 P9 1.541195 1_555
O21 P6 1.544747 1_555
O22 P7 1.556415 1_555
O23 P5 1.553549 1_555
O24 S1 1.481641 1_555
O25 P11 1.545788 1_555
O26 P12 1.542369 1_555
O27 P13 1.539542 1_555
O28 S2 1.487890 1_555
O29 P14 1.532974 1_555
O30 P14 1.535850 1_555
O31 P13 1.527886 1_555
O32 S2 1.469340 1_555
O33 P11 1.539025 1_555
O34 P12 1.525133 1_555
O35 S1 1.471054 1_555
O36 P14 1.575401 1_655
O37 P13 1.593915 1_555
O38 S2 1.498730 1_555
O39 P11 1.569427 1_555
O40 P12 1.591766 1_555
O41 S1 1.497297 1_555
O42 P5 1.545732 1_555
O43 P6 1.547862 1_555
O44 P7 1.548422 1_555
O45 P8 1.548692 1_555
O46 P9 1.547989 1_555
O47 P10 1.551528 1_555
O48 P4 1.576632 1_555
O49 P2 1.571876 1_555
O50 P3 1.574076 1_555
O51 P0 1.572146 1_555
O52 P1 1.593730 1_555
O53 S0 1.494213 1_555
O54 S1 1.508404 1_555
O55 P11 1.573231 1_655
O56 P12 1.570682 1_545
O57 P13 1.570264 1_545
O58 S2 1.495852 1_555
O59 P14 1.592465 1_655
O60 P10 1.551773 1_555
O61 P8 1.549633 1_455
O62 P9 1.549416 1_565
O63 P6 1.549817 1_565
O64 P7 1.550159 1_555
O65 P5 1.549561 1_455
O66 S0 1.490622 1_565
O67 P0 1.537918 1_555
O68 P1 1.538074 1_455
O69 P2 1.546473 1_555
O70 P3 1.546536 1_455
O71 P4 1.546432 1_565
