# generated using pymatgen
data_Na6MgSi2Ge3(PO6)4
_symmetry_space_group_name_H-M   'P 1'
_cell_length_a   15.12814912
_cell_length_b   8.72343487
_cell_length_c   8.74979572
_cell_angle_alpha   89.70849012
_cell_angle_beta   124.91258013
_cell_angle_gamma   90.07062189
_symmetry_Int_Tables_number   1
_chemical_formula_structural   Na6MgSi2Ge3(PO6)4
_chemical_formula_sum   'Na12 Mg2 Si4 Ge6 P8 O48'
_cell_volume   946.87455740
_cell_formula_units_Z   2
loop_
 _symmetry_equiv_pos_site_id
 _symmetry_equiv_pos_as_xyz
  1  'x, y, z'
loop_
 _atom_site_type_symbol
 _atom_site_label
 _atom_site_symmetry_multiplicity
 _atom_site_fract_x
 _atom_site_fract_y
 _atom_site_fract_z
 _atom_site_occupancy
  Na  Na0  1  0.25012657  0.74860306  0.99904827  1
  Na  Na1  1  0.74759796  0.74675210  0.48922744  1
  Na  Na2  1  0.75012657  0.24860306  0.99904827  1
  Na  Na3  1  0.24759796  0.24675210  0.48922744  1
  Na  Na4  1  0.50587442  0.09382472  0.76072555  1
  Na  Na5  1  0.50054208  0.88947943  0.24054960  1
  Na  Na6  1  0.00587442  0.59382472  0.76072555  1
  Na  Na7  1  0.00054208  0.38947943  0.24054960  1
  Na  Na8  1  0.80337735  0.92472993  0.21230690  1
  Na  Na9  1  0.18447746  0.07869971  0.79679886  1
  Na  Na10  1  0.30337735  0.42472993  0.21230690  1
  Na  Na11  1  0.68447746  0.57869971  0.79679886  1
  Mg  Mg0  1  0.10465522  0.24582427  0.06380223  1
  Mg  Mg1  1  0.60465522  0.74582427  0.06380223  1
  Si  Si0  1  0.65006232  0.89963770  0.74689900  1
  Si  Si1  1  0.35766310  0.10091962  0.25785872  1
  Si  Si2  1  0.15006232  0.39963770  0.74689900  1
  Si  Si3  1  0.85766310  0.60091962  0.25785872  1
  Ge  Ge0  1  0.10376795  0.74910623  0.56178003  1
  Ge  Ge1  1  0.89458200  0.75209094  0.93618386  1
  Ge  Ge2  1  0.89843570  0.25256856  0.44076637  1
  Ge  Ge3  1  0.60376795  0.24910623  0.56178003  1
  Ge  Ge4  1  0.39458200  0.25209094  0.93618386  1
  Ge  Ge5  1  0.39843570  0.75256856  0.44076637  1
  P  P0  1  0.99501078  0.95712143  0.74491681  1
  P  P1  1  0.00100426  0.03615974  0.25650696  1
  P  P2  1  0.49501078  0.45712143  0.74491681  1
  P  P3  1  0.50100426  0.53615974  0.25650696  1
  P  P4  1  0.35236745  0.89327084  0.75175738  1
  P  P5  1  0.64681770  0.11869743  0.25123395  1
  P  P6  1  0.85236745  0.39327084  0.75175738  1
  P  P7  1  0.14681770  0.61869743  0.25123395  1
  O  O0  1  0.15530540  0.58756539  0.73031731  1
  O  O1  1  0.84845496  0.57433153  0.75383766  1
  O  O2  1  0.85683830  0.41081550  0.26558335  1
  O  O3  1  0.15236512  0.44278428  0.24811687  1
  O  O4  1  0.65530540  0.08756539  0.73031731  1
  O  O5  1  0.34845496  0.07433153  0.75383766  1
  O  O6  1  0.35683830  0.91081550  0.26558335  1
  O  O7  1  0.65236512  0.94278428  0.24811687  1
  O  O8  1  0.42003881  0.55174221  0.56039509  1
  O  O9  1  0.56490748  0.55670259  0.91297853  1
  O  O10  1  0.57005036  0.44028486  0.43752804  1
  O  O11  1  0.43032629  0.43180316  0.08249920  1
  O  O12  1  0.92003881  0.05174221  0.56039509  1
  O  O13  1  0.06490748  0.05670259  0.91297853  1
  O  O14  1  0.07005036  0.94028486  0.43752804  1
  O  O15  1  0.93032629  0.93180316  0.08249920  1
  O  O16  1  0.24763685  0.83714176  0.72970235  1
  O  O17  1  0.75193785  0.81437316  0.76063075  1
  O  O18  1  0.74526006  0.18753339  0.26247840  1
  O  O19  1  0.26061771  0.18201020  0.24802418  1
  O  O20  1  0.74763685  0.33714176  0.72970235  1
  O  O21  1  0.25193785  0.31437316  0.76063075  1
  O  O22  1  0.24526006  0.68753339  0.26247840  1
  O  O23  1  0.76061771  0.68201020  0.24802418  1
  O  O24  1  0.35693164  0.86049822  0.58049447  1
  O  O25  1  0.64796595  0.87523261  0.92586912  1
  O  O26  1  0.64556149  0.15834536  0.42101494  1
  O  O27  1  0.36055287  0.12891528  0.07034855  1
  O  O28  1  0.85693164  0.36049822  0.58049447  1
  O  O29  1  0.14796595  0.37523261  0.92586912  1
  O  O30  1  0.14556149  0.65834536  0.42101494  1
  O  O31  1  0.86055287  0.62891528  0.07034855  1
  O  O32  1  0.44876255  0.83090346  0.93293921  1
  O  O33  1  0.54259774  0.81376174  0.56247473  1
  O  O34  1  0.54405679  0.18163784  0.06481937  1
  O  O35  1  0.46837787  0.17181824  0.44027858  1
  O  O36  1  0.94876255  0.33090346  0.93293921  1
  O  O37  1  0.04259774  0.31376174  0.56247473  1
  O  O38  1  0.04405679  0.68163784  0.06481937  1
  O  O39  1  0.96837787  0.67181824  0.44027858  1
  O  O40  1  0.07786314  0.85492991  0.73421856  1
  O  O41  1  0.92020461  0.84164706  0.75676251  1
  O  O42  1  0.91235365  0.12906968  0.25983432  1
  O  O43  1  0.07467020  0.14866689  0.24849201  1
  O  O44  1  0.57786314  0.35492991  0.73421856  1
  O  O45  1  0.42020461  0.34164706  0.75676251  1
  O  O46  1  0.41235365  0.62906968  0.25983432  1
  O  O47  1  0.57467020  0.64866689  0.24849201  1
loop_
_geom_bond_atom_site_label_1
_geom_bond_atom_site_label_2
_geom_bond_distance
_geom_bond_site_symmetry_2
Na0 O0 2.393280 1_555
Na0 O6 2.401207 1_556
Na0 O22 2.404936 1_556
Na0 O46 2.426748 1_556
Na0 O16 2.456022 1_555
Na0 O40 2.468404 1_555
Na1 O23 2.302196 1_555
Na1 O47 2.391254 1_555
Na1 O17 2.413977 1_555
Na1 O1 2.424350 1_555
Na1 O7 2.437412 1_555
Na1 O41 2.449714 1_555
Na2 O4 2.393280 1_555
Na2 O2 2.401207 1_556
Na2 O18 2.404936 1_556
Na2 O42 2.426748 1_556
Na2 O20 2.456022 1_555
Na2 O44 2.468404 1_555
Na3 O19 2.302196 1_555
Na3 O43 2.391254 1_555
Na3 O21 2.413977 1_555
Na3 O5 2.424350 1_555
Na3 O3 2.437412 1_555
Na3 O45 2.449714 1_555
Na4 O5 2.353454 1_555
Na4 O4 2.423443 1_555
Na4 O34 2.502098 1_556
Na4 O45 2.511819 1_555
Na4 O44 2.589506 1_555
Na4 O25 2.602210 1_545
Na4 O35 2.609064 1_555
Na4 O24 2.767827 1_545
Na5 O7 2.306407 1_555
Na5 O6 2.314143 1_555
Na5 O47 2.364429 1_555
Na5 O32 2.391383 1_554
Na5 O33 2.589610 1_555
Na5 O46 2.686103 1_555
Na5 O27 2.726655 1_565
Na6 O1 2.353454 1_455
Na6 O0 2.423443 1_555
Na6 O38 2.502098 1_556
Na6 O41 2.511819 1_455
Na6 O40 2.589506 1_555
Na6 O29 2.602210 1_555
Na6 O39 2.609064 1_455
Na6 O28 2.767827 1_455
Na7 O3 2.306407 1_555
Na7 O2 2.314143 1_455
Na7 O43 2.364429 1_555
Na7 O36 2.391383 1_454
Na7 O37 2.589610 1_555
Na7 O42 2.686103 1_455
Na7 O31 2.726655 1_455
Na8 O23 2.284858 1_555
Na8 O25 2.293281 1_554
Na8 O42 2.298665 1_565
Na8 O7 2.482505 1_555
Na8 O18 2.584280 1_565
Na8 O15 2.734588 1_555
Na8 O12 2.737772 1_565
Na9 O40 2.388279 1_545
Na9 O27 2.392909 1_556
Na9 O21 2.392951 1_555
Na9 O16 2.521430 1_545
Na9 O13 2.538536 1_555
Na9 O5 2.713718 1_555
Na9 O37 2.818896 1_555
Na9 O14 2.853252 1_545
Na10 O19 2.284858 1_555
Na10 O29 2.293281 1_554
Na10 O46 2.298665 1_555
Na10 O3 2.482505 1_555
Na10 O22 2.584280 1_555
Na10 O11 2.734588 1_555
Na10 O8 2.737772 1_555
Na11 O44 2.388279 1_555
Na11 O31 2.392909 1_556
Na11 O17 2.392951 1_555
Na11 O20 2.521430 1_555
Na11 O9 2.538536 1_555
Na11 O1 2.713718 1_555
Na11 O33 2.818896 1_555
Na11 O10 2.853252 1_555
Mg0 O13 1.984015 1_554
Mg0 O29 2.012392 1_554
Mg0 O19 2.028747 1_555
Mg0 O36 2.080499 1_454
Mg0 O43 2.088001 1_555
Mg0 O3 2.183268 1_555
Mg1 O9 1.984015 1_554
Mg1 O25 2.012392 1_554
Mg1 O23 2.028747 1_555
Mg1 O32 2.080499 1_554
Mg1 O47 2.088001 1_555
Mg1 O7 2.183268 1_555
Ge0 O39 1.814208 1_455
Ge0 O0 1.853063 1_555
Ge0 O30 1.856380 1_555
Ge0 O14 1.890069 1_555
Ge0 O16 1.957686 1_555
Ge0 O40 1.993525 1_555
Ge1 O31 1.864194 1_556
Ge1 O17 1.873918 1_555
Ge1 O15 1.901320 1_556
Ge1 O38 1.959849 1_656
Ge1 O41 1.976992 1_555
Ge1 O1 2.045782 1_555
Ge2 O37 1.876121 1_655
Ge2 O2 1.878213 1_555
Ge2 O28 1.915012 1_555
Ge2 O12 1.965392 1_555
Ge2 O18 1.998273 1_555
Ge2 O42 2.027488 1_555
Ge3 O35 1.814208 1_555
Ge3 O4 1.853063 1_555
Ge3 O26 1.856380 1_555
Ge3 O10 1.890069 1_555
Ge3 O20 1.957686 1_555
Ge3 O44 1.993525 1_555
Ge4 O27 1.864194 1_556
Ge4 O21 1.873918 1_555
Ge4 O11 1.901320 1_556
Ge4 O34 1.959849 1_556
Ge4 O45 1.976992 1_555
Ge4 O5 2.045782 1_555
Ge5 O33 1.876121 1_555
Ge5 O6 1.878213 1_555
Ge5 O24 1.915012 1_555
Ge5 O8 1.965392 1_555
Ge5 O22 1.998273 1_555
Ge5 O46 2.027488 1_555
O0 Si2 1.650855 1_555
O1 P6 1.581240 1_555
O2 Si3 1.659716 1_555
O3 P7 1.538196 1_555
O4 Si0 1.650855 1_545
O5 P4 1.581240 1_545
O6 Si1 1.659716 1_565
O7 P5 1.538196 1_565
O8 P2 1.570695 1_555
O9 P2 1.505326 1_555
O10 P3 1.547321 1_555
O11 P3 1.561529 1_555
O12 P0 1.570695 1_545
O13 P0 1.505326 1_445
O14 P1 1.547321 1_565
O15 P1 1.561529 1_665
O16 P4 1.560871 1_555
O17 Si0 1.653146 1_555
O18 P5 1.555253 1_555
O19 Si1 1.587610 1_555
O20 P6 1.560871 1_555
O21 Si2 1.653146 1_555
O22 P7 1.555253 1_555
O23 Si3 1.587610 1_555
O24 P4 1.566810 1_555
O25 Si0 1.597490 1_555
O26 P5 1.537661 1_555
O27 Si1 1.682667 1_555
O28 P6 1.566810 1_555
O29 Si2 1.597490 1_555
O30 P7 1.537661 1_555
O31 Si3 1.682667 1_555
O32 P4 1.510868 1_555
O33 Si0 1.677671 1_555
O34 P5 1.571363 1_555
O35 Si1 1.637952 1_555
O36 P6 1.510868 1_555
O37 Si2 1.677671 1_555
O38 P7 1.571363 1_555
O39 Si3 1.637952 1_555
O40 P0 1.585051 1_455
O41 P0 1.560945 1_555
O42 P1 1.582391 1_655
O43 P1 1.515314 1_555
O44 P2 1.585051 1_555
O45 P2 1.560945 1_555
O46 P3 1.582391 1_555
O47 P3 1.515314 1_555
