# generated using pymatgen
data_Na14Ti8Si11SO48
_symmetry_space_group_name_H-M   'P 1'
_cell_length_a   17.94512255
_cell_length_b   8.97696383
_cell_length_c   21.91251256
_cell_angle_alpha   90.04558692
_cell_angle_beta   90.03169578
_cell_angle_gamma   120.00603757
_symmetry_Int_Tables_number   1
_chemical_formula_structural   Na14Ti8Si11SO48
_chemical_formula_sum   'Na42 Ti24 Si33 S3 O144'
_cell_volume   3056.83424017
_cell_formula_units_Z   3
loop_
 _symmetry_equiv_pos_site_id
 _symmetry_equiv_pos_as_xyz
  1  'x, y, z'
loop_
 _atom_site_type_symbol
 _atom_site_label
 _atom_site_symmetry_multiplicity
 _atom_site_fract_x
 _atom_site_fract_y
 _atom_site_fract_z
 _atom_site_occupancy
  Na  Na0  1  0.31464737  0.99988505  0.24993072  1
  Na  Na1  1  0.81445763  0.00002025  0.25000307  1
  Na  Na2  1  0.31543440  0.63045378  0.75133119  1
  Na  Na3  1  0.81325909  0.62646763  0.74886436  1
  Na  Na4  1  0.50040131  0.36887584  0.75153201  1
  Na  Na5  1  0.68635796  0.00204048  0.74875205  1
  Na  Na6  1  0.14830016  0.33552392  0.58299269  1
  Na  Na7  1  0.64763142  0.33288907  0.58473654  1
  Na  Na8  1  0.01885204  0.69803617  0.58265539  1
  Na  Na9  1  0.51986438  0.70759725  0.58303346  1
  Na  Na10  1  0.33288466  0.95859083  0.58351213  1
  Na  Na11  1  0.83193364  0.96591056  0.58302302  1
  Na  Na12  1  0.14835793  0.96148280  0.08419015  1
  Na  Na13  1  0.64829305  0.96302087  0.08425145  1
  Na  Na14  1  0.33173192  0.70012379  0.08303985  1
  Na  Na15  1  0.83152508  0.69921867  0.08343254  1
  Na  Na16  1  0.01989221  0.33921712  0.08265128  1
  Na  Na17  1  0.51950770  0.33796081  0.08262463  1
  Na  Na18  1  0.47967132  0.66668136  0.91600972  1
  Na  Na19  1  0.98256816  0.66183519  0.91724258  1
  Na  Na20  1  0.35244948  0.03851451  0.91689032  1
  Na  Na21  1  0.85073177  0.04010674  0.91725340  1
  Na  Na22  1  0.16753191  0.30036188  0.91699695  1
  Na  Na23  1  0.66625029  0.29136710  0.91568953  1
  Na  Na24  1  0.48165076  0.30037070  0.41665337  1
  Na  Na25  1  0.98190577  0.30106104  0.41670222  1
  Na  Na26  1  0.16720917  0.03732659  0.41573910  1
  Na  Na27  1  0.66688140  0.03789418  0.41594174  1
  Na  Na28  1  0.35050737  0.66194861  0.41735503  1
  Na  Na29  1  0.85052054  0.66063382  0.41735710  1
  Na  Na30  1  0.00243656  0.00302617  0.49945668  1
  Na  Na31  1  0.50138371  0.99937746  0.50151744  1
  Na  Na32  1  0.00296367  0.00332021  0.00062784  1
  Na  Na33  1  0.50088076  0.99936743  0.99840011  1
  Na  Na34  1  0.32980539  0.32208689  0.83290942  1
  Na  Na35  1  0.84016014  0.33553112  0.83105885  1
  Na  Na36  1  0.33705763  0.34917730  0.33044478  1
  Na  Na37  1  0.83696681  0.34931980  0.33056628  1
  Na  Na38  1  0.16242129  0.65101976  0.16932174  1
  Na  Na39  1  0.66247262  0.65071654  0.16963515  1
  Na  Na40  1  0.16234228  0.67357595  0.66934693  1
  Na  Na41  1  0.66715688  0.66738680  0.66655543  1
  Ti  Ti0  1  0.99178212  0.99400604  0.35465612  1
  Ti  Ti1  1  0.49171021  0.99420363  0.35489672  1
  Ti  Ti2  1  0.99309206  0.98922813  0.85565113  1
  Ti  Ti3  1  0.49837169  0.00010502  0.85250334  1
  Ti  Ti4  1  0.99527801  0.98364393  0.64436967  1
  Ti  Ti5  1  0.49914936  0.99929705  0.64749737  1
  Ti  Ti6  1  0.99472909  0.00595119  0.14535060  1
  Ti  Ti7  1  0.49460184  0.00603897  0.14512515  1
  Ti  Ti8  1  0.33669924  0.32890257  0.68441253  1
  Ti  Ti9  1  0.83751299  0.33585231  0.68866945  1
  Ti  Ti10  1  0.34061048  0.35041899  0.18622664  1
  Ti  Ti11  1  0.84059088  0.35057574  0.18617067  1
  Ti  Ti12  1  0.33340157  0.33602874  0.98005372  1
  Ti  Ti13  1  0.83288655  0.33322733  0.97993995  1
  Ti  Ti14  1  0.33314032  0.33324032  0.47956668  1
  Ti  Ti15  1  0.83403737  0.33123167  0.47983414  1
  Ti  Ti16  1  0.16692467  0.66586297  0.02015000  1
  Ti  Ti17  1  0.66693618  0.66729669  0.02045421  1
  Ti  Ti18  1  0.16627992  0.66567918  0.52026357  1
  Ti  Ti19  1  0.66608675  0.66715075  0.51977446  1
  Ti  Ti20  1  0.16530373  0.64966165  0.31383026  1
  Ti  Ti21  1  0.66526031  0.64920362  0.31387427  1
  Ti  Ti22  1  0.16543317  0.68019852  0.81467103  1
  Ti  Ti23  1  0.66668825  0.66756377  0.81258366  1
  Si  Si0  1  0.35328744  0.70586192  0.24981135  1
  Si  Si1  1  0.85317064  0.70568543  0.24979559  1
  Si  Si2  1  0.00040535  0.29430461  0.25020392  1
  Si  Si3  1  0.50038570  0.29414081  0.25020008  1
  Si  Si4  1  0.64479698  0.28925377  0.75017168  1
  Si  Si5  1  0.00286505  0.71014963  0.74992833  1
  Si  Si6  1  0.49839745  0.70874811  0.75013769  1
  Si  Si7  1  0.35230155  0.99766452  0.74974001  1
  Si  Si8  1  0.85644630  0.00369403  0.75010250  1
  Si  Si9  1  0.47894926  0.33323877  0.58200458  1
  Si  Si10  1  0.97839073  0.33336570  0.58352439  1
  Si  Si11  1  0.18933289  0.04519195  0.58249346  1
  Si  Si12  1  0.68972523  0.04670332  0.58418654  1
  Si  Si13  1  0.33282643  0.62050865  0.58449740  1
  Si  Si14  1  0.83155390  0.61693830  0.58374102  1
  Si  Si15  1  0.47950053  0.62608800  0.08239312  1
  Si  Si16  1  0.97946168  0.62572656  0.08205109  1
  Si  Si17  1  0.33135068  0.04689934  0.08467455  1
  Si  Si18  1  0.83136677  0.04643673  0.08503577  1
  Si  Si19  1  0.18999331  0.33258917  0.08386805  1
  Si  Si20  1  0.68990461  0.33250471  0.08379255  1
  Si  Si21  1  0.30984423  0.66581615  0.91476423  1
  Si  Si22  1  0.80949388  0.66324097  0.91664253  1
  Si  Si23  1  0.02330922  0.37927350  0.91641060  1
  Si  Si24  1  0.52254920  0.37877075  0.91654667  1
  Si  Si25  1  0.16700372  0.95857840  0.91854087  1
  Si  Si26  1  0.66632509  0.95519930  0.91662145  1
  Si  Si27  1  0.30801081  0.95341481  0.41513850  1
  Si  Si28  1  0.80817695  0.95348907  0.41489678  1
  Si  Si29  1  0.16645317  0.37438978  0.41779215  1
  Si  Si30  1  0.66652960  0.37433079  0.41815519  1
  Si  Si31  1  0.02374701  0.66745604  0.41627739  1
  Si  Si32  1  0.52338469  0.66734455  0.41592107  1
  S  S0  1  0.14340199  0.00005846  0.24997118  1
  S  S1  1  0.64327985  -0.00000730  0.24999641  1
  S  S2  1  0.14359027  0.28727679  0.74983924  1
  O  O0  1  0.10012347  0.01291812  0.30587469  1
  O  O1  1  0.60022732  0.01290028  0.30582527  1
  O  O2  1  0.41189269  0.80215916  0.31125322  1
  O  O3  1  0.91185254  0.80213329  0.31123690  1
  O  O4  1  0.48843147  0.16743924  0.30912809  1
  O  O5  1  0.98852345  0.16736525  0.30911024  1
  O  O6  1  0.10168016  0.18779458  0.80576591  1
  O  O7  1  0.59685763  0.16636112  0.80967959  1
  O  O8  1  0.48358736  0.80244004  0.80969226  1
  O  O9  1  0.99016312  0.81124807  0.80923087  1
  O  O10  1  0.41479452  0.03093663  0.80987761  1
  O  O11  1  0.91372294  0.02215019  0.81141977  1
  O  O12  1  0.40094856  0.97223548  0.68975052  1
  O  O13  1  0.90539950  0.97563788  0.69104864  1
  O  O14  1  0.09431916  0.20009551  0.69390463  1
  O  O15  1  0.58281676  0.19647839  0.69035135  1
  O  O16  1  0.01278428  0.82672350  0.68851884  1
  O  O17  1  0.51352921  0.83133820  0.69026017  1
  O  O18  1  0.40464398  0.83267293  0.19087881  1
  O  O19  1  0.90459234  0.83258960  0.19089935  1
  O  O20  1  0.01067717  0.19744591  0.18887996  1
  O  O21  1  0.51072359  0.19773819  0.18880725  1
  O  O22  1  0.09370541  0.98742450  0.19416207  1
  O  O23  1  0.59382706  0.98744796  0.19414608  1
  O  O24  1  0.43430429  0.36658019  0.64263483  1
  O  O25  1  0.92981619  0.36789580  0.64035687  1
  O  O26  1  0.25507893  0.14389916  0.63960164  1
  O  O27  1  0.75069102  0.13636078  0.64376189  1
  O  O28  1  0.31796154  0.49916943  0.64442519  1
  O  O29  1  0.81587199  0.49921728  0.64385802  1
  O  O30  1  0.43380754  0.49514346  0.14029504  1
  O  O31  1  0.93335552  0.49531265  0.14010113  1
  O  O32  1  0.31589269  0.13366465  0.14470846  1
  O  O33  1  0.81597838  0.13379208  0.14487244  1
  O  O34  1  0.25640223  0.36696504  0.13995012  1
  O  O35  1  0.75636018  0.36699177  0.13989762  1
  O  O36  1  0.23268746  0.29923302  0.02229768  1
  O  O37  1  0.73326155  0.29955579  0.02232717  1
  O  O38  1  0.41757188  0.53885109  0.02241758  1
  O  O39  1  0.91751450  0.53785324  0.02200726  1
  O  O40  1  0.34957126  0.17066160  0.02465746  1
  O  O41  1  0.84941431  0.16932346  0.02469578  1
  O  O42  1  0.23219789  0.16508689  0.52173675  1
  O  O43  1  0.73598883  0.16834372  0.52391795  1
  O  O44  1  0.34791814  0.52786286  0.52450161  1
  O  O45  1  0.85018652  0.53093689  0.52381039  1
  O  O46  1  0.41723274  0.30330796  0.52283943  1
  O  O47  1  0.91809103  0.29710329  0.52237577  1
  O  O48  1  0.26350761  0.69623666  0.97502779  1
  O  O49  1  0.76690047  0.69906836  0.97675027  1
  O  O50  1  0.08280113  0.46486635  0.97787081  1
  O  O51  1  0.58402255  0.47063371  0.97641721  1
  O  O52  1  0.14801498  0.83422869  0.97811961  1
  O  O53  1  0.65206580  0.83333434  0.97646489  1
  O  O54  1  0.26454078  0.82997125  0.47535240  1
  O  O55  1  0.76483553  0.83098116  0.47522027  1
  O  O56  1  0.14824319  0.46194600  0.47771525  1
  O  O57  1  0.64843300  0.46272101  0.47787844  1
  O  O58  1  0.08329171  0.70064613  0.47786691  1
  O  O59  1  0.58309818  0.70044309  0.47750079  1
  O  O60  1  0.07285842  0.63301643  0.36019237  1
  O  O61  1  0.57253286  0.63233497  0.36000256  1
  O  O62  1  0.24905209  0.86624314  0.35514384  1
  O  O63  1  0.74917589  0.86645133  0.35499179  1
  O  O64  1  0.18574684  0.50469241  0.35975794  1
  O  O65  1  0.68587311  0.50481469  0.36000731  1
  O  O66  1  0.07172782  0.51151701  0.86020200  1
  O  O67  1  0.56870225  0.50097447  0.85670577  1
  O  O68  1  0.18562024  0.86631724  0.86036217  1
  O  O69  1  0.68211919  0.86393508  0.85661567  1
  O  O70  1  0.24948674  0.63214049  0.85498826  1
  O  O71  1  0.75004135  0.63607779  0.85652211  1
  O  O72  1  0.01467025  0.84016463  0.41067293  1
  O  O73  1  0.51467548  0.84028090  0.41050025  1
  O  O74  1  0.40505105  0.97257419  0.41202974  1
  O  O75  1  0.90531291  0.97294513  0.41201450  1
  O  O76  1  0.08141313  0.18378519  0.41095390  1
  O  O77  1  0.58149728  0.18406522  0.41091917  1
  O  O78  1  0.01498077  0.18893293  0.91068565  1
  O  O79  1  0.51321333  0.18810207  0.91299601  1
  O  O80  1  0.08211419  0.98007257  0.91114099  1
  O  O81  1  0.58001607  0.97252817  0.91298449  1
  O  O82  1  0.40521998  0.83954203  0.91219761  1
  O  O83  1  0.90628338  0.83733124  0.91271369  1
  O  O84  1  0.48668331  0.16021496  0.58612202  1
  O  O85  1  0.98927418  0.16340449  0.59021735  1
  O  O86  1  0.09431525  0.02863577  0.58863576  1
  O  O87  1  0.59406262  0.02742458  0.58738340  1
  O  O88  1  0.41919204  0.81125844  0.58763627  1
  O  O89  1  0.91908115  0.81114065  0.58724768  1
  O  O90  1  0.48956436  0.81620768  0.08934216  1
  O  O91  1  0.98940952  0.81593538  0.08909257  1
  O  O92  1  0.41871756  0.02721377  0.08787156  1
  O  O93  1  0.91887917  0.02721773  0.08788386  1
  O  O94  1  0.09446849  0.15994696  0.08950432  1
  O  O95  1  0.59457562  0.15988710  0.08937482  1
  O  O96  1  0.34698381  0.17459272  0.74492870  1
  O  O97  1  0.84453597  0.17089980  0.74668791  1
  O  O98  1  0.23156807  0.30598423  0.74810533  1
  O  O99  1  0.73930623  0.30689175  0.74727891  1
  O  O100  1  0.41158380  0.51835806  0.74684922  1
  O  O101  1  0.91257018  0.52698084  0.74641011  1
  O  O102  1  0.34464619  0.51708065  0.24515864  1
  O  O103  1  0.84464479  0.51708551  0.24524096  1
  O  O104  1  0.40977609  0.29658017  0.24710030  1
  O  O105  1  0.90979542  0.29660337  0.24707735  1
  O  O106  1  0.23048366  0.15504445  0.24889728  1
  O  O107  1  0.73062314  0.15518020  0.24889188  1
  O  O108  1  0.31976177  0.49412873  0.92038252  1
  O  O109  1  0.82005563  0.49352821  0.91993644  1
  O  O110  1  0.42737416  0.36096099  0.92052519  1
  O  O111  1  0.92719282  0.35751625  0.92082414  1
  O  O112  1  0.25356774  0.14770530  0.92157048  1
  O  O113  1  0.75311435  0.14515918  0.92079093  1
  O  O114  1  0.32028175  0.14593999  0.42060490  1
  O  O115  1  0.82038005  0.14614673  0.42032832  1
  O  O116  1  0.25322822  0.35905840  0.42111944  1
  O  O117  1  0.75313740  0.35819697  0.42183168  1
  O  O118  1  0.42738201  0.49684480  0.42046323  1
  O  O119  1  0.92792799  0.49627482  0.42061070  1
  O  O120  1  0.18005925  0.50412618  0.07954476  1
  O  O121  1  0.67973131  0.50357376  0.07935453  1
  O  O122  1  0.07385746  0.64116554  0.07886238  1
  O  O123  1  0.57410521  0.64201011  0.07861360  1
  O  O124  1  0.24763395  0.85373571  0.07885916  1
  O  O125  1  0.74737239  0.85363382  0.07970993  1
  O  O126  1  0.18002911  0.85487102  0.57940557  1
  O  O127  1  0.68056633  0.85566219  0.57894569  1
  O  O128  1  0.24680917  0.63947275  0.57966331  1
  O  O129  1  0.74761435  0.64182410  0.57902556  1
  O  O130  1  0.07319185  0.50638392  0.57952212  1
  O  O131  1  0.57349272  0.50668995  0.57946569  1
  O  O132  1  0.15272758  0.84489386  0.25110380  1
  O  O133  1  0.65284009  0.84486280  0.25110380  1
  O  O134  1  0.26144231  0.70336018  0.25299550  1
  O  O135  1  0.76141027  0.70330385  0.25298659  1
  O  O136  1  0.08607801  0.48316034  0.25469560  1
  O  O137  1  0.58613008  0.48320097  0.25472041  1
  O  O138  1  0.15346151  0.45988795  0.75111517  1
  O  O139  1  0.65264241  0.47893944  0.75362096  1
  O  O140  1  0.08788090  0.69137681  0.75468751  1
  O  O141  1  0.58500744  0.69169074  0.75353954  1
  O  O142  1  0.26092950  0.81919725  0.75403150  1
  O  O143  1  0.76149594  0.82752804  0.75264396  1
loop_
_geom_bond_atom_site_label_1
_geom_bond_atom_site_label_2
_geom_bond_distance
_geom_bond_site_symmetry_2
Na0 O134 2.336700 1_555
Na0 O104 2.337664 1_565
Na0 O106 2.515102 1_565
Na0 O132 2.517148 1_555
Na0 O62 2.595206 1_555
Na0 O32 2.595485 1_565
Na1 O105 2.337551 1_555
Na1 O135 2.338713 1_545
Na1 O107 2.509940 1_555
Na1 O133 2.512335 1_545
Na1 O63 2.589430 1_545
Na1 O33 2.592574 1_555
Na2 O142 2.342736 1_555
Na2 O100 2.394971 1_555
Na2 O138 2.518251 1_555
Na2 O98 2.523728 1_555
Na2 O70 2.565306 1_555
Na2 O28 2.632082 1_555
Na2 O8 2.908177 1_555
Na2 O12 2.981456 1_555
Na3 O101 2.359766 1_555
Na3 O143 2.409179 1_555
Na3 O99 2.486850 1_555
Na3 O139 2.501007 1_555
Na3 O29 2.578951 1_555
Na3 O71 2.638194 1_555
Na4 O139 2.396258 1_555
Na4 O96 2.416391 1_555
Na4 O141 2.510780 1_555
Na4 O100 2.547694 1_555
Na4 O67 2.599727 1_555
Na4 O24 2.659633 1_555
Na4 O10 2.923147 1_555
Na4 O15 2.944114 1_555
Na5 O99 2.406759 1_555
Na5 O141 2.452215 1_545
Na5 O97 2.460437 1_555
Na5 O143 2.528312 1_545
Na5 O27 2.587378 1_555
Na5 O69 2.653258 1_545
Na6 O128 2.398206 1_555
Na6 O86 2.423781 1_555
Na6 O85 2.479315 1_455
Na6 O130 2.498546 1_555
Na6 O56 2.571974 1_555
Na6 O14 2.674406 1_555
Na6 O42 2.951645 1_555
Na6 O28 2.959493 1_555
Na7 O87 2.410524 1_555
Na7 O129 2.439271 1_555
Na7 O84 2.503583 1_555
Na7 O131 2.508755 1_555
Na7 O15 2.605995 1_555
Na7 O57 2.613228 1_555
Na7 O29 2.916603 1_555
Na7 O43 2.968794 1_555
Na8 O130 2.365045 1_555
Na8 O89 2.462680 1_455
Na8 O126 2.506075 1_555
Na8 O58 2.566344 1_555
Na8 O86 2.576477 1_565
Na8 O16 2.617133 1_555
Na8 O25 2.864768 1_455
Na8 O45 2.919829 1_455
Na9 O88 2.412744 1_555
Na9 O131 2.433280 1_555
Na9 O87 2.490172 1_565
Na9 O127 2.501561 1_555
Na9 O59 2.591313 1_555
Na9 O17 2.624870 1_555
Na10 O126 2.417494 1_555
Na10 O84 2.428962 1_565
Na10 O128 2.484615 1_555
Na10 O88 2.490993 1_555
Na10 O12 2.602494 1_555
Na10 O54 2.651516 1_555
Na10 O26 2.923872 1_565
Na10 O46 2.993093 1_565
Na11 O127 2.382557 1_555
Na11 O85 2.476393 1_565
Na11 O129 2.521470 1_555
Na11 O89 2.560826 1_555
Na11 O55 2.651540 1_555
Na11 O13 2.688862 1_555
Na11 O47 2.899457 1_565
Na11 O27 2.910031 1_565
Na12 O94 2.417826 1_565
Na12 O124 2.417963 1_555
Na12 O91 2.475408 1_455
Na12 O122 2.494726 1_555
Na12 O52 2.587660 1_554
Na12 O22 2.655786 1_555
Na12 O32 2.920757 1_565
Na12 O36 2.956680 1_565
Na13 O95 2.401820 1_565
Na13 O125 2.425219 1_555
Na13 O90 2.471578 1_555
Na13 O123 2.500793 1_555
Na13 O53 2.648209 1_554
Na13 O23 2.649209 1_555
Na13 O33 2.923697 1_565
Na13 O37 2.948645 1_565
Na14 O120 2.391545 1_555
Na14 O90 2.484823 1_555
Na14 O124 2.503791 1_555
Na14 O92 2.546487 1_565
Na14 O48 2.656287 1_554
Na14 O18 2.673315 1_555
Na14 O34 2.879455 1_555
Na14 O38 2.909147 1_555
Na15 O121 2.393123 1_555
Na15 O91 2.484112 1_555
Na15 O125 2.510454 1_555
Na15 O93 2.553315 1_565
Na15 O49 2.608651 1_554
Na15 O19 2.668342 1_555
Na15 O35 2.868645 1_555
Na15 O39 2.919938 1_555
Na16 O122 2.380539 1_555
Na16 O93 2.462993 1_455
Na16 O120 2.490371 1_555
Na16 O50 2.559637 1_554
Na16 O94 2.560791 1_555
Na16 O20 2.619170 1_555
Na16 O31 2.852301 1_455
Na16 O41 2.936632 1_455
Na17 O123 2.396516 1_555
Na17 O92 2.453694 1_555
Na17 O121 2.491462 1_555
Na17 O95 2.558503 1_555
Na17 O51 2.608312 1_554
Na17 O21 2.613356 1_555
Na17 O30 2.850051 1_555
Na17 O40 2.929252 1_555
Na18 O81 2.416746 1_555
Na18 O110 2.418047 1_555
Na18 O108 2.489556 1_555
Na18 O82 2.504721 1_555
Na18 O38 2.592959 1_556
Na18 O8 2.614695 1_555
Na19 O111 2.396232 1_555
Na19 O80 2.503389 1_655
Na19 O109 2.526743 1_555
Na19 O83 2.554006 1_555
Na19 O39 2.564973 1_556
Na19 O9 2.691085 1_555
Na19 O66 2.846404 1_655
Na19 O52 2.895860 1_655
Na20 O82 2.406098 1_545
Na20 O112 2.420669 1_555
Na20 O79 2.501811 1_555
Na20 O110 2.509920 1_555
Na20 O10 2.614139 1_555
Na20 O40 2.653927 1_556
Na20 O68 2.872405 1_545
Na20 O48 2.952084 1_545
Na21 O113 2.369882 1_555
Na21 O111 2.469190 1_555
Na21 O83 2.476282 1_545
Na21 O78 2.560354 1_655
Na21 O11 2.620389 1_555
Na21 O41 2.629092 1_556
Na21 O69 2.937351 1_545
Na21 O49 2.955946 1_545
Na22 O108 2.395981 1_555
Na22 O78 2.402997 1_555
Na22 O80 2.494818 1_545
Na22 O112 2.527436 1_555
Na22 O36 2.588475 1_556
Na22 O6 2.675222 1_555
Na22 O70 2.916750 1_555
Na22 O50 2.918379 1_555
Na23 O79 2.420386 1_555
Na23 O109 2.430976 1_555
Na23 O81 2.481944 1_545
Na23 O113 2.492248 1_555
Na23 O7 2.607875 1_555
Na23 O37 2.611482 1_556
Na24 O118 2.404986 1_555
Na24 O77 2.487442 1_555
Na24 O114 2.510022 1_555
Na24 O74 2.551960 1_545
Na24 O46 2.604685 1_555
Na24 O4 2.670456 1_555
Na24 O61 2.868537 1_555
Na24 O57 2.917407 1_555
Na25 O119 2.390444 1_555
Na25 O76 2.488602 1_655
Na25 O115 2.512141 1_555
Na25 O75 2.554553 1_545
Na25 O47 2.576220 1_555
Na25 O5 2.674178 1_555
Na25 O60 2.867200 1_655
Na25 O56 2.909279 1_655
Na26 O72 2.406558 1_545
Na26 O114 2.414179 1_555
Na26 O76 2.476819 1_555
Na26 O116 2.505677 1_555
Na26 O42 2.593311 1_555
Na26 O0 2.650475 1_555
Na26 O62 2.921252 1_545
Na26 O58 2.951676 1_545
Na27 O73 2.403031 1_545
Na27 O115 2.421447 1_555
Na27 O77 2.468317 1_555
Na27 O117 2.495574 1_555
Na27 O1 2.651562 1_555
Na27 O43 2.654658 1_555
Na27 O63 2.933499 1_545
Na27 O59 2.951277 1_545
Na28 O116 2.387560 1_555
Na28 O74 2.453171 1_555
Na28 O118 2.479820 1_555
Na28 O73 2.558942 1_555
Na28 O2 2.612249 1_555
Na28 O44 2.629086 1_555
Na28 O64 2.854107 1_555
Na28 O54 2.931972 1_555
Na29 O117 2.385328 1_555
Na29 O75 2.466616 1_555
Na29 O119 2.482243 1_555
Na29 O72 2.559005 1_655
Na29 O45 2.606578 1_555
Na29 O3 2.615604 1_555
Na29 O65 2.850451 1_555
Na29 O55 2.942999 1_555
Na30 O76 2.471942 1_555
Na30 O86 2.491298 1_555
Na30 O72 2.507486 1_545
Na30 O75 2.511316 1_445
Na30 O89 2.517285 1_445
Na30 O85 2.533761 1_455
Na31 O87 2.438558 1_565
Na31 O84 2.443035 1_565
Na31 O88 2.470883 1_555
Na31 O77 2.526099 1_565
Na31 O73 2.532008 1_555
Na31 O74 2.543798 1_555
Na32 O94 2.479713 1_555
Na32 O80 2.490975 1_544
Na32 O91 2.498597 1_445
Na32 O93 2.510948 1_455
Na32 O83 2.519426 1_444
Na32 O78 2.520605 1_554
Na33 O81 2.433578 1_555
Na33 O79 2.460121 1_565
Na33 O82 2.470235 1_555
Na33 O90 2.527355 1_556
Na33 O95 2.538869 1_566
Na33 O92 2.539925 1_566
Na34 O112 2.441799 1_555
Na34 O96 2.443294 1_555
Na34 O100 2.497284 1_555
Na34 O110 2.501483 1_555
Na34 O98 2.514535 1_555
Na34 O108 2.523039 1_555
Na35 O97 2.391692 1_555
Na35 O101 2.420088 1_555
Na35 O111 2.456607 1_555
Na35 O99 2.498412 1_555
Na35 O109 2.538285 1_555
Na35 O113 2.562320 1_555
Na36 O102 2.362709 1_555
Na36 O104 2.424594 1_555
Na36 O118 2.473585 1_555
Na36 O116 2.520947 1_555
Na36 O106 2.558408 1_555
Na36 O114 2.603736 1_555
Na37 O103 2.362218 1_555
Na37 O105 2.428732 1_555
Na37 O119 2.477179 1_555
Na37 O117 2.528191 1_555
Na37 O107 2.558691 1_555
Na37 O115 2.597546 1_555
Na38 O136 2.364276 1_555
Na38 O134 2.428989 1_555
Na38 O120 2.474487 1_555
Na38 O122 2.513637 1_555
Na38 O132 2.562984 1_555
Na38 O124 2.608663 1_555
Na39 O137 2.358191 1_555
Na39 O135 2.422333 1_555
Na39 O121 2.481924 1_555
Na39 O123 2.524108 1_555
Na39 O133 2.559486 1_555
Na39 O125 2.599120 1_555
Na40 O140 2.350291 1_555
Na40 O142 2.441641 1_555
Na40 O126 2.474428 1_555
Na40 O130 2.505284 1_555
Na40 O138 2.572068 1_555
Na40 O128 2.592244 1_555
Na41 O143 2.459511 1_555
Na41 O131 2.472832 1_555
Na41 O139 2.476775 1_555
Na41 O129 2.479867 1_555
Na41 O141 2.485546 1_555
Na41 O127 2.489742 1_555
O0 S0 1.485794 1_555
O0 Ti0 2.150299 1_445
O1 S1 1.482314 1_555
O1 Ti1 2.156914 1_545
O2 Si0 1.659290 1_555
O2 Ti1 1.861279 1_555
O3 Si1 1.660069 1_555
O3 Ti0 1.858548 1_555
O4 Si3 1.663023 1_555
O4 Ti1 1.876604 1_545
O5 Si2 1.664256 1_655
O5 Ti0 1.874775 1_545
O6 S2 1.481888 1_555
O6 Ti2 2.168128 1_445
O7 Si4 1.646743 1_555
O7 Ti3 1.896681 1_555
O8 Si6 1.644153 1_555
O8 Ti3 1.904007 1_565
O9 Si5 1.664208 1_655
O9 Ti2 1.871764 1_555
O10 Si7 1.657129 1_545
O10 Ti3 1.900653 1_555
O11 Si8 1.648331 1_555
O11 Ti2 1.864207 1_545
O12 Si7 1.655980 1_555
O12 Ti5 1.896228 1_555
O13 Si8 1.652773 1_565
O13 Ti4 1.881165 1_555
O14 S2 1.483813 1_555
O14 Ti4 2.157075 1_445
O15 Si4 1.648969 1_555
O15 Ti5 1.899194 1_545
O16 Si5 1.659439 1_555
O16 Ti4 1.861018 1_455
O17 Si6 1.646249 1_555
O17 Ti5 1.899764 1_555
O18 Si0 1.663489 1_555
O18 Ti7 1.877414 1_565
O19 Si1 1.663461 1_555
O19 Ti6 1.876434 1_565
O20 Si2 1.659643 1_555
O20 Ti6 1.857913 1_455
O21 Si3 1.658942 1_555
O21 Ti7 1.860225 1_555
O22 S0 1.483620 1_565
O22 Ti6 2.149413 1_465
O23 S1 1.482089 1_565
O23 Ti7 2.155842 1_565
O24 Si9 1.654356 1_555
O24 Ti8 1.852044 1_555
O25 Si10 1.636342 1_555
O25 Ti9 1.863596 1_555
O26 Si11 1.641365 1_555
O26 Ti8 1.852158 1_555
O27 Si12 1.632465 1_555
O27 Ti9 1.951328 1_555
O28 Si13 1.641371 1_555
O28 Ti8 1.932080 1_555
O29 Si14 1.623721 1_555
O29 Ti9 1.958874 1_555
O30 Si15 1.644200 1_555
O30 Ti10 1.824461 1_555
O31 Si16 1.645574 1_555
O31 Ti11 1.821825 1_555
O32 Si17 1.621423 1_555
O32 Ti10 1.985961 1_555
O33 Si18 1.620410 1_555
O33 Ti11 1.984497 1_555
O34 Si19 1.629590 1_555
O34 Ti10 1.885967 1_555
O35 Si20 1.630326 1_555
O35 Ti11 1.885705 1_555
O36 Si19 1.651316 1_555
O36 Ti12 1.907262 1_554
O37 Si20 1.654562 1_555
O37 Ti13 1.900531 1_554
O38 Si15 1.643702 1_555
O38 Ti12 1.924418 1_554
O39 Si16 1.645838 1_555
O39 Ti13 1.932850 1_554
O40 Si17 1.646291 1_555
O40 Ti12 1.917295 1_554
O41 Si18 1.647878 1_555
O41 Ti13 1.911311 1_554
O42 Si11 1.642530 1_555
O42 Ti14 1.919103 1_555
O43 Si12 1.649997 1_555
O43 Ti15 1.896826 1_555
O44 Si13 1.648421 1_555
O44 Ti14 1.904162 1_555
O45 Si14 1.639959 1_555
O45 Ti15 1.924531 1_555
O46 Si9 1.637010 1_555
O46 Ti14 1.911261 1_555
O47 Si10 1.648530 1_555
O47 Ti15 1.923298 1_555
O48 Si21 1.654551 1_555
O48 Ti16 1.893561 1_556
O49 Si22 1.633634 1_555
O49 Ti17 1.925369 1_556
O50 Si23 1.649295 1_555
O50 Ti16 1.914237 1_556
O51 Si24 1.644658 1_555
O51 Ti17 1.905304 1_556
O52 Si25 1.639801 1_555
O52 Ti16 1.939738 1_556
O53 Si26 1.644535 1_555
O53 Ti17 1.903102 1_556
O54 Si27 1.648119 1_555
O54 Ti18 1.912079 1_555
O55 Si28 1.646079 1_555
O55 Ti19 1.911507 1_555
O56 Si29 1.644515 1_555
O56 Ti18 1.929714 1_555
O57 Si30 1.644465 1_555
O57 Ti19 1.930413 1_555
O58 Si31 1.652650 1_555
O58 Ti18 1.909426 1_555
O59 Si32 1.654280 1_555
O59 Ti19 1.899817 1_555
O60 Si31 1.629648 1_555
O60 Ti20 1.886973 1_555
O61 Si32 1.629680 1_555
O61 Ti21 1.887754 1_555
O62 Si27 1.621347 1_555
O62 Ti20 1.982792 1_555
O63 Si28 1.619882 1_555
O63 Ti21 1.985243 1_555
O64 Si29 1.644102 1_555
O64 Ti20 1.822137 1_555
O65 Si30 1.646888 1_555
O65 Ti21 1.822088 1_555
O66 Si23 1.628839 1_555
O66 Ti22 1.890364 1_555
O67 Si24 1.644252 1_555
O67 Ti23 1.907133 1_555
O68 Si25 1.642655 1_555
O68 Ti22 1.821189 1_555
O69 Si26 1.646630 1_555
O69 Ti23 1.903658 1_555
O70 Si21 1.628046 1_555
O70 Ti22 1.972741 1_555
O71 Si22 1.634304 1_555
O71 Ti23 1.914664 1_555
O72 Si31 1.642623 1_555
O72 Ti0 2.037669 1_455
O73 Si32 1.640598 1_555
O73 Ti1 2.033543 1_555
O74 Si27 1.663514 1_555
O74 Ti1 1.929747 1_555
O75 Si28 1.663907 1_555
O75 Ti0 1.931928 1_555
O76 Si29 1.633002 1_555
O76 Ti0 2.065202 1_445
O77 Si30 1.631992 1_555
O77 Ti1 2.062961 1_545
O78 Si23 1.643741 1_555
O78 Ti2 2.028360 1_445
O79 Si24 1.636078 1_555
O79 Ti3 2.054905 1_555
O80 Si25 1.636427 1_555
O80 Ti2 2.041226 1_455
O81 Si26 1.634098 1_555
O81 Ti3 2.079759 1_565
O82 Si21 1.641709 1_555
O82 Ti3 2.044116 1_565
O83 Si22 1.658926 1_555
O83 Ti2 1.931276 1_555
O84 Si9 1.629644 1_555
O84 Ti5 2.066755 1_545
O85 Si10 1.638867 1_555
O85 Ti4 2.049511 1_545
O86 Si11 1.641463 1_555
O86 Ti4 2.024461 1_445
O87 Si12 1.638549 1_555
O87 Ti5 2.067065 1_545
O88 Si13 1.638362 1_555
O88 Ti5 2.049552 1_555
O89 Si14 1.665270 1_555
O89 Ti4 1.926557 1_555
O90 Si15 1.630918 1_555
O90 Ti7 2.061255 1_565
O91 Si16 1.632760 1_555
O91 Ti6 2.066904 1_565
O92 Si17 1.664683 1_555
O92 Ti7 1.929206 1_555
O93 Si18 1.664567 1_555
O93 Ti6 1.932152 1_555
O94 Si19 1.642868 1_555
O94 Ti6 2.035306 1_455
O95 Si20 1.640678 1_555
O95 Ti7 2.036001 1_555
O96 Si7 1.641553 1_545
O96 Ti8 1.992418 1_555
O97 Si8 1.620282 1_555
O97 Ti9 2.003578 1_555
O98 S2 1.502353 1_555
O98 Ti8 2.272577 1_555
O99 Si4 1.623881 1_555
O99 Ti9 2.089872 1_555
O100 Si6 1.640084 1_555
O100 Ti8 2.068461 1_555
O101 Si5 1.634024 1_655
O101 Ti9 2.010495 1_555
O102 Si0 1.625810 1_555
O102 Ti10 1.949266 1_555
O103 Si1 1.624942 1_555
O103 Ti11 1.950141 1_555
O104 Si3 1.638433 1_555
O104 Ti10 2.037789 1_555
O105 Si2 1.637820 1_655
O105 Ti11 2.039421 1_555
O106 S0 1.484521 1_555
O106 Ti10 2.325423 1_555
O107 S1 1.488019 1_555
O107 Ti11 2.324792 1_555
O108 Si21 1.642208 1_555
O108 Ti12 2.033207 1_555
O109 Si22 1.628240 1_555
O109 Ti13 2.046125 1_555
O110 Si24 1.636232 1_555
O110 Ti12 2.054453 1_555
O111 Si23 1.638834 1_655
O111 Ti13 2.055081 1_555
O112 Si25 1.631509 1_545
O112 Ti12 2.030974 1_555
O113 Si26 1.638646 1_545
O113 Ti13 2.038785 1_555
O114 Si27 1.633654 1_545
O114 Ti14 2.039054 1_555
O115 Si28 1.635257 1_545
O115 Ti15 2.027260 1_555
O116 Si29 1.631974 1_555
O116 Ti14 2.020220 1_555
O117 Si30 1.633396 1_555
O117 Ti15 2.032616 1_555
O118 Si32 1.638181 1_555
O118 Ti14 2.053190 1_555
O119 Si31 1.638497 1_655
O119 Ti15 2.055908 1_555
O120 Si19 1.639135 1_555
O120 Ti16 2.049976 1_555
O121 Si20 1.637598 1_555
O121 Ti17 2.053983 1_555
O122 Si16 1.630603 1_455
O122 Ti16 2.031270 1_555
O123 Si15 1.633072 1_555
O123 Ti17 2.018753 1_555
O124 Si17 1.635215 1_565
O124 Ti16 2.036769 1_555
O125 Si18 1.634433 1_565
O125 Ti17 2.036433 1_555
O126 Si11 1.632772 1_565
O126 Ti18 2.049840 1_555
O127 Si12 1.642884 1_565
O127 Ti19 2.041752 1_555
O128 Si13 1.638765 1_555
O128 Ti18 2.043593 1_555
O129 Si14 1.632781 1_555
O129 Ti19 2.051553 1_555
O130 Si10 1.634564 1_455
O130 Ti18 2.034116 1_555
O131 Si9 1.632186 1_555
O131 Ti19 2.039159 1_555
O132 S0 1.483916 1_565
O132 Ti20 2.326120 1_555
O133 S1 1.486052 1_565
O133 Ti21 2.328443 1_555
O134 Si0 1.638582 1_555
O134 Ti20 2.039002 1_555
O135 Si1 1.637597 1_555
O135 Ti21 2.039241 1_555
O136 Si2 1.624860 1_555
O136 Ti20 1.950356 1_555
O137 Si3 1.626489 1_555
O137 Ti21 1.948250 1_555
O138 S2 1.469210 1_555
O138 Ti22 2.338244 1_555
O139 Si4 1.638619 1_555
O139 Ti23 2.041889 1_555
O140 Si5 1.619812 1_555
O140 Ti22 1.952521 1_555
O141 Si6 1.637848 1_555
O141 Ti23 2.045777 1_555
O142 Si7 1.623919 1_555
O142 Ti22 2.031200 1_555
O143 Si8 1.646953 1_565
O143 Ti23 2.060009 1_555
