# generated using pymatgen
data_MgCu3AsS4
_symmetry_space_group_name_H-M   'P 1'
_cell_length_a   5.42162200
_cell_length_b   5.86912800
_cell_length_c   5.42162200
_cell_angle_alpha   90.00000000
_cell_angle_beta   90.00000000
_cell_angle_gamma   90.00000000
_symmetry_Int_Tables_number   1
_chemical_formula_structural   MgCu3AsS4
_chemical_formula_sum   'Mg1 Cu3 As1 S4'
_cell_volume   172.51706105
_cell_formula_units_Z   1
loop_
 _symmetry_equiv_pos_site_id
 _symmetry_equiv_pos_as_xyz
  1  'x, y, z'
loop_
 _atom_site_type_symbol
 _atom_site_label
 _atom_site_symmetry_multiplicity
 _atom_site_fract_x
 _atom_site_fract_y
 _atom_site_fract_z
 _atom_site_occupancy
  Mg  Mg0  1  0.00000000  0.50000000  0.00000000  1
  Cu  Cu0  1  0.00000000  0.50000000  0.50000000  1
  Cu  Cu1  1  0.50000000  0.50000000  0.00000000  1
  Cu  Cu2  1  0.50000000  0.00000000  0.50000000  1
  As  As0  1  0.00000000  0.00000000  0.00000000  1
  S  S0  1  0.26558500  0.73654200  0.73441500  1
  S  S1  1  0.73441500  0.73654200  0.26558500  1
  S  S2  1  0.73441500  0.26345800  0.73441500  1
  S  S3  1  0.26558500  0.26345800  0.26558500  1
loop_
_geom_bond_atom_site_label_1
_geom_bond_atom_site_label_2
_geom_bond_distance
_geom_bond_site_symmetry_2
Mg0 S0 2.464548 1_554
Mg0 S1 2.464548 1_455
Mg0 S3 2.464548 1_555
Mg0 S2 2.464548 1_454
Cu0 S0 2.369787 1_555
Cu0 S1 2.369787 1_455
Cu0 S3 2.369787 1_555
Cu0 S2 2.369787 1_455
Cu0 Mg0 2.710811 1_555
Cu0 Mg0 2.710811 1_556
Cu1 S1 2.369787 1_555
Cu1 S0 2.369787 1_554
Cu1 S2 2.369787 1_554
Cu1 S3 2.369787 1_555
Cu1 Mg0 2.710811 1_555
Cu1 Mg0 2.710811 1_655
Cu2 S2 2.370943 1_555
Cu2 S3 2.370943 1_555
Cu2 S0 2.370943 1_545
Cu2 S1 2.370943 1_545
As0 S3 2.556869 1_555
As0 S2 2.556869 1_454
As0 S0 2.556869 1_544
As0 S1 2.556869 1_445
As0 Mg0 2.934564 1_545
As0 Mg0 2.934564 1_555
