# generated using pymatgen
data_Na3Hf2In2P5SO24
_symmetry_space_group_name_H-M   'P 1'
_cell_length_a   8.93130892
_cell_length_b   8.92048096
_cell_length_c   23.11737978
_cell_angle_alpha   90.10718253
_cell_angle_beta   89.90809505
_cell_angle_gamma   119.89963181
_symmetry_Int_Tables_number   1
_chemical_formula_structural   Na3Hf2In2P5SO24
_chemical_formula_sum   'Na9 Hf6 In6 P15 S3 O72'
_cell_volume   1596.65129699
_cell_formula_units_Z   3
loop_
 _symmetry_equiv_pos_site_id
 _symmetry_equiv_pos_as_xyz
  1  'x, y, z'
loop_
 _atom_site_type_symbol
 _atom_site_label
 _atom_site_symmetry_multiplicity
 _atom_site_fract_x
 _atom_site_fract_y
 _atom_site_fract_z
 _atom_site_occupancy
  Na  Na0  1  0.00530128  0.36429499  0.75114735  1
  Na  Na1  1  0.66782674  0.96329181  0.58395952  1
  Na  Na2  1  0.03845823  0.33319107  0.08407689  1
  Na  Na3  1  0.00890675  0.99191158  0.50340046  1
  Na  Na4  1  0.00849481  0.99326445  0.00262091  1
  Na  Na5  1  0.65520829  0.32427538  0.83413713  1
  Na  Na6  1  0.68164407  0.33812461  0.33322952  1
  Na  Na7  1  0.34731566  0.67133453  0.16762993  1
  Na  Na8  1  0.33371998  0.66831122  0.66690745  1
  Hf  Hf0  1  0.98598017  0.99294759  0.35100731  1
  Hf  Hf1  1  0.00565909  0.00322697  0.85048412  1
  Hf  Hf2  1  0.66223433  0.33700700  0.68643071  1
  Hf  Hf3  1  0.66898196  0.33704462  0.18674420  1
  Hf  Hf4  1  0.66496967  0.32927215  0.98189242  1
  Hf  Hf5  1  0.67343269  0.33647832  0.48161351  1
  In  In0  1  0.00730302  0.99807390  0.64767065  1
  In  In1  1  0.99340143  0.99411347  0.14759548  1
  In  In2  1  0.33238127  0.67173859  0.01844449  1
  In  In3  1  0.32586032  0.66672864  0.51824600  1
  In  In4  1  0.33046333  0.66501222  0.31706934  1
  In  In5  1  0.33512660  0.67657202  0.81753361  1
  P  P0  1  0.70108774  0.70414753  0.24926244  1
  P  P1  1  0.00215392  0.29573004  0.24800746  1
  P  P2  1  0.29375797  0.29594483  0.74998422  1
  P  P3  1  0.99951550  0.70558326  0.74932888  1
  P  P4  1  0.70597640  0.99801126  0.74753223  1
  P  P5  1  0.96036914  0.33498930  0.58536834  1
  P  P6  1  0.37672545  0.04567346  0.58262231  1
  P  P7  1  0.66436570  0.62524801  0.58279738  1
  P  P8  1  0.95596935  0.62494865  0.08309745  1
  P  P9  1  0.66371634  0.04051110  0.08426974  1
  P  P10  1  0.37576680  0.33388333  0.08397107  1
  P  P11  1  0.03625968  0.36911465  0.91684960  1
  P  P12  1  0.33283856  0.96442388  0.91724244  1
  P  P13  1  0.62602893  0.96109872  0.41783515  1
  P  P14  1  0.03813573  0.66840956  0.41595554  1
  S  S0  1  0.29316558  0.00139063  0.24972969  1
  S  S1  1  0.63163544  0.66734994  0.91647861  1
  S  S2  1  0.33231620  0.36599236  0.41645760  1
  O  O0  1  0.20600055  0.02229436  0.30166927  1
  O  O1  1  0.81793696  0.79477828  0.30306056  1
  O  O2  1  0.98232165  0.17662372  0.30017868  1
  O  O3  1  0.20455955  0.17950460  0.80360025  1
  O  O4  1  0.97757975  0.79610627  0.80336010  1
  O  O5  1  0.82919909  0.02661895  0.79935996  1
  O  O6  1  0.78200161  0.97549434  0.69033989  1
  O  O7  1  0.17972714  0.22040985  0.69616471  1
  O  O8  1  0.02819405  0.80988658  0.69443999  1
  O  O9  1  0.78182817  0.80948749  0.19440927  1
  O  O10  1  0.02841293  0.22085149  0.19099615  1
  O  O11  1  0.19306364  0.97840843  0.19672823  1
  O  O12  1  0.87042147  0.35143815  0.64087447  1
  O  O13  1  0.48835300  0.13899640  0.63672587  1
  O  O14  1  0.64980671  0.51752374  0.63712415  1
  O  O15  1  0.86259979  0.51190086  0.13713106  1
  O  O16  1  0.64860653  0.13459992  0.13849871  1
  O  O17  1  0.48464656  0.34968389  0.13806412  1
  O  O18  1  0.46824011  0.31817842  0.02958348  1
  O  O19  1  0.84761184  0.53250289  0.02883429  1
  O  O20  1  0.68386562  0.15337333  0.03019834  1
  O  O21  1  0.47144847  0.15310108  0.52838976  1
  O  O22  1  0.68010874  0.53161536  0.52869889  1
  O  O23  1  0.84495560  0.31580866  0.53204904  1
  O  O24  1  0.55708253  0.69880522  0.96911954  1
  O  O25  1  0.14613099  0.44534175  0.97202233  1
  O  O26  1  0.29918727  0.85350775  0.97148321  1
  O  O27  1  0.55620301  0.85521609  0.47411824  1
  O  O28  1  0.29917701  0.44008857  0.46896062  1
  O  O29  1  0.14724052  0.70285912  0.47080059  1
  O  O30  1  0.11166760  0.62870731  0.36212081  1
  O  O31  1  0.51361077  0.87902037  0.36485550  1
  O  O32  1  0.36606700  0.47303294  0.36470752  1
  O  O33  1  0.11490012  0.47634290  0.86171977  1
  O  O34  1  0.37406978  0.89339321  0.86295887  1
  O  O35  1  0.52515598  0.63471143  0.86458627  1
  O  O36  1  0.01811145  0.83097339  0.40672515  1
  O  O37  1  0.81211431  0.98731267  0.40848351  1
  O  O38  1  0.17926280  0.19015720  0.40817595  1
  O  O39  1  0.00951758  0.18327557  0.90860120  1
  O  O40  1  0.16982571  0.98358962  0.90850051  1
  O  O41  1  0.80714490  0.82140068  0.90890143  1
  O  O42  1  0.96393222  0.16302978  0.58650317  1
  O  O43  1  0.19754183  0.02876318  0.58466469  1
  O  O44  1  0.82634572  0.80769846  0.58484957  1
  O  O45  1  0.97520430  0.80534856  0.08604952  1
  O  O46  1  0.83587763  0.03736091  0.08574494  1
  O  O47  1  0.19329247  0.17134544  0.08653515  1
  O  O48  1  0.69896420  0.17082800  0.74453216  1
  O  O49  1  0.47308528  0.30954232  0.74429818  1
  O  O50  1  0.83311616  0.52219225  0.74531130  1
  O  O51  1  0.68761328  0.52277893  0.24506806  1
  O  O52  1  0.83145649  0.30465500  0.24483422  1
  O  O53  1  0.46627346  0.16219054  0.24616376  1
  O  O54  1  0.65440969  0.51357079  0.92350777  1
  O  O55  1  0.85338715  0.34944367  0.92448203  1
  O  O56  1  0.49079024  0.15029964  0.92509080  1
  O  O57  1  0.65023197  0.14609744  0.42462376  1
  O  O58  1  0.48644840  0.34388474  0.42398708  1
  O  O59  1  0.85241208  0.50959162  0.42417076  1
  O  O60  1  0.35543923  0.49665759  0.08040917  1
  O  O61  1  0.13084379  0.62767591  0.08069316  1
  O  O62  1  0.50273080  0.86080704  0.08063624  1
  O  O63  1  0.37235872  0.86955044  0.58079969  1
  O  O64  1  0.50117268  0.64402798  0.57976690  1
  O  O65  1  0.13906470  0.49673416  0.58082173  1
  O  O66  1  0.31743514  0.85006655  0.25508189  1
  O  O67  1  0.52043882  0.68265528  0.25673667  1
  O  O68  1  0.15899816  0.47782268  0.25558308  1
  O  O69  1  0.31187925  0.47560862  0.75866733  1
  O  O70  1  0.15162686  0.66968058  0.75542491  1
  O  O71  1  0.52585027  0.84116942  0.75567687  1
loop_
_geom_bond_atom_site_label_1
_geom_bond_atom_site_label_2
_geom_bond_distance
_geom_bond_site_symmetry_2
Na0 O70 2.364093 1_555
Na0 O48 2.404235 1_455
Na0 O69 2.409123 1_555
Na0 O50 2.554986 1_455
Na0 O33 2.741192 1_555
Na0 O7 2.769644 1_555
Na0 O12 2.798907 1_455
Na0 O5 2.841329 1_455
Na1 O63 2.338558 1_555
Na1 O42 2.339751 1_565
Na1 O44 2.427058 1_555
Na1 O64 2.471663 1_555
Na1 O6 2.644980 1_555
Na1 O27 2.722472 1_555
Na2 O61 2.329674 1_555
Na2 O46 2.340750 1_455
Na2 O47 2.447644 1_555
Na2 O60 2.456092 1_555
Na2 O10 2.653392 1_555
Na2 O25 2.770996 1_554
Na3 O43 2.435439 1_565
Na3 O44 2.496931 1_455
Na3 O42 2.603833 1_465
Na3 O36 2.677237 1_555
Na3 O38 2.758544 1_565
Na3 O37 2.801016 1_455
Na4 O45 2.476174 1_455
Na4 O47 2.528946 1_565
Na4 O46 2.610827 1_465
Na4 O40 2.632684 1_554
Na4 O41 2.744035 1_454
Na4 O39 2.755978 1_564
Na5 O56 2.591553 1_555
Na5 O49 2.602508 1_555
Na5 O48 2.614830 1_555
Na5 O50 2.657938 1_555
Na5 O54 2.668102 1_555
Na5 O55 2.675669 1_555
Na6 O52 2.538192 1_555
Na6 O59 2.599613 1_555
Na6 O51 2.606623 1_555
Na6 O57 2.647530 1_555
Na6 O53 2.684232 1_555
Na6 O58 2.742447 1_555
Na7 O62 2.548064 1_555
Na7 O67 2.549117 1_555
Na7 O60 2.568905 1_555
Na7 O68 2.655257 1_555
Na7 O66 2.666604 1_555
Na7 O61 2.680966 1_555
Na8 O64 2.579418 1_555
Na8 O65 2.583087 1_555
Na8 O63 2.587979 1_555
Na8 O70 2.615615 1_555
Na8 O71 2.625822 1_555
Na8 O69 2.677820 1_555
Hf0 O1 1.989725 1_555
Hf0 O37 2.023641 1_555
Hf0 O2 2.031518 1_565
Hf0 O36 2.061714 1_655
Hf0 O0 2.170710 1_665
Hf0 O38 2.189150 1_665
Hf1 O3 2.004593 1_555
Hf1 O4 2.048105 1_445
Hf1 O40 2.059740 1_545
Hf1 O5 2.063717 1_455
Hf1 O39 2.079119 1_555
Hf1 O41 2.175208 1_445
Hf2 O14 2.022392 1_555
Hf2 O13 2.028647 1_555
Hf2 O49 2.069983 1_555
Hf2 O12 2.082924 1_555
Hf2 O50 2.096587 1_555
Hf2 O48 2.145427 1_555
Hf3 O15 2.012456 1_555
Hf3 O17 2.044775 1_555
Hf3 O16 2.050316 1_555
Hf3 O51 2.075621 1_555
Hf3 O52 2.101964 1_555
Hf3 O53 2.186825 1_555
Hf4 O20 2.002190 1_556
Hf4 O18 2.033066 1_556
Hf4 O19 2.043329 1_556
Hf4 O56 2.053239 1_555
Hf4 O55 2.077856 1_555
Hf4 O54 2.167193 1_555
Hf5 O23 2.007072 1_555
Hf5 O22 2.026846 1_555
Hf5 O21 2.039089 1_555
Hf5 O59 2.059905 1_555
Hf5 O57 2.074722 1_555
Hf5 O58 2.164593 1_555
In0 O8 2.083648 1_555
In0 O7 2.124648 1_565
In0 O43 2.147820 1_565
In0 O6 2.157071 1_455
In0 O44 2.206149 1_455
In0 O42 2.211924 1_465
In1 O9 2.086086 1_555
In1 O10 2.135003 1_665
In1 O45 2.145947 1_555
In1 O46 2.173064 1_565
In1 O11 2.178495 1_655
In1 O47 2.205808 1_665
In2 O26 2.093441 1_554
In2 O25 2.155405 1_554
In2 O62 2.160106 1_555
In2 O61 2.180302 1_555
In2 O60 2.205350 1_555
In2 O24 2.212839 1_554
In3 O29 2.090797 1_555
In3 O27 2.156659 1_555
In3 O65 2.157253 1_555
In3 O63 2.186345 1_555
In3 O64 2.199915 1_555
In3 O28 2.225812 1_555
In4 O30 2.090927 1_555
In4 O31 2.103606 1_555
In4 O67 2.139146 1_555
In4 O68 2.145363 1_555
In4 O32 2.190394 1_555
In4 O66 2.234487 1_555
In5 O34 2.070637 1_555
In5 O33 2.144831 1_555
In5 O71 2.146816 1_555
In5 O70 2.158244 1_555
In5 O69 2.174721 1_555
In5 O35 2.200549 1_555
O0 S0 1.491113 1_555
O1 P0 1.564835 1_555
O2 P1 1.559269 1_655
O3 P2 1.557724 1_555
O4 P3 1.550409 1_555
O5 P4 1.560415 1_545
O6 P4 1.543223 1_555
O7 P2 1.534917 1_555
O8 P3 1.518937 1_455
O9 P0 1.528710 1_555
O10 P1 1.545980 1_555
O11 S0 1.470521 1_565
O12 P5 1.557851 1_555
O13 P6 1.556916 1_555
O14 P7 1.548231 1_555
O15 P8 1.560649 1_555
O16 P9 1.550065 1_555
O17 P10 1.547844 1_555
O18 P10 1.547228 1_555
O19 P8 1.547446 1_555
O20 P9 1.559433 1_555
O21 P6 1.548772 1_555
O22 P7 1.547275 1_555
O23 P5 1.561593 1_555
O24 S1 1.478305 1_555
O25 P11 1.545192 1_555
O26 P12 1.532492 1_555
O27 P13 1.545541 1_555
O28 S2 1.479364 1_555
O29 P14 1.534748 1_555
O30 P14 1.527473 1_555
O31 P13 1.520488 1_555
O32 S2 1.466277 1_555
O33 P11 1.537660 1_555
O34 P12 1.529711 1_555
O35 S1 1.467841 1_555
O36 P14 1.562142 1_555
O37 P13 1.573274 1_555
O38 S2 1.492529 1_555
O39 P11 1.563918 1_555
O40 P12 1.561730 1_555
O41 S1 1.492891 1_555
O42 P5 1.550342 1_555
O43 P6 1.531403 1_555
O44 P7 1.548095 1_555
O45 P8 1.532278 1_555
O46 P9 1.552255 1_555
O47 P10 1.551132 1_555
O48 P4 1.575423 1_545
O49 P2 1.550131 1_555
O50 P3 1.571490 1_555
O51 P0 1.564227 1_555
O52 P1 1.567599 1_655
O53 S0 1.497914 1_555
O54 S1 1.492879 1_555
O55 P11 1.563017 1_655
O56 P12 1.562057 1_545
O57 P13 1.561494 1_545
O58 S2 1.495251 1_555
O59 P14 1.565818 1_655
O60 P10 1.552878 1_555
O61 P8 1.550782 1_455
O62 P9 1.531704 1_565
O63 P6 1.552523 1_565
O64 P7 1.549569 1_555
O65 P5 1.531102 1_455
O66 S0 1.475432 1_565
O67 P0 1.536428 1_555
O68 P1 1.537108 1_555
O69 P2 1.541231 1_555
O70 P3 1.550053 1_455
O71 P4 1.528751 1_555
