# generated using pymatgen
data_Nb10Zn2Si9(SO8)9
_symmetry_space_group_name_H-M   'P 1'
_cell_length_a   8.85805920
_cell_length_b   8.89546506
_cell_length_c   22.90800453
_cell_angle_alpha   90.28153566
_cell_angle_beta   89.86429578
_cell_angle_gamma   119.80478691
_symmetry_Int_Tables_number   1
_chemical_formula_structural   Nb10Zn2Si9(SO8)9
_chemical_formula_sum   'Nb10 Zn2 Si9 S9 O72'
_cell_volume   1566.28513808
_cell_formula_units_Z   1
loop_
 _symmetry_equiv_pos_site_id
 _symmetry_equiv_pos_as_xyz
  1  'x, y, z'
loop_
 _atom_site_type_symbol
 _atom_site_label
 _atom_site_symmetry_multiplicity
 _atom_site_fract_x
 _atom_site_fract_y
 _atom_site_fract_z
 _atom_site_occupancy
  Nb  Nb0  1  -0.00006942  0.00084348  0.36089750  1
  Nb  Nb1  1  0.99926901  0.98849445  0.85984442  1
  Nb  Nb2  1  0.00341073  0.00051668  0.64453522  1
  Nb  Nb3  1  0.00571238  0.00509949  0.14063858  1
  Nb  Nb4  1  0.65122331  0.32966154  0.97100174  1
  Nb  Nb5  1  0.67799963  0.32961313  0.47439715  1
  Nb  Nb6  1  0.33229877  0.65449616  0.01819336  1
  Nb  Nb7  1  0.32508232  0.65938594  0.52298994  1
  Nb  Nb8  1  0.33402760  0.66416775  0.31323876  1
  Nb  Nb9  1  0.32303586  0.66518223  0.80938692  1
  Zn  Zn0  1  0.69063397  0.34872304  0.69179900  1
  Zn  Zn1  1  0.66087804  0.33720029  0.18566323  1
  Si  Si0  1  0.99189388  0.70762457  0.74899332  1
  Si  Si1  1  0.94987073  0.32994096  0.58664110  1
  Si  Si2  1  0.39266604  0.34319126  0.08665984  1
  Si  Si3  1  0.61436770  0.66829286  0.91320309  1
  Si  Si4  1  0.04471717  0.37909794  0.91439842  1
  Si  Si5  1  0.33173615  0.94277167  0.91703451  1
  Si  Si6  1  0.61144271  0.94521131  0.41784880  1
  Si  Si7  1  0.33923145  0.38532707  0.41738756  1
  Si  Si8  1  0.05157947  0.66682044  0.41683163  1
  S  S0  1  0.28458877  0.99863277  0.24961775  1
  S  S1  1  0.71718145  0.71573295  0.24975837  1
  S  S2  1  0.99625233  0.28397345  0.24873841  1
  S  S3  1  0.28662342  0.28376764  0.74955894  1
  S  S4  1  0.71369958  0.99782229  0.75037067  1
  S  S5  1  0.38275333  0.04875702  0.58473648  1
  S  S6  1  0.66552394  0.62050416  0.58430379  1
  S  S7  1  0.95557208  0.61913711  0.08584958  1
  S  S8  1  0.66402376  0.04513903  0.08555502  1
  O  O0  1  0.19450679  0.02046192  0.30124585  1
  O  O1  1  0.82450919  0.80798009  0.30209818  1
  O  O2  1  0.97574930  0.17611922  0.30062083  1
  O  O3  1  0.19929022  0.17895652  0.80138541  1
  O  O4  1  0.98699049  0.82339031  0.80514329  1
  O  O5  1  0.82365438  0.02392680  0.80221607  1
  O  O6  1  0.80339954  0.97459428  0.69705181  1
  O  O7  1  0.17024890  0.20154523  0.69596112  1
  O  O8  1  0.02744633  0.84049952  0.69265191  1
  O  O9  1  0.79928078  0.82609218  0.19743797  1
  O  O10  1  0.02355756  0.19565853  0.19633944  1
  O  O11  1  0.17105570  0.97300016  0.19712146  1
  O  O12  1  0.87086104  0.36997859  0.64142255  1
  O  O13  1  0.48161809  0.12214597  0.63708136  1
  O  O14  1  0.62706161  0.51642255  0.63592182  1
  O  O15  1  0.88646617  0.51884328  0.13870062  1
  O  O16  1  0.64251322  0.12084234  0.13889927  1
  O  O17  1  0.49364331  0.36984777  0.14542350  1
  O  O18  1  0.47690027  0.30426095  0.02849226  1
  O  O19  1  0.84639465  0.54757016  0.03406077  1
  O  O20  1  0.70486036  0.15455634  0.03368119  1
  O  O21  1  0.45894596  0.15574742  0.53148997  1
  O  O22  1  0.69612799  0.54237123  0.53133663  1
  O  O23  1  0.83150023  0.30467068  0.52642532  1
  O  O24  1  0.52850302  0.69614662  0.97327168  1
  O  O25  1  0.16903632  0.46954117  0.97228874  1
  O  O26  1  0.30254416  0.83045359  0.97571009  1
  O  O27  1  0.53006220  0.82784211  0.47407120  1
  O  O28  1  0.29864140  0.47234719  0.47266113  1
  O  O29  1  0.17299806  0.70440649  0.47316103  1
  O  O30  1  0.14036122  0.63494658  0.35813016  1
  O  O31  1  0.49401898  0.85590427  0.35816114  1
  O  O32  1  0.36508906  0.50415830  0.35848304  1
  O  O33  1  0.13499683  0.50626782  0.85854544  1
  O  O34  1  0.36653292  0.85771408  0.85923681  1
  O  O35  1  0.49356008  0.63104086  0.85698842  1
  O  O36  1  0.02931149  0.83519057  0.40185960  1
  O  O37  1  0.80547201  0.97471376  0.40194381  1
  O  O38  1  0.16807133  0.19744863  0.40101436  1
  O  O39  1  0.02661623  0.19353223  0.90105878  1
  O  O40  1  0.17004222  0.97710755  0.90703799  1
  O  O41  1  0.80548769  0.83820603  0.90667531  1
  O  O42  1  0.97814637  0.16120414  0.59467169  1
  O  O43  1  0.20181943  0.02686974  0.59037820  1
  O  O44  1  0.82372764  0.79836032  0.59156448  1
  O  O45  1  0.97161524  0.79971501  0.09593158  1
  O  O46  1  0.82492395  0.02086978  0.09509670  1
  O  O47  1  0.18901270  0.16444712  0.09669288  1
  O  O48  1  0.68681019  0.14359596  0.74314431  1
  O  O49  1  0.45268184  0.29560953  0.73962590  1
  O  O50  1  0.82123984  0.52840680  0.74783674  1
  O  O51  1  0.70318597  0.54726528  0.24552380  1
  O  O52  1  0.84487093  0.30263318  0.24017502  1
  O  O53  1  0.45575894  0.14777017  0.24365154  1
  O  O54  1  0.64157904  0.50196383  0.92732233  1
  O  O55  1  0.86032821  0.36207465  0.93409098  1
  O  O56  1  0.50490028  0.13447616  0.92655227  1
  O  O57  1  0.63208522  0.13608281  0.42616255  1
  O  O58  1  0.50213087  0.35996561  0.43131455  1
  O  O59  1  0.85945184  0.50238234  0.42711644  1
  O  O60  1  0.34942092  0.49825857  0.07292713  1
  O  O61  1  0.13536063  0.65505499  0.07630809  1
  O  O62  1  0.51597399  0.86939572  0.07645754  1
  O  O63  1  0.35666139  0.87126615  0.57420016  1
  O  O64  1  0.51627975  0.65131316  0.57276076  1
  O  O65  1  0.14525051  0.49682879  0.57112909  1
  O  O66  1  0.29182911  0.83534691  0.25574148  1
  O  O67  1  0.54229700  0.70216884  0.25690163  1
  O  O68  1  0.15858944  0.45488424  0.25512069  1
  O  O69  1  0.29759684  0.45582668  0.75538598  1
  O  O70  1  0.17545889  0.70218500  0.75794598  1
  O  O71  1  0.54585959  0.83219994  0.75568908  1
loop_
_geom_bond_atom_site_label_1
_geom_bond_atom_site_label_2
_geom_bond_distance
_geom_bond_site_symmetry_2
Nb0 O37 1.871290 1_445
Nb0 O36 1.874998 1_545
Nb0 O38 1.876905 1_555
Nb0 O1 2.123516 1_445
Nb0 O0 2.135565 1_555
Nb0 O2 2.176712 1_455
Nb1 O4 1.887552 1_555
Nb1 O41 1.899673 1_555
Nb1 O40 1.904868 1_655
Nb1 O39 1.954906 1_665
Nb1 O5 2.182493 1_565
Nb1 O3 2.197743 1_665
Nb2 O8 1.898485 1_545
Nb2 O42 1.932171 1_455
Nb2 O7 2.032266 1_555
Nb2 O6 2.055715 1_445
Nb2 O43 2.065415 1_555
Nb2 O44 2.093321 1_445
Nb3 O47 1.837767 1_555
Nb3 O46 1.976202 1_455
Nb3 O45 1.978009 1_445
Nb3 O10 2.059098 1_555
Nb3 O11 2.080671 1_545
Nb3 O9 2.164917 1_445
Nb4 O56 1.866320 1_555
Nb4 O54 1.871725 1_555
Nb4 O55 1.921729 1_555
Nb4 O18 1.953564 1_556
Nb4 O20 2.339785 1_556
Nb4 O19 2.342210 1_556
Nb5 O23 1.904934 1_555
Nb5 O57 1.907211 1_555
Nb5 O59 1.915988 1_555
Nb5 O58 1.975322 1_555
Nb5 O21 2.211841 1_555
Nb5 O22 2.232408 1_555
Nb6 O25 1.878582 1_554
Nb6 O24 1.889975 1_554
Nb6 O60 1.937590 1_555
Nb6 O26 1.973022 1_554
Nb6 O61 2.193892 1_555
Nb6 O62 2.230762 1_555
Nb7 O65 1.887355 1_555
Nb7 O28 1.935813 1_555
Nb7 O29 1.956102 1_555
Nb7 O27 2.024905 1_555
Nb7 O64 2.074696 1_555
Nb7 O63 2.112475 1_555
Nb8 O31 1.887666 1_555
Nb8 O32 1.892369 1_555
Nb8 O30 1.902385 1_555
Nb8 O67 2.134578 1_555
Nb8 O68 2.182392 1_555
Nb8 O66 2.186582 1_555
Nb9 O70 1.909120 1_555
Nb9 O33 1.925346 1_555
Nb9 O34 1.926814 1_555
Nb9 O35 2.007505 1_555
Nb9 O69 2.147278 1_555
Nb9 O71 2.169708 1_555
O0 S0 1.490137 1_545
O1 S1 1.494997 1_555
O2 S2 1.484255 1_555
O3 S3 1.472003 1_555
O4 Si0 1.657728 1_555
O5 S4 1.480229 1_545
O6 S4 1.523827 1_555
O7 S3 1.533885 1_555
O8 Si0 1.674850 1_455
O9 S1 1.492269 1_555
O10 S2 1.514852 1_455
O11 S0 1.511515 1_555
O12 Si1 1.559090 1_555
O12 Zn0 1.899883 1_555
O13 S5 1.435252 1_555
O13 Zn0 2.310405 1_555
O14 S6 1.437631 1_555
O14 Zn0 2.244602 1_555
O15 S7 1.449377 1_555
O15 Zn1 2.135054 1_555
O16 S8 1.449645 1_555
O16 Zn1 2.132489 1_555
O17 Si2 1.568488 1_555
O17 Zn1 1.888206 1_555
O18 Si2 1.643124 1_555
O19 S7 1.460834 1_555
O20 S8 1.466167 1_555
O21 S5 1.489332 1_555
O22 S6 1.485357 1_555
O23 Si1 1.679957 1_555
O24 Si3 1.646950 1_555
O25 Si4 1.653586 1_555
O26 Si5 1.620661 1_555
O27 Si6 1.590326 1_555
O28 Si7 1.611413 1_555
O29 Si8 1.605782 1_555
O30 Si8 1.649268 1_555
O31 Si6 1.660488 1_555
O32 Si7 1.662090 1_555
O33 Si4 1.632898 1_555
O34 Si5 1.624994 1_555
O35 Si3 1.600977 1_555
O36 Si8 1.642800 1_555
O37 Si6 1.644754 1_555
O38 Si7 1.646247 1_555
O39 Si4 1.605007 1_555
O40 Si5 1.623061 1_555
O41 Si3 1.621809 1_555
O42 Si1 1.651126 1_555
O43 S5 1.520656 1_555
O44 S6 1.512972 1_555
O45 S7 1.556726 1_555
O46 S8 1.559993 1_555
O47 Si2 1.727864 1_555
O48 S4 1.440475 1_545
O48 Zn0 2.161859 1_555
O49 S3 1.439166 1_555
O49 Zn0 2.206936 1_555
O50 Si0 1.559314 1_555
O50 Zn0 1.920878 1_555
O51 S1 1.443785 1_555
O51 Zn1 2.189459 1_555
O52 S2 1.444645 1_555
O52 Zn1 2.195874 1_555
O53 S0 1.441810 1_545
O53 Zn1 2.207347 1_555
O54 Si3 1.646650 1_555
O55 Si4 1.626501 1_655
O56 Si5 1.645010 1_545
O57 Si6 1.625084 1_545
O58 Si7 1.600423 1_555
O59 Si8 1.618119 1_655
O60 Si2 1.636630 1_555
O61 S7 1.476268 1_455
O62 S8 1.472165 1_565
O63 S5 1.496078 1_565
O64 S6 1.501763 1_555
O65 Si1 1.665409 1_455
O66 S0 1.492719 1_555
O67 S1 1.501446 1_555
O68 S2 1.492014 1_455
O69 S3 1.489964 1_555
O70 Si0 1.663811 1_455
O71 S4 1.489718 1_555
