# generated using pymatgen
data_MgH2
_symmetry_space_group_name_H-M   'P 1'
_cell_length_a   3.11332900
_cell_length_b   5.30076800
_cell_length_c   5.99679500
_cell_angle_alpha   90.00000000
_cell_angle_beta   90.00000000
_cell_angle_gamma   90.00000000
_symmetry_Int_Tables_number   1
_chemical_formula_structural   MgH2
_chemical_formula_sum   'Mg4 H8'
_cell_volume   98.96531619
_cell_formula_units_Z   4
loop_
 _symmetry_equiv_pos_site_id
 _symmetry_equiv_pos_as_xyz
  1  'x, y, z'
loop_
 _atom_site_type_symbol
 _atom_site_label
 _atom_site_symmetry_multiplicity
 _atom_site_fract_x
 _atom_site_fract_y
 _atom_site_fract_z
 _atom_site_occupancy
  Mg  Mg0  1  0.25000000  0.74848400  0.60325900  1
  Mg  Mg1  1  0.75000000  0.25151600  0.39674100  1
  Mg  Mg2  1  0.25000000  0.24848400  0.89674100  1
  Mg  Mg3  1  0.75000000  0.75151600  0.10325900  1
  H  H0  1  0.25000000  0.47739400  0.16691200  1
  H  H1  1  0.75000000  0.52260600  0.83308800  1
  H  H2  1  0.25000000  0.97739400  0.33308800  1
  H  H3  1  0.75000000  0.02260600  0.66691200  1
  H  H4  1  0.75000000  0.63910300  0.42534400  1
  H  H5  1  0.25000000  0.36089700  0.57465600  1
  H  H6  1  0.75000000  0.13910300  0.07465600  1
  H  H7  1  0.25000000  0.86089700  0.92534400  1
loop_
_geom_bond_atom_site_label_1
_geom_bond_atom_site_label_2
_geom_bond_distance
_geom_bond_site_symmetry_2
H0 Mg2 2.024168 1_554
H0 Mg3 2.163397 1_455
H0 Mg3 2.163397 1_555
H1 Mg3 2.024168 1_556
H1 Mg2 2.163397 1_555
H1 Mg2 2.163397 1_655
H2 Mg0 2.024168 1_555
H2 Mg1 2.163397 1_465
H2 Mg1 2.163397 1_565
H3 Mg1 2.024168 1_555
H3 Mg0 2.163397 1_645
H3 Mg0 2.163397 1_545
H4 Mg0 1.974258 1_555
H4 Mg0 1.974258 1_655
H4 Mg3 2.021305 1_555
H4 Mg1 2.061657 1_555
H5 Mg1 1.974258 1_555
H5 Mg1 1.974258 1_455
H5 Mg2 2.021305 1_555
H5 Mg0 2.061657 1_555
H6 Mg2 1.974258 1_654
H6 Mg2 1.974258 1_554
H6 Mg1 2.021305 1_555
H6 Mg3 2.061657 1_545
H7 Mg3 1.974258 1_456
H7 Mg3 1.974258 1_556
H7 Mg0 2.021305 1_555
H7 Mg2 2.061657 1_565
