# generated using pymatgen
data_H2Pb3O4
_symmetry_space_group_name_H-M   'P 1'
_cell_length_a   8.12809742
_cell_length_b   8.12809742
_cell_length_c   9.29739807
_cell_angle_alpha   90.00000000
_cell_angle_beta   90.00000000
_cell_angle_gamma   90.00000000
_symmetry_Int_Tables_number   1
_chemical_formula_structural   H2Pb3O4
_chemical_formula_sum   'H8 Pb12 O16'
_cell_volume   614.24160030
_cell_formula_units_Z   4
loop_
 _symmetry_equiv_pos_site_id
 _symmetry_equiv_pos_as_xyz
  1  'x, y, z'
loop_
 _atom_site_type_symbol
 _atom_site_label
 _atom_site_symmetry_multiplicity
 _atom_site_fract_x
 _atom_site_fract_y
 _atom_site_fract_z
 _atom_site_occupancy
  H  H0  1  0.66358429  0.82505083  0.74197650  1
  H  H1  1  0.33641571  0.17494917  0.74197650  1
  H  H2  1  0.67494917  0.83641571  0.24197650  1
  H  H3  1  0.17494917  0.66358429  0.25802350  1
  H  H4  1  0.82505083  0.33641571  0.25802350  1
  H  H5  1  0.83641571  0.32505083  0.75802350  1
  H  H6  1  0.16358429  0.67494917  0.75802350  1
  H  H7  1  0.32505083  0.16358429  0.24197650  1
  Pb  Pb0  1  0.50000000  0.50000000  0.78009196  1
  Pb  Pb1  1  0.50000000  0.50000000  0.21990804  1
  Pb  Pb2  1  0.00000000  -0.00000000  0.71990804  1
  Pb  Pb3  1  0.00000000  -0.00000000  0.28009196  1
  Pb  Pb4  1  0.80052871  0.62353271  0.50209841  1
  Pb  Pb5  1  0.19947129  0.37646729  0.50209841  1
  Pb  Pb6  1  0.87646729  0.69947129  0.00209841  1
  Pb  Pb7  1  0.37646729  0.80052871  0.49790159  1
  Pb  Pb8  1  0.62353271  0.19947129  0.49790159  1
  Pb  Pb9  1  0.69947129  0.12353271  0.99790159  1
  Pb  Pb10  1  0.30052871  0.87646729  0.99790159  1
  Pb  Pb11  1  0.12353271  0.30052871  0.00209841  1
  O  O0  1  0.80736071  0.91804171  0.87337040  1
  O  O1  1  0.19263929  0.08195829  0.87337040  1
  O  O2  1  0.58195829  0.69263929  0.37337040  1
  O  O3  1  0.08195829  0.80736071  0.12662960  1
  O  O4  1  0.25293223  0.10910695  0.17140041  1
  O  O5  1  0.10910695  0.74706777  0.82859959  1
  O  O6  1  0.89089305  0.25293223  0.82859959  1
  O  O7  1  0.75293223  0.39089305  0.32859959  1
  O  O8  1  0.24706777  0.60910695  0.32859959  1
  O  O9  1  0.74706777  0.89089305  0.17140041  1
  O  O10  1  0.39089305  0.24706777  0.67140041  1
  O  O11  1  0.60910695  0.75293223  0.67140041  1
  O  O12  1  0.41804171  0.30736071  0.37337040  1
  O  O13  1  0.30736071  0.58195829  0.62662960  1
  O  O14  1  0.69263929  0.41804171  0.62662960  1
  O  O15  1  0.91804171  0.19263929  0.12662960  1
loop_
_geom_bond_atom_site_label_1
_geom_bond_atom_site_label_2
_geom_bond_distance
_geom_bond_site_symmetry_2
H0 O11 0.985012 1_555
H1 O10 0.985012 1_555
H2 O9 0.985012 1_555
H3 O8 0.985012 1_555
H4 O7 0.985012 1_555
H5 O6 0.985012 1_555
H6 O5 0.985012 1_555
H7 O4 0.985012 1_555
O0 Pb9 2.213434 1_565
O0 Pb6 2.214520 1_556
O0 Pb2 2.220639 1_665
O1 Pb10 2.213434 1_545
O1 Pb11 2.214520 1_556
O1 Pb2 2.220639 1_555
O2 Pb7 2.213434 1_555
O2 Pb4 2.214520 1_555
O2 Pb1 2.220639 1_555
O3 Pb6 2.213434 1_455
O3 Pb10 2.214520 1_554
O3 Pb3 2.220639 1_565
O4 Pb11 2.450454 1_555
O4 Pb3 2.456467 1_555
O4 Pb10 2.515410 1_544
O5 Pb10 2.450454 1_555
O5 Pb2 2.456467 1_565
O5 Pb6 2.515410 1_456
O6 Pb9 2.450454 1_555
O6 Pb2 2.456467 1_655
O6 Pb11 2.515410 1_656
O7 Pb8 2.450454 1_555
O7 Pb1 2.456467 1_555
O7 Pb4 2.515410 1_555
O8 Pb7 2.450454 1_555
O8 Pb1 2.456467 1_555
O8 Pb5 2.515410 1_555
O9 Pb6 2.450454 1_555
O9 Pb3 2.456467 1_665
O9 Pb9 2.515410 1_564
O10 Pb5 2.450454 1_555
O10 Pb0 2.456467 1_555
O10 Pb8 2.515410 1_555
O11 Pb4 2.450454 1_555
O11 Pb0 2.456467 1_555
O11 Pb7 2.515410 1_555
O12 Pb8 2.213434 1_555
O12 Pb5 2.214520 1_555
O12 Pb1 2.220639 1_555
O13 Pb5 2.213434 1_555
O13 Pb7 2.214520 1_555
O13 Pb0 2.220639 1_555
O14 Pb4 2.213434 1_555
O14 Pb8 2.214520 1_555
O14 Pb0 2.220639 1_555
O15 Pb11 2.213434 1_655
O15 Pb9 2.214520 1_554
O15 Pb3 2.220639 1_655
