# generated using pymatgen
data_MgMn4(CuO4)2
_symmetry_space_group_name_H-M   'P 1'
_cell_length_a   6.11878837
_cell_length_b   6.11541511
_cell_length_c   6.63000996
_cell_angle_alpha   60.81211646
_cell_angle_beta   58.66316785
_cell_angle_gamma   60.54796469
_symmetry_Int_Tables_number   1
_chemical_formula_structural   MgMn4(CuO4)2
_chemical_formula_sum   'Mg1 Mn4 Cu2 O8'
_cell_volume   175.31052407
_cell_formula_units_Z   1
loop_
 _symmetry_equiv_pos_site_id
 _symmetry_equiv_pos_as_xyz
  1  'x, y, z'
loop_
 _atom_site_type_symbol
 _atom_site_label
 _atom_site_symmetry_multiplicity
 _atom_site_fract_x
 _atom_site_fract_y
 _atom_site_fract_z
 _atom_site_occupancy
  Mg  Mg0  1  0.00005639  -0.00000122  0.49996982  1
  Mn  Mn0  1  0.49998990  0.00003277  0.50004470  1
  Mn  Mn1  1  -0.00001020  0.50002578  0.50001757  1
  Mn  Mn2  1  0.49990321  0.50011272  0.99993481  1
  Mn  Mn3  1  0.50001410  0.49996906  0.49999779  1
  Cu  Cu0  1  0.04281010  0.19110861  0.00385639  1
  Cu  Cu1  1  0.95704958  0.80884391  0.99613682  1
  O  O0  1  0.74400759  0.75821570  0.68819807  1
  O  O1  1  0.30259279  0.24110241  0.69578439  1
  O  O2  1  0.25483117  0.69979816  0.31324884  1
  O  O3  1  0.74307777  0.22146373  0.28815675  1
  O  O4  1  0.74524608  0.30018987  0.68669889  1
  O  O5  1  0.25697045  0.77848777  0.71191557  1
  O  O6  1  0.25608720  0.24177181  0.31176417  1
  O  O7  1  0.69737588  0.75887394  0.30427443  1
loop_
_geom_bond_atom_site_label_1
_geom_bond_atom_site_label_2
_geom_bond_distance
_geom_bond_site_symmetry_2
Mg0 O3 2.150892 1_455
Mg0 O5 2.151217 1_545
Mg0 O6 2.154627 1_555
Mg0 O0 2.154738 1_445
Mg0 O4 2.174402 1_455
Mg0 O2 2.174413 1_545
Mn0 O1 1.949620 1_555
Mn0 O7 1.950194 1_545
Mn0 O0 1.984712 1_545
Mn0 O6 1.984731 1_555
Mn0 O3 1.992851 1_555
Mn0 O5 1.993044 1_545
Mn1 O4 1.961197 1_455
Mn1 O2 1.961334 1_555
Mn1 O0 1.989902 1_455
Mn1 O6 1.990523 1_555
Mn1 O7 2.287339 1_455
Mn1 O1 2.287398 1_555
Mn2 O0 2.218014 1_555
Mn2 O6 2.218064 1_556
Mn2 O2 2.342719 1_556
Mn2 O4 2.343101 1_555
Mn2 O5 2.459138 1_555
Mn2 O3 2.461166 1_556
Mn3 O7 1.973696 1_555
Mn3 O1 1.973734 1_555
Mn3 O2 1.982539 1_555
Mn3 O4 1.982563 1_555
Mn3 O3 2.180563 1_555
Mn3 O5 2.180971 1_555
Cu0 O1 1.812146 1_554
Cu0 O3 1.833498 1_455
Cu1 O7 1.812145 1_556
Cu1 O5 1.833687 1_655
