# generated using pymatgen
data_MgAg4(AsS)4
_symmetry_space_group_name_H-M   'P 1'
_cell_length_a   12.40304455
_cell_length_b   5.51128684
_cell_length_c   4.44890057
_cell_angle_alpha   89.98137639
_cell_angle_beta   90.00004366
_cell_angle_gamma   91.59480660
_symmetry_Int_Tables_number   1
_chemical_formula_structural   MgAg4(AsS)4
_chemical_formula_sum   'Mg1 Ag4 As4 S4'
_cell_volume   303.99450602
_cell_formula_units_Z   1
loop_
 _symmetry_equiv_pos_site_id
 _symmetry_equiv_pos_as_xyz
  1  'x, y, z'
loop_
 _atom_site_type_symbol
 _atom_site_label
 _atom_site_symmetry_multiplicity
 _atom_site_fract_x
 _atom_site_fract_y
 _atom_site_fract_z
 _atom_site_occupancy
  Mg  Mg0  1  0.26806687  0.88873134  0.24839591  1
  Ag  Ag0  1  0.84250036  0.04235159  0.24725608  1
  Ag  Ag1  1  0.36747243  0.40430698  0.24701602  1
  Ag  Ag2  1  0.67319478  0.51904577  0.74737834  1
  Ag  Ag3  1  0.11414791  0.03721014  0.74718387  1
  As  As0  1  0.50709767  0.07431084  0.24825909  1
  As  As1  1  0.98113441  0.41189248  0.24854843  1
  As  As2  1  0.00952659  0.62691663  0.74840882  1
  As  As3  1  0.52906513  0.86399938  0.74840699  1
  S  S0  1  0.16371546  0.27577495  0.24738747  1
  S  S1  1  0.66617832  0.28446003  0.24774165  1
  S  S2  1  0.34988333  0.72282112  0.74847562  1
  S  S3  1  0.84468372  0.79610074  0.74754372  1
loop_
_geom_bond_atom_site_label_1
_geom_bond_atom_site_label_2
_geom_bond_distance
_geom_bond_site_symmetry_2
Mg0 S0 2.525666 1_565
Mg0 S2 2.620196 1_554
Mg0 S2 2.620292 1_555
Ag0 S1 2.593363 1_555
Ag0 S3 2.605592 1_544
Ag0 S3 2.607023 1_545
Ag0 As1 2.628624 1_555
Ag1 As0 2.545992 1_555
Ag1 S0 2.605557 1_555
Ag1 S2 2.840285 1_554
Ag1 S2 2.851329 1_555
Ag1 Mg0 2.971739 1_555
Ag1 Mg0 3.065808 1_545
Ag2 S1 2.572097 1_555
Ag2 S1 2.574165 1_556
Ag2 S3 2.583564 1_555
Ag2 As3 2.645601 1_555
Ag3 As2 2.575607 1_545
Ag3 S0 2.646492 1_555
Ag3 S0 2.648731 1_556
Ag3 Mg0 3.053934 1_545
Ag3 Mg0 3.061391 1_546
As0 S1 2.259928 1_555
As0 As3 2.526307 1_544
As0 As3 2.526802 1_545
As0 Mg0 3.109149 1_545
As1 S0 2.405327 1_655
As1 As2 2.540133 1_655
As1 As2 2.540547 1_654
As2 S3 2.270625 1_455
As3 S2 2.334140 1_555
