# generated using pymatgen
data_MgCo5O8
_symmetry_space_group_name_H-M   'P 1'
_cell_length_a   5.97031799
_cell_length_b   5.95826355
_cell_length_c   5.95597723
_cell_angle_alpha   89.99999213
_cell_angle_beta   60.07943185
_cell_angle_gamma   60.05993682
_symmetry_Int_Tables_number   1
_chemical_formula_structural   MgCo5O8
_chemical_formula_sum   'Mg1 Co5 O8'
_cell_volume   150.13001358
_cell_formula_units_Z   1
loop_
 _symmetry_equiv_pos_site_id
 _symmetry_equiv_pos_as_xyz
  1  'x, y, z'
loop_
 _atom_site_type_symbol
 _atom_site_label
 _atom_site_symmetry_multiplicity
 _atom_site_fract_x
 _atom_site_fract_y
 _atom_site_fract_z
 _atom_site_occupancy
  Mg  Mg0  1  0.74734100  0.12640700  0.87632900  1
  Co  Co0  1  0.49736900  0.49975600  0.50131600  1
  Co  Co1  1  0.49745000  0.00280500  0.50127400  1
  Co  Co2  1  0.24834500  0.87579400  0.12582800  1
  Co  Co3  1  0.00118200  0.49939700  0.50182700  1
  Co  Co4  1  0.00118200  0.49939700  0.99699100  1
  O  O0  1  0.98061400  0.74221000  0.25969300  1
  O  O1  1  0.98017400  0.27713100  0.25991300  1
  O  O2  1  0.51776400  0.74121500  0.72465300  1
  O  O3  1  0.51776400  0.74121500  0.25758300  1
  O  O4  1  0.47937100  0.26020100  0.74110200  1
  O  O5  1  0.47937100  0.26020100  0.27952700  1
  O  O6  1  0.02030400  0.72214500  0.73984700  1
  O  O7  1  0.01986200  0.25807400  0.74006800  1
loop_
_geom_bond_atom_site_label_1
_geom_bond_atom_site_label_2
_geom_bond_distance
_geom_bond_site_symmetry_2
Mg0 O4 1.963704 1_555
Mg0 O5 1.963709 1_556
Mg0 O7 1.969307 1_655
Mg0 O6 1.969421 1_645
Co0 O6 2.020543 1_555
Co0 O4 2.021995 1_555
Co0 O5 2.021999 1_555
Co0 O1 2.045599 1_555
Co0 O2 2.047063 1_555
Co0 O3 2.047067 1_555
Co1 O5 2.021128 1_555
Co1 O4 2.021136 1_555
Co1 O7 2.022819 1_555
Co1 O3 2.046053 1_545
Co1 O2 2.046061 1_545
Co1 O0 2.047160 1_545
Co2 O3 1.953934 1_555
Co2 O2 1.953939 1_554
Co2 O1 1.955037 1_465
Co2 O0 1.955188 1_455
Co3 O7 2.022657 1_555
Co3 O6 2.024075 1_555
Co3 O5 2.025464 1_555
Co3 O0 2.046279 1_455
Co3 O1 2.047349 1_455
Co3 O2 2.048204 1_455
Co4 O7 2.022666 1_555
Co4 O6 2.024083 1_555
Co4 O4 2.025464 1_555
Co4 O0 2.046280 1_456
Co4 O1 2.047349 1_456
Co4 O3 2.048205 1_456
