# generated using pymatgen
data_Li2CoPO4F
_symmetry_space_group_name_H-M   'P 1'
_cell_length_a   5.33833200
_cell_length_b   5.35760081
_cell_length_c   7.48787322
_cell_angle_alpha   108.51583673
_cell_angle_beta   108.32746298
_cell_angle_gamma   94.10606032
_symmetry_Int_Tables_number   1
_chemical_formula_structural   Li2CoPO4F
_chemical_formula_sum   'Li4 Co2 P2 O8 F2'
_cell_volume   189.24192302
_cell_formula_units_Z   2
loop_
 _symmetry_equiv_pos_site_id
 _symmetry_equiv_pos_as_xyz
  1  'x, y, z'
loop_
 _atom_site_type_symbol
 _atom_site_label
 _atom_site_symmetry_multiplicity
 _atom_site_fract_x
 _atom_site_fract_y
 _atom_site_fract_z
 _atom_site_occupancy
  Li  Li0  1  0.16491100  0.54661800  0.12107600  1
  Li  Li1  1  0.52251300  0.15075400  0.86081100  1
  Li  Li2  1  0.48472200  0.95810200  0.47805500  1
  Li  Li3  1  0.77294800  0.45417100  0.70865800  1
  Co  Co0  1  0.00974100  0.00078900  0.01992400  1
  Co  Co1  1  0.98890100  0.99661000  0.50461800  1
  P  P0  1  0.66357600  0.37436300  0.26049700  1
  P  P1  1  0.33982400  0.62929100  0.76695000  1
  O  O0  1  0.27275000  0.79175600  0.62445900  1
  O  O1  1  0.72237200  0.24123700  0.42254600  1
  O  O2  1  0.32265900  0.32383900  0.65758000  1
  O  O3  1  0.14026000  0.65908400  0.88275300  1
  O  O4  1  0.86518700  0.32980000  0.14709500  1
  O  O5  1  0.37732900  0.25311500  0.09456200  1
  O  O6  1  0.67224100  0.67718900  0.36380900  1
  O  O7  1  0.63767800  0.73805200  0.90651500  1
  F  F0  1  0.82544000  0.10919400  0.74830200  1
  F  F1  1  0.14483000  0.89766900  0.27319900  1
loop_
_geom_bond_atom_site_label_1
_geom_bond_atom_site_label_2
_geom_bond_distance
_geom_bond_site_symmetry_2
Li0 O5 1.999149 1_555
Li0 O4 2.005251 1_455
Li0 O3 2.027694 1_554
Li1 O5 2.066235 1_556
Li1 O2 2.081072 1_555
Li1 O0 2.143829 1_545
Li1 O4 2.199619 1_556
Li1 O7 2.434536 1_545
Li2 O6 1.983823 1_555
Li2 O0 2.129026 1_555
Li2 O1 2.130677 1_565
Li2 O2 2.386680 1_565
Li3 O3 1.981087 1_655
Li3 O1 2.000983 1_555
Li3 O7 2.104408 1_555
Li3 O2 2.328926 1_555
Co0 O4 2.049446 1_455
Co0 F1 2.069875 1_545
Co0 O3 2.080967 1_544
Co0 O7 2.104097 1_444
Co0 O5 2.107384 1_555
Co0 F0 2.239546 1_454
Co1 O6 2.053464 1_555
Co1 O0 2.077121 1_655
Co1 O1 2.085305 1_565
Co1 F1 2.088903 1_655
Co1 O2 2.133978 1_665
Co1 F0 2.198272 1_565
O0 P1 1.555139 1_555
O1 P0 1.556207 1_555
O2 P1 1.561185 1_555
O3 P1 1.558756 1_555
O4 P0 1.555369 1_555
O5 P0 1.565882 1_555
O6 P0 1.549977 1_555
O7 P1 1.547720 1_555
F0 Li3 1.988213 1_555
F0 Li1 2.040490 1_555
F0 Li2 2.119539 1_545
F1 Li0 1.895084 1_555
F1 Li2 1.897391 1_555
