# generated using pymatgen
data_Tm4MgTi2O10
_symmetry_space_group_name_H-M   'P 1'
_cell_length_a   5.76077100
_cell_length_b   6.27589421
_cell_length_c   7.98027492
_cell_angle_alpha   67.80415057
_cell_angle_beta   90.00000000
_cell_angle_gamma   62.67996511
_symmetry_Int_Tables_number   1
_chemical_formula_structural   Tm4MgTi2O10
_chemical_formula_sum   'Tm4 Mg1 Ti2 O10'
_cell_volume   232.00973275
_cell_formula_units_Z   1
loop_
 _symmetry_equiv_pos_site_id
 _symmetry_equiv_pos_as_xyz
  1  'x, y, z'
loop_
 _atom_site_type_symbol
 _atom_site_label
 _atom_site_symmetry_multiplicity
 _atom_site_fract_x
 _atom_site_fract_y
 _atom_site_fract_z
 _atom_site_occupancy
  Tm  Tm0  1  0.64776600  0.73346700  0.71277600  1
  Tm  Tm1  1  0.64798000  0.72921200  0.22307400  1
  Tm  Tm2  1  0.38123600  0.26653300  0.78722400  1
  Tm  Tm3  1  0.37719500  0.27078800  0.27692600  1
  Mg  Mg0  1  0.09157300  0.00000000  0.25000000  1
  Ti  Ti0  1  0.97468900  0.02047900  0.57633100  1
  Ti  Ti1  1  0.99516700  0.97952100  0.92366900  1
  O  O0  1  0.74816700  0.83779200  0.94452100  1
  O  O1  1  0.42376300  0.83377500  0.44643800  1
  O  O2  1  0.04640600  0.66900500  0.65829900  1
  O  O3  1  0.71541100  0.33099500  0.84170100  1
  O  O4  1  0.28625600  0.68488500  0.14792200  1
  O  O5  1  0.97114100  0.31511500  0.35207700  1
  O  O6  1  0.58595800  0.16220800  0.55547900  1
  O  O7  1  0.23809900  0.00000000  0.75000000  1
  O  O8  1  0.25753600  0.16622500  0.05356200  1
  O  O9  1  0.76165700  0.00000000  0.25000000  1
loop_
_geom_bond_atom_site_label_1
_geom_bond_atom_site_label_2
_geom_bond_distance
_geom_bond_site_symmetry_2
Mg0 O9 1.900571 1_455
Mg0 O8 2.034638 1_555
Mg0 O1 2.034646 1_545
Mg0 O5 2.239123 1_455
Mg0 O4 2.239128 1_545
O0 Ti1 1.973186 1_555
O0 Tm1 2.226073 1_556
O0 Tm0 2.333647 1_555
O0 Tm2 2.347583 1_565
O1 Tm0 2.196004 1_555
O1 Tm1 2.319933 1_555
O1 Tm3 2.438334 1_565
O1 Ti0 2.697276 1_465
O2 Ti0 1.880824 1_465
O2 Tm2 2.173352 1_555
O2 Tm0 2.215072 1_455
O3 Ti1 1.880822 1_545
O3 Tm0 2.173346 1_555
O3 Tm2 2.215056 1_555
O4 Ti1 2.021724 1_454
O4 Tm3 2.194777 1_555
O4 Tm1 2.331846 1_555
O5 Ti0 2.021726 1_555
O5 Tm1 2.194782 1_555
O5 Tm3 2.331860 1_655
O6 Ti0 1.973197 1_555
O6 Tm3 2.226063 1_555
O6 Tm2 2.333639 1_555
O6 Tm0 2.347587 1_545
O7 Ti0 1.981501 1_455
O7 Ti1 1.981505 1_445
O7 Tm0 2.282033 1_545
O7 Tm2 2.282045 1_555
O8 Tm2 2.196017 1_554
O8 Tm3 2.319945 1_555
O8 Tm1 2.438332 1_545
O8 Ti1 2.697272 1_444
O9 Tm3 2.158824 1_555
O9 Tm1 2.158835 1_545
