# generated using pymatgen
data_HfMo2
_symmetry_space_group_name_H-M   'P 1'
_cell_length_a   5.34033115
_cell_length_b   5.34033129
_cell_length_c   5.34033037
_cell_angle_alpha   59.99999297
_cell_angle_beta   59.99999215
_cell_angle_gamma   59.99999187
_symmetry_Int_Tables_number   1
_chemical_formula_structural   HfMo2
_chemical_formula_sum   'Hf2 Mo4'
_cell_volume   107.69348691
_cell_formula_units_Z   2
loop_
 _symmetry_equiv_pos_site_id
 _symmetry_equiv_pos_as_xyz
  1  'x, y, z'
loop_
 _atom_site_type_symbol
 _atom_site_label
 _atom_site_symmetry_multiplicity
 _atom_site_fract_x
 _atom_site_fract_y
 _atom_site_fract_z
 _atom_site_occupancy
  Hf  Hf0  1  0.12500000  0.12500000  0.12500000  1
  Hf  Hf1  1  0.87500000  0.87500000  0.87500000  1
  Mo  Mo0  1  0.50000000  0.00000000  0.50000000  1
  Mo  Mo1  1  -0.00000000  0.50000000  0.50000000  1
  Mo  Mo2  1  0.50000000  0.50000000  0.50000000  1
  Mo  Mo3  1  0.50000000  0.50000000  -0.00000000  1
loop_
_geom_bond_atom_site_label_1
_geom_bond_atom_site_label_2
_geom_bond_distance
_geom_bond_site_symmetry_2
Hf0 Mo0 3.131046 1_554
Hf0 Mo1 3.131046 1_554
Hf0 Mo2 3.131046 1_554
Hf0 Mo2 3.131046 1_455
Hf0 Mo2 3.131046 1_545
Hf0 Mo3 3.131046 1_455
Hf0 Mo3 3.131046 1_545
Hf0 Mo0 3.131046 1_455
Hf0 Mo0 3.131046 1_555
Hf0 Mo1 3.131047 1_555
Hf0 Mo1 3.131047 1_545
Hf0 Mo3 3.131047 1_555
Hf0 Hf1 3.270271 1_445
Hf0 Hf1 3.270271 1_544
Hf0 Hf1 3.270271 1_454
Hf0 Hf1 3.270272 1_444
Hf1 Mo0 3.131046 1_566
Hf1 Mo1 3.131046 1_656
Hf1 Mo2 3.131046 1_556
Hf1 Mo2 3.131046 1_655
Hf1 Mo2 3.131046 1_565
Hf1 Mo3 3.131046 1_656
Hf1 Mo3 3.131046 1_566
Hf1 Mo0 3.131046 1_665
Hf1 Mo0 3.131046 1_565
Hf1 Mo1 3.131047 1_655
Hf1 Mo1 3.131047 1_665
Hf1 Mo3 3.131047 1_556
Mo0 Mo3 2.670165 1_546
Mo0 Mo3 2.670165 1_555
Mo0 Mo1 2.670165 1_555
Mo0 Mo1 2.670165 1_645
Mo0 Mo2 2.670166 1_545
Mo0 Mo2 2.670166 1_555
Mo1 Mo3 2.670165 1_555
Mo1 Mo3 2.670165 1_456
Mo1 Mo2 2.670166 1_555
Mo1 Mo2 2.670166 1_455
Mo2 Mo3 2.670165 1_556
Mo2 Mo3 2.670165 1_555
