# generated using pymatgen
data_MgCo6(O2F)4
_symmetry_space_group_name_H-M   'P 1'
_cell_length_a   8.28584186
_cell_length_b   5.85796641
_cell_length_c   5.71240725
_cell_angle_alpha   66.35071599
_cell_angle_beta   63.27535205
_cell_angle_gamma   61.88374615
_symmetry_Int_Tables_number   1
_chemical_formula_structural   MgCo6(O2F)4
_chemical_formula_sum   'Mg1 Co6 O8 F4'
_cell_volume   212.03305221
_cell_formula_units_Z   1
loop_
 _symmetry_equiv_pos_site_id
 _symmetry_equiv_pos_as_xyz
  1  'x, y, z'
loop_
 _atom_site_type_symbol
 _atom_site_label
 _atom_site_symmetry_multiplicity
 _atom_site_fract_x
 _atom_site_fract_y
 _atom_site_fract_z
 _atom_site_occupancy
  Mg  Mg0  1  0.83417649  0.18799866  0.64767279  1
  Co  Co0  1  0.86394070  0.67156428  0.68123114  1
  Co  Co1  1  0.29970117  0.67048786  0.67179381  1
  Co  Co2  1  0.63497506  0.34750757  0.30089041  1
  Co  Co3  1  0.21612376  0.34447139  0.35020586  1
  Co  Co4  1  0.47970707  0.99194666  0.98792125  1
  Co  Co5  1  0.02721355  0.97443587  0.01084616  1
  O  O0  1  0.32509838  0.35436715  0.98269975  1
  O  O1  1  0.67135249  0.02480008  0.63192344  1
  O  O2  1  0.36767691  0.43731661  0.43809982  1
  O  O3  1  0.03601320  0.80241001  0.75245672  1
  O  O4  1  0.33789024  0.98155578  0.35505160  1
  O  O5  1  0.66592472  0.63675151  0.01856064  1
  O  O6  1  0.01071607  0.30408180  0.69205042  1
  O  O7  1  0.02227783  0.67722610  0.31927451  1
  F  F0  1  0.61538579  0.52664076  0.56671397  1
  F  F1  1  0.31574160  0.87212534  0.89079151  1
  F  F2  1  0.93352051  0.22040564  0.25096539  1
  F  F3  1  0.71756546  0.11676491  0.05799482  1
loop_
_geom_bond_atom_site_label_1
_geom_bond_atom_site_label_2
_geom_bond_distance
_geom_bond_site_symmetry_2
Mg0 O6 2.018849 1_655
Mg0 O1 2.033726 1_555
Mg0 O3 2.124245 1_645
Co0 O7 1.882470 1_655
Co0 O5 1.898230 1_556
Co0 O6 1.900076 1_655
Co0 O1 1.931834 1_565
Co0 O3 2.141921 1_655
Co1 O3 1.836302 1_555
Co1 O0 1.989486 1_555
Co1 O2 2.006631 1_555
Co1 O4 2.019355 1_555
Co1 F1 2.112080 1_555
Co1 F0 2.197387 1_555
Co2 O5 1.839284 1_555
Co2 O2 1.862172 1_555
Co2 F3 1.999844 1_555
Co2 F0 2.080739 1_555
Co2 O1 2.085191 1_555
Co2 F2 2.134194 1_555
Co3 O7 1.854367 1_555
Co3 O0 1.863521 1_554
Co3 O4 1.869389 1_545
Co3 O2 1.885384 1_555
Co3 O6 1.945665 1_555
Co4 O4 1.879170 1_556
Co4 O0 1.889303 1_565
Co4 O5 1.914562 1_556
Co4 O1 1.940050 1_565
Co4 F1 2.129677 1_555
Co5 O7 1.917922 1_555
Co5 F1 2.012368 1_554
Co5 F2 2.033187 1_465
Co5 O6 2.053736 1_564
Co5 O3 2.055905 1_554
Co5 F3 2.211992 1_465
F0 Mg0 2.015959 1_555
F2 Mg0 1.993357 1_555
F3 Mg0 2.039631 1_554
