# generated using pymatgen
data_MgTi2(SnO3)2
_symmetry_space_group_name_H-M   'P 1'
_cell_length_a   7.52596410
_cell_length_b   8.50506416
_cell_length_c   7.19510483
_cell_angle_alpha   38.83643278
_cell_angle_beta   40.86030275
_cell_angle_gamma   37.84081606
_symmetry_Int_Tables_number   1
_chemical_formula_structural   MgTi2(SnO3)2
_chemical_formula_sum   'Mg1 Ti2 Sn2 O6'
_cell_volume   164.81753173
_cell_formula_units_Z   1
loop_
 _symmetry_equiv_pos_site_id
 _symmetry_equiv_pos_as_xyz
  1  'x, y, z'
loop_
 _atom_site_type_symbol
 _atom_site_label
 _atom_site_symmetry_multiplicity
 _atom_site_fract_x
 _atom_site_fract_y
 _atom_site_fract_z
 _atom_site_occupancy
  Mg  Mg0  1  0.32741728  0.74638286  0.17946510  1
  Ti  Ti0  1  0.35239365  0.27430911  0.35444255  1
  Ti  Ti1  1  0.67125408  0.63513722  0.64505068  1
  Sn  Sn0  1  0.04506477  0.33498281  0.02883189  1
  Sn  Sn1  1  0.86262138  0.91858867  0.83360218  1
  O  O0  1  0.08602078  0.54441638  0.53242591  1
  O  O1  1  0.44653481  0.95881547  0.71647372  1
  O  O2  1  0.30252535  0.61989585  0.89345715  1
  O  O3  1  0.66184744  0.38780036  0.09989869  1
  O  O4  1  0.61686861  0.96993895  0.24117043  1
  O  O5  1  0.95245185  0.35973231  0.50851470  1
loop_
_geom_bond_atom_site_label_1
_geom_bond_atom_site_label_2
_geom_bond_distance
_geom_bond_site_symmetry_2
Mg0 O1 1.956991 1_554
Mg0 O0 1.963348 1_555
Mg0 O3 2.092936 1_555
O0 Ti1 2.083188 1_455
O0 Ti0 2.088612 1_555
O0 Sn0 2.305521 1_556
O1 Ti0 1.840454 1_565
O1 Ti1 2.058787 1_555
O2 Ti1 1.901841 1_555
O2 Ti0 2.175848 1_556
O2 Sn1 2.183634 1_455
O3 Ti0 2.013603 1_555
O3 Ti1 2.073704 1_554
O3 Sn0 2.205005 1_655
O4 Ti1 1.946200 1_555
O4 Ti0 2.005534 1_565
O4 Sn1 2.174037 1_554
O5 Ti1 1.881758 1_555
O5 Ti0 1.889487 1_655
