# generated using pymatgen
data_Na9MgNb5(SiO4)9
_symmetry_space_group_name_H-M   'P 1'
_cell_length_a   15.82003687
_cell_length_b   27.24372239
_cell_length_c   9.08081994
_cell_angle_alpha   89.78617781
_cell_angle_beta   125.08541125
_cell_angle_gamma   90.29087511
_symmetry_Int_Tables_number   1
_chemical_formula_structural   Na9MgNb5(SiO4)9
_chemical_formula_sum   'Na36 Mg4 Nb20 Si36 O144'
_cell_volume   3202.60717128
_cell_formula_units_Z   4
loop_
 _symmetry_equiv_pos_site_id
 _symmetry_equiv_pos_as_xyz
  1  'x, y, z'
loop_
 _atom_site_type_symbol
 _atom_site_label
 _atom_site_symmetry_multiplicity
 _atom_site_fract_x
 _atom_site_fract_y
 _atom_site_fract_z
 _atom_site_occupancy
  Na  Na0  1  0.25556833  0.25443869  0.01461392  1
  Na  Na1  1  0.25891519  0.58915663  0.01802742  1
  Na  Na2  1  0.24762722  0.91489299  0.99790428  1
  Na  Na3  1  0.74878646  0.25618947  0.50259277  1
  Na  Na4  1  0.74283608  0.57655780  0.49687989  1
  Na  Na5  1  0.75075533  0.91464185  0.50657756  1
  Na  Na6  1  0.75891519  0.08915663  0.01802742  1
  Na  Na7  1  0.74762722  0.41489299  0.99790428  1
  Na  Na8  1  0.75556833  0.75443869  0.01461392  1
  Na  Na9  1  0.24283608  0.07655780  0.49687989  1
  Na  Na10  1  0.25075533  0.41464185  0.50657756  1
  Na  Na11  1  0.24878646  0.75618947  0.50259277  1
  Na  Na12  1  0.50245131  0.03822486  0.75398861  1
  Na  Na13  1  0.48818472  0.36330288  0.71856634  1
  Na  Na14  1  0.48910896  0.69807682  0.72604227  1
  Na  Na15  1  0.50087724  0.28879434  0.27004548  1
  Na  Na16  1  0.50126021  0.62410049  0.27658944  1
  Na  Na17  1  0.49998077  0.96405394  0.25433624  1
  Na  Na18  1  0.98910896  0.19807682  0.72604227  1
  Na  Na19  1  0.00245131  0.53822486  0.75398861  1
  Na  Na20  1  0.98818472  0.86330288  0.71856634  1
  Na  Na21  1  0.00126021  0.12410049  0.27658944  1
  Na  Na22  1  -0.00001923  0.46405394  0.25433624  1
  Na  Na23  1  0.00087724  0.78879434  0.27004548  1
  Na  Na24  1  0.80702276  0.65318494  0.24050774  1
  Na  Na25  1  0.81662842  0.98547168  0.25070301  1
  Na  Na26  1  0.20541200  0.30792555  0.29314817  1
  Na  Na27  1  0.20840777  0.64526241  0.28671495  1
  Na  Na28  1  0.81448138  0.02511881  0.68184484  1
  Na  Na29  1  0.81156821  0.69122716  0.67842396  1
  Na  Na30  1  0.30702276  0.15318494  0.24050774  1
  Na  Na31  1  0.31662842  0.48547168  0.25070301  1
  Na  Na32  1  0.70840777  0.14526241  0.28671495  1
  Na  Na33  1  0.70541200  0.80792555  0.29314817  1
  Na  Na34  1  0.31156821  0.19122716  0.67842396  1
  Na  Na35  1  0.31448138  0.52511881  0.68184484  1
  Mg  Mg0  1  0.89827363  0.08275749  0.43677210  1
  Mg  Mg1  1  0.89726118  0.74925850  0.43618361  1
  Mg  Mg2  1  0.39726118  0.24925850  0.43618361  1
  Mg  Mg3  1  0.39827363  0.58275749  0.43677210  1
  Nb  Nb0  1  0.10827958  0.25028387  0.57576445  1
  Nb  Nb1  1  0.10858051  0.58469379  0.57358955  1
  Nb  Nb2  1  0.10874533  0.91734528  0.57167454  1
  Nb  Nb3  1  0.88897307  0.25151287  0.93130026  1
  Nb  Nb4  1  0.89302365  0.58233097  0.93256342  1
  Nb  Nb5  1  0.89657386  0.91733222  0.93550461  1
  Nb  Nb6  1  0.89072449  0.41515649  0.43038081  1
  Nb  Nb7  1  0.10254318  0.08128597  0.05827058  1
  Nb  Nb8  1  0.10642331  0.41549473  0.06747305  1
  Nb  Nb9  1  0.10772099  0.75066414  0.06063927  1
  Nb  Nb10  1  0.60858051  0.08469379  0.57358955  1
  Nb  Nb11  1  0.60874533  0.41734528  0.57167454  1
  Nb  Nb12  1  0.60827958  0.75028387  0.57576445  1
  Nb  Nb13  1  0.39302365  0.08233097  0.93256342  1
  Nb  Nb14  1  0.39657386  0.41733222  0.93550461  1
  Nb  Nb15  1  0.38897307  0.75151287  0.93130026  1
  Nb  Nb16  1  0.39072449  0.91515649  0.43038081  1
  Nb  Nb17  1  0.60772099  0.25066414  0.06063927  1
  Nb  Nb18  1  0.60254318  0.58128597  0.05827058  1
  Nb  Nb19  1  0.60642331  0.91549473  0.06747305  1
  Si  Si0  1  0.00005181  0.31921921  0.75044560  1
  Si  Si1  1  0.00035420  0.65346909  0.74359143  1
  Si  Si2  1  0.99783342  0.98559795  0.73461121  1
  Si  Si3  1  0.00246371  0.01402708  0.24956925  1
  Si  Si4  1  0.00077633  0.34625600  0.25179535  1
  Si  Si5  1  0.00174833  0.68007964  0.24816731  1
  Si  Si6  1  0.50035420  0.15346909  0.74359143  1
  Si  Si7  1  0.49783342  0.48559795  0.73461121  1
  Si  Si8  1  0.50005181  0.81921921  0.75044560  1
  Si  Si9  1  0.50174833  0.18007964  0.24816731  1
  Si  Si10  1  0.50246371  0.51402708  0.24956925  1
  Si  Si11  1  0.50077633  0.84625600  0.25179535  1
  Si  Si12  1  0.35491096  0.29774499  0.75206365  1
  Si  Si13  1  0.35253800  0.63168929  0.74714936  1
  Si  Si14  1  0.35561271  0.96360547  0.75403088  1
  Si  Si15  1  0.64104982  0.29785293  0.73123973  1
  Si  Si16  1  0.64434681  0.63027034  0.74092356  1
  Si  Si17  1  0.64554052  0.96353966  0.74365576  1
  Si  Si18  1  0.64415282  0.03424729  0.24553306  1
  Si  Si19  1  0.64275251  0.36812249  0.24687777  1
  Si  Si20  1  0.64028530  0.70123396  0.24104560  1
  Si  Si21  1  0.35478979  0.03591168  0.25700382  1
  Si  Si22  1  0.35641344  0.36938911  0.25691795  1
  Si  Si23  1  0.35536941  0.70415641  0.25766574  1
  Si  Si24  1  0.85253800  0.13168929  0.74714936  1
  Si  Si25  1  0.85561271  0.46360547  0.75403088  1
  Si  Si26  1  0.85491096  0.79774499  0.75206365  1
  Si  Si27  1  0.14434681  0.13027034  0.74092356  1
  Si  Si28  1  0.14554052  0.46353966  0.74365576  1
  Si  Si29  1  0.14104982  0.79785293  0.73123973  1
  Si  Si30  1  0.14028530  0.20123396  0.24104560  1
  Si  Si31  1  0.14415282  0.53424729  0.24553306  1
  Si  Si32  1  0.14275251  0.86812249  0.24687777  1
  Si  Si33  1  0.85536941  0.20415641  0.25766574  1
  Si  Si34  1  0.85478979  0.53591168  0.25700382  1
  Si  Si35  1  0.85641344  0.86938911  0.25691795  1
  O  O0  1  0.15328019  0.19155291  0.74477757  1
  O  O1  1  0.14869899  0.52384262  0.74049850  1
  O  O2  1  0.14932097  0.85857408  0.74373945  1
  O  O3  1  0.84574194  0.19109999  0.76779129  1
  O  O4  1  0.84883162  0.52361750  0.75454462  1
  O  O5  1  0.84824264  0.85744460  0.77235433  1
  O  O6  1  0.84487472  0.14532780  0.25034054  1
  O  O7  1  0.84982354  0.47564266  0.26131142  1
  O  O8  1  0.84224638  0.81092898  0.24590861  1
  O  O9  1  0.14542605  0.14056593  0.23885011  1
  O  O10  1  0.15189884  0.47315042  0.24744349  1
  O  O11  1  0.14630170  0.80812653  0.23905426  1
  O  O12  1  0.64869899  0.02384262  0.74049850  1
  O  O13  1  0.64932097  0.35857408  0.74373945  1
  O  O14  1  0.65328019  0.69155291  0.74477757  1
  O  O15  1  0.34883162  0.02361750  0.75454462  1
  O  O16  1  0.34824264  0.35744460  0.77235433  1
  O  O17  1  0.34574194  0.69109999  0.76779129  1
  O  O18  1  0.34224638  0.31092898  0.24590861  1
  O  O19  1  0.34487472  0.64532780  0.25034054  1
  O  O20  1  0.34982354  0.97564266  0.26131142  1
  O  O21  1  0.64630170  0.30812653  0.23905426  1
  O  O22  1  0.64542605  0.64056593  0.23885011  1
  O  O23  1  0.65189884  0.97315042  0.24744349  1
  O  O24  1  0.41974356  0.18370402  0.56515385  1
  O  O25  1  0.41804284  0.51598824  0.55467323  1
  O  O26  1  0.43649893  0.85655670  0.57707163  1
  O  O27  1  0.56858028  0.18882329  0.92519164  1
  O  O28  1  0.56221049  0.52384833  0.91077071  1
  O  O29  1  0.56741673  0.85500381  0.93077958  1
  O  O30  1  0.56812409  0.14175514  0.42354167  1
  O  O31  1  0.56553622  0.47635787  0.42458134  1
  O  O32  1  0.56903749  0.80940337  0.42556545  1
  O  O33  1  0.44327501  0.14124431  0.07699837  1
  O  O34  1  0.44239567  0.47799403  0.07084208  1
  O  O35  1  0.43690307  0.81282038  0.07096989  1
  O  O36  1  0.91804284  0.01598824  0.55467323  1
  O  O37  1  0.93649893  0.35655670  0.57707163  1
  O  O38  1  0.91974356  0.68370402  0.56515385  1
  O  O39  1  0.06221049  0.02384833  0.91077071  1
  O  O40  1  0.06741673  0.35500381  0.93077958  1
  O  O41  1  0.06858028  0.68882329  0.92519164  1
  O  O42  1  0.06903749  0.30940337  0.42556545  1
  O  O43  1  0.06812409  0.64175514  0.42354167  1
  O  O44  1  0.06553622  0.97635787  0.42458134  1
  O  O45  1  0.93690307  0.31282038  0.07096989  1
  O  O46  1  0.94327501  0.64124431  0.07699837  1
  O  O47  1  0.94239567  0.97799403  0.07084208  1
  O  O48  1  0.25983765  0.26958766  0.74507701  1
  O  O49  1  0.25960262  0.60237234  0.74563958  1
  O  O50  1  0.25846913  0.93793610  0.74010638  1
  O  O51  1  0.74596105  0.27579450  0.76053276  1
  O  O52  1  0.75029499  0.61036896  0.76345614  1
  O  O53  1  0.74592511  0.94311563  0.75447607  1
  O  O54  1  0.73405908  0.05986483  0.23997982  1
  O  O55  1  0.74407666  0.39293083  0.26718867  1
  O  O56  1  0.73347020  0.72638325  0.24417817  1
  O  O57  1  0.25965953  0.06444290  0.24157208  1
  O  O58  1  0.25828568  0.39649345  0.24543852  1
  O  O59  1  0.25744758  0.72996365  0.24619848  1
  O  O60  1  0.75960262  0.10237234  0.74563958  1
  O  O61  1  0.75846913  0.43793610  0.74010638  1
  O  O62  1  0.75983765  0.76958766  0.74507701  1
  O  O63  1  0.25029499  0.11036896  0.76345614  1
  O  O64  1  0.24592511  0.44311563  0.75447607  1
  O  O65  1  0.24596105  0.77579450  0.76053276  1
  O  O66  1  0.23347020  0.22638325  0.24417817  1
  O  O67  1  0.23405908  0.55986483  0.23997982  1
  O  O68  1  0.24407666  0.89293083  0.26718867  1
  O  O69  1  0.75744758  0.22996365  0.24619848  1
  O  O70  1  0.75965953  0.56444290  0.24157208  1
  O  O71  1  0.75828568  0.89649345  0.24543852  1
  O  O72  1  0.35306004  0.28850933  0.57607354  1
  O  O73  1  0.34967359  0.62093927  0.57133021  1
  O  O74  1  0.36324822  0.95068369  0.58493995  1
  O  O75  1  0.63601224  0.28334311  0.90711152  1
  O  O76  1  0.64533325  0.61857394  0.92268270  1
  O  O77  1  0.64449108  0.95007930  0.92240137  1
  O  O78  1  0.64512521  0.04655162  0.42580100  1
  O  O79  1  0.63684039  0.38128465  0.41726956  1
  O  O80  1  0.64290479  0.71441914  0.42410295  1
  O  O81  1  0.35780015  0.04957097  0.08288753  1
  O  O82  1  0.35990845  0.39043876  0.08960267  1
  O  O83  1  0.35731254  0.72315140  0.08728453  1
  O  O84  1  0.84967359  0.12093927  0.57133021  1
  O  O85  1  0.86324822  0.45068369  0.58493995  1
  O  O86  1  0.85306004  0.78850933  0.57607354  1
  O  O87  1  0.14533325  0.11857394  0.92268270  1
  O  O88  1  0.14449108  0.45007930  0.92240137  1
  O  O89  1  0.13601224  0.78334311  0.90711152  1
  O  O90  1  0.14290479  0.21441914  0.42410295  1
  O  O91  1  0.14512521  0.54655162  0.42580100  1
  O  O92  1  0.13684039  0.88128465  0.41726956  1
  O  O93  1  0.85731254  0.22315140  0.08728453  1
  O  O94  1  0.85780015  0.54957097  0.08288753  1
  O  O95  1  0.85990845  0.89043876  0.08960267  1
  O  O96  1  0.46325441  0.27534519  0.93414538  1
  O  O97  1  0.46247859  0.60905236  0.92686088  1
  O  O98  1  0.46526055  0.94359679  0.93810824  1
  O  O99  1  0.53920158  0.27838702  0.55118646  1
  O  O100  1  0.54261239  0.61076625  0.56081242  1
  O  O101  1  0.53741671  0.94304678  0.56482147  1
  O  O102  1  0.52971582  0.04891988  0.06797621  1
  O  O103  1  0.53672126  0.38821723  0.06243827  1
  O  O104  1  0.52922443  0.72131234  0.06682720  1
  O  O105  1  0.46438845  0.05562210  0.43881701  1
  O  O106  1  0.46191428  0.39085646  0.44141075  1
  O  O107  1  0.46522539  0.72354427  0.44210610  1
  O  O108  1  0.96247859  0.10905236  0.92686088  1
  O  O109  1  0.96526055  0.44359679  0.93810824  1
  O  O110  1  0.96325441  0.77534519  0.93414538  1
  O  O111  1  0.04261239  0.11076625  0.56081242  1
  O  O112  1  0.03741671  0.44304678  0.56482147  1
  O  O113  1  0.03920158  0.77838702  0.55118646  1
  O  O114  1  0.02922443  0.22131234  0.06682720  1
  O  O115  1  0.02971582  0.54891988  0.06797621  1
  O  O116  1  0.03672126  0.88821723  0.06243827  1
  O  O117  1  0.96522539  0.22354427  0.44210610  1
  O  O118  1  0.96438845  0.55562210  0.43881701  1
  O  O119  1  0.96191428  0.89085646  0.44141075  1
  O  O120  1  0.08258095  0.28504112  0.74322018  1
  O  O121  1  0.08389543  0.61716892  0.74320958  1
  O  O122  1  0.08467660  0.95021337  0.74581768  1
  O  O123  1  0.91973933  0.28278630  0.75483229  1
  O  O124  1  0.92899882  0.61455401  0.77227548  1
  O  O125  1  0.92236195  0.94894165  0.76058582  1
  O  O126  1  0.91778895  0.04772868  0.24456798  1
  O  O127  1  0.92318427  0.38375413  0.26068525  1
  O  O128  1  0.91655810  0.71257367  0.24447542  1
  O  O129  1  0.08698641  0.04766358  0.24261512  1
  O  O130  1  0.08742991  0.37998947  0.24832633  1
  O  O131  1  0.08914925  0.71226140  0.24588347  1
  O  O132  1  0.58389543  0.11716892  0.74320958  1
  O  O133  1  0.58467660  0.45021337  0.74581768  1
  O  O134  1  0.58258095  0.78504112  0.74322018  1
  O  O135  1  0.42899882  0.11455401  0.77227548  1
  O  O136  1  0.42236195  0.44894165  0.76058582  1
  O  O137  1  0.41973933  0.78278630  0.75483229  1
  O  O138  1  0.41655810  0.21257367  0.24447542  1
  O  O139  1  0.41778895  0.54772868  0.24456798  1
  O  O140  1  0.42318427  0.88375413  0.26068525  1
  O  O141  1  0.58914925  0.21226140  0.24588347  1
  O  O142  1  0.58698641  0.54766358  0.24261512  1
  O  O143  1  0.58742991  0.87998947  0.24832633  1
loop_
_geom_bond_atom_site_label_1
_geom_bond_atom_site_label_2
_geom_bond_distance
_geom_bond_site_symmetry_2
Na0 O18 2.313454 1_555
Na0 O66 2.423902 1_555
Na0 O138 2.458588 1_555
Na0 O48 2.519512 1_554
Na0 O120 2.551968 1_554
Na0 O0 2.646282 1_554
Na1 O19 2.312257 1_555
Na1 O67 2.397844 1_555
Na1 O139 2.427028 1_555
Na1 O49 2.504439 1_554
Na1 O121 2.557428 1_554
Na1 O1 2.740107 1_554
Na2 O2 2.444509 1_555
Na2 O122 2.456918 1_555
Na2 O50 2.520599 1_555
Na2 O68 2.547037 1_556
Na2 O140 2.552923 1_556
Na2 O20 2.575108 1_556
Na3 O21 2.428057 1_555
Na3 O51 2.429735 1_555
Na3 O123 2.440678 1_555
Na3 O69 2.516001 1_555
Na3 O141 2.542961 1_555
Na3 O3 2.654441 1_555
Na4 O142 2.340775 1_555
Na4 O4 2.419847 1_555
Na4 O70 2.504140 1_555
Na4 O52 2.531704 1_555
Na4 O22 2.598406 1_555
Na4 O124 2.742387 1_555
Na5 O53 2.426218 1_555
Na5 O143 2.468383 1_555
Na5 O71 2.493210 1_555
Na5 O23 2.508110 1_555
Na5 O5 2.519705 1_555
Na5 O125 2.520999 1_555
Na6 O6 2.312257 1_555
Na6 O54 2.397844 1_555
Na6 O126 2.427028 1_555
Na6 O60 2.504439 1_554
Na6 O132 2.557428 1_554
Na6 O12 2.740107 1_554
Na7 O13 2.444509 1_555
Na7 O133 2.456918 1_555
Na7 O61 2.520599 1_555
Na7 O55 2.547037 1_556
Na7 O127 2.552923 1_556
Na7 O7 2.575108 1_556
Na8 O8 2.313454 1_555
Na8 O56 2.423902 1_555
Na8 O128 2.458588 1_555
Na8 O62 2.519512 1_554
Na8 O134 2.551968 1_554
Na8 O14 2.646282 1_554
Na9 O129 2.340775 1_555
Na9 O15 2.419847 1_555
Na9 O57 2.504140 1_555
Na9 O63 2.531704 1_555
Na9 O9 2.598406 1_555
Na9 O135 2.742387 1_555
Na10 O64 2.426218 1_555
Na10 O130 2.468383 1_555
Na10 O58 2.493210 1_555
Na10 O10 2.508110 1_555
Na10 O16 2.519705 1_555
Na10 O136 2.520999 1_555
Na11 O11 2.428057 1_555
Na11 O65 2.429735 1_555
Na11 O137 2.440678 1_555
Na11 O59 2.516001 1_555
Na11 O131 2.542961 1_555
Na11 O17 2.654441 1_555
Na12 O12 2.420096 1_555
Na12 O135 2.439486 1_555
Na12 O15 2.463509 1_555
Na12 O132 2.531916 1_555
Na12 O105 2.605755 1_555
Na12 O102 2.644197 1_556
Na13 O106 2.420147 1_555
Na13 O13 2.429073 1_555
Na13 O16 2.530670 1_555
Na13 O136 2.676093 1_555
Na13 O72 2.681721 1_555
Na13 O133 2.744299 1_555
Na13 O103 2.838188 1_556
Na13 O75 2.926929 1_555
Na14 O107 2.478211 1_555
Na14 O14 2.510468 1_555
Na14 O17 2.511490 1_555
Na14 O137 2.637934 1_555
Na14 O134 2.743401 1_555
Na14 O73 2.769174 1_555
Na14 O104 2.851822 1_556
Na15 O99 2.276549 1_555
Na15 O138 2.400977 1_555
Na15 O18 2.468107 1_555
Na15 O21 2.525935 1_555
Na15 O141 2.594393 1_555
Na15 O96 2.776972 1_554
Na16 O100 2.296902 1_555
Na16 O139 2.385924 1_555
Na16 O19 2.418186 1_555
Na16 O22 2.531264 1_555
Na16 O142 2.604880 1_555
Na16 O97 2.897856 1_554
Na17 O20 2.434624 1_555
Na17 O23 2.451161 1_555
Na17 O140 2.513531 1_555
Na17 O101 2.588332 1_555
Na17 O98 2.655944 1_554
Na17 O143 2.698510 1_555
Na18 O117 2.478211 1_555
Na18 O0 2.510468 1_655
Na18 O3 2.511490 1_555
Na18 O123 2.637934 1_555
Na18 O120 2.743401 1_655
Na18 O84 2.769174 1_555
Na18 O114 2.851822 1_656
Na19 O1 2.420096 1_555
Na19 O124 2.439486 1_455
Na19 O4 2.463509 1_455
Na19 O121 2.531916 1_555
Na19 O118 2.605755 1_455
Na19 O115 2.644197 1_556
Na20 O119 2.420147 1_555
Na20 O2 2.429073 1_655
Na20 O5 2.530670 1_555
Na20 O125 2.676093 1_555
Na20 O86 2.681721 1_555
Na20 O122 2.744299 1_655
Na20 O116 2.838188 1_656
Na20 O89 2.926929 1_655
Na21 O111 2.296902 1_555
Na21 O126 2.385924 1_455
Na21 O6 2.418186 1_455
Na21 O9 2.531264 1_555
Na21 O129 2.604880 1_555
Na21 O108 2.897856 1_454
Na22 O7 2.434624 1_455
Na22 O10 2.451161 1_555
Na22 O127 2.513531 1_455
Na22 O112 2.588332 1_555
Na22 O109 2.655944 1_454
Na22 O130 2.698510 1_555
Na23 O113 2.276549 1_555
Na23 O128 2.400977 1_455
Na23 O8 2.468107 1_455
Na23 O11 2.525935 1_555
Na23 O131 2.594393 1_555
Na23 O110 2.776972 1_454
Na24 O56 2.323906 1_555
Na24 O128 2.349915 1_555
Na24 O70 2.529107 1_555
Na24 O38 2.553821 1_555
Na24 O22 2.569205 1_555
Na24 O76 2.696434 1_554
Na25 O126 2.348466 1_565
Na25 O54 2.388023 1_565
Na25 O36 2.407699 1_565
Na25 O71 2.580283 1_555
Na25 O23 2.609110 1_555
Na25 O77 2.809839 1_554
Na26 O72 2.332396 1_555
Na26 O66 2.360977 1_555
Na26 O18 2.437665 1_555
Na26 O130 2.581051 1_555
Na26 O58 2.664181 1_555
Na27 O73 2.340003 1_555
Na27 O19 2.364266 1_555
Na27 O67 2.443881 1_555
Na27 O131 2.500893 1_555
Na27 O59 2.523051 1_555
Na28 O78 2.402010 1_555
Na28 O60 2.474839 1_555
Na28 O36 2.502195 1_555
Na28 O125 2.520534 1_545
Na28 O53 2.718289 1_545
Na29 O80 2.403033 1_555
Na29 O38 2.461176 1_555
Na29 O62 2.488054 1_555
Na29 O124 2.597485 1_555
Na29 O52 2.686004 1_555
Na29 O14 2.892852 1_555
Na30 O66 2.323906 1_555
Na30 O138 2.349915 1_555
Na30 O57 2.529107 1_555
Na30 O24 2.553821 1_555
Na30 O9 2.569205 1_555
Na30 O87 2.696434 1_554
Na31 O139 2.348466 1_555
Na31 O67 2.388023 1_555
Na31 O25 2.407699 1_555
Na31 O58 2.580283 1_555
Na31 O10 2.609110 1_555
Na31 O88 2.809839 1_554
Na32 O84 2.340003 1_555
Na32 O6 2.364266 1_555
Na32 O54 2.443881 1_555
Na32 O141 2.500893 1_555
Na32 O69 2.523051 1_555
Na33 O86 2.332396 1_555
Na33 O56 2.360977 1_555
Na33 O8 2.437665 1_555
Na33 O143 2.581051 1_555
Na33 O71 2.664181 1_555
Na34 O90 2.403033 1_555
Na34 O24 2.461176 1_555
Na34 O48 2.488054 1_555
Na34 O135 2.597485 1_555
Na34 O63 2.686004 1_555
Na34 O0 2.892852 1_555
Na35 O91 2.402010 1_555
Na35 O49 2.474839 1_555
Na35 O25 2.502195 1_555
Na35 O136 2.520534 1_555
Na35 O64 2.718289 1_555
Mg0 O111 2.024117 1_655
Mg0 O36 2.039437 1_555
Mg0 O84 2.064903 1_555
Mg0 O126 2.165003 1_555
Mg0 O6 2.198757 1_555
Mg0 O54 2.233009 1_555
Mg1 O113 2.013680 1_655
Mg1 O38 2.049316 1_555
Mg1 O86 2.070037 1_555
Mg1 O128 2.179383 1_555
Mg1 O8 2.197775 1_555
Mg1 O56 2.222745 1_555
Mg2 O99 2.013680 1_555
Mg2 O24 2.049316 1_555
Mg2 O72 2.070037 1_555
Mg2 O138 2.179383 1_555
Mg2 O18 2.197775 1_555
Mg2 O66 2.222745 1_555
Mg3 O100 2.024117 1_555
Mg3 O25 2.039437 1_555
Mg3 O73 2.064903 1_555
Mg3 O139 2.165003 1_555
Mg3 O19 2.198757 1_555
Mg3 O67 2.233009 1_555
Nb0 O42 1.964740 1_555
Nb0 O117 1.989394 1_455
Nb0 O90 2.008531 1_555
Nb0 O120 2.024753 1_555
Nb0 O48 2.035831 1_555
Nb0 O0 2.039530 1_555
Nb1 O43 1.916932 1_555
Nb1 O121 2.003232 1_555
Nb1 O49 2.020860 1_555
Nb1 O118 2.026855 1_455
Nb1 O91 2.030660 1_555
Nb1 O1 2.081941 1_555
Nb2 O44 1.944656 1_555
Nb2 O92 1.964636 1_555
Nb2 O50 2.023024 1_555
Nb2 O119 2.036260 1_455
Nb2 O122 2.038077 1_555
Nb2 O2 2.062969 1_555
Nb3 O93 1.912529 1_556
Nb3 O45 1.967402 1_556
Nb3 O51 1.983761 1_555
Nb3 O114 1.996599 1_656
Nb3 O3 2.054429 1_555
Nb3 O123 2.100707 1_555
Nb4 O46 1.931950 1_556
Nb4 O94 1.957242 1_556
Nb4 O115 1.992897 1_656
Nb4 O52 2.015620 1_555
Nb4 O124 2.037374 1_555
Nb4 O4 2.090304 1_555
Nb5 O47 1.935449 1_556
Nb5 O95 1.937151 1_556
Nb5 O116 1.986608 1_656
Nb5 O5 2.035853 1_555
Nb5 O125 2.040159 1_555
Nb5 O53 2.092898 1_555
Nb6 O37 1.932483 1_555
Nb6 O85 1.952278 1_555
Nb6 O55 1.996277 1_555
Nb6 O112 2.045815 1_655
Nb6 O127 2.072245 1_555
Nb6 O7 2.083550 1_555
Nb7 O39 1.916465 1_554
Nb7 O108 1.968926 1_454
Nb7 O87 1.986970 1_554
Nb7 O129 2.040044 1_555
Nb7 O57 2.099759 1_555
Nb7 O9 2.118307 1_555
Nb8 O40 1.939553 1_554
Nb8 O88 1.970516 1_554
Nb8 O109 1.986987 1_454
Nb8 O58 2.048056 1_555
Nb8 O130 2.067744 1_555
Nb8 O10 2.076481 1_555
Nb9 O89 1.908045 1_554
Nb9 O41 1.965720 1_554
Nb9 O110 1.996697 1_454
Nb9 O59 2.046001 1_555
Nb9 O11 2.078612 1_555
Nb9 O131 2.136007 1_555
Nb10 O30 1.916932 1_555
Nb10 O132 2.003232 1_555
Nb10 O60 2.020860 1_555
Nb10 O105 2.026855 1_555
Nb10 O78 2.030660 1_555
Nb10 O12 2.081941 1_555
Nb11 O31 1.944656 1_555
Nb11 O79 1.964636 1_555
Nb11 O61 2.023024 1_555
Nb11 O106 2.036260 1_555
Nb11 O133 2.038077 1_555
Nb11 O13 2.062969 1_555
Nb12 O32 1.964740 1_555
Nb12 O107 1.989394 1_555
Nb12 O80 2.008531 1_555
Nb12 O134 2.024753 1_555
Nb12 O62 2.035831 1_555
Nb12 O14 2.039530 1_555
Nb13 O33 1.931950 1_556
Nb13 O81 1.957242 1_556
Nb13 O102 1.992897 1_556
Nb13 O63 2.015620 1_555
Nb13 O135 2.037374 1_555
Nb13 O15 2.090304 1_555
Nb14 O34 1.935449 1_556
Nb14 O82 1.937151 1_556
Nb14 O103 1.986608 1_556
Nb14 O16 2.035853 1_555
Nb14 O136 2.040159 1_555
Nb14 O64 2.092898 1_555
Nb15 O83 1.912529 1_556
Nb15 O35 1.967402 1_556
Nb15 O65 1.983761 1_555
Nb15 O104 1.996599 1_556
Nb15 O17 2.054429 1_555
Nb15 O137 2.100707 1_555
Nb16 O26 1.932483 1_555
Nb16 O74 1.952278 1_555
Nb16 O68 1.996277 1_555
Nb16 O101 2.045815 1_555
Nb16 O140 2.072245 1_555
Nb16 O20 2.083550 1_555
Nb17 O75 1.908045 1_554
Nb17 O27 1.965720 1_554
Nb17 O96 1.996697 1_554
Nb17 O69 2.046001 1_555
Nb17 O21 2.078612 1_555
Nb17 O141 2.136007 1_555
Nb18 O28 1.916465 1_554
Nb18 O97 1.968926 1_554
Nb18 O76 1.986970 1_554
Nb18 O142 2.040044 1_555
Nb18 O70 2.099759 1_555
Nb18 O22 2.118307 1_555
Nb19 O29 1.939553 1_554
Nb19 O77 1.970516 1_554
Nb19 O98 1.986987 1_554
Nb19 O71 2.048056 1_555
Nb19 O143 2.067744 1_555
Nb19 O23 2.076481 1_555
O0 Si27 1.673619 1_555
O1 Si28 1.644027 1_555
O2 Si29 1.657934 1_555
O3 Si24 1.641237 1_555
O4 Si25 1.639210 1_555
O5 Si26 1.648244 1_555
O6 Si33 1.608126 1_555
O7 Si34 1.644827 1_555
O8 Si35 1.602696 1_555
O9 Si30 1.655992 1_555
O10 Si31 1.668925 1_555
O11 Si32 1.638969 1_555
O12 Si17 1.644027 1_545
O13 Si15 1.657934 1_555
O14 Si16 1.673619 1_555
O15 Si14 1.639210 1_545
O16 Si12 1.648244 1_555
O17 Si13 1.641237 1_555
O18 Si22 1.602696 1_555
O19 Si23 1.608126 1_555
O20 Si21 1.644827 1_565
O21 Si19 1.638969 1_555
O22 Si20 1.655992 1_555
O23 Si18 1.668925 1_565
O24 Si6 1.598613 1_555
O25 Si7 1.605671 1_555
O26 Si8 1.644074 1_555
O27 Si6 1.663511 1_555
O28 Si7 1.676572 1_555
O29 Si8 1.662216 1_555
O30 Si9 1.674893 1_555
O31 Si10 1.658242 1_555
O32 Si11 1.644512 1_555
O33 Si9 1.655454 1_555
O34 Si10 1.652337 1_555
O35 Si11 1.625265 1_555
O36 Si2 1.605671 1_545
O37 Si0 1.644074 1_655
O38 Si1 1.598613 1_655
O39 Si2 1.676572 1_445
O40 Si0 1.662216 1_555
O41 Si1 1.663511 1_555
O42 Si4 1.644512 1_555
O43 Si5 1.674893 1_555
O44 Si3 1.658242 1_565
O45 Si4 1.625265 1_655
O46 Si5 1.655454 1_655
O47 Si3 1.652337 1_665
O48 Si12 1.653372 1_555
O49 Si13 1.662742 1_555
O50 Si14 1.622715 1_555
O51 Si15 1.639484 1_555
O52 Si16 1.661114 1_555
O53 Si17 1.634157 1_555
O54 Si18 1.607712 1_555
O55 Si19 1.646308 1_555
O56 Si20 1.607846 1_555
O57 Si21 1.630143 1_555
O58 Si22 1.670648 1_555
O59 Si23 1.652281 1_555
O60 Si24 1.662742 1_555
O61 Si25 1.622715 1_555
O62 Si26 1.653372 1_555
O63 Si27 1.661114 1_555
O64 Si28 1.634157 1_555
O65 Si29 1.639484 1_555
O66 Si30 1.607846 1_555
O67 Si31 1.607712 1_555
O68 Si32 1.646308 1_555
O69 Si33 1.652281 1_555
O70 Si34 1.630143 1_555
O71 Si35 1.670648 1_555
O72 Si12 1.602289 1_555
O73 Si13 1.599088 1_555
O74 Si14 1.647399 1_555
O75 Si15 1.689527 1_555
O76 Si16 1.671084 1_555
O77 Si17 1.672084 1_555
O78 Si18 1.663552 1_555
O79 Si19 1.643870 1_555
O80 Si20 1.679030 1_555
O81 Si21 1.650054 1_555
O82 Si22 1.652310 1_555
O83 Si23 1.646547 1_555
O84 Si24 1.599088 1_555
O85 Si25 1.647399 1_555
O86 Si26 1.602289 1_555
O87 Si27 1.671084 1_555
O88 Si28 1.672084 1_555
O89 Si29 1.689527 1_555
O90 Si30 1.679030 1_555
O91 Si31 1.663552 1_555
O92 Si32 1.643870 1_555
O93 Si33 1.646547 1_555
O94 Si34 1.650054 1_555
O95 Si35 1.652310 1_555
O96 Si12 1.670097 1_555
O97 Si13 1.676004 1_555
O98 Si14 1.664251 1_555
O99 Si15 1.587433 1_555
O100 Si16 1.587258 1_555
O101 Si17 1.636626 1_555
O102 Si18 1.638259 1_555
O103 Si19 1.640537 1_555
O104 Si20 1.642237 1_555
O105 Si21 1.651292 1_555
O106 Si22 1.648453 1_555
O107 Si23 1.660004 1_555
O108 Si24 1.676004 1_555
O109 Si25 1.664251 1_555
O110 Si26 1.670097 1_555
O111 Si27 1.587258 1_555
O112 Si28 1.636626 1_555
O113 Si29 1.587433 1_555
O114 Si30 1.642237 1_555
O115 Si31 1.638259 1_555
O116 Si32 1.640537 1_555
O117 Si33 1.660004 1_555
O118 Si34 1.651292 1_555
O119 Si35 1.648453 1_555
O120 Si0 1.639278 1_555
O121 Si1 1.656290 1_555
O122 Si2 1.636812 1_455
O123 Si0 1.626699 1_655
O124 Si1 1.670315 1_655
O125 Si2 1.669842 1_555
O126 Si3 1.606776 1_655
O127 Si4 1.638354 1_655
O128 Si5 1.600339 1_655
O129 Si3 1.648005 1_555
O130 Si4 1.661777 1_555
O131 Si5 1.643613 1_555
O132 Si6 1.656290 1_555
O133 Si7 1.636812 1_555
O134 Si8 1.639278 1_555
O135 Si6 1.670315 1_555
O136 Si7 1.669842 1_555
O137 Si8 1.626699 1_555
O138 Si9 1.600339 1_555
O139 Si10 1.606776 1_555
O140 Si11 1.638354 1_555
O141 Si9 1.643613 1_555
O142 Si10 1.648005 1_555
O143 Si11 1.661777 1_555
