# generated using pymatgen
data_Cr3B7BrO13
_symmetry_space_group_name_H-M   'P 1'
_cell_length_a   8.69354978
_cell_length_b   8.69354978
_cell_length_c   8.69354978
_cell_angle_alpha   60.00000000
_cell_angle_beta   60.00000000
_cell_angle_gamma   60.00000000
_symmetry_Int_Tables_number   1
_chemical_formula_structural   Cr3B7BrO13
_chemical_formula_sum   'Cr6 B14 Br2 O26'
_cell_volume   464.59703895
_cell_formula_units_Z   2
loop_
 _symmetry_equiv_pos_site_id
 _symmetry_equiv_pos_as_xyz
  1  'x, y, z'
loop_
 _atom_site_type_symbol
 _atom_site_label
 _atom_site_symmetry_multiplicity
 _atom_site_fract_x
 _atom_site_fract_y
 _atom_site_fract_z
 _atom_site_occupancy
  Cr  Cr0  1  0.50000000  0.50000000  0.00000000  1
  Cr  Cr1  1  0.50000000  0.00000000  0.00000000  1
  Cr  Cr2  1  0.00000000  0.00000000  0.50000000  1
  Cr  Cr3  1  0.00000000  0.50000000  0.00000000  1
  Cr  Cr4  1  0.50000000  0.00000000  0.50000000  1
  Cr  Cr5  1  0.00000000  0.50000000  0.50000000  1
  B  B0  1  0.92008400  0.92008400  0.92008400  1
  B  B1  1  0.42008400  0.73974700  0.42008400  1
  B  B2  1  0.92008400  0.92008400  0.23974700  1
  B  B3  1  0.23974700  0.92008400  0.92008400  1
  B  B4  1  0.42008400  0.42008400  0.42008400  1
  B  B5  1  0.73974700  0.42008400  0.42008400  1
  B  B6  1  0.42008400  0.42008400  0.73974700  1
  B  B7  1  0.92008400  0.23974700  0.92008400  1
  B  B8  1  0.25000000  0.25000000  0.75000000  1
  B  B9  1  0.25000000  0.75000000  0.75000000  1
  B  B10  1  0.75000000  0.25000000  0.25000000  1
  B  B11  1  0.25000000  0.75000000  0.25000000  1
  B  B12  1  0.75000000  0.25000000  0.75000000  1
  B  B13  1  0.75000000  0.75000000  0.25000000  1
  Br  Br0  1  0.75000000  0.75000000  0.75000000  1
  Br  Br1  1  0.25000000  0.25000000  0.25000000  1
  O  O0  1  0.29555500  0.74495500  0.89531800  1
  O  O1  1  0.89531800  0.06417300  0.29555500  1
  O  O2  1  0.79555500  0.24495500  0.56417300  1
  O  O3  1  0.24495500  0.39531800  0.56417300  1
  O  O4  1  0.24495500  0.56417300  0.79555500  1
  O  O5  1  0.24495500  0.79555500  0.39531800  1
  O  O6  1  0.39531800  0.79555500  0.56417300  1
  O  O7  1  0.56417300  0.79555500  0.24495500  1
  O  O8  1  0.00000000  0.00000000  0.00000000  1
  O  O9  1  0.50000000  0.50000000  0.50000000  1
  O  O10  1  0.74495500  0.29555500  0.06417300  1
  O  O11  1  0.39531800  0.24495500  0.79555500  1
  O  O12  1  0.79555500  0.56417300  0.39531800  1
  O  O13  1  0.39531800  0.56417300  0.24495500  1
  O  O14  1  0.56417300  0.39531800  0.79555500  1
  O  O15  1  0.56417300  0.24495500  0.39531800  1
  O  O16  1  0.79555500  0.39531800  0.24495500  1
  O  O17  1  0.06417300  0.29555500  0.89531800  1
  O  O18  1  0.89531800  0.29555500  0.74495500  1
  O  O19  1  0.29555500  0.89531800  0.06417300  1
  O  O20  1  0.89531800  0.74495500  0.06417300  1
  O  O21  1  0.29555500  0.06417300  0.74495500  1
  O  O22  1  0.06417300  0.74495500  0.29555500  1
  O  O23  1  0.74495500  0.89531800  0.29555500  1
  O  O24  1  0.74495500  0.06417300  0.89531800  1
  O  O25  1  0.06417300  0.89531800  0.74495500  1
loop_
_geom_bond_atom_site_label_1
_geom_bond_atom_site_label_2
_geom_bond_distance
_geom_bond_site_symmetry_2
Cr0 O14 2.101581 1_554
Cr0 O0 2.101584 1_554
Cr0 O10 2.101587 1_555
Cr0 O13 2.101589 1_555
Cr1 O19 2.101581 1_545
Cr1 O11 2.101584 1_554
Cr1 O7 2.101587 1_545
Cr1 O24 2.101589 1_554
Cr2 O1 2.101581 1_455
Cr2 O5 2.101584 1_545
Cr2 O2 2.101587 1_455
Cr2 O25 2.101589 1_545
Cr3 O17 2.101581 1_554
Cr3 O16 2.101584 1_455
Cr3 O4 2.101587 1_554
Cr3 O20 2.101589 1_455
Cr4 O6 2.101581 1_545
Cr4 O23 2.101584 1_545
Cr4 O21 2.101587 1_555
Cr4 O15 2.101589 1_555
Cr5 O12 2.101581 1_455
Cr5 O18 2.101584 1_455
Cr5 O22 2.101587 1_555
Cr5 O3 2.101589 1_555
B0 O24 1.443751 1_565
B0 O20 1.443751 1_556
B0 O25 1.443751 1_655
B0 O8 1.701792 1_666
B1 O5 1.443746 1_555
B1 O7 1.443755 1_555
B1 O6 1.443763 1_555
B1 O9 1.701785 1_555
B2 O23 1.443746 1_555
B2 O22 1.443755 1_655
B2 O1 1.443763 1_565
B2 O8 1.701785 1_665
B3 O0 1.443746 1_555
B3 O21 1.443755 1_565
B3 O19 1.443763 1_556
B3 O8 1.701785 1_566
B4 O15 1.443751 1_555
B4 O13 1.443751 1_555
B4 O3 1.443751 1_555
B4 O9 1.701792 1_555
B5 O16 1.443746 1_555
B5 O2 1.443755 1_555
B5 O12 1.443763 1_555
B5 O9 1.701785 1_555
B6 O11 1.443746 1_555
B6 O4 1.443755 1_555
B6 O14 1.443763 1_555
B6 O9 1.701785 1_555
B7 O18 1.443746 1_555
B7 O10 1.443755 1_556
B7 O17 1.443763 1_655
B7 O8 1.701785 1_656
B8 O21 1.477257 1_555
B8 O3 1.477259 1_555
B8 O17 1.477260 1_555
B8 O11 1.477265 1_555
B9 O4 1.477257 1_555
B9 O25 1.477259 1_555
B9 O6 1.477260 1_555
B9 O0 1.477265 1_555
B10 O10 1.477257 1_555
B10 O15 1.477259 1_555
B10 O1 1.477260 1_555
B10 O16 1.477265 1_555
B11 O22 1.477257 1_555
B11 O13 1.477259 1_555
B11 O19 1.477260 1_555
B11 O5 1.477265 1_555
B12 O2 1.477257 1_555
B12 O24 1.477259 1_555
B12 O14 1.477260 1_555
B12 O18 1.477265 1_555
B13 O7 1.477257 1_555
B13 O20 1.477259 1_555
B13 O12 1.477260 1_555
B13 O23 1.477265 1_555
Br0 Cr4 3.073634 1_565
Br0 Cr1 3.073634 1_566
Br0 Cr0 3.073634 1_556
Br0 Cr2 3.073634 1_665
Br0 Cr5 3.073634 1_655
Br0 Cr3 3.073634 1_656
Br1 Cr2 3.073634 1_555
Br1 Cr0 3.073634 1_555
Br1 Cr1 3.073634 1_555
Br1 Cr3 3.073634 1_555
Br1 Cr4 3.073634 1_555
Br1 Cr5 3.073634 1_555
