# generated using pymatgen
data_Na7Ta2Zn2Si3(PO8)3
_symmetry_space_group_name_H-M   'P 1'
_cell_length_a   9.11413306
_cell_length_b   9.09022757
_cell_length_c   22.18666898
_cell_angle_alpha   90.51182299
_cell_angle_beta   89.67169611
_cell_angle_gamma   120.15790058
_symmetry_Int_Tables_number   1
_chemical_formula_structural   Na7Ta2Zn2Si3(PO8)3
_chemical_formula_sum   'Na21 Ta6 Zn6 Si9 P9 O72'
_cell_volume   1589.28530357
_cell_formula_units_Z   3
loop_
 _symmetry_equiv_pos_site_id
 _symmetry_equiv_pos_as_xyz
  1  'x, y, z'
loop_
 _atom_site_type_symbol
 _atom_site_label
 _atom_site_symmetry_multiplicity
 _atom_site_fract_x
 _atom_site_fract_y
 _atom_site_fract_z
 _atom_site_occupancy
  Na  Na0  1  0.61662878  0.97862293  0.26061322  1
  Na  Na1  1  0.35393383  0.37469238  0.25598842  1
  Na  Na2  1  0.02914252  0.64512766  0.25489830  1
  Na  Na3  1  0.64926658  0.62011164  0.74510518  1
  Na  Na4  1  0.97766479  0.35737874  0.74035652  1
  Na  Na5  1  0.37654663  0.02156648  0.74169911  1
  Na  Na6  1  0.00956933  0.67411403  0.58531131  1
  Na  Na7  1  0.66715013  0.99369369  0.58316762  1
  Na  Na8  1  0.27505310  0.94491299  0.08597685  1
  Na  Na9  1  0.66957582  0.72230238  0.07890985  1
  Na  Na10  1  0.05579375  0.33502873  0.08672260  1
  Na  Na11  1  0.97618010  0.69237377  0.90725105  1
  Na  Na12  1  0.31597740  0.28875033  0.90779359  1
  Na  Na13  1  0.95157269  0.30679395  0.42611727  1
  Na  Na14  1  0.35896853  0.04351724  0.42366147  1
  Na  Na15  1  0.00031363  0.00263714  0.50164727  1
  Na  Na16  1  0.98254063  0.99284099  0.99599653  1
  Na  Na17  1  0.66701014  0.32912645  0.82069270  1
  Na  Na18  1  0.66701603  0.34350872  0.34876278  1
  Na  Na19  1  0.32457513  0.66687142  0.16933915  1
  Na  Na20  1  0.32636465  0.65160685  0.66376580  1
  Ta  Ta0  1  0.99852518  0.00169444  0.35200883  1
  Ta  Ta1  1  0.00794294  0.00437807  0.64913913  1
  Ta  Ta2  1  0.67255758  0.33381832  0.18997032  1
  Ta  Ta3  1  0.67086074  0.33893595  0.97586536  1
  Ta  Ta4  1  0.33753446  0.66789721  0.51707472  1
  Ta  Ta5  1  0.33510937  0.66591903  0.81520690  1
  Zn  Zn0  1  0.99065182  0.99314746  0.84915491  1
  Zn  Zn1  1  0.00529742  0.99609329  0.15012469  1
  Zn  Zn2  1  0.66721632  0.33575959  0.67679405  1
  Zn  Zn3  1  0.66373260  0.32463470  0.49066491  1
  Zn  Zn4  1  0.33344463  0.66882163  0.01753735  1
  Zn  Zn5  1  0.33007663  0.66934136  0.31776545  1
  Si  Si0  1  0.29327070  0.99911092  0.24606164  1
  Si  Si1  1  0.00244736  0.29157439  0.24538280  1
  Si  Si2  1  0.29455277  0.29277813  0.75602587  1
  Si  Si3  1  -0.00016109  0.70259907  0.75380819  1
  Si  Si4  1  0.96555209  0.33222422  0.58283850  1
  Si  Si5  1  0.36978675  0.03911329  0.58227033  1
  Si  Si6  1  0.96175748  0.62903792  0.08312668  1
  Si  Si7  1  0.62935365  0.67451852  0.92253050  1
  Si  Si8  1  0.63065904  0.96199213  0.41224282  1
  P  P0  1  0.71148889  0.70859917  0.24638130  1
  P  P1  1  0.70690784  0.99576756  0.75242275  1
  P  P2  1  0.66489334  0.62912302  0.58445810  1
  P  P3  1  0.66553740  0.04790987  0.08224158  1
  P  P4  1  0.38261276  0.33331073  0.08334444  1
  P  P5  1  0.04020630  0.37362688  0.91952941  1
  P  P6  1  0.33820755  0.96057470  0.92081492  1
  P  P7  1  0.33322390  0.37366644  0.41149785  1
  P  P8  1  0.03759587  0.66888337  0.41473563  1
  O  O0  1  0.19344743  0.02811990  0.30571245  1
  O  O1  1  0.83519809  0.80333355  0.30163152  1
  O  O2  1  0.96849576  0.16124149  0.30471720  1
  O  O3  1  0.21152674  0.18450904  0.81524043  1
  O  O4  1  0.97013363  0.78300682  0.81348330  1
  O  O5  1  0.81715927  0.02608429  0.80666337  1
  O  O6  1  0.78775504  0.96381525  0.69397115  1
  O  O7  1  0.16038062  0.19137787  0.69816193  1
  O  O8  1  0.02349898  0.82855500  0.69490783  1
  O  O9  1  0.78317027  0.81043562  0.18899891  1
  O  O10  1  0.02826480  0.20881190  0.18519431  1
  O  O11  1  0.18198822  0.96319298  0.18629400  1
  O  O12  1  0.89693405  0.38397386  0.64189251  1
  O  O13  1  0.48770125  0.10836579  0.64141359  1
  O  O14  1  0.63117022  0.53493130  0.64390785  1
  O  O15  1  0.85358014  0.50441006  0.14180615  1
  O  O16  1  0.65360590  0.14477745  0.14078628  1
  O  O17  1  0.49333974  0.34282035  0.13954754  1
  O  O18  1  0.48224999  0.32246221  0.02628486  1
  O  O19  1  0.83844311  0.51811173  0.02411834  1
  O  O20  1  0.67503316  0.16193654  0.02798336  1
  O  O21  1  0.44008259  0.14174179  0.52090052  1
  O  O22  1  0.70744137  0.55073447  0.53128689  1
  O  O23  1  0.84795435  0.28566848  0.52384231  1
  O  O24  1  0.53958806  0.68382097  0.98343983  1
  O  O25  1  0.14028282  0.45495906  0.97730257  1
  O  O26  1  0.31038994  0.85498265  0.97726631  1
  O  O27  1  0.52713045  0.84038528  0.47184365  1
  O  O28  1  0.30725038  0.47113716  0.46606439  1
  O  O29  1  0.16082934  0.69332897  0.46963955  1
  O  O30  1  0.11107517  0.64024211  0.35674761  1
  O  O31  1  0.51913170  0.87494344  0.35353239  1
  O  O32  1  0.34317162  0.46421742  0.35312979  1
  O  O33  1  0.13397431  0.49920050  0.86374539  1
  O  O34  1  0.35665224  0.86469175  0.86337247  1
  O  O35  1  0.49791880  0.64194401  0.86303802  1
  O  O36  1  0.04024203  0.84422167  0.41213164  1
  O  O37  1  0.82156870  0.97449914  0.41057411  1
  O  O38  1  0.15836004  0.19244788  0.41149127  1
  O  O39  1  0.01928819  0.20029817  0.91061699  1
  O  O40  1  0.19007346  0.99199091  0.91475722  1
  O  O41  1  0.82095218  0.82507717  0.91569112  1
  O  O42  1  0.98005519  0.15850546  0.59400442  1
  O  O43  1  0.16986611  0.99916201  0.59194695  1
  O  O44  1  0.82249431  0.81688905  0.59116895  1
  O  O45  1  0.96446690  0.80784899  0.08133776  1
  O  O46  1  0.82790923  0.03954639  0.08125694  1
  O  O47  1  0.20986096  0.17174118  0.08056313  1
  O  O48  1  0.67454654  0.14365299  0.74497862  1
  O  O49  1  0.48212018  0.32244615  0.74489922  1
  O  O50  1  0.84152453  0.51210194  0.74516870  1
  O  O51  1  0.70650301  0.53150020  0.24544286  1
  O  O52  1  0.82190448  0.30127704  0.24547947  1
  O  O53  1  0.47962515  0.18445247  0.24511583  1
  O  O54  1  0.63287977  0.48576786  0.92103415  1
  O  O55  1  0.86277575  0.36746173  0.92002844  1
  O  O56  1  0.50736041  0.13888547  0.92166947  1
  O  O57  1  0.65953078  0.15239675  0.41875594  1
  O  O58  1  0.47911696  0.34147550  0.41984374  1
  O  O59  1  0.86187756  0.51794260  0.42551203  1
  O  O60  1  0.37377162  0.49677044  0.08610931  1
  O  O61  1  0.14272001  0.63570323  0.08350787  1
  O  O62  1  0.50176830  0.87542142  0.08435728  1
  O  O63  1  0.33977054  0.83864429  0.57375439  1
  O  O64  1  0.50980199  0.65919696  0.57299315  1
  O  O65  1  0.15887360  0.49902128  0.57113539  1
  O  O66  1  0.32720124  0.84251325  0.25323490  1
  O  O67  1  0.53176868  0.67345657  0.25586097  1
  O  O68  1  0.16053145  0.48101689  0.25458613  1
  O  O69  1  0.30128937  0.48233589  0.75778316  1
  O  O70  1  0.18437987  0.70094871  0.75643754  1
  O  O71  1  0.52695191  0.82471440  0.75743887  1
loop_
_geom_bond_atom_site_label_1
_geom_bond_atom_site_label_2
_geom_bond_distance
_geom_bond_site_symmetry_2
Na0 O31 2.258354 1_555
Na0 O66 2.288677 1_555
Na0 O67 2.478815 1_555
Na0 O52 2.590825 1_565
Na0 O53 2.746278 1_565
Na1 O32 2.315905 1_555
Na1 O67 2.362208 1_555
Na1 O68 2.398994 1_555
Na1 O53 2.518127 1_555
Na1 O51 2.794167 1_555
Na2 O68 2.335422 1_555
Na2 O66 2.388089 1_555
Na2 O30 2.391711 1_555
Na2 O51 2.590229 1_455
Na2 O52 2.728007 1_455
Na2 O15 2.902492 1_455
Na2 O11 2.936720 1_555
Na2 O1 2.962158 1_455
Na3 O49 2.345311 1_555
Na3 O14 2.347911 1_555
Na3 O50 2.400649 1_555
Na3 O71 2.616773 1_555
Na3 O69 2.776909 1_555
Na3 O4 2.950616 1_555
Na3 O6 2.954033 1_555
Na3 O35 3.002138 1_555
Na4 O50 2.297479 1_555
Na4 O12 2.361958 1_555
Na4 O48 2.454529 1_555
Na4 O69 2.603555 1_655
Na4 O70 2.739792 1_655
Na4 O7 2.899729 1_655
Na5 O48 2.363448 1_555
Na5 O49 2.400942 1_555
Na5 O13 2.408713 1_555
Na5 O70 2.559350 1_545
Na5 O71 2.772087 1_545
Na6 O43 2.558125 1_555
Na6 O65 2.578038 1_555
Na6 O44 2.612723 1_455
Na6 O63 2.614417 1_555
Na6 O12 2.628647 1_455
Na6 O22 2.681009 1_455
Na6 O8 2.768234 1_555
Na6 O29 2.871034 1_555
Na7 O42 2.478688 1_565
Na7 O63 2.590261 1_555
Na7 O44 2.629353 1_555
Na7 O64 2.638790 1_555
Na7 O13 2.663873 1_565
Na7 O23 2.671205 1_565
Na7 O6 2.769194 1_555
Na7 O27 2.803364 1_555
Na8 O11 2.411265 1_555
Na8 O47 2.419751 1_565
Na8 O61 2.439252 1_555
Na8 O62 2.445449 1_555
Na8 O45 2.456272 1_455
Na8 O26 2.609560 1_554
Na9 O24 2.368896 1_554
Na9 O45 2.394187 1_555
Na9 O60 2.438108 1_555
Na9 O46 2.493663 1_565
Na9 O62 2.534737 1_555
Na9 O9 2.615376 1_555
Na10 O10 2.429356 1_555
Na10 O61 2.435210 1_555
Na10 O46 2.436150 1_455
Na10 O60 2.505878 1_555
Na10 O47 2.506395 1_555
Na10 O25 2.618666 1_554
Na11 O4 2.255527 1_555
Na11 O41 2.280244 1_555
Na11 O40 2.430395 1_655
Na11 O55 2.610803 1_555
Na11 O54 2.739635 1_555
Na11 O33 2.928265 1_655
Na11 O19 2.974281 1_556
Na12 O3 2.258776 1_555
Na12 O40 2.347950 1_545
Na12 O39 2.403492 1_555
Na12 O54 2.537494 1_555
Na12 O56 2.719272 1_555
Na12 O35 2.955083 1_555
Na12 O18 2.977640 1_556
Na13 O57 2.308364 1_555
Na13 O23 2.330572 1_555
Na13 O59 2.435095 1_555
Na13 O38 2.587099 1_655
Na13 O37 2.652738 1_545
Na14 O21 2.306257 1_555
Na14 O58 2.359081 1_555
Na14 O57 2.402055 1_555
Na14 O36 2.549213 1_545
Na14 O38 2.783511 1_555
Na15 O37 2.532209 1_445
Na15 O42 2.539112 1_455
Na15 O43 2.547252 1_545
Na15 O38 2.566015 1_555
Na15 O36 2.572490 1_545
Na15 O44 2.587664 1_445
Na16 O41 2.322494 1_555
Na16 O45 2.493004 1_556
Na16 O46 2.510197 1_566
Na16 O39 2.584337 1_665
Na16 O40 2.608042 1_655
Na16 O47 2.657466 1_666
Na17 O50 2.337774 1_555
Na17 O49 2.366203 1_555
Na17 O48 2.394496 1_555
Na17 O54 2.731465 1_555
Na17 O55 2.751153 1_555
Na17 O56 2.762335 1_555
Na18 O58 2.314731 1_555
Na18 O57 2.315630 1_555
Na18 O59 2.392671 1_555
Na18 O51 2.783370 1_555
Na18 O53 2.792840 1_555
Na18 O52 2.807661 1_555
Na19 O66 2.433822 1_555
Na19 O61 2.451226 1_555
Na19 O68 2.480632 1_555
Na19 O60 2.576429 1_555
Na19 O62 2.590325 1_555
Na19 O67 2.679644 1_555
Na20 O65 2.517028 1_555
Na20 O69 2.543526 1_555
Na20 O70 2.576717 1_555
Na20 O64 2.589185 1_555
Na20 O63 2.596731 1_555
Na20 O71 2.689296 1_555
O0 Si0 1.694057 1_545
O0 Ta0 1.955402 1_455
O1 P0 1.592757 1_555
O1 Ta0 2.000651 1_565
O2 Si1 1.699185 1_655
O2 Ta0 1.925761 1_555
O3 Si2 1.590802 1_555
O3 Zn0 2.032767 1_445
O4 Si3 1.593091 1_655
O4 Zn0 1.981430 1_555
O5 P1 1.504517 1_545
O5 Zn0 1.994122 1_545
O6 P1 1.583189 1_555
O6 Ta1 2.095912 1_665
O7 Si2 1.690408 1_555
O7 Ta1 1.901088 1_555
O8 Si3 1.685411 1_555
O8 Ta1 1.965719 1_565
O9 P0 1.519365 1_555
O9 Zn1 2.064878 1_655
O10 Si1 1.600292 1_555
O10 Zn1 1.989109 1_545
O11 Si0 1.602696 1_555
O11 Zn1 1.956978 1_555
O12 Si4 1.613772 1_555
O12 Zn2 2.059292 1_555
O13 Si5 1.610819 1_555
O13 Zn2 2.038004 1_555
O14 P2 1.522641 1_555
O14 Zn2 2.131258 1_555
O15 Si6 1.685179 1_555
O15 Ta2 1.925464 1_555
O16 P3 1.596409 1_555
O16 Ta2 1.960618 1_555
O17 P4 1.582930 1_555
O17 Ta2 2.020678 1_555
O18 P4 1.584809 1_555
O18 Ta3 1.987744 1_554
O19 Si6 1.687752 1_555
O19 Ta3 1.902584 1_554
O20 P3 1.569077 1_555
O20 Ta3 2.005623 1_554
O21 Si5 1.595896 1_555
O21 Zn3 1.992042 1_555
O22 P2 1.518944 1_555
O22 Zn3 2.084126 1_555
O23 Si4 1.609839 1_555
O23 Zn3 2.025538 1_555
O24 Si7 1.599222 1_555
O24 Zn4 1.961892 1_556
O25 P5 1.529853 1_555
O25 Zn4 2.055180 1_556
O26 P6 1.525648 1_555
O26 Zn4 2.023017 1_556
O27 Si8 1.680682 1_555
O27 Ta4 1.933243 1_555
O28 P7 1.579576 1_555
O28 Ta4 2.006861 1_555
O29 P8 1.598375 1_555
O29 Ta4 2.037810 1_555
O30 P8 1.526714 1_555
O30 Zn5 2.062971 1_555
O31 Si8 1.595210 1_555
O31 Zn5 1.960916 1_555
O32 P7 1.518381 1_555
O32 Zn5 2.087463 1_555
O33 P5 1.611865 1_555
O33 Ta5 2.008012 1_555
O34 P6 1.592829 1_555
O34 Ta5 2.014155 1_555
O35 Si7 1.708699 1_555
O35 Ta5 1.929415 1_555
O36 P8 1.583455 1_555
O36 Ta0 2.135366 1_465
O37 Si8 1.685938 1_555
O37 Ta0 1.982859 1_565
O38 P7 1.617323 1_555
O38 Ta0 2.076925 1_455
O39 P5 1.500333 1_555
O39 Zn0 2.222136 1_445
O40 P6 1.520723 1_555
O40 Zn0 2.339205 1_455
O41 Si7 1.595262 1_555
O41 Zn0 2.131999 1_555
O42 Si4 1.670220 1_555
O42 Ta1 1.978863 1_655
O43 Si5 1.682281 1_565
O43 Ta1 1.959105 1_565
O44 P2 1.591608 1_555
O44 Ta1 2.122987 1_665
O45 Si6 1.614011 1_555
O45 Zn1 2.171589 1_655
O46 P3 1.519521 1_555
O46 Zn1 2.405252 1_645
O47 P4 1.521812 1_555
O47 Zn1 2.329659 1_545
O48 P1 1.524585 1_545
O48 Zn2 2.346936 1_555
O49 Si2 1.609108 1_555
O49 Zn2 2.216462 1_555
O50 Si3 1.613710 1_655
O50 Zn2 2.195487 1_555
O51 P0 1.587478 1_555
O51 Ta2 2.060540 1_555
O52 Si1 1.691510 1_655
O52 Ta2 1.971626 1_555
O53 Si0 1.687827 1_545
O53 Ta2 2.009629 1_555
O54 Si7 1.732176 1_555
O54 Ta3 1.969606 1_555
O55 P5 1.589687 1_655
O55 Ta3 2.046123 1_555
O56 P6 1.579047 1_545
O56 Ta3 2.057195 1_555
O57 Si8 1.619942 1_545
O57 Zn3 2.212244 1_555
O58 P7 1.510871 1_555
O58 Zn3 2.370014 1_555
O59 P8 1.515988 1_655
O59 Zn3 2.294696 1_555
O60 P4 1.528637 1_555
O60 Zn4 2.349945 1_555
O61 Si6 1.619794 1_455
O61 Zn4 2.169678 1_555
O62 P3 1.528917 1_565
O62 Zn4 2.271529 1_555
O63 Si5 1.710228 1_565
O63 Ta4 1.981048 1_555
O64 P2 1.590950 1_555
O64 Ta4 2.039463 1_555
O65 Si4 1.669843 1_455
O65 Ta4 1.986354 1_555
O66 Si0 1.610673 1_555
O66 Zn5 2.147246 1_555
O67 P0 1.516840 1_555
O67 Zn5 2.273725 1_555
O68 Si1 1.608487 1_555
O68 Zn5 2.146468 1_555
O69 Si2 1.693213 1_555
O69 Ta5 1.988164 1_555
O70 Si3 1.690862 1_555
O70 Ta5 2.038691 1_555
O71 P1 1.599613 1_555
O71 Ta5 2.062756 1_555
