# generated using pymatgen
data_K6Co2O5
_symmetry_space_group_name_H-M   'P 1'
_cell_length_a   6.53971677
_cell_length_b   6.53941951
_cell_length_c   11.87283295
_cell_angle_alpha   90.25569684
_cell_angle_beta   89.74833165
_cell_angle_gamma   89.52870838
_symmetry_Int_Tables_number   1
_chemical_formula_structural   K6Co2O5
_chemical_formula_sum   'K12 Co4 O10'
_cell_volume   507.72578362
_cell_formula_units_Z   2
loop_
 _symmetry_equiv_pos_site_id
 _symmetry_equiv_pos_as_xyz
  1  'x, y, z'
loop_
 _atom_site_type_symbol
 _atom_site_label
 _atom_site_symmetry_multiplicity
 _atom_site_fract_x
 _atom_site_fract_y
 _atom_site_fract_z
 _atom_site_occupancy
  K  K0  1  0.49856911  0.50141813  0.71812795  1
  K  K1  1  0.00054654  -0.00055602  0.21755921  1
  K  K2  1  0.00199604  -0.00200227  0.78067589  1
  K  K3  1  0.50204599  0.49788914  0.28271538  1
  K  K4  1  0.18370023  0.81619579  0.50030776  1
  K  K5  1  0.81651761  0.18380251  0.50046125  1
  K  K6  1  0.31365162  0.31914782  0.99764827  1
  K  K7  1  0.68070834  0.68641325  0.99760547  1
  K  K8  1  -0.00001402  0.50017496  0.75059386  1
  K  K9  1  0.49963735  -0.00094082  0.25035976  1
  K  K10  1  0.49980062  -0.00004682  0.75055623  1
  K  K11  1  0.00097983  0.50043011  0.25002114  1
  Co  Co0  1  0.78962544  0.21031375  -0.00035627  1
  Co  Co1  1  0.70915489  0.70940407  0.49954627  1
  Co  Co2  1  0.20567531  0.79435496  0.00475192  1
  Co  Co3  1  0.29059160  0.29088409  0.49955096  1
  O  O0  1  0.00014593  -0.00003831  -0.00362083  1
  O  O1  1  0.50074313  0.49925543  0.50043027  1
  O  O2  1  0.78829681  0.79003302  0.36167586  1
  O  O3  1  0.29059006  0.70948024  0.13990477  1
  O  O4  1  0.78924131  0.78788410  0.63770971  1
  O  O5  1  0.28581842  0.71427265  0.86289781  1
  O  O6  1  0.20981216  0.21182752  0.36168028  1
  O  O7  1  0.21201607  0.21083195  0.63769717  1
  O  O8  1  0.71237289  0.28753255  0.86185549  1
  O  O9  1  0.71777874  0.28203619  0.13964241  1
loop_
_geom_bond_atom_site_label_1
_geom_bond_atom_site_label_2
_geom_bond_distance
_geom_bond_site_symmetry_2
K0 O1 2.584640 1_555
K0 O5 2.598741 1_555
K0 O8 2.614079 1_555
K0 O7 2.844787 1_555
K0 O4 2.844826 1_555
K1 O6 2.600081 1_555
K1 O2 2.600213 1_445
K1 O0 2.626064 1_555
K1 O9 2.768492 1_455
K1 O3 2.820163 1_545
K2 O0 2.560959 1_556
K2 O4 2.595457 1_445
K2 O7 2.595638 1_555
K2 O5 2.795726 1_545
K2 O8 2.830197 1_455
K3 O1 2.584844 1_555
K3 O3 2.590732 1_555
K3 O9 2.606382 1_555
K3 O6 2.844212 1_555
K3 O2 2.844530 1_555
K4 O1 2.919576 1_555
K4 O4 3.053483 1_455
K4 O7 3.054181 1_565
K4 O2 3.076863 1_455
K4 O6 3.078079 1_565
K5 O1 2.906878 1_555
K5 O6 3.055677 1_655
K5 O2 3.058201 1_545
K5 O7 3.068844 1_655
K5 O4 3.071351 1_545
K6 O0 2.937837 1_556
K6 O5 3.049738 1_555
K6 O3 3.056775 1_556
K6 O8 3.064716 1_555
K6 O9 3.149302 1_556
K7 O0 2.939213 1_666
K7 O5 3.048186 1_555
K7 O3 3.056080 1_556
K7 O8 3.065165 1_555
K7 O9 3.150921 1_556
K8 O7 2.686529 1_555
K8 O4 2.689178 1_455
K8 O8 2.693340 1_455
K8 O5 2.698241 1_555
K9 O2 2.678500 1_545
K9 O6 2.682060 1_555
K9 O3 2.685328 1_545
K9 O9 2.690011 1_555
K10 O4 2.686856 1_545
K10 O7 2.689829 1_555
K10 O8 2.693024 1_555
K10 O5 2.697461 1_545
K11 O6 2.679621 1_555
K11 O2 2.682649 1_455
K11 O3 2.683665 1_555
K11 O9 2.689858 1_455
Co0 O9 1.784979 1_555
Co0 O8 1.788003 1_554
Co0 O0 1.938311 1_655
Co1 O2 1.797253 1_555
Co1 O4 1.798064 1_555
Co1 O1 1.943485 1_555
Co2 O3 1.789424 1_555
Co2 O5 1.834494 1_554
Co2 O0 1.896561 1_565
Co3 O6 1.797325 1_555
Co3 O7 1.798054 1_555
Co3 O1 1.943311 1_555
