# generated using pymatgen
data_MgRe2(SbO6)2
_symmetry_space_group_name_H-M   'P 1'
_cell_length_a   5.26653321
_cell_length_b   5.33987010
_cell_length_c   7.46649100
_cell_angle_alpha   90.00000000
_cell_angle_beta   90.00000000
_cell_angle_gamma   90.12865131
_symmetry_Int_Tables_number   1
_chemical_formula_structural   MgRe2(SbO6)2
_chemical_formula_sum   'Mg1 Re2 Sb2 O12'
_cell_volume   209.97663470
_cell_formula_units_Z   1
loop_
 _symmetry_equiv_pos_site_id
 _symmetry_equiv_pos_as_xyz
  1  'x, y, z'
loop_
 _atom_site_type_symbol
 _atom_site_label
 _atom_site_symmetry_multiplicity
 _atom_site_fract_x
 _atom_site_fract_y
 _atom_site_fract_z
 _atom_site_occupancy
  Mg  Mg0  1  0.51817900  0.56631700  0.75000000  1
  Re  Re0  1  0.49891600  0.00728500  0.49542700  1
  Re  Re1  1  0.49891600  0.00728500  0.00457300  1
  Sb  Sb0  1  0.00274000  0.50372400  0.49464000  1
  Sb  Sb1  1  0.00274000  0.50372400  0.00536000  1
  O  O0  1  0.32193600  0.69806700  0.45490800  1
  O  O1  1  0.20623400  0.19047800  0.05166000  1
  O  O2  1  0.68466100  0.30876800  0.93462900  1
  O  O3  1  0.78450000  0.79606200  0.56422300  1
  O  O4  1  0.20623400  0.19047800  0.44834000  1
  O  O5  1  0.78450000  0.79606200  0.93577700  1
  O  O6  1  0.87980500  0.52151300  0.25000000  1
  O  O7  1  0.32193600  0.69806700  0.04509200  1
  O  O8  1  0.41265700  0.97273000  0.75000000  1
  O  O9  1  0.68466100  0.30876800  0.56537100  1
  O  O10  1  0.13672500  0.48279200  0.75000000  1
  O  O11  1  0.59216200  0.02288000  0.25000000  1
loop_
_geom_bond_atom_site_label_1
_geom_bond_atom_site_label_2
_geom_bond_distance
_geom_bond_site_symmetry_2
Mg0 O10 2.056877 1_555
Mg0 O9 2.136797 1_555
Mg0 O2 2.136797 1_555
Mg0 O8 2.241427 1_555
Mg0 O5 2.321344 1_555
Mg0 O3 2.321344 1_555
Mg0 O7 2.533953 1_556
Mg0 O0 2.533953 1_555
O0 Re0 1.918275 1_565
O0 Sb0 1.995766 1_555
O1 Re1 1.860988 1_555
O1 Sb1 2.018420 1_555
O2 Re1 1.953026 1_556
O2 Sb1 2.039863 1_656
O3 Re0 1.950837 1_565
O3 Sb0 2.008954 1_655
O4 Re0 1.860988 1_555
O4 Sb0 2.018420 1_555
O5 Re1 1.950837 1_566
O5 Sb1 2.008954 1_656
O6 Sb1 1.940349 1_655
O6 Sb0 1.940349 1_655
O7 Re1 1.918275 1_565
O7 Sb1 1.995766 1_555
O8 Re1 1.962896 1_566
O8 Re0 1.962896 1_565
O9 Re0 1.953026 1_555
O9 Sb0 2.039863 1_655
O10 Sb1 2.036187 1_556
O10 Sb0 2.036187 1_555
O11 Re1 1.898918 1_555
O11 Re0 1.898918 1_555
