# generated using pymatgen
data_Pr2MgCuO4
_symmetry_space_group_name_H-M   'P 1'
_cell_length_a   4.06551335
_cell_length_b   4.06562955
_cell_length_c   7.90976244
_cell_angle_alpha   104.97437175
_cell_angle_beta   104.89173463
_cell_angle_gamma   90.00000451
_symmetry_Int_Tables_number   1
_chemical_formula_structural   Pr2MgCuO4
_chemical_formula_sum   'Pr2 Mg1 Cu1 O4'
_cell_volume   121.74858112
_cell_formula_units_Z   1
loop_
 _symmetry_equiv_pos_site_id
 _symmetry_equiv_pos_as_xyz
  1  'x, y, z'
loop_
 _atom_site_type_symbol
 _atom_site_label
 _atom_site_symmetry_multiplicity
 _atom_site_fract_x
 _atom_site_fract_y
 _atom_site_fract_z
 _atom_site_occupancy
  Pr  Pr0  1  0.63185200  0.63214500  0.26370300  1
  Pr  Pr1  1  0.39887700  0.39791900  0.79775500  1
  Mg  Mg0  1  0.20229300  0.20293700  0.40458600  1
  Cu  Cu0  1  0.02320000  0.02263900  0.04639900  1
  O  O0  1  0.22605300  0.72676800  0.45210600  1
  O  O1  1  0.72605000  0.22655500  0.45209900  1
  O  O2  1  0.97916700  0.47881900  0.95833400  1
  O  O3  1  0.47917500  0.97888500  0.95835000  1
loop_
_geom_bond_atom_site_label_1
_geom_bond_atom_site_label_2
_geom_bond_distance
_geom_bond_site_symmetry_2
Mg0 O0 2.062500 1_555
Mg0 O1 2.062662 1_455
Mg0 O1 2.062666 1_555
Mg0 O0 2.062958 1_545
Cu0 O2 2.132059 1_444
Cu0 O3 2.133709 1_544
Cu0 O3 2.133713 1_444
Cu0 O2 2.135545 1_454
Cu0 Mg0 2.638339 1_555
O0 Pr0 2.461284 1_455
O0 Pr0 2.461287 1_555
O1 Pr0 2.460310 1_545
O1 Pr0 2.462299 1_555
O2 Pr1 2.351828 1_655
O2 Pr1 2.351832 1_555
O3 Pr1 2.351112 1_565
O3 Pr1 2.352767 1_555
