# generated using pymatgen
data_Na12Mg10Nb2Si3(S5O24)3
_symmetry_space_group_name_H-M   'P 1'
_cell_length_a   8.83465244
_cell_length_b   8.87519226
_cell_length_c   22.50643820
_cell_angle_alpha   90.03352625
_cell_angle_beta   90.24220521
_cell_angle_gamma   119.81407164
_symmetry_Int_Tables_number   1
_chemical_formula_structural   Na12Mg10Nb2Si3(S5O24)3
_chemical_formula_sum   'Na12 Mg10 Nb2 Si3 S15 O72'
_cell_volume   1531.12024802
_cell_formula_units_Z   1
loop_
 _symmetry_equiv_pos_site_id
 _symmetry_equiv_pos_as_xyz
  1  'x, y, z'
loop_
 _atom_site_type_symbol
 _atom_site_label
 _atom_site_symmetry_multiplicity
 _atom_site_fract_x
 _atom_site_fract_y
 _atom_site_fract_z
 _atom_site_occupancy
  Na  Na0  1  0.30284650  0.33778304  0.57743857  1
  Na  Na1  1  0.67195175  0.97138459  0.59307118  1
  Na  Na2  1  0.29804622  0.97026231  0.09258187  1
  Na  Na3  1  0.02944230  0.33360915  0.08329121  1
  Na  Na4  1  0.33054196  0.04674708  0.40679557  1
  Na  Na5  1  0.68717488  0.65252478  0.41541492  1
  Na  Na6  1  0.01129185  0.01645395  0.49681724  1
  Na  Na7  1  0.98655142  0.98924972  0.99544211  1
  Na  Na8  1  0.67220474  0.31747089  0.82822819  1
  Na  Na9  1  0.64670045  0.31859902  0.32699281  1
  Na  Na10  1  0.34410526  0.67932338  0.16621834  1
  Na  Na11  1  0.32842347  0.67323872  0.66587046  1
  Mg  Mg0  1  0.01852293  0.02035647  0.34894846  1
  Mg  Mg1  1  0.99549122  0.00359859  0.84987384  1
  Mg  Mg2  1  0.98883939  0.98858699  0.65552973  1
  Mg  Mg3  1  0.00157932  0.98762932  0.15447820  1
  Mg  Mg4  1  0.67014210  0.33006969  0.68746726  1
  Mg  Mg5  1  0.65618295  0.32751332  0.18687083  1
  Mg  Mg6  1  0.66761061  0.33484438  0.97982848  1
  Mg  Mg7  1  0.66540958  0.33465251  0.48136104  1
  Mg  Mg8  1  0.33869104  0.66704062  0.01470216  1
  Mg  Mg9  1  0.32307516  0.65850129  0.51637836  1
  Nb  Nb0  1  0.33186417  0.65959055  0.31158966  1
  Nb  Nb1  1  0.34208674  0.67320633  0.81182330  1
  Si  Si0  1  0.30063577  0.00939181  0.24984435  1
  Si  Si1  1  0.71997282  0.01787713  0.74862196  1
  Si  Si2  1  0.32838654  0.36482426  0.42249336  1
  S  S0  1  0.71261908  0.70902865  0.25170590  1
  S  S1  1  0.99472498  0.29072301  0.24808930  1
  S  S2  1  0.29354979  0.29136760  0.75006312  1
  S  S3  1  0.99714748  0.70791442  0.75165813  1
  S  S4  1  0.96008995  0.33724676  0.58356055  1
  S  S5  1  0.37038384  0.03795357  0.58246321  1
  S  S6  1  0.67247473  0.62931514  0.58294934  1
  S  S7  1  0.95533856  0.62466783  0.08225794  1
  S  S8  1  0.66848290  0.04057629  0.08253837  1
  S  S9  1  0.37456188  0.33725200  0.08191480  1
  S  S10  1  0.62855734  0.66596077  0.91826618  1
  S  S11  1  0.04010808  0.37160957  0.91918810  1
  S  S12  1  0.33082519  0.95969582  0.91838031  1
  S  S13  1  0.62647853  0.95713743  0.41822822  1
  S  S14  1  0.03976107  0.66329777  0.41745837  1
  O  O0  1  0.20962403  0.01891221  0.31026978  1
  O  O1  1  0.80483744  0.78881651  0.30725191  1
  O  O2  1  0.97082906  0.18592061  0.30090849  1
  O  O3  1  0.21344034  0.18538661  0.80234042  1
  O  O4  1  0.98263004  0.79172843  0.80509035  1
  O  O5  1  0.82508501  0.02529302  0.80646116  1
  O  O6  1  0.77074876  0.96272467  0.68647520  1
  O  O7  1  0.19042353  0.22137083  0.69499707  1
  O  O8  1  0.03943000  0.81531933  0.69793283  1
  O  O9  1  0.78607088  0.81900908  0.19936641  1
  O  O10  1  0.02604654  0.21890557  0.19360050  1
  O  O11  1  0.19159652  0.96355507  0.18794938  1
  O  O12  1  0.87512559  0.35396712  0.63663024  1
  O  O13  1  0.48362929  0.12358040  0.63407777  1
  O  O14  1  0.64594353  0.51678210  0.63420577  1
  O  O15  1  0.87638938  0.51758114  0.13532620  1
  O  O16  1  0.64025595  0.12201316  0.13518520  1
  O  O17  1  0.47803296  0.36054529  0.13574723  1
  O  O18  1  0.45584600  0.30833877  0.02919553  1
  O  O19  1  0.85327022  0.53917690  0.02832447  1
  O  O20  1  0.69708609  0.14908126  0.02898806  1
  O  O21  1  0.44719558  0.14090574  0.52721085  1
  O  O22  1  0.68751291  0.54839301  0.52719304  1
  O  O23  1  0.85211495  0.30988599  0.52978034  1
  O  O24  1  0.54392707  0.68990676  0.97025140  1
  O  O25  1  0.14057370  0.45497278  0.97415707  1
  O  O26  1  0.30948368  0.85722221  0.97234963  1
  O  O27  1  0.54697049  0.85394219  0.47227900  1
  O  O28  1  0.31463682  0.45768649  0.48160144  1
  O  O29  1  0.15505253  0.70225118  0.46900856  1
  O  O30  1  0.12964391  0.64587125  0.36315750  1
  O  O31  1  0.50743358  0.87118889  0.36511161  1
  O  O32  1  0.35382018  0.50166790  0.36474102  1
  O  O33  1  0.13380154  0.48452405  0.86665298  1
  O  O34  1  0.35072977  0.86260380  0.86539827  1
  O  O35  1  0.51423675  0.64762016  0.86399530  1
  O  O36  1  0.00824378  0.81148515  0.41025588  1
  O  O37  1  0.79335568  0.96273120  0.40850026  1
  O  O38  1  0.16023199  0.17341409  0.41574564  1
  O  O39  1  0.02858861  0.20097130  0.91365590  1
  O  O40  1  0.17456525  0.97467968  0.90925803  1
  O  O41  1  0.80155464  0.81885876  0.91138423  1
  O  O42  1  0.98506723  0.18067790  0.58725485  1
  O  O43  1  0.19603537  0.02325035  0.58941675  1
  O  O44  1  0.82953850  0.80490159  0.58715643  1
  O  O45  1  0.97685904  0.80175652  0.08597713  1
  O  O46  1  0.82717667  0.02329967  0.08965652  1
  O  O47  1  0.19430240  0.17974736  0.08647548  1
  O  O48  1  0.67205323  0.16946810  0.74550017  1
  O  O49  1  0.47332988  0.32921927  0.74349339  1
  O  O50  1  0.84600182  0.53557893  0.74406690  1
  O  O51  1  0.69134582  0.53608971  0.24444728  1
  O  O52  1  0.85218819  0.32733594  0.24215311  1
  O  O53  1  0.49640140  0.16979642  0.24590801  1
  O  O54  1  0.63498612  0.50362183  0.91997882  1
  O  O55  1  0.86590063  0.35695495  0.92129169  1
  O  O56  1  0.49120213  0.13012993  0.92043102  1
  O  O57  1  0.64340650  0.13047274  0.42199007  1
  O  O58  1  0.51008885  0.35525563  0.41867688  1
  O  O59  1  0.87134435  0.50188542  0.42212170  1
  O  O60  1  0.34877701  0.49117133  0.07594752  1
  O  O61  1  0.13713459  0.64626097  0.07760499  1
  O  O62  1  0.50818843  0.86587395  0.07581812  1
  O  O63  1  0.35591497  0.86309560  0.57677707  1
  O  O64  1  0.51442164  0.65359767  0.58022310  1
  O  O65  1  0.13739878  0.49409701  0.57978345  1
  O  O66  1  0.31752167  0.82335863  0.26197981  1
  O  O67  1  0.52751444  0.68766309  0.25643996  1
  O  O68  1  0.16261653  0.46990002  0.25604479  1
  O  O69  1  0.30429895  0.47074206  0.75885298  1
  O  O70  1  0.15813989  0.68233049  0.75982959  1
  O  O71  1  0.51128987  0.82696576  0.76266113  1
loop_
_geom_bond_atom_site_label_1
_geom_bond_atom_site_label_2
_geom_bond_distance
_geom_bond_site_symmetry_2
Na0 O28 2.385394 1_555
Na0 O42 2.447027 1_455
Na0 O65 2.465944 1_555
Na0 O43 2.477794 1_555
Na0 O64 2.478555 1_555
Na0 O7 2.838898 1_555
Na0 O21 2.860600 1_555
Na0 O14 2.918993 1_555
Na1 O6 2.288743 1_555
Na1 O42 2.452265 1_565
Na1 O64 2.463283 1_555
Na1 O63 2.485248 1_555
Na1 O44 2.487185 1_555
Na1 O13 2.773208 1_565
Na1 O27 2.919469 1_555
Na1 O23 2.976133 1_565
Na2 O11 2.335913 1_555
Na2 O47 2.451394 1_565
Na2 O45 2.467167 1_455
Na2 O62 2.482591 1_555
Na2 O61 2.516623 1_555
Na2 O16 2.792620 1_565
Na2 O26 2.905013 1_554
Na2 O18 2.973892 1_565
Na3 O46 2.430533 1_455
Na3 O47 2.442981 1_555
Na3 O61 2.448999 1_555
Na3 O60 2.454241 1_555
Na3 O25 2.670032 1_554
Na3 O10 2.678455 1_555
Na3 O20 2.825423 1_455
Na3 O15 2.841200 1_455
Na4 O38 2.291850 1_555
Na4 O0 2.374679 1_555
Na4 O58 2.400303 1_555
Na4 O57 2.501687 1_555
Na4 O36 2.561953 1_545
Na4 O31 2.860435 1_545
Na4 O21 2.867501 1_555
Na4 O29 3.003684 1_545
Na5 O58 2.304463 1_555
Na5 O37 2.432613 1_555
Na5 O36 2.464440 1_655
Na5 O59 2.572710 1_555
Na5 O22 2.681123 1_555
Na5 O1 2.691539 1_555
Na5 O32 2.795652 1_555
Na5 O27 2.929210 1_555
Na6 O38 2.280758 1_555
Na6 O42 2.580176 1_455
Na6 O43 2.623765 1_555
Na6 O37 2.634216 1_445
Na6 O36 2.655583 1_545
Na6 O44 2.696618 1_445
Na7 O41 2.459675 1_555
Na7 O39 2.524473 1_665
Na7 O40 2.603597 1_655
Na7 O45 2.606148 1_556
Na7 O46 2.649089 1_566
Na7 O47 2.702483 1_666
Na8 O48 2.277611 1_555
Na8 O50 2.601146 1_555
Na8 O55 2.609736 1_555
Na8 O49 2.624673 1_555
Na8 O56 2.648805 1_555
Na8 O54 2.764726 1_555
Na9 O53 2.251798 1_555
Na9 O58 2.496229 1_555
Na9 O51 2.566377 1_555
Na9 O52 2.614803 1_555
Na9 O57 2.704856 1_555
Na9 O59 2.814011 1_555
Na10 O67 2.570406 1_555
Na10 O62 2.573806 1_555
Na10 O66 2.575656 1_555
Na10 O61 2.615728 1_555
Na10 O60 2.642574 1_555
Na10 O68 2.679753 1_555
Na11 O65 2.535853 1_555
Na11 O63 2.553452 1_555
Na11 O64 2.599522 1_555
Na11 O70 2.624694 1_555
Na11 O71 2.644231 1_555
Na11 O69 2.698526 1_555
Mg0 O0 1.908480 1_555
Mg0 O38 1.990824 1_555
Mg0 O2 2.029632 1_455
Mg0 O1 2.189206 1_445
Mg0 O37 2.242066 1_445
Mg0 O36 2.277116 1_545
Mg1 O5 1.879952 1_555
Mg1 O4 2.085432 1_545
Mg1 O3 2.094141 1_655
Mg1 O39 2.167691 1_655
Mg1 O40 2.177470 1_645
Mg1 O41 2.183963 1_545
Mg2 O6 1.954971 1_555
Mg2 O8 2.038841 1_655
Mg2 O7 2.134212 1_665
Mg2 O44 2.168805 1_555
Mg2 O43 2.263411 1_665
Mg2 O42 2.308234 1_565
Mg3 O11 1.943568 1_555
Mg3 O9 2.017427 1_455
Mg3 O10 2.142509 1_565
Mg3 O45 2.186750 1_455
Mg3 O46 2.251495 1_465
Mg3 O47 2.299348 1_565
Mg4 O48 1.940057 1_555
Mg4 O12 2.066283 1_555
Mg4 O13 2.120253 1_555
Mg4 O50 2.127445 1_555
Mg4 O14 2.140348 1_555
Mg4 O49 2.149153 1_555
Mg5 O53 1.941832 1_555
Mg5 O17 2.081079 1_555
Mg5 O16 2.107215 1_555
Mg5 O52 2.128643 1_555
Mg5 O51 2.150452 1_555
Mg5 O15 2.175831 1_555
Mg6 O19 2.048210 1_556
Mg6 O18 2.090507 1_556
Mg6 O20 2.106351 1_556
Mg6 O55 2.126278 1_555
Mg6 O54 2.137682 1_555
Mg6 O56 2.163551 1_555
Mg7 O58 2.034741 1_555
Mg7 O23 2.074186 1_555
Mg7 O22 2.080475 1_555
Mg7 O21 2.112059 1_555
Mg7 O59 2.151342 1_555
Mg7 O57 2.179867 1_555
Mg8 O24 1.994836 1_554
Mg8 O25 2.036521 1_554
Mg8 O26 2.063268 1_554
Mg8 O60 2.117563 1_555
Mg8 O62 2.144892 1_555
Mg8 O61 2.214535 1_555
Mg9 O28 1.913223 1_555
Mg9 O29 2.012746 1_555
Mg9 O65 2.120958 1_555
Mg9 O27 2.124462 1_555
Mg9 O63 2.167749 1_555
Mg9 O64 2.230928 1_555
Nb0 O66 1.886569 1_555
Nb0 O32 1.924433 1_555
Nb0 O68 2.027670 1_555
Nb0 O67 2.044676 1_555
Nb0 O30 2.086857 1_555
Nb0 O31 2.113941 1_555
Nb1 O71 1.818897 1_555
Nb1 O35 2.017933 1_555
Nb1 O70 2.032676 1_555
Nb1 O34 2.038263 1_555
Nb1 O69 2.039419 1_555
Nb1 O33 2.161163 1_555
O0 Si0 1.606178 1_555
O1 S0 1.464494 1_555
O2 S1 1.459817 1_555
O3 S2 1.454763 1_555
O4 S3 1.452957 1_555
O5 Si1 1.578022 1_555
O6 Si1 1.618655 1_565
O7 S2 1.476046 1_555
O8 S3 1.470161 1_455
O9 S0 1.462687 1_555
O10 S1 1.471092 1_455
O11 Si0 1.622449 1_565
O12 S4 1.459527 1_555
O13 S5 1.470051 1_555
O14 S6 1.467681 1_555
O15 S7 1.471569 1_555
O16 S8 1.472846 1_555
O17 S9 1.465850 1_555
O18 S9 1.476301 1_555
O19 S7 1.473631 1_555
O20 S8 1.485178 1_555
O21 S5 1.494545 1_555
O22 S6 1.484389 1_555
O23 S4 1.481067 1_555
O24 S10 1.462261 1_555
O25 S11 1.484049 1_555
O26 S12 1.473363 1_555
O27 S13 1.476785 1_555
O28 Si2 1.601055 1_555
O29 S14 1.463715 1_555
O30 S14 1.509362 1_555
O31 S13 1.519107 1_555
O32 Si2 1.716964 1_555
O33 S11 1.507407 1_555
O34 S12 1.531869 1_555
O35 S10 1.537644 1_555
O36 S14 1.482414 1_555
O37 S13 1.467626 1_555
O38 Si2 1.613763 1_555
O39 S11 1.471674 1_555
O40 S12 1.464859 1_555
O41 S10 1.463309 1_555
O42 S4 1.513745 1_555
O43 S5 1.488711 1_555
O44 S6 1.487077 1_555
O45 S7 1.488609 1_555
O46 S8 1.492209 1_555
O47 S9 1.512835 1_555
O48 Si1 1.600155 1_555
O49 S2 1.459065 1_555
O50 S3 1.455521 1_555
O51 S0 1.459599 1_555
O52 S1 1.454202 1_555
O53 Si0 1.605896 1_555
O54 S10 1.470375 1_555
O55 S11 1.479677 1_655
O56 S12 1.471713 1_545
O57 S13 1.472116 1_545
O58 Si2 1.651732 1_555
O59 S14 1.469382 1_655
O60 S9 1.498484 1_555
O61 S7 1.524022 1_455
O62 S8 1.498986 1_565
O63 S5 1.497824 1_565
O64 S6 1.516085 1_555
O65 S4 1.493922 1_455
O66 Si0 1.751578 1_565
O67 S0 1.553954 1_555
O68 S1 1.553359 1_455
O69 S2 1.559392 1_555
O70 S3 1.557988 1_455
O71 Si1 1.808055 1_565
