# generated using pymatgen
data_Sc(BC)2
_symmetry_space_group_name_H-M   'P 1'
_cell_length_a   3.45124700
_cell_length_b   5.28401500
_cell_length_c   10.20318600
_cell_angle_alpha   90.00000000
_cell_angle_beta   90.00000000
_cell_angle_gamma   90.00000000
_symmetry_Int_Tables_number   1
_chemical_formula_structural   Sc(BC)2
_chemical_formula_sum   'Sc4 B8 C8'
_cell_volume   186.06979865
_cell_formula_units_Z   4
loop_
 _symmetry_equiv_pos_site_id
 _symmetry_equiv_pos_as_xyz
  1  'x, y, z'
loop_
 _atom_site_type_symbol
 _atom_site_label
 _atom_site_symmetry_multiplicity
 _atom_site_fract_x
 _atom_site_fract_y
 _atom_site_fract_z
 _atom_site_occupancy
  Sc  Sc0  1  0.00000000  0.36280000  0.64858900  1
  Sc  Sc1  1  0.00000000  0.63720000  0.35141100  1
  Sc  Sc2  1  0.00000000  0.86280000  0.85141100  1
  Sc  Sc3  1  0.00000000  0.13720000  0.14858900  1
  B  B0  1  0.50000000  0.98623800  0.31101600  1
  B  B1  1  0.50000000  0.01376200  0.68898400  1
  B  B2  1  0.50000000  0.51376200  0.81101600  1
  B  B3  1  0.50000000  0.48623800  0.18898400  1
  B  B4  1  0.50000000  0.35604500  0.46450600  1
  B  B5  1  0.50000000  0.64395500  0.53549400  1
  B  B6  1  0.50000000  0.85604500  0.03549400  1
  B  B7  1  0.50000000  0.14395500  0.96450600  1
  C  C0  1  0.50000000  0.29631100  0.30924400  1
  C  C1  1  0.50000000  0.70368900  0.69075600  1
  C  C2  1  0.50000000  0.20368900  0.80924400  1
  C  C3  1  0.50000000  0.79631100  0.19075600  1
  C  C4  1  0.50000000  0.39260800  0.04455300  1
  C  C5  1  0.50000000  0.60739200  0.95544700  1
  C  C6  1  0.50000000  0.89260800  0.45544700  1
  C  C7  1  0.50000000  0.10739200  0.54455300  1
loop_
_geom_bond_atom_site_label_1
_geom_bond_atom_site_label_2
_geom_bond_distance
_geom_bond_site_symmetry_2
B0 C6 1.554488 1_555
B0 C3 1.585176 1_555
B0 C0 1.638530 1_565
B0 Sc3 2.522029 1_565
B0 Sc3 2.522029 1_665
B0 Sc1 2.559135 1_655
B0 Sc1 2.559135 1_555
B1 C7 1.554488 1_555
B1 C2 1.585176 1_555
B1 C1 1.638530 1_545
B1 Sc2 2.522029 1_545
B1 Sc2 2.522029 1_645
B1 Sc0 2.559135 1_555
B1 Sc0 2.559135 1_655
B2 C5 1.554488 1_555
B2 C1 1.585176 1_555
B2 C2 1.638530 1_555
B2 Sc0 2.522029 1_555
B2 Sc0 2.522029 1_655
B2 Sc2 2.559135 1_655
B2 Sc2 2.559135 1_555
B3 C4 1.554488 1_555
B3 C0 1.585176 1_555
B3 C3 1.638530 1_555
B3 Sc1 2.522029 1_555
B3 Sc1 2.522029 1_655
B3 Sc3 2.559135 1_555
B3 Sc3 2.559135 1_655
B4 C7 1.547046 1_555
B4 C0 1.615305 1_555
B4 Sc0 2.550845 1_655
B4 Sc0 2.550845 1_555
B4 Sc1 2.552727 1_655
B4 Sc1 2.552727 1_555
B5 C6 1.547046 1_555
B5 C1 1.615305 1_555
B5 Sc1 2.550845 1_655
B5 Sc1 2.550845 1_555
B5 Sc0 2.552727 1_655
B5 Sc0 2.552727 1_555
B6 C5 1.547046 1_554
B6 C3 1.615305 1_555
B6 Sc2 2.550845 1_654
B6 Sc2 2.550845 1_554
B6 Sc3 2.552727 1_665
B6 Sc3 2.552727 1_565
B7 C4 1.547046 1_556
B7 C2 1.615305 1_555
B7 Sc3 2.550845 1_556
B7 Sc3 2.550845 1_656
B7 Sc2 2.552727 1_645
B7 Sc2 2.552727 1_545
C0 Sc3 2.524199 1_655
C0 Sc3 2.524199 1_555
C0 Sc1 2.531290 1_655
C0 Sc1 2.531290 1_555
C1 Sc2 2.524199 1_555
C1 Sc2 2.524199 1_655
C1 Sc0 2.531290 1_655
C1 Sc0 2.531290 1_555
C2 Sc0 2.524199 1_555
C2 Sc0 2.524199 1_655
C2 Sc2 2.531290 1_645
C2 Sc2 2.531290 1_545
C3 Sc1 2.524199 1_555
C3 Sc1 2.524199 1_655
C3 Sc3 2.531290 1_565
C3 Sc3 2.531290 1_665
C4 C5 1.454176 1_554
C4 Sc3 2.434322 1_655
C4 Sc3 2.434322 1_555
C5 Sc2 2.434322 1_555
C5 Sc2 2.434322 1_655
C6 C7 1.454176 1_565
C6 Sc1 2.434322 1_655
C6 Sc1 2.434322 1_555
C7 Sc0 2.434322 1_655
C7 Sc0 2.434322 1_555
