# generated using pymatgen
data_MgMoW2(Se2S)2
_symmetry_space_group_name_H-M   'P 1'
_cell_length_a   3.27973775
_cell_length_b   3.27974352
_cell_length_c   37.53498228
_cell_angle_alpha   88.47065182
_cell_angle_beta   91.53041237
_cell_angle_gamma   120.01619603
_symmetry_Int_Tables_number   1
_chemical_formula_structural   MgMoW2(Se2S)2
_chemical_formula_sum   'Mg1 Mo1 W2 Se4 S2'
_cell_volume   349.43669216
_cell_formula_units_Z   1
loop_
 _symmetry_equiv_pos_site_id
 _symmetry_equiv_pos_as_xyz
  1  'x, y, z'
loop_
 _atom_site_type_symbol
 _atom_site_label
 _atom_site_symmetry_multiplicity
 _atom_site_fract_x
 _atom_site_fract_y
 _atom_site_fract_z
 _atom_site_occupancy
  Mg  Mg0  1  0.33228800  0.66765500  0.22997600  1
  Mo  Mo0  1  0.66612500  0.33383600  0.35277400  1
  W  W0  1  0.34296700  0.65702400  0.10508600  1
  W  W1  1  0.33388100  0.66612400  0.57842200  1
  Se  Se0  1  0.34182400  0.65816300  0.39784500  1
  Se  Se1  1  0.65814800  0.34185200  0.53312500  1
  Se  Se2  1  0.67620500  0.32380300  0.62373400  1
  Se  Se3  1  0.32376400  0.67616600  0.30751900  1
  S  S0  1  0.66793100  0.33203900  0.06413300  1
  S  S1  1  0.68457800  0.31542500  0.14619900  1
loop_
_geom_bond_atom_site_label_1
_geom_bond_atom_site_label_2
_geom_bond_distance
_geom_bond_site_symmetry_2
Mg0 Se3 2.912468 1_555
Mo0 Se0 2.538091 1_545
Mo0 Se0 2.538103 1_655
Mo0 Se0 2.539460 1_555
Mo0 Se3 2.542519 1_555
Mo0 Se3 2.543459 1_655
Mo0 Se3 2.543487 1_545
Se1 W1 2.543734 1_655
Se1 W1 2.543767 1_545
Se1 W1 2.545120 1_555
Se2 W1 2.543801 1_555
Se2 W1 2.544958 1_545
Se2 W1 2.544990 1_655
S0 W0 2.438283 1_545
S0 W0 2.438288 1_655
S0 W0 2.438526 1_555
S1 W0 2.441945 1_555
S1 W0 2.442252 1_545
S1 W0 2.442262 1_655
