# generated using pymatgen
data_MgTe2Mo2W2(Se2S)2
_symmetry_space_group_name_H-M   'P 1'
_cell_length_a   6.67997602
_cell_length_b   6.67995280
_cell_length_c   76.12013628
_cell_angle_alpha   90.00922670
_cell_angle_beta   89.99238310
_cell_angle_gamma   119.99756085
_symmetry_Int_Tables_number   1
_chemical_formula_structural   MgTe2Mo2W2(Se2S)2
_chemical_formula_sum   'Mg8 Te16 Mo16 W16 Se32 S16'
_cell_volume   2941.63750039
_cell_formula_units_Z   8
loop_
 _symmetry_equiv_pos_site_id
 _symmetry_equiv_pos_as_xyz
  1  'x, y, z'
loop_
 _atom_site_type_symbol
 _atom_site_label
 _atom_site_symmetry_multiplicity
 _atom_site_fract_x
 _atom_site_fract_y
 _atom_site_fract_z
 _atom_site_occupancy
  Mg  Mg0_0  1  0.32897950  0.12662700  0.44110800  1
  Mg  Mg0_1  1  0.32897950  0.12662700  0.94110800  1
  Mg  Mg0_2  1  0.32897950  0.62662700  0.44110800  1
  Mg  Mg0_3  1  0.32897950  0.62662700  0.94110800  1
  Mg  Mg0_4  1  0.82897950  0.12662700  0.44110800  1
  Mg  Mg0_5  1  0.82897950  0.12662700  0.94110800  1
  Mg  Mg0_6  1  0.82897950  0.62662700  0.44110800  1
  Mg  Mg0_7  1  0.82897950  0.62662700  0.94110800  1
  Te  Te0_0  1  0.16667900  0.33333250  0.35383800  1
  Te  Te0_1  1  0.16667900  0.33333250  0.85383800  1
  Te  Te0_2  1  0.16667900  0.83333250  0.35383800  1
  Te  Te0_3  1  0.16667900  0.83333250  0.85383800  1
  Te  Te0_4  1  0.66667900  0.33333250  0.35383800  1
  Te  Te0_5  1  0.66667900  0.33333250  0.85383800  1
  Te  Te0_6  1  0.66667900  0.83333250  0.35383800  1
  Te  Te0_7  1  0.66667900  0.83333250  0.85383800  1
  Te  Te1_0  1  0.16667650  0.33332700  0.30370850  1
  Te  Te1_1  1  0.16667650  0.33332700  0.80370850  1
  Te  Te1_2  1  0.16667650  0.83332700  0.30370850  1
  Te  Te1_3  1  0.16667650  0.83332700  0.80370850  1
  Te  Te1_4  1  0.66667650  0.33332700  0.30370850  1
  Te  Te1_5  1  0.66667650  0.33332700  0.80370850  1
  Te  Te1_6  1  0.66667650  0.83332700  0.30370850  1
  Te  Te1_7  1  0.66667650  0.83332700  0.80370850  1
  Mo  Mo0_0  1  0.16665800  0.33328800  0.04694400  1
  Mo  Mo0_1  1  0.16665800  0.33328800  0.54694400  1
  Mo  Mo0_2  1  0.16665800  0.83328800  0.04694400  1
  Mo  Mo0_3  1  0.16665800  0.83328800  0.54694400  1
  Mo  Mo0_4  1  0.66665800  0.33328800  0.04694400  1
  Mo  Mo0_5  1  0.66665800  0.33328800  0.54694400  1
  Mo  Mo0_6  1  0.66665800  0.83328800  0.04694400  1
  Mo  Mo0_7  1  0.66665800  0.83328800  0.54694400  1
  Mo  Mo1_0  1  0.33334750  0.16666900  0.14089950  1
  Mo  Mo1_1  1  0.33334750  0.16666900  0.64089950  1
  Mo  Mo1_2  1  0.33334750  0.66666900  0.14089950  1
  Mo  Mo1_3  1  0.33334750  0.66666900  0.64089950  1
  Mo  Mo1_4  1  0.83334750  0.16666900  0.14089950  1
  Mo  Mo1_5  1  0.83334750  0.16666900  0.64089950  1
  Mo  Mo1_6  1  0.83334750  0.66666900  0.14089950  1
  Mo  Mo1_7  1  0.83334750  0.66666900  0.64089950  1
  W  W0_0  1  0.16665850  0.33328850  0.23482100  1
  W  W0_1  1  0.16665850  0.33328850  0.73482100  1
  W  W0_2  1  0.16665850  0.83328850  0.23482100  1
  W  W0_3  1  0.16665850  0.83328850  0.73482100  1
  W  W0_4  1  0.66665850  0.33328850  0.23482100  1
  W  W0_5  1  0.66665850  0.33328850  0.73482100  1
  W  W0_6  1  0.66665850  0.83328850  0.23482100  1
  W  W0_7  1  0.66665850  0.83328850  0.73482100  1
  W  W1_0  1  0.33334750  0.16666450  0.32878200  1
  W  W1_1  1  0.33334750  0.16666450  0.82878200  1
  W  W1_2  1  0.33334750  0.66666450  0.32878200  1
  W  W1_3  1  0.33334750  0.66666450  0.82878200  1
  W  W1_4  1  0.83334750  0.16666450  0.32878200  1
  W  W1_5  1  0.83334750  0.16666450  0.82878200  1
  W  W1_6  1  0.83334750  0.66666450  0.32878200  1
  W  W1_7  1  0.83334750  0.66666450  0.82878200  1
  Se  Se0_0  1  0.16668350  0.33334000  0.16278750  1
  Se  Se0_1  1  0.16668350  0.33334000  0.66278750  1
  Se  Se0_2  1  0.16668350  0.83334000  0.16278750  1
  Se  Se0_3  1  0.16668350  0.83334000  0.66278750  1
  Se  Se0_4  1  0.66668350  0.33334000  0.16278750  1
  Se  Se0_5  1  0.66668350  0.33334000  0.66278750  1
  Se  Se0_6  1  0.66668350  0.83334000  0.16278750  1
  Se  Se0_7  1  0.66668350  0.83334000  0.66278750  1
  Se  Se1_0  1  0.33332250  0.16661600  0.02506700  1
  Se  Se1_1  1  0.33332250  0.16661600  0.52506700  1
  Se  Se1_2  1  0.33332250  0.66661600  0.02506700  1
  Se  Se1_3  1  0.33332250  0.66661600  0.52506700  1
  Se  Se1_4  1  0.83332250  0.16661600  0.02506700  1
  Se  Se1_5  1  0.83332250  0.16661600  0.52506700  1
  Se  Se1_6  1  0.83332250  0.66661600  0.02506700  1
  Se  Se1_7  1  0.83332250  0.66661600  0.52506700  1
  Se  Se2_0  1  0.33332850  0.16662800  0.06883800  1
  Se  Se2_1  1  0.33332850  0.16662800  0.56883800  1
  Se  Se2_2  1  0.33332850  0.66662800  0.06883800  1
  Se  Se2_3  1  0.33332850  0.66662800  0.56883800  1
  Se  Se2_4  1  0.83332850  0.16662800  0.06883800  1
  Se  Se2_5  1  0.83332850  0.16662800  0.56883800  1
  Se  Se2_6  1  0.83332850  0.66662800  0.06883800  1
  Se  Se2_7  1  0.83332850  0.66662800  0.56883800  1
  Se  Se3_0  1  0.16668050  0.33333400  0.11900450  1
  Se  Se3_1  1  0.16668050  0.33333400  0.61900450  1
  Se  Se3_2  1  0.16668050  0.83333400  0.11900450  1
  Se  Se3_3  1  0.16668050  0.83333400  0.61900450  1
  Se  Se3_4  1  0.66668050  0.33333400  0.11900450  1
  Se  Se3_5  1  0.66668050  0.33333400  0.61900450  1
  Se  Se3_6  1  0.66668050  0.83333400  0.11900450  1
  Se  Se3_7  1  0.66668050  0.83333400  0.61900450  1
  S  S0_0  1  0.33332500  0.16662150  0.21482500  1
  S  S0_1  1  0.33332500  0.16662150  0.71482500  1
  S  S0_2  1  0.33332500  0.66662150  0.21482500  1
  S  S0_3  1  0.33332500  0.66662150  0.71482500  1
  S  S0_4  1  0.83332500  0.16662150  0.21482500  1
  S  S0_5  1  0.83332500  0.16662150  0.71482500  1
  S  S0_6  1  0.83332500  0.66662150  0.21482500  1
  S  S0_7  1  0.83332500  0.66662150  0.71482500  1
  S  S1_0  1  0.33332600  0.16662400  0.25482050  1
  S  S1_1  1  0.33332600  0.16662400  0.75482050  1
  S  S1_2  1  0.33332600  0.66662400  0.25482050  1
  S  S1_3  1  0.33332600  0.66662400  0.75482050  1
  S  S1_4  1  0.83332600  0.16662400  0.25482050  1
  S  S1_5  1  0.83332600  0.16662400  0.75482050  1
  S  S1_6  1  0.83332600  0.66662400  0.25482050  1
  S  S1_7  1  0.83332600  0.66662400  0.75482050  1
loop_
_geom_bond_atom_site_label_1
_geom_bond_atom_site_label_2
_geom_bond_distance
_geom_bond_site_symmetry_2
Mg0_0 Mg0_2 3.339976 1_545
Mg0_0 Mg0_2 3.339976 1_555
Mg0_0 Mg0_4 3.339988 1_455
Mg0_0 Mg0_4 3.339988 1_555
Mg0_0 Mg0_6 3.340105 1_445
Mg0_0 Mg0_6 3.340105 1_555
Mg0_1 Mg0_3 3.339976 1_545
Mg0_1 Mg0_3 3.339976 1_555
Mg0_1 Mg0_5 3.339988 1_555
Mg0_1 Mg0_5 3.339988 1_455
Mg0_1 Mg0_7 3.340105 1_555
Mg0_1 Mg0_7 3.340105 1_445
Mg0_2 Mg0_6 3.339988 1_455
Mg0_2 Mg0_6 3.339988 1_555
Mg0_2 Mg0_4 3.340105 1_565
Mg0_2 Mg0_4 3.340105 1_455
Mg0_3 Mg0_7 3.339988 1_555
Mg0_3 Mg0_7 3.339988 1_455
Mg0_3 Mg0_5 3.340105 1_565
Mg0_3 Mg0_5 3.340105 1_455
Mg0_4 Mg0_6 3.339976 1_545
Mg0_4 Mg0_6 3.339976 1_555
Mg0_5 Mg0_7 3.339976 1_545
Mg0_5 Mg0_7 3.339976 1_555
Te0_0 W1_0 2.711990 1_555
Te0_0 W1_4 2.712334 1_455
Te0_0 W1_2 2.712398 1_555
Te0_1 W1_1 2.711990 1_555
Te0_1 W1_5 2.712334 1_455
Te0_1 W1_3 2.712398 1_555
Te0_2 W1_2 2.711990 1_555
Te0_2 W1_6 2.712334 1_455
Te0_2 W1_0 2.712398 1_565
Te0_3 W1_3 2.711990 1_555
Te0_3 W1_7 2.712334 1_455
Te0_3 W1_1 2.712398 1_565
Te0_4 W1_4 2.711990 1_555
Te0_4 W1_0 2.712334 1_555
Te0_4 W1_6 2.712398 1_555
Te0_5 W1_5 2.711990 1_555
Te0_5 W1_1 2.712334 1_555
Te0_5 W1_7 2.712398 1_555
Te0_6 W1_6 2.711990 1_555
Te0_6 W1_2 2.712334 1_555
Te0_6 W1_4 2.712398 1_565
Te0_7 W1_7 2.711990 1_555
Te0_7 W1_3 2.712334 1_555
Te0_7 W1_5 2.712398 1_565
Te1_0 W1_2 2.713061 1_555
Te1_0 W1_4 2.713097 1_455
Te1_0 W1_0 2.713375 1_555
Te1_1 W1_3 2.713061 1_555
Te1_1 W1_5 2.713097 1_455
Te1_1 W1_1 2.713375 1_555
Te1_2 W1_0 2.713061 1_565
Te1_2 W1_6 2.713097 1_455
Te1_2 W1_2 2.713375 1_555
Te1_3 W1_1 2.713061 1_565
Te1_3 W1_7 2.713097 1_455
Te1_3 W1_3 2.713375 1_555
Te1_4 W1_6 2.713061 1_555
Te1_4 W1_0 2.713097 1_555
Te1_4 W1_4 2.713375 1_555
Te1_5 W1_7 2.713061 1_555
Te1_5 W1_1 2.713097 1_555
Te1_5 W1_5 2.713375 1_555
Te1_6 W1_4 2.713061 1_565
Te1_6 W1_2 2.713097 1_555
Te1_6 W1_6 2.713375 1_555
Te1_7 W1_5 2.713061 1_565
Te1_7 W1_3 2.713097 1_555
Te1_7 W1_7 2.713375 1_555
Mo0_0 Se1_0 2.547654 1_555
Mo0_0 Se1_4 2.547996 1_455
Mo0_0 Se1_2 2.548020 1_555
Mo0_0 Se2_2 2.548643 1_555
Mo0_0 Se2_4 2.548663 1_455
Mo0_0 Se2_0 2.548902 1_555
Mo0_1 Se1_1 2.547654 1_555
Mo0_1 Se1_5 2.547996 1_455
Mo0_1 Se1_3 2.548020 1_555
Mo0_1 Se2_3 2.548643 1_555
Mo0_1 Se2_5 2.548663 1_455
Mo0_1 Se2_1 2.548902 1_555
Mo0_2 Se1_2 2.547654 1_555
Mo0_2 Se1_6 2.547996 1_455
Mo0_2 Se1_0 2.548020 1_565
Mo0_2 Se2_0 2.548643 1_565
Mo0_2 Se2_6 2.548663 1_455
Mo0_2 Se2_2 2.548902 1_555
Mo0_3 Se1_3 2.547654 1_555
Mo0_3 Se1_7 2.547996 1_455
Mo0_3 Se1_1 2.548020 1_565
Mo0_3 Se2_1 2.548643 1_565
Mo0_3 Se2_7 2.548663 1_455
Mo0_3 Se2_3 2.548902 1_555
Mo0_4 Se1_4 2.547654 1_555
Mo0_4 Se1_0 2.547996 1_555
Mo0_4 Se1_6 2.548020 1_555
Mo0_4 Se2_6 2.548643 1_555
Mo0_4 Se2_0 2.548663 1_555
Mo0_4 Se2_4 2.548902 1_555
Mo0_5 Se1_5 2.547654 1_555
Mo0_5 Se1_1 2.547996 1_555
Mo0_5 Se1_7 2.548020 1_555
Mo0_5 Se2_7 2.548643 1_555
Mo0_5 Se2_1 2.548663 1_555
Mo0_5 Se2_5 2.548902 1_555
Mo0_6 Se1_6 2.547654 1_555
Mo0_6 Se1_2 2.547996 1_555
Mo0_6 Se1_4 2.548020 1_565
Mo0_6 Se2_4 2.548643 1_565
Mo0_6 Se2_2 2.548663 1_555
Mo0_6 Se2_6 2.548902 1_555
Mo0_7 Se1_7 2.547654 1_555
Mo0_7 Se1_3 2.547996 1_555
Mo0_7 Se1_5 2.548020 1_565
Mo0_7 Se2_5 2.548643 1_565
Mo0_7 Se2_3 2.548663 1_555
Mo0_7 Se2_7 2.548902 1_555
Mo1_0 Se0_0 2.548195 1_555
Mo1_0 Se0_4 2.548546 1_555
Mo1_0 Se0_2 2.548571 1_545
Mo1_0 Se3_2 2.548671 1_545
Mo1_0 Se3_4 2.548728 1_555
Mo1_0 Se3_0 2.548958 1_555
Mo1_1 Se0_1 2.548195 1_555
Mo1_1 Se0_5 2.548546 1_555
Mo1_1 Se0_3 2.548571 1_545
Mo1_1 Se3_3 2.548671 1_545
Mo1_1 Se3_5 2.548728 1_555
Mo1_1 Se3_1 2.548958 1_555
Mo1_2 Se0_2 2.548195 1_555
Mo1_2 Se0_6 2.548546 1_555
Mo1_2 Se0_0 2.548571 1_555
Mo1_2 Se3_0 2.548671 1_555
Mo1_2 Se3_6 2.548728 1_555
Mo1_2 Se3_2 2.548958 1_555
Mo1_3 Se0_3 2.548195 1_555
Mo1_3 Se0_7 2.548546 1_555
Mo1_3 Se0_1 2.548571 1_555
Mo1_3 Se3_1 2.548671 1_555
Mo1_3 Se3_7 2.548728 1_555
Mo1_3 Se3_3 2.548958 1_555
Mo1_4 Se0_4 2.548195 1_555
Mo1_4 Se0_0 2.548546 1_655
Mo1_4 Se0_6 2.548571 1_545
Mo1_4 Se3_6 2.548671 1_545
Mo1_4 Se3_0 2.548728 1_655
Mo1_4 Se3_4 2.548958 1_555
Mo1_5 Se0_5 2.548195 1_555
Mo1_5 Se0_1 2.548546 1_655
Mo1_5 Se0_7 2.548571 1_545
Mo1_5 Se3_7 2.548671 1_545
Mo1_5 Se3_1 2.548728 1_655
Mo1_5 Se3_5 2.548958 1_555
Mo1_6 Se0_6 2.548195 1_555
Mo1_6 Se0_2 2.548546 1_655
Mo1_6 Se0_4 2.548571 1_555
Mo1_6 Se3_4 2.548671 1_555
Mo1_6 Se3_2 2.548728 1_655
Mo1_6 Se3_6 2.548958 1_555
Mo1_7 Se0_7 2.548195 1_555
Mo1_7 Se0_3 2.548546 1_655
Mo1_7 Se0_5 2.548571 1_555
Mo1_7 Se3_5 2.548671 1_555
Mo1_7 Se3_3 2.548728 1_655
Mo1_7 Se3_7 2.548958 1_555
S0_0 W0_0 2.456459 1_555
S0_0 W0_4 2.456793 1_555
S0_0 W0_2 2.456844 1_545
S0_1 W0_1 2.456459 1_555
S0_1 W0_5 2.456793 1_555
S0_1 W0_3 2.456844 1_545
S0_2 W0_2 2.456459 1_555
S0_2 W0_6 2.456793 1_555
S0_2 W0_0 2.456844 1_555
S0_3 W0_3 2.456459 1_555
S0_3 W0_7 2.456793 1_555
S0_3 W0_1 2.456844 1_555
S0_4 W0_4 2.456459 1_555
S0_4 W0_0 2.456793 1_655
S0_4 W0_6 2.456844 1_545
S0_5 W0_5 2.456459 1_555
S0_5 W0_1 2.456793 1_655
S0_5 W0_7 2.456844 1_545
S0_6 W0_6 2.456459 1_555
S0_6 W0_2 2.456793 1_655
S0_6 W0_4 2.456844 1_555
S0_7 W0_7 2.456459 1_555
S0_7 W0_3 2.456793 1_655
S0_7 W0_5 2.456844 1_555
S1_0 W0_2 2.456759 1_545
S1_0 W0_4 2.456809 1_555
S1_0 W0_0 2.457023 1_555
S1_1 W0_3 2.456759 1_545
S1_1 W0_5 2.456809 1_555
S1_1 W0_1 2.457023 1_555
S1_2 W0_0 2.456759 1_555
S1_2 W0_6 2.456809 1_555
S1_2 W0_2 2.457023 1_555
S1_3 W0_1 2.456759 1_555
S1_3 W0_7 2.456809 1_555
S1_3 W0_3 2.457023 1_555
S1_4 W0_6 2.456759 1_545
S1_4 W0_0 2.456809 1_655
S1_4 W0_4 2.457023 1_555
S1_5 W0_7 2.456759 1_545
S1_5 W0_1 2.456809 1_655
S1_5 W0_5 2.457023 1_555
S1_6 W0_4 2.456759 1_555
S1_6 W0_2 2.456809 1_655
S1_6 W0_6 2.457023 1_555
S1_7 W0_5 2.456759 1_555
S1_7 W0_3 2.456809 1_655
S1_7 W0_7 2.457023 1_555
