# generated using pymatgen
data_LiCrP2O7
_symmetry_space_group_name_H-M   'P 1'
_cell_length_a   8.15183818
_cell_length_b   6.59153922
_cell_length_c   9.05912368
_cell_angle_alpha   74.98941255
_cell_angle_beta   90.00000000
_cell_angle_gamma   90.00000000
_symmetry_Int_Tables_number   1
_chemical_formula_structural   LiCrP2O7
_chemical_formula_sum   'Li4 Cr4 P8 O28'
_cell_volume   470.16559550
_cell_formula_units_Z   4
loop_
 _symmetry_equiv_pos_site_id
 _symmetry_equiv_pos_as_xyz
  1  'x, y, z'
loop_
 _atom_site_type_symbol
 _atom_site_label
 _atom_site_symmetry_multiplicity
 _atom_site_fract_x
 _atom_site_fract_y
 _atom_site_fract_z
 _atom_site_occupancy
  Li  Li0  1  0.07625072  0.74533569  0.24986317  1
  Li  Li1  1  0.92374928  0.25466431  0.75013683  1
  Li  Li2  1  0.57625072  0.25466431  0.75013683  1
  Li  Li3  1  0.42374928  0.74533569  0.24986317  1
  Cr  Cr0  1  0.43419605  0.75003374  0.75004160  1
  Cr  Cr1  1  0.06580395  0.75003374  0.75004160  1
  Cr  Cr2  1  0.93419605  0.24996626  0.24995840  1
  Cr  Cr3  1  0.56580395  0.24996626  0.24995840  1
  P  P0  1  0.75000000  0.49860927  0.44300274  1
  P  P1  1  0.25000000  0.50139073  0.55699726  1
  P  P2  1  0.75000000  0.91945279  0.52756869  1
  P  P3  1  0.75000000  0.58061312  0.97198824  1
  P  P4  1  0.75000000  0.00291170  0.05623563  1
  P  P5  1  0.25000000  0.41938688  0.02801176  1
  P  P6  1  0.25000000  0.99708830  0.94376437  1
  P  P7  1  0.25000000  0.08054721  0.47243131  1
  O  O0  1  0.25000000  0.25948251  0.55688813  1
  O  O1  1  0.25000000  0.23872707  0.94534218  1
  O  O2  1  0.09297797  0.98154403  0.85240015  1
  O  O3  1  0.40702203  0.98154403  0.85240015  1
  O  O4  1  0.59297797  0.01845597  0.14759985  1
  O  O5  1  0.90702203  0.01845597  0.14759985  1
  O  O6  1  0.75000000  0.76127293  0.05465782  1
  O  O7  1  0.75000000  0.38482965  0.11111370  1
  O  O8  1  0.09715089  0.41773544  0.11999024  1
  O  O9  1  0.40284911  0.41773544  0.11999024  1
  O  O10  1  0.25000000  0.86385105  0.10412798  1
  O  O11  1  0.09715608  0.08355177  0.38040697  1
  O  O12  1  0.40284392  0.08355177  0.38040697  1
  O  O13  1  0.75000000  0.11615906  0.38909199  1
  O  O14  1  0.59293587  0.48212890  0.35194609  1
  O  O15  1  0.90284911  0.58226456  0.88000976  1
  O  O16  1  0.25000000  0.63309792  0.39621063  1
  O  O17  1  0.75000000  0.74051749  0.44311187  1
  O  O18  1  0.90706413  0.48212890  0.35194609  1
  O  O19  1  0.75000000  0.36690208  0.60378937  1
  O  O20  1  0.09293587  0.51787110  0.64805391  1
  O  O21  1  0.40706413  0.51787110  0.64805391  1
  O  O22  1  0.25000000  0.88384094  0.61090801  1
  O  O23  1  0.59715608  0.91644823  0.61959303  1
  O  O24  1  0.90284392  0.91644823  0.61959303  1
  O  O25  1  0.75000000  0.13614895  0.89587202  1
  O  O26  1  0.59715089  0.58226456  0.88000976  1
  O  O27  1  0.25000000  0.61517035  0.88888630  1
loop_
_geom_bond_atom_site_label_1
_geom_bond_atom_site_label_2
_geom_bond_distance
_geom_bond_site_symmetry_2
Li0 O16 1.950148 1_555
Li0 O10 1.955803 1_555
Li0 O18 2.221774 1_455
Li0 O5 2.266812 1_465
Li1 O19 1.950148 1_555
Li1 O25 1.955803 1_555
Li1 O20 2.221774 1_655
Li1 O2 2.266812 1_645
Li2 O19 1.950148 1_555
Li2 O25 1.955803 1_555
Li2 O21 2.221774 1_555
Li2 O3 2.266812 1_545
Li3 O16 1.950148 1_555
Li3 O10 1.955803 1_555
Li3 O14 2.221774 1_555
Li3 O4 2.266812 1_565
Cr0 O23 1.921723 1_555
Cr0 O26 1.923366 1_555
Cr0 O3 1.992637 1_555
Cr0 O21 1.994185 1_555
Cr0 O22 2.011307 1_555
Cr0 O27 2.011903 1_555
Cr1 O24 1.921723 1_455
Cr1 O15 1.923366 1_455
Cr1 O2 1.992637 1_555
Cr1 O20 1.994185 1_555
Cr1 O22 2.011307 1_555
Cr1 O27 2.011903 1_555
Cr2 O11 1.921723 1_655
Cr2 O8 1.923366 1_655
Cr2 O5 1.992637 1_555
Cr2 O18 1.994185 1_555
Cr2 O13 2.011307 1_555
Cr2 O7 2.011903 1_555
Cr3 O12 1.921723 1_555
Cr3 O9 1.923366 1_555
Cr3 O4 1.992637 1_555
Cr3 O14 1.994185 1_555
Cr3 O13 2.011307 1_555
Cr3 O7 2.011903 1_555
O0 P7 1.563315 1_555
O0 P1 1.594804 1_555
O1 P5 1.562338 1_556
O1 P6 1.596533 1_545
O2 P6 1.542053 1_555
O3 P6 1.542053 1_555
O4 P4 1.542053 1_555
O5 P4 1.542053 1_555
O6 P3 1.562338 1_554
O6 P4 1.596533 1_565
O7 P3 1.552868 1_554
O8 P5 1.497410 1_555
O9 P5 1.497410 1_555
O10 P6 1.490270 1_554
O11 P7 1.496410 1_555
O12 P7 1.496410 1_555
O13 P2 1.553168 1_545
O14 P0 1.542074 1_555
O15 P3 1.497410 1_555
O16 P1 1.490070 1_555
O17 P2 1.563315 1_555
O17 P0 1.594804 1_555
O18 P0 1.542074 1_555
O19 P0 1.490070 1_555
O20 P1 1.542074 1_555
O21 P1 1.542074 1_555
O22 P7 1.553168 1_565
O23 P2 1.496410 1_555
O24 P2 1.496410 1_555
O25 P4 1.490270 1_556
O26 P3 1.497410 1_555
O27 P5 1.552868 1_556
