# generated using pymatgen
data_Na7Ta2In2Si5PO24
_symmetry_space_group_name_H-M   'P 1'
_cell_length_a   9.15488290
_cell_length_b   9.15747887
_cell_length_c   22.61764241
_cell_angle_alpha   89.84231737
_cell_angle_beta   90.03667992
_cell_angle_gamma   119.91913231
_symmetry_Int_Tables_number   1
_chemical_formula_structural   Na7Ta2In2Si5PO24
_chemical_formula_sum   'Na21 Ta6 In6 Si15 P3 O72'
_cell_volume   1643.45646647
_cell_formula_units_Z   3
loop_
 _symmetry_equiv_pos_site_id
 _symmetry_equiv_pos_as_xyz
  1  'x, y, z'
loop_
 _atom_site_type_symbol
 _atom_site_label
 _atom_site_symmetry_multiplicity
 _atom_site_fract_x
 _atom_site_fract_y
 _atom_site_fract_z
 _atom_site_occupancy
  Na  Na0  1  0.64392218  0.01285967  0.25021139  1
  Na  Na1  1  0.37269288  0.36107758  0.24730267  1
  Na  Na2  1  0.98594118  0.62579456  0.24812670  1
  Na  Na3  1  0.63859551  0.62655328  0.74807171  1
  Na  Na4  1  0.98630729  0.35764252  0.74856312  1
  Na  Na5  1  0.37379299  0.01469366  0.74809271  1
  Na  Na6  1  0.30761025  0.34409245  0.58268862  1
  Na  Na7  1  0.03965412  0.69527113  0.58119537  1
  Na  Na8  1  0.65431034  0.95956608  0.58149101  1
  Na  Na9  1  0.30036086  0.96161721  0.07974175  1
  Na  Na10  1  0.04147353  0.34752862  0.08193553  1
  Na  Na11  1  0.97627233  0.67877995  0.91522013  1
  Na  Na12  1  0.31974695  0.29191461  0.91513406  1
  Na  Na13  1  0.32155979  0.02524783  0.41521752  1
  Na  Na14  1  0.70733486  0.67859844  0.41502924  1
  Na  Na15  1  0.99560072  0.00319054  0.49475790  1
  Na  Na16  1  0.99006278  0.99819413  0.99564911  1
  Na  Na17  1  0.66713572  0.32478631  0.82942367  1
  Na  Na18  1  0.67469324  0.33320326  0.32985001  1
  Na  Na19  1  0.33762004  0.66066092  0.16112859  1
  Na  Na20  1  0.33479333  0.66718248  0.66182731  1
  Ta  Ta0  1  0.99958330  0.99955001  0.64689009  1
  Ta  Ta1  1  0.00048683  0.99669810  0.14692661  1
  Ta  Ta2  1  0.66618965  0.33148269  0.98021450  1
  Ta  Ta3  1  0.67352804  0.33221905  0.48035459  1
  Ta  Ta4  1  0.32975537  0.66866776  0.31322836  1
  Ta  Ta5  1  0.33027462  0.66934272  0.81345637  1
  In  In0  1  0.99759169  0.00230184  0.35043017  1
  In  In1  1  0.99840610  0.00230870  0.85088658  1
  In  In2  1  0.66720839  0.33377181  0.68292034  1
  In  In3  1  0.66741762  0.33770163  0.18278090  1
  In  In4  1  0.33409218  0.66436724  0.01708326  1
  In  In5  1  0.33326021  0.66818962  0.51610310  1
  Si  Si0  1  0.29258945  -0.00026671  0.25144253  1
  Si  Si1  1  0.70630290  0.70791406  0.25141775  1
  Si  Si2  1  0.00112925  0.29240132  0.24937584  1
  Si  Si3  1  0.29313260  0.29437525  0.75116525  1
  Si  Si4  1  0.00031690  0.70815328  0.75173764  1
  Si  Si5  1  0.70624090  0.99816948  0.75043990  1
  Si  Si6  1  0.96127232  0.33192290  0.58476981  1
  Si  Si7  1  0.37278190  0.04156869  0.58373203  1
  Si  Si8  1  0.66790807  0.62668967  0.58350539  1
  Si  Si9  1  0.95822913  0.62894847  0.08366249  1
  Si  Si10  1  0.37265200  0.33493434  0.08429371  1
  Si  Si11  1  0.03653977  0.37020238  0.91783501  1
  Si  Si12  1  0.33707157  0.96170753  0.91822946  1
  Si  Si13  1  0.62877393  0.96270586  0.41748659  1
  Si  Si14  1  0.03711257  0.66400404  0.41750558  1
  P  P0  1  0.66919986  0.04242268  0.08386147  1
  P  P1  1  0.62343725  0.66475828  0.91720988  1
  P  P2  1  0.33537706  0.37502540  0.41729075  1
  O  O0  1  0.21935683  0.03729394  0.30983194  1
  O  O1  1  0.81768808  0.77897813  0.30980579  1
  O  O2  1  0.96079222  0.17478330  0.30551780  1
  O  O3  1  0.22029834  0.18161499  0.80922131  1
  O  O4  1  0.96533179  0.78274787  0.81017667  1
  O  O5  1  0.82572347  0.03851997  0.80569792  1
  O  O6  1  0.79962888  0.96474123  0.69127774  1
  O  O7  1  0.16374157  0.19871624  0.69282768  1
  O  O8  1  0.03454485  0.83611056  0.69325177  1
  O  O9  1  0.80583458  0.84128716  0.19472498  1
  O  O10  1  0.03448165  0.19984301  0.19047538  1
  O  O11  1  0.16307987  0.96530825  0.19336912  1
  O  O12  1  0.88947067  0.37199340  0.64317311  1
  O  O13  1  0.48373044  0.11494666  0.64233131  1
  O  O14  1  0.63096994  0.51746728  0.64271098  1
  O  O15  1  0.88744473  0.51415354  0.14191991  1
  O  O16  1  0.63696136  0.11337106  0.14024616  1
  O  O17  1  0.47215772  0.35384165  0.14430290  1
  O  O18  1  0.47093998  0.30203021  0.02677721  1
  O  O19  1  0.83298616  0.52635745  0.02578259  1
  O  O20  1  0.69701412  0.16688583  0.03009031  1
  O  O21  1  0.46861110  0.17024448  0.52572242  1
  O  O22  1  0.69946517  0.52963756  0.52589949  1
  O  O23  1  0.82742893  0.29947494  0.52811576  1
  O  O24  1  0.54567948  0.69145497  0.97156362  1
  O  O25  1  0.14868504  0.44861353  0.97592970  1
  O  O26  1  0.30322586  0.85037094  0.97653737  1
  O  O27  1  0.55156355  0.85100144  0.47613226  1
  O  O28  1  0.31033713  0.44951021  0.47368648  1
  O  O29  1  0.14794693  0.69892791  0.47601764  1
  O  O30  1  0.13662765  0.63738858  0.35922610  1
  O  O31  1  0.49709355  0.86149699  0.35973281  1
  O  O32  1  0.36129200  0.49403580  0.36234971  1
  O  O33  1  0.13730807  0.50246125  0.85981852  1
  O  O34  1  0.36326422  0.86241278  0.85955579  1
  O  O35  1  0.50716585  0.63507850  0.86118353  1
  O  O36  1  0.01719587  0.82951433  0.41196659  1
  O  O37  1  0.81057941  0.97826459  0.41250340  1
  O  O38  1  0.18944508  0.19536600  0.41150388  1
  O  O39  1  0.02170672  0.18874850  0.91259140  1
  O  O40  1  0.17186800  0.98236131  0.91244496  1
  O  O41  1  0.80448271  0.80794690  0.91133341  1
  O  O42  1  0.96761724  0.15373002  0.58903503  1
  O  O43  1  0.18608800  0.03276203  0.58926055  1
  O  O44  1  0.84559636  0.81322525  0.58911627  1
  O  O45  1  0.97275322  0.81787758  0.08971315  1
  O  O46  1  0.83812496  0.03890408  0.08786866  1
  O  O47  1  0.18333950  0.15478820  0.08881809  1
  O  O48  1  0.67639704  0.15716165  0.74497446  1
  O  O49  1  0.48105915  0.32237327  0.74521448  1
  O  O50  1  0.84247332  0.51990506  0.74580732  1
  O  O51  1  0.67779300  0.51965999  0.24564163  1
  O  O52  1  0.84066866  0.32043917  0.24369762  1
  O  O53  1  0.48200521  0.15467400  0.24400493  1
  O  O54  1  0.63040928  0.49378900  0.92258770  1
  O  O55  1  0.85340903  0.36954854  0.92352898  1
  O  O56  1  0.50817756  0.15304790  0.92407501  1
  O  O57  1  0.62706171  0.14466873  0.42271504  1
  O  O58  1  0.50525871  0.36914304  0.42081198  1
  O  O59  1  0.84603720  0.49263856  0.42285660  1
  O  O60  1  0.33839425  0.49072429  0.07932294  1
  O  O61  1  0.14882117  0.66031623  0.07868444  1
  O  O62  1  0.51418301  0.87008210  0.07557585  1
  O  O63  1  0.34442837  0.85306034  0.57895284  1
  O  O64  1  0.50623153  0.65241718  0.57762146  1
  O  O65  1  0.14902645  0.48998119  0.57724562  1
  O  O66  1  0.30008079  0.82019167  0.25665826  1
  O  O67  1  0.51832321  0.69655507  0.25743821  1
  O  O68  1  0.17915976  0.47931042  0.25682223  1
  O  O69  1  0.30341353  0.48171646  0.75733738  1
  O  O70  1  0.17973182  0.69965856  0.75681138  1
  O  O71  1  0.52011204  0.81968686  0.75691335  1
loop_
_geom_bond_atom_site_label_1
_geom_bond_atom_site_label_2
_geom_bond_distance
_geom_bond_site_symmetry_2
Na0 O53 2.413007 1_555
Na0 O52 2.477228 1_555
Na0 O67 2.532602 1_545
Na0 O16 2.661372 1_555
Na0 O66 2.738959 1_545
Na0 O2 2.809508 1_555
Na0 O31 2.826832 1_545
Na0 O9 2.928683 1_545
Na1 O51 2.421890 1_555
Na1 O68 2.504639 1_555
Na1 O17 2.514838 1_555
Na1 O53 2.543117 1_555
Na1 O67 2.680611 1_555
Na1 O32 2.899792 1_555
Na1 O0 2.930800 1_555
Na1 O10 2.977228 1_555
Na2 O52 2.426842 1_555
Na2 O51 2.484175 1_555
Na2 O66 2.524125 1_655
Na2 O15 2.592246 1_555
Na2 O68 2.707808 1_655
Na2 O30 2.842439 1_655
Na2 O1 2.907839 1_555
Na2 O11 2.963426 1_655
Na3 O49 2.415920 1_555
Na3 O50 2.501791 1_555
Na3 O71 2.502105 1_555
Na3 O14 2.573877 1_555
Na3 O69 2.675521 1_555
Na3 O35 2.845629 1_555
Na3 O4 2.950271 1_555
Na3 O6 2.973312 1_555
Na4 O50 2.428369 1_555
Na4 O48 2.496245 1_555
Na4 O69 2.543276 1_655
Na4 O12 2.568442 1_555
Na4 O70 2.729502 1_655
Na4 O5 2.840297 1_555
Na4 O33 2.861258 1_655
Na4 O7 2.952434 1_655
Na5 O48 2.403327 1_555
Na5 O49 2.479161 1_555
Na5 O70 2.530315 1_545
Na5 O13 2.578194 1_555
Na5 O71 2.721594 1_545
Na5 O34 2.855945 1_545
Na5 O3 2.894757 1_555
Na5 O8 2.966205 1_545
Na6 O65 2.416911 1_555
Na6 O64 2.483653 1_555
Na6 O43 2.494363 1_555
Na6 O28 2.640746 1_555
Na6 O42 2.708174 1_455
Na6 O7 2.819464 1_555
Na6 O14 2.906093 1_555
Na6 O21 2.953235 1_555
Na7 O63 2.419400 1_555
Na7 O44 2.504164 1_455
Na7 O65 2.534469 1_555
Na7 O29 2.571480 1_555
Na7 O43 2.692916 1_565
Na7 O8 2.857861 1_555
Na7 O12 2.922105 1_455
Na7 O22 2.976133 1_455
Na8 O64 2.440135 1_555
Na8 O63 2.498536 1_555
Na8 O42 2.516189 1_565
Na8 O27 2.574687 1_555
Na8 O44 2.689194 1_555
Na8 O6 2.805626 1_555
Na8 O13 2.930365 1_565
Na8 O23 2.952752 1_565
Na9 O61 2.391658 1_555
Na9 O62 2.486139 1_555
Na9 O47 2.492356 1_565
Na9 O26 2.554801 1_554
Na9 O45 2.615301 1_455
Na9 O11 2.869228 1_555
Na9 O18 2.952471 1_565
Na9 O16 3.005491 1_565
Na10 O60 2.357125 1_555
Na10 O46 2.494179 1_455
Na10 O61 2.523204 1_555
Na10 O25 2.579379 1_554
Na10 O47 2.666697 1_555
Na10 O10 2.784841 1_555
Na10 O15 2.884019 1_455
Na10 O20 2.976254 1_455
Na11 O41 2.394839 1_555
Na11 O40 2.443823 1_655
Na11 O55 2.477784 1_555
Na11 O4 2.577491 1_555
Na11 O54 2.751648 1_555
Na11 O19 2.842677 1_556
Na11 O26 2.943918 1_655
Na11 O33 2.956132 1_655
Na12 O39 2.401944 1_555
Na12 O40 2.458603 1_545
Na12 O54 2.508180 1_555
Na12 O3 2.584707 1_555
Na12 O56 2.611579 1_555
Na12 O18 2.858238 1_556
Na12 O25 2.942410 1_555
Na12 O35 2.985160 1_555
Na13 O38 2.403247 1_555
Na13 O57 2.448730 1_555
Na13 O36 2.449601 1_545
Na13 O0 2.582189 1_555
Na13 O58 2.735054 1_555
Na13 O21 2.837783 1_555
Na13 O29 2.930739 1_545
Na13 O31 2.970305 1_545
Na14 O37 2.416398 1_555
Na14 O36 2.459829 1_655
Na14 O58 2.497738 1_555
Na14 O1 2.567921 1_555
Na14 O59 2.588211 1_555
Na14 O22 2.835052 1_555
Na14 O27 2.949003 1_555
Na14 O32 2.996220 1_555
Na15 O37 2.448456 1_545
Na15 O36 2.530914 1_645
Na15 O38 2.581216 1_655
Na15 O42 2.623369 1_555
Na15 O44 2.658376 1_545
Na15 O43 2.685218 1_655
Na16 O39 2.477163 1_665
Na16 O40 2.564954 1_655
Na16 O41 2.572914 1_555
Na16 O46 2.636206 1_566
Na16 O45 2.645387 1_556
Na16 O47 2.666176 1_666
Na17 O48 2.481513 1_555
Na17 O50 2.543638 1_555
Na17 O49 2.547255 1_555
Na17 O56 2.622304 1_555
Na17 O55 2.628537 1_555
Na17 O54 2.736103 1_555
Na18 O52 2.510302 1_555
Na18 O51 2.545110 1_555
Na18 O53 2.586633 1_555
Na18 O59 2.597193 1_555
Na18 O57 2.610130 1_555
Na18 O58 2.695207 1_555
Na19 O60 2.423237 1_555
Na19 O61 2.540674 1_555
Na19 O62 2.631751 1_555
Na19 O67 2.654556 1_555
Na19 O68 2.669810 1_555
Na19 O66 2.727623 1_555
Na20 O63 2.500303 1_555
Na20 O64 2.515116 1_555
Na20 O65 2.538735 1_555
Na20 O71 2.664994 1_555
Na20 O69 2.669737 1_555
Na20 O70 2.673472 1_555
In0 O2 2.040032 1_555
In0 O1 2.094660 1_545
In0 O0 2.102256 1_655
In0 O37 2.139198 1_545
In0 O36 2.178039 1_645
In0 O38 2.243089 1_655
In1 O5 2.042742 1_555
In1 O3 2.092207 1_655
In1 O4 2.093947 1_545
In1 O39 2.134858 1_655
In1 O40 2.186056 1_645
In1 O41 2.241980 1_545
In2 O14 2.077212 1_555
In2 O13 2.080916 1_555
In2 O12 2.088346 1_555
In2 O48 2.171562 1_555
In2 O49 2.173718 1_555
In2 O50 2.187497 1_555
In3 O17 2.058044 1_555
In3 O15 2.066364 1_555
In3 O51 2.159143 1_555
In3 O16 2.159296 1_555
In3 O52 2.164512 1_555
In3 O53 2.181783 1_555
In4 O26 2.072044 1_554
In4 O25 2.076968 1_554
In4 O24 2.096548 1_554
In4 O60 2.135840 1_555
In4 O61 2.181612 1_555
In4 O62 2.220344 1_555
In5 O29 2.062139 1_555
In5 O27 2.066514 1_555
In5 O28 2.136756 1_555
In5 O65 2.159906 1_555
In5 O64 2.165332 1_555
In5 O63 2.176608 1_555
O0 Si0 1.595473 1_555
O1 Si1 1.596351 1_555
O2 Si2 1.582772 1_655
O3 Si3 1.594332 1_555
O4 Si4 1.593738 1_655
O5 Si5 1.578813 1_545
O6 Si5 1.697053 1_555
O6 Ta0 1.969509 1_555
O7 Si3 1.697277 1_555
O7 Ta0 1.984614 1_445
O8 Si4 1.687240 1_555
O8 Ta0 1.977596 1_455
O9 Si1 1.687864 1_555
O9 Ta1 1.958019 1_655
O10 Si2 1.688578 1_555
O10 Ta1 1.989943 1_545
O11 Si0 1.690504 1_565
O11 Ta1 1.955728 1_555
O12 Si6 1.598759 1_555
O13 Si7 1.600677 1_555
O14 Si8 1.601164 1_555
O15 Si9 1.604720 1_555
O16 P0 1.527062 1_555
O17 Si10 1.595109 1_555
O18 Si10 1.693190 1_555
O18 Ta2 1.974052 1_554
O19 Si9 1.685623 1_555
O19 Ta2 1.966816 1_554
O20 P0 1.595697 1_555
O20 Ta2 2.009641 1_554
O21 Si7 1.685627 1_555
O21 Ta3 1.997659 1_555
O22 Si8 1.683422 1_555
O22 Ta3 1.991878 1_555
O23 Si6 1.693672 1_555
O23 Ta3 1.913029 1_555
O24 P1 1.501402 1_555
O25 Si11 1.601321 1_555
O26 Si12 1.597716 1_555
O27 Si13 1.605576 1_555
O28 P2 1.518533 1_555
O29 Si14 1.600045 1_555
O30 Si14 1.688707 1_555
O30 Ta4 1.945752 1_555
O31 Si13 1.705477 1_555
O31 Ta4 1.970020 1_555
O32 P2 1.588448 1_555
O32 Ta4 2.079781 1_555
O33 Si11 1.708223 1_555
O33 Ta5 1.963737 1_555
O34 Si12 1.694093 1_555
O34 Ta5 1.944576 1_555
O35 P1 1.588789 1_555
O35 Ta5 2.095000 1_555
O36 Si14 1.618877 1_555
O37 Si13 1.602138 1_555
O38 P2 1.522203 1_555
O39 Si11 1.602994 1_555
O40 Si12 1.620267 1_555
O41 P1 1.521672 1_555
O42 Si6 1.664069 1_555
O42 Ta0 2.047660 1_545
O43 Si7 1.675138 1_555
O43 Ta0 2.046808 1_445
O44 Si8 1.676072 1_555
O44 Ta0 2.053434 1_555
O45 Si9 1.673768 1_555
O45 Ta1 2.004253 1_655
O46 P0 1.565374 1_555
O46 Ta1 2.170419 1_645
O47 Si10 1.697896 1_555
O47 Ta1 2.049453 1_545
O48 Si5 1.614174 1_545
O49 Si3 1.613649 1_555
O50 Si4 1.610569 1_655
O51 Si1 1.615387 1_555
O52 Si2 1.617467 1_655
O53 Si0 1.610329 1_555
O54 P1 1.602732 1_555
O54 Ta2 2.118893 1_555
O55 Si11 1.678591 1_655
O55 Ta2 2.026652 1_555
O56 Si12 1.674646 1_545
O56 Ta2 2.006480 1_555
O57 Si13 1.678690 1_545
O57 Ta3 2.028072 1_555
O58 P2 1.584748 1_555
O58 Ta3 2.194428 1_555
O59 Si14 1.672745 1_655
O59 Ta3 2.005298 1_555
O60 Si10 1.609882 1_555
O61 Si9 1.624739 1_455
O62 P0 1.518850 1_565
O63 Si7 1.616489 1_565
O64 Si8 1.615995 1_555
O65 Si6 1.611107 1_455
O66 Si0 1.683226 1_565
O66 Ta4 2.000517 1_555
O67 Si1 1.677086 1_555
O67 Ta4 2.049112 1_555
O68 Si2 1.683088 1_555
O68 Ta4 2.039690 1_555
O69 Si3 1.676831 1_555
O69 Ta5 2.052758 1_555
O70 Si4 1.686496 1_555
O70 Ta5 1.998845 1_555
O71 Si5 1.678443 1_555
O71 Ta5 2.039045 1_555
