# generated using pymatgen
data_GaAs
_symmetry_space_group_name_H-M   'P 1'
_cell_length_a   3.92621657
_cell_length_b   3.92621657
_cell_length_c   3.92621657
_cell_angle_alpha   136.54380354
_cell_angle_beta   98.05688908
_cell_angle_gamma   97.69752118
_symmetry_Int_Tables_number   1
_chemical_formula_structural   GaAs
_chemical_formula_sum   'Ga1 As1'
_cell_volume   38.67006147
_cell_formula_units_Z   1
loop_
 _symmetry_equiv_pos_site_id
 _symmetry_equiv_pos_as_xyz
  1  'x, y, z'
loop_
 _atom_site_type_symbol
 _atom_site_label
 _atom_site_symmetry_multiplicity
 _atom_site_fract_x
 _atom_site_fract_y
 _atom_site_fract_z
 _atom_site_occupancy
  Ga  Ga0  1  0.50000000  0.64939059  0.14939059  1
  As  As0  1  0.00000000  0.90508841  0.90508841  1
loop_
_geom_bond_atom_site_label_1
_geom_bond_atom_site_label_2
_geom_bond_distance
_geom_bond_site_symmetry_2
As0 Ga0 2.679472 1_456
As0 Ga0 2.679472 1_566
As0 Ga0 2.679521 1_556
As0 Ga0 2.679521 1_455
