# generated using pymatgen
data_Nb6C5
_symmetry_space_group_name_H-M   'P 1'
_cell_length_a   5.52103519
_cell_length_b   5.51040849
_cell_length_c   5.50989582
_cell_angle_alpha   80.29284112
_cell_angle_beta   70.33159791
_cell_angle_gamma   59.93618586
_symmetry_Int_Tables_number   1
_chemical_formula_structural   Nb6C5
_chemical_formula_sum   'Nb6 C5'
_cell_volume   136.61271505
_cell_formula_units_Z   1
loop_
 _symmetry_equiv_pos_site_id
 _symmetry_equiv_pos_as_xyz
  1  'x, y, z'
loop_
 _atom_site_type_symbol
 _atom_site_label
 _atom_site_symmetry_multiplicity
 _atom_site_fract_x
 _atom_site_fract_y
 _atom_site_fract_z
 _atom_site_occupancy
  Nb  Nb0  1  0.73549272  0.00000000  0.73564776  1
  Nb  Nb1  1  0.26450728  -0.00000000  0.26435224  1
  Nb  Nb2  1  0.43619653  0.64671480  0.74668305  1
  Nb  Nb3  1  0.91708867  0.64671480  0.25331595  1
  Nb  Nb4  1  0.56380347  0.35328520  0.25331595  1
  Nb  Nb5  1  0.08291133  0.35328520  0.74668305  1
  C  C0  1  0.50000000  -0.00000000  0.50000000  1
  C  C1  1  0.33519673  0.32960554  -0.00000000  1
  C  C2  1  0.66480327  0.67039446  0.00000000  1
  C  C3  1  0.16684861  0.66630379  0.50000000  1
  C  C4  1  0.83315139  0.33369621  0.50000000  1
loop_
_geom_bond_atom_site_label_1
_geom_bond_atom_site_label_2
_geom_bond_distance
_geom_bond_site_symmetry_2
C0 Nb0 2.124293 1_555
C0 Nb1 2.124293 1_555
C0 Nb5 2.287752 1_555
C0 Nb2 2.287752 1_545
C0 Nb3 2.287754 1_545
C0 Nb4 2.287754 1_555
C1 Nb3 2.223137 1_455
C1 Nb2 2.223142 1_554
C1 Nb4 2.229442 1_555
C1 Nb5 2.229442 1_554
C1 Nb1 2.237879 1_555
C1 Nb0 2.237881 1_554
C2 Nb5 2.223139 1_654
C2 Nb4 2.223139 1_555
C2 Nb3 2.229438 1_555
C2 Nb2 2.229447 1_554
C2 Nb0 2.237879 1_564
C2 Nb1 2.237881 1_565
C3 Nb5 2.150254 1_555
C3 Nb4 2.150254 1_555
C3 Nb1 2.252713 1_565
C3 Nb0 2.252715 1_465
C3 Nb2 2.284900 1_555
C3 Nb3 2.284909 1_455
C4 Nb2 2.150252 1_555
C4 Nb3 2.150257 1_555
C4 Nb0 2.252713 1_555
C4 Nb1 2.252715 1_655
C4 Nb4 2.284904 1_555
C4 Nb5 2.284905 1_655
