# generated using pymatgen
data_Na2SiGe2(PO6)2
_symmetry_space_group_name_H-M   'P 1'
_cell_length_a   8.51361240
_cell_length_b   8.51361214
_cell_length_c   21.69636202
_cell_angle_alpha   89.97449107
_cell_angle_beta   90.02550891
_cell_angle_gamma   119.77787822
_symmetry_Int_Tables_number   1
_chemical_formula_structural   Na2SiGe2(PO6)2
_chemical_formula_sum   'Na12 Si6 Ge12 P12 O72'
_cell_volume   1364.93805094
_cell_formula_units_Z   6
loop_
 _symmetry_equiv_pos_site_id
 _symmetry_equiv_pos_as_xyz
  1  'x, y, z'
loop_
 _atom_site_type_symbol
 _atom_site_label
 _atom_site_symmetry_multiplicity
 _atom_site_fract_x
 _atom_site_fract_y
 _atom_site_fract_z
 _atom_site_occupancy
  Na  Na0  1  0.00027430  0.63324055  0.25018881  1
  Na  Na1  1  0.36675945  0.99972570  0.75018881  1
  Na  Na2  1  0.66584172  0.96798710  0.58433312  1
  Na  Na3  1  0.03201290  0.33415828  0.08433312  1
  Na  Na4  1  0.96992298  0.66822777  0.91761069  1
  Na  Na5  1  0.33177223  0.03007702  0.41761069  1
  Na  Na6  1  0.00102360  0.99882111  0.50010478  1
  Na  Na7  1  0.00117889  0.99897640  0.00010478  1
  Na  Na8  1  0.66603921  0.33080258  0.83345492  1
  Na  Na9  1  0.66919742  0.33396079  0.33345492  1
  Na  Na10  1  0.34285020  0.67159966  0.16671400  1
  Na  Na11  1  0.32840034  0.65714980  0.66671400  1
  Si  Si0  1  0.99981363  0.28247062  0.24982673  1
  Si  Si1  1  0.71752938  0.00018637  0.74982673  1
  Si  Si2  1  0.37388443  0.04699592  0.58283722  1
  Si  Si3  1  0.95300408  0.62611557  0.08283722  1
  Si  Si4  1  0.33894638  0.96193028  0.91617796  1
  Si  Si5  1  0.03806972  0.66105362  0.41617796  1
  Ge  Ge0  1  0.99373424  0.99803299  0.35350335  1
  Ge  Ge1  1  0.00196701  0.00626576  0.85350335  1
  Ge  Ge2  1  0.00385553  0.00054884  0.64719742  1
  Ge  Ge3  1  0.99945116  0.99614447  0.14719742  1
  Ge  Ge4  1  0.66981330  0.33081466  0.68639519  1
  Ge  Ge5  1  0.66918534  0.33018670  0.18639519  1
  Ge  Ge6  1  0.66125831  0.33053353  0.98052877  1
  Ge  Ge7  1  0.66946647  0.33874169  0.48052877  1
  Ge  Ge8  1  0.33159939  0.67365476  0.01986657  1
  Ge  Ge9  1  0.32634524  0.66840061  0.51986657  1
  Ge  Ge10  1  0.32787863  0.65786312  0.31347496  1
  Ge  Ge11  1  0.34213688  0.67212137  0.81347496  1
  P  P0  1  0.29340665  0.00591402  0.25020303  1
  P  P1  1  0.70746987  0.71299757  0.25013184  1
  P  P2  1  0.28700243  0.29253013  0.75013184  1
  P  P3  1  0.99408598  0.70659335  0.75020303  1
  P  P4  1  0.95760232  0.33748583  0.58331722  1
  P  P5  1  0.66599307  0.61715968  0.58376255  1
  P  P6  1  0.66251417  0.04239768  0.08331722  1
  P  P7  1  0.38284032  0.33400693  0.08376255  1
  P  P8  1  0.61747694  0.66670281  0.91719445  1
  P  P9  1  0.04848291  0.37731637  0.91652584  1
  P  P10  1  0.62268363  0.95151709  0.41652584  1
  P  P11  1  0.33329719  0.38252306  0.41719445  1
  O  O0  1  0.21148211  0.03754805  0.30929261  1
  O  O1  1  0.83386444  0.78940871  0.30698575  1
  O  O2  1  0.96139252  0.15826724  0.31041376  1
  O  O3  1  0.21059129  0.16613556  0.80698575  1
  O  O4  1  0.96245195  0.78851789  0.80929261  1
  O  O5  1  0.84173276  0.03860748  0.81041376  1
  O  O6  1  0.80007359  0.96320410  0.68707885  1
  O  O7  1  0.16992003  0.20878092  0.69230614  1
  O  O8  1  0.04318563  0.83461455  0.69376254  1
  O  O9  1  0.79121908  0.83007997  0.19230614  1
  O  O10  1  0.03679590  0.19992641  0.18707885  1
  O  O11  1  0.16538545  0.95681437  0.19376254  1
  O  O12  1  0.87731154  0.37517530  0.64111434  1
  O  O13  1  0.50472170  0.12905134  0.64346973  1
  O  O14  1  0.63114914  0.50073247  0.64164385  1
  O  O15  1  0.87094866  0.49527830  0.14346973  1
  O  O16  1  0.62482470  0.12268846  0.14111434  1
  O  O17  1  0.49926753  0.36885086  0.14164385  1
  O  O18  1  0.46057572  0.29506200  0.02557992  1
  O  O19  1  0.83192976  0.53526627  0.02096953  1
  O  O20  1  0.70793410  0.16725312  0.02639109  1
  O  O21  1  0.46473373  0.16807024  0.52096953  1
  O  O22  1  0.70493800  0.53942428  0.52557992  1
  O  O23  1  0.83274688  0.29206590  0.52639109  1
  O  O24  1  0.53500772  0.70154292  0.97521764  1
  O  O25  1  0.16244951  0.45606908  0.97607705  1
  O  O26  1  0.28619374  0.82560777  0.97502404  1
  O  O27  1  0.54393092  0.83755049  0.47607705  1
  O  O28  1  0.29845708  0.46499228  0.47521764  1
  O  O29  1  0.17439223  0.71380626  0.47502404  1
  O  O30  1  0.12747813  0.62988097  0.35418387  1
  O  O31  1  0.49730557  0.86918670  0.35988707  1
  O  O32  1  0.37337065  0.49954586  0.35899507  1
  O  O33  1  0.13081330  0.50269443  0.85988707  1
  O  O34  1  0.37011903  0.87252187  0.85418387  1
  O  O35  1  0.50045414  0.62662935  0.85899507  1
  O  O36  1  0.02716158  0.84824707  0.40800934  1
  O  O37  1  0.81100484  0.97143963  0.41061377  1
  O  O38  1  0.16609009  0.19084111  0.41084715  1
  O  O39  1  0.02856037  0.18899516  0.91061377  1
  O  O40  1  0.15175293  0.97283842  0.90800934  1
  O  O41  1  0.80915889  0.83390991  0.91084715  1
  O  O42  1  0.97091041  0.16321211  0.58962855  1
  O  O43  1  0.17473740  0.02446431  0.59121078  1
  O  O44  1  0.83268737  0.81001936  0.58942325  1
  O  O45  1  0.97553569  0.82526260  0.09121078  1
  O  O46  1  0.83678789  0.02908959  0.08962855  1
  O  O47  1  0.18998064  0.16731263  0.08942325  1
  O  O48  1  0.68872255  0.17714049  0.74359512  1
  O  O49  1  0.47619297  0.30981466  0.74309550  1
  O  O50  1  0.82441246  0.52160357  0.74221651  1
  O  O51  1  0.69018534  0.52380703  0.24309550  1
  O  O52  1  0.82285951  0.31127745  0.24359512  1
  O  O53  1  0.47839643  0.17558754  0.24221651  1
  O  O54  1  0.64404613  0.49974902  0.92276189  1
  O  O55  1  0.86054893  0.36345781  0.92279322  1
  O  O56  1  0.51665178  0.15870377  0.92456245  1
  O  O57  1  0.63654219  0.13945107  0.42279322  1
  O  O58  1  0.50025098  0.35595387  0.42276189  1
  O  O59  1  0.84129623  0.48334822  0.42456245  1
  O  O60  1  0.35948652  0.50311501  0.07641246  1
  O  O61  1  0.15100808  0.63619996  0.07660610  1
  O  O62  1  0.49615308  0.85274925  0.07624323  1
  O  O63  1  0.36380004  0.84899192  0.57660610  1
  O  O64  1  0.49688499  0.64051348  0.57641246  1
  O  O65  1  0.14725075  0.50384692  0.57624323  1
  O  O66  1  0.31130584  0.83373880  0.25652338  1
  O  O67  1  0.52133921  0.69747667  0.25822815  1
  O  O68  1  0.17699116  0.48739388  0.25548685  1
  O  O69  1  0.30252333  0.47866079  0.75822815  1
  O  O70  1  0.16626120  0.68869416  0.75652338  1
  O  O71  1  0.51260612  0.82300884  0.75548685  1
loop_
_geom_bond_atom_site_label_1
_geom_bond_atom_site_label_2
_geom_bond_distance
_geom_bond_site_symmetry_2
Na0 O51 2.327635 1_455
Na0 O66 2.335542 1_555
Na0 O68 2.381969 1_555
Na0 O52 2.388121 1_455
Na0 O30 2.508609 1_555
Na0 O15 2.582368 1_455
Na0 O1 2.677204 1_455
Na0 O11 2.686216 1_555
Na1 O49 2.327634 1_565
Na1 O70 2.335542 1_555
Na1 O71 2.381969 1_555
Na1 O48 2.388121 1_565
Na1 O34 2.508609 1_555
Na1 O13 2.582368 1_565
Na1 O3 2.677204 1_565
Na1 O8 2.686216 1_555
Na2 O63 2.253675 1_555
Na2 O42 2.287673 1_565
Na2 O44 2.394957 1_555
Na2 O64 2.426584 1_555
Na2 O6 2.514138 1_555
Na2 O27 2.585040 1_555
Na2 O13 2.698063 1_565
Na2 O23 2.704875 1_565
Na3 O61 2.253675 1_555
Na3 O46 2.287673 1_455
Na3 O47 2.394957 1_555
Na3 O60 2.426584 1_555
Na3 O10 2.514138 1_555
Na3 O25 2.585040 1_554
Na3 O15 2.698063 1_455
Na3 O20 2.704875 1_455
Na4 O40 2.275394 1_655
Na4 O55 2.283009 1_555
Na4 O41 2.408682 1_555
Na4 O54 2.411333 1_555
Na4 O19 2.523805 1_556
Na4 O4 2.576483 1_555
Na4 O26 2.648030 1_655
Na4 O33 2.711331 1_655
Na5 O36 2.275394 1_545
Na5 O57 2.283009 1_555
Na5 O38 2.408682 1_555
Na5 O58 2.411333 1_555
Na5 O21 2.523805 1_555
Na5 O0 2.576483 1_555
Na5 O29 2.648030 1_545
Na5 O31 2.711331 1_545
Na6 O43 2.412301 1_565
Na6 O36 2.443652 1_555
Na6 O37 2.462598 1_455
Na6 O44 2.470742 1_455
Na6 O38 2.472928 1_565
Na6 O42 2.481218 1_465
Na7 O45 2.412301 1_455
Na7 O40 2.443652 1_554
Na7 O39 2.462598 1_564
Na7 O47 2.470742 1_565
Na7 O41 2.472928 1_454
Na7 O46 2.481218 1_465
Na8 O48 2.409012 1_555
Na8 O56 2.412547 1_555
Na8 O55 2.473249 1_555
Na8 O54 2.475609 1_555
Na8 O49 2.489650 1_555
Na8 O50 2.489834 1_555
Na9 O52 2.409012 1_555
Na9 O59 2.412547 1_555
Na9 O57 2.473249 1_555
Na9 O58 2.475609 1_555
Na9 O51 2.489650 1_555
Na9 O53 2.489834 1_555
Na10 O62 2.436209 1_555
Na10 O68 2.441956 1_555
Na10 O67 2.442368 1_555
Na10 O61 2.467637 1_555
Na10 O60 2.473999 1_555
Na10 O66 2.479007 1_555
Na11 O65 2.436209 1_555
Na11 O71 2.441956 1_555
Na11 O69 2.442368 1_555
Na11 O63 2.467637 1_555
Na11 O64 2.473999 1_555
Na11 O70 2.479007 1_555
Ge0 O2 1.783963 1_565
Ge0 O36 1.861317 1_655
Ge0 O1 1.903939 1_555
Ge0 O37 1.912689 1_555
Ge0 O0 1.962587 1_665
Ge0 O38 2.000824 1_665
Ge1 O5 1.783963 1_455
Ge1 O40 1.861318 1_545
Ge1 O3 1.903939 1_555
Ge1 O39 1.912689 1_555
Ge1 O4 1.962587 1_445
Ge1 O41 2.000824 1_445
Ge2 O6 1.820151 1_445
Ge2 O43 1.827733 1_555
Ge2 O8 1.896526 1_545
Ge2 O7 1.900078 1_555
Ge2 O42 1.985078 1_455
Ge2 O44 1.994566 1_445
Ge3 O10 1.820151 1_665
Ge3 O45 1.827733 1_555
Ge3 O11 1.896526 1_655
Ge3 O9 1.900078 1_555
Ge3 O46 1.985078 1_565
Ge3 O47 1.994566 1_665
Ge4 O13 1.842730 1_555
Ge4 O48 1.866912 1_555
Ge4 O12 1.888666 1_555
Ge4 O14 1.901374 1_555
Ge4 O50 1.927264 1_555
Ge4 O49 1.992853 1_555
Ge5 O15 1.842730 1_555
Ge5 O52 1.866913 1_555
Ge5 O16 1.888666 1_555
Ge5 O17 1.901374 1_555
Ge5 O53 1.927264 1_555
Ge5 O51 1.992853 1_555
Ge6 O56 1.827981 1_555
Ge6 O19 1.844955 1_556
Ge6 O18 1.858606 1_556
Ge6 O20 1.904606 1_556
Ge6 O54 1.968669 1_555
Ge6 O55 2.013859 1_555
Ge7 O59 1.827981 1_555
Ge7 O21 1.844955 1_555
Ge7 O22 1.858606 1_555
Ge7 O23 1.904606 1_555
Ge7 O58 1.968669 1_555
Ge7 O57 2.013859 1_555
Ge8 O26 1.806892 1_554
Ge8 O61 1.869590 1_555
Ge8 O24 1.893832 1_554
Ge8 O62 1.913646 1_555
Ge8 O25 1.938716 1_554
Ge8 O60 2.002522 1_555
Ge9 O29 1.806892 1_555
Ge9 O63 1.869590 1_555
Ge9 O28 1.893832 1_555
Ge9 O65 1.913646 1_555
Ge9 O27 1.938716 1_555
Ge9 O64 2.002522 1_555
Ge10 O30 1.828984 1_555
Ge10 O32 1.859863 1_555
Ge10 O68 1.867553 1_555
Ge10 O67 1.926899 1_555
Ge10 O31 1.937554 1_555
Ge10 O66 1.999195 1_555
Ge11 O34 1.828984 1_555
Ge11 O35 1.859863 1_555
Ge11 O71 1.867553 1_555
Ge11 O69 1.926899 1_555
Ge11 O33 1.937554 1_555
Ge11 O70 1.999195 1_555
O0 P0 1.546055 1_555
O1 P1 1.551427 1_555
O2 Si0 1.615139 1_555
O3 P2 1.551427 1_555
O4 P3 1.546055 1_555
O5 Si1 1.615140 1_555
O6 Si1 1.633221 1_565
O7 P2 1.539402 1_555
O8 P3 1.552071 1_455
O9 P1 1.539402 1_555
O10 Si0 1.633221 1_455
O11 P0 1.552071 1_565
O12 P4 1.536779 1_555
O13 Si2 1.638882 1_555
O14 P5 1.534515 1_555
O15 Si3 1.638882 1_555
O16 P6 1.536779 1_555
O17 P7 1.534515 1_555
O18 P7 1.536401 1_555
O19 Si3 1.634108 1_555
O20 P6 1.547858 1_555
O21 Si2 1.634108 1_555
O22 P5 1.536401 1_555
O23 P4 1.547858 1_555
O24 P8 1.540690 1_555
O25 P9 1.553648 1_555
O26 Si4 1.631019 1_555
O27 P10 1.553648 1_555
O28 P11 1.540690 1_555
O29 Si5 1.631019 1_555
O30 Si5 1.631219 1_555
O31 P10 1.548294 1_555
O32 P11 1.537881 1_555
O33 P9 1.548294 1_555
O34 Si4 1.631219 1_555
O35 P8 1.537881 1_555
O36 Si5 1.651252 1_555
O37 P10 1.531609 1_555
O38 P11 1.549549 1_555
O39 P9 1.531609 1_555
O40 Si4 1.651252 1_555
O41 P8 1.549549 1_555
O42 P4 1.549106 1_555
O43 Si2 1.619132 1_555
O44 P5 1.552603 1_555
O45 Si3 1.619131 1_555
O46 P6 1.549106 1_555
O47 P7 1.552604 1_555
O48 Si1 1.647667 1_555
O49 P2 1.550507 1_555
O50 P3 1.528851 1_555
O51 P1 1.550507 1_555
O52 Si0 1.647667 1_555
O53 P0 1.528851 1_555
O54 P8 1.550889 1_555
O55 P9 1.550830 1_655
O56 Si4 1.615867 1_545
O57 P10 1.550830 1_545
O58 P11 1.550889 1_555
O59 Si5 1.615867 1_655
O60 P7 1.556231 1_555
O61 Si3 1.650385 1_455
O62 P6 1.537877 1_565
O63 Si2 1.650385 1_565
O64 P5 1.556231 1_555
O65 P4 1.537877 1_455
O66 P0 1.553180 1_565
O67 P1 1.533511 1_555
O68 Si0 1.649316 1_455
O69 P2 1.533511 1_555
O70 P3 1.553180 1_455
O71 Si1 1.649316 1_565
