# generated using pymatgen
data_Na4CaSi3Sn3(SO8)3
_symmetry_space_group_name_H-M   'P 1'
_cell_length_a   9.04127519
_cell_length_b   9.04114144
_cell_length_c   23.16199324
_cell_angle_alpha   89.64760361
_cell_angle_beta   90.71595215
_cell_angle_gamma   119.88610326
_symmetry_Int_Tables_number   1
_chemical_formula_structural   Na4CaSi3Sn3(SO8)3
_chemical_formula_sum   'Na12 Ca3 Si9 Sn9 S9 O72'
_cell_volume   1641.43202034
_cell_formula_units_Z   3
loop_
 _symmetry_equiv_pos_site_id
 _symmetry_equiv_pos_as_xyz
  1  'x, y, z'
loop_
 _atom_site_type_symbol
 _atom_site_label
 _atom_site_symmetry_multiplicity
 _atom_site_fract_x
 _atom_site_fract_y
 _atom_site_fract_z
 _atom_site_occupancy
  Na  Na0  1  0.63199945  0.00135072  0.24350036  1
  Na  Na1  1  0.37832677  0.35988836  0.25227492  1
  Na  Na2  1  0.98758974  0.64183672  0.24917113  1
  Na  Na3  1  0.99256589  0.35332220  0.75567819  1
  Na  Na4  1  0.38167320  0.01414667  0.75737582  1
  Na  Na5  1  0.70115459  0.67860801  0.40853047  1
  Na  Na6  1  0.00631048  0.02108250  0.49246820  1
  Na  Na7  1  0.00400109  0.01094434  0.99895761  1
  Na  Na8  1  0.65738069  0.32366298  0.83517295  1
  Na  Na9  1  0.64782046  0.32114284  0.32982213  1
  Na  Na10  1  0.35023465  0.68465202  0.16241835  1
  Na  Na11  1  0.35122861  0.66419672  0.67140227  1
  Ca  Ca0  1  0.00693012  0.01021173  0.35507759  1
  Ca  Ca1  1  0.66116597  0.33078453  0.68595123  1
  Ca  Ca2  1  0.65839364  0.32270375  0.17783772  1
  Si  Si0  1  0.28960288  0.99586177  0.24993371  1
  Si  Si1  1  0.70413048  0.70174400  0.25298079  1
  Si  Si2  1  0.29340696  0.29793244  0.75211794  1
  Si  Si3  1  0.70480637  0.98882240  0.75361128  1
  Si  Si4  1  0.66601016  0.02418578  0.08481157  1
  Si  Si5  1  0.04476687  0.38421949  0.91767904  1
  Si  Si6  1  0.32840821  0.95862043  0.91453167  1
  Si  Si7  1  0.62665754  0.96232726  0.41946596  1
  Si  Si8  1  0.33130418  0.37584852  0.41898304  1
  Sn  Sn0  1  0.01421682  0.02664491  0.85772190  1
  Sn  Sn1  1  0.99118917  0.00788840  0.65472474  1
  Sn  Sn2  1  0.98478454  0.98457990  0.14853502  1
  Sn  Sn3  1  0.66940351  0.30910539  0.97904820  1
  Sn  Sn4  1  0.65330683  0.32101449  0.47846106  1
  Sn  Sn5  1  0.33230705  0.67543693  0.01515401  1
  Sn  Sn6  1  0.33766815  0.66517540  0.51457534  1
  Sn  Sn7  1  0.35352180  0.68142644  0.31516694  1
  Sn  Sn8  1  0.34059236  0.66683069  0.81904163  1
  S  S0  1  0.00567163  0.29862187  0.24958585  1
  S  S1  1  0.00307515  0.71497467  0.75178690  1
  S  S2  1  0.96862562  0.33829547  0.58201994  1
  S  S3  1  0.36051595  0.02637857  0.58283984  1
  S  S4  1  0.66946293  0.63573496  0.58198413  1
  S  S5  1  0.96412360  0.62943417  0.08120423  1
  S  S6  1  0.36583468  0.33409540  0.08079762  1
  S  S7  1  0.63034085  0.66426884  0.91849414  1
  S  S8  1  0.04100896  0.66088752  0.41838870  1
  O  O0  1  0.21337422  0.04012371  0.30349346  1
  O  O1  1  0.81007302  0.77818387  0.31138007  1
  O  O2  1  0.97342602  0.19458194  0.30080219  1
  O  O3  1  0.20355716  0.16368241  0.80450172  1
  O  O4  1  0.97834596  0.79478178  0.80218874  1
  O  O5  1  0.83259128  0.01894630  0.80747201  1
  O  O6  1  0.77523393  0.94877032  0.69237749  1
  O  O7  1  0.16906303  0.22045040  0.69199351  1
  O  O8  1  0.03428160  0.82108743  0.69689079  1
  O  O9  1  0.78428997  0.83092297  0.19622998  1
  O  O10  1  0.04014134  0.22374795  0.19738472  1
  O  O11  1  0.16466336  0.95672134  0.19080174  1
  O  O12  1  0.89843921  0.36283078  0.63493138  1
  O  O13  1  0.46307070  0.09653579  0.63506073  1
  O  O14  1  0.64493377  0.53242384  0.63265371  1
  O  O15  1  0.89721257  0.53872808  0.13556537  1
  O  O16  1  0.62985576  0.08524424  0.14462014  1
  O  O17  1  0.46101449  0.36424900  0.13519351  1
  O  O18  1  0.45452095  0.31138133  0.03033119  1
  O  O19  1  0.85019789  0.54422790  0.03038358  1
  O  O20  1  0.70291602  0.15210424  0.02877073  1
  O  O21  1  0.44278992  0.13706845  0.53113242  1
  O  O22  1  0.69220096  0.55623586  0.52824270  1
  O  O23  1  0.85798959  0.31415419  0.53008629  1
  O  O24  1  0.55140291  0.69570428  0.96884832  1
  O  O25  1  0.16932805  0.46849774  0.97331900  1
  O  O26  1  0.30017992  0.84464196  0.97151279  1
  O  O27  1  0.53269819  0.84504175  0.47632971  1
  O  O28  1  0.30318644  0.46239895  0.47665172  1
  O  O29  1  0.14577415  0.68402241  0.47143649  1
  O  O30  1  0.11602327  0.63294278  0.36566059  1
  O  O31  1  0.51147393  0.88992414  0.35941192  1
  O  O32  1  0.36894055  0.49563062  0.35985687  1
  O  O33  1  0.12503372  0.48868198  0.85657006  1
  O  O34  1  0.36628483  0.88079402  0.85546183  1
  O  O35  1  0.52412048  0.63120779  0.86447569  1
  O  O36  1  0.01977946  0.80937678  0.41567172  1
  O  O37  1  0.80256501  0.96232589  0.42063840  1
  O  O38  1  0.17736460  0.18851825  0.42094925  1
  O  O39  1  0.01825684  0.19068483  0.91558216  1
  O  O40  1  0.15002811  0.96461563  0.90968711  1
  O  O41  1  0.79969092  0.81708317  0.91095539  1
  O  O42  1  0.98627654  0.18064844  0.58500066  1
  O  O43  1  0.18709454  0.00947915  0.58757810  1
  O  O44  1  0.82778483  0.80993166  0.58645016  1
  O  O45  1  0.98455519  0.80463435  0.08340976  1
  O  O46  1  0.84804903  0.01597217  0.08641215  1
  O  O47  1  0.19442024  0.17663842  0.08536727  1
  O  O48  1  0.69669728  0.16340422  0.74841975  1
  O  O49  1  0.47469551  0.30903799  0.74749850  1
  O  O50  1  0.85808659  0.54192848  0.74455299  1
  O  O51  1  0.68126427  0.51370544  0.24530884  1
  O  O52  1  0.85905647  0.32579803  0.24163915  1
  O  O53  1  0.48325797  0.15071519  0.24570286  1
  O  O54  1  0.64488048  0.50900048  0.92626914  1
  O  O55  1  0.85737656  0.37344116  0.92165211  1
  O  O56  1  0.49536847  0.15357996  0.92032161  1
  O  O57  1  0.64400696  0.15354939  0.42340681  1
  O  O58  1  0.52480953  0.38926817  0.42427000  1
  O  O59  1  0.86797444  0.50373107  0.42479538  1
  O  O60  1  0.34618653  0.48798014  0.07308397  1
  O  O61  1  0.13588843  0.64456587  0.07495243  1
  O  O62  1  0.49627156  0.83239318  0.07353873  1
  O  O63  1  0.34193840  0.85194565  0.57499119  1
  O  O64  1  0.51257521  0.65444743  0.57742184  1
  O  O65  1  0.14191936  0.49559125  0.57550409  1
  O  O66  1  0.28760712  0.80789418  0.25504165  1
  O  O67  1  0.51010774  0.68548964  0.25266813  1
  O  O68  1  0.16365045  0.47139872  0.25618482  1
  O  O69  1  0.29271556  0.47999318  0.75780420  1
  O  O70  1  0.16296612  0.70239110  0.75487824  1
  O  O71  1  0.50861896  0.82524563  0.75775111  1
loop_
_geom_bond_atom_site_label_1
_geom_bond_atom_site_label_2
_geom_bond_distance
_geom_bond_site_symmetry_2
Na0 O53 2.333912 1_555
Na0 O16 2.411051 1_555
Na0 O67 2.505381 1_545
Na0 O52 2.611590 1_555
Na0 O66 2.722824 1_545
Na0 O9 2.764343 1_545
Na0 O31 2.890680 1_545
Na0 O2 2.982371 1_555
Na1 O51 2.382066 1_555
Na1 O53 2.508957 1_555
Na1 O67 2.567172 1_555
Na1 O68 2.597597 1_555
Na1 O0 2.773972 1_555
Na1 O32 2.805210 1_555
Na1 O17 2.816826 1_555
Na1 O10 2.941433 1_555
Na2 O66 2.359081 1_655
Na2 O51 2.412108 1_555
Na2 O52 2.497466 1_555
Na2 O68 2.714723 1_655
Na2 O15 2.770917 1_555
Na2 O11 2.821424 1_655
Na2 O1 2.867589 1_555
Na2 O30 2.940551 1_655
Na3 O48 2.355271 1_555
Na3 O69 2.361893 1_655
Na3 O50 2.550573 1_555
Na3 O33 2.626327 1_655
Na3 O70 2.736539 1_655
Na3 O7 2.855948 1_655
Na3 O5 2.883011 1_555
Na3 O12 2.926404 1_555
Na4 O49 2.372921 1_555
Na4 O48 2.481418 1_555
Na4 O71 2.487429 1_545
Na4 O70 2.510557 1_545
Na4 O34 2.537990 1_545
Na4 O3 2.800793 1_555
Na4 O13 2.933009 1_555
Na5 O37 2.271086 1_555
Na5 O58 2.316147 1_555
Na5 O1 2.447569 1_555
Na5 O36 2.514030 1_655
Na5 O59 2.696586 1_555
Na5 O32 2.831264 1_555
Na5 O22 2.966063 1_555
Na6 O38 2.264411 1_555
Na6 O37 2.324358 1_445
Na6 O42 2.648713 1_455
Na6 O36 2.668712 1_545
Na6 O43 2.759281 1_555
Na6 O44 2.820317 1_445
Na7 O39 2.479037 1_555
Na7 O46 2.495938 1_456
Na7 O47 2.567963 1_556
Na7 O40 2.612252 1_545
Na7 O45 2.640704 1_446
Na7 O41 2.713357 1_445
Na8 O56 2.487987 1_555
Na8 O49 2.563446 1_555
Na8 O55 2.567861 1_555
Na8 O48 2.613479 1_555
Na8 O54 2.740578 1_555
Na8 O50 2.840469 1_555
Na9 O53 2.462501 1_555
Na9 O51 2.530318 1_555
Na9 O57 2.627747 1_555
Na9 O58 2.676181 1_555
Na9 O52 2.799531 1_555
Na9 O59 2.861260 1_555
Na10 O62 2.458056 1_555
Na10 O67 2.524441 1_555
Na10 O66 2.617856 1_555
Na10 O61 2.683698 1_555
Na10 O60 2.724529 1_555
Na10 O68 2.842310 1_555
Na11 O71 2.458652 1_555
Na11 O69 2.483117 1_555
Na11 O64 2.661580 1_555
Na11 O70 2.725990 1_555
Na11 O65 2.810778 1_555
Na11 O63 2.822380 1_555
Ca0 O0 2.129148 1_555
Ca0 O38 2.190226 1_555
Ca0 O1 2.202996 1_445
Ca0 O2 2.217803 1_455
Ca0 O37 2.274257 1_445
Ca0 O36 2.335615 1_545
Ca1 O49 2.153953 1_555
Ca1 O48 2.220976 1_555
Ca1 O14 2.259070 1_555
Ca1 O50 2.289291 1_555
Ca1 O13 2.297917 1_555
Ca1 O12 2.349947 1_555
Ca2 O16 2.175098 1_555
Ca2 O17 2.218271 1_555
Ca2 O53 2.230358 1_555
Ca2 O51 2.266353 1_555
Ca2 O15 2.293946 1_555
Ca2 O52 2.314952 1_555
O0 Si0 1.573671 1_545
O1 Si1 1.595049 1_555
O2 S0 1.448678 1_655
O3 Si2 1.621479 1_555
O3 Sn0 1.976204 1_555
O4 S1 1.452967 1_655
O4 Sn0 2.345072 1_665
O5 Si3 1.618603 1_545
O5 Sn0 1.973673 1_655
O6 Si3 1.675357 1_555
O6 Sn1 1.963510 1_565
O7 Si2 1.697646 1_555
O7 Sn1 1.982551 1_455
O8 S1 1.530015 1_555
O8 Sn1 2.141016 1_465
O9 Si1 1.666885 1_555
O9 Sn2 1.989441 1_555
O10 S0 1.498996 1_555
O10 Sn2 2.268012 1_445
O11 Si0 1.687018 1_555
O11 Sn2 2.008035 1_455
O12 S2 1.454953 1_555
O13 S3 1.456148 1_555
O14 S4 1.444152 1_555
O15 S5 1.461440 1_555
O16 Si4 1.590964 1_555
O17 S6 1.464783 1_555
O18 S6 1.497306 1_555
O18 Sn3 2.298622 1_554
O19 S5 1.493351 1_555
O19 Sn3 2.263701 1_554
O20 Si4 1.655757 1_555
O20 Sn3 1.957762 1_554
O21 S3 1.501623 1_555
O21 Sn4 2.180699 1_555
O22 S4 1.507635 1_555
O22 Sn4 2.291429 1_555
O23 S2 1.500247 1_555
O23 Sn4 2.217322 1_555
O24 S7 1.475612 1_555
O24 Sn5 2.190168 1_556
O25 Si5 1.621844 1_555
O25 Sn5 1.962124 1_556
O26 Si6 1.611990 1_555
O26 Sn5 1.965428 1_556
O27 Si7 1.641301 1_555
O27 Sn6 1.924117 1_555
O28 Si8 1.637284 1_555
O28 Sn6 1.916569 1_555
O29 S8 1.492407 1_555
O29 Sn6 2.070437 1_555
O30 S8 1.486818 1_555
O30 Sn7 2.299836 1_555
O31 Si7 1.656344 1_555
O31 Sn7 1.986839 1_555
O32 Si8 1.670402 1_555
O32 Sn7 2.030025 1_555
O33 Si5 1.657775 1_555
O33 Sn8 2.011214 1_555
O34 Si6 1.657700 1_555
O34 Sn8 2.018689 1_555
O35 S7 1.505187 1_555
O35 Sn8 2.109337 1_555
O36 S8 1.448653 1_555
O37 Si7 1.590327 1_555
O38 Si8 1.568195 1_555
O39 Si5 1.644483 1_555
O39 Sn0 1.991534 1_555
O40 Si6 1.642900 1_555
O40 Sn0 1.977874 1_565
O41 S7 1.476244 1_555
O41 Sn0 2.289295 1_665
O42 S2 1.512260 1_555
O42 Sn1 2.255223 1_555
O43 S3 1.503067 1_555
O43 Sn1 2.366318 1_455
O44 S4 1.513862 1_555
O44 Sn1 2.286486 1_565
O45 S5 1.501658 1_555
O45 Sn2 2.224626 1_555
O46 Si4 1.684042 1_555
O46 Sn2 1.994868 1_545
O47 S6 1.497754 1_555
O47 Sn2 2.346587 1_445
O48 Si3 1.619880 1_545
O49 Si2 1.596357 1_555
O50 S1 1.465652 1_655
O51 Si1 1.617756 1_555
O52 S0 1.472874 1_655
O53 Si0 1.610922 1_545
O54 S7 1.483434 1_555
O54 Sn3 2.274912 1_555
O55 Si5 1.651573 1_655
O55 Sn3 2.013907 1_555
O56 Si6 1.658270 1_545
O56 Sn3 2.017034 1_555
O57 Si7 1.659290 1_545
O57 Sn4 1.954417 1_555
O58 Si8 1.695252 1_555
O58 Sn4 1.993609 1_555
O59 S8 1.508771 1_655
O59 Sn4 2.209265 1_555
O60 S6 1.497207 1_555
O60 Sn5 2.206422 1_555
O61 S5 1.498352 1_455
O61 Sn5 2.170888 1_555
O62 Si4 1.665464 1_565
O62 Sn5 1.979190 1_555
O63 S3 1.512350 1_565
O63 Sn6 2.184913 1_555
O64 S4 1.512289 1_555
O64 Sn6 2.173175 1_555
O65 S2 1.510908 1_455
O65 Sn6 2.192314 1_555
O66 Si0 1.693944 1_555
O66 Sn7 2.059294 1_555
O67 Si1 1.685734 1_555
O67 Sn7 2.024828 1_555
O68 S0 1.509178 1_555
O68 Sn7 2.268009 1_555
O69 Si2 1.655223 1_555
O69 Sn8 2.082809 1_555
O70 S1 1.506352 1_555
O70 Sn8 2.310882 1_555
O71 Si3 1.652564 1_555
O71 Sn8 2.057929 1_555
