# generated using pymatgen
data_Ba2YMgRuO6
_symmetry_space_group_name_H-M   'P 1'
_cell_length_a   6.18536711
_cell_length_b   6.82453460
_cell_length_c   5.94625409
_cell_angle_alpha   53.08591532
_cell_angle_beta   58.66062814
_cell_angle_gamma   63.05266410
_symmetry_Int_Tables_number   1
_chemical_formula_structural   Ba2YMgRuO6
_chemical_formula_sum   'Ba2 Y1 Mg1 Ru1 O6'
_cell_volume   167.72532724
_cell_formula_units_Z   1
loop_
 _symmetry_equiv_pos_site_id
 _symmetry_equiv_pos_as_xyz
  1  'x, y, z'
loop_
 _atom_site_type_symbol
 _atom_site_label
 _atom_site_symmetry_multiplicity
 _atom_site_fract_x
 _atom_site_fract_y
 _atom_site_fract_z
 _atom_site_occupancy
  Ba  Ba0  1  0.70224926  0.81522761  0.78027387  1
  Ba  Ba1  1  0.31447703  0.09896290  0.27208305  1
  Y  Y0  1  0.94945250  0.11293536  0.98815964  1
  Mg  Mg0  1  0.07749216  0.55436737  0.29064731  1
  Ru  Ru0  1  0.50465881  0.50140130  0.48928108  1
  O  O0  1  0.27927493  0.60622132  0.83522881  1
  O  O1  1  0.21299334  0.78293420  0.26422072  1
  O  O2  1  0.81934139  0.27012110  0.62840547  1
  O  O3  1  0.28213204  0.27012110  0.62840547  1
  O  O4  1  0.73265980  0.35060654  0.18407387  1
  O  O5  1  0.73985173  0.78293420  0.26422072  1
loop_
_geom_bond_atom_site_label_1
_geom_bond_atom_site_label_2
_geom_bond_distance
_geom_bond_site_symmetry_2
Ba0 O4 2.576522 1_556
Ba0 O5 2.876037 1_556
Ba0 O1 2.876037 1_556
Ba0 O2 2.994571 1_565
Ba0 O3 2.994571 1_565
Ba0 O5 3.089073 1_555
Ba0 O1 3.089073 1_655
Ba0 O4 3.212913 1_565
Ba0 O0 3.304409 1_655
Ba0 O0 3.304409 1_555
Ba1 O5 2.535044 1_545
Ba1 O1 2.535044 1_545
Ba1 O0 2.807542 1_554
Ba1 O3 2.865982 1_555
Ba1 O2 2.865982 1_455
Ba1 O0 2.991200 1_545
Mg0 O5 1.978326 1_455
Mg0 O1 1.978330 1_555
Mg0 O0 2.179397 1_554
Mg0 O2 2.266672 1_455
Mg0 O3 2.266676 1_555
O0 Ru0 2.137183 1_555
O1 Ru0 2.240146 1_555
O1 Y0 2.332190 1_464
O2 Ru0 2.070322 1_555
O2 Y0 2.150900 1_555
O3 Ru0 2.070322 1_555
O3 Y0 2.150900 1_455
O4 Y0 2.111790 1_554
O4 Ru0 2.146470 1_555
O5 Ru0 2.240146 1_555
O5 Y0 2.332190 1_564
