# generated using pymatgen
data_Ba2Mg(VS3)2
_symmetry_space_group_name_H-M   'P 1'
_cell_length_a   7.05977009
_cell_length_b   6.80639680
_cell_length_c   6.20185078
_cell_angle_alpha   89.99999980
_cell_angle_beta   104.02328206
_cell_angle_gamma   118.81971282
_symmetry_Int_Tables_number   1
_chemical_formula_structural   Ba2Mg(VS3)2
_chemical_formula_sum   'Ba2 Mg1 V2 S6'
_cell_volume   250.91312304
_cell_formula_units_Z   1
loop_
 _symmetry_equiv_pos_site_id
 _symmetry_equiv_pos_as_xyz
  1  'x, y, z'
loop_
 _atom_site_type_symbol
 _atom_site_label
 _atom_site_symmetry_multiplicity
 _atom_site_fract_x
 _atom_site_fract_y
 _atom_site_fract_z
 _atom_site_occupancy
  Ba  Ba0  1  0.79576058  0.39787979  0.15294515  1
  Ba  Ba1  1  0.29649592  0.64824846  0.76214980  1
  Mg  Mg0  1  0.50274402  0.25137201  0.56343917  1
  V  V0  1  0.99290498  0.99645249  0.50330895  1
  V  V1  1  0.00389559  0.00194780  0.02888735  1
  S  S0  1  0.82742891  0.66418529  0.71038748  1
  S  S1  1  0.20421797  0.87240134  0.32113827  1
  S  S2  1  0.69755386  0.84877693  0.18187180  1
  S  S3  1  0.30735129  0.15367564  0.85148928  1
  S  S4  1  0.20421797  0.33181663  0.32113827  1
  S  S5  1  0.82742891  0.16324362  0.71038748  1
loop_
_geom_bond_atom_site_label_1
_geom_bond_atom_site_label_2
_geom_bond_distance
_geom_bond_site_symmetry_2
Ba0 S4 3.065591 1_655
Ba0 S1 3.065595 1_655
Ba0 S3 3.081808 1_554
Ba0 S5 3.282583 1_554
Ba0 S0 3.282586 1_554
Ba0 S2 3.470329 1_545
Ba0 S2 3.470336 1_555
Ba1 S2 3.059058 1_556
Ba1 S1 3.213645 1_555
Ba1 S4 3.213649 1_555
Ba1 S0 3.303333 1_455
Ba1 S5 3.303336 1_455
Ba1 S3 3.445673 1_565
Ba1 S3 3.445679 1_555
Ba1 S5 3.788858 1_565
Ba1 S0 3.788861 1_555
Mg0 S3 2.417911 1_555
Mg0 S1 2.564627 1_545
Mg0 S4 2.564627 1_555
Mg0 S0 2.599568 1_555
Mg0 S5 2.599568 1_555
S0 V0 2.511693 1_555
S0 V1 2.604822 1_666
S1 V1 2.454108 1_565
S1 V0 2.499221 1_455
S2 V0 2.301518 1_555
S2 V1 2.342012 1_665
S3 V1 2.423996 1_556
S3 V0 2.474385 1_445
S4 V1 2.454108 1_555
S4 V0 2.499221 1_445
S5 V0 2.511693 1_545
S5 V1 2.604822 1_656
