# generated using pymatgen
data_MgCo2(SiO3)4
_symmetry_space_group_name_H-M   'P 1'
_cell_length_a   5.29664307
_cell_length_b   6.48475955
_cell_length_c   6.50646158
_cell_angle_alpha   83.17941970
_cell_angle_beta   74.67780273
_cell_angle_gamma   74.87041760
_symmetry_Int_Tables_number   1
_chemical_formula_structural   MgCo2(SiO3)4
_chemical_formula_sum   'Mg1 Co2 Si4 O12'
_cell_volume   207.76812396
_cell_formula_units_Z   1
loop_
 _symmetry_equiv_pos_site_id
 _symmetry_equiv_pos_as_xyz
  1  'x, y, z'
loop_
 _atom_site_type_symbol
 _atom_site_label
 _atom_site_symmetry_multiplicity
 _atom_site_fract_x
 _atom_site_fract_y
 _atom_site_fract_z
 _atom_site_occupancy
  Mg  Mg0  1  0.75563300  0.29917700  0.73427500  1
  Co  Co0  1  0.25571700  0.11330800  0.91843300  1
  Co  Co1  1  0.75045300  0.91653300  0.11190000  1
  Si  Si0  1  0.25395700  0.22635100  0.39359100  1
  Si  Si1  1  0.25777700  0.64129900  0.80431800  1
  Si  Si2  1  0.75153900  0.40705000  0.21270900  1
  Si  Si3  1  0.76083000  0.82330300  0.61968700  1
  O  O0  1  0.45719200  0.38517200  0.35899600  1
  O  O1  1  0.04905700  0.67180800  0.65173600  1
  O  O2  1  0.56705600  0.65196700  0.66348200  1
  O  O3  1  0.94336600  0.36332200  0.38330400  1
  O  O4  1  0.17032800  0.14062600  0.64317500  1
  O  O5  1  0.34201500  0.39062400  0.88997600  1
  O  O6  1  0.78293100  0.94518800  0.39025000  1
  O  O7  1  0.73811100  0.63987600  0.09337000  1
  O  O8  1  0.86836900  0.22763200  0.02699600  1
  O  O9  1  0.64120000  0.00557500  0.80448500  1
  O  O10  1  0.36183400  0.06444200  0.19399400  1
  O  O11  1  0.15513500  0.83674600  0.96990600  1
loop_
_geom_bond_atom_site_label_1
_geom_bond_atom_site_label_2
_geom_bond_distance
_geom_bond_site_symmetry_2
Mg0 O8 2.108498 1_556
Mg0 O9 2.109624 1_555
Mg0 O5 2.114022 1_555
Mg0 O4 2.123875 1_655
Mg0 O3 2.273049 1_555
Mg0 O2 2.289909 1_555
Co0 O4 1.937616 1_555
Co0 O5 1.944857 1_555
Co0 O9 1.945498 1_555
Co0 O8 1.955076 1_456
Co0 O11 1.968297 1_545
Co0 O10 1.983830 1_556
Co1 O7 1.831448 1_555
Co1 O6 1.898784 1_555
Co1 O10 1.988021 1_565
Co1 O11 2.050295 1_654
Co1 O9 2.198175 1_564
Co1 O8 2.230657 1_565
O0 Si2 1.629680 1_555
O0 Si0 1.632721 1_555
O1 Si1 1.632821 1_555
O1 Si3 1.635823 1_455
O2 Si3 1.653658 1_555
O2 Si1 1.666960 1_555
O3 Si2 1.647920 1_555
O3 Si0 1.667649 1_655
O4 Si0 1.635935 1_555
O5 Si1 1.640056 1_555
O6 Si3 1.594564 1_555
O7 Si2 1.606924 1_555
O8 Si2 1.661209 1_555
O9 Si3 1.669814 1_545
O10 Si0 1.653464 1_555
O11 Si1 1.648577 1_555
