# generated using pymatgen
data_Na2Sm2MgTi2O8
_symmetry_space_group_name_H-M   'P 1'
_cell_length_a   3.90958200
_cell_length_b   3.90958200
_cell_length_c   12.09551200
_cell_angle_alpha   90.00000000
_cell_angle_beta   90.00000000
_cell_angle_gamma   90.00000000
_symmetry_Int_Tables_number   1
_chemical_formula_structural   Na2Sm2MgTi2O8
_chemical_formula_sum   'Na2 Sm2 Mg1 Ti2 O8'
_cell_volume   184.87786179
_cell_formula_units_Z   1
loop_
 _symmetry_equiv_pos_site_id
 _symmetry_equiv_pos_as_xyz
  1  'x, y, z'
loop_
 _atom_site_type_symbol
 _atom_site_label
 _atom_site_symmetry_multiplicity
 _atom_site_fract_x
 _atom_site_fract_y
 _atom_site_fract_z
 _atom_site_occupancy
  Na  Na0  1  0.25000000  0.25000000  0.63686200  1
  Na  Na1  1  0.75000000  0.75000000  0.36313800  1
  Sm  Sm0  1  0.75000000  0.75000000  0.11097400  1
  Sm  Sm1  1  0.25000000  0.25000000  0.88902600  1
  Mg  Mg0  1  0.75000000  0.25000000  0.50000000  1
  Ti  Ti0  1  0.25000000  0.25000000  0.25738000  1
  Ti  Ti1  1  0.75000000  0.75000000  0.74262000  1
  O  O0  1  0.75000000  0.75000000  0.92600200  1
  O  O1  1  0.25000000  0.25000000  0.07399800  1
  O  O2  1  0.75000000  0.75000000  0.57056300  1
  O  O3  1  0.25000000  0.25000000  0.42943700  1
  O  O4  1  0.75000000  0.25000000  0.24903400  1
  O  O5  1  0.25000000  0.75000000  0.23272600  1
  O  O6  1  0.75000000  0.25000000  0.75096600  1
  O  O7  1  0.25000000  0.75000000  0.76727400  1
loop_
_geom_bond_atom_site_label_1
_geom_bond_atom_site_label_2
_geom_bond_distance
_geom_bond_site_symmetry_2
Na0 O6 2.392909 1_455
Na0 O6 2.392909 1_555
Na0 O3 2.508912 1_555
Na0 O7 2.511852 1_555
Na0 O7 2.511852 1_545
Na0 O2 2.878453 1_545
Na0 O2 2.878453 1_455
Na0 O2 2.878453 1_555
Na0 O2 2.878453 1_445
Na1 O4 2.392909 1_555
Na1 O4 2.392909 1_565
Na1 O2 2.508912 1_555
Na1 O5 2.511852 1_555
Na1 O5 2.511852 1_655
Na1 O3 2.878453 1_655
Na1 O3 2.878453 1_665
Na1 O3 2.878453 1_565
Na1 O3 2.878453 1_555
Mg0 O2 2.132994 1_555
Mg0 O2 2.132994 1_545
Mg0 O3 2.132994 1_555
Mg0 O3 2.132994 1_655
Mg0 Na0 2.561564 1_555
Mg0 Na0 2.561564 1_655
Mg0 Na1 2.561564 1_555
Mg0 Na1 2.561564 1_545
O0 Ti1 2.218099 1_555
O0 Sm0 2.237331 1_556
O0 Sm1 2.800436 1_565
O0 Sm1 2.800436 1_555
O0 Sm1 2.800436 1_655
O0 Sm1 2.800436 1_665
O1 Ti0 2.218099 1_555
O1 Sm1 2.237331 1_554
O1 Sm0 2.800436 1_455
O1 Sm0 2.800436 1_555
O1 Sm0 2.800436 1_445
O1 Sm0 2.800436 1_545
O2 Ti1 2.081118 1_555
O3 Ti0 2.081118 1_555
O4 Ti0 1.957396 1_655
O4 Ti0 1.957396 1_555
O4 Sm0 2.570952 1_555
O4 Sm0 2.570952 1_545
O5 Ti0 1.977406 1_565
O5 Ti0 1.977406 1_555
O5 Sm0 2.447430 1_455
O5 Sm0 2.447430 1_555
O6 Ti1 1.957396 1_545
O6 Ti1 1.957396 1_555
O6 Sm1 2.570952 1_555
O6 Sm1 2.570952 1_655
O7 Ti1 1.977406 1_555
O7 Ti1 1.977406 1_455
O7 Sm1 2.447430 1_565
O7 Sm1 2.447430 1_555
