# generated using pymatgen
data_NaGe4P5SO24
_symmetry_space_group_name_H-M   'P 1'
_cell_length_a   8.34147181
_cell_length_b   8.35473108
_cell_length_c   21.69523914
_cell_angle_alpha   90.24661242
_cell_angle_beta   89.52327099
_cell_angle_gamma   120.11304463
_symmetry_Int_Tables_number   1
_chemical_formula_structural   NaGe4P5SO24
_chemical_formula_sum   'Na3 Ge12 P15 S3 O72'
_cell_volume   1307.85428252
_cell_formula_units_Z   3
loop_
 _symmetry_equiv_pos_site_id
 _symmetry_equiv_pos_as_xyz
  1  'x, y, z'
loop_
 _atom_site_type_symbol
 _atom_site_label
 _atom_site_symmetry_multiplicity
 _atom_site_fract_x
 _atom_site_fract_y
 _atom_site_fract_z
 _atom_site_occupancy
  Na  Na0  1  0.66935878  0.33628246  0.83418062  1
  Na  Na1  1  0.66672986  0.33363402  0.33177951  1
  Na  Na2  1  0.33362471  0.66712839  0.16708390  1
  Ge  Ge0  1  0.00044954  0.00041425  0.35465194  1
  Ge  Ge1  1  0.99251187  0.00016083  0.85429975  1
  Ge  Ge2  1  0.00732538  0.99943172  0.64885597  1
  Ge  Ge3  1  0.99966552  0.00039399  0.14440204  1
  Ge  Ge4  1  0.66176771  0.32574367  0.68880739  1
  Ge  Ge5  1  0.66676699  0.33274063  0.18676653  1
  Ge  Ge6  1  0.67435434  0.34148243  0.98301197  1
  Ge  Ge7  1  0.65778440  0.32770638  0.47652861  1
  Ge  Ge8  1  0.33579635  0.65983231  0.02241962  1
  Ge  Ge9  1  0.33330984  0.67448623  0.51681517  1
  Ge  Ge10  1  0.33269950  0.66620974  0.31229486  1
  Ge  Ge11  1  0.33111327  0.65882012  0.81080314  1
  P  P0  1  0.28575894  0.99973372  0.24976464  1
  P  P1  1  0.71444686  0.71386696  0.25001240  1
  P  P2  1  0.99952598  0.28564968  0.25002411  1
  P  P3  1  0.28490594  0.28595040  0.75051920  1
  P  P4  1  0.00166464  0.71191233  0.75052567  1
  P  P5  1  0.71132802  0.99672636  0.74942163  1
  P  P6  1  0.37708061  0.04303411  0.58327038  1
  P  P7  1  0.95634152  0.62440279  0.08401740  1
  P  P8  1  0.66816394  0.04646892  0.08293978  1
  P  P9  1  0.37918440  0.32978133  0.08376523  1
  P  P10  1  0.62074819  0.66621913  0.91645175  1
  P  P11  1  0.04607155  0.37836342  0.91684867  1
  P  P12  1  0.62301610  0.95267000  0.41581802  1
  P  P13  1  0.32933354  0.37969300  0.41682801  1
  P  P14  1  0.04443734  0.66848033  0.41655059  1
  S  S0  1  0.95684073  0.33284234  0.58306064  1
  S  S1  1  0.66619615  0.62340582  0.58341908  1
  S  S2  1  0.33170295  0.95477517  0.91658149  1
  O  O0  1  0.20697455  0.03930202  0.30859236  1
  O  O1  1  0.83215580  0.79322746  0.30830440  1
  O  O2  1  0.96063865  0.16772307  0.30843459  1
  O  O3  1  0.20533008  0.16237044  0.80788747  1
  O  O4  1  0.95820204  0.79311129  0.80785650  1
  O  O5  1  0.83390787  0.04288339  0.80680441  1
  O  O6  1  0.79484877  0.96102055  0.69068796  1
  O  O7  1  0.16767552  0.20731547  0.69190230  1
  O  O8  1  0.03888969  0.82928092  0.69176797  1
  O  O9  1  0.79395925  0.83292613  0.19191867  1
  O  O10  1  0.03949294  0.20632111  0.19179286  1
  O  O11  1  0.16710219  0.96092576  0.19204504  1
  O  O12  1  0.87767935  0.37311082  0.63925986  1
  O  O13  1  0.50145462  0.12826979  0.64057454  1
  O  O14  1  0.63006575  0.50610075  0.63931300  1
  O  O15  1  0.87531228  0.49902869  0.14102363  1
  O  O16  1  0.62411574  0.12580073  0.14084550  1
  O  O17  1  0.50245260  0.37454721  0.14099311  1
  O  O18  1  0.46126228  0.29436475  0.02457079  1
  O  O19  1  0.83849494  0.54531484  0.02537704  1
  O  O20  1  0.70428388  0.16545305  0.02444921  1
  O  O21  1  0.46266110  0.16909495  0.52628948  1
  O  O22  1  0.70697110  0.54424756  0.52790167  1
  O  O23  1  0.83939420  0.29687322  0.52798202  1
  O  O24  1  0.53876980  0.70655708  0.97418263  1
  O  O25  1  0.16575620  0.46324082  0.97427707  1
  O  O26  1  0.29668554  0.84081782  0.97232380  1
  O  O27  1  0.54320864  0.83589328  0.47512514  1
  O  O28  1  0.29543114  0.46284283  0.47631098  1
  O  O29  1  0.16176821  0.70511414  0.47532686  1
  O  O30  1  0.12459896  0.62318178  0.35945568  1
  O  O31  1  0.49774215  0.87313730  0.35932061  1
  O  O32  1  0.37484184  0.50312629  0.35956653  1
  O  O33  1  0.12575270  0.50182630  0.85885973  1
  O  O34  1  0.37171555  0.87755776  0.86028018  1
  O  O35  1  0.49948029  0.62725353  0.85859911  1
  O  O36  1  0.02489318  0.83770866  0.40839781  1
  O  O37  1  0.81296051  0.97347834  0.40822353  1
  O  O38  1  0.16106773  0.18900096  0.40900002  1
  O  O39  1  0.02942699  0.18882613  0.90775798  1
  O  O40  1  0.16592366  0.97214063  0.90919138  1
  O  O41  1  0.81286752  0.83776526  0.90794488  1
  O  O42  1  0.97145874  0.16535506  0.59093482  1
  O  O43  1  0.18594373  0.02609284  0.59212508  1
  O  O44  1  0.83300824  0.80778432  0.59077520  1
  O  O45  1  0.97447880  0.81295048  0.09215121  1
  O  O46  1  0.83797076  0.02676950  0.09141993  1
  O  O47  1  0.18872862  0.16026017  0.09156993  1
  O  O48  1  0.69496804  0.17271116  0.74202673  1
  O  O49  1  0.47953233  0.30692796  0.74246833  1
  O  O50  1  0.82634219  0.51876591  0.74105089  1
  O  O51  1  0.69347886  0.52028221  0.24287551  1
  O  O52  1  0.82670117  0.30632987  0.24299972  1
  O  O53  1  0.47963593  0.17335708  0.24299403  1
  O  O54  1  0.63825182  0.49128404  0.92384194  1
  O  O55  1  0.85092185  0.35690848  0.92384539  1
  O  O56  1  0.49978066  0.14027871  0.92253711  1
  O  O57  1  0.64113927  0.14597497  0.42427390  1
  O  O58  1  0.50632350  0.36359761  0.42425416  1
  O  O59  1  0.85174267  0.49176755  0.42617151  1
  O  O60  1  0.36133362  0.50489468  0.07691914  1
  O  O61  1  0.14890629  0.64207430  0.07504519  1
  O  O62  1  0.49166324  0.85411783  0.07499383  1
  O  O63  1  0.35909656  0.85216375  0.57451893  1
  O  O64  1  0.49892232  0.63817324  0.57622628  1
  O  O65  1  0.14130250  0.49922694  0.57617573  1
  O  O66  1  0.30630113  0.82688016  0.25730563  1
  O  O67  1  0.52056417  0.69370107  0.25730918  1
  O  O68  1  0.17331794  0.47931875  0.25720136  1
  O  O69  1  0.30576493  0.47639356  0.75770117  1
  O  O70  1  0.17271293  0.69403408  0.75934368  1
  O  O71  1  0.52015290  0.82843089  0.75903943  1
loop_
_geom_bond_atom_site_label_1
_geom_bond_atom_site_label_2
_geom_bond_distance
_geom_bond_site_symmetry_2
Na0 O54 2.415642 1_555
Na0 O55 2.427317 1_555
Na0 O56 2.452483 1_555
Na0 O50 2.469955 1_555
Na0 O48 2.484495 1_555
Na0 O49 2.486957 1_555
Na1 O52 2.408609 1_555
Na1 O53 2.422790 1_555
Na1 O51 2.423086 1_555
Na1 O58 2.482975 1_555
Na1 O57 2.492915 1_555
Na1 O59 2.510840 1_555
Na2 O66 2.437211 1_555
Na2 O68 2.439303 1_555
Na2 O60 2.449713 1_555
Na2 O67 2.451977 1_555
Na2 O62 2.467117 1_555
Na2 O61 2.475711 1_555
Ge0 O37 1.861775 1_445
Ge0 O0 1.866657 1_555
Ge0 O36 1.882758 1_545
Ge0 O1 1.883697 1_445
Ge0 O2 1.884930 1_455
Ge0 O38 1.886774 1_555
Ge1 O41 1.839936 1_545
Ge1 O39 1.851396 1_655
Ge1 O5 1.854499 1_555
Ge1 O3 1.889415 1_655
Ge1 O4 1.892762 1_545
Ge1 O40 1.984000 1_645
Ge2 O8 1.829738 1_555
Ge2 O7 1.831270 1_565
Ge2 O43 1.850193 1_565
Ge2 O6 1.863585 1_455
Ge2 O44 1.985646 1_455
Ge2 O42 2.006905 1_465
Ge3 O45 1.854777 1_545
Ge3 O47 1.858592 1_655
Ge3 O46 1.874890 1_555
Ge3 O9 1.881122 1_545
Ge3 O10 1.882660 1_655
Ge3 O11 1.901808 1_645
Ge4 O13 1.843868 1_555
Ge4 O48 1.848731 1_555
Ge4 O49 1.850170 1_555
Ge4 O50 1.886435 1_555
Ge4 O12 1.952452 1_555
Ge4 O14 1.977876 1_555
Ge5 O16 1.866059 1_555
Ge5 O17 1.868902 1_555
Ge5 O15 1.870622 1_555
Ge5 O53 1.895902 1_555
Ge5 O51 1.903757 1_555
Ge5 O52 1.908307 1_555
Ge6 O19 1.813107 1_556
Ge6 O18 1.844365 1_556
Ge6 O20 1.848497 1_556
Ge6 O55 1.900804 1_555
Ge6 O54 1.924430 1_555
Ge6 O56 2.055298 1_555
Ge7 O58 1.838267 1_555
Ge7 O57 1.840126 1_555
Ge7 O21 1.841063 1_555
Ge7 O59 1.856939 1_555
Ge7 O22 1.982172 1_555
Ge7 O23 2.007377 1_555
Ge8 O60 1.847454 1_555
Ge8 O24 1.850674 1_554
Ge8 O25 1.863518 1_554
Ge8 O61 1.869651 1_555
Ge8 O62 1.875448 1_555
Ge8 O26 2.022151 1_554
Ge9 O29 1.820433 1_555
Ge9 O27 1.821293 1_555
Ge9 O28 1.851834 1_555
Ge9 O63 1.866866 1_555
Ge9 O65 1.999119 1_555
Ge9 O64 2.028634 1_555
Ge10 O32 1.878950 1_555
Ge10 O30 1.880634 1_555
Ge10 O67 1.881920 1_555
Ge10 O31 1.882818 1_555
Ge10 O68 1.887227 1_555
Ge10 O66 1.894315 1_555
Ge11 O69 1.833161 1_555
Ge11 O33 1.862617 1_555
Ge11 O70 1.869814 1_555
Ge11 O71 1.870250 1_555
Ge11 O35 1.874959 1_555
Ge11 O34 1.993683 1_555
O0 P0 1.539632 1_545
O1 P1 1.537286 1_555
O2 P2 1.537863 1_555
O3 P3 1.537961 1_555
O4 P4 1.539718 1_655
O5 P5 1.538007 1_545
O6 P5 1.545492 1_555
O7 P3 1.540767 1_555
O8 P4 1.543253 1_555
O9 P1 1.533862 1_555
O10 P2 1.534253 1_455
O11 P0 1.532319 1_555
O12 S0 1.497258 1_555
O13 P6 1.549703 1_555
O14 S1 1.493178 1_555
O15 P7 1.539628 1_555
O16 P8 1.543389 1_555
O17 P9 1.539488 1_555
O18 P9 1.546267 1_555
O19 P7 1.543786 1_555
O20 P8 1.547002 1_555
O21 P6 1.545697 1_555
O22 S1 1.488566 1_555
O23 S0 1.482884 1_555
O24 P10 1.537291 1_555
O25 P11 1.534471 1_555
O26 S2 1.476237 1_555
O27 P12 1.547719 1_555
O28 P13 1.552834 1_555
O29 P14 1.547396 1_555
O30 P14 1.536489 1_555
O31 P12 1.534101 1_555
O32 P13 1.536642 1_555
O33 P11 1.548501 1_555
O34 S2 1.490661 1_555
O35 P10 1.546525 1_555
O36 P14 1.513530 1_555
O37 P12 1.512368 1_555
O38 P13 1.514910 1_555
O39 P11 1.530657 1_555
O40 S2 1.471127 1_555
O41 P10 1.532667 1_555
O42 S0 1.475038 1_555
O43 P6 1.538711 1_555
O44 S1 1.478300 1_555
O45 P7 1.514729 1_555
O46 P8 1.518470 1_555
O47 P9 1.516029 1_555
O48 P5 1.552382 1_545
O49 P3 1.551426 1_555
O50 P4 1.555360 1_655
O51 P1 1.544290 1_555
O52 P2 1.544389 1_555
O53 P0 1.544382 1_545
O54 P10 1.549077 1_555
O55 P11 1.551888 1_655
O56 S2 1.485026 1_545
O57 P12 1.554895 1_545
O58 P13 1.557890 1_555
O59 P14 1.556524 1_655
O60 P9 1.550969 1_555
O61 P7 1.548188 1_455
O62 P8 1.551659 1_565
O63 P6 1.536019 1_565
O64 S1 1.470711 1_555
O65 S0 1.474438 1_455
O66 P0 1.546766 1_555
O67 P1 1.546467 1_555
O68 P2 1.546555 1_455
O69 P3 1.518777 1_555
O70 P4 1.520949 1_555
O71 P5 1.520089 1_555
