# generated using pymatgen
data_KSb5O13
_symmetry_space_group_name_H-M   'P 1'
_cell_length_a   5.56587689
_cell_length_b   5.56587689
_cell_length_c   16.84574714
_cell_angle_alpha   90.00000000
_cell_angle_beta   90.00000000
_cell_angle_gamma   107.23838724
_symmetry_Int_Tables_number   1
_chemical_formula_structural   KSb5O13
_chemical_formula_sum   'K2 Sb10 O26'
_cell_volume   498.42203456
_cell_formula_units_Z   2
loop_
 _symmetry_equiv_pos_site_id
 _symmetry_equiv_pos_as_xyz
  1  'x, y, z'
loop_
 _atom_site_type_symbol
 _atom_site_label
 _atom_site_symmetry_multiplicity
 _atom_site_fract_x
 _atom_site_fract_y
 _atom_site_fract_z
 _atom_site_occupancy
  K  K0  1  0.87764856  0.13404572  0.75000000  1
  K  K1  1  0.13404572  0.87764856  0.25000000  1
  Sb  Sb0  1  0.00150627  0.00150627  0.00000000  1
  Sb  Sb1  1  0.00150627  0.00150627  0.50000000  1
  Sb  Sb2  1  0.23407262  0.76990033  0.63819670  1
  Sb  Sb3  1  0.76990033  0.23407262  0.36180330  1
  Sb  Sb4  1  0.23407262  0.76990033  0.86180330  1
  Sb  Sb5  1  0.76990033  0.23407262  0.13819670  1
  Sb  Sb6  1  0.61631553  0.38710231  0.92293363  1
  Sb  Sb7  1  0.61631553  0.38710231  0.57706637  1
  Sb  Sb8  1  0.38710231  0.61631553  0.42293363  1
  Sb  Sb9  1  0.38710231  0.61631553  0.07706637  1
  O  O0  1  0.52605328  0.07086345  0.86754359  1
  O  O1  1  0.52605328  0.07086345  0.63245641  1
  O  O2  1  0.07086345  0.52605328  0.36754359  1
  O  O3  1  0.07086345  0.52605328  0.13245641  1
  O  O4  1  0.31223647  0.31223647  0.00000000  1
  O  O5  1  0.31223647  0.31223647  0.50000000  1
  O  O6  1  0.44823874  0.55502280  0.64965953  1
  O  O7  1  0.01770577  0.98663462  0.88702710  1
  O  O8  1  0.98663462  0.01770577  0.38702710  1
  O  O9  1  0.18716221  0.81531485  0.75000000  1
  O  O10  1  0.77641628  0.22766391  0.48992361  1
  O  O11  1  0.55502280  0.44823874  0.35034047  1
  O  O12  1  0.22766391  0.77641628  0.98992361  1
  O  O13  1  0.98663462  0.01770577  0.11297290  1
  O  O14  1  0.44823874  0.55502280  0.85034047  1
  O  O15  1  0.55502280  0.44823874  0.14965953  1
  O  O16  1  0.81531485  0.18716221  0.25000000  1
  O  O17  1  0.77641628  0.22766391  0.01007639  1
  O  O18  1  0.01770577  0.98663462  0.61297290  1
  O  O19  1  0.22766391  0.77641628  0.51007639  1
  O  O20  1  0.69136315  0.69136315  0.00000000  1
  O  O21  1  0.69136315  0.69136315  0.50000000  1
  O  O22  1  0.93299794  0.47848237  0.86788679  1
  O  O23  1  0.93299794  0.47848237  0.63211321  1
  O  O24  1  0.47848237  0.93299794  0.36788679  1
  O  O25  1  0.47848237  0.93299794  0.13211321  1
loop_
_geom_bond_atom_site_label_1
_geom_bond_atom_site_label_2
_geom_bond_distance
_geom_bond_site_symmetry_2
K0 O7 2.643540 1_645
K0 O18 2.643540 1_645
K0 O22 2.713645 1_555
K0 O23 2.713645 1_555
K0 O0 2.732438 1_555
K0 O1 2.732438 1_555
K0 O9 2.815357 1_645
K1 O8 2.643540 1_465
K1 O13 2.643540 1_465
K1 O25 2.713645 1_555
K1 O24 2.713645 1_555
K1 O3 2.732438 1_555
K1 O2 2.732438 1_555
K1 O16 2.815357 1_465
O0 Sb6 1.922772 1_555
O0 Sb4 1.960342 1_545
O1 Sb7 1.922772 1_555
O1 Sb2 1.960342 1_545
O2 Sb8 1.922772 1_555
O2 Sb3 1.960342 1_455
O3 Sb9 1.922772 1_555
O3 Sb5 1.960342 1_455
O4 Sb0 2.051687 1_555
O4 Sb6 2.074973 1_554
O4 Sb9 2.074973 1_555
O5 Sb1 2.051687 1_555
O5 Sb8 2.074973 1_555
O5 Sb7 2.074973 1_555
O6 Sb2 1.932239 1_555
O6 Sb7 1.939675 1_555
O7 Sb0 1.908204 1_566
O7 Sb4 1.986718 1_555
O8 Sb1 1.908204 1_655
O8 Sb3 1.986718 1_555
O9 Sb4 1.928319 1_555
O9 Sb2 1.928319 1_555
O10 Sb1 2.029177 1_655
O10 Sb7 2.050667 1_555
O10 Sb3 2.159059 1_555
O11 Sb3 1.932239 1_555
O11 Sb8 1.939675 1_555
O12 Sb0 2.029177 1_566
O12 Sb9 2.050667 1_556
O12 Sb4 2.159059 1_555
O13 Sb0 1.908204 1_655
O13 Sb5 1.986718 1_555
O14 Sb4 1.932239 1_555
O14 Sb6 1.939675 1_555
O15 Sb5 1.932239 1_555
O15 Sb9 1.939675 1_555
O16 Sb3 1.928319 1_555
O16 Sb5 1.928319 1_555
O17 Sb0 2.029177 1_655
O17 Sb6 2.050667 1_554
O17 Sb5 2.159059 1_555
O18 Sb1 1.908204 1_565
O18 Sb2 1.986718 1_555
O19 Sb1 2.029177 1_565
O19 Sb8 2.050667 1_555
O19 Sb2 2.159059 1_555
O20 Sb0 2.047810 1_665
O20 Sb6 2.075697 1_554
O20 Sb9 2.075697 1_555
O21 Sb1 2.047810 1_665
O21 Sb8 2.075697 1_555
O21 Sb7 2.075697 1_555
O22 Sb6 1.921991 1_555
O22 Sb4 1.959213 1_655
O23 Sb7 1.921991 1_555
O23 Sb2 1.959213 1_655
O24 Sb8 1.921991 1_555
O24 Sb3 1.959213 1_565
O25 Sb9 1.921991 1_555
O25 Sb5 1.959213 1_565
