# generated using pymatgen
data_MgV8(PO4)12
_symmetry_space_group_name_H-M   'P 1'
_cell_length_a   8.47477654
_cell_length_b   8.61964843
_cell_length_c   11.95492076
_cell_angle_alpha   90.00709699
_cell_angle_beta   89.48204924
_cell_angle_gamma   90.52369155
_symmetry_Int_Tables_number   1
_chemical_formula_structural   MgV8(PO4)12
_chemical_formula_sum   'Mg1 V8 P12 O48'
_cell_volume   873.22995042
_cell_formula_units_Z   1
loop_
 _symmetry_equiv_pos_site_id
 _symmetry_equiv_pos_as_xyz
  1  'x, y, z'
loop_
 _atom_site_type_symbol
 _atom_site_label
 _atom_site_symmetry_multiplicity
 _atom_site_fract_x
 _atom_site_fract_y
 _atom_site_fract_z
 _atom_site_occupancy
  Mg  Mg0  1  0.78592600  0.84132800  0.34044600  1
  V  V0  1  0.24251200  0.97216300  0.38776400  1
  V  V1  1  0.25495000  0.46944800  0.11569700  1
  V  V2  1  0.24969100  0.03348200  0.88122800  1
  V  V3  1  0.25924500  0.52640500  0.62019500  1
  V  V4  1  0.74962800  0.46483200  0.38306600  1
  V  V5  1  0.74982700  0.97337800  0.10712900  1
  V  V6  1  0.74771900  0.53354000  0.88352600  1
  V  V7  1  0.75412100  0.02856200  0.61966700  1
  P  P0  1  0.03194200  0.25431300  0.50693200  1
  P  P1  1  0.10840900  0.11486900  0.14390000  1
  P  P2  1  0.11177900  0.38658800  0.85766400  1
  P  P3  1  0.39479000  0.61561400  0.35706100  1
  P  P4  1  0.38510300  0.88601600  0.64275900  1
  P  P5  1  0.46825600  0.75219900  0.99117500  1
  P  P6  1  0.53049600  0.25415800  0.00311300  1
  P  P7  1  0.60996300  0.10896400  0.35761500  1
  P  P8  1  0.61141600  0.38352000  0.64295700  1
  P  P9  1  0.88926100  0.61188300  0.14418200  1
  P  P10  1  0.97041000  0.74984400  0.50702700  1
  P  P11  1  0.89550500  0.88402100  0.85191900  1
  O  O0  1  0.06701700  0.60430300  0.12526800  1
  O  O1  1  0.03829300  0.84356200  0.40541300  1
  O  O2  1  0.08027000  0.63870800  0.56492100  1
  O  O3  1  0.07311400  0.91811600  0.83027100  1
  O  O4  1  0.11593700  0.14015700  0.42672800  1
  O  O5  1  0.12833200  0.29322500  0.15649200  1
  O  O6  1  0.15099700  0.06835300  0.02220400  1
  O  O7  1  0.15577900  0.21706200  0.82505200  1
  O  O8  1  0.16067100  0.49453700  0.75727300  1
  O  O9  1  0.16608500  0.34396300  0.56694000  1
  O  O10  1  0.20719200  0.02439100  0.22716100  1
  O  O11  1  0.21083400  0.43707300  0.95714500  1
  O  O12  1  0.30586900  0.51492600  0.27322800  1
  O  O13  1  0.27617800  0.93154200  0.54741700  1
  O  O14  1  0.33451600  0.84897300  0.93940400  1
  O  O15  1  0.35483100  0.56091900  0.47774300  1
  O  O16  1  0.34688900  0.99363500  0.74416600  1
  O  O17  1  0.93441400  0.39725400  0.87709200  1
  O  O18  1  0.34616600  0.71468400  0.67515800  1
  O  O19  1  0.39088500  0.63577200  0.07309600  1
  O  O20  1  0.43299100  0.32529000  0.09808500  1
  O  O21  1  0.43643600  0.09625100  0.39015700  1
  O  O22  1  0.43278700  0.41538600  0.66581000  1
  O  O23  1  0.42632400  0.14652800  0.92839400  1
  O  O24  1  0.57166100  0.86168400  0.06429300  1
  O  O25  1  0.57571100  0.61376800  0.33993200  1
  O  O26  1  0.56164700  0.89864700  0.61544800  1
  O  O27  1  0.56522700  0.67968000  0.89680900  1
  O  O28  1  0.60492700  0.37539200  0.92244300  1
  O  O29  1  0.65230500  0.27618500  0.32781600  1
  O  O30  1  0.62818000  0.20505800  0.65182000  1
  O  O31  1  0.64909900  0.99608900  0.25845300  1
  O  O32  1  0.64914400  0.43362000  0.52236500  1
  O  O33  1  0.66657100  0.16212500  0.05133400  1
  O  O34  1  0.72192900  0.03517100  0.44814200  1
  O  O35  1  0.71121000  0.47511700  0.72467600  1
  O  O36  1  0.79172000  0.57190200  0.04141300  1
  O  O37  1  0.79164500  0.98286700  0.77457400  1
  O  O38  1  0.83016300  0.66595700  0.44687100  1
  O  O39  1  0.84070700  0.50176300  0.24303500  1
  O  O40  1  0.84148300  0.77835000  0.18478900  1
  O  O41  1  0.85875000  0.92369300  0.97327000  1
  O  O42  1  0.86898800  0.70758500  0.83288500  1
  O  O43  1  0.89405200  0.85766900  0.59376700  1
  O  O44  1  0.92978800  0.07842400  0.16331900  1
  O  O45  1  0.93795000  0.36548100  0.43472500  1
  O  O46  1  0.93097700  0.17399100  0.59730400  1
  O  O47  1  0.34537900  0.78940900  0.34642300  1
loop_
_geom_bond_atom_site_label_1
_geom_bond_atom_site_label_2
_geom_bond_distance
_geom_bond_site_symmetry_2
Mg0 O40 1.991928 1_555
Mg0 O38 2.015889 1_555
Mg0 O31 2.033254 1_555
Mg0 O34 2.178756 1_565
Mg0 O1 2.281916 1_655
Mg0 O25 2.637730 1_555
O0 P9 1.523287 1_455
O0 V1 1.982788 1_555
O1 P10 1.561522 1_455
O1 V0 2.055973 1_555
O2 P10 1.513821 1_455
O2 V3 1.928580 1_555
O3 P11 1.550437 1_455
O3 V2 1.894324 1_565
O4 P0 1.547427 1_555
O4 V0 1.866466 1_545
O5 P1 1.552521 1_555
O5 V1 1.912469 1_555
O6 P1 1.549410 1_555
O6 V2 1.899826 1_554
O7 P2 1.559969 1_555
O7 V2 1.902990 1_555
O8 P2 1.569114 1_555
O8 V3 1.852033 1_555
O9 P0 1.550074 1_555
O9 V3 1.867574 1_555
O10 P1 1.525464 1_555
O10 V0 1.997929 1_545
O11 P2 1.523064 1_555
O11 V1 1.954805 1_556
O12 P3 1.525469 1_555
O12 V1 1.974338 1_555
O13 P4 1.526777 1_555
O13 V0 1.964368 1_555
O14 P5 1.547128 1_555
O14 V2 1.886817 1_565
O15 P3 1.551410 1_555
O15 V3 1.901503 1_555
O16 P4 1.559875 1_555
O16 V2 1.860653 1_565
O17 P2 1.522499 1_655
O17 V6 1.980159 1_555
O18 P4 1.558472 1_555
O18 V3 1.896001 1_555
O19 P5 1.540398 1_554
O19 V1 1.897702 1_555
O20 P6 1.529699 1_555
O20 V1 1.973190 1_555
O21 P7 1.520773 1_555
O21 V0 1.953082 1_545
O22 P8 1.562660 1_555
O22 V3 1.848384 1_555
O23 P6 1.561114 1_556
O23 V2 1.869941 1_555
O24 P5 1.556016 1_554
O24 V5 1.859111 1_555
O25 P3 1.545269 1_555
O25 V4 2.033442 1_555
O26 P4 1.531399 1_555
O26 V7 1.971131 1_565
O27 P5 1.526844 1_555
O27 V6 2.008738 1_555
O28 P6 1.548283 1_556
O28 V6 1.870550 1_555
O29 P7 1.523690 1_555
O29 V4 1.935388 1_555
O30 P8 1.549846 1_555
O30 V7 1.903550 1_555
O31 P7 1.568590 1_565
O31 V5 2.003698 1_555
O32 P8 1.535065 1_555
O32 V4 1.881782 1_555
O33 P6 1.523279 1_555
O33 V5 1.902480 1_545
O34 P7 1.583032 1_555
O34 V7 2.071939 1_555
O35 P8 1.515119 1_555
O35 V6 1.990783 1_555
O36 P9 1.524661 1_555
O36 V6 1.954857 1_554
O37 P11 1.544109 1_555
O37 V7 1.923258 1_565
O38 P10 1.565990 1_555
O38 V4 2.010121 1_555
O39 P9 1.565644 1_555
O39 V4 1.863298 1_555
O40 P9 1.570163 1_555
O40 V5 2.080535 1_555
O41 P11 1.520614 1_555
O41 V5 1.891229 1_556
O42 P11 1.552338 1_555
O42 V6 1.906346 1_555
O43 P10 1.535090 1_555
O43 V7 1.922814 1_565
O44 P1 1.558545 1_655
O44 V5 1.894795 1_545
O45 P0 1.524620 1_655
O45 V4 1.924808 1_555
O46 P0 1.533420 1_655
O46 V7 1.961580 1_555
O47 P3 1.564660 1_555
O47 V0 1.871595 1_555
