# generated using pymatgen
data_Na2CaSi2Sn3(SO6)4
_symmetry_space_group_name_H-M   'P 1'
_cell_length_a   8.89819032
_cell_length_b   8.90207526
_cell_length_c   23.30123262
_cell_angle_alpha   89.07335241
_cell_angle_beta   90.33337514
_cell_angle_gamma   119.84487530
_symmetry_Int_Tables_number   1
_chemical_formula_structural   Na2CaSi2Sn3(SO6)4
_chemical_formula_sum   'Na6 Ca3 Si6 Sn9 S12 O72'
_cell_volume   1600.74069274
_cell_formula_units_Z   3
loop_
 _symmetry_equiv_pos_site_id
 _symmetry_equiv_pos_as_xyz
  1  'x, y, z'
loop_
 _atom_site_type_symbol
 _atom_site_label
 _atom_site_symmetry_multiplicity
 _atom_site_fract_x
 _atom_site_fract_y
 _atom_site_fract_z
 _atom_site_occupancy
  Na  Na0  1  0.96684532  0.97484863  0.50584880  1
  Na  Na1  1  0.04334825  0.03974714  0.99642687  1
  Na  Na2  1  0.66952702  0.30453760  0.83582004  1
  Na  Na3  1  0.65933598  0.30446119  0.33609048  1
  Na  Na4  1  0.33794516  0.65138946  0.16098555  1
  Na  Na5  1  0.37656166  0.68389361  0.67257160  1
  Ca  Ca0  1  0.97730220  0.98727951  0.64795048  1
  Ca  Ca1  1  0.01359886  0.01344052  0.13908065  1
  Ca  Ca2  1  0.34924887  0.68303308  0.31871321  1
  Si  Si0  1  0.69329012  0.99285122  0.75046888  1
  Si  Si1  1  0.66267900  0.61338139  0.58180482  1
  Si  Si2  1  0.38483216  0.35178795  0.07762105  1
  Si  Si3  1  0.03832859  0.37403477  0.91669858  1
  Si  Si4  1  0.32387662  0.95621057  0.91656975  1
  Si  Si5  1  0.63924544  0.97807386  0.41639859  1
  Sn  Sn0  1  0.99006553  0.99803589  0.35129522  1
  Sn  Sn1  1  0.99928598  0.01412793  0.85341376  1
  Sn  Sn2  1  0.66656776  0.33143634  0.68863746  1
  Sn  Sn3  1  0.65606371  0.33593189  0.18076307  1
  Sn  Sn4  1  0.65769515  0.32278317  0.97448341  1
  Sn  Sn5  1  0.66774225  0.33162387  0.48373417  1
  Sn  Sn6  1  0.32169698  0.65739104  0.01424424  1
  Sn  Sn7  1  0.35817645  0.67358984  0.51959623  1
  Sn  Sn8  1  0.32839448  0.67520269  0.81907571  1
  S  S0  1  0.29931690  0.01306965  0.25123119  1
  S  S1  1  0.71224573  0.69407460  0.24896029  1
  S  S2  1  0.98490948  0.29585207  0.24796656  1
  S  S3  1  0.30056200  0.30242739  0.75140576  1
  S  S4  1  0.99855482  0.69947671  0.75200767  1
  S  S5  1  0.97234677  0.34961232  0.58003768  1
  S  S6  1  0.37642397  0.03431565  0.58216536  1
  S  S7  1  0.95637148  0.61118615  0.08137527  1
  S  S8  1  0.65196257  0.03751900  0.08223836  1
  S  S9  1  0.62747255  0.66954739  0.91613126  1
  S  S10  1  0.32802208  0.35903378  0.41741943  1
  S  S11  1  0.03776420  0.66952785  0.41854021  1
  O  O0  1  0.21663639  0.03164585  0.30642170  1
  O  O1  1  0.81210184  0.77453046  0.30430483  1
  O  O2  1  0.96086156  0.19206918  0.30358521  1
  O  O3  1  0.22283767  0.19156126  0.80401868  1
  O  O4  1  0.98129709  0.78449849  0.80377333  1
  O  O5  1  0.81752681  0.02664430  0.80741514  1
  O  O6  1  0.75655270  0.96470391  0.69034147  1
  O  O7  1  0.20475282  0.22550897  0.69953852  1
  O  O8  1  0.02461794  0.79735528  0.69935799  1
  O  O9  1  0.80184719  0.79790690  0.19894041  1
  O  O10  1  0.00040792  0.20779531  0.19860241  1
  O  O11  1  0.20211103  0.01014867  0.20101418  1
  O  O12  1  0.88846233  0.36693360  0.63221235  1
  O  O13  1  0.48675059  0.11178079  0.63334737  1
  O  O14  1  0.63744464  0.49465986  0.64001181  1
  O  O15  1  0.88393293  0.50719557  0.13726786  1
  O  O16  1  0.63518111  0.11972653  0.13708910  1
  O  O17  1  0.48762823  0.38016913  0.14155111  1
  O  O18  1  0.49847413  0.34019294  0.02619084  1
  O  O19  1  0.85831392  0.51669226  0.03145734  1
  O  O20  1  0.68361386  0.14918467  0.03146866  1
  O  O21  1  0.46203823  0.12869284  0.52786362  1
  O  O22  1  0.67015131  0.51920509  0.52289589  1
  O  O23  1  0.86323377  0.31742169  0.52770221  1
  O  O24  1  0.55139539  0.69726660  0.96861640  1
  O  O25  1  0.15508877  0.44781263  0.97446307  1
  O  O26  1  0.30260148  0.84723935  0.97675915  1
  O  O27  1  0.55151257  0.85346835  0.47416152  1
  O  O28  1  0.29385859  0.43480332  0.46905399  1
  O  O29  1  0.14174854  0.68741727  0.47091444  1
  O  O30  1  0.10944567  0.64171292  0.36675770  1
  O  O31  1  0.53737330  0.91565537  0.35804112  1
  O  O32  1  0.34969317  0.45838120  0.36521245  1
  O  O33  1  0.12694669  0.48495522  0.85838327  1
  O  O34  1  0.36976971  0.87971485  0.86156819  1
  O  O35  1  0.51955870  0.63906407  0.86470726  1
  O  O36  1  0.02744260  0.83423815  0.41364900  1
  O  O37  1  0.83432067  0.99302819  0.41243064  1
  O  O38  1  0.17570411  0.17826463  0.41262015  1
  O  O39  1  0.00761045  0.17776099  0.91287812  1
  O  O40  1  0.14292932  0.96146962  0.90856248  1
  O  O41  1  0.80069617  0.82450114  0.91011034  1
  O  O42  1  0.01104861  0.20956282  0.58345435  1
  O  O43  1  0.21003732  0.02599857  0.58559047  1
  O  O44  1  0.82750849  0.80192142  0.57953419  1
  O  O45  1  0.96182748  0.77720539  0.08443316  1
  O  O46  1  0.79762884  0.00695185  0.08679728  1
  O  O47  1  0.19773523  0.18456314  0.07649183  1
  O  O48  1  0.67402159  0.17332634  0.74688092  1
  O  O49  1  0.48092284  0.32680935  0.74909160  1
  O  O50  1  0.83521070  0.52394939  0.74971436  1
  O  O51  1  0.70650884  0.52039877  0.24830749  1
  O  O52  1  0.81759125  0.30351012  0.24439027  1
  O  O53  1  0.47780131  0.17452573  0.25007406  1
  O  O54  1  0.64993371  0.51614290  0.92125261  1
  O  O55  1  0.85173315  0.37026496  0.92221244  1
  O  O56  1  0.49063443  0.15336238  0.91988330  1
  O  O57  1  0.67102602  0.17560155  0.42647652  1
  O  O58  1  0.48543852  0.34142891  0.42414865  1
  O  O59  1  0.85668203  0.52295675  0.42486307  1
  O  O60  1  0.38119666  0.53723722  0.07579532  1
  O  O61  1  0.13525265  0.63539167  0.08074814  1
  O  O62  1  0.48561758  0.87258116  0.07887239  1
  O  O63  1  0.35338118  0.85469560  0.57859616  1
  O  O64  1  0.47439278  0.61371668  0.58080594  1
  O  O65  1  0.13500374  0.52222637  0.57253319  1
  O  O66  1  0.31750940  0.85982278  0.25398162  1
  O  O67  1  0.53519334  0.66341748  0.25309745  1
  O  O68  1  0.13230747  0.47052291  0.25348563  1
  O  O69  1  0.31810493  0.47631700  0.75868438  1
  O  O70  1  0.14756292  0.66687714  0.75683083  1
  O  O71  1  0.49910896  0.82100053  0.75993939  1
loop_
_geom_bond_atom_site_label_1
_geom_bond_atom_site_label_2
_geom_bond_distance
_geom_bond_site_symmetry_2
Na0 O44 2.212366 1_555
Na0 O37 2.510723 1_555
Na0 O42 2.662029 1_665
Na0 O36 2.691706 1_655
Na0 O43 2.709688 1_665
Na0 O38 2.832355 1_665
Na1 O47 2.305418 1_556
Na1 O39 2.388492 1_555
Na1 O40 2.478747 1_545
Na1 O41 2.887058 1_445
Na1 O45 2.892856 1_446
Na1 O46 2.949295 1_456
Na2 O48 2.405516 1_555
Na2 O56 2.449623 1_555
Na2 O55 2.465619 1_555
Na2 O50 2.656253 1_555
Na2 O49 2.686724 1_555
Na2 O54 2.827340 1_555
Na3 O57 2.408413 1_555
Na3 O53 2.478315 1_555
Na3 O52 2.568293 1_555
Na3 O51 2.671140 1_555
Na3 O58 2.697856 1_555
Na3 O59 2.798919 1_555
Na4 O60 2.363161 1_555
Na4 O61 2.546072 1_555
Na4 O62 2.568439 1_555
Na4 O67 2.734093 1_555
Na4 O68 2.754541 1_555
Na4 O66 2.939714 1_555
Na5 O71 2.356486 1_555
Na5 O64 2.515224 1_555
Na5 O69 2.578156 1_555
Na5 O63 2.710834 1_555
Na5 O70 2.785587 1_555
Ca0 O6 2.120772 1_555
Ca0 O44 2.216319 1_555
Ca0 O8 2.260040 1_655
Ca0 O42 2.362612 1_665
Ca0 O7 2.412630 1_665
Ca0 O43 2.413976 1_665
Ca1 O47 2.145650 1_555
Ca1 O11 2.217339 1_555
Ca1 O46 2.246142 1_455
Ca1 O10 2.283078 1_555
Ca1 O45 2.317700 1_445
Ca1 O9 2.350081 1_445
Ca2 O31 2.126863 1_555
Ca2 O32 2.260790 1_555
Ca2 O30 2.274865 1_555
Ca2 O66 2.278661 1_555
Ca2 O67 2.330526 1_555
Ca2 O68 2.457519 1_555
O0 S0 1.536686 1_555
O0 Sn0 2.159026 1_445
O1 S1 1.532537 1_555
O1 Sn0 2.140004 1_555
O2 S2 1.531879 1_555
O2 Sn0 2.160614 1_545
O3 S3 1.498890 1_555
O3 Sn1 2.148755 1_455
O4 S4 1.482811 1_555
O4 Sn1 2.300186 1_565
O5 Si0 1.654733 1_545
O5 Sn1 1.983002 1_555
O6 Si0 1.582248 1_555
O7 S3 1.445707 1_555
O8 S4 1.444176 1_455
O9 S1 1.446017 1_555
O10 S2 1.447470 1_455
O11 S0 1.443892 1_555
O12 S5 1.479901 1_555
O12 Sn2 2.263350 1_555
O13 S6 1.483499 1_555
O13 Sn2 2.233148 1_555
O14 Si1 1.651638 1_555
O14 Sn2 1.944307 1_555
O15 S7 1.531497 1_555
O15 Sn3 2.088052 1_555
O16 S8 1.527288 1_555
O16 Sn3 2.116536 1_555
O17 Si2 1.698783 1_555
O17 Sn3 1.948357 1_555
O18 Si2 1.609757 1_555
O18 Sn4 1.930645 1_554
O19 S7 1.452979 1_555
O19 Sn4 2.215493 1_554
O20 S8 1.467699 1_555
O20 Sn4 2.118806 1_554
O21 S6 1.492310 1_555
O21 Sn5 2.083715 1_555
O22 Si1 1.638661 1_555
O22 Sn5 1.906572 1_555
O23 S5 1.494162 1_555
O23 Sn5 2.070145 1_555
O24 S9 1.483393 1_555
O24 Sn6 2.173672 1_556
O25 Si3 1.629606 1_555
O25 Sn6 1.955730 1_556
O26 Si4 1.649287 1_555
O26 Sn6 1.970882 1_556
O27 Si5 1.659365 1_555
O27 Sn7 1.966989 1_555
O28 S10 1.493160 1_555
O28 Sn7 2.257292 1_555
O29 S11 1.489064 1_555
O29 Sn7 2.284002 1_555
O30 S11 1.449080 1_555
O31 Si5 1.577429 1_555
O32 S10 1.448232 1_555
O33 Si3 1.623973 1_555
O33 Sn8 1.966640 1_555
O34 Si4 1.607511 1_555
O34 Sn8 1.953805 1_555
O35 S9 1.472840 1_555
O35 Sn8 2.154077 1_555
O36 S11 1.516529 1_555
O36 Sn0 2.180894 1_455
O37 Si5 1.676545 1_555
O37 Sn0 1.977695 1_555
O38 S10 1.507419 1_555
O38 Sn0 2.180253 1_445
O39 Si3 1.632453 1_555
O39 Sn1 2.000987 1_455
O40 Si4 1.643376 1_555
O40 Sn1 2.015568 1_465
O41 S9 1.475921 1_555
O41 Sn1 2.168769 1_565
O42 S5 1.450197 1_455
O43 S6 1.447733 1_555
O44 Si1 1.587099 1_555
O45 S7 1.457265 1_555
O46 S8 1.453920 1_555
O47 Si2 1.588224 1_555
O48 Si0 1.699181 1_545
O48 Sn2 1.964026 1_555
O49 S3 1.509834 1_555
O49 Sn2 2.161544 1_555
O50 S4 1.516027 1_555
O50 Sn2 2.169942 1_555
O51 S1 1.521639 1_555
O51 Sn3 2.171840 1_555
O52 S2 1.525647 1_555
O52 Sn3 2.172895 1_555
O53 S0 1.521889 1_555
O53 Sn3 2.207993 1_555
O54 S9 1.478245 1_555
O54 Sn4 2.134097 1_555
O55 Si3 1.649642 1_655
O55 Sn4 1.981080 1_555
O56 Si4 1.642871 1_545
O56 Sn4 1.977791 1_555
O57 Si5 1.656733 1_545
O57 Sn5 1.952118 1_555
O58 S10 1.492082 1_555
O58 Sn5 2.162767 1_555
O59 S11 1.491468 1_655
O59 Sn5 2.170368 1_555
O60 Si2 1.667075 1_555
O60 Sn6 1.996635 1_555
O61 S7 1.496332 1_455
O61 Sn6 2.211051 1_555
O62 S8 1.480602 1_565
O62 Sn6 2.313368 1_555
O63 S6 1.511131 1_565
O63 Sn7 2.152185 1_555
O64 Si1 1.676920 1_555
O64 Sn7 1.973459 1_555
O65 S5 1.505747 1_455
O65 Sn7 2.142933 1_555
O66 S0 1.451981 1_565
O67 S1 1.462457 1_555
O68 S2 1.459195 1_455
O69 S3 1.488975 1_555
O69 Sn8 2.245210 1_555
O70 S4 1.495009 1_455
O70 Sn8 2.134442 1_555
O71 Si0 1.654439 1_555
O71 Sn8 1.973574 1_555
