# generated using pymatgen
data_MgCr(CoO3)2
_symmetry_space_group_name_H-M   'P 1'
_cell_length_a   6.64290514
_cell_length_b   2.89374306
_cell_length_c   5.88619609
_cell_angle_alpha   89.99759325
_cell_angle_beta   101.96177615
_cell_angle_gamma   77.42160264
_symmetry_Int_Tables_number   1
_chemical_formula_structural   MgCr(CoO3)2
_chemical_formula_sum   'Mg1 Cr1 Co2 O6'
_cell_volume   107.91486355
_cell_formula_units_Z   1
loop_
 _symmetry_equiv_pos_site_id
 _symmetry_equiv_pos_as_xyz
  1  'x, y, z'
loop_
 _atom_site_type_symbol
 _atom_site_label
 _atom_site_symmetry_multiplicity
 _atom_site_fract_x
 _atom_site_fract_y
 _atom_site_fract_z
 _atom_site_occupancy
  Mg  Mg0  1  0.32870600  0.33424600  0.83072000  1
  Cr  Cr0  1  0.33442600  0.33147800  0.33215200  1
  Co  Co0  1  0.97969800  0.00882400  0.02695900  1
  Co  Co1  1  0.69765300  0.64996700  0.65477900  1
  O  O0  1  0.02342500  0.48700300  0.23899600  1
  O  O1  1  0.34472700  0.82629600  0.57575100  1
  O  O2  1  0.66042000  0.16861000  0.86016700  1
  O  O3  1  0.32643900  0.83543300  0.08835800  1
  O  O4  1  0.65220500  0.17258600  0.44144600  1
  O  O5  1  0.99262500  0.50236900  0.80044100  1
loop_
_geom_bond_atom_site_label_1
_geom_bond_atom_site_label_2
_geom_bond_distance
_geom_bond_site_symmetry_2
Mg0 O3 2.098162 1_546
Mg0 O3 2.098464 1_556
Mg0 O1 2.102978 1_545
Mg0 O1 2.103128 1_555
Mg0 O2 2.120623 1_555
Mg0 O5 2.148193 1_455
Cr0 O0 1.974031 1_555
Cr0 O4 2.023805 1_555
Cr0 O1 2.028082 1_555
Cr0 O1 2.028129 1_545
Cr0 O3 2.030602 1_555
Cr0 O3 2.030844 1_545
Co0 O0 1.892294 1_645
Co0 O0 1.892548 1_655
Co0 O5 1.981311 1_554
Co0 O5 1.981361 1_544
Co0 O2 2.094210 1_554
Co0 O3 2.199867 1_645
Co1 O4 1.897086 1_565
Co1 O4 1.897615 1_555
Co1 O5 1.922530 1_555
Co1 O2 1.933091 1_555
Co1 O2 1.933294 1_565
Co1 O1 2.236088 1_555
