# generated using pymatgen
data_CoP2O7
_symmetry_space_group_name_H-M   'P 1'
_cell_length_a   7.82543700
_cell_length_b   6.81432600
_cell_length_c   9.21354856
_cell_angle_alpha   70.53921274
_cell_angle_beta   90.00000000
_cell_angle_gamma   90.00000000
_symmetry_Int_Tables_number   1
_chemical_formula_structural   CoP2O7
_chemical_formula_sum   'Co4 P8 O28'
_cell_volume   463.24434484
_cell_formula_units_Z   4
loop_
 _symmetry_equiv_pos_site_id
 _symmetry_equiv_pos_as_xyz
  1  'x, y, z'
loop_
 _atom_site_type_symbol
 _atom_site_label
 _atom_site_symmetry_multiplicity
 _atom_site_fract_x
 _atom_site_fract_y
 _atom_site_fract_z
 _atom_site_occupancy
  Co  Co0  1  0.22240900  0.28058100  0.00484400  1
  Co  Co1  1  0.27759100  0.28058100  0.50484400  1
  Co  Co2  1  0.72240900  0.71941900  0.49515600  1
  Co  Co3  1  0.77759100  0.71941900  0.99515600  1
  P  P0  1  0.53694500  0.93014100  0.70404000  1
  P  P1  1  0.90532500  0.46745500  0.79590800  1
  P  P2  1  0.03694500  0.06985900  0.79596000  1
  P  P3  1  0.40532500  0.53254500  0.70409200  1
  P  P4  1  0.09467500  0.53254500  0.20409200  1
  P  P5  1  0.59467500  0.46745500  0.29590800  1
  P  P6  1  0.46305500  0.06985900  0.29596000  1
  P  P7  1  0.96305500  0.93014100  0.20404000  1
  O  O0  1  0.74115500  0.51701100  0.38909100  1
  O  O1  1  0.60507700  0.89684800  0.86578200  1
  O  O2  1  0.75884500  0.51701100  0.88909100  1
  O  O3  1  0.25884500  0.48298900  0.61090900  1
  O  O4  1  0.38511400  0.76874700  0.70288500  1
  O  O5  1  0.88511400  0.23125300  0.79711500  1
  O  O6  1  0.39492300  0.10315200  0.13421800  1
  O  O7  1  0.04723100  0.14613700  0.15073800  1
  O  O8  1  0.68006300  0.91605000  0.59130200  1
  O  O9  1  0.95276900  0.85386300  0.84926200  1
  O  O10  1  0.54723100  0.85386300  0.34926200  1
  O  O11  1  0.81993700  0.91605000  0.09130200  1
  O  O12  1  0.41775000  0.48040500  0.36493600  1
  O  O13  1  0.61488600  0.23125300  0.29711500  1
  O  O14  1  0.18006300  0.08395000  0.90869800  1
  O  O15  1  0.90769100  0.60381300  0.62351600  1
  O  O16  1  0.91775000  0.51959500  0.13506400  1
  O  O17  1  0.08225000  0.48040500  0.86493600  1
  O  O18  1  0.31993700  0.08395000  0.40869800  1
  O  O19  1  0.58225000  0.51959500  0.63506400  1
  O  O20  1  0.40769100  0.39618700  0.87648400  1
  O  O21  1  0.89492300  0.89684800  0.36578200  1
  O  O22  1  0.59230900  0.60381300  0.12351600  1
  O  O23  1  0.45276900  0.14613700  0.65073800  1
  O  O24  1  0.09230900  0.39618700  0.37648400  1
  O  O25  1  0.10507700  0.10315200  0.63421800  1
  O  O26  1  0.11488600  0.76874700  0.20288500  1
  O  O27  1  0.24115500  0.48298900  0.11090900  1
loop_
_geom_bond_atom_site_label_1
_geom_bond_atom_site_label_2
_geom_bond_distance
_geom_bond_site_symmetry_2
Co0 O14 1.865685 1_554
Co0 O20 1.871019 1_554
Co0 O17 1.883931 1_554
Co0 O7 1.924798 1_555
Co0 O6 1.935166 1_555
Co0 O27 1.943457 1_555
Co1 O18 1.865685 1_555
Co1 O24 1.871019 1_555
Co1 O12 1.883931 1_555
Co1 O23 1.924798 1_555
Co1 O25 1.935166 1_555
Co1 O3 1.943457 1_555
Co2 O8 1.865685 1_555
Co2 O15 1.871019 1_555
Co2 O19 1.883931 1_555
Co2 O10 1.924798 1_555
Co2 O21 1.935166 1_555
Co2 O0 1.943457 1_555
Co3 O11 1.865685 1_556
Co3 O22 1.871019 1_556
Co3 O16 1.883931 1_556
Co3 O9 1.924798 1_555
Co3 O1 1.935166 1_555
Co3 O2 1.943457 1_555
O0 P5 1.535661 1_555
O1 P0 1.526829 1_555
O2 P1 1.535661 1_555
O3 P3 1.535661 1_555
O4 P3 1.613656 1_555
O4 P0 1.621462 1_555
O5 P1 1.613656 1_555
O5 P2 1.621462 1_655
O6 P6 1.526829 1_555
O7 P7 1.536175 1_445
O8 P0 1.552071 1_555
O9 P2 1.536175 1_665
O10 P6 1.536175 1_565
O11 P7 1.552071 1_555
O12 P5 1.538361 1_555
O13 P5 1.613656 1_555
O13 P6 1.621462 1_555
O14 P2 1.552071 1_555
O15 P1 1.550212 1_555
O16 P4 1.538361 1_655
O17 P1 1.538361 1_455
O18 P6 1.552071 1_555
O19 P3 1.538361 1_555
O20 P3 1.550212 1_555
O21 P7 1.526829 1_555
O22 P5 1.550212 1_555
O23 P0 1.536175 1_545
O24 P4 1.550212 1_555
O25 P2 1.526829 1_555
O26 P4 1.613656 1_555
O26 P7 1.621462 1_455
O27 P4 1.535661 1_555
