# generated using pymatgen
data_U(MnGe)2
_symmetry_space_group_name_H-M   'P 1'
_cell_length_a   6.14798531
_cell_length_b   6.14798531
_cell_length_c   6.14798531
_cell_angle_alpha   140.49526622
_cell_angle_beta   140.49526622
_cell_angle_gamma   57.10207407
_symmetry_Int_Tables_number   1
_chemical_formula_structural   U(MnGe)2
_chemical_formula_sum   'U1 Mn2 Ge2'
_cell_volume   93.25368029
_cell_formula_units_Z   1
loop_
 _symmetry_equiv_pos_site_id
 _symmetry_equiv_pos_as_xyz
  1  'x, y, z'
loop_
 _atom_site_type_symbol
 _atom_site_label
 _atom_site_symmetry_multiplicity
 _atom_site_fract_x
 _atom_site_fract_y
 _atom_site_fract_z
 _atom_site_occupancy
  U  U0  1  -0.00000000  -0.00000000  -0.00000000  1
  Mn  Mn0  1  0.75000000  0.25000000  0.50000000  1
  Mn  Mn1  1  0.25000000  0.75000000  0.50000000  1
  Ge  Ge0  1  0.61461347  0.61461347  -0.00000000  1
  Ge  Ge1  1  0.38538653  0.38538653  0.00000000  1
loop_
_geom_bond_atom_site_label_1
_geom_bond_atom_site_label_2
_geom_bond_distance
_geom_bond_site_symmetry_2
Mn0 U0 3.407043 1_655
Mn0 U0 3.407043 1_555
Mn0 U0 3.407043 1_656
Mn0 U0 3.407043 1_666
Mn1 U0 3.407043 1_566
Mn1 U0 3.407043 1_555
Mn1 U0 3.407043 1_565
Mn1 U0 3.407043 1_666
Ge0 Ge1 2.475807 1_555
Ge0 Mn0 2.540719 1_565
Ge0 Mn1 2.540719 1_655
Ge0 Mn1 2.540719 1_554
Ge0 Mn0 2.540719 1_554
Ge0 U0 3.188489 1_554
Ge0 U0 3.188489 1_666
Ge0 U0 3.188489 1_655
Ge0 U0 3.188489 1_565
Ge1 Mn0 2.540719 1_454
Ge1 Mn1 2.540719 1_544
Ge1 Mn1 2.540719 1_555
Ge1 Mn0 2.540719 1_555
Ge1 U0 3.188489 1_554
Ge1 U0 3.188489 1_666
Ge1 U0 3.188489 1_655
Ge1 U0 3.188489 1_565
