# generated using pymatgen
data_Na8CaSi4Sn3(PO12)2
_symmetry_space_group_name_H-M   'P 1'
_cell_length_a   9.21285440
_cell_length_b   9.22272560
_cell_length_c   22.54375476
_cell_angle_alpha   89.95389465
_cell_angle_beta   89.93228719
_cell_angle_gamma   119.99186190
_symmetry_Int_Tables_number   1
_chemical_formula_structural   Na8CaSi4Sn3(PO12)2
_chemical_formula_sum   'Na24 Ca3 Si12 Sn9 P6 O72'
_cell_volume   1658.99516126
_cell_formula_units_Z   3
loop_
 _symmetry_equiv_pos_site_id
 _symmetry_equiv_pos_as_xyz
  1  'x, y, z'
loop_
 _atom_site_type_symbol
 _atom_site_label
 _atom_site_symmetry_multiplicity
 _atom_site_fract_x
 _atom_site_fract_y
 _atom_site_fract_z
 _atom_site_occupancy
  Na  Na0  1  0.63898510  0.01095667  0.24040523  1
  Na  Na1  1  0.37241118  0.36166197  0.24222279  1
  Na  Na2  1  0.98960164  0.62722152  0.24221692  1
  Na  Na3  1  0.63573851  0.62322671  0.74676527  1
  Na  Na4  1  0.98399268  0.36813334  0.75232018  1
  Na  Na5  1  0.38152165  0.00635513  0.74547763  1
  Na  Na6  1  0.31365784  0.33708469  0.58533640  1
  Na  Na7  1  0.02824306  0.69738969  0.58429272  1
  Na  Na8  1  0.66086308  0.97076963  0.59117542  1
  Na  Na9  1  0.31034088  0.97166955  0.08123509  1
  Na  Na10  1  0.66088593  0.68978947  0.08114685  1
  Na  Na11  1  0.02823085  0.33852853  0.08125366  1
  Na  Na12  1  0.96468178  0.66545714  0.91713798  1
  Na  Na13  1  0.70040644  0.03590089  0.91706910  1
  Na  Na14  1  0.33516840  0.30080363  0.91955847  1
  Na  Na15  1  0.97190445  0.29377359  0.41439155  1
  Na  Na16  1  0.31851238  0.03514002  0.41778049  1
  Na  Na17  1  0.71071665  0.67249895  0.41484784  1
  Na  Na18  1  0.00638528  0.99785644  0.49833414  1
  Na  Na19  1  0.99965029  0.99999504  0.00043656  1
  Na  Na20  1  0.67254277  0.33325045  0.83103745  1
  Na  Na21  1  0.66697196  0.33701097  0.33113939  1
  Na  Na22  1  0.33308193  0.66611141  0.15948251  1
  Na  Na23  1  0.34048444  0.67615630  0.66883898  1
  Ca  Ca0  1  0.00199308  0.99967088  0.35323186  1
  Ca  Ca1  1  0.66496241  0.33318953  0.68409289  1
  Ca  Ca2  1  0.66642810  0.33349265  0.17748977  1
  Si  Si0  1  0.00809595  0.71039332  0.75274171  1
  Si  Si1  1  0.70626953  0.99396674  0.75233896  1
  Si  Si2  1  0.36630005  0.03260788  0.58342625  1
  Si  Si3  1  0.66603927  0.63665876  0.58333855  1
  Si  Si4  1  0.96932610  0.63421062  0.08361223  1
  Si  Si5  1  0.66460074  0.03042207  0.08340973  1
  Si  Si6  1  0.36573079  0.33564463  0.08366070  1
  Si  Si7  1  0.62585340  0.66383986  0.91597403  1
  Si  Si8  1  0.03913321  0.37346093  0.91565013  1
  Si  Si9  1  0.33603103  0.96426350  0.91606703  1
  Si  Si10  1  0.34149351  0.37855762  0.41837897  1
  Si  Si11  1  0.03474324  0.65609542  0.41848750  1
  Sn  Sn0  1  0.99742972  0.99765400  0.85427417  1
  Sn  Sn1  1  0.99860383  0.99254251  0.64928521  1
  Sn  Sn2  1  0.99994806  0.99948881  0.14750286  1
  Sn  Sn3  1  0.66740417  0.33383698  0.98300351  1
  Sn  Sn4  1  0.66499908  0.33819607  0.48367582  1
  Sn  Sn5  1  0.33255253  0.66701332  0.01489706  1
  Sn  Sn6  1  0.33285393  0.66789569  0.51772328  1
  Sn  Sn7  1  0.33039546  0.66266429  0.31674616  1
  Sn  Sn8  1  0.33570543  0.67067119  0.81601052  1
  P  P0  1  0.29611301  0.99185805  0.25224361  1
  P  P1  1  0.69669980  0.70597560  0.25231453  1
  P  P2  1  0.00724264  0.30182601  0.25184586  1
  P  P3  1  0.28295800  0.29161184  0.75157037  1
  P  P4  1  0.96579143  0.33190619  0.58253139  1
  P  P5  1  0.61905682  0.96286684  0.41761007  1
  O  O0  1  0.21817434  0.01228791  0.30855486  1
  O  O1  1  0.79452620  0.78369653  0.30853183  1
  O  O2  1  0.98732665  0.20426793  0.30832923  1
  O  O3  1  0.19946494  0.18373355  0.80728295  1
  O  O4  1  0.98374124  0.80178659  0.81085819  1
  O  O5  1  0.82408679  0.02500801  0.81050013  1
  O  O6  1  0.79248416  0.96730237  0.69125280  1
  O  O7  1  0.17612733  0.21105836  0.69414052  1
  O  O8  1  0.04284355  0.82518520  0.69168334  1
  O  O9  1  0.78448494  0.81824754  0.19596501  1
  O  O10  1  0.03164510  0.21346273  0.19575136  1
  O  O11  1  0.18280139  0.96507493  0.19610168  1
  O  O12  1  0.89536556  0.36810967  0.63731817  1
  O  O13  1  0.47936408  0.09718553  0.64140527  1
  O  O14  1  0.62052362  0.52401025  0.64154958  1
  O  O15  1  0.90725713  0.52926969  0.14396388  1
  O  O16  1  0.62129651  0.09282108  0.14355768  1
  O  O17  1  0.47066535  0.37851454  0.14392470  1
  O  O18  1  0.45237753  0.29477237  0.02626421  1
  O  O19  1  0.84236275  0.54828896  0.02616009  1
  O  O20  1  0.70633911  0.15819558  0.02605851  1
  O  O21  1  0.45416486  0.15475682  0.52409817  1
  O  O22  1  0.70808751  0.55261505  0.52488842  1
  O  O23  1  0.85105616  0.29795514  0.52647518  1
  O  O24  1  0.54407565  0.70274550  0.97344828  1
  O  O25  1  0.15791897  0.45433765  0.97352461  1
  O  O26  1  0.29419023  0.84245684  0.97347705  1
  O  O27  1  0.53676691  0.85356627  0.47290476  1
  O  O28  1  0.31611443  0.46948105  0.47616012  1
  O  O29  1  0.15454081  0.68905619  0.47576656  1
  O  O30  1  0.11944625  0.62511484  0.35790890  1
  O  O31  1  0.50926637  0.88243687  0.36088422  1
  O  O32  1  0.37856370  0.49724273  0.35816392  1
  O  O33  1  0.12091999  0.49259526  0.85679034  1
  O  O34  1  0.37613398  0.88442280  0.85746924  1
  O  O35  1  0.50574436  0.62356407  0.85721567  1
  O  O36  1  0.00665778  0.81466708  0.41775483  1
  O  O37  1  0.79380326  0.98373927  0.41434629  1
  O  O38  1  0.17699487  0.19551957  0.41802968  1
  O  O39  1  0.02122206  0.18616648  0.91193701  1
  O  O40  1  0.16974903  0.98779484  0.91184173  1
  O  O41  1  0.81402994  0.83234453  0.91315783  1
  O  O42  1  0.98361413  0.17209356  0.58691728  1
  O  O43  1  0.18228939  0.02614870  0.58682315  1
  O  O44  1  0.83757168  0.82438737  0.58582446  1
  O  O45  1  0.98363007  0.82112107  0.08847241  1
  O  O46  1  0.83728191  0.01592248  0.08842232  1
  O  O47  1  0.17896141  0.16234924  0.08857334  1
  O  O48  1  0.68128028  0.15453983  0.75138339  1
  O  O49  1  0.45728092  0.31074338  0.74880472  1
  O  O50  1  0.84280921  0.52781755  0.75126192  1
  O  O51  1  0.67223467  0.52875164  0.24728959  1
  O  O52  1  0.85421814  0.32605882  0.24699703  1
  O  O53  1  0.47288635  0.14535669  0.24715151  1
  O  O54  1  0.64426615  0.49557094  0.92195859  1
  O  O55  1  0.85255668  0.35590849  0.92159054  1
  O  O56  1  0.50528209  0.14984645  0.92230972  1
  O  O57  1  0.63102695  0.13729655  0.42210924  1
  O  O58  1  0.51444616  0.36464395  0.42057609  1
  O  O59  1  0.85360793  0.47642614  0.42221723  1
  O  O60  1  0.33981840  0.49792088  0.07396335  1
  O  O61  1  0.15745976  0.65948548  0.07406780  1
  O  O62  1  0.50174176  0.84252322  0.07378136  1
  O  O63  1  0.33357363  0.83972481  0.57535764  1
  O  O64  1  0.50218272  0.66408751  0.57502246  1
  O  O65  1  0.14519435  0.48732804  0.57508598  1
  O  O66  1  0.30701740  0.82500605  0.25357445  1
  O  O67  1  0.52056331  0.69916134  0.25299561  1
  O  O68  1  0.17553635  0.47823666  0.25186093  1
  O  O69  1  0.29308887  0.46564053  0.75445860  1
  O  O70  1  0.18198415  0.69744342  0.75442657  1
  O  O71  1  0.52415629  0.81437754  0.75428861  1
loop_
_geom_bond_atom_site_label_1
_geom_bond_atom_site_label_2
_geom_bond_distance
_geom_bond_site_symmetry_2
Na0 O16 2.341929 1_555
Na0 O53 2.407758 1_555
Na0 O67 2.530094 1_545
Na0 O52 2.576763 1_555
Na0 O66 2.671367 1_545
Na0 O9 2.888060 1_545
Na0 O31 2.963283 1_545
Na1 O17 2.368182 1_555
Na1 O51 2.400652 1_555
Na1 O68 2.538099 1_555
Na1 O53 2.587466 1_555
Na1 O67 2.713886 1_555
Na1 O32 2.886729 1_555
Na1 O10 2.922647 1_555
Na2 O15 2.370620 1_555
Na2 O52 2.411999 1_555
Na2 O66 2.571785 1_655
Na2 O51 2.594442 1_555
Na2 O68 2.687592 1_655
Na2 O30 2.874760 1_655
Na2 O11 2.898895 1_655
Na3 O71 2.450583 1_555
Na3 O50 2.470320 1_555
Na3 O49 2.504669 1_555
Na3 O14 2.521742 1_555
Na3 O69 2.742096 1_555
Na3 O35 2.762412 1_555
Na4 O50 2.403421 1_555
Na4 O48 2.483231 1_555
Na4 O69 2.521977 1_655
Na4 O70 2.648685 1_655
Na4 O33 2.649416 1_655
Na4 O12 2.719001 1_555
Na5 O48 2.395825 1_555
Na5 O13 2.501153 1_555
Na5 O70 2.509792 1_545
Na5 O49 2.532828 1_555
Na5 O71 2.688351 1_545
Na5 O34 2.753284 1_545
Na5 O8 2.966170 1_545
Na6 O43 2.493870 1_555
Na6 O65 2.555897 1_555
Na6 O64 2.631961 1_555
Na6 O42 2.633668 1_455
Na6 O7 2.736528 1_555
Na6 O28 2.741644 1_555
Na6 O14 2.776668 1_555
Na6 O21 2.929999 1_555
Na7 O63 2.446036 1_555
Na7 O44 2.552584 1_455
Na7 O43 2.628530 1_565
Na7 O65 2.654107 1_555
Na7 O8 2.667450 1_555
Na7 O29 2.725537 1_555
Na7 O22 2.889805 1_455
Na7 O12 2.902421 1_455
Na8 O64 2.477678 1_555
Na8 O6 2.570336 1_555
Na8 O44 2.585467 1_555
Na8 O42 2.603387 1_565
Na8 O63 2.653226 1_555
Na8 O13 2.717403 1_565
Na8 O27 2.891507 1_555
Na8 O23 3.000681 1_565
Na9 O61 2.499331 1_555
Na9 O62 2.579865 1_555
Na9 O47 2.590954 1_565
Na9 O45 2.614287 1_455
Na9 O26 2.678035 1_554
Na9 O11 2.830384 1_555
Na9 O18 2.866989 1_565
Na9 O16 2.870771 1_565
Na10 O62 2.495279 1_555
Na10 O60 2.583725 1_555
Na10 O45 2.595444 1_555
Na10 O46 2.613335 1_565
Na10 O24 2.683561 1_554
Na10 O9 2.839611 1_555
Na10 O19 2.866021 1_555
Na10 O17 2.876358 1_555
Na11 O60 2.491597 1_555
Na11 O61 2.584824 1_555
Na11 O46 2.595964 1_455
Na11 O47 2.617570 1_555
Na11 O25 2.679488 1_554
Na11 O10 2.832973 1_555
Na11 O20 2.861806 1_455
Na11 O15 2.880238 1_455
Na12 O55 2.505683 1_555
Na12 O41 2.537559 1_555
Na12 O54 2.560399 1_555
Na12 O40 2.608661 1_655
Na12 O4 2.669400 1_555
Na12 O19 2.692581 1_556
Na12 O26 2.924312 1_655
Na12 O33 2.959300 1_655
Na13 O56 2.497648 1_555
Na13 O55 2.559397 1_555
Na13 O39 2.563900 1_655
Na13 O41 2.567634 1_545
Na13 O5 2.681163 1_555
Na13 O20 2.693561 1_556
Na13 O34 2.919232 1_545
Na13 O24 2.948863 1_545
Na14 O54 2.495066 1_555
Na14 O40 2.507880 1_545
Na14 O39 2.541106 1_555
Na14 O56 2.565132 1_555
Na14 O18 2.649861 1_556
Na14 O3 2.792432 1_555
Na14 O25 2.908879 1_555
Na14 O35 2.935484 1_555
Na15 O59 2.427365 1_555
Na15 O38 2.471834 1_655
Na15 O37 2.485499 1_545
Na15 O2 2.557016 1_555
Na15 O57 2.728128 1_555
Na15 O23 2.768056 1_555
Na15 O30 2.940109 1_655
Na16 O38 2.411578 1_555
Na16 O57 2.544712 1_555
Na16 O36 2.559013 1_545
Na16 O0 2.602608 1_555
Na16 O58 2.648356 1_555
Na16 O21 2.675166 1_555
Na17 O36 2.362973 1_655
Na17 O58 2.492759 1_555
Na17 O1 2.567568 1_555
Na17 O37 2.574676 1_555
Na17 O22 2.710303 1_555
Na17 O59 2.722249 1_555
Na17 O32 2.945714 1_555
Na18 O36 2.482639 1_555
Na18 O38 2.488888 1_565
Na18 O43 2.501921 1_565
Na18 O44 2.523621 1_455
Na18 O42 2.637323 1_465
Na18 O37 2.681758 1_455
Na19 O46 2.531156 1_565
Na19 O45 2.536296 1_555
Na19 O47 2.541366 1_665
Na19 O41 2.560451 1_554
Na19 O39 2.573030 1_664
Na19 O40 2.574246 1_654
Na20 O48 2.466708 1_555
Na20 O50 2.467596 1_555
Na20 O55 2.573645 1_555
Na20 O56 2.617345 1_555
Na20 O54 2.627516 1_555
Na20 O49 2.647740 1_555
Na21 O58 2.541045 1_555
Na21 O51 2.571258 1_555
Na21 O59 2.574457 1_555
Na21 O52 2.598274 1_555
Na21 O53 2.600025 1_555
Na21 O57 2.662817 1_555
Na22 O60 2.495528 1_555
Na22 O61 2.497622 1_555
Na22 O62 2.500927 1_555
Na22 O68 2.630355 1_555
Na22 O67 2.646468 1_555
Na22 O66 2.657107 1_555
Na23 O71 2.460555 1_555
Na23 O70 2.484803 1_555
Na23 O63 2.610022 1_555
Na23 O69 2.613473 1_555
Na23 O64 2.619816 1_555
Na23 O65 2.760321 1_555
Ca0 O0 2.181283 1_565
Ca0 O1 2.199514 1_455
Ca0 O2 2.203556 1_465
Ca0 O38 2.257040 1_565
Ca0 O36 2.257962 1_555
Ca0 O37 2.304402 1_455
Ca1 O13 2.207677 1_555
Ca1 O14 2.214319 1_555
Ca1 O12 2.243230 1_555
Ca1 O50 2.295530 1_555
Ca1 O48 2.298410 1_555
Ca1 O49 2.329996 1_555
Ca2 O15 2.177809 1_555
Ca2 O17 2.179248 1_555
Ca2 O16 2.183044 1_555
Ca2 O53 2.356307 1_555
Ca2 O52 2.361790 1_555
Ca2 O51 2.372830 1_555
O0 P0 1.515294 1_545
O1 P1 1.513454 1_555
O2 P2 1.515647 1_655
O3 P3 1.545839 1_555
O3 Sn0 2.081066 1_445
O4 Si0 1.633251 1_655
O4 Sn0 2.003111 1_555
O5 Si1 1.634807 1_545
O5 Sn0 1.998486 1_545
O6 Si1 1.667644 1_555
O6 Sn1 2.027014 1_555
O7 P3 1.571740 1_555
O7 Sn1 2.114435 1_445
O8 Si0 1.666075 1_555
O8 Sn1 2.022260 1_455
O9 P1 1.580575 1_555
O9 Sn2 2.145386 1_555
O10 P2 1.580508 1_555
O10 Sn2 2.142624 1_445
O11 P0 1.580661 1_555
O11 Sn2 2.162707 1_455
O12 P4 1.507741 1_555
O13 Si2 1.591350 1_555
O14 Si3 1.593199 1_555
O15 Si4 1.599234 1_555
O16 Si5 1.599530 1_555
O17 Si6 1.599527 1_555
O18 Si6 1.659144 1_555
O18 Sn3 2.070423 1_554
O19 Si4 1.658976 1_555
O19 Sn3 2.067868 1_554
O20 Si5 1.658766 1_555
O20 Sn3 2.067373 1_554
O21 Si2 1.672285 1_555
O21 Sn4 2.042913 1_555
O22 Si3 1.669668 1_555
O22 Sn4 2.037255 1_555
O23 P4 1.576469 1_555
O23 Sn4 2.155510 1_555
O24 Si7 1.626001 1_555
O24 Sn5 2.032840 1_556
O25 Si8 1.626379 1_555
O25 Sn5 2.038924 1_556
O26 Si9 1.627635 1_555
O26 Sn5 2.045737 1_556
O27 P5 1.541593 1_555
O27 Sn6 2.063721 1_555
O28 Si10 1.628401 1_555
O28 Sn6 1.992816 1_555
O29 Si11 1.626809 1_555
O29 Sn6 1.988804 1_555
O30 Si11 1.666334 1_555
O30 Sn7 2.019994 1_555
O31 P5 1.569450 1_555
O31 Sn7 2.117034 1_555
O32 Si10 1.667422 1_555
O32 Sn7 2.017886 1_555
O33 Si8 1.644173 1_555
O33 Sn8 2.049947 1_555
O34 Si9 1.642008 1_555
O34 Sn8 2.041638 1_555
O35 Si7 1.646331 1_555
O35 Sn8 2.046685 1_555
O36 Si11 1.607578 1_555
O37 P5 1.524518 1_555
O38 Si10 1.608996 1_555
O39 Si8 1.653277 1_555
O39 Sn0 2.093781 1_445
O40 Si9 1.653990 1_555
O40 Sn0 2.088503 1_455
O41 Si7 1.652491 1_555
O41 Sn0 2.087458 1_555
O42 P4 1.565535 1_555
O42 Sn1 2.227877 1_545
O43 Si2 1.667949 1_555
O43 Sn1 2.100465 1_445
O44 Si3 1.662254 1_555
O44 Sn1 2.088350 1_555
O45 Si4 1.665583 1_555
O45 Sn2 2.063114 1_555
O46 Si5 1.665732 1_555
O46 Sn2 2.067427 1_545
O47 Si6 1.666517 1_555
O47 Sn2 2.062994 1_445
O48 Si1 1.608544 1_545
O49 P3 1.526675 1_555
O50 Si0 1.609969 1_655
O51 P1 1.538581 1_555
O52 P2 1.537770 1_655
O53 P0 1.537506 1_545
O54 Si7 1.648718 1_555
O54 Sn3 2.116494 1_555
O55 Si8 1.649241 1_655
O55 Sn3 2.124791 1_555
O56 Si9 1.647242 1_545
O56 Sn3 2.111199 1_555
O57 P5 1.559918 1_545
O57 Sn4 2.209698 1_555
O58 Si10 1.662046 1_555
O58 Sn4 2.085472 1_555
O59 Si11 1.665100 1_655
O59 Sn4 2.083512 1_555
O60 Si6 1.643617 1_555
O60 Sn5 2.076254 1_555
O61 Si4 1.643136 1_455
O61 Sn5 2.066179 1_555
O62 Si5 1.644172 1_565
O62 Sn5 2.073116 1_555
O63 Si2 1.659198 1_565
O63 Sn6 2.047540 1_555
O64 Si3 1.661435 1_555
O64 Sn6 2.040317 1_555
O65 P4 1.563654 1_455
O65 Sn6 2.132472 1_555
O66 P0 1.591690 1_555
O66 Sn7 2.153119 1_555
O67 P1 1.592290 1_555
O67 Sn7 2.156834 1_555
O68 P2 1.590304 1_555
O68 Sn7 2.156640 1_555
O69 P3 1.561875 1_555
O69 Sn8 2.217780 1_555
O70 Si0 1.665399 1_555
O70 Sn8 2.085134 1_555
O71 Si1 1.667843 1_555
O71 Sn8 2.097099 1_555
