# generated using pymatgen
data_NaHfTaSi(PO6)2
_symmetry_space_group_name_H-M   'P 1'
_cell_length_a   8.84795048
_cell_length_b   8.84285285
_cell_length_c   23.01861910
_cell_angle_alpha   89.98889824
_cell_angle_beta   90.00000000
_cell_angle_gamma   120.01907126
_symmetry_Int_Tables_number   1
_chemical_formula_structural   NaHfTaSi(PO6)2
_chemical_formula_sum   'Na6 Hf6 Ta6 Si6 P12 O72'
_cell_volume   1559.41417103
_cell_formula_units_Z   6
loop_
 _symmetry_equiv_pos_site_id
 _symmetry_equiv_pos_as_xyz
  1  'x, y, z'
loop_
 _atom_site_type_symbol
 _atom_site_label
 _atom_site_symmetry_multiplicity
 _atom_site_fract_x
 _atom_site_fract_y
 _atom_site_fract_z
 _atom_site_occupancy
  Na  Na0  1  0.00267523  0.00454997  0.49851605  1
  Na  Na1  1  0.00187474  0.00454997  0.99851605  1
  Na  Na2  1  0.67019809  0.33679978  0.83195806  1
  Na  Na3  1  0.66660269  0.33679978  0.33195806  1
  Na  Na4  1  0.33507741  0.66533774  0.16515669  1
  Na  Na5  1  0.33025932  0.66533774  0.66515669  1
  Hf  Hf0  1  0.99991335  0.99831305  0.35386155  1
  Hf  Hf1  1  0.99839970  0.99831305  0.85386155  1
  Hf  Hf2  1  0.67355298  0.33693465  0.68728746  1
  Hf  Hf3  1  0.66338267  0.33693465  0.18728746  1
  Hf  Hf4  1  0.33121752  0.66018276  0.02059375  1
  Hf  Hf5  1  0.32896424  0.66018276  0.52059375  1
  Ta  Ta0  1  0.00134545  0.99989910  0.64576150  1
  Ta  Ta1  1  0.99855365  0.99989910  0.14576150  1
  Ta  Ta2  1  0.66462922  0.33214480  0.97911054  1
  Ta  Ta3  1  0.66751658  0.33214480  0.47911054  1
  Ta  Ta4  1  0.33777418  0.66368915  0.31239286  1
  Ta  Ta5  1  0.32591397  0.66368915  0.81239286  1
  Si  Si0  1  0.71111302  0.71102573  0.25030127  1
  Si  Si1  1  -0.00008729  0.71102573  0.75030127  1
  Si  Si2  1  0.95675241  0.33220225  0.58334760  1
  Si  Si3  1  0.37545084  0.33220225  0.08334760  1
  Si  Si4  1  0.04107293  0.37499209  0.91717123  1
  Si  Si5  1  0.33391817  0.37499209  0.41717123  1
  P  P0  1  0.28642609  0.99704403  0.25010710  1
  P  P1  1  0.00065729  0.28860383  0.25026907  1
  P  P2  1  0.28794654  0.28860383  0.75026907  1
  P  P3  1  0.71061794  0.99704403  0.75010710  1
  P  P4  1  0.37871781  0.04669421  0.58371601  1
  P  P5  1  0.66820079  0.62212977  0.58353707  1
  P  P6  1  0.95392998  0.62212977  0.08353707  1
  P  P7  1  0.66797740  0.04669421  0.08371601  1
  P  P8  1  0.62016902  0.66516475  0.91660660  1
  P  P9  1  0.33489058  0.95472591  0.91696279  1
  P  P10  1  0.61983433  0.95472591  0.41696279  1
  P  P11  1  0.04499473  0.66516475  0.41660660  1
  O  O0  1  0.20582415  0.02892730  0.30386093  1
  O  O1  1  0.82676342  0.80003926  0.30696953  1
  O  O2  1  0.97539441  0.17842441  0.30403907  1
  O  O3  1  0.20303000  0.17842441  0.80403907  1
  O  O4  1  0.97327584  0.80003926  0.80696953  1
  O  O5  1  0.82310315  0.02892730  0.80386093  1
  O  O6  1  0.80103954  0.97166156  0.69544696  1
  O  O7  1  0.17036995  0.20235547  0.69539346  1
  O  O8  1  0.03011860  0.83527982  0.69290706  1
  O  O9  1  0.80516123  0.83527982  0.19290706  1
  O  O10  1  0.03198551  0.20235547  0.19539346  1
  O  O11  1  0.17062202  0.97166156  0.19544696  1
  O  O12  1  0.86596733  0.36013154  0.63963156  1
  O  O13  1  0.48700440  0.12993603  0.63774392  1
  O  O14  1  0.63722913  0.51024069  0.63738233  1
  O  O15  1  0.87301256  0.51024069  0.13738233  1
  O  O16  1  0.64293263  0.12993603  0.13774392  1
  O  O17  1  0.49416521  0.36013154  0.13963156  1
  O  O18  1  0.47149953  0.30311347  0.02620792  1
  O  O19  1  0.83758078  0.53363554  0.02889711  1
  O  O20  1  0.69793591  0.16338430  0.02877223  1
  O  O21  1  0.46544939  0.16338430  0.52877223  1
  O  O22  1  0.69605576  0.53363554  0.52889711  1
  O  O23  1  0.83161494  0.30311347  0.52620792  1
  O  O24  1  0.53887733  0.69517046  0.97081312  1
  O  O25  1  0.16096038  0.46725348  0.97308105  1
  O  O26  1  0.30860197  0.84617039  0.97103430  1
  O  O27  1  0.53756743  0.84617039  0.47103430  1
  O  O28  1  0.30629209  0.46725348  0.47308105  1
  O  O29  1  0.15629213  0.69517046  0.47081312  1
  O  O30  1  0.13177495  0.63738222  0.36201758  1
  O  O31  1  0.50331659  0.86843173  0.36214302  1
  O  O32  1  0.36296006  0.50184968  0.35990964  1
  O  O33  1  0.13888862  0.50184968  0.85990964  1
  O  O34  1  0.36511413  0.86843173  0.86214302  1
  O  O35  1  0.50560627  0.63738222  0.86201758  1
  O  O36  1  0.02081523  0.82407542  0.40979753  1
  O  O37  1  0.80229287  0.97859740  0.40904061  1
  O  O38  1  0.16547237  0.18414311  0.40988048  1
  O  O39  1  0.01867074  0.18414311  0.90988048  1
  O  O40  1  0.17630453  0.97859740  0.90904061  1
  O  O41  1  0.80326019  0.82407542  0.90979753  1
  O  O42  1  0.97385652  0.15622863  0.59183018  1
  O  O43  1  0.19508750  0.02979433  0.59071093  1
  O  O44  1  0.83572428  0.80521861  0.59110779  1
  O  O45  1  0.96949433  0.80521861  0.09110779  1
  O  O46  1  0.83470683  0.02979433  0.09071093  1
  O  O47  1  0.18237211  0.15622863  0.09183018  1
  O  O48  1  0.68443261  0.15495541  0.74241862  1
  O  O49  1  0.46805065  0.30885915  0.74222367  1
  O  O50  1  0.83126197  0.51834356  0.74415322  1
  O  O51  1  0.68708259  0.51834356  0.24415322  1
  O  O52  1  0.84080950  0.30885915  0.24222367  1
  O  O53  1  0.47052380  0.15495541  0.24241862  1
  O  O54  1  0.63745193  0.49885913  0.92475459  1
  O  O55  1  0.84933910  0.36041301  0.92514580  1
  O  O56  1  0.50185331  0.13904448  0.92393001  1
  O  O57  1  0.63719217  0.13904448  0.42393001  1
  O  O58  1  0.51107491  0.36041301  0.42514580  1
  O  O59  1  0.86140820  0.49885913  0.42475459  1
  O  O60  1  0.35487888  0.50289726  0.07756943  1
  O  O61  1  0.13791676  0.64981636  0.07579159  1
  O  O62  1  0.50864337  0.86570707  0.07542093  1
  O  O63  1  0.35706270  0.86570707  0.57542093  1
  O  O64  1  0.51189860  0.64981636  0.57579159  1
  O  O65  1  0.14801738  0.50289726  0.57756943  1
  O  O66  1  0.30073780  0.83015524  0.25767071  1
  O  O67  1  0.51744714  0.69599850  0.25785613  1
  O  O68  1  0.16559584  0.47307238  0.25778978  1
  O  O69  1  0.30747554  0.47307238  0.75778978  1
  O  O70  1  0.17855036  0.69599850  0.75785613  1
  O  O71  1  0.52941645  0.83015524  0.75767071  1
loop_
_geom_bond_atom_site_label_1
_geom_bond_atom_site_label_2
_geom_bond_distance
_geom_bond_site_symmetry_2
Na0 O38 2.543519 1_555
Na0 O42 2.611722 1_455
Na0 O36 2.645891 1_545
Na0 O37 2.651626 1_445
Na0 O43 2.659292 1_555
Na0 O44 2.687914 1_445
Na1 O39 2.543519 1_555
Na1 O47 2.611722 1_556
Na1 O41 2.645891 1_445
Na1 O40 2.651626 1_545
Na1 O46 2.659292 1_456
Na1 O45 2.687914 1_446
Na2 O50 2.530363 1_555
Na2 O55 2.612698 1_555
Na2 O48 2.655853 1_555
Na2 O49 2.661705 1_555
Na2 O54 2.667764 1_555
Na2 O56 2.674128 1_555
Na3 O51 2.530363 1_555
Na3 O58 2.612698 1_555
Na3 O53 2.655853 1_555
Na3 O52 2.661705 1_555
Na3 O59 2.667764 1_555
Na3 O57 2.674128 1_555
Na4 O60 2.532152 1_555
Na4 O67 2.606309 1_555
Na4 O62 2.653387 1_555
Na4 O61 2.655945 1_555
Na4 O68 2.670868 1_555
Na4 O66 2.682488 1_555
Na5 O65 2.532152 1_555
Na5 O70 2.606309 1_555
Na5 O63 2.653387 1_555
Na5 O64 2.655945 1_555
Na5 O69 2.670868 1_555
Na5 O71 2.682488 1_555
Hf0 O1 1.974674 1_555
Hf0 O38 2.025135 1_665
Hf0 O0 2.055144 1_665
Hf0 O2 2.060102 1_565
Hf0 O36 2.085740 1_655
Hf0 O37 2.096649 1_555
Hf1 O4 1.974674 1_555
Hf1 O39 2.025135 1_665
Hf1 O5 2.055144 1_565
Hf1 O3 2.060102 1_665
Hf1 O41 2.085740 1_555
Hf1 O40 2.096649 1_655
Hf2 O12 1.947904 1_555
Hf2 O50 1.998744 1_555
Hf2 O14 2.064866 1_555
Hf2 O13 2.086456 1_555
Hf2 O48 2.088903 1_555
Hf2 O49 2.124867 1_555
Hf3 O17 1.947904 1_555
Hf3 O51 1.998744 1_555
Hf3 O15 2.064866 1_555
Hf3 O16 2.086456 1_555
Hf3 O53 2.088903 1_555
Hf3 O52 2.124867 1_555
Hf4 O25 1.950705 1_554
Hf4 O60 1.997243 1_555
Hf4 O24 2.053228 1_554
Hf4 O26 2.091630 1_554
Hf4 O61 2.095479 1_555
Hf4 O62 2.122824 1_555
Hf5 O28 1.950705 1_555
Hf5 O65 1.997243 1_555
Hf5 O29 2.053228 1_555
Hf5 O27 2.091630 1_555
Hf5 O64 2.095479 1_555
Hf5 O63 2.122824 1_555
O0 P0 1.523291 1_545
O1 Si0 1.600833 1_555
O2 P1 1.520783 1_655
O3 P2 1.520783 1_555
O4 Si1 1.600833 1_655
O5 P3 1.523291 1_545
O6 P3 1.566304 1_555
O6 Ta0 2.017054 1_655
O7 P2 1.570349 1_555
O7 Ta0 2.017119 1_545
O8 Si1 1.652185 1_555
O8 Ta0 1.931787 1_555
O9 Si0 1.652185 1_555
O9 Ta1 1.931787 1_555
O10 P1 1.570349 1_555
O10 Ta1 2.017119 1_445
O11 P0 1.566304 1_555
O11 Ta1 2.017054 1_455
O12 Si2 1.607288 1_555
O13 P4 1.516959 1_555
O14 P5 1.522661 1_555
O15 P6 1.522661 1_555
O16 P7 1.516959 1_555
O17 Si3 1.607288 1_555
O18 Si3 1.654447 1_555
O18 Ta2 1.929294 1_554
O19 P6 1.564727 1_555
O19 Ta2 2.025433 1_554
O20 P7 1.568561 1_555
O20 Ta2 2.014951 1_554
O21 P4 1.568561 1_555
O21 Ta3 2.014951 1_555
O22 P5 1.564727 1_555
O22 Ta3 2.025433 1_555
O23 Si2 1.654447 1_555
O23 Ta3 1.929294 1_555
O24 P8 1.528311 1_555
O25 Si4 1.606734 1_555
O26 P9 1.516862 1_555
O27 P10 1.516862 1_555
O28 Si5 1.606734 1_555
O29 P11 1.528311 1_555
O30 P11 1.554906 1_555
O30 Ta4 2.063183 1_555
O31 P10 1.565470 1_555
O31 Ta4 2.020436 1_555
O32 Si5 1.665165 1_555
O32 Ta4 1.900684 1_555
O33 Si4 1.665165 1_555
O33 Ta5 1.900684 1_555
O34 P9 1.565470 1_555
O34 Ta5 2.020436 1_555
O35 P8 1.554906 1_555
O35 Ta5 2.063183 1_555
O36 P11 1.531571 1_555
O37 P10 1.530704 1_555
O38 Si5 1.606551 1_555
O39 Si4 1.606554 1_555
O40 P9 1.530695 1_555
O41 P8 1.531576 1_555
O42 Si2 1.648641 1_555
O42 Ta0 1.961396 1_645
O43 P4 1.563688 1_555
O43 Ta0 2.039765 1_545
O44 P5 1.564478 1_555
O44 Ta0 2.042162 1_655
O45 P6 1.564482 1_555
O45 Ta1 2.042162 1_555
O46 P7 1.563679 1_555
O46 Ta1 2.039765 1_545
O47 Si3 1.648646 1_555
O47 Ta1 1.961396 1_445
O48 P3 1.535745 1_545
O49 P2 1.523214 1_555
O50 Si1 1.614303 1_655
O51 Si0 1.614306 1_555
O52 P1 1.523205 1_655
O53 P0 1.535750 1_545
O54 P8 1.564027 1_555
O54 Ta2 2.037318 1_555
O55 Si4 1.646032 1_655
O55 Ta2 1.966620 1_555
O56 P9 1.567018 1_545
O56 Ta2 2.035564 1_555
O57 P10 1.567011 1_545
O57 Ta3 2.035564 1_555
O58 Si5 1.646049 1_555
O58 Ta3 1.966620 1_555
O59 P11 1.564017 1_655
O59 Ta3 2.037318 1_555
O60 Si3 1.613701 1_555
O61 P6 1.530687 1_455
O62 P7 1.525746 1_565
O63 P4 1.525739 1_565
O64 P5 1.530704 1_555
O65 Si2 1.613690 1_455
O66 P0 1.552784 1_555
O66 Ta4 2.083957 1_555
O67 Si0 1.660210 1_555
O67 Ta4 1.931379 1_555
O68 P1 1.561667 1_555
O68 Ta4 2.042862 1_555
O69 P2 1.561671 1_555
O69 Ta5 2.042862 1_555
O70 Si1 1.660201 1_555
O70 Ta5 1.931379 1_555
O71 P3 1.552789 1_555
O71 Ta5 2.083957 1_555
