# generated using pymatgen
data_Li6Cu9(PO4)8
_symmetry_space_group_name_H-M   'P 1'
_cell_length_a   8.72810200
_cell_length_b   8.91962002
_cell_length_c   9.06986960
_cell_angle_alpha   111.29392731
_cell_angle_beta   99.19540826
_cell_angle_gamma   104.56944189
_symmetry_Int_Tables_number   1
_chemical_formula_structural   Li6Cu9(PO4)8
_chemical_formula_sum   'Li6 Cu9 P8 O32'
_cell_volume   611.54597909
_cell_formula_units_Z   1
loop_
 _symmetry_equiv_pos_site_id
 _symmetry_equiv_pos_as_xyz
  1  'x, y, z'
loop_
 _atom_site_type_symbol
 _atom_site_label
 _atom_site_symmetry_multiplicity
 _atom_site_fract_x
 _atom_site_fract_y
 _atom_site_fract_z
 _atom_site_occupancy
  Li  Li0  1  0.35353900  0.09066100  0.97557400  1
  Li  Li1  1  0.64646100  0.90933900  0.02442600  1
  Li  Li2  1  0.02543900  0.72431900  0.26601400  1
  Li  Li3  1  0.32059500  0.32886400  0.35662800  1
  Li  Li4  1  0.67940500  0.67113600  0.64337200  1
  Li  Li5  1  0.97456100  0.27568100  0.73398600  1
  Cu  Cu0  1  0.79583300  0.27301600  0.06235900  1
  Cu  Cu1  1  0.71258500  0.87613800  0.42909000  1
  Cu  Cu2  1  0.34032700  0.69528500  0.44167300  1
  Cu  Cu3  1  0.00000000  0.50000000  0.50000000  1
  Cu  Cu4  1  0.65967300  0.30471500  0.55832700  1
  Cu  Cu5  1  0.00000000  0.00000000  0.00000000  1
  Cu  Cu6  1  0.28741500  0.12386200  0.57091000  1
  Cu  Cu7  1  0.20416700  0.72698400  0.93764100  1
  Cu  Cu8  1  0.50000000  0.50000000  0.00000000  1
  P  P0  1  0.59518400  0.05259200  0.71935300  1
  P  P1  1  0.83314900  0.62466700  0.90941500  1
  P  P2  1  0.34581300  0.56658700  0.72655300  1
  P  P3  1  0.03414100  0.88403700  0.65132100  1
  P  P4  1  0.96585900  0.11596300  0.34867900  1
  P  P5  1  0.65418700  0.43341300  0.27344700  1
  P  P6  1  0.16685100  0.37533300  0.09058500  1
  P  P7  1  0.40481600  0.94740800  0.28064700  1
  O  O0  1  0.20752400  0.21071200  0.07986200  1
  O  O1  1  0.27929000  0.81612500  0.31557300  1
  O  O2  1  0.31883400  0.95480900  0.12241600  1
  O  O3  1  0.15709500  0.17357900  0.40613500  1
  O  O4  1  0.58375000  0.25562300  0.12325900  1
  O  O5  1  0.58781900  0.56530400  0.23737300  1
  O  O6  1  0.89452600  0.93319400  0.33816600  1
  O  O7  1  0.56624700  0.91058000  0.26287600  1
  O  O8  1  0.27971600  0.47703600  0.02028900  1
  O  O9  1  0.68116600  0.04519100  0.87758400  1
  O  O10  1  0.98817700  0.32325000  0.98344200  1
  O  O11  1  0.72028400  0.52296400  0.97971100  1
  O  O12  1  0.43375300  0.08942000  0.73712400  1
  O  O13  1  0.10547400  0.06680600  0.66183400  1
  O  O14  1  0.41218100  0.43469600  0.76262700  1
  O  O15  1  0.41625000  0.74437700  0.87674100  1
  O  O16  1  0.84692400  0.47886700  0.29628900  1
  O  O17  1  0.72071000  0.18387500  0.68442700  1
  O  O18  1  0.15307600  0.52113300  0.70371100  1
  O  O19  1  0.09081500  0.89037300  0.82661900  1
  O  O20  1  0.81616800  0.52422400  0.72320200  1
  O  O21  1  0.79247600  0.78928800  0.92013800  1
  O  O22  1  0.44637300  0.12687100  0.43214400  1
  O  O23  1  0.39274700  0.56988800  0.57045100  1
  O  O24  1  0.09470400  0.74870700  0.53332900  1
  O  O25  1  0.90529600  0.25129300  0.46667100  1
  O  O26  1  0.60725300  0.43011200  0.42954900  1
  O  O27  1  0.55362700  0.87312900  0.56785600  1
  O  O28  1  0.84290500  0.82642100  0.59386500  1
  O  O29  1  0.18383200  0.47577600  0.27679800  1
  O  O30  1  0.90918500  0.10962700  0.17338100  1
  O  O31  1  0.01182300  0.67675000  0.01655800  1
loop_
_geom_bond_atom_site_label_1
_geom_bond_atom_site_label_2
_geom_bond_distance
_geom_bond_site_symmetry_2
Li0 O0 2.000426 1_556
Li0 O4 2.053639 1_556
Li0 O2 2.109573 1_546
Li0 O19 2.338991 1_545
Li0 O12 2.374456 1_555
Li1 O21 2.000426 1_554
Li1 O15 2.053639 1_554
Li1 O9 2.109573 1_564
Li1 O30 2.338991 1_565
Li1 O7 2.374456 1_555
Li2 O1 2.069592 1_555
Li2 O31 2.122419 1_555
Li2 O24 2.318056 1_555
Li2 O6 2.372635 1_455
Li2 O16 2.480614 1_455
Li3 O3 1.954127 1_555
Li3 O23 2.163291 1_555
Li3 O29 2.205926 1_555
Li3 O0 2.269236 1_555
Li3 O26 2.326681 1_555
Li3 O22 2.563489 1_555
Li4 O28 1.954127 1_555
Li4 O26 2.163291 1_555
Li4 O20 2.205926 1_555
Li4 O21 2.269236 1_555
Li4 O23 2.326681 1_555
Li4 O27 2.563489 1_555
Li5 O17 2.069592 1_555
Li5 O10 2.122419 1_555
Li5 O25 2.318056 1_555
Li5 O13 2.372635 1_655
Li5 O18 2.480614 1_655
Cu0 O10 1.941645 1_554
Cu0 O9 1.976602 1_554
Cu0 O4 2.000052 1_555
Cu0 O16 2.127920 1_555
Cu0 O30 2.364222 1_555
Cu1 O6 1.943604 1_555
Cu1 O28 1.978828 1_555
Cu1 O7 1.979094 1_555
Cu1 O27 2.018300 1_555
Cu1 O5 2.504126 1_555
Cu2 O1 1.934720 1_555
Cu2 O27 1.951092 1_555
Cu2 O29 1.952071 1_555
Cu2 O23 1.964712 1_555
Cu2 O24 2.511958 1_555
Cu3 O18 2.016363 1_555
Cu3 O16 2.016363 1_455
Cu3 O24 2.050939 1_555
Cu3 O25 2.050939 1_455
Cu4 O17 1.934720 1_555
Cu4 O22 1.951092 1_555
Cu4 O20 1.952071 1_555
Cu4 O26 1.964712 1_555
Cu4 O25 2.511958 1_555
Cu5 O30 1.931015 1_455
Cu5 O19 1.931015 1_544
Cu5 O0 2.053547 1_555
Cu5 O21 2.053547 1_444
Cu6 O13 1.943604 1_555
Cu6 O3 1.978828 1_555
Cu6 O12 1.979094 1_555
Cu6 O22 2.018300 1_555
Cu6 O14 2.504126 1_555
Cu7 O31 1.941645 1_556
Cu7 O2 1.976602 1_556
Cu7 O15 2.000052 1_555
Cu7 O18 2.127920 1_555
Cu7 O19 2.364222 1_555
Cu8 O8 1.927373 1_555
Cu8 O11 1.927373 1_554
Cu8 O14 1.974612 1_554
Cu8 O5 1.974612 1_555
O0 P6 1.568795 1_555
O1 P7 1.551387 1_555
O2 P7 1.541647 1_555
O3 P4 1.554861 1_455
O4 P5 1.556031 1_555
O5 P5 1.545442 1_555
O6 P4 1.553015 1_565
O7 P7 1.544705 1_555
O8 P6 1.539826 1_555
O9 P0 1.541647 1_555
O10 P6 1.554164 1_656
O11 P1 1.539826 1_555
O12 P0 1.544705 1_555
O13 P3 1.553015 1_545
O14 P2 1.545442 1_555
O15 P2 1.556031 1_555
O16 P5 1.587974 1_555
O17 P0 1.551387 1_555
O18 P2 1.587974 1_555
O19 P3 1.563672 1_555
O20 P1 1.559263 1_555
O21 P1 1.568795 1_555
O22 P7 1.591558 1_545
O23 P2 1.543636 1_555
O24 P3 1.563756 1_555
O25 P4 1.563756 1_555
O26 P5 1.543636 1_555
O27 P0 1.591558 1_565
O28 P3 1.554861 1_655
O29 P6 1.559263 1_555
O30 P4 1.563672 1_555
O31 P1 1.554164 1_454
