# generated using pymatgen
data_MgMn5CuO12
_symmetry_space_group_name_H-M   'P 1'
_cell_length_a   5.15290243
_cell_length_b   5.07063017
_cell_length_c   9.93542918
_cell_angle_alpha   86.09614649
_cell_angle_beta   82.29974354
_cell_angle_gamma   59.46181359
_symmetry_Int_Tables_number   1
_chemical_formula_structural   MgMn5CuO12
_chemical_formula_sum   'Mg1 Mn5 Cu1 O12'
_cell_volume   221.57271413
_cell_formula_units_Z   1
loop_
 _symmetry_equiv_pos_site_id
 _symmetry_equiv_pos_as_xyz
  1  'x, y, z'
loop_
 _atom_site_type_symbol
 _atom_site_label
 _atom_site_symmetry_multiplicity
 _atom_site_fract_x
 _atom_site_fract_y
 _atom_site_fract_z
 _atom_site_occupancy
  Mg  Mg0  1  0.39664600  0.00000000  0.75803400  1
  Mn  Mn0  1  0.15245500  0.66524300  0.50237200  1
  Mn  Mn1  1  0.68501800  0.66338800  0.00424300  1
  Mn  Mn2  1  0.34840400  0.33661200  0.00424300  1
  Mn  Mn3  1  0.81769800  0.33475700  0.50237200  1
  Mn  Mn4  1  0.49113400  0.00000000  0.48227700  1
  Cu  Cu0  1  0.01140100  0.00000000  0.00744400  1
  O  O0  1  0.98779900  0.65584600  0.10009700  1
  O  O1  1  0.38606400  0.67105500  0.89775500  1
  O  O2  1  0.17761000  0.34296400  0.39866500  1
  O  O3  1  0.52057400  0.65703600  0.39866500  1
  O  O4  1  0.44806400  0.31344100  0.60370000  1
  O  O5  1  0.14821000  0.00000000  0.60086400  1
  O  O6  1  0.76150400  0.68655900  0.60370000  1
  O  O7  1  0.64364400  0.34415400  0.10009700  1
  O  O8  1  0.34229500  0.00000000  0.10312500  1
  O  O9  1  0.05711900  0.32894500  0.89775500  1
  O  O10  1  0.67811200  0.00000000  0.89368200  1
  O  O11  1  0.85160500  0.00000000  0.40162600  1
loop_
_geom_bond_atom_site_label_1
_geom_bond_atom_site_label_2
_geom_bond_distance
_geom_bond_site_symmetry_2
Mg0 O10 2.108017 1_555
Mg0 O1 2.113997 1_545
Mg0 O9 2.113998 1_555
Mg0 O5 2.147784 1_555
Mg0 O6 2.221409 1_545
Mg0 O4 2.221411 1_555
Mn0 O2 1.930587 1_555
Mn0 O11 1.948538 1_465
Mn0 O4 1.980156 1_555
Mn0 O5 2.005500 1_565
Mn0 O3 2.015791 1_555
Mn0 O6 2.081728 1_455
Mn1 O7 1.912866 1_555
Mn1 O0 1.917094 1_555
Mn1 O8 1.922877 1_565
Mn1 O10 1.953111 1_564
Mn1 O1 1.965774 1_554
Mn1 O9 2.016923 1_654
Mn2 O0 1.912858 1_455
Mn2 O7 1.917099 1_555
Mn2 O8 1.922873 1_555
Mn2 O10 1.953115 1_554
Mn2 O9 1.965766 1_554
Mn2 O1 2.016928 1_554
Mn3 O3 1.930587 1_555
Mn3 O11 1.948538 1_555
Mn3 O6 1.980154 1_555
Mn3 O5 2.005500 1_655
Mn3 O2 2.015791 1_655
Mn3 O4 2.081723 1_555
Mn4 O3 1.905841 1_545
Mn4 O2 1.905841 1_555
Mn4 O11 1.921829 1_555
Mn4 O6 1.965072 1_545
Mn4 O4 1.965074 1_555
Mn4 O5 1.988149 1_555
Cu0 O0 1.968358 1_445
Cu0 O7 1.968360 1_455
Cu0 O9 2.026885 1_554
Cu0 O1 2.026885 1_544
Cu0 O8 2.060416 1_555
Cu0 O10 2.178805 1_454
