# generated using pymatgen
data_Na14Hf4Zr4Si11SO48
_symmetry_space_group_name_H-M   'P 1'
_cell_length_a   18.45220090
_cell_length_b   9.22530359
_cell_length_c   22.96745844
_cell_angle_alpha   90.01525828
_cell_angle_beta   90.01090653
_cell_angle_gamma   120.00100566
_symmetry_Int_Tables_number   1
_chemical_formula_structural   Na14Hf4Zr4Si11SO48
_chemical_formula_sum   'Na42 Hf12 Zr12 Si33 S3 O144'
_cell_volume   3385.85195891
_cell_formula_units_Z   3
loop_
 _symmetry_equiv_pos_site_id
 _symmetry_equiv_pos_as_xyz
  1  'x, y, z'
loop_
 _atom_site_type_symbol
 _atom_site_label
 _atom_site_symmetry_multiplicity
 _atom_site_fract_x
 _atom_site_fract_y
 _atom_site_fract_z
 _atom_site_occupancy
  Na  Na0  1  0.32073510  -0.00001205  0.24998045  1
  Na  Na1  1  0.82062970  0.00004283  0.24999845  1
  Na  Na2  1  0.32054650  0.64196770  0.75082574  1
  Na  Na3  1  0.81728908  0.63302016  0.74945344  1
  Na  Na4  1  0.50069540  0.36406964  0.75120723  1
  Na  Na5  1  0.68412519  0.00244966  0.74944905  1
  Na  Na6  1  0.15032035  0.33500363  0.58092795  1
  Na  Na7  1  0.65075989  0.33274314  0.58371984  1
  Na  Na8  1  0.01602713  0.69438458  0.58352858  1
  Na  Na9  1  0.51751508  0.70226929  0.58277358  1
  Na  Na10  1  0.33316594  0.96559613  0.58352668  1
  Na  Na11  1  0.83205038  0.96895148  0.58318743  1
  Na  Na12  1  0.15076506  0.96749157  0.08141577  1
  Na  Na13  1  0.65102889  0.96863607  0.08130501  1
  Na  Na14  1  0.33219444  0.69643196  0.08328277  1
  Na  Na15  1  0.83201233  0.69596377  0.08348555  1
  Na  Na16  1  0.01697977  0.33703555  0.08314044  1
  Na  Na17  1  0.51705916  0.33619338  0.08326530  1
  Na  Na18  1  0.48300116  0.66705772  0.91654549  1
  Na  Na19  1  0.98390815  0.66289475  0.91686127  1
  Na  Na20  1  0.34998611  0.03300626  0.91655919  1
  Na  Na21  1  0.84877317  0.03492333  0.91679025  1
  Na  Na22  1  0.16720298  0.30350613  0.91910037  1
  Na  Na23  1  0.66652093  0.29829667  0.91662004  1
  Na  Na24  1  0.48420645  0.30393829  0.41629649  1
  Na  Na25  1  0.98359644  0.30353685  0.41674006  1
  Na  Na26  1  0.16670427  0.03138772  0.41832838  1
  Na  Na27  1  0.66698331  0.03270963  0.41884648  1
  Na  Na28  1  0.34904453  0.66382702  0.41637886  1
  Na  Na29  1  0.84850478  0.66287000  0.41671547  1
  Na  Na30  1  0.00081897  0.00092917  0.49979503  1
  Na  Na31  1  0.50080232  0.99963295  0.50107085  1
  Na  Na32  1  0.00129073  0.00178474  0.00028129  1
  Na  Na33  1  0.50047530  -0.00000403  0.99883509  1
  Na  Na34  1  0.33361987  0.32701092  0.83443579  1
  Na  Na35  1  0.83769641  0.33423035  0.83110617  1
  Na  Na36  1  0.33817146  0.34838695  0.33174869  1
  Na  Na37  1  0.83796994  0.34823370  0.33189330  1
  Na  Na38  1  0.16387177  0.65174162  0.16796185  1
  Na  Na39  1  0.66396924  0.65161079  0.16822417  1
  Na  Na40  1  0.16346019  0.67538555  0.66792413  1
  Na  Na41  1  0.66718190  0.66733014  0.66683962  1
  Hf  Hf0  1  0.83638872  0.33489397  0.68644121  1
  Hf  Hf1  1  0.33865905  0.34718184  0.18494948  1
  Hf  Hf2  1  0.83867523  0.34726215  0.18476945  1
  Hf  Hf3  1  0.83336629  0.33360081  0.98144933  1
  Hf  Hf4  1  0.83398658  0.33252048  0.48146335  1
  Hf  Hf5  1  0.16674096  0.66598102  0.01855624  1
  Hf  Hf6  1  0.66695446  0.66657908  0.01884281  1
  Hf  Hf7  1  0.66670087  0.66716302  0.51830618  1
  Hf  Hf8  1  0.16468340  0.65287213  0.31473895  1
  Hf  Hf9  1  0.66530713  0.65275583  0.31507627  1
  Hf  Hf10  1  0.16448565  0.67597497  0.81558958  1
  Hf  Hf11  1  0.66725064  0.66764415  0.81483584  1
  Zr  Zr0  1  0.99379750  0.99623000  0.35203654  1
  Zr  Zr1  1  0.49475822  0.99689952  0.35214709  1
  Zr  Zr2  1  0.99472383  0.99157977  0.85290931  1
  Zr  Zr3  1  0.49968025  0.00057093  0.85134580  1
  Zr  Zr4  1  0.99564053  0.98811147  0.64727409  1
  Zr  Zr5  1  0.50012561  0.00009695  0.64932931  1
  Zr  Zr6  1  0.99568586  0.00307729  0.14773052  1
  Zr  Zr7  1  0.49624862  0.00375440  0.14787928  1
  Zr  Zr8  1  0.33548415  0.32849818  0.68343349  1
  Zr  Zr9  1  0.33357827  0.33530394  0.98188904  1
  Zr  Zr10  1  0.33365137  0.33376122  0.48129395  1
  Zr  Zr11  1  0.16607479  0.66572954  0.51794484  1
  Si  Si0  1  0.35041836  0.70069599  0.25016020  1
  Si  Si1  1  0.85022200  0.70018129  0.25005496  1
  Si  Si2  1  -0.00007786  0.29931444  0.24973046  1
  Si  Si3  1  0.50012560  0.29958336  0.24987891  1
  Si  Si4  1  0.64812725  0.29616831  0.75010906  1
  Si  Si5  1  0.00172196  0.70347118  0.74970636  1
  Si  Si6  1  0.49942674  0.70356079  0.75046689  1
  Si  Si7  1  0.35024397  0.99679980  0.75028605  1
  Si  Si8  1  0.85235908  0.00231614  0.75035296  1
  Si  Si9  1  0.48189102  0.33420911  0.58233920  1
  Si  Si10  1  0.97960350  0.33350173  0.58305287  1
  Si  Si11  1  0.18615447  0.03975572  0.58250476  1
  Si  Si12  1  0.68792936  0.04182952  0.58346303  1
  Si  Si13  1  0.33292035  0.62654756  0.58429748  1
  Si  Si14  1  0.83163422  0.62153735  0.58318909  1
  Si  Si15  1  0.48153615  0.62848731  0.08275276  1
  Si  Si16  1  0.98073502  0.62704473  0.08205801  1
  Si  Si17  1  0.33134051  0.04099925  0.08454969  1
  Si  Si18  1  0.83143008  0.04235657  0.08422029  1
  Si  Si19  1  0.18746122  0.33331080  0.08361119  1
  Si  Si20  1  0.68826295  0.33334712  0.08308587  1
  Si  Si21  1  0.31141036  0.66583739  0.91531608  1
  Si  Si22  1  0.81158773  0.66357402  0.91715757  1
  Si  Si23  1  0.02114739  0.37579759  0.91707393  1
  Si  Si24  1  0.52099654  0.37545669  0.91665825  1
  Si  Si25  1  0.16696013  0.96030493  0.91793979  1
  Si  Si26  1  0.66708768  0.95936149  0.91708988  1
  Si  Si27  1  0.31097730  0.95789220  0.41503963  1
  Si  Si28  1  0.81031212  0.95783671  0.41568400  1
  Si  Si29  1  0.16662614  0.37152340  0.41696387  1
  Si  Si30  1  0.66735736  0.37323462  0.41803575  1
  Si  Si31  1  0.02063867  0.66660872  0.41633242  1
  Si  Si32  1  0.52217035  0.66795886  0.41648165  1
  S  S0  1  0.14707480  0.00011896  0.24996673  1
  S  S1  1  0.64726807  0.00004614  0.24998044  1
  S  S2  1  0.14631507  0.29390008  0.75026032  1
  O  O0  1  0.10686634  0.02221962  0.30271555  1
  O  O1  1  0.60709018  0.02235628  0.30270855  1
  O  O2  1  0.40921562  0.79246464  0.30792371  1
  O  O3  1  0.90887066  0.79190117  0.30779005  1
  O  O4  1  0.48625313  0.17763190  0.30672098  1
  O  O5  1  0.98605956  0.17768089  0.30666645  1
  O  O6  1  0.10638114  0.19158285  0.80293064  1
  O  O7  1  0.60410579  0.17608174  0.80713547  1
  O  O8  1  0.48348218  0.79141802  0.80737957  1
  O  O9  1  0.98726608  0.79653348  0.80676118  1
  O  O10  1  0.41114382  0.03146147  0.80739222  1
  O  O11  1  0.91004940  0.02658040  0.80801112  1
  O  O12  1  0.39547642  0.96910395  0.69263149  1
  O  O13  1  0.89715458  0.97069517  0.69350097  1
  O  O14  1  0.09591915  0.21371766  0.69731873  1
  O  O15  1  0.58776195  0.20977894  0.69302355  1
  O  O16  1  0.01411574  0.82084384  0.69208349  1
  O  O17  1  0.51579464  0.82211621  0.69297396  1
  O  O18  1  0.39755025  0.82257194  0.19331433  1
  O  O19  1  0.89725696  0.82211775  0.19321264  1
  O  O20  1  0.01271900  0.20710430  0.19213051  1
  O  O21  1  0.51298523  0.20788981  0.19213982  1
  O  O22  1  0.09574277  0.97779952  0.19723914  1
  O  O23  1  0.59590487  0.97780350  0.19730717  1
  O  O24  1  0.43863759  0.36728034  0.63994428  1
  O  O25  1  0.93338024  0.36649524  0.63779124  1
  O  O26  1  0.24848036  0.13181545  0.63773603  1
  O  O27  1  0.74705610  0.12896426  0.64059605  1
  O  O28  1  0.31692610  0.50774691  0.64168143  1
  O  O29  1  0.81642763  0.50575045  0.64065004  1
  O  O30  1  0.43559900  0.50181496  0.13762056  1
  O  O31  1  0.93547837  0.50194919  0.13749842  1
  O  O32  1  0.31588666  0.12782012  0.14159509  1
  O  O33  1  0.81594540  0.12801557  0.14159243  1
  O  O34  1  0.25058256  0.36501765  0.13789969  1
  O  O35  1  0.75065088  0.36528882  0.13789804  1
  O  O36  1  0.22745711  0.29909813  0.02458950  1
  O  O37  1  0.72984167  0.30098686  0.02455695  1
  O  O38  1  0.42238258  0.54792465  0.02486983  1
  O  O39  1  0.92105826  0.54355409  0.02454734  1
  O  O40  1  0.34965155  0.15920337  0.02670955  1
  O  O41  1  0.84907428  0.16099538  0.02660712  1
  O  O42  1  0.22765734  0.15575865  0.52433053  1
  O  O43  1  0.73138986  0.15967826  0.52576872  1
  O  O44  1  0.34874840  0.53945483  0.52685174  1
  O  O45  1  0.84931463  0.53815910  0.52576009  1
  O  O46  1  0.42161053  0.30113136  0.52570883  1
  O  O47  1  0.92139275  0.29865397  0.52461276  1
  O  O48  1  0.26789587  0.69651842  0.97317261  1
  O  O49  1  0.76974699  0.69849296  0.97439825  1
  O  O50  1  0.07902166  0.45886033  0.97552447  1
  O  O51  1  0.57994456  0.46307721  0.97410390  1
  O  O52  1  0.14935334  0.84190104  0.97557876  1
  O  O53  1  0.65170216  0.84056740  0.97433145  1
  O  O54  1  0.27033142  0.84104907  0.47317570  1
  O  O55  1  0.76879195  0.83945464  0.47336257  1
  O  O56  1  0.14843347  0.45196652  0.47517574  1
  O  O57  1  0.64940819  0.45707383  0.47540207  1
  O  O58  1  0.07788154  0.70097358  0.47527154  1
  O  O59  1  0.57922869  0.69912375  0.47530605  1
  O  O60  1  0.06786113  0.63507765  0.36200204  1
  O  O61  1  0.56878389  0.63630744  0.36185434  1
  O  O62  1  0.25197088  0.87058758  0.35817667  1
  O  O63  1  0.75212185  0.87208318  0.35828763  1
  O  O64  1  0.18360940  0.49789792  0.36217387  1
  O  O65  1  0.68477514  0.49823937  0.36252218  1
  O  O66  1  0.06720182  0.50003683  0.86209740  1
  O  O67  1  0.56494191  0.49332341  0.85934556  1
  O  O68  1  0.18357223  0.86955802  0.86241563  1
  O  O69  1  0.68284824  0.87230675  0.85966222  1
  O  O70  1  0.25210461  0.63328449  0.85810615  1
  O  O71  1  0.75369569  0.63488121  0.85960511  1
  O  O72  1  0.01244817  0.83561596  0.40965583  1
  O  O73  1  0.51398521  0.83711173  0.41010696  1
  O  O74  1  0.40512250  0.97688879  0.41081071  1
  O  O75  1  0.90461693  0.97705895  0.41132725  1
  O  O76  1  0.08404073  0.18499927  0.40936114  1
  O  O77  1  0.58455853  0.18681163  0.40986645  1
  O  O78  1  0.01324645  0.19043984  0.91035548  1
  O  O79  1  0.51197745  0.18929537  0.91215177  1
  O  O80  1  0.08421200  0.98166660  0.91026953  1
  O  O81  1  0.58296113  0.97705244  0.91216628  1
  O  O82  1  0.40477584  0.83434564  0.91146198  1
  O  O83  1  0.90539160  0.83293604  0.91209927  1
  O  O84  1  0.48980885  0.16587275  0.58790811  1
  O  O85  1  0.99047527  0.16791271  0.59048604  1
  O  O86  1  0.09431468  0.02596413  0.58935454  1
  O  O87  1  0.59447559  0.02257402  0.58824841  1
  O  O88  1  0.41720177  0.81203789  0.58866973  1
  O  O89  1  0.91629460  0.80987067  0.58807425  1
  O  O90  1  0.49223451  0.81485360  0.09082698  1
  O  O91  1  0.99119853  0.81366157  0.09005687  1
  O  O92  1  0.41594621  0.02173252  0.08914168  1
  O  O93  1  0.91612306  0.02304724  0.08861823  1
  O  O94  1  0.09474773  0.16425331  0.09024322  1
  O  O95  1  0.59538292  0.16443719  0.08980639  1
  O  O96  1  0.34526607  0.16943270  0.74496950  1
  O  O97  1  0.83841932  0.16287968  0.74492434  1
  O  O98  1  0.23171978  0.31405910  0.74585219  1
  O  O99  1  0.74024625  0.31305680  0.74415420  1
  O  O100  1  0.41391701  0.51886245  0.74558249  1
  O  O101  1  0.91310584  0.52579073  0.74416816  1
  O  O102  1  0.34025759  0.51518862  0.24434434  1
  O  O103  1  0.84016787  0.51487708  0.24435591  1
  O  O104  1  0.41042180  0.29763575  0.24445511  1
  O  O105  1  0.91030328  0.29751683  0.24441439  1
  O  O106  1  0.23199116  0.15019965  0.24501051  1
  O  O107  1  0.73213004  0.15031293  0.24502027  1
  O  O108  1  0.32095893  0.49818398  0.92098641  1
  O  O109  1  0.82195311  0.49775285  0.92236021  1
  O  O110  1  0.42787078  0.35711702  0.92126646  1
  O  O111  1  0.92746444  0.35528476  0.92266963  1
  O  O112  1  0.25116045  0.14553285  0.92179082  1
  O  O113  1  0.75148696  0.14511233  0.92270473  1
  O  O114  1  0.32194667  0.14499249  0.42084220  1
  O  O115  1  0.82140564  0.14523160  0.42215233  1
  O  O116  1  0.25117253  0.35624535  0.42115947  1
  O  O117  1  0.75150400  0.35631530  0.42318417  1
  O  O118  1  0.42843785  0.50121502  0.42137712  1
  O  O119  1  0.92728676  0.49913424  0.42201060  1
  O  O120  1  0.17791315  0.50096686  0.07797452  1
  O  O121  1  0.67820242  0.50051487  0.07746215  1
  O  O122  1  0.07323136  0.64367947  0.07718558  1
  O  O123  1  0.57379301  0.64416903  0.07759368  1
  O  O124  1  0.24878343  0.85373842  0.07788619  1
  O  O125  1  0.74900507  0.85475753  0.07775081  1
  O  O126  1  0.17697225  0.85407637  0.57839393  1
  O  O127  1  0.67894460  0.85527490  0.57738523  1
  O  O128  1  0.24907250  0.64432246  0.57875500  1
  O  O129  1  0.74919798  0.64428907  0.57734970  1
  O  O130  1  0.07254416  0.50118681  0.57829968  1
  O  O131  1  0.57394514  0.50323779  0.57774576  1
  O  O132  1  0.15688532  0.84988041  0.25493992  1
  O  O133  1  0.65704094  0.84983327  0.25495575  1
  O  O134  1  0.26157345  0.70222421  0.25543739  1
  O  O135  1  0.76160763  0.70239995  0.25539034  1
  O  O136  1  0.08249809  0.48474075  0.25529416  1
  O  O137  1  0.58271117  0.48497362  0.25559594  1
  O  O138  1  0.15634150  0.46372268  0.75504906  1
  O  O139  1  0.65612536  0.48100891  0.75602505  1
  O  O140  1  0.08412856  0.68308535  0.75537909  1
  O  O141  1  0.58326961  0.68563103  0.75589764  1
  O  O142  1  0.26111637  0.82104961  0.75592542  1
  O  O143  1  0.76028723  0.82993320  0.75557190  1
loop_
_geom_bond_atom_site_label_1
_geom_bond_atom_site_label_2
_geom_bond_distance
_geom_bond_site_symmetry_2
Na0 O104 2.398057 1_555
Na0 O134 2.398879 1_545
Na0 O106 2.623753 1_555
Na0 O132 2.623896 1_545
Na0 O62 2.774574 1_545
Na0 O32 2.775340 1_555
Na0 O18 2.949791 1_545
Na0 O4 2.950245 1_555
Na1 O105 2.396819 1_555
Na1 O135 2.398081 1_545
Na1 O133 2.619571 1_545
Na1 O107 2.620211 1_555
Na1 O63 2.772682 1_545
Na1 O33 2.775598 1_555
Na1 O5 2.948276 1_555
Na1 O19 2.952112 1_545
Na2 O142 2.399453 1_555
Na2 O100 2.495868 1_555
Na2 O98 2.625238 1_555
Na2 O138 2.628995 1_555
Na2 O70 2.751827 1_555
Na2 O28 2.781567 1_555
Na2 O8 2.911951 1_555
Na2 O12 2.938716 1_555
Na3 O101 2.422453 1_555
Na3 O143 2.517280 1_555
Na3 O99 2.559694 1_555
Na3 O139 2.581243 1_555
Na3 O29 2.757393 1_555
Na3 O71 2.792655 1_555
Na4 O139 2.511437 1_555
Na4 O96 2.513949 1_555
Na4 O141 2.571569 1_555
Na4 O100 2.628042 1_555
Na4 O67 2.753084 1_555
Na4 O24 2.806277 1_555
Na4 O15 2.946096 1_555
Na4 O10 2.956908 1_555
Na5 O97 2.468481 1_555
Na5 O99 2.516099 1_555
Na5 O141 2.566838 1_545
Na5 O143 2.600864 1_545
Na5 O27 2.758320 1_555
Na5 O69 2.796950 1_545
Na5 O7 2.977607 1_555
Na5 O17 2.987906 1_545
Na6 O128 2.503178 1_555
Na6 O86 2.507495 1_555
Na6 O85 2.564676 1_455
Na6 O130 2.571756 1_555
Na6 O56 2.665292 1_555
Na6 O14 2.878368 1_555
Na6 O42 2.969831 1_555
Na6 O28 3.005904 1_555
Na7 O87 2.511060 1_555
Na7 O129 2.522070 1_555
Na7 O84 2.574394 1_555
Na7 O131 2.594464 1_555
Na7 O57 2.745064 1_555
Na7 O15 2.761212 1_555
Na7 O29 2.952979 1_555
Na7 O43 2.984832 1_555
Na8 O130 2.477358 1_555
Na8 O89 2.548198 1_455
Na8 O126 2.574662 1_555
Na8 O86 2.653759 1_565
Na8 O58 2.724020 1_555
Na8 O16 2.760088 1_555
Na8 O25 2.901443 1_455
Na8 O45 2.977310 1_455
Na9 O88 2.518828 1_555
Na9 O131 2.526022 1_555
Na9 O87 2.562678 1_565
Na9 O127 2.583816 1_555
Na9 O59 2.724695 1_555
Na9 O17 2.768236 1_555
Na9 O24 2.982911 1_555
Na9 O44 2.987184 1_555
Na10 O126 2.532492 1_555
Na10 O84 2.537228 1_565
Na10 O128 2.569980 1_555
Na10 O88 2.573332 1_555
Na10 O12 2.750272 1_555
Na10 O54 2.784451 1_555
Na10 O26 2.956239 1_565
Na10 O46 2.993251 1_565
Na11 O127 2.477076 1_555
Na11 O85 2.564478 1_565
Na11 O129 2.597409 1_555
Na11 O89 2.619964 1_555
Na11 O55 2.784768 1_555
Na11 O13 2.800384 1_555
Na11 O27 2.948252 1_565
Na11 O47 2.961010 1_565
Na12 O124 2.505423 1_555
Na12 O94 2.506117 1_565
Na12 O91 2.558195 1_455
Na12 O122 2.589571 1_555
Na12 O52 2.687038 1_554
Na12 O22 2.865969 1_555
Na12 O36 2.956032 1_565
Na12 O32 2.978594 1_565
Na13 O95 2.491966 1_565
Na13 O125 2.505618 1_555
Na13 O90 2.547430 1_555
Na13 O123 2.594606 1_555
Na13 O53 2.728660 1_554
Na13 O23 2.868286 1_555
Na13 O37 2.959408 1_565
Na13 O33 2.976956 1_565
Na14 O120 2.497407 1_555
Na14 O90 2.591853 1_555
Na14 O124 2.593045 1_555
Na14 O92 2.602724 1_565
Na14 O18 2.790848 1_555
Na14 O48 2.793396 1_554
Na14 O34 2.930435 1_555
Na14 O38 2.954015 1_555
Na15 O121 2.491467 1_555
Na15 O91 2.576814 1_555
Na15 O125 2.598693 1_555
Na15 O93 2.616123 1_565
Na15 O49 2.761097 1_554
Na15 O19 2.784086 1_555
Na15 O35 2.923095 1_555
Na15 O39 2.969713 1_555
Na16 O122 2.482448 1_555
Na16 O93 2.545419 1_455
Na16 O120 2.574628 1_555
Na16 O94 2.629447 1_555
Na16 O50 2.720056 1_554
Na16 O20 2.759805 1_555
Na16 O31 2.902181 1_455
Na16 O41 2.981270 1_455
Na17 O123 2.492183 1_555
Na17 O92 2.550026 1_555
Na17 O121 2.578717 1_555
Na17 O95 2.629081 1_555
Na17 O21 2.751759 1_555
Na17 O51 2.765294 1_554
Na17 O30 2.906679 1_555
Na17 O40 2.974702 1_555
Na18 O110 2.512690 1_555
Na18 O81 2.513142 1_555
Na18 O82 2.589702 1_555
Na18 O108 2.592229 1_555
Na18 O38 2.724336 1_556
Na18 O8 2.755724 1_555
Na19 O111 2.490019 1_555
Na19 O80 2.579519 1_655
Na19 O109 2.591320 1_555
Na19 O83 2.616213 1_555
Na19 O39 2.720266 1_556
Na19 O9 2.800630 1_555
Na19 O66 2.917264 1_655
Na19 O52 2.970055 1_655
Na20 O82 2.499490 1_545
Na20 O112 2.512071 1_555
Na20 O79 2.591161 1_555
Na20 O110 2.592266 1_555
Na20 O10 2.752696 1_555
Na20 O40 2.785911 1_556
Na20 O68 2.935381 1_545
Na20 O48 2.986955 1_545
Na21 O113 2.469658 1_555
Na21 O83 2.553833 1_545
Na21 O111 2.563086 1_555
Na21 O78 2.633777 1_655
Na21 O11 2.759396 1_555
Na21 O41 2.776015 1_556
Na21 O69 2.958075 1_545
Na21 O49 2.997792 1_545
Na22 O108 2.486175 1_555
Na22 O78 2.497014 1_555
Na22 O80 2.579588 1_545
Na22 O112 2.604903 1_555
Na22 O36 2.674338 1_556
Na22 O6 2.878037 1_555
Na22 O50 2.951763 1_555
Na22 O70 2.984831 1_555
Na23 O79 2.507171 1_555
Na23 O109 2.520147 1_555
Na23 O81 2.569202 1_545
Na23 O113 2.586559 1_555
Na23 O37 2.735193 1_556
Na23 O7 2.760355 1_555
Na24 O118 2.501508 1_555
Na24 O77 2.572765 1_555
Na24 O114 2.595219 1_555
Na24 O74 2.616335 1_545
Na24 O46 2.760577 1_555
Na24 O4 2.781235 1_555
Na24 O61 2.935661 1_555
Na24 O57 2.970147 1_555
Na25 O119 2.495025 1_555
Na25 O76 2.585846 1_655
Na25 O115 2.595070 1_555
Na25 O75 2.611681 1_545
Na25 O47 2.721619 1_555
Na25 O5 2.791545 1_555
Na25 O60 2.932567 1_655
Na25 O56 2.959747 1_655
Na26 O72 2.502408 1_545
Na26 O114 2.510993 1_555
Na26 O76 2.557127 1_555
Na26 O116 2.596857 1_555
Na26 O42 2.686201 1_555
Na26 O0 2.860498 1_555
Na26 O58 2.948718 1_545
Na26 O62 2.986372 1_545
Na27 O73 2.484294 1_545
Na27 O115 2.498901 1_555
Na27 O77 2.557163 1_555
Na27 O117 2.588113 1_555
Na27 O43 2.724019 1_555
Na27 O1 2.870308 1_555
Na27 O59 2.965420 1_545
Na27 O63 2.987664 1_545
Na28 O116 2.490132 1_555
Na28 O74 2.537680 1_555
Na28 O118 2.570518 1_555
Na28 O73 2.640843 1_555
Na28 O2 2.744232 1_555
Na28 O44 2.783805 1_555
Na28 O64 2.921692 1_555
Na28 O54 2.976320 1_555
Na29 O117 2.482327 1_555
Na29 O75 2.547089 1_555
Na29 O119 2.570139 1_555
Na29 O72 2.626126 1_655
Na29 O3 2.755553 1_555
Na29 O45 2.759526 1_555
Na29 O65 2.896952 1_555
Na29 O55 2.984255 1_555
Na30 O86 2.619286 1_555
Na30 O89 2.627578 1_445
Na30 O75 2.633557 1_445
Na30 O76 2.636502 1_555
Na30 O72 2.642656 1_545
Na30 O85 2.653414 1_455
Na31 O87 2.583419 1_565
Na31 O84 2.584668 1_565
Na31 O88 2.599196 1_555
Na31 O73 2.652384 1_555
Na31 O74 2.662042 1_555
Na31 O77 2.663188 1_565
Na32 O83 2.626797 1_444
Na32 O94 2.627110 1_555
Na32 O93 2.633209 1_455
Na32 O80 2.633339 1_544
Na32 O78 2.638472 1_554
Na32 O91 2.641396 1_445
Na33 O81 2.578150 1_545
Na33 O79 2.586462 1_555
Na33 O82 2.603648 1_545
Na33 O95 2.659680 1_556
Na33 O92 2.662472 1_556
Na33 O90 2.673330 1_546
Na34 O110 2.567924 1_555
Na34 O112 2.568828 1_555
Na34 O96 2.587023 1_555
Na34 O108 2.620531 1_555
Na34 O100 2.621648 1_555
Na34 O98 2.731818 1_555
Na35 O97 2.536997 1_555
Na35 O101 2.567107 1_555
Na35 O111 2.623106 1_555
Na35 O99 2.628120 1_555
Na35 O109 2.681338 1_555
Na35 O113 2.688511 1_555
Na36 O102 2.518272 1_555
Na36 O104 2.577007 1_555
Na36 O118 2.578444 1_555
Na36 O116 2.629999 1_555
Na36 O114 2.690366 1_555
Na36 O106 2.750360 1_555
Na37 O103 2.519232 1_555
Na37 O119 2.576989 1_555
Na37 O105 2.581112 1_555
Na37 O117 2.658480 1_555
Na37 O115 2.707016 1_555
Na37 O107 2.749465 1_555
Na38 O136 2.518092 1_555
Na38 O120 2.575364 1_555
Na38 O134 2.581078 1_555
Na38 O122 2.650253 1_555
Na38 O124 2.700167 1_555
Na38 O132 2.753593 1_555
Na39 O137 2.517143 1_555
Na39 O135 2.574364 1_555
Na39 O121 2.592711 1_555
Na39 O123 2.643987 1_555
Na39 O125 2.711960 1_555
Na39 O133 2.749614 1_555
Na40 O140 2.507480 1_555
Na40 O126 2.568835 1_555
Na40 O142 2.591064 1_555
Na40 O130 2.633436 1_555
Na40 O128 2.688043 1_555
Na40 O138 2.753171 1_555
Na41 O143 2.602849 1_555
Na41 O131 2.613653 1_555
Na41 O139 2.615965 1_555
Na41 O141 2.621487 1_555
Na41 O129 2.623476 1_555
Na41 O127 2.626823 1_555
Hf0 O25 2.003924 1_555
Hf0 O27 2.074032 1_555
Hf0 O29 2.075446 1_555
Hf0 O101 2.090015 1_555
Hf0 O97 2.093894 1_555
Hf0 O99 2.142066 1_555
Hf1 O30 1.966225 1_555
Hf1 O34 2.025571 1_555
Hf1 O102 2.053569 1_555
Hf1 O32 2.100412 1_555
Hf1 O104 2.105977 1_555
Hf1 O106 2.346212 1_555
Hf2 O31 1.964244 1_555
Hf2 O35 2.023428 1_555
Hf2 O103 2.054506 1_555
Hf2 O33 2.097789 1_555
Hf2 O105 2.107202 1_555
Hf2 O107 2.347650 1_555
Hf3 O37 2.036164 1_556
Hf3 O41 2.039010 1_556
Hf3 O39 2.052751 1_556
Hf3 O113 2.120715 1_555
Hf3 O109 2.121161 1_555
Hf3 O111 2.128629 1_555
Hf4 O43 2.035877 1_555
Hf4 O45 2.043589 1_555
Hf4 O47 2.045597 1_555
Hf4 O117 2.118906 1_555
Hf4 O115 2.119514 1_555
Hf4 O119 2.132302 1_555
Hf5 O48 2.030969 1_554
Hf5 O50 2.037940 1_554
Hf5 O52 2.057321 1_554
Hf5 O122 2.116318 1_555
Hf5 O124 2.127097 1_555
Hf5 O120 2.130051 1_555
Hf6 O51 2.035226 1_554
Hf6 O53 2.037934 1_554
Hf6 O49 2.041757 1_554
Hf6 O123 2.112869 1_555
Hf6 O125 2.122739 1_555
Hf6 O121 2.126422 1_555
Hf7 O59 2.035419 1_555
Hf7 O55 2.036638 1_555
Hf7 O57 2.051733 1_555
Hf7 O131 2.119820 1_555
Hf7 O127 2.123755 1_555
Hf7 O129 2.126344 1_555
Hf8 O64 1.962871 1_555
Hf8 O60 2.026008 1_555
Hf8 O136 2.053150 1_555
Hf8 O62 2.094465 1_555
Hf8 O134 2.108543 1_555
Hf8 O132 2.339437 1_555
Hf9 O65 1.964998 1_555
Hf9 O61 2.019912 1_555
Hf9 O137 2.055205 1_555
Hf9 O63 2.098112 1_555
Hf9 O135 2.105690 1_555
Hf9 O133 2.348187 1_555
Hf10 O68 1.959551 1_555
Hf10 O66 2.021319 1_555
Hf10 O140 2.052265 1_555
Hf10 O70 2.087805 1_555
Hf10 O142 2.112761 1_555
Hf10 O138 2.343991 1_555
Hf11 O67 2.039778 1_555
Hf11 O69 2.040357 1_555
Hf11 O71 2.043195 1_555
Hf11 O143 2.114957 1_555
Hf11 O139 2.115726 1_555
Hf11 O141 2.125504 1_555
O0 S0 1.487033 1_555
O0 Zr0 2.279123 1_445
O1 S1 1.487073 1_555
O1 Zr1 2.270481 1_545
O2 Si0 1.653547 1_555
O2 Zr1 2.025193 1_555
O3 Si1 1.651846 1_555
O3 Zr0 2.021392 1_555
O4 Si3 1.657869 1_555
O4 Zr1 2.038532 1_545
O5 Si2 1.657842 1_655
O5 Zr0 2.036710 1_545
O6 S2 1.484153 1_555
O6 Zr2 2.273181 1_445
O7 Si4 1.644333 1_555
O7 Zr3 2.060863 1_555
O8 Si6 1.640168 1_555
O8 Zr3 2.062548 1_565
O9 Si5 1.659496 1_655
O9 Zr2 2.032571 1_555
O10 Si7 1.650805 1_545
O10 Zr3 2.057755 1_555
O11 Si8 1.642552 1_555
O11 Zr2 2.028026 1_545
O12 Si7 1.651923 1_555
O12 Zr5 2.061166 1_565
O13 Si8 1.647615 1_565
O13 Zr4 2.040686 1_555
O14 S2 1.483782 1_555
O14 Zr4 2.285470 1_445
O15 Si4 1.644998 1_555
O15 Zr5 2.057690 1_555
O16 Si5 1.652125 1_555
O16 Zr4 2.020720 1_455
O17 Si6 1.643665 1_555
O17 Zr5 2.063939 1_565
O18 Si0 1.657850 1_555
O18 Zr7 2.038873 1_565
O19 Si1 1.657687 1_555
O19 Zr6 2.036259 1_565
O20 Si2 1.652245 1_555
O20 Zr6 2.022044 1_455
O21 Si3 1.652483 1_555
O21 Zr7 2.022991 1_555
O22 S0 1.486783 1_565
O22 Zr6 2.277270 1_465
O23 S1 1.486222 1_565
O23 Zr7 2.273134 1_565
O24 Si9 1.650519 1_555
O24 Zr8 2.017062 1_555
O25 Si10 1.631102 1_555
O26 Si11 1.635593 1_555
O26 Zr8 2.014069 1_555
O27 Si12 1.637136 1_555
O28 Si13 1.644001 1_555
O28 Zr8 2.082858 1_555
O29 Si14 1.631739 1_555
O30 Si15 1.637911 1_555
O31 Si16 1.639505 1_555
O32 Si17 1.633222 1_555
O33 Si18 1.633341 1_555
O34 Si19 1.629535 1_555
O35 Si20 1.630005 1_555
O36 Si19 1.647715 1_555
O36 Zr9 2.062678 1_554
O37 Si20 1.647425 1_555
O38 Si15 1.642804 1_555
O38 Zr9 2.071507 1_554
O39 Si16 1.643550 1_555
O40 Si17 1.643327 1_555
O40 Zr9 2.066286 1_554
O41 Si18 1.642987 1_555
O42 Si11 1.642712 1_555
O42 Zr10 2.070902 1_555
O43 Si12 1.646282 1_555
O44 Si13 1.644951 1_555
O44 Zr10 2.059970 1_555
O45 Si14 1.639639 1_555
O46 Si9 1.637637 1_555
O46 Zr10 2.062422 1_555
O47 Si10 1.646978 1_555
O48 Si21 1.648653 1_555
O49 Si22 1.636179 1_555
O50 Si23 1.646322 1_555
O51 Si24 1.642230 1_555
O52 Si25 1.642329 1_555
O53 Si26 1.643111 1_555
O54 Si27 1.643152 1_555
O54 Zr11 2.064977 1_555
O55 Si28 1.642866 1_555
O56 Si29 1.643078 1_555
O56 Zr11 2.077657 1_555
O57 Si30 1.643066 1_555
O58 Si31 1.647117 1_555
O58 Zr11 2.059926 1_555
O59 Si32 1.647127 1_555
O60 Si31 1.629310 1_555
O61 Si32 1.628064 1_555
O62 Si27 1.631484 1_555
O63 Si28 1.632783 1_555
O64 Si29 1.636003 1_555
O65 Si30 1.639851 1_555
O66 Si23 1.630124 1_555
O67 Si24 1.640737 1_555
O68 Si25 1.636238 1_555
O69 Si26 1.643890 1_555
O70 Si21 1.638545 1_555
O71 Si22 1.635525 1_555
O72 Si31 1.647133 1_555
O72 Zr0 2.139165 1_455
O73 Si32 1.647778 1_555
O73 Zr1 2.143535 1_555
O74 Si27 1.659393 1_555
O74 Zr1 2.068990 1_555
O75 Si28 1.661627 1_555
O75 Zr0 2.074494 1_555
O76 Si29 1.640461 1_555
O76 Zr0 2.153359 1_445
O77 Si30 1.642943 1_555
O77 Zr1 2.160402 1_545
O78 Si23 1.649135 1_555
O78 Zr2 2.143518 1_445
O79 Si24 1.643755 1_555
O79 Zr3 2.153276 1_555
O80 Si25 1.643799 1_555
O80 Zr2 2.149615 1_455
O81 Si26 1.643903 1_555
O81 Zr3 2.166251 1_565
O82 Si21 1.647530 1_555
O82 Zr3 2.154336 1_565
O83 Si22 1.657208 1_555
O83 Zr2 2.072812 1_555
O84 Si9 1.635960 1_555
O84 Zr5 2.158085 1_555
O85 Si10 1.646075 1_555
O85 Zr4 2.149600 1_545
O86 Si11 1.642333 1_555
O86 Zr4 2.138232 1_445
O87 Si12 1.646522 1_555
O87 Zr5 2.163811 1_555
O88 Si13 1.641775 1_555
O88 Zr5 2.152991 1_565
O89 Si14 1.660487 1_555
O89 Zr4 2.070417 1_555
O90 Si15 1.640033 1_555
O90 Zr7 2.151522 1_565
O91 Si16 1.643878 1_555
O91 Zr6 2.160779 1_565
O92 Si17 1.660536 1_555
O92 Zr7 2.070791 1_555
O93 Si18 1.662087 1_555
O93 Zr6 2.074216 1_555
O94 Si19 1.647520 1_555
O94 Zr6 2.139948 1_455
O95 Si20 1.648868 1_555
O95 Zr7 2.147744 1_555
O96 Si7 1.645017 1_545
O96 Zr8 2.109335 1_555
O97 Si8 1.630001 1_555
O98 S2 1.495091 1_555
O98 Zr8 2.342018 1_555
O99 Si4 1.633265 1_555
O100 Si6 1.648244 1_555
O100 Zr8 2.161560 1_555
O101 Si5 1.642014 1_655
O102 Si0 1.631181 1_555
O103 Si1 1.629913 1_555
O104 Si3 1.651004 1_555
O105 Si2 1.649936 1_655
O106 S0 1.488531 1_555
O107 S1 1.488643 1_555
O108 Si21 1.647045 1_555
O108 Zr9 2.149316 1_555
O109 Si22 1.638194 1_555
O110 Si24 1.643770 1_555
O110 Zr9 2.158084 1_555
O111 Si23 1.647284 1_655
O112 Si25 1.639076 1_545
O112 Zr9 2.149039 1_555
O113 Si26 1.646044 1_545
O114 Si27 1.639662 1_545
O114 Zr10 2.151623 1_555
O115 Si28 1.642740 1_545
O116 Si29 1.637925 1_555
O116 Zr10 2.140522 1_555
O117 Si30 1.640577 1_555
O118 Si32 1.646165 1_555
O118 Zr10 2.153910 1_555
O119 Si31 1.646203 1_655
O120 Si19 1.647003 1_555
O121 Si20 1.647979 1_555
O122 Si16 1.639286 1_455
O123 Si15 1.639128 1_555
O124 Si17 1.642091 1_565
O125 Si18 1.642547 1_565
O126 Si11 1.637524 1_565
O126 Zr11 2.153205 1_555
O127 Si12 1.650279 1_565
O128 Si13 1.640274 1_555
O128 Zr11 2.153346 1_555
O129 Si14 1.641675 1_555
O130 Si10 1.641090 1_455
O130 Zr11 2.141605 1_555
O131 Si9 1.636856 1_555
O132 S0 1.489224 1_565
O133 S1 1.488585 1_565
O134 Si0 1.650956 1_555
O135 Si1 1.650039 1_555
O136 Si2 1.630175 1_555
O137 Si3 1.630332 1_555
O138 S2 1.486879 1_555
O139 Si4 1.642007 1_555
O140 Si5 1.628015 1_555
O141 Si6 1.640803 1_555
O142 Si7 1.638261 1_555
O143 Si8 1.651680 1_565
