# generated using pymatgen
data_BaMgVO3
_symmetry_space_group_name_H-M   'P 1'
_cell_length_a   4.56773679
_cell_length_b   4.56773679
_cell_length_c   4.60374019
_cell_angle_alpha   81.44973386
_cell_angle_beta   81.44973386
_cell_angle_gamma   81.66451265
_symmetry_Int_Tables_number   1
_chemical_formula_structural   BaMgVO3
_chemical_formula_sum   'Ba1 Mg1 V1 O3'
_cell_volume   93.18586749
_cell_formula_units_Z   1
loop_
 _symmetry_equiv_pos_site_id
 _symmetry_equiv_pos_as_xyz
  1  'x, y, z'
loop_
 _atom_site_type_symbol
 _atom_site_label
 _atom_site_symmetry_multiplicity
 _atom_site_fract_x
 _atom_site_fract_y
 _atom_site_fract_z
 _atom_site_occupancy
  Ba  Ba0  1  0.89997634  0.89997634  0.90193192  1
  Mg  Mg0  1  0.25803438  0.25803438  0.26311223  1
  V  V0  1  0.54133799  0.54133799  0.54512906  1
  O  O0  1  0.51694170  0.01870773  0.51867766  1
  O  O1  1  0.01870773  0.51694170  0.51867766  1
  O  O2  1  0.51500185  0.51500185  0.01913847  1
loop_
_geom_bond_atom_site_label_1
_geom_bond_atom_site_label_2
_geom_bond_distance
_geom_bond_site_symmetry_2
Ba0 O2 2.609174 1_556
Ba0 O1 2.612782 1_655
Ba0 O0 2.612782 1_565
Ba0 O2 3.164123 1_566
Ba0 O2 3.164123 1_656
Mg0 O2 1.905885 1_555
Mg0 O1 1.906404 1_555
Mg0 O0 1.906404 1_555
O0 V0 2.153242 1_545
O0 V0 2.427706 1_555
O1 V0 2.153242 1_455
O1 V0 2.427706 1_555
O2 V0 2.153854 1_554
O2 V0 2.463769 1_555
