# generated using pymatgen
data_Na6Ti3ZnSi2(PO6)4
_symmetry_space_group_name_H-M   'P 1'
_cell_length_a   8.91024560
_cell_length_b   8.92199996
_cell_length_c   21.91435459
_cell_angle_alpha   89.81532744
_cell_angle_beta   90.26838320
_cell_angle_gamma   119.96998122
_symmetry_Int_Tables_number   1
_chemical_formula_structural   Na6Ti3ZnSi2(PO6)4
_chemical_formula_sum   'Na18 Ti9 Zn3 Si6 P12 O72'
_cell_volume   1509.16772191
_cell_formula_units_Z   3
loop_
 _symmetry_equiv_pos_site_id
 _symmetry_equiv_pos_as_xyz
  1  'x, y, z'
loop_
 _atom_site_type_symbol
 _atom_site_label
 _atom_site_symmetry_multiplicity
 _atom_site_fract_x
 _atom_site_fract_y
 _atom_site_fract_z
 _atom_site_occupancy
  Na  Na0  1  0.00825100  0.00097957  0.49960211  1
  Na  Na1  1  0.99883060  0.00108297  0.99977448  1
  Na  Na2  1  0.65144524  0.30389076  0.82990821  1
  Na  Na3  1  0.65251011  0.33393726  0.32480033  1
  Na  Na4  1  0.32931576  0.66535681  0.16341206  1
  Na  Na5  1  0.32129899  0.66520434  0.66543463  1
  Na  Na6  1  0.64465284  0.01353472  0.24325131  1
  Na  Na7  1  0.98734991  0.62247610  0.24298907  1
  Na  Na8  1  0.62690826  0.61559664  0.74412722  1
  Na  Na9  1  0.99353582  0.37258382  0.74525615  1
  Na  Na10  1  0.66586569  0.97451008  0.58738727  1
  Na  Na11  1  0.66084120  0.68865350  0.08223554  1
  Na  Na12  1  0.02701876  0.33852737  0.08711646  1
  Na  Na13  1  0.96677846  0.66925764  0.91644049  1
  Na  Na14  1  0.33600043  0.30173817  0.91773519  1
  Na  Na15  1  0.96219281  0.28536720  0.41097869  1
  Na  Na16  1  0.32702272  0.03625974  0.41189628  1
  Na  Na17  1  0.71708423  0.68056087  0.41334212  1
  Ti  Ti0  1  0.99633420  0.00229092  0.85688940  1
  Ti  Ti1  1  0.00357351  0.99325715  0.64445359  1
  Ti  Ti2  1  0.00798071  0.99925797  0.14789100  1
  Ti  Ti3  1  0.67128930  0.33651861  0.97878439  1
  Ti  Ti4  1  0.66915250  0.33635889  0.48453446  1
  Ti  Ti5  1  0.32935240  0.67058803  0.01653934  1
  Ti  Ti6  1  0.34051886  0.66797277  0.52189442  1
  Ti  Ti7  1  0.33791154  0.66869018  0.31208535  1
  Ti  Ti8  1  0.33532408  0.67432378  0.81524926  1
  Zn  Zn0  1  0.99711828  0.99924254  0.34928783  1
  Zn  Zn1  1  0.65488471  0.32781421  0.68173488  1
  Zn  Zn2  1  0.66632811  0.33392290  0.17823276  1
  Si  Si0  1  0.66720549  0.62603944  0.58703830  1
  Si  Si1  1  0.96574125  0.63003271  0.08512975  1
  Si  Si2  1  0.62234246  0.66912267  0.91692791  1
  Si  Si3  1  0.04183205  0.37706010  0.91572024  1
  Si  Si4  1  0.33955204  0.96151343  0.91554457  1
  Si  Si5  1  0.62381996  0.96251851  0.41712186  1
  P  P0  1  0.29307380  -0.00015700  0.25423612  1
  P  P1  1  0.70339371  0.70555705  0.25149799  1
  P  P2  1  0.00569554  0.29594375  0.25208178  1
  P  P3  1  0.28465745  0.28541811  0.75126007  1
  P  P4  1  0.00828268  0.71635334  0.75180461  1
  P  P5  1  0.71010495  0.99520953  0.74851036  1
  P  P6  1  0.96450669  0.33718545  0.58604662  1
  P  P7  1  0.37328135  0.04047657  0.58297821  1
  P  P8  1  0.66386193  0.03892132  0.08556542  1
  P  P9  1  0.37251672  0.33192054  0.08272146  1
  P  P10  1  0.34086642  0.38463829  0.41773659  1
  P  P11  1  0.04515707  0.65968237  0.41684779  1
  O  O0  1  0.21572508  0.01526110  0.31417475  1
  O  O1  1  0.80452368  0.78269726  0.31093393  1
  O  O2  1  0.98411090  0.19418808  0.31114140  1
  O  O3  1  0.19093952  0.18603605  0.81032193  1
  O  O4  1  0.99705531  0.81111512  0.80917336  1
  O  O5  1  0.82605403  0.00727011  0.80416505  1
  O  O6  1  0.79867214  0.97676657  0.68960524  1
  O  O7  1  0.16839279  0.18529306  0.69538899  1
  O  O8  1  0.01521365  0.82439694  0.69406141  1
  O  O9  1  0.80027552  0.82762732  0.19559065  1
  O  O10  1  0.01903244  0.19841515  0.19479683  1
  O  O11  1  0.16811834  0.98079811  0.19947127  1
  O  O12  1  0.88972348  0.36272254  0.64473744  1
  O  O13  1  0.49395095  0.10975309  0.63767195  1
  O  O14  1  0.63461202  0.52038686  0.64870559  1
  O  O15  1  0.89396744  0.51354568  0.14546653  1
  O  O16  1  0.63900376  0.10618812  0.14618198  1
  O  O17  1  0.48756297  0.36774682  0.13800277  1
  O  O18  1  0.45221627  0.30673003  0.02336895  1
  O  O19  1  0.83282831  0.53374447  0.02641418  1
  O  O20  1  0.68780572  0.16583467  0.03245821  1
  O  O21  1  0.46302353  0.15423036  0.52460952  1
  O  O22  1  0.68900755  0.52350715  0.52677002  1
  O  O23  1  0.83637228  0.30678903  0.53010638  1
  O  O24  1  0.53250505  0.69384842  0.97734250  1
  O  O25  1  0.16732926  0.46658876  0.97487356  1
  O  O26  1  0.29775579  0.82720139  0.97213297  1
  O  O27  1  0.51998639  0.83926512  0.47554773  1
  O  O28  1  0.32044968  0.47570090  0.47397873  1
  O  O29  1  0.16023116  0.67509429  0.47127009  1
  O  O30  1  0.12698943  0.63477589  0.35729208  1
  O  O31  1  0.49809601  0.86236783  0.35646124  1
  O  O32  1  0.35964281  0.49824116  0.36044462  1
  O  O33  1  0.13213611  0.50257450  0.85570838  1
  O  O34  1  0.36625124  0.86451298  0.85608556  1
  O  O35  1  0.49628508  0.63295731  0.85674826  1
  O  O36  1  0.02512951  0.82098426  0.41578031  1
  O  O37  1  0.81357880  0.98053003  0.41643735  1
  O  O38  1  0.18272803  0.20187895  0.41539670  1
  O  O39  1  0.02525419  0.18673031  0.91053611  1
  O  O40  1  0.16523882  0.97978455  0.91026089  1
  O  O41  1  0.81919403  0.83374436  0.91017490  1
  O  O42  1  0.97469258  0.16749741  0.58646159  1
  O  O43  1  0.19486801  0.02940668  0.58846372  1
  O  O44  1  0.84106126  0.82369390  0.58782216  1
  O  O45  1  0.97489680  0.82051301  0.09196502  1
  O  O46  1  0.83568650  0.02789589  0.08686440  1
  O  O47  1  0.18520937  0.16996807  0.08989272  1
  O  O48  1  0.69868783  0.16024532  0.74829812  1
  O  O49  1  0.46605916  0.30751373  0.75110543  1
  O  O50  1  0.84625045  0.53525834  0.75173410  1
  O  O51  1  0.68013417  0.52530403  0.24426036  1
  O  O52  1  0.84520179  0.31843950  0.24839678  1
  O  O53  1  0.47763286  0.14836328  0.24628403  1
  O  O54  1  0.64093757  0.49474954  0.92245021  1
  O  O55  1  0.85367951  0.36346561  0.92421927  1
  O  O56  1  0.50560713  0.15327733  0.92335950  1
  O  O57  1  0.63531779  0.15224042  0.42120368  1
  O  O58  1  0.51084162  0.37566445  0.42040129  1
  O  O59  1  0.86241924  0.49309756  0.42180486  1
  O  O60  1  0.34575892  0.49202392  0.07743930  1
  O  O61  1  0.15743262  0.65141434  0.07503179  1
  O  O62  1  0.51193342  0.85207074  0.07639893  1
  O  O63  1  0.34255345  0.85441201  0.57312674  1
  O  O64  1  0.50259897  0.66183649  0.57702378  1
  O  O65  1  0.14476781  0.49429466  0.57442702  1
  O  O66  1  0.29410908  0.82238933  0.25240998  1
  O  O67  1  0.52476311  0.70249107  0.25328285  1
  O  O68  1  0.17226727  0.47965065  0.25348351  1
  O  O69  1  0.29471103  0.46635092  0.75084130  1
  O  O70  1  0.17377723  0.69985082  0.75085790  1
  O  O71  1  0.53267778  0.82433862  0.75219941  1
loop_
_geom_bond_atom_site_label_1
_geom_bond_atom_site_label_2
_geom_bond_distance
_geom_bond_site_symmetry_2
Na0 O37 2.453548 1_445
Na0 O44 2.472205 1_445
Na0 O43 2.484531 1_555
Na0 O36 2.497738 1_545
Na0 O38 2.501269 1_555
Na0 O42 2.527295 1_455
Na1 O46 2.487801 1_556
Na1 O39 2.493412 1_655
Na1 O41 2.499660 1_545
Na1 O45 2.522369 1_546
Na1 O40 2.528592 1_645
Na1 O47 2.533155 1_656
Na2 O48 2.361994 1_555
Na2 O49 2.395432 1_555
Na2 O56 2.439448 1_555
Na2 O50 2.575679 1_555
Na2 O55 2.610817 1_555
Na2 O54 2.684127 1_555
Na3 O53 2.354904 1_555
Na3 O51 2.378160 1_555
Na3 O52 2.456822 1_555
Na3 O58 2.573031 1_555
Na3 O57 2.616759 1_555
Na3 O59 2.713362 1_555
Na4 O61 2.428093 1_555
Na4 O60 2.492066 1_555
Na4 O68 2.507561 1_555
Na4 O66 2.515469 1_555
Na4 O62 2.521748 1_555
Na4 O67 2.533166 1_555
Na5 O70 2.400093 1_555
Na5 O69 2.503923 1_555
Na5 O65 2.524030 1_555
Na5 O64 2.538204 1_555
Na5 O71 2.547673 1_555
Na5 O63 2.576770 1_555
Na6 O16 2.289138 1_555
Na6 O53 2.335853 1_555
Na6 O52 2.397835 1_555
Na6 O67 2.434598 1_545
Na6 O66 2.717774 1_545
Na7 O15 2.322295 1_555
Na7 O52 2.354412 1_555
Na7 O66 2.412716 1_655
Na7 O51 2.423859 1_555
Na7 O68 2.546317 1_655
Na7 O30 2.769603 1_655
Na7 O11 2.928207 1_655
Na8 O14 2.273777 1_555
Na8 O49 2.386702 1_555
Na8 O50 2.399372 1_555
Na8 O71 2.402199 1_555
Na8 O69 2.573147 1_555
Na8 O35 2.771140 1_555
Na9 O48 2.350264 1_555
Na9 O12 2.369925 1_555
Na9 O69 2.381359 1_655
Na9 O50 2.398955 1_555
Na9 O70 2.536805 1_655
Na9 O33 2.699647 1_655
Na10 O42 2.409085 1_565
Na10 O64 2.428281 1_555
Na10 O44 2.519104 1_555
Na10 O6 2.523912 1_555
Na10 O63 2.540567 1_555
Na10 O13 2.624451 1_565
Na10 O27 2.752204 1_555
Na10 O23 2.857735 1_565
Na11 O62 2.415058 1_555
Na11 O45 2.442742 1_555
Na11 O60 2.459316 1_555
Na11 O24 2.573179 1_554
Na11 O46 2.624468 1_565
Na11 O17 2.766484 1_555
Na11 O9 2.775535 1_555
Na11 O19 2.810615 1_555
Na12 O46 2.422161 1_455
Na12 O61 2.443465 1_555
Na12 O60 2.470679 1_555
Na12 O47 2.523599 1_555
Na12 O10 2.651386 1_555
Na12 O15 2.712096 1_455
Na12 O25 2.739030 1_554
Na12 O20 2.875640 1_455
Na13 O55 2.395789 1_555
Na13 O41 2.413902 1_555
Na13 O40 2.434377 1_655
Na13 O54 2.521261 1_555
Na13 O4 2.616492 1_555
Na13 O19 2.694598 1_556
Na13 O26 2.828037 1_655
Na13 O33 2.893791 1_655
Na14 O54 2.383781 1_555
Na14 O39 2.429527 1_555
Na14 O56 2.459803 1_555
Na14 O40 2.495412 1_545
Na14 O18 2.522923 1_556
Na14 O3 2.632712 1_555
Na14 O25 2.868414 1_555
Na14 O35 2.886957 1_555
Na15 O37 2.359247 1_545
Na15 O2 2.379265 1_555
Na15 O38 2.426041 1_655
Na15 O59 2.435688 1_555
Na15 O57 2.547940 1_555
Na15 O23 2.890217 1_555
Na15 O30 2.945807 1_655
Na16 O0 2.324146 1_555
Na16 O38 2.396274 1_555
Na16 O36 2.402357 1_545
Na16 O57 2.411320 1_555
Na16 O58 2.633001 1_555
Na16 O21 2.718785 1_555
Na16 O31 2.932336 1_545
Na17 O37 2.368162 1_555
Na17 O36 2.381091 1_655
Na17 O1 2.401614 1_555
Na17 O58 2.409651 1_555
Na17 O59 2.582333 1_555
Na17 O22 2.799622 1_555
O0 P0 1.524338 1_555
O0 Zn0 2.035144 1_445
O1 P1 1.535360 1_555
O1 Zn0 2.017054 1_555
O2 P2 1.535125 1_655
O2 Zn0 1.982057 1_545
O3 P3 1.556185 1_555
O3 Ti0 1.975191 1_455
O4 P4 1.548515 1_655
O4 Ti0 2.006310 1_565
O5 P5 1.563468 1_545
O5 Ti0 1.920825 1_555
O6 P5 1.567428 1_555
O6 Ti1 2.020289 1_655
O7 P3 1.562332 1_555
O7 Ti1 1.954811 1_545
O8 P4 1.570886 1_555
O8 Ti1 1.899171 1_555
O9 P1 1.579364 1_555
O9 Ti2 2.009735 1_655
O10 P2 1.568110 1_555
O10 Ti2 2.014848 1_545
O11 P0 1.583858 1_565
O11 Ti2 1.886594 1_555
O12 P6 1.520445 1_555
O12 Zn1 2.120365 1_555
O13 P7 1.517698 1_555
O13 Zn1 1.996401 1_555
O14 Si0 1.587808 1_555
O14 Zn1 1.951756 1_555
O15 Si1 1.603890 1_555
O15 Zn2 1.989119 1_555
O16 P8 1.521356 1_555
O16 Zn2 2.048017 1_555
O17 P9 1.511324 1_555
O17 Zn2 1.967443 1_555
O18 P9 1.554529 1_555
O18 Ti3 2.081683 1_554
O19 Si1 1.665102 1_555
O19 Ti3 1.929994 1_554
O20 P8 1.560319 1_555
O20 Ti3 1.983672 1_554
O21 P7 1.579865 1_555
O21 Ti4 1.951715 1_555
O22 Si0 1.675315 1_555
O22 Ti4 1.841002 1_555
O23 P6 1.599859 1_555
O23 Ti4 1.914174 1_555
O24 Si2 1.621880 1_555
O24 Ti5 1.922397 1_556
O25 Si3 1.633877 1_555
O25 Ti5 1.898352 1_556
O26 Si4 1.631383 1_555
O26 Ti5 1.833144 1_556
O27 Si5 1.640158 1_555
O27 Ti6 1.867582 1_555
O28 P10 1.538990 1_555
O28 Ti6 1.944403 1_555
O29 P11 1.530141 1_555
O29 Ti6 1.974886 1_555
O30 P11 1.567498 1_555
O30 Ti7 2.013052 1_555
O31 Si5 1.677533 1_555
O31 Ti7 1.871503 1_555
O32 P10 1.567154 1_555
O32 Ti7 1.937819 1_555
O33 Si3 1.652633 1_555
O33 Ti8 1.909584 1_555
O34 Si4 1.649022 1_555
O34 Ti8 1.815612 1_555
O35 Si2 1.652786 1_555
O35 Ti8 1.880069 1_555
O36 P11 1.536173 1_555
O36 Zn0 2.256818 1_455
O37 Si5 1.616665 1_555
O37 Zn0 2.148476 1_555
O38 P10 1.533369 1_555
O38 Zn0 2.260468 1_445
O39 Si3 1.633654 1_555
O39 Ti0 1.934526 1_455
O40 Si4 1.644227 1_555
O40 Ti0 1.989267 1_465
O41 Si2 1.637932 1_555
O41 Ti0 1.936679 1_565
O42 P6 1.561271 1_555
O42 Ti1 2.117045 1_645
O43 P7 1.547973 1_555
O43 Ti1 1.995636 1_545
O44 Si0 1.667474 1_555
O44 Ti1 1.931909 1_655
O45 Si1 1.667419 1_555
O45 Ti2 1.916180 1_655
O46 P8 1.582556 1_555
O46 Ti2 2.140341 1_645
O47 P9 1.577847 1_555
O47 Ti2 2.008045 1_545
O48 P5 1.525806 1_545
O48 Zn1 2.253636 1_555
O49 P3 1.527451 1_555
O49 Zn1 2.211859 1_555
O50 P4 1.537660 1_655
O50 Zn1 2.350929 1_555
O51 P1 1.524077 1_555
O51 Zn2 2.197446 1_555
O52 P2 1.541878 1_655
O52 Zn2 2.262557 1_555
O53 P0 1.521387 1_555
O53 Zn2 2.240150 1_555
O54 Si2 1.648821 1_555
O54 Ti3 1.989291 1_555
O55 Si3 1.630836 1_655
O55 Ti3 1.937709 1_555
O56 Si4 1.617440 1_545
O56 Ti3 1.977909 1_555
O57 Si5 1.646621 1_545
O57 Ti4 2.057060 1_555
O58 P10 1.556883 1_555
O58 Ti4 2.135525 1_555
O59 P11 1.566771 1_655
O59 Ti4 2.101097 1_555
O60 P9 1.565127 1_555
O60 Ti5 2.134891 1_555
O61 Si1 1.637197 1_455
O61 Ti5 1.942695 1_555
O62 P8 1.548214 1_565
O62 Ti5 2.085927 1_555
O63 P7 1.557257 1_565
O63 Ti6 2.002372 1_555
O64 Si0 1.663091 1_555
O64 Ti6 1.900111 1_555
O65 P6 1.536758 1_455
O65 Ti6 2.018829 1_555
O66 P0 1.588504 1_565
O66 Ti7 2.064312 1_555
O67 P1 1.578823 1_555
O67 Ti7 2.009806 1_555
O68 P2 1.568333 1_555
O68 Ti7 2.044846 1_555
O69 P3 1.571449 1_555
O69 Ti8 2.215269 1_555
O70 P4 1.553630 1_555
O70 Ti8 2.102720 1_555
O71 P5 1.556418 1_555
O71 Ti8 2.109997 1_555
