# generated using pymatgen
data_CaSn(SO4)3
_symmetry_space_group_name_H-M   'P 1'
_cell_length_a   9.07619049
_cell_length_b   9.07619019
_cell_length_c   22.71245516
_cell_angle_alpha   90.00000000
_cell_angle_beta   90.00000000
_cell_angle_gamma   120.00000114
_symmetry_Int_Tables_number   1
_chemical_formula_structural   CaSn(SO4)3
_chemical_formula_sum   'Ca6 Sn6 S18 O72'
_cell_volume   1620.32412968
_cell_formula_units_Z   6
loop_
 _symmetry_equiv_pos_site_id
 _symmetry_equiv_pos_as_xyz
  1  'x, y, z'
loop_
 _atom_site_type_symbol
 _atom_site_label
 _atom_site_symmetry_multiplicity
 _atom_site_fract_x
 _atom_site_fract_y
 _atom_site_fract_z
 _atom_site_occupancy
  Ca  Ca0  1  -0.00000000  0.00000000  0.36284135  1
  Ca  Ca1  1  -0.00000000  0.00000000  0.86284135  1
  Ca  Ca2  1  0.66666700  0.33333300  0.69617435  1
  Ca  Ca3  1  0.66666700  0.33333300  0.19617435  1
  Ca  Ca4  1  0.33333300  0.66666700  0.02950835  1
  Ca  Ca5  1  0.33333300  0.66666700  0.52950835  1
  Sn  Sn0  1  -0.00000000  0.00000000  0.65074996  1
  Sn  Sn1  1  -0.00000000  0.00000000  0.15074996  1
  Sn  Sn2  1  0.66666700  0.33333300  0.98408296  1
  Sn  Sn3  1  0.66666700  0.33333300  0.48408296  1
  Sn  Sn4  1  0.33333300  0.66666700  0.31741696  1
  Sn  Sn5  1  0.33333300  0.66666700  0.81741696  1
  S  S0  1  0.27509064  0.97071732  0.25094755  1
  S  S1  1  0.69562668  0.72490936  0.25094755  1
  S  S2  1  0.02928268  0.30437332  0.25094755  1
  S  S3  1  0.27509064  0.30437332  0.75094755  1
  S  S4  1  0.02928268  0.72490936  0.75094755  1
  S  S5  1  0.69562668  0.97071732  0.75094755  1
  S  S6  1  0.94175764  0.30405032  0.58428055  1
  S  S7  1  0.36229368  0.05824236  0.58428055  1
  S  S8  1  0.69594968  0.63770632  0.58428055  1
  S  S9  1  0.94175764  0.63770632  0.08428055  1
  S  S10  1  0.69594968  0.05824236  0.08428055  1
  S  S11  1  0.36229368  0.30405032  0.08428055  1
  S  S12  1  0.60842364  0.63738432  0.91761455  1
  S  S13  1  0.02895968  0.39157636  0.91761455  1
  S  S14  1  0.36261568  0.97104032  0.91761455  1
  S  S15  1  0.60842364  0.97104032  0.41761455  1
  S  S16  1  0.36261568  0.39157636  0.41761455  1
  S  S17  1  0.02895968  0.63738432  0.41761455  1
  O  O0  1  0.19521737  0.99691825  0.30178403  1
  O  O1  1  0.80170088  0.80478263  0.30178403  1
  O  O2  1  0.00308175  0.19829912  0.30178403  1
  O  O3  1  0.19521737  0.19829912  0.80178403  1
  O  O4  1  0.00308175  0.80478263  0.80178403  1
  O  O5  1  0.80170088  0.99691825  0.80178403  1
  O  O6  1  0.77149238  0.93739979  0.69517676  1
  O  O7  1  0.16590741  0.22850762  0.69517676  1
  O  O8  1  0.06260021  0.83409259  0.69517676  1
  O  O9  1  0.77149238  0.83409259  0.19517676  1
  O  O10  1  0.06260021  0.22850762  0.19517676  1
  O  O11  1  0.16590741  0.93739979  0.19517676  1
  O  O12  1  0.86188437  0.33025125  0.63511703  1
  O  O13  1  0.46836788  0.13811563  0.63511703  1
  O  O14  1  0.66974875  0.53163212  0.63511703  1
  O  O15  1  0.86188437  0.53163212  0.13511703  1
  O  O16  1  0.66974875  0.13811563  0.13511703  1
  O  O17  1  0.46836788  0.33025125  0.13511703  1
  O  O18  1  0.43815938  0.27073279  0.02850976  1
  O  O19  1  0.83257441  0.56184062  0.02850976  1
  O  O20  1  0.72926721  0.16742559  0.02850976  1
  O  O21  1  0.43815938  0.16742559  0.52850976  1
  O  O22  1  0.72926721  0.56184062  0.52850976  1
  O  O23  1  0.83257441  0.27073279  0.52850976  1
  O  O24  1  0.52855037  0.66358525  0.96845103  1
  O  O25  1  0.13503388  0.47144963  0.96845103  1
  O  O26  1  0.33641475  0.86496612  0.96845103  1
  O  O27  1  0.52855037  0.86496612  0.46845103  1
  O  O28  1  0.33641475  0.47144963  0.46845103  1
  O  O29  1  0.13503388  0.66358525  0.46845103  1
  O  O30  1  0.10482538  0.60406679  0.36184376  1
  O  O31  1  0.49924041  0.89517462  0.36184376  1
  O  O32  1  0.39593321  0.50075959  0.36184376  1
  O  O33  1  0.10482538  0.50075959  0.86184376  1
  O  O34  1  0.39593321  0.89517462  0.86184376  1
  O  O35  1  0.49924041  0.60406679  0.86184376  1
  O  O36  1  0.00043485  0.77955920  0.40800726  1
  O  O37  1  0.77912435  0.99956515  0.40800726  1
  O  O38  1  0.22044080  0.22087565  0.40800726  1
  O  O39  1  0.00043485  0.22087565  0.90800726  1
  O  O40  1  0.22044080  0.99956515  0.90800726  1
  O  O41  1  0.77912435  0.77955920  0.90800726  1
  O  O42  1  0.94779363  0.14058448  0.58955396  1
  O  O43  1  0.19279084  0.05220637  0.58955396  1
  O  O44  1  0.85941552  0.80720916  0.58955396  1
  O  O45  1  0.94779363  0.80720916  0.08955396  1
  O  O46  1  0.85941552  0.05220637  0.08955396  1
  O  O47  1  0.19279084  0.14058448  0.08955396  1
  O  O48  1  0.66710185  0.11289220  0.74134026  1
  O  O49  1  0.44579135  0.33289815  0.74134026  1
  O  O50  1  0.88710780  0.55420865  0.74134026  1
  O  O51  1  0.66710185  0.55420865  0.24134026  1
  O  O52  1  0.88710780  0.33289815  0.24134026  1
  O  O53  1  0.44579135  0.11289220  0.24134026  1
  O  O54  1  0.61446063  0.47391748  0.92288696  1
  O  O55  1  0.85945784  0.38553937  0.92288696  1
  O  O56  1  0.52608252  0.14054216  0.92288696  1
  O  O57  1  0.61446063  0.14054216  0.42288696  1
  O  O58  1  0.52608252  0.38553937  0.42288696  1
  O  O59  1  0.85945784  0.47391748  0.42288696  1
  O  O60  1  0.33376785  0.44622620  0.07467426  1
  O  O61  1  0.11245735  0.66623215  0.07467426  1
  O  O62  1  0.55377380  0.88754265  0.07467426  1
  O  O63  1  0.33376785  0.88754265  0.57467426  1
  O  O64  1  0.55377380  0.66623215  0.57467426  1
  O  O65  1  0.11245735  0.44622620  0.57467426  1
  O  O66  1  0.28112663  0.80725148  0.25622096  1
  O  O67  1  0.52612384  0.71887337  0.25622096  1
  O  O68  1  0.19274852  0.47387616  0.25622096  1
  O  O69  1  0.28112663  0.47387616  0.75622096  1
  O  O70  1  0.19274852  0.71887337  0.75622096  1
  O  O71  1  0.52612384  0.80725148  0.75622096  1
loop_
_geom_bond_atom_site_label_1
_geom_bond_atom_site_label_2
_geom_bond_distance
_geom_bond_site_symmetry_2
Ca0 O38 2.250175 1_555
Ca0 O36 2.250175 1_545
Ca0 O37 2.250175 1_445
Ca0 O2 2.261157 1_555
Ca0 O1 2.261157 1_445
Ca0 O0 2.261157 1_545
Ca1 O41 2.250175 1_445
Ca1 O39 2.250175 1_555
Ca1 O40 2.250175 1_545
Ca1 O3 2.261157 1_555
Ca1 O4 2.261157 1_545
Ca1 O5 2.261157 1_445
Ca2 O50 2.250175 1_555
Ca2 O48 2.250175 1_555
Ca2 O49 2.250175 1_555
Ca2 O14 2.261157 1_555
Ca2 O13 2.261157 1_555
Ca2 O12 2.261157 1_555
Ca3 O53 2.250175 1_555
Ca3 O51 2.250175 1_555
Ca3 O52 2.250175 1_555
Ca3 O15 2.261157 1_555
Ca3 O16 2.261157 1_555
Ca3 O17 2.261157 1_555
Ca4 O62 2.250175 1_555
Ca4 O60 2.250175 1_555
Ca4 O61 2.250175 1_555
Ca4 O26 2.261157 1_554
Ca4 O25 2.261157 1_554
Ca4 O24 2.261157 1_554
Ca5 O65 2.250175 1_555
Ca5 O63 2.250175 1_555
Ca5 O64 2.250175 1_555
Ca5 O27 2.261157 1_555
Ca5 O28 2.261157 1_555
Ca5 O29 2.261157 1_555
O0 S0 1.444867 1_555
O1 S1 1.444867 1_555
O2 S2 1.444867 1_555
O3 S3 1.444867 1_555
O4 S4 1.444867 1_555
O5 S5 1.444867 1_555
O6 S5 1.542175 1_555
O6 Sn0 2.112817 1_665
O7 S3 1.542175 1_555
O7 Sn0 2.112817 1_555
O8 S4 1.542175 1_555
O8 Sn0 2.112817 1_565
O9 S1 1.542175 1_555
O9 Sn1 2.112817 1_665
O10 S2 1.542175 1_555
O10 Sn1 2.112817 1_555
O11 S0 1.542175 1_555
O11 Sn1 2.112817 1_565
O12 S6 1.444867 1_555
O13 S7 1.444867 1_555
O14 S8 1.444867 1_555
O15 S9 1.444867 1_555
O16 S10 1.444867 1_555
O17 S11 1.444867 1_555
O18 S11 1.542175 1_555
O18 Sn2 2.112817 1_554
O19 S9 1.542175 1_555
O19 Sn2 2.112817 1_554
O20 S10 1.542175 1_555
O20 Sn2 2.112817 1_554
O21 S7 1.542175 1_555
O21 Sn3 2.112817 1_555
O22 S8 1.542175 1_555
O22 Sn3 2.112817 1_555
O23 S6 1.542175 1_555
O23 Sn3 2.112817 1_555
O24 S12 1.444867 1_555
O25 S13 1.444867 1_555
O26 S14 1.444867 1_555
O27 S15 1.444867 1_555
O28 S16 1.444867 1_555
O29 S17 1.444867 1_555
O30 S17 1.542175 1_555
O30 Sn4 2.112817 1_555
O31 S15 1.542175 1_555
O31 Sn4 2.112817 1_555
O32 S16 1.542175 1_555
O32 Sn4 2.112817 1_555
O33 S13 1.542175 1_555
O33 Sn5 2.112817 1_555
O34 S14 1.542175 1_555
O34 Sn5 2.112817 1_555
O35 S12 1.542175 1_555
O35 Sn5 2.112817 1_555
O36 S17 1.453916 1_555
O37 S15 1.453925 1_555
O38 S16 1.453922 1_555
O39 S13 1.453925 1_555
O40 S14 1.453916 1_555
O41 S12 1.453922 1_555
O42 S6 1.516521 1_555
O42 Sn0 2.095012 1_655
O43 S7 1.516530 1_555
O43 Sn0 2.095012 1_555
O44 S8 1.516526 1_555
O44 Sn0 2.095012 1_665
O45 S9 1.516530 1_555
O45 Sn1 2.095012 1_665
O46 S10 1.516521 1_555
O46 Sn1 2.095012 1_655
O47 S11 1.516526 1_555
O47 Sn1 2.095012 1_555
O48 S5 1.453916 1_545
O49 S3 1.453925 1_555
O50 S4 1.453922 1_655
O51 S1 1.453925 1_555
O52 S2 1.453916 1_655
O53 S0 1.453922 1_545
O54 S12 1.516533 1_555
O54 Sn2 2.095012 1_555
O55 S13 1.516515 1_655
O55 Sn2 2.095012 1_555
O56 S14 1.516523 1_545
O56 Sn2 2.095012 1_555
O57 S15 1.516515 1_545
O57 Sn3 2.095012 1_555
O58 S16 1.516533 1_555
O58 Sn3 2.095012 1_555
O59 S17 1.516523 1_655
O59 Sn3 2.095012 1_555
O60 S11 1.453927 1_555
O61 S9 1.453909 1_455
O62 S10 1.453916 1_565
O63 S7 1.453909 1_565
O64 S8 1.453927 1_555
O65 S6 1.453916 1_455
O66 S0 1.516521 1_555
O66 Sn4 2.095012 1_555
O67 S1 1.516530 1_555
O67 Sn4 2.095012 1_555
O68 S2 1.516526 1_555
O68 Sn4 2.095012 1_555
O69 S3 1.516530 1_555
O69 Sn5 2.095012 1_555
O70 S4 1.516521 1_555
O70 Sn5 2.095012 1_555
O71 S5 1.516526 1_555
O71 Sn5 2.095012 1_555
