# generated using pymatgen
data_K4MgRu2(Cl5O)2
_symmetry_space_group_name_H-M   'P 1'
_cell_length_a   7.22606734
_cell_length_b   7.22606734
_cell_length_c   10.19465722
_cell_angle_alpha   110.79154234
_cell_angle_beta   110.79154234
_cell_angle_gamma   89.98659535
_symmetry_Int_Tables_number   1
_chemical_formula_structural   K4MgRu2(Cl5O)2
_chemical_formula_sum   'K4 Mg1 Ru2 Cl10 O2'
_cell_volume   460.40794819
_cell_formula_units_Z   1
loop_
 _symmetry_equiv_pos_site_id
 _symmetry_equiv_pos_as_xyz
  1  'x, y, z'
loop_
 _atom_site_type_symbol
 _atom_site_label
 _atom_site_symmetry_multiplicity
 _atom_site_fract_x
 _atom_site_fract_y
 _atom_site_fract_z
 _atom_site_occupancy
  K  K0  1  0.49539000  0.99297800  0.99034100  1
  K  K1  1  0.99297800  0.49539000  0.99034100  1
  K  K2  1  0.25720100  0.75831000  0.51580800  1
  K  K3  1  0.75831000  0.25720100  0.51580800  1
  Mg  Mg0  1  0.61042000  0.61042000  0.22787700  1
  Ru  Ru0  1  0.89894500  0.89894500  0.79803100  1
  Ru  Ru1  1  0.10640300  0.10640300  0.21388800  1
  Cl  Cl0  1  0.75241200  0.75241200  0.50327200  1
  Cl  Cl1  1  0.23958800  0.23958800  0.47990500  1
  Cl  Cl2  1  0.11729100  0.11729100  0.77251300  1
  Cl  Cl3  1  0.65448800  0.65448800  0.77100100  1
  Cl  Cl4  1  0.65457900  0.11668900  0.77167400  1
  Cl  Cl5  1  0.11668900  0.65457900  0.77167400  1
  Cl  Cl6  1  0.87728600  0.87728600  0.22683900  1
  Cl  Cl7  1  0.35035100  0.35035100  0.22790900  1
  Cl  Cl8  1  0.34982400  0.87717100  0.22734500  1
  Cl  Cl9  1  0.87717100  0.34982400  0.22734500  1
  O  O0  1  0.00080100  0.00080100  0.00236200  1
  O  O1  1  0.51024300  0.51024300  0.01606700  1
loop_
_geom_bond_atom_site_label_1
_geom_bond_atom_site_label_2
_geom_bond_distance
_geom_bond_site_symmetry_2
Mg0 O1 1.868570 1_555
Cl0 Mg0 2.428621 1_555
Cl0 Ru0 2.599020 1_555
Cl0 K2 3.603981 1_655
Cl0 K3 3.603981 1_565
Cl0 K2 3.625470 1_555
Cl0 K3 3.625470 1_555
Cl1 Ru1 2.345569 1_555
Cl1 K2 3.621507 1_545
Cl1 K3 3.621507 1_455
Cl1 K3 3.632247 1_555
Cl1 K2 3.632247 1_555
Cl2 Ru0 2.372854 1_445
Cl2 K1 3.211039 1_455
Cl2 K0 3.211039 1_545
Cl2 K3 3.414308 1_455
Cl2 K2 3.414308 1_545
Cl3 Ru0 2.372135 1_555
Cl3 K0 3.200833 1_555
Cl3 K1 3.200833 1_555
Cl3 K2 3.413957 1_555
Cl3 K3 3.413957 1_555
Cl4 Ru0 2.372333 1_545
Cl4 K1 3.199966 1_555
Cl4 K0 3.213658 1_545
Cl4 K2 3.412644 1_545
Cl4 K3 3.415493 1_555
Cl5 Ru0 2.372333 1_455
Cl5 K0 3.199966 1_555
Cl5 K1 3.213658 1_455
Cl5 K3 3.412644 1_455
Cl5 K2 3.415493 1_555
Cl6 Ru1 2.410645 1_665
Cl6 Mg0 2.732804 1_555
Cl6 K1 3.291451 1_554
Cl6 K0 3.291451 1_554
Cl6 K2 3.606894 1_655
Cl6 K3 3.606894 1_565
Cl7 Ru1 2.424652 1_555
Cl7 Mg0 2.658172 1_555
Cl7 K0 3.315647 1_544
Cl7 K1 3.315647 1_454
Cl7 K2 3.607888 1_555
Cl7 K3 3.607888 1_555
Cl8 Ru1 2.417702 1_565
Cl8 Mg0 2.694438 1_555
Cl8 K0 3.299208 1_554
Cl8 K1 3.308450 1_454
Cl8 K3 3.606956 1_565
Cl8 K2 3.608969 1_555
Cl9 Ru1 2.417702 1_655
Cl9 Mg0 2.694438 1_555
Cl9 K1 3.299208 1_554
Cl9 K0 3.308450 1_544
Cl9 K2 3.606956 1_655
Cl9 K3 3.608969 1_555
O0 Ru0 1.801667 1_444
O0 Ru1 1.865105 1_555
