# generated using pymatgen
data_Na5In3Si3Sn(SO8)3
_symmetry_space_group_name_H-M   'P 1'
_cell_length_a   9.13155018
_cell_length_b   9.12327966
_cell_length_c   22.94955196
_cell_angle_alpha   90.73365412
_cell_angle_beta   90.32500763
_cell_angle_gamma   120.11083367
_symmetry_Int_Tables_number   1
_chemical_formula_structural   Na5In3Si3Sn(SO8)3
_chemical_formula_sum   'Na15 In9 Si9 Sn3 S9 O72'
_cell_volume   1653.62164745
_cell_formula_units_Z   3
loop_
 _symmetry_equiv_pos_site_id
 _symmetry_equiv_pos_as_xyz
  1  'x, y, z'
loop_
 _atom_site_type_symbol
 _atom_site_label
 _atom_site_symmetry_multiplicity
 _atom_site_fract_x
 _atom_site_fract_y
 _atom_site_fract_z
 _atom_site_occupancy
  Na  Na0  1  0.64654397  0.00787019  0.25686396  1
  Na  Na1  1  0.00144300  0.61962968  0.24786451  1
  Na  Na2  1  0.62659954  0.63409261  0.74579498  1
  Na  Na3  1  0.37176259  0.01542202  0.75733201  1
  Na  Na4  1  0.66717938  0.95119704  0.58576506  1
  Na  Na5  1  0.97216554  0.68401273  0.92293176  1
  Na  Na6  1  0.69223038  0.01495896  0.91099466  1
  Na  Na7  1  0.96147482  0.30226386  0.40913382  1
  Na  Na8  1  0.70981381  0.68529935  0.42459782  1
  Na  Na9  1  -0.00033549  0.97553588  0.50165379  1
  Na  Na10  1  0.00802291  0.98388092  0.99859624  1
  Na  Na11  1  0.64449198  0.32198820  0.83146860  1
  Na  Na12  1  0.66924936  0.32295935  0.33438746  1
  Na  Na13  1  0.30325862  0.63553168  0.16038487  1
  Na  Na14  1  0.33365972  0.63940634  0.66759314  1
  In  In0  1  0.99603709  0.99923369  0.35121151  1
  In  In1  1  0.00403211  0.00960530  0.84971042  1
  In  In2  1  0.99143446  0.99767362  0.65281529  1
  In  In3  1  0.00154031  0.00008691  0.14483086  1
  In  In4  1  0.65860456  0.33590021  0.68559073  1
  In  In5  1  0.68450452  0.34155218  0.17971374  1
  In  In6  1  0.33255535  0.67739020  0.01718794  1
  In  In7  1  0.33891927  0.67336616  0.51585024  1
  In  In8  1  0.32075725  0.66326318  0.32051413  1
  Si  Si0  1  0.00455864  0.29552057  0.24988238  1
  Si  Si1  1  0.28978399  0.29652723  0.75013865  1
  Si  Si2  1  0.69946077  0.00306008  0.75048075  1
  Si  Si3  1  0.66693661  0.63261137  0.58406096  1
  Si  Si4  1  0.97057331  0.63474593  0.08374061  1
  Si  Si5  1  0.62980271  0.66721924  0.91852449  1
  Si  Si6  1  0.33215468  0.96445567  0.91671323  1
  Si  Si7  1  0.62974108  0.96763097  0.41721882  1
  Si  Si8  1  0.03418424  0.66765946  0.41731891  1
  Sn  Sn0  1  0.65890434  0.34297182  0.98131108  1
  Sn  Sn1  1  0.67355424  0.34073009  0.48318073  1
  Sn  Sn2  1  0.35177878  0.67168372  0.81684348  1
  S  S0  1  0.29933224  0.00456042  0.24930750  1
  S  S1  1  0.69788456  0.69892280  0.24977426  1
  S  S2  1  0.00558465  0.70163271  0.75166038  1
  S  S3  1  0.96257325  0.33508087  0.58266628  1
  S  S4  1  0.37126319  0.04152382  0.58176185  1
  S  S5  1  0.66593308  0.03961139  0.08245496  1
  S  S6  1  0.37393731  0.33353536  0.08414133  1
  S  S7  1  0.03857815  0.37544526  0.91749967  1
  S  S8  1  0.33742647  0.36956783  0.41761755  1
  O  O0  1  0.22385558  0.02615640  0.30299160  1
  O  O1  1  0.80367492  0.76976434  0.30406985  1
  O  O2  1  0.97043051  0.18647431  0.30998468  1
  O  O3  1  0.21579658  0.16932257  0.80435817  1
  O  O4  1  0.97340875  0.77474986  0.80466600  1
  O  O5  1  0.80299377  0.02383654  0.81075209  1
  O  O6  1  0.76772554  0.95181035  0.69198995  1
  O  O7  1  0.18476280  0.21294485  0.68954044  1
  O  O8  1  0.03818970  0.80918039  0.69994050  1
  O  O9  1  0.78241546  0.80685989  0.19938432  1
  O  O10  1  0.02086684  0.19632052  0.19356062  1
  O  O11  1  0.18934059  0.97150140  0.19753271  1
  O  O12  1  0.87709552  0.35399825  0.63366701  1
  O  O13  1  0.47534109  0.11655950  0.63559465  1
  O  O14  1  0.65046417  0.52702978  0.64214249  1
  O  O15  1  0.89359888  0.53832329  0.14549698  1
  O  O16  1  0.64192578  0.11398372  0.13749570  1
  O  O17  1  0.47456162  0.35035628  0.13737316  1
  O  O18  1  0.45165709  0.30437685  0.03070311  1
  O  O19  1  0.84797255  0.53489945  0.02511832  1
  O  O20  1  0.67940959  0.14425645  0.03084110  1
  O  O21  1  0.46062177  0.14659633  0.52979140  1
  O  O22  1  0.68396426  0.54020846  0.52301055  1
  O  O23  1  0.85573101  0.30486244  0.52744632  1
  O  O24  1  0.53843955  0.69752689  0.97341269  1
  O  O25  1  0.13992098  0.45087903  0.97097340  1
  O  O26  1  0.28684484  0.83939014  0.97069082  1
  O  O27  1  0.55528328  0.84745825  0.47343327  1
  O  O28  1  0.30710637  0.44542718  0.46958796  1
  O  O29  1  0.14735952  0.68559820  0.47386430  1
  O  O30  1  0.09449397  0.61496816  0.35709056  1
  O  O31  1  0.52458072  0.88567310  0.35559986  1
  O  O32  1  0.37247908  0.47650201  0.36536702  1
  O  O33  1  0.11752803  0.48319436  0.86539788  1
  O  O34  1  0.37101767  0.88316235  0.85649159  1
  O  O35  1  0.52023436  0.62873742  0.85692750  1
  O  O36  1  0.00600105  0.83091502  0.41157844  1
  O  O37  1  0.82423393  0.99964531  0.41394359  1
  O  O38  1  0.18662816  0.20023661  0.41060479  1
  O  O39  1  0.01060607  0.20313179  0.91227521  1
  O  O40  1  0.16575315  0.98324014  0.91035436  1
  O  O41  1  0.81807605  0.83812418  0.91375688  1
  O  O42  1  0.97279156  0.17770967  0.58442591  1
  O  O43  1  0.20449069  0.02576829  0.58450637  1
  O  O44  1  0.83842335  0.82483452  0.58478054  1
  O  O45  1  0.98048934  0.82106067  0.08459351  1
  O  O46  1  0.82376522  0.03188488  0.08426878  1
  O  O47  1  0.20349850  0.18153259  0.08554825  1
  O  O48  1  0.67173932  0.16640412  0.74392372  1
  O  O49  1  0.48746366  0.33363819  0.74794342  1
  O  O50  1  0.85440090  0.53208029  0.74426335  1
  O  O51  1  0.67598758  0.52661308  0.24385831  1
  O  O52  1  0.82612130  0.30871163  0.24727137  1
  O  O53  1  0.47109705  0.15662837  0.24319477  1
  O  O54  1  0.66039600  0.50170934  0.92093030  1
  O  O55  1  0.86705995  0.36126600  0.92141859  1
  O  O56  1  0.52053098  0.14479643  0.92535666  1
  O  O57  1  0.64807165  0.15844865  0.42535389  1
  O  O58  1  0.49189337  0.35340617  0.42388101  1
  O  O59  1  0.83868374  0.49620811  0.42250773  1
  O  O60  1  0.36411503  0.48926809  0.07966553  1
  O  O61  1  0.15331259  0.64335338  0.07979580  1
  O  O62  1  0.51725236  0.86863470  0.07950144  1
  O  O63  1  0.35977474  0.87321625  0.57735368  1
  O  O64  1  0.49803592  0.65570114  0.58018002  1
  O  O65  1  0.13009767  0.48684684  0.57746728  1
  O  O66  1  0.32118945  0.85180558  0.25257091  1
  O  O67  1  0.53265534  0.69148482  0.25562292  1
  O  O68  1  0.16783712  0.49126429  0.25278773  1
  O  O69  1  0.30648655  0.48689277  0.75678345  1
  O  O70  1  0.16029939  0.68736915  0.75859981  1
  O  O71  1  0.50445615  0.83056374  0.75375867  1
loop_
_geom_bond_atom_site_label_1
_geom_bond_atom_site_label_2
_geom_bond_distance
_geom_bond_site_symmetry_2
Na0 O52 2.402995 1_555
Na0 O67 2.529768 1_545
Na0 O31 2.542692 1_545
Na0 O66 2.571483 1_545
Na0 O53 2.587243 1_555
Na0 O2 2.821608 1_555
Na0 O16 2.924234 1_555
Na0 O9 2.980291 1_545
Na1 O68 2.340895 1_555
Na1 O52 2.460041 1_455
Na1 O15 2.497075 1_455
Na1 O66 2.609356 1_555
Na1 O30 2.649927 1_555
Na1 O51 2.650530 1_455
Na2 O49 2.374930 1_555
Na2 O69 2.547560 1_555
Na2 O71 2.547587 1_555
Na2 O14 2.611531 1_555
Na2 O50 2.671522 1_555
Na2 O35 2.726574 1_555
Na2 O6 2.819444 1_555
Na3 O48 2.393775 1_555
Na3 O71 2.523339 1_545
Na3 O49 2.555806 1_555
Na3 O34 2.587848 1_545
Na3 O70 2.625137 1_545
Na3 O3 2.673870 1_555
Na3 O8 2.948549 1_545
Na3 O13 2.961714 1_555
Na4 O64 2.341135 1_555
Na4 O44 2.362895 1_555
Na4 O42 2.505150 1_565
Na4 O63 2.531737 1_555
Na4 O6 2.599049 1_555
Na4 O27 2.742814 1_555
Na5 O40 2.417596 1_655
Na5 O41 2.447496 1_555
Na5 O54 2.473678 1_555
Na5 O55 2.598842 1_555
Na5 O19 2.683354 1_556
Na5 O26 2.702837 1_655
Na5 O4 2.846131 1_555
Na6 O41 2.406106 1_545
Na6 O56 2.414403 1_555
Na6 O5 2.504187 1_555
Na6 O39 2.527896 1_655
Na6 O55 2.739261 1_555
Na6 O34 2.827544 1_545
Na6 O24 2.908524 1_545
Na6 O20 3.004855 1_556
Na7 O37 2.396450 1_545
Na7 O57 2.511450 1_555
Na7 O2 2.515440 1_555
Na7 O59 2.542221 1_555
Na7 O38 2.648566 1_655
Na7 O30 2.769063 1_655
Na7 O23 2.890750 1_555
Na8 O36 2.362940 1_655
Na8 O37 2.527943 1_555
Na8 O59 2.529550 1_555
Na8 O22 2.584176 1_555
Na8 O58 2.661086 1_555
Na8 O27 2.739721 1_555
Na8 O1 2.897988 1_555
Na8 O32 2.993979 1_555
Na9 O44 2.401151 1_455
Na9 O36 2.454707 1_555
Na9 O43 2.530036 1_565
Na9 O37 2.644757 1_455
Na9 O42 2.727722 1_465
Na9 O38 2.849909 1_565
Na10 O45 2.422985 1_456
Na10 O41 2.479695 1_455
Na10 O40 2.493366 1_555
Na10 O47 2.656654 1_566
Na10 O46 2.764664 1_466
Na10 O39 2.825039 1_565
Na11 O49 2.422545 1_555
Na11 O48 2.529871 1_555
Na11 O54 2.568319 1_555
Na11 O56 2.611161 1_555
Na11 O55 2.779053 1_555
Na11 O50 2.794408 1_555
Na12 O52 2.505727 1_555
Na12 O59 2.531966 1_555
Na12 O57 2.538083 1_555
Na12 O53 2.660355 1_555
Na12 O58 2.718970 1_555
Na12 O51 2.785309 1_555
Na13 O61 2.318013 1_555
Na13 O60 2.492691 1_555
Na13 O68 2.495333 1_555
Na13 O62 2.785576 1_555
Na13 O66 2.821514 1_555
Na13 O67 2.876160 1_555
Na14 O69 2.433027 1_555
Na14 O64 2.473347 1_555
Na14 O71 2.555758 1_555
Na14 O65 2.637679 1_555
Na14 O70 2.787246 1_555
Na14 O63 2.916203 1_555
In0 O2 2.075480 1_565
In0 O36 2.116355 1_655
In0 O37 2.136655 1_555
In0 O1 2.206698 1_555
In0 O38 2.226333 1_665
In0 O0 2.265643 1_665
In1 O3 2.044604 1_555
In1 O5 2.099967 1_455
In1 O40 2.125399 1_545
In1 O41 2.216563 1_445
In1 O39 2.238372 1_555
In1 O4 2.253135 1_445
In2 O7 2.036197 1_665
In2 O6 2.080690 1_555
In2 O44 2.139671 1_555
In2 O8 2.255721 1_655
In2 O42 2.352391 1_565
In2 O43 2.419278 1_665
In3 O10 2.028899 1_555
In3 O45 2.059095 1_445
In3 O11 2.214736 1_545
In3 O47 2.239506 1_555
In3 O46 2.260189 1_455
In3 O9 2.285752 1_445
In4 O14 2.052826 1_555
In4 O48 2.105958 1_555
In4 O49 2.117580 1_555
In4 O13 2.163528 1_555
In4 O50 2.216616 1_555
In4 O12 2.264814 1_555
In5 O15 2.024591 1_555
In5 O16 2.129476 1_555
In5 O52 2.131614 1_555
In5 O17 2.182041 1_555
In5 O51 2.256781 1_555
In5 O53 2.358555 1_555
In6 O26 2.037553 1_554
In6 O24 2.063294 1_554
In6 O61 2.089982 1_555
In6 O25 2.182905 1_554
In6 O62 2.211347 1_555
In6 O60 2.374697 1_555
In7 O29 2.044560 1_555
In7 O27 2.070429 1_555
In7 O64 2.129182 1_555
In7 O28 2.206797 1_555
In7 O63 2.221613 1_555
In7 O65 2.316881 1_555
In8 O30 2.069638 1_555
In8 O31 2.093244 1_555
In8 O68 2.131309 1_555
In8 O32 2.243359 1_555
In8 O66 2.334974 1_555
In8 O67 2.360251 1_555
O0 S0 1.473566 1_555
O1 S1 1.497621 1_555
O2 Si0 1.648736 1_655
O3 Si1 1.615987 1_555
O4 S2 1.480202 1_655
O5 Si2 1.625310 1_555
O6 Si2 1.641624 1_565
O7 Si1 1.630705 1_555
O8 S2 1.483557 1_555
O9 S1 1.476309 1_555
O10 Si0 1.618462 1_555
O11 S0 1.478158 1_565
O12 S3 1.466059 1_555
O13 S4 1.486749 1_555
O14 Si3 1.617714 1_555
O15 Si4 1.642995 1_555
O16 S5 1.494811 1_555
O17 S6 1.483661 1_555
O18 S6 1.506455 1_555
O18 Sn0 2.087183 1_554
O19 Si4 1.679710 1_555
O19 Sn0 1.989859 1_554
O20 S5 1.497470 1_555
O20 Sn0 2.237146 1_554
O21 S4 1.504253 1_555
O21 Sn1 2.163019 1_555
O22 Si3 1.673805 1_555
O22 Sn1 1.984800 1_555
O23 S3 1.530034 1_555
O23 Sn1 2.107613 1_555
O24 Si5 1.610495 1_555
O25 S7 1.470550 1_555
O26 Si6 1.604979 1_555
O27 Si7 1.620771 1_555
O28 S8 1.467322 1_555
O29 Si8 1.608876 1_555
O30 Si8 1.643820 1_555
O31 Si7 1.648657 1_555
O32 S8 1.487659 1_555
O33 S7 1.498207 1_555
O33 Sn2 2.271524 1_555
O34 Si6 1.682108 1_555
O34 Sn2 2.048032 1_555
O35 Si5 1.655732 1_555
O35 Sn2 1.990954 1_555
O36 Si8 1.640492 1_555
O37 Si7 1.651307 1_555
O38 S8 1.471518 1_555
O39 S7 1.463877 1_555
O40 Si6 1.618321 1_555
O41 Si5 1.647952 1_555
O42 S3 1.485782 1_555
O43 S4 1.457913 1_555
O44 Si3 1.664781 1_555
O45 Si4 1.656081 1_555
O46 S5 1.478256 1_555
O47 S6 1.477368 1_555
O48 Si2 1.640528 1_555
O49 Si1 1.662495 1_555
O50 S2 1.474949 1_655
O51 S1 1.486113 1_555
O52 Si0 1.693775 1_655
O53 S0 1.492890 1_555
O54 Si5 1.669246 1_555
O54 Sn0 2.012337 1_555
O55 S7 1.508807 1_655
O55 Sn0 2.290700 1_555
O56 Si6 1.689212 1_545
O56 Sn0 2.035787 1_555
O57 Si7 1.671076 1_545
O57 Sn1 2.032888 1_555
O58 S8 1.496293 1_555
O58 Sn1 2.188173 1_555
O59 Si8 1.689173 1_655
O59 Sn1 2.037880 1_555
O60 S6 1.472665 1_555
O61 Si4 1.633804 1_455
O62 S5 1.467119 1_565
O63 S4 1.487726 1_565
O64 Si3 1.660115 1_555
O65 S3 1.467182 1_455
O66 S0 1.506395 1_565
O67 S1 1.482868 1_555
O68 Si0 1.655573 1_555
O69 Si1 1.670336 1_555
O69 Sn2 2.036562 1_555
O70 S2 1.490201 1_555
O70 Sn2 2.256957 1_555
O71 Si2 1.687008 1_565
O71 Sn2 2.046910 1_555
