# generated using pymatgen
data_ScSiNi
_symmetry_space_group_name_H-M   'P 1'
_cell_length_a   3.99321341
_cell_length_b   6.42239402
_cell_length_c   6.90694391
_cell_angle_alpha   90.00000000
_cell_angle_beta   90.00000000
_cell_angle_gamma   90.00000000
_symmetry_Int_Tables_number   1
_chemical_formula_structural   ScSiNi
_chemical_formula_sum   'Sc4 Si4 Ni4'
_cell_volume   177.13541393
_cell_formula_units_Z   4
loop_
 _symmetry_equiv_pos_site_id
 _symmetry_equiv_pos_as_xyz
  1  'x, y, z'
loop_
 _atom_site_type_symbol
 _atom_site_label
 _atom_site_symmetry_multiplicity
 _atom_site_fract_x
 _atom_site_fract_y
 _atom_site_fract_z
 _atom_site_occupancy
  Sc  Sc0  1  0.75000000  0.00742770  0.79741601  1
  Sc  Sc1  1  0.25000000  0.99257230  0.20258399  1
  Sc  Sc2  1  0.75000000  0.50742770  0.70258399  1
  Sc  Sc3  1  0.25000000  0.49257230  0.29741601  1
  Si  Si0  1  0.25000000  0.30127521  0.90596218  1
  Si  Si1  1  0.75000000  0.69872479  0.09403782  1
  Si  Si2  1  0.25000000  0.80127521  0.59403782  1
  Si  Si3  1  0.75000000  0.19872479  0.40596218  1
  Ni  Ni0  1  0.25000000  0.68219078  0.92215070  1
  Ni  Ni1  1  0.75000000  0.31780922  0.07784930  1
  Ni  Ni2  1  0.25000000  0.18219078  0.57784930  1
  Ni  Ni3  1  0.75000000  0.81780922  0.42215070  1
loop_
_geom_bond_atom_site_label_1
_geom_bond_atom_site_label_2
_geom_bond_distance
_geom_bond_site_symmetry_2
Sc0 Si2 2.777164 1_545
Sc0 Si2 2.777164 1_645
Sc0 Si0 2.847817 1_655
Sc0 Si0 2.847817 1_555
Sc0 Si1 2.850987 1_546
Sc0 Si3 2.969795 1_555
Sc1 Si3 2.777164 1_565
Sc1 Si3 2.777164 1_465
Sc1 Si1 2.847817 1_455
Sc1 Si1 2.847817 1_555
Sc1 Si0 2.850987 1_564
Sc1 Si2 2.969795 1_555
Sc2 Si0 2.777164 1_655
Sc2 Si0 2.777164 1_555
Sc2 Si2 2.847817 1_555
Sc2 Si2 2.847817 1_655
Sc2 Si3 2.850987 1_555
Sc2 Si1 2.969795 1_556
Sc3 Si1 2.777164 1_455
Sc3 Si1 2.777164 1_555
Sc3 Si3 2.847817 1_455
Sc3 Si3 2.847817 1_555
Sc3 Si2 2.850987 1_555
Sc3 Si0 2.969795 1_554
Ni0 Si1 2.325337 1_556
Ni0 Si1 2.325337 1_456
Ni0 Si2 2.391830 1_555
Ni0 Si0 2.448944 1_555
Ni0 Sc2 2.747015 1_455
Ni0 Sc2 2.747015 1_555
Ni0 Sc1 2.779449 1_556
Ni0 Sc3 2.863771 1_556
Ni0 Sc0 3.015256 1_565
Ni0 Sc0 3.015256 1_465
Ni1 Si0 2.325337 1_654
Ni1 Si0 2.325337 1_554
Ni1 Si3 2.391830 1_555
Ni1 Si1 2.448944 1_555
Ni1 Sc3 2.747015 1_555
Ni1 Sc3 2.747015 1_655
Ni1 Sc0 2.779449 1_554
Ni1 Sc2 2.863771 1_554
Ni1 Sc1 3.015256 1_645
Ni1 Sc1 3.015256 1_545
Ni2 Si3 2.325337 1_455
Ni2 Si3 2.325337 1_555
Ni2 Si0 2.391830 1_555
Ni2 Si2 2.448944 1_545
Ni2 Sc0 2.747015 1_455
Ni2 Sc0 2.747015 1_555
Ni2 Sc3 2.779449 1_555
Ni2 Sc1 2.863771 1_545
Ni2 Sc2 3.015256 1_455
Ni2 Sc2 3.015256 1_555
Ni3 Si2 2.325337 1_555
Ni3 Si2 2.325337 1_655
Ni3 Si1 2.391830 1_555
Ni3 Si3 2.448944 1_565
Ni3 Sc1 2.747015 1_555
Ni3 Sc1 2.747015 1_655
Ni3 Sc2 2.779449 1_555
Ni3 Sc0 2.863771 1_565
Ni3 Sc3 3.015256 1_655
Ni3 Sc3 3.015256 1_555
