# generated using pymatgen
data_Na2LaYP2SO12
_symmetry_space_group_name_H-M   'P 1'
_cell_length_a   9.39361457
_cell_length_b   9.39686291
_cell_length_c   24.50353791
_cell_angle_alpha   90.56548756
_cell_angle_beta   89.42165902
_cell_angle_gamma   119.67203164
_symmetry_Int_Tables_number   1
_chemical_formula_structural   Na2LaYP2SO12
_chemical_formula_sum   'Na12 La6 Y6 P12 S6 O72'
_cell_volume   1879.19522529
_cell_formula_units_Z   6
loop_
 _symmetry_equiv_pos_site_id
 _symmetry_equiv_pos_as_xyz
  1  'x, y, z'
loop_
 _atom_site_type_symbol
 _atom_site_label
 _atom_site_symmetry_multiplicity
 _atom_site_fract_x
 _atom_site_fract_y
 _atom_site_fract_z
 _atom_site_occupancy
  Na  Na0  1  0.99205124  0.62596365  0.25385390  1
  Na  Na1  1  0.37606142  0.01113731  0.75009288  1
  Na  Na2  1  0.66020178  0.95816455  0.58662414  1
  Na  Na3  1  0.04172061  0.33960815  0.08727727  1
  Na  Na4  1  0.32486136  0.29255586  0.91907896  1
  Na  Na5  1  0.70716967  0.67573068  0.41814137  1
  Na  Na6  1  0.01693539  0.98993406  0.50063130  1
  Na  Na7  1  0.01128811  0.98425075  0.99982921  1
  Na  Na8  1  0.68287867  0.32248463  0.83365210  1
  Na  Na9  1  0.67602194  0.31682591  0.33424487  1
  Na  Na10  1  0.34956087  0.65580731  0.16764980  1
  Na  Na11  1  0.34427654  0.65057686  0.66715677  1
  La  La0  1  0.99089085  0.00593944  0.84621165  1
  La  La1  1  0.00100701  0.99736557  0.15383281  1
  La  La2  1  0.66929401  0.33233245  0.98437233  1
  La  La3  1  0.32786514  0.67731903  0.01769501  1
  La  La4  1  0.32472795  0.67295756  0.51568488  1
  La  La5  1  0.33343983  0.66305216  0.81423268  1
  Y  Y0  1  0.99281124  0.00618174  0.34798172  1
  Y  Y1  1  0.00319883  0.00006480  0.64800743  1
  Y  Y2  1  0.66115653  0.34144630  0.68148466  1
  Y  Y3  1  0.65898681  0.34011328  0.18516160  1
  Y  Y4  1  0.66603548  0.33104237  0.48302740  1
  Y  Y5  1  0.33508400  0.66647358  0.31898492  1
  P  P0  1  0.69877126  0.69862973  0.25338447  1
  P  P1  1  -0.00002064  0.30823877  0.24965688  1
  P  P2  1  0.29924148  0.29365347  0.74781989  1
  P  P3  1  0.69746126  0.00642093  0.74372933  1
  P  P4  1  0.37469762  0.04533100  0.58489737  1
  P  P5  1  0.67154352  0.63526950  0.58152402  1
  P  P6  1  0.96157758  0.62719051  0.08732512  1
  P  P7  1  0.36416347  0.33431022  0.08337554  1
  P  P8  1  0.03527411  0.36611081  0.91801509  1
  P  P9  1  0.33156563  0.97436779  0.91330249  1
  P  P10  1  0.63273727  0.96585282  0.41688836  1
  P  P11  1  0.02531202  0.66714437  0.41303690  1
  S  S0  1  0.30170502  0.99812550  0.25323656  1
  S  S1  1  0.99587474  0.70043580  0.74650412  1
  S  S2  1  0.95435990  0.32660107  0.58456172  1
  S  S3  1  0.66804714  0.03898699  0.08724384  1
  S  S4  1  0.63397477  0.66583360  0.91710460  1
  S  S5  1  0.33464024  0.36628126  0.41549691  1
  O  O0  1  0.21658139  0.02173609  0.30088336  1
  O  O1  1  0.81142370  0.78400898  0.30389718  1
  O  O2  1  0.98386359  0.19464795  0.29797383  1
  O  O3  1  0.22887206  0.19991414  0.80280702  1
  O  O4  1  0.97484656  0.77074894  0.79830386  1
  O  O5  1  0.79305043  0.01876156  0.79644977  1
  O  O6  1  0.78666825  0.98786207  0.69252006  1
  O  O7  1  0.18609949  0.19198971  0.70013998  1
  O  O8  1  0.01246331  0.80711445  0.69954415  1
  O  O9  1  0.77922517  0.80164897  0.20170737  1
  O  O10  1  0.02526141  0.23746074  0.19501317  1
  O  O11  1  0.20344195  0.96905235  0.20282005  1
  O  O12  1  0.87305822  0.34512330  0.63391749  1
  O  O13  1  0.47659795  0.12567957  0.63728573  1
  O  O14  1  0.65871395  0.53033314  0.63158146  1
  O  O15  1  0.87114064  0.52371398  0.13892516  1
  O  O16  1  0.65548347  0.12965086  0.13535737  1
  O  O17  1  0.47110826  0.33928407  0.13237979  1
  O  O18  1  0.43976809  0.31959127  0.02820918  1
  O  O19  1  0.86548295  0.54097417  0.03506009  1
  O  O20  1  0.68198023  0.12803630  0.03581686  1
  O  O21  1  0.46574239  0.14953772  0.53394969  1
  O  O22  1  0.68701643  0.55228213  0.52777873  1
  O  O23  1  0.85641441  0.30923635  0.53469195  1
  O  O24  1  0.55181801  0.68065841  0.96711532  1
  O  O25  1  0.13263080  0.44756115  0.97147869  1
  O  O26  1  0.32453730  0.87366892  0.96409062  1
  O  O27  1  0.56219102  0.86321140  0.47021811  1
  O  O28  1  0.30712711  0.43718378  0.46593152  1
  O  O29  1  0.12940174  0.68736430  0.46433805  1
  O  O30  1  0.10996231  0.64499285  0.36107080  1
  O  O31  1  0.51952816  0.87088116  0.36818811  1
  O  O32  1  0.35886803  0.47429838  0.36787883  1
  O  O33  1  0.13037617  0.47011101  0.86776334  1
  O  O34  1  0.34564891  0.89114143  0.85976290  1
  O  O35  1  0.53727004  0.65308594  0.86767246  1
  O  O36  1  0.00349163  0.82144790  0.40831189  1
  O  O37  1  0.80319520  0.97648276  0.40874827  1
  O  O38  1  0.19348730  0.19962375  0.40716518  1
  O  O39  1  0.02988192  0.19739260  0.91516876  1
  O  O40  1  0.17591628  0.99354514  0.91378546  1
  O  O41  1  0.80124525  0.80850444  0.91430147  1
  O  O42  1  0.96167996  0.17034311  0.58789240  1
  O  O43  1  0.20000732  0.02294134  0.58881440  1
  O  O44  1  0.82404364  0.81223360  0.58652248  1
  O  O45  1  0.98635677  0.80181584  0.08919540  1
  O  O46  1  0.82317403  0.03150716  0.08927106  1
  O  O47  1  0.18654496  0.18442939  0.08697425  1
  O  O48  1  0.67726225  0.16128370  0.74113746  1
  O  O49  1  0.46945417  0.30353330  0.74220318  1
  O  O50  1  0.85469409  0.53325625  0.74020360  1
  O  O51  1  0.69265526  0.52940397  0.24763485  1
  O  O52  1  0.84313205  0.32698663  0.24678482  1
  O  O53  1  0.46747341  0.14345077  0.24700026  1
  O  O54  1  0.63929647  0.50942558  0.91808093  1
  O  O55  1  0.86179505  0.34430749  0.91834273  1
  O  O56  1  0.48262592  0.15153502  0.91582499  1
  O  O57  1  0.65214589  0.13901427  0.42235361  1
  O  O58  1  0.49106996  0.35996554  0.42032580  1
  O  O59  1  0.84883454  0.51481782  0.41960163  1
  O  O60  1  0.34623889  0.49112825  0.08454522  1
  O  O61  1  0.13001683  0.63045321  0.08602973  1
  O  O62  1  0.52377553  0.87250618  0.08588036  1
  O  O63  1  0.36736321  0.87518106  0.58102937  1
  O  O64  1  0.51700992  0.65811305  0.58039275  1
  O  O65  1  0.12151326  0.46850825  0.58070750  1
  O  O66  1  0.31285018  0.84569158  0.25965634  1
  O  O67  1  0.52498688  0.67505764  0.26052650  1
  O  O68  1  0.14948250  0.48494489  0.25772594  1
  O  O69  1  0.31849152  0.46657147  0.74876073  1
  O  O70  1  0.15287121  0.69551655  0.74793253  1
  O  O71  1  0.51972120  0.85452079  0.74663319  1
loop_
_geom_bond_atom_site_label_1
_geom_bond_atom_site_label_2
_geom_bond_distance
_geom_bond_site_symmetry_2
Na0 O68 2.428477 1_655
Na0 O52 2.446241 1_555
Na0 O51 2.497113 1_555
Na0 O66 2.684579 1_655
Na0 O30 2.830954 1_655
Na1 O71 2.440441 1_545
Na1 O49 2.444768 1_555
Na1 O48 2.466854 1_555
Na1 O70 2.652815 1_545
Na1 O34 2.880980 1_545
Na1 O13 2.947997 1_555
Na1 O3 3.012297 1_555
Na2 O64 2.454216 1_555
Na2 O63 2.464872 1_555
Na2 O44 2.517655 1_555
Na2 O42 2.531110 1_565
Na2 O6 2.818154 1_555
Na2 O27 2.994859 1_555
Na3 O61 2.432108 1_555
Na3 O47 2.437372 1_555
Na3 O60 2.485950 1_555
Na3 O46 2.591369 1_455
Na3 O10 2.794498 1_555
Na3 O25 2.993292 1_554
Na4 O56 2.428689 1_555
Na4 O40 2.444063 1_545
Na4 O39 2.457086 1_555
Na4 O54 2.630183 1_555
Na4 O18 2.855464 1_556
Na4 O3 2.985607 1_555
Na5 O36 2.429072 1_655
Na5 O59 2.460238 1_555
Na5 O37 2.517606 1_555
Na5 O58 2.639194 1_555
Na5 O22 2.903899 1_555
Na5 O1 2.974094 1_555
Na5 O27 2.980387 1_555
Na6 O43 2.693758 1_565
Na6 O36 2.716073 1_555
Na6 O44 2.738207 1_455
Na6 O42 2.914197 1_465
Na6 O38 2.941988 1_565
Na6 O37 2.991764 1_455
Na7 O40 2.578466 1_555
Na7 O45 2.730411 1_456
Na7 O47 2.781022 1_566
Na7 O41 2.793112 1_455
Na7 O39 2.841442 1_565
Na7 O46 2.966906 1_466
Na8 O55 2.625648 1_555
Na8 O56 2.677484 1_555
Na8 O48 2.700344 1_555
Na8 O54 2.855976 1_555
Na8 O50 2.936146 1_555
Na8 O49 2.966760 1_555
Na9 O52 2.617979 1_555
Na9 O57 2.682107 1_555
Na9 O59 2.733632 1_555
Na9 O53 2.813911 1_555
Na9 O58 2.870245 1_555
Na9 O51 2.878647 1_555
Na10 O60 2.536463 1_555
Na10 O62 2.748497 1_555
Na10 O67 2.774887 1_555
Na10 O61 2.810198 1_555
Na10 O68 2.824970 1_555
Na10 O66 2.983205 1_555
Na11 O69 2.586605 1_555
Na11 O64 2.641470 1_555
Na11 O71 2.654333 1_555
Na11 O70 2.827027 1_555
Na11 O65 2.875156 1_555
Na11 O63 2.929329 1_555
La0 O5 2.285922 1_555
La0 O3 2.325305 1_655
La0 O39 2.350729 1_655
La0 O4 2.430575 1_545
La0 O40 2.457315 1_645
La0 O41 2.475510 1_545
La1 O9 2.301868 1_455
La1 O45 2.366578 1_455
La1 O10 2.368770 1_565
La1 O11 2.383486 1_555
La1 O47 2.403628 1_565
La1 O46 2.447480 1_465
La2 O19 2.281162 1_556
La2 O18 2.348836 1_556
La2 O20 2.359229 1_556
La2 O55 2.375584 1_555
La2 O56 2.415776 1_555
La2 O54 2.452377 1_555
La3 O26 2.288300 1_554
La3 O25 2.319619 1_554
La3 O61 2.364985 1_555
La3 O24 2.417745 1_554
La3 O60 2.476982 1_555
La3 O62 2.490391 1_555
La4 O29 2.294296 1_555
La4 O27 2.335376 1_555
La4 O63 2.352563 1_555
La4 O28 2.451591 1_555
La4 O64 2.471349 1_555
La4 O65 2.498305 1_555
La5 O33 2.284428 1_555
La5 O34 2.358745 1_555
La5 O35 2.370679 1_555
La5 O69 2.385730 1_555
La5 O71 2.434360 1_555
La5 O70 2.487396 1_555
O0 S0 1.484383 1_545
O0 Y0 2.328493 1_455
O1 P0 1.569002 1_555
O1 Y0 2.213468 1_565
O2 P1 1.557338 1_655
O2 Y0 2.199385 1_555
O3 P2 1.567563 1_555
O4 S1 1.481296 1_555
O5 P3 1.551107 1_555
O6 P3 1.557659 1_565
O6 Y1 2.250945 1_665
O7 P2 1.550802 1_555
O7 Y1 2.183416 1_555
O8 S1 1.489210 1_455
O8 Y1 2.256854 1_565
O9 P0 1.546697 1_555
O10 P1 1.556907 1_555
O11 S0 1.489802 1_555
O12 S2 1.478170 1_555
O12 Y2 2.282056 1_555
O13 P4 1.557028 1_555
O13 Y2 2.191768 1_555
O14 P5 1.547451 1_555
O14 Y2 2.174841 1_555
O15 P6 1.565434 1_555
O15 Y3 2.195594 1_555
O16 S3 1.485462 1_555
O16 Y3 2.300084 1_555
O17 P7 1.558854 1_555
O17 Y3 2.195401 1_555
O18 P7 1.557236 1_555
O19 P6 1.546004 1_555
O20 S3 1.488069 1_555
O21 P4 1.556350 1_555
O21 Y4 2.196216 1_555
O22 P5 1.565786 1_555
O22 Y4 2.262094 1_555
O23 S2 1.495497 1_555
O23 Y4 2.292699 1_555
O24 S4 1.483471 1_555
O25 P8 1.565177 1_555
O26 P9 1.551851 1_555
O27 P10 1.565773 1_555
O28 S5 1.478428 1_555
O29 P11 1.551939 1_555
O30 P11 1.560531 1_555
O30 Y5 2.261344 1_555
O31 P10 1.554462 1_555
O31 Y5 2.201472 1_555
O32 S5 1.494262 1_555
O32 Y5 2.279019 1_555
O33 P8 1.551297 1_555
O34 P9 1.558498 1_555
O35 S4 1.489403 1_555
O36 P11 1.567123 1_555
O36 Y0 2.331295 1_465
O37 P10 1.565007 1_555
O37 Y0 2.220384 1_565
O38 S5 1.481758 1_555
O38 Y0 2.360381 1_455
O39 P8 1.561849 1_555
O40 P9 1.559120 1_555
O41 S4 1.478175 1_555
O42 S2 1.506598 1_555
O42 Y1 2.357577 1_655
O43 P4 1.549732 1_555
O43 Y1 2.264152 1_555
O44 P5 1.572709 1_555
O44 Y1 2.296772 1_665
O45 P6 1.539319 1_555
O46 S3 1.494584 1_555
O47 P7 1.564651 1_555
O48 P3 1.559857 1_555
O48 Y2 2.309219 1_555
O49 P2 1.559783 1_555
O49 Y2 2.214616 1_555
O50 S1 1.478914 1_555
O50 Y2 2.319790 1_555
O51 P0 1.567529 1_555
O51 Y3 2.237496 1_555
O52 P1 1.570386 1_655
O52 Y3 2.356926 1_555
O53 S0 1.485580 1_545
O53 Y3 2.378291 1_555
O54 S4 1.495554 1_555
O55 P8 1.538451 1_655
O56 P9 1.565191 1_545
O57 P10 1.549628 1_545
O57 Y4 2.280639 1_555
O58 S5 1.505579 1_555
O58 Y4 2.374278 1_555
O59 P11 1.572498 1_655
O59 Y4 2.325813 1_555
O60 P7 1.563773 1_555
O61 P6 1.567307 1_455
O62 S3 1.478487 1_565
O63 P4 1.567868 1_565
O64 P5 1.569558 1_555
O65 S2 1.476153 1_455
O66 S0 1.496907 1_555
O66 Y5 2.322904 1_555
O67 P0 1.543250 1_555
O67 Y5 2.246959 1_555
O68 P1 1.568091 1_555
O68 Y5 2.293565 1_555
O69 P2 1.543349 1_555
O70 S1 1.498953 1_455
O71 P3 1.571689 1_565
