# generated using pymatgen
data_MgTiVO4
_symmetry_space_group_name_H-M   'P 1'
_cell_length_a   2.98828600
_cell_length_b   5.05149558
_cell_length_c   5.18808143
_cell_angle_alpha   89.25152205
_cell_angle_beta   90.00000000
_cell_angle_gamma   90.00000000
_symmetry_Int_Tables_number   1
_chemical_formula_structural   MgTiVO4
_chemical_formula_sum   'Mg1 Ti1 V1 O4'
_cell_volume   78.30903340
_cell_formula_units_Z   1
loop_
 _symmetry_equiv_pos_site_id
 _symmetry_equiv_pos_as_xyz
  1  'x, y, z'
loop_
 _atom_site_type_symbol
 _atom_site_label
 _atom_site_symmetry_multiplicity
 _atom_site_fract_x
 _atom_site_fract_y
 _atom_site_fract_z
 _atom_site_occupancy
  Mg  Mg0  1  0.03548700  0.00000000  0.50000000  1
  Ti  Ti0  1  0.56597200  0.50000000  0.50000000  1
  V  V0  1  0.03015000  0.00000000  0.00000000  1
  O  O0  1  0.01885600  0.33668100  0.29865100  1
  O  O1  1  0.52992300  0.83281700  0.27156800  1
  O  O2  1  0.52992300  0.16718300  0.72843200  1
  O  O3  1  0.01885600  0.66331900  0.70134900  1
loop_
_geom_bond_atom_site_label_1
_geom_bond_atom_site_label_2
_geom_bond_distance
_geom_bond_site_symmetry_2
Mg0 O3 1.984893 1_545
Mg0 O0 1.984893 1_555
Mg0 O2 2.080130 1_555
Mg0 O1 2.080130 1_545
Mg0 O2 2.103881 1_455
Mg0 O1 2.103881 1_445
O0 Ti0 1.904184 1_455
O0 Ti0 2.113621 1_555
O0 V0 2.315865 1_555
O1 Ti0 2.047091 1_555
O1 V0 2.213056 1_565
O1 V0 2.213972 1_665
O2 Ti0 2.047091 1_555
O2 V0 2.213056 1_556
O2 V0 2.213972 1_656
O3 Ti0 1.904184 1_455
O3 Ti0 2.113621 1_555
O3 V0 2.315865 1_566
