# generated using pymatgen
data_Ba2MgZrTiO6
_symmetry_space_group_name_H-M   'P 1'
_cell_length_a   5.92098850
_cell_length_b   5.92264347
_cell_length_c   6.53580672
_cell_angle_alpha   63.05776666
_cell_angle_beta   63.14681314
_cell_angle_gamma   59.99075359
_symmetry_Int_Tables_number   1
_chemical_formula_structural   Ba2MgZrTiO6
_chemical_formula_sum   'Ba2 Mg1 Zr1 Ti1 O6'
_cell_volume   169.24167806
_cell_formula_units_Z   1
loop_
 _symmetry_equiv_pos_site_id
 _symmetry_equiv_pos_as_xyz
  1  'x, y, z'
loop_
 _atom_site_type_symbol
 _atom_site_label
 _atom_site_symmetry_multiplicity
 _atom_site_fract_x
 _atom_site_fract_y
 _atom_site_fract_z
 _atom_site_occupancy
  Ba  Ba0  1  0.19747371  0.19566296  0.41120137  1
  Ba  Ba1  1  0.74409760  0.74220017  0.77150107  1
  Mg  Mg0  1  0.36798003  0.36528487  0.90145024  1
  Zr  Zr0  1  0.52952629  0.52833480  0.41380411  1
  Ti  Ti0  1  0.99486787  0.99431779  0.01649656  1
  O  O0  1  0.25983720  0.25847741  0.73342237  1
  O  O1  1  0.25983720  0.74826202  0.73342237  1
  O  O2  1  0.74996542  0.25919158  0.73165042  1
  O  O3  1  0.76231462  0.76290585  0.21685326  1
  O  O4  1  0.76231462  0.25792727  0.21685326  1
  O  O5  1  0.25720245  0.76243530  0.21792796  1
loop_
_geom_bond_atom_site_label_1
_geom_bond_atom_site_label_2
_geom_bond_distance
_geom_bond_site_symmetry_2
Ba0 O2 2.500459 1_455
Ba0 O0 2.501958 1_555
Ba0 O1 2.501966 1_545
Ba0 Mg0 2.840975 1_554
Ba0 O3 3.147370 1_545
Ba0 O4 3.147370 1_555
Ba0 O5 3.151220 1_545
Ba0 O5 3.151220 1_555
Ba0 O4 3.157527 1_455
Ba0 O3 3.157527 1_455
Ba1 O1 2.967023 1_655
Ba1 O0 2.967023 1_655
Ba1 O0 2.969553 1_565
Ba1 O1 2.969553 1_555
Ba1 O2 2.969877 1_565
Ba1 O2 2.969877 1_555
Ba1 O4 3.019826 1_556
Ba1 O3 3.019832 1_556
Ba1 O5 3.034951 1_556
Mg0 O2 1.919539 1_555
Mg0 O1 1.919933 1_555
Mg0 O0 1.919937 1_555
O0 Ti0 2.354153 1_446
O0 Zr0 2.445800 1_555
O1 Ti0 2.354157 1_456
O1 Zr0 2.445796 1_555
O2 Ti0 2.355091 1_546
O2 Zr0 2.434687 1_555
O3 Ti0 2.030178 1_555
O3 Zr0 2.044234 1_555
O4 Ti0 2.030182 1_545
O4 Zr0 2.044229 1_555
O5 Ti0 2.026618 1_455
O5 Zr0 2.044837 1_555
