# generated using pymatgen
data_Na10Mg4Sc4Si3(S3O16)3
_symmetry_space_group_name_H-M   'P 1'
_cell_length_a   17.98974249
_cell_length_b   8.96108679
_cell_length_c   22.67931579
_cell_angle_alpha   89.97943650
_cell_angle_beta   89.39649027
_cell_angle_gamma   120.11034644
_symmetry_Int_Tables_number   1
_chemical_formula_structural   Na10Mg4Sc4Si3(S3O16)3
_chemical_formula_sum   'Na30 Mg12 Sc12 Si9 S27 O144'
_cell_volume   3162.48809316
_cell_formula_units_Z   3
loop_
 _symmetry_equiv_pos_site_id
 _symmetry_equiv_pos_as_xyz
  1  'x, y, z'
loop_
 _atom_site_type_symbol
 _atom_site_label
 _atom_site_symmetry_multiplicity
 _atom_site_fract_x
 _atom_site_fract_y
 _atom_site_fract_z
 _atom_site_occupancy
  Na  Na0  1  0.19113908  0.37220323  0.24370277  1
  Na  Na1  1  0.69192686  0.37689824  0.24381584  1
  Na  Na2  1  0.99051997  0.63916898  0.25442191  1
  Na  Na3  1  0.49255649  0.63418434  0.25905613  1
  Na  Na4  1  0.32349861  0.65459505  0.74657538  1
  Na  Na5  1  0.82062006  0.64905475  0.74586999  1
  Na  Na6  1  0.99216656  0.34630535  0.75230375  1
  Na  Na7  1  0.19210414  0.00891615  0.74063792  1
  Na  Na8  1  0.69160349  0.00948031  0.74200182  1
  Na  Na9  1  0.52422894  0.70769487  0.57362058  1
  Na  Na10  1  0.32567423  0.97176156  0.58861215  1
  Na  Na11  1  0.82584597  0.96743705  0.58813382  1
  Na  Na12  1  0.15394063  0.98235353  0.08075548  1
  Na  Na13  1  0.65395543  0.98184552  0.08062604  1
  Na  Na14  1  0.32761125  0.68367256  0.09012413  1
  Na  Na15  1  0.82730563  0.68399053  0.09071920  1
  Na  Na16  1  0.65895643  0.01207504  0.42325639  1
  Na  Na17  1  0.35863856  0.67294708  0.40967328  1
  Na  Na18  1  0.01328096  0.00040720  0.49859395  1
  Na  Na19  1  0.51061538  0.00991911  0.49668751  1
  Na  Na20  1  0.00686963  0.02532867  0.99780433  1
  Na  Na21  1  0.50714902  0.02594805  0.99714901  1
  Na  Na22  1  0.34393027  0.32022764  0.83155544  1
  Na  Na23  1  0.83445341  0.31810747  0.83430576  1
  Na  Na24  1  0.34043930  0.33816491  0.33391440  1
  Na  Na25  1  0.83960125  0.35084313  0.33128535  1
  Na  Na26  1  0.17214601  0.65502974  0.16365215  1
  Na  Na27  1  0.67365256  0.65565586  0.16554605  1
  Na  Na28  1  0.16732965  0.68198959  0.65785990  1
  Na  Na29  1  0.66700628  0.66792879  0.66132746  1
  Mg  Mg0  1  0.99411164  0.98478165  0.35114938  1
  Mg  Mg1  1  0.49604558  0.98814920  0.35116643  1
  Mg  Mg2  1  0.99529310  0.00606010  0.85231706  1
  Mg  Mg3  1  0.49594318  0.00774042  0.85189975  1
  Mg  Mg4  1  0.33359352  0.31121036  0.68219509  1
  Mg  Mg5  1  0.83140865  0.31769476  0.68050424  1
  Mg  Mg6  1  0.33088012  0.34152232  0.18340993  1
  Mg  Mg7  1  0.83050130  0.34200628  0.18323589  1
  Mg  Mg8  1  0.16216674  0.64605578  0.01637094  1
  Mg  Mg9  1  0.66214680  0.64609765  0.01642415  1
  Mg  Mg10  1  0.15967840  0.67158172  0.51790420  1
  Mg  Mg11  1  0.66403003  0.67194051  0.51509394  1
  Sc  Sc0  1  0.00146762  0.99869181  0.64604367  1
  Sc  Sc1  1  0.50079302  0.00578919  0.64957733  1
  Sc  Sc2  1  0.99623878  0.00473450  0.15041526  1
  Sc  Sc3  1  0.49653756  0.00468219  0.14970318  1
  Sc  Sc4  1  0.32663114  0.32899923  0.98213701  1
  Sc  Sc5  1  0.82614242  0.32857108  0.98225037  1
  Sc  Sc6  1  0.32819777  0.32419866  0.48103548  1
  Sc  Sc7  1  0.82938112  0.33088769  0.48456357  1
  Sc  Sc8  1  0.17330501  0.67349547  0.31512932  1
  Sc  Sc9  1  0.66923089  0.67097795  0.31828034  1
  Sc  Sc10  1  0.17392730  0.67801962  0.81820526  1
  Sc  Sc11  1  0.66763478  0.66925811  0.81701263  1
  Si  Si0  1  0.35248056  0.70208136  0.25074713  1
  Si  Si1  1  0.85202923  0.70282116  0.25045371  1
  Si  Si2  1  0.35528952  0.00813581  0.75150390  1
  Si  Si3  1  0.85394434  0.00393236  0.75039685  1
  Si  Si4  1  0.18362023  0.03220950  0.58496654  1
  Si  Si5  1  0.68320903  0.03153002  0.58508114  1
  Si  Si6  1  0.18297855  0.33429728  0.08575831  1
  Si  Si7  1  0.68280713  0.33452536  0.08561074  1
  Si  Si8  1  0.51741951  0.66655792  0.41742714  1
  S  S0  1  0.14660939  0.00089239  0.25075921  1
  S  S1  1  0.64797789  0.00174563  0.25006427  1
  S  S2  1  0.99811081  0.29192967  0.25261650  1
  S  S3  1  0.49809184  0.29058971  0.25180488  1
  S  S4  1  0.14643393  0.29282516  0.75177330  1
  S  S5  1  0.64694761  0.29405756  0.75198271  1
  S  S6  1  0.99945688  0.70711694  0.75193981  1
  S  S7  1  0.49902896  0.70595270  0.75121557  1
  S  S8  1  0.48124888  0.33654721  0.58317883  1
  S  S9  1  0.98154528  0.33866429  0.58399661  1
  S  S10  1  0.33144505  0.62318663  0.58473598  1
  S  S11  1  0.83175099  0.62463129  0.58484477  1
  S  S12  1  0.48157367  0.62439663  0.08352616  1
  S  S13  1  0.98172645  0.62454170  0.08335077  1
  S  S14  1  0.33292734  0.04353926  0.08315478  1
  S  S15  1  0.83308182  0.04390250  0.08310807  1
  S  S16  1  0.31685295  0.67029680  0.91782266  1
  S  S17  1  0.81587168  0.67012417  0.91705596  1
  S  S18  1  0.01945803  0.37095014  0.91611804  1
  S  S19  1  0.51962131  0.37089265  0.91742788  1
  S  S20  1  0.16413742  0.96019599  0.91796282  1
  S  S21  1  0.66409552  0.95891197  0.91756380  1
  S  S22  1  0.31352635  0.95866057  0.41816504  1
  S  S23  1  0.81795530  0.96394245  0.41859157  1
  S  S24  1  0.16214945  0.37039945  0.41741821  1
  S  S25  1  0.66680533  0.37317228  0.41712999  1
  S  S26  1  0.02001891  0.66901372  0.41623108  1
  O  O0  1  0.10648277  0.03403669  0.30186260  1
  O  O1  1  0.60850231  0.03253747  0.30271758  1
  O  O2  1  0.41021646  0.79198553  0.30767135  1
  O  O3  1  0.91780599  0.79733045  0.30296133  1
  O  O4  1  0.48932587  0.18876140  0.30426352  1
  O  O5  1  0.98930803  0.19016506  0.30476834  1
  O  O6  1  0.10782372  0.18005626  0.80389697  1
  O  O7  1  0.60767031  0.18174317  0.80380969  1
  O  O8  1  0.48825405  0.79136325  0.80324766  1
  O  O9  1  0.98786696  0.78922710  0.80475705  1
  O  O10  1  0.41120096  0.01626133  0.80632665  1
  O  O11  1  0.91728018  0.03576262  0.80409121  1
  O  O12  1  0.39231728  0.96326471  0.69008471  1
  O  O13  1  0.89200429  0.96055388  0.68992029  1
  O  O14  1  0.09251818  0.21445261  0.69896702  1
  O  O15  1  0.59588660  0.21572146  0.69824229  1
  O  O16  1  0.01800856  0.81788007  0.69880600  1
  O  O17  1  0.51709467  0.81525125  0.69671316  1
  O  O18  1  0.39461602  0.81431032  0.18921841  1
  O  O19  1  0.89434629  0.81266747  0.18766867  1
  O  O20  1  0.01747080  0.21932807  0.19875097  1
  O  O21  1  0.51466413  0.21370297  0.19797913  1
  O  O22  1  0.09440673  0.97218095  0.19601486  1
  O  O23  1  0.59400400  0.97553541  0.19659339  1
  O  O24  1  0.44254119  0.36929990  0.63598050  1
  O  O25  1  0.94458738  0.36532635  0.63916384  1
  O  O26  1  0.24002792  0.11367940  0.64428371  1
  O  O27  1  0.74112368  0.11914210  0.64261341  1
  O  O28  1  0.32388739  0.52519843  0.63902817  1
  O  O29  1  0.82423714  0.52837736  0.63986814  1
  O  O30  1  0.44439870  0.52279172  0.13789565  1
  O  O31  1  0.94471146  0.52302936  0.13786846  1
  O  O32  1  0.32267922  0.12618190  0.13602736  1
  O  O33  1  0.82292818  0.12671095  0.13599567  1
  O  O34  1  0.24068632  0.36273810  0.14372605  1
  O  O35  1  0.74060053  0.36236171  0.14333878  1
  O  O36  1  0.23265018  0.29956139  0.02898825  1
  O  O37  1  0.73207732  0.29881392  0.02865988  1
  O  O38  1  0.42612480  0.53940345  0.03187459  1
  O  O39  1  0.92617565  0.53881795  0.03179292  1
  O  O40  1  0.34730632  0.14988260  0.02934190  1
  O  O41  1  0.84734119  0.15039035  0.02928304  1
  O  O42  1  0.23393707  0.15711800  0.52765111  1
  O  O43  1  0.73058436  0.14971079  0.52482863  1
  O  O44  1  0.34712433  0.54471912  0.53152298  1
  O  O45  1  0.84517989  0.54012145  0.53268352  1
  O  O46  1  0.42713363  0.30823487  0.53069594  1
  O  O47  1  0.92483879  0.31276187  0.53295578  1
  O  O48  1  0.27284230  0.69016658  0.96993874  1
  O  O49  1  0.77283430  0.69002210  0.96968965  1
  O  O50  1  0.07257484  0.46223510  0.96711639  1
  O  O51  1  0.57105167  0.45781970  0.96963823  1
  O  O52  1  0.15525258  0.85675823  0.97110769  1
  O  O53  1  0.65563860  0.85671987  0.97100050  1
  O  O54  1  0.27298134  0.84944662  0.47086674  1
  O  O55  1  0.77802467  0.86188095  0.47265627  1
  O  O56  1  0.15340374  0.45936420  0.46902557  1
  O  O57  1  0.65899429  0.45993870  0.46918867  1
  O  O58  1  0.07288750  0.68395850  0.46714591  1
  O  O59  1  0.57668088  0.69680745  0.47450252  1
  O  O60  1  0.05929806  0.64627220  0.36039109  1
  O  O61  1  0.56408978  0.64608867  0.35657897  1
  O  O62  1  0.25985793  0.87359229  0.36508388  1
  O  O63  1  0.76153130  0.88071566  0.36665586  1
  O  O64  1  0.17630438  0.47784279  0.36220979  1
  O  O65  1  0.68012925  0.47522213  0.36191016  1
  O  O66  1  0.05943579  0.47209809  0.86045208  1
  O  O67  1  0.56176078  0.47709587  0.86345402  1
  O  O68  1  0.17489681  0.87583766  0.86369775  1
  O  O69  1  0.67507537  0.87439447  0.86350771  1
  O  O70  1  0.26422635  0.64477632  0.86344013  1
  O  O71  1  0.76336134  0.64546505  0.86291546  1
  O  O72  1  0.01331293  0.82671463  0.41234358  1
  O  O73  1  0.51057217  0.84442509  0.41355677  1
  O  O74  1  0.39970477  0.97799587  0.41100879  1
  O  O75  1  0.90417405  0.98815518  0.41071966  1
  O  O76  1  0.08699572  0.19762453  0.41045023  1
  O  O77  1  0.59052034  0.19842540  0.41128119  1
  O  O78  1  0.01281261  0.19957159  0.91268984  1
  O  O79  1  0.51282946  0.19978339  0.91271957  1
  O  O80  1  0.08785456  0.97961660  0.91151776  1
  O  O81  1  0.58823522  0.97916413  0.91120971  1
  O  O82  1  0.40324453  0.82248337  0.91205854  1
  O  O83  1  0.90247505  0.82271307  0.91107510  1
  O  O84  1  0.48484769  0.17356979  0.58976532  1
  O  O85  1  0.98371431  0.17339024  0.58839636  1
  O  O86  1  0.08742490  0.01388569  0.58904595  1
  O  O87  1  0.58499918  0.00425568  0.58851157  1
  O  O88  1  0.41093864  0.80135682  0.58762991  1
  O  O89  1  0.90897236  0.80308321  0.58649911  1
  O  O90  1  0.48723108  0.79845693  0.08788645  1
  O  O91  1  0.98757371  0.79856763  0.08755703  1
  O  O92  1  0.40769068  0.01403607  0.08651821  1
  O  O93  1  0.90808445  0.01515110  0.08641040  1
  O  O94  1  0.08925640  0.15192235  0.08839659  1
  O  O95  1  0.58913359  0.15194201  0.08828810  1
  O  O96  1  0.33776755  0.16896390  0.74829263  1
  O  O97  1  0.84247776  0.17502644  0.74634821  1
  O  O98  1  0.23543648  0.32749169  0.74403202  1
  O  O99  1  0.73611261  0.32345189  0.74495039  1
  O  O100  1  0.41982338  0.53750117  0.74333132  1
  O  O101  1  0.92057314  0.53603530  0.74410937  1
  O  O102  1  0.34305142  0.50922718  0.24708257  1
  O  O103  1  0.84293093  0.50907548  0.24667653  1
  O  O104  1  0.42233751  0.31136525  0.24388057  1
  O  O105  1  0.92214218  0.31159063  0.24395612  1
  O  O106  1  0.23452395  0.14852392  0.24320584  1
  O  O107  1  0.73511805  0.15224218  0.24277150  1
  O  O108  1  0.32389242  0.51095228  0.92210775  1
  O  O109  1  0.82363588  0.51111977  0.92141385  1
  O  O110  1  0.43265704  0.35318239  0.92214957  1
  O  O111  1  0.93254590  0.35308443  0.92150976  1
  O  O112  1  0.24480607  0.13265483  0.92023316  1
  O  O113  1  0.74507524  0.13217378  0.91970089  1
  O  O114  1  0.32101835  0.13087581  0.42156962  1
  O  O115  1  0.82276493  0.13765279  0.42240747  1
  O  O116  1  0.24361349  0.36238027  0.42077616  1
  O  O117  1  0.74490897  0.35014333  0.42052555  1
  O  O118  1  0.41846891  0.49962998  0.42129864  1
  O  O119  1  0.93262069  0.51169517  0.42197367  1
  O  O120  1  0.17992766  0.51150238  0.07704014  1
  O  O121  1  0.67992935  0.51172460  0.07700692  1
  O  O122  1  0.07059774  0.65800834  0.07501894  1
  O  O123  1  0.57052932  0.65856402  0.07512680  1
  O  O124  1  0.25302882  0.87122935  0.07678371  1
  O  O125  1  0.75328506  0.87172882  0.07668297  1
  O  O126  1  0.17952260  0.84611687  0.57730950  1
  O  O127  1  0.67627474  0.84130137  0.57997701  1
  O  O128  1  0.25574670  0.64425124  0.57796195  1
  O  O129  1  0.75465579  0.64160533  0.57805815  1
  O  O130  1  0.06853900  0.48515042  0.57551464  1
  O  O131  1  0.56870090  0.48538225  0.57627259  1
  O  O132  1  0.14899667  0.83642993  0.25753952  1
  O  O133  1  0.65208604  0.83991639  0.25508170  1
  O  O134  1  0.25266436  0.67215549  0.25530665  1
  O  O135  1  0.75310344  0.67293908  0.25549430  1
  O  O136  1  0.07601431  0.47239427  0.25690273  1
  O  O137  1  0.57726946  0.46834267  0.25464709  1
  O  O138  1  0.15078311  0.46485997  0.75877163  1
  O  O139  1  0.65593758  0.46900565  0.75819809  1
  O  O140  1  0.07506663  0.67935464  0.75757793  1
  O  O141  1  0.57685171  0.68624210  0.75691237  1
  O  O142  1  0.25498506  0.82552829  0.75688703  1
  O  O143  1  0.75519637  0.82787878  0.75808176  1
loop_
_geom_bond_atom_site_label_1
_geom_bond_atom_site_label_2
_geom_bond_distance
_geom_bond_site_symmetry_2
Na0 O134 2.353892 1_555
Na0 O102 2.370606 1_555
Na0 O34 2.444631 1_555
Na0 O106 2.489255 1_555
Na0 O136 2.652883 1_555
Na0 O64 2.903628 1_555
Na0 O20 2.907025 1_555
Na0 O0 2.926864 1_555
Na1 O135 2.322990 1_555
Na1 O103 2.358408 1_555
Na1 O35 2.459475 1_555
Na1 O107 2.495235 1_555
Na1 O137 2.582966 1_555
Na1 O65 2.858668 1_555
Na1 O21 2.963163 1_555
Na1 O1 2.977831 1_555
Na2 O103 2.311666 1_555
Na2 O132 2.491102 1_655
Na2 O105 2.563221 1_555
Na2 O3 2.600513 1_555
Na2 O136 2.628712 1_655
Na2 O60 2.700849 1_655
Na2 O31 2.817252 1_555
Na2 O22 2.915806 1_655
Na3 O102 2.356954 1_555
Na3 O133 2.515775 1_555
Na3 O104 2.534948 1_555
Na3 O61 2.545906 1_555
Na3 O137 2.609649 1_555
Na3 O2 2.734545 1_555
Na3 O30 2.912390 1_555
Na4 O142 2.410087 1_555
Na4 O100 2.435347 1_555
Na4 O98 2.539275 1_555
Na4 O138 2.702324 1_555
Na4 O28 2.702512 1_555
Na4 O12 2.711673 1_555
Na4 O70 2.831179 1_555
Na4 O8 2.894049 1_555
Na5 O143 2.432192 1_555
Na5 O101 2.467038 1_555
Na5 O99 2.524896 1_555
Na5 O139 2.577722 1_555
Na5 O29 2.649960 1_555
Na5 O13 2.723515 1_555
Na5 O71 2.831537 1_555
Na5 O9 2.950904 1_555
Na6 O97 2.342308 1_555
Na6 O138 2.501963 1_655
Na6 O140 2.585312 1_655
Na6 O101 2.604966 1_555
Na6 O11 2.672306 1_555
Na6 O66 2.728894 1_655
Na6 O25 2.745549 1_555
Na6 O14 2.865931 1_655
Na7 O96 2.278771 1_555
Na7 O26 2.355141 1_555
Na7 O142 2.447363 1_545
Na7 O98 2.555774 1_555
Na7 O140 2.654365 1_545
Na7 O16 2.885136 1_545
Na7 O68 2.985995 1_545
Na7 O6 2.999626 1_555
Na8 O97 2.354384 1_555
Na8 O27 2.432663 1_555
Na8 O143 2.442605 1_545
Na8 O99 2.510473 1_555
Na8 O141 2.598292 1_545
Na8 O17 2.920080 1_545
Na8 O69 2.960860 1_545
Na8 O7 2.987190 1_555
Na9 O87 2.337737 1_565
Na9 O127 2.378776 1_555
Na9 O59 2.449678 1_555
Na9 O131 2.492477 1_555
Na9 O88 2.581070 1_555
Na10 O126 2.300107 1_555
Na10 O84 2.505313 1_565
Na10 O128 2.560627 1_555
Na10 O12 2.624659 1_555
Na10 O88 2.652251 1_555
Na10 O26 2.740716 1_565
Na10 O54 2.871214 1_555
Na10 O46 2.927953 1_565
Na11 O127 2.347565 1_555
Na11 O85 2.492643 1_565
Na11 O129 2.544103 1_555
Na11 O89 2.572047 1_555
Na11 O13 2.623104 1_555
Na11 O55 2.779661 1_555
Na11 O27 2.781741 1_565
Na11 O47 2.955395 1_565
Na12 O94 2.337326 1_565
Na12 O124 2.440277 1_555
Na12 O122 2.518858 1_555
Na12 O91 2.595799 1_455
Na12 O36 2.718004 1_565
Na12 O52 2.734689 1_554
Na12 O22 2.798439 1_555
Na12 O32 2.933087 1_565
Na13 O95 2.343652 1_565
Na13 O125 2.437336 1_555
Na13 O123 2.510430 1_555
Na13 O90 2.601482 1_555
Na13 O37 2.718352 1_565
Na13 O53 2.733857 1_554
Na13 O23 2.821799 1_555
Na13 O33 2.936779 1_565
Na14 O120 2.330495 1_555
Na14 O90 2.517861 1_555
Na14 O18 2.552906 1_555
Na14 O92 2.562114 1_565
Na14 O124 2.643348 1_555
Na14 O34 2.763926 1_555
Na14 O48 2.918512 1_554
Na14 O38 2.967838 1_555
Na15 O121 2.328137 1_555
Na15 O19 2.506195 1_555
Na15 O91 2.529332 1_555
Na15 O93 2.568601 1_565
Na15 O125 2.638375 1_555
Na15 O35 2.758920 1_555
Na15 O49 2.933798 1_554
Na15 O39 2.985742 1_555
Na16 O73 2.328085 1_545
Na16 O77 2.539198 1_555
Na16 O115 2.573390 1_555
Na16 O117 2.621122 1_555
Na16 O43 2.637824 1_555
Na16 O59 2.699789 1_545
Na16 O1 2.923984 1_555
Na16 O63 2.927300 1_545
Na17 O118 2.307179 1_555
Na17 O73 2.372931 1_555
Na17 O74 2.448145 1_555
Na17 O116 2.510174 1_555
Na17 O2 2.512026 1_555
Na18 O86 2.428594 1_555
Na18 O72 2.500399 1_545
Na18 O76 2.543267 1_555
Na18 O89 2.685506 1_445
Na18 O85 2.764135 1_455
Na18 O75 2.775386 1_445
Na19 O73 2.398901 1_545
Na19 O77 2.484811 1_555
Na19 O87 2.501362 1_555
Na19 O74 2.710726 1_545
Na19 O84 2.735912 1_555
Na19 O88 2.742109 1_545
Na20 O78 2.449821 1_555
Na20 O94 2.466518 1_556
Na20 O80 2.580539 1_545
Na20 O93 2.639448 1_456
Na20 O83 2.711401 1_445
Na20 O91 2.769012 1_446
Na21 O79 2.436704 1_555
Na21 O95 2.473363 1_556
Na21 O81 2.580053 1_545
Na21 O92 2.655675 1_556
Na21 O82 2.683550 1_545
Na21 O90 2.787026 1_546
Na22 O96 2.295855 1_555
Na22 O110 2.540274 1_555
Na22 O100 2.632655 1_555
Na22 O112 2.639047 1_555
Na22 O108 2.805988 1_555
Na22 O98 2.821838 1_555
Na23 O97 2.413617 1_555
Na23 O113 2.521187 1_555
Na23 O111 2.577341 1_555
Na23 O109 2.695228 1_555
Na23 O101 2.700583 1_555
Na23 O99 2.720173 1_555
Na24 O118 2.452429 1_555
Na24 O102 2.480666 1_555
Na24 O104 2.586451 1_555
Na24 O114 2.618408 1_555
Na24 O116 2.696150 1_555
Na24 O106 2.754420 1_555
Na25 O103 2.367825 1_555
Na25 O105 2.591112 1_555
Na25 O119 2.600514 1_555
Na25 O117 2.629593 1_555
Na25 O115 2.723166 1_555
Na25 O107 2.730533 1_555
Na26 O120 2.389342 1_555
Na26 O134 2.506625 1_555
Na26 O124 2.619252 1_555
Na26 O136 2.687490 1_555
Na26 O122 2.739511 1_555
Na26 O132 2.830683 1_555
Na27 O121 2.419005 1_555
Na27 O135 2.463309 1_555
Na27 O137 2.628872 1_555
Na27 O125 2.648827 1_555
Na27 O133 2.762034 1_555
Na27 O123 2.788559 1_555
Na28 O126 2.283526 1_555
Na28 O128 2.531254 1_555
Na28 O130 2.585443 1_555
Na28 O142 2.688236 1_555
Na28 O140 2.784164 1_555
Na28 O138 2.917790 1_555
Na29 O127 2.361562 1_555
Na29 O129 2.533592 1_555
Na29 O131 2.587662 1_555
Na29 O143 2.679650 1_555
Na29 O141 2.747717 1_555
Na29 O139 2.770500 1_555
Mg0 O3 1.902558 1_555
Mg0 O75 2.108787 1_555
Mg0 O72 2.133392 1_655
Mg0 O0 2.141881 1_665
Mg0 O5 2.159011 1_565
Mg0 O76 2.256149 1_665
Mg1 O2 1.938358 1_555
Mg1 O73 2.018256 1_555
Mg1 O4 2.144118 1_565
Mg1 O1 2.145651 1_565
Mg1 O74 2.155497 1_555
Mg1 O77 2.266137 1_565
Mg2 O11 1.908830 1_555
Mg2 O78 2.107968 1_655
Mg2 O83 2.112426 1_545
Mg2 O6 2.126066 1_655
Mg2 O9 2.168147 1_545
Mg2 O80 2.252625 1_645
Mg3 O10 1.883638 1_555
Mg3 O79 2.107711 1_555
Mg3 O7 2.113953 1_555
Mg3 O82 2.138032 1_545
Mg3 O8 2.175290 1_545
Mg3 O81 2.259403 1_545
Mg4 O26 1.935953 1_555
Mg4 O96 1.993648 1_555
Mg4 O24 2.035577 1_555
Mg4 O28 2.237002 1_555
Mg4 O98 2.304919 1_555
Mg4 O100 2.309125 1_555
Mg5 O27 1.916566 1_555
Mg5 O97 2.040681 1_555
Mg5 O25 2.072269 1_555
Mg5 O29 2.162398 1_555
Mg5 O99 2.261400 1_555
Mg5 O101 2.320317 1_555
Mg6 O34 1.954228 1_555
Mg6 O102 2.017364 1_555
Mg6 O30 2.121469 1_555
Mg6 O32 2.149281 1_555
Mg6 O106 2.185364 1_555
Mg6 O104 2.270292 1_555
Mg7 O35 1.947906 1_555
Mg7 O103 2.008465 1_555
Mg7 O31 2.126434 1_555
Mg7 O33 2.151597 1_555
Mg7 O107 2.163580 1_555
Mg7 O105 2.277484 1_555
Mg8 O120 1.960540 1_555
Mg8 O50 1.983528 1_554
Mg8 O48 2.096482 1_554
Mg8 O122 2.150630 1_555
Mg8 O52 2.207079 1_554
Mg8 O124 2.315279 1_555
Mg9 O121 1.958222 1_555
Mg9 O51 1.980359 1_554
Mg9 O49 2.100529 1_554
Mg9 O123 2.154073 1_555
Mg9 O53 2.204570 1_554
Mg9 O125 2.316681 1_555
Mg10 O126 1.959642 1_555
Mg10 O58 1.996696 1_555
Mg10 O130 2.095559 1_555
Mg10 O54 2.127540 1_555
Mg10 O56 2.155649 1_555
Mg10 O128 2.318635 1_555
Mg11 O59 1.935988 1_555
Mg11 O127 2.046983 1_555
Mg11 O55 2.117545 1_555
Mg11 O57 2.128835 1_555
Mg11 O131 2.175461 1_555
Mg11 O129 2.294439 1_555
O0 S0 1.466391 1_555
O1 S1 1.478312 1_555
O2 Si0 1.607472 1_555
O3 Si1 1.600149 1_555
O4 S3 1.457343 1_555
O5 S2 1.451208 1_555
O6 S4 1.476028 1_555
O7 S5 1.470349 1_555
O8 S7 1.469888 1_555
O9 S6 1.472763 1_555
O10 Si2 1.586136 1_555
O11 Si3 1.601843 1_555
O12 Si2 1.671910 1_565
O12 Sc1 2.003301 1_565
O13 Si3 1.657931 1_565
O13 Sc0 2.065928 1_655
O14 S4 1.486568 1_555
O14 Sc0 2.174261 1_545
O15 S5 1.482985 1_555
O15 Sc1 2.120368 1_555
O16 S6 1.485591 1_455
O16 Sc0 2.153035 1_555
O17 S7 1.504691 1_555
O17 Sc1 2.156798 1_565
O18 Si0 1.656823 1_555
O18 Sc3 1.975143 1_565
O19 Si1 1.673418 1_555
O19 Sc2 1.958832 1_565
O20 S2 1.501967 1_455
O20 Sc2 2.078189 1_455
O21 S3 1.500934 1_555
O21 Sc3 2.051722 1_555
O22 S0 1.507308 1_565
O22 Sc2 2.197399 1_465
O23 S1 1.504910 1_565
O23 Sc3 2.184511 1_565
O24 S8 1.480809 1_555
O25 S9 1.485458 1_555
O26 Si4 1.630534 1_555
O27 Si5 1.616487 1_555
O28 S10 1.477007 1_555
O29 S11 1.482625 1_555
O30 S12 1.472268 1_555
O31 S13 1.474358 1_555
O32 S14 1.467403 1_555
O33 S15 1.467896 1_555
O34 Si6 1.623141 1_555
O35 Si7 1.620483 1_555
O36 Si6 1.675760 1_555
O36 Sc4 1.889848 1_554
O37 Si7 1.678409 1_555
O37 Sc5 1.884685 1_554
O38 S12 1.486717 1_555
O38 Sc4 2.165424 1_554
O39 S13 1.486966 1_555
O39 Sc5 2.166303 1_554
O40 S14 1.486503 1_555
O40 Sc4 2.113502 1_554
O41 S15 1.487784 1_555
O41 Sc5 2.109725 1_554
O42 Si4 1.649093 1_555
O42 Sc6 1.910134 1_555
O43 Si5 1.668541 1_555
O43 Sc7 1.923083 1_555
O44 S10 1.490930 1_555
O44 Sc6 2.160266 1_555
O45 S11 1.486437 1_555
O45 Sc7 2.064119 1_555
O46 S8 1.485153 1_555
O46 Sc6 2.180437 1_555
O47 S9 1.490643 1_555
O47 Sc7 2.121157 1_555
O48 S16 1.475622 1_555
O49 S17 1.474901 1_555
O50 S18 1.469583 1_555
O51 S19 1.471571 1_555
O52 S20 1.477813 1_555
O53 S21 1.478514 1_555
O54 S22 1.477495 1_555
O55 S23 1.475597 1_555
O56 S24 1.467254 1_555
O57 S25 1.457744 1_555
O58 S26 1.466740 1_555
O59 Si8 1.620174 1_555
O60 S26 1.506805 1_555
O60 Sc8 2.184746 1_555
O61 Si8 1.665301 1_555
O61 Sc9 1.980858 1_555
O62 S22 1.499734 1_555
O62 Sc8 2.039733 1_555
O63 S23 1.496726 1_555
O63 Sc9 2.098071 1_555
O64 S24 1.518552 1_555
O64 Sc8 2.076468 1_555
O65 S25 1.495001 1_555
O65 Sc9 2.107751 1_555
O66 S18 1.502869 1_555
O66 Sc10 2.170055 1_555
O67 S19 1.494843 1_555
O67 Sc11 2.089974 1_555
O68 S20 1.505317 1_555
O68 Sc10 2.043967 1_555
O69 S21 1.503746 1_555
O69 Sc11 2.065543 1_555
O70 S16 1.509091 1_555
O70 Sc10 2.073761 1_555
O71 S17 1.504674 1_555
O71 Sc11 2.121521 1_555
O72 S26 1.480056 1_555
O73 Si8 1.661464 1_555
O74 S22 1.478189 1_555
O75 S23 1.463283 1_555
O76 S24 1.467793 1_555
O77 S25 1.483534 1_555
O78 S18 1.481520 1_555
O79 S19 1.479810 1_555
O80 S20 1.476045 1_555
O81 S21 1.472667 1_555
O82 S16 1.470160 1_555
O83 S17 1.474231 1_555
O84 S8 1.501449 1_555
O84 Sc1 2.149958 1_555
O85 S9 1.504295 1_555
O85 Sc0 2.184268 1_645
O86 Si4 1.655828 1_555
O86 Sc0 1.956336 1_545
O87 Si5 1.658645 1_555
O87 Sc1 2.046872 1_555
O88 S10 1.519778 1_555
O88 Sc1 2.240828 1_565
O89 S11 1.503564 1_555
O89 Sc0 2.188055 1_655
O90 S12 1.514617 1_555
O90 Sc3 2.259428 1_565
O91 S13 1.512553 1_555
O91 Sc2 2.277583 1_565
O92 S14 1.497860 1_555
O92 Sc3 2.190375 1_555
O93 S15 1.497814 1_555
O93 Sc2 2.197211 1_555
O94 Si6 1.658412 1_555
O94 Sc2 2.062229 1_455
O95 Si7 1.658868 1_555
O95 Sc3 2.049517 1_555
O96 Si2 1.624166 1_555
O97 Si3 1.649021 1_555
O98 S4 1.478493 1_555
O99 S5 1.496151 1_555
O100 S7 1.479326 1_555
O101 S6 1.489419 1_555
O102 Si0 1.651839 1_555
O103 Si1 1.662440 1_555
O104 S3 1.477796 1_555
O105 S2 1.478033 1_555
O106 S0 1.475023 1_555
O107 S1 1.475391 1_555
O108 S16 1.498656 1_555
O108 Sc4 2.143558 1_555
O109 S17 1.503114 1_555
O109 Sc5 2.157625 1_555
O110 S19 1.493837 1_555
O110 Sc4 2.250855 1_555
O111 S18 1.493321 1_655
O111 Sc5 2.265462 1_555
O112 S20 1.499468 1_545
O112 Sc4 2.163396 1_555
O113 S21 1.505784 1_545
O113 Sc5 2.169509 1_555
O114 S22 1.482336 1_545
O114 Sc6 2.148843 1_555
O115 S23 1.517631 1_545
O115 Sc7 2.190484 1_555
O116 S24 1.505561 1_555
O116 Sc6 2.205907 1_555
O117 S25 1.521812 1_555
O117 Sc7 2.181226 1_555
O118 Si8 1.654994 1_555
O118 Sc6 2.081997 1_555
O119 S26 1.499348 1_655
O119 Sc7 2.238997 1_555
O120 Si6 1.628232 1_555
O121 Si7 1.626237 1_555
O122 S13 1.481298 1_455
O123 S12 1.480840 1_555
O124 S14 1.499600 1_565
O125 S15 1.498251 1_565
O126 Si4 1.641218 1_565
O127 Si5 1.649818 1_565
O128 S10 1.475132 1_555
O129 S11 1.478690 1_555
O130 S9 1.463430 1_455
O131 S8 1.472355 1_555
O132 S0 1.503644 1_565
O132 Sc8 2.163379 1_555
O133 S1 1.492977 1_565
O133 Sc9 2.217551 1_555
O134 Si0 1.679271 1_555
O134 Sc8 1.963539 1_555
O135 Si1 1.664176 1_555
O135 Sc9 2.057343 1_555
O136 S2 1.522429 1_455
O136 Sc8 2.222716 1_555
O137 S3 1.515199 1_555
O137 Sc9 2.270459 1_555
O138 S4 1.512389 1_555
O138 Sc10 2.203312 1_555
O139 S5 1.500012 1_555
O139 Sc11 2.161577 1_555
O140 S6 1.507165 1_455
O140 Sc10 2.264192 1_555
O141 S7 1.503270 1_555
O141 Sc11 2.200995 1_555
O142 Si2 1.726634 1_565
O142 Sc10 1.956929 1_555
O143 Si3 1.690097 1_565
O143 Sc11 1.998941 1_555
