# generated using pymatgen
data_Pb9(Br5O2)2
_symmetry_space_group_name_H-M   'P 1'
_cell_length_a   12.39974665
_cell_length_b   12.39974665
_cell_length_c   8.47091111
_cell_angle_alpha   90.00000000
_cell_angle_beta   90.00000000
_cell_angle_gamma   90.00000000
_symmetry_Int_Tables_number   1
_chemical_formula_structural   Pb9(Br5O2)2
_chemical_formula_sum   'Pb18 Br20 O8'
_cell_volume   1302.43406941
_cell_formula_units_Z   2
loop_
 _symmetry_equiv_pos_site_id
 _symmetry_equiv_pos_as_xyz
  1  'x, y, z'
loop_
 _atom_site_type_symbol
 _atom_site_label
 _atom_site_symmetry_multiplicity
 _atom_site_fract_x
 _atom_site_fract_y
 _atom_site_fract_z
 _atom_site_occupancy
  Pb  Pb0  1  0.50000000  0.00000000  0.79345272  1
  Pb  Pb1  1  0.00000000  0.50000000  0.20654728  1
  Pb  Pb2  1  0.74026685  0.57369985  0.80866058  1
  Pb  Pb3  1  0.07369985  0.75973315  0.80866058  1
  Pb  Pb4  1  0.92630015  0.24026685  0.80866058  1
  Pb  Pb5  1  0.25973315  0.42630015  0.80866058  1
  Pb  Pb6  1  0.75973315  0.92630015  0.19133942  1
  Pb  Pb7  1  0.42630015  0.74026685  0.19133942  1
  Pb  Pb8  1  0.57369985  0.25973315  0.19133942  1
  Pb  Pb9  1  0.24026685  0.07369985  0.19133942  1
  Pb  Pb10  1  0.55165758  0.36065494  0.64455960  1
  Pb  Pb11  1  0.86065494  0.94834242  0.64455960  1
  Pb  Pb12  1  0.13934506  0.05165758  0.64455960  1
  Pb  Pb13  1  0.44834242  0.63934506  0.64455960  1
  Pb  Pb14  1  0.94834242  0.13934506  0.35544040  1
  Pb  Pb15  1  0.63934506  0.55165758  0.35544040  1
  Pb  Pb16  1  0.36065494  0.44834242  0.35544040  1
  Pb  Pb17  1  0.05165758  0.86065494  0.35544040  1
  Br  Br0  1  0.50000000  0.00000000  0.11914452  1
  Br  Br1  1  0.00000000  0.50000000  0.88085548  1
  Br  Br2  1  0.37796326  0.18615038  0.41237358  1
  Br  Br3  1  0.68615038  0.12203674  0.41237358  1
  Br  Br4  1  0.31384962  0.87796326  0.41237358  1
  Br  Br5  1  0.62203674  0.81384962  0.41237358  1
  Br  Br6  1  0.12203674  0.31384962  0.58762642  1
  Br  Br7  1  0.81384962  0.37796326  0.58762642  1
  Br  Br8  1  0.18615038  0.62203674  0.58762642  1
  Br  Br9  1  0.87796326  0.68615038  0.58762642  1
  Br  Br10  1  0.00000000  0.00000000  0.00000000  1
  Br  Br11  1  0.50000000  0.50000000  0.00000000  1
  Br  Br12  1  0.87421760  0.70819069  0.12567510  1
  Br  Br13  1  0.20819069  0.62578240  0.12567510  1
  Br  Br14  1  0.79180931  0.37421760  0.12567510  1
  Br  Br15  1  0.12578240  0.29180931  0.12567510  1
  Br  Br16  1  0.62578240  0.79180931  0.87432490  1
  Br  Br17  1  0.29180931  0.87421760  0.87432490  1
  Br  Br18  1  0.70819069  0.12578240  0.87432490  1
  Br  Br19  1  0.37421760  0.20819069  0.87432490  1
  O  O0  1  0.60953847  0.54319502  0.62497384  1
  O  O1  1  0.04319502  0.89046153  0.62497384  1
  O  O2  1  0.95680498  0.10953847  0.62497384  1
  O  O3  1  0.39046153  0.45680498  0.62497384  1
  O  O4  1  0.89046153  0.95680498  0.37502616  1
  O  O5  1  0.45680498  0.60953847  0.37502616  1
  O  O6  1  0.54319502  0.39046153  0.37502616  1
  O  O7  1  0.10953847  0.04319502  0.37502616  1
loop_
_geom_bond_atom_site_label_1
_geom_bond_atom_site_label_2
_geom_bond_distance
_geom_bond_site_symmetry_2
Br0 Pb0 2.758906 1_554
Br1 Pb1 2.758906 1_556
Br2 Pb9 2.892263 1_555
Br2 Pb8 3.198275 1_555
Br2 Pb16 3.293691 1_555
Br3 Pb8 2.892263 1_555
Br3 Pb6 3.198275 1_545
Br3 Pb14 3.293691 1_555
Br4 Pb7 2.892263 1_555
Br4 Pb9 3.198275 1_565
Br4 Pb17 3.293691 1_555
Br5 Pb6 2.892263 1_555
Br5 Pb7 3.198275 1_555
Br5 Pb15 3.293691 1_555
Br6 Pb5 2.892263 1_555
Br6 Pb4 3.198275 1_455
Br6 Pb12 3.293691 1_555
Br7 Pb4 2.892263 1_555
Br7 Pb2 3.198275 1_555
Br7 Pb10 3.293691 1_555
Br8 Pb3 2.892263 1_555
Br8 Pb5 3.198275 1_555
Br8 Pb13 3.293691 1_555
Br9 Pb2 2.892263 1_555
Br9 Pb3 3.198275 1_655
Br9 Pb11 3.293691 1_555
Br12 Pb1 3.092908 1_655
Br12 Pb6 3.104663 1_555
Br13 Pb1 3.092908 1_555
Br13 Pb7 3.104663 1_555
Br14 Pb1 3.092908 1_655
Br14 Pb8 3.104663 1_555
Br15 Pb1 3.092908 1_555
Br15 Pb9 3.104663 1_555
Br16 Pb0 3.092908 1_565
Br16 Pb2 3.104663 1_555
Br17 Pb0 3.092908 1_565
Br17 Pb3 3.104663 1_555
Br18 Pb0 3.092908 1_555
Br18 Pb4 3.104663 1_555
Br19 Pb0 3.092908 1_555
Br19 Pb5 3.104663 1_555
O0 Pb2 2.278559 1_555
O0 Pb15 2.315294 1_555
O0 Pb13 2.333263 1_555
O0 Pb10 2.380303 1_555
O1 Pb3 2.278559 1_555
O1 Pb17 2.315294 1_555
O1 Pb12 2.333263 1_565
O1 Pb11 2.380303 1_455
O2 Pb4 2.278559 1_555
O2 Pb14 2.315294 1_555
O2 Pb11 2.333263 1_545
O2 Pb12 2.380303 1_655
O3 Pb5 2.278559 1_555
O3 Pb16 2.315294 1_555
O3 Pb10 2.333263 1_555
O3 Pb13 2.380303 1_555
O4 Pb6 2.278559 1_555
O4 Pb11 2.315294 1_555
O4 Pb17 2.333263 1_655
O4 Pb14 2.380303 1_565
O5 Pb7 2.278559 1_555
O5 Pb13 2.315294 1_555
O5 Pb16 2.333263 1_555
O5 Pb15 2.380303 1_555
O6 Pb8 2.278559 1_555
O6 Pb10 2.315294 1_555
O6 Pb15 2.333263 1_555
O6 Pb16 2.380303 1_555
O7 Pb9 2.278559 1_555
O7 Pb12 2.315294 1_555
O7 Pb14 2.333263 1_455
O7 Pb17 2.380303 1_545
