# generated using pymatgen
data_Na2B29
_symmetry_space_group_name_H-M   'P 1'
_cell_length_a   7.24953303
_cell_length_b   7.24953303
_cell_length_c   7.24953303
_cell_angle_alpha   132.73103686
_cell_angle_beta   109.90476962
_cell_angle_gamma   88.91042678
_symmetry_Int_Tables_number   1
_chemical_formula_structural   Na2B29
_chemical_formula_sum   'Na2 B29'
_cell_volume   250.44266123
_cell_formula_units_Z   1
loop_
 _symmetry_equiv_pos_site_id
 _symmetry_equiv_pos_as_xyz
  1  'x, y, z'
loop_
 _atom_site_type_symbol
 _atom_site_label
 _atom_site_symmetry_multiplicity
 _atom_site_fract_x
 _atom_site_fract_y
 _atom_site_fract_z
 _atom_site_occupancy
  Na  Na0  1  0.16299200  0.50000000  0.66299200  1
  Na  Na1  1  0.35944300  0.00000000  0.35944300  1
  B  B0  1  0.74356300  0.50000000  0.24356300  1
  B  B1  1  0.50903100  0.87165400  0.63737700  1
  B  B2  1  0.81626400  0.65436000  0.16190400  1
  B  B3  1  0.50754300  0.34564000  0.16190400  1
  B  B4  1  0.99231300  0.15344400  0.83886900  1
  B  B5  1  0.68542400  0.84655600  0.83886900  1
  B  B6  1  0.53581300  0.53640900  0.67897200  1
  B  B7  1  0.14256300  0.14315900  0.67897200  1
  B  B8  1  0.36385100  0.35814500  0.32906000  1
  B  B9  1  0.97091500  0.96520900  0.32906000  1
  B  B10  1  0.14256300  0.46359100  0.99940500  1
  B  B11  1  0.53581300  0.85684100  0.99940500  1
  B  B12  1  0.97091500  0.64185500  0.00570600  1
  B  B13  1  0.36385100  0.03479100  0.00570600  1
  B  B14  1  0.54754100  0.58396300  0.96357800  1
  B  B15  1  0.37961400  0.41603700  0.96357800  1
  B  B16  1  0.12367700  0.08400700  0.03967000  1
  B  B17  1  0.95566200  0.91599300  0.03967000  1
  B  B18  1  0.71255200  0.42297200  0.79633300  1
  B  B19  1  0.37336100  0.08378100  0.79633300  1
  B  B20  1  0.37336100  0.57702800  0.28958000  1
  B  B21  1  0.71255200  0.91621900  0.28958000  1
  B  B22  1  0.13330700  0.41858800  0.21072700  1
  B  B23  1  0.79213900  0.07742000  0.21072700  1
  B  B24  1  0.79213900  0.58141200  0.71471900  1
  B  B25  1  0.13330700  0.92258000  0.71471900  1
  B  B26  1  0.98934300  0.60010900  0.38923400  1
  B  B27  1  0.78912400  0.39989100  0.38923400  1
  B  B28  1  0.76572300  0.12834600  0.63737700  1
loop_
_geom_bond_atom_site_label_1
_geom_bond_atom_site_label_2
_geom_bond_distance
_geom_bond_site_symmetry_2
B0 B26 1.595157 1_555
B0 B27 1.595158 1_555
B0 B2 1.736200 1_555
B0 B3 1.736207 1_555
B1 B5 1.697647 1_555
B1 B20 1.723204 1_555
B1 B19 1.723204 1_565
B1 Na1 2.668257 1_565
B2 B21 1.749503 1_555
B2 B9 1.807957 1_555
B2 B26 1.974312 1_555
B3 B8 1.807951 1_555
B4 B7 1.809713 1_655
B5 B6 1.809710 1_555
B6 B8 1.765809 1_555
B6 Na0 2.675917 1_555
B6 Na1 2.840831 1_555
B7 B9 1.765809 1_445
B7 Na0 2.675917 1_555
B7 Na1 2.840831 1_555
B8 Na1 2.752237 1_555
B8 Na0 2.828980 1_555
B9 Na1 2.752237 1_665
B9 Na0 2.828980 1_665
B10 B12 1.765811 1_456
B10 B22 1.790825 1_556
B10 B20 1.791370 1_556
B10 B4 1.809710 1_455
B10 B15 1.816441 1_555
B10 B7 1.862572 1_555
B10 Na0 2.675924 1_555
B10 Na1 2.840832 1_566
B11 B13 1.765811 1_566
B11 B23 1.790833 1_566
B11 B21 1.791369 1_556
B11 B5 1.809713 1_555
B11 B14 1.816442 1_555
B11 B6 1.862572 1_555
B11 Na0 2.675916 1_555
B11 Na1 2.840825 1_566
B12 B24 1.796469 1_554
B12 B18 1.799597 1_554
B12 B2 1.807957 1_555
B12 B17 1.835374 1_555
B12 B9 1.879554 1_555
B12 Na1 2.752237 1_665
B12 Na0 2.828980 1_654
B13 B25 1.796469 1_544
B13 B19 1.799597 1_554
B13 B3 1.807954 1_555
B13 B16 1.835373 1_555
B13 B8 1.879554 1_555
B13 Na1 2.752237 1_555
B13 Na0 2.828980 1_544
B14 B15 1.737940 1_555
B14 B2 1.804883 1_556
B14 B21 1.810330 1_556
B14 B18 1.810330 1_555
B14 B6 1.816446 1_555
B14 Na0 2.649300 1_555
B15 B3 1.804883 1_556
B15 B20 1.810327 1_556
B15 B19 1.810331 1_555
B15 B7 1.816442 1_555
B15 Na0 2.649298 1_555
B16 B17 1.738850 1_445
B16 B22 1.814232 1_555
B16 B25 1.814232 1_544
B16 B4 1.819809 1_454
B16 B8 1.835373 1_555
B16 Na1 2.800849 1_555
B17 B23 1.814225 1_565
B17 B24 1.814230 1_554
B17 B5 1.819809 1_554
B17 B9 1.835371 1_555
B17 Na1 2.800854 1_665
B18 B28 1.723204 1_555
B18 B2 1.749503 1_556
B18 B24 1.783876 1_555
B18 B6 1.791374 1_555
B18 Na1 2.754013 1_555
B19 B3 1.749503 1_556
B19 B25 1.783876 1_545
B19 B7 1.791374 1_555
B19 Na1 2.754013 1_555
B20 B3 1.749498 1_555
B20 B22 1.783876 1_555
B20 B8 1.799597 1_555
B20 Na1 2.754013 1_565
B21 B28 1.723204 1_565
B21 B23 1.783876 1_565
B21 B9 1.799597 1_555
B21 Na1 2.754013 1_565
B22 B26 1.746982 1_455
B22 B4 1.781299 1_454
B22 B8 1.796469 1_555
B22 Na0 2.835988 1_555
B23 B27 1.746984 1_555
B23 B5 1.781298 1_544
B23 B9 1.796469 1_545
B23 Na0 2.835988 1_655
B24 B27 1.746979 1_555
B24 B5 1.781303 1_555
B24 B6 1.790832 1_555
B24 Na0 2.835988 1_655
B25 B26 1.746982 1_455
B25 B4 1.781299 1_465
B25 B7 1.790832 1_565
B25 Na0 2.835988 1_555
B26 B27 2.072143 1_555
B26 Na0 2.503782 1_655
B27 B3 1.974312 1_555
B27 Na0 2.503788 1_655
B28 B4 1.697650 1_555
B28 Na1 2.668257 1_555
