# generated using pymatgen
data_La5Pb3O
_symmetry_space_group_name_H-M   'P 1'
_cell_length_a   9.60441191
_cell_length_b   9.60429451
_cell_length_c   9.60202529
_cell_angle_alpha   125.29033813
_cell_angle_beta   125.29136251
_cell_angle_gamma   81.06487497
_symmetry_Int_Tables_number   1
_chemical_formula_structural   La5Pb3O
_chemical_formula_sum   'La10 Pb6 O2'
_cell_volume   568.53538151
_cell_formula_units_Z   2
loop_
 _symmetry_equiv_pos_site_id
 _symmetry_equiv_pos_as_xyz
  1  'x, y, z'
loop_
 _atom_site_type_symbol
 _atom_site_label
 _atom_site_symmetry_multiplicity
 _atom_site_fract_x
 _atom_site_fract_y
 _atom_site_fract_z
 _atom_site_occupancy
  La  La0  1  0.50117211  0.30146298  0.49997868  1
  La  La1  1  0.80151336  0.00113768  0.50001322  1
  La  La2  1  0.00104585  0.50102907  0.19957550  1
  La  La3  1  0.30148138  0.80150461  0.80063863  1
  La  La4  1  0.50160596  0.70126564  0.50014126  1
  La  La5  1  0.20117803  0.00156335  0.50002928  1
  La  La6  1  0.00162174  0.50166270  0.80038971  1
  La  La7  1  0.70117433  0.20115661  0.19931688  1
  La  La8  1  0.50119614  0.50120861  0.00000680  1
  La  La9  1  0.00120197  0.00116592  -0.00001778  1
  Pb  Pb0  1  0.14892432  0.35358031  0.49996821  1
  Pb  Pb1  1  0.85357793  0.64891144  0.49998100  1
  Pb  Pb2  1  0.64891099  0.14892040  0.79525118  1
  Pb  Pb3  1  0.35356916  0.85358631  0.20471959  1
  Pb  Pb4  1  0.75101439  0.75112033  -0.00000400  1
  Pb  Pb5  1  0.25112521  0.25101411  0.00002917  1
  O  O0  1  0.75119929  0.25122836  0.49991630  1
  O  O1  1  0.25133183  0.75132358  0.50006638  1
loop_
_geom_bond_atom_site_label_1
_geom_bond_atom_site_label_2
_geom_bond_distance
_geom_bond_site_symmetry_2
La0 O0 2.375029 1_555
La0 Pb0 3.342121 1_555
La0 Pb2 3.421033 1_555
La0 Pb3 3.421996 1_545
La0 Pb5 3.660619 1_555
La0 Pb4 3.661903 1_556
La1 O0 2.375788 1_555
La1 Pb1 3.341775 1_545
La1 Pb2 3.421236 1_555
La1 Pb3 3.422440 1_545
La1 Pb4 3.660983 1_545
La1 Pb5 3.661686 1_656
La2 O1 2.376759 1_555
La2 Pb2 3.340410 1_454
La2 Pb0 3.421051 1_555
La2 Pb1 3.421355 1_455
La2 Pb5 3.662796 1_555
La2 Pb4 3.663046 1_455
La3 O1 2.377511 1_555
La3 Pb3 3.338752 1_556
La3 Pb1 3.421694 1_455
La3 Pb0 3.421792 1_555
La3 Pb5 3.661802 1_566
La3 Pb4 3.662097 1_556
La4 O1 2.376659 1_555
La4 Pb1 3.340301 1_555
La4 Pb2 3.420023 1_565
La4 Pb3 3.420062 1_555
La4 Pb4 3.663332 1_556
La4 Pb5 3.665624 1_555
La5 O1 2.376852 1_545
La5 Pb0 3.340220 1_555
La5 Pb3 3.419860 1_545
La5 Pb2 3.420581 1_555
La5 Pb5 3.664063 1_556
La5 Pb4 3.664951 1_445
La6 O0 2.377991 1_455
La6 Pb3 3.338627 1_556
La6 Pb1 3.419358 1_455
La6 Pb0 3.419895 1_555
La6 Pb4 3.666100 1_456
La6 Pb5 3.666662 1_556
La7 O0 2.378816 1_555
La7 Pb2 3.337028 1_554
La7 Pb1 3.420238 1_555
La7 Pb0 3.420248 1_655
La7 Pb4 3.664954 1_545
La7 Pb5 3.665135 1_555
La8 Pb1 3.370858 1_555
La8 Pb0 3.371145 1_554
La8 Pb3 3.372117 1_555
La8 Pb2 3.372209 1_554
La8 Pb4 3.647945 1_555
La8 Pb5 3.651938 1_555
La9 Pb1 3.370925 1_444
La9 Pb0 3.370983 1_555
La9 Pb3 3.371814 1_545
La9 Pb2 3.372369 1_454
La9 Pb5 3.647826 1_555
La9 Pb4 3.651640 1_445
