# generated using pymatgen
data_Na2Sc3Ta5Si6(SO8)6
_symmetry_space_group_name_H-M   'P 1'
_cell_length_a   17.77205331
_cell_length_b   8.87674033
_cell_length_c   23.08673887
_cell_angle_alpha   89.87362808
_cell_angle_beta   89.89837041
_cell_angle_gamma   120.13779716
_symmetry_Int_Tables_number   1
_chemical_formula_structural   Na2Sc3Ta5Si6(SO8)6
_chemical_formula_sum   'Na6 Sc9 Ta15 Si18 S18 O144'
_cell_volume   3149.75061707
_cell_formula_units_Z   3
loop_
 _symmetry_equiv_pos_site_id
 _symmetry_equiv_pos_as_xyz
  1  'x, y, z'
loop_
 _atom_site_type_symbol
 _atom_site_label
 _atom_site_symmetry_multiplicity
 _atom_site_fract_x
 _atom_site_fract_y
 _atom_site_fract_z
 _atom_site_occupancy
  Na  Na0  1  0.99426883  0.97934433  0.49803623  1
  Na  Na1  1  0.50148694  0.99927680  0.99852149  1
  Na  Na2  1  0.33407722  0.31812692  0.83960633  1
  Na  Na3  1  0.83247038  0.33921896  0.83884786  1
  Na  Na4  1  0.32700745  0.32055597  0.33733917  1
  Na  Na5  1  0.83730343  0.34372575  0.34459214  1
  Sc  Sc0  1  0.00660189  0.00203854  0.35378254  1
  Sc  Sc1  1  0.50320647  0.02608841  0.85276525  1
  Sc  Sc2  1  0.99901279  0.00605308  0.64809882  1
  Sc  Sc3  1  0.49305476  0.98015377  0.14614588  1
  Sc  Sc4  1  0.34126056  0.33961891  0.97594570  1
  Sc  Sc5  1  0.83666326  0.32994651  0.97544491  1
  Sc  Sc6  1  0.33391189  0.33896786  0.47966110  1
  Sc  Sc7  1  0.83062858  0.34693141  0.47801044  1
  Sc  Sc8  1  0.67104904  0.66228988  0.31332571  1
  Ta  Ta0  1  0.49425213  0.99249954  0.36103911  1
  Ta  Ta1  1  0.00566720  0.00767752  0.86308786  1
  Ta  Ta2  1  0.49861958  0.00428412  0.64330805  1
  Ta  Ta3  1  0.00252601  0.01417115  0.14798300  1
  Ta  Ta4  1  0.32701526  0.33544999  0.69034160  1
  Ta  Ta5  1  0.82571415  0.32673771  0.68258872  1
  Ta  Ta6  1  0.33962023  0.34711967  0.19021018  1
  Ta  Ta7  1  0.83248981  0.31916016  0.18667178  1
  Ta  Ta8  1  0.16250888  0.66498948  0.01902774  1
  Ta  Ta9  1  0.66764530  0.66362863  0.02381601  1
  Ta  Ta10  1  0.17055595  0.67560295  0.52027826  1
  Ta  Ta11  1  0.67205503  0.66189745  0.52470710  1
  Ta  Ta12  1  0.16288516  0.67800045  0.30667644  1
  Ta  Ta13  1  0.16648531  0.67251504  0.80796292  1
  Ta  Ta14  1  0.66462459  0.64802925  0.81224347  1
  Si  Si0  1  0.14446596  0.00608603  0.24831144  1
  Si  Si1  1  0.35648328  0.71626261  0.25218387  1
  Si  Si2  1  0.99887664  0.28578388  0.25435487  1
  Si  Si3  1  0.13941134  0.28391790  0.75095421  1
  Si  Si4  1  0.64414818  0.28369939  0.74941867  1
  Si  Si5  1  0.35812528  0.00349919  0.74947452  1
  Si  Si6  1  0.68681869  0.04087531  0.57984286  1
  Si  Si7  1  0.33229391  0.62081807  0.58189335  1
  Si  Si8  1  0.84027444  0.63131961  0.58191359  1
  Si  Si9  1  0.47790475  0.62496834  0.08012475  1
  Si  Si10  1  0.83463631  0.04192482  0.08024891  1
  Si  Si11  1  0.80879074  0.66263233  0.91718243  1
  Si  Si12  1  0.02318469  0.38532500  0.91460787  1
  Si  Si13  1  0.52271987  0.37582362  0.91862753  1
  Si  Si14  1  0.17061588  0.95774858  0.91517553  1
  Si  Si15  1  0.30590447  0.95763133  0.41484099  1
  Si  Si16  1  0.66769864  0.37908783  0.41527754  1
  Si  Si17  1  0.02117041  0.66490735  0.41670209  1
  S  S0  1  0.64418896  0.00160867  0.25060610  1
  S  S1  1  0.85594828  0.70934245  0.24774149  1
  S  S2  1  0.50067647  0.28672876  0.24999127  1
  S  S3  1  0.99812335  0.70844794  0.75050519  1
  S  S4  1  0.50062198  0.71285856  0.74972090  1
  S  S5  1  0.85529809  0.00259831  0.75202831  1
  S  S6  1  0.47680944  0.33471920  0.58326025  1
  S  S7  1  0.97851438  0.33569727  0.58243256  1
  S  S8  1  0.18955076  0.04458352  0.58337456  1
  S  S9  1  0.97777394  0.62370817  0.08382319  1
  S  S10  1  0.33183908  0.04253911  0.08273671  1
  S  S11  1  0.19050237  0.33516643  0.08384236  1
  S  S12  1  0.68952750  0.33347714  0.08331179  1
  S  S13  1  0.30803561  0.66731426  0.91669609  1
  S  S14  1  0.66422138  0.94580752  0.91646052  1
  S  S15  1  0.81010036  0.95229729  0.41738682  1
  S  S16  1  0.16638160  0.38324643  0.41724799  1
  S  S17  1  0.52409472  0.66757034  0.41567655  1
  O  O0  1  0.10650444  0.04700675  0.30508524  1
  O  O1  1  0.60666480  0.03666073  0.30247757  1
  O  O2  1  0.42353150  0.80917979  0.30665577  1
  O  O3  1  0.90839864  0.77659372  0.30006877  1
  O  O4  1  0.48440929  0.17434222  0.30202852  1
  O  O5  1  0.97224276  0.15748960  0.30808606  1
  O  O6  1  0.09374714  0.15508358  0.80670729  1
  O  O7  1  0.60856635  0.17136820  0.80735767  1
  O  O8  1  0.48031111  0.77752091  0.80200035  1
  O  O9  1  0.98300493  0.78605568  0.80257362  1
  O  O10  1  0.41416092  0.03976720  0.80715209  1
  O  O11  1  0.91084754  0.02849337  0.80285519  1
  O  O12  1  0.40380435  0.97385041  0.69284803  1
  O  O13  1  0.88989786  0.96776092  0.69918572  1
  O  O14  1  0.08643032  0.20293418  0.69310152  1
  O  O15  1  0.58378542  0.19222322  0.69318974  1
  O  O16  1  0.01275650  0.81259141  0.69827686  1
  O  O17  1  0.51302532  0.81862978  0.69747002  1
  O  O18  1  0.39739345  0.82797131  0.19456467  1
  O  O19  1  0.90049974  0.82000247  0.19567116  1
  O  O20  1  0.01011096  0.19084646  0.19505534  1
  O  O21  1  0.51368752  0.21186274  0.19754885  1
  O  O22  1  0.08290845  0.97567374  0.19158847  1
  O  O23  1  0.59476682  0.98119039  0.19786193  1
  O  O24  1  0.43603818  0.36012798  0.63538210  1
  O  O25  1  0.93742817  0.36156431  0.63639410  1
  O  O26  1  0.24491649  0.12774115  0.63609109  1
  O  O27  1  0.75055587  0.13277737  0.63938796  1
  O  O28  1  0.32036782  0.49427463  0.63890914  1
  O  O29  1  0.82218024  0.50145757  0.63965959  1
  O  O30  1  0.42859274  0.49688117  0.13842363  1
  O  O31  1  0.93554356  0.51016970  0.13588884  1
  O  O32  1  0.31634595  0.12007515  0.13528759  1
  O  O33  1  0.82050871  0.14231313  0.13884933  1
  O  O34  1  0.24465644  0.36045451  0.13630014  1
  O  O35  1  0.74546588  0.36036978  0.13612421  1
  O  O36  1  0.22477345  0.29965641  0.03188474  1
  O  O37  1  0.72974620  0.30772648  0.03186684  1
  O  O38  1  0.41351264  0.53155028  0.02712059  1
  O  O39  1  0.92620758  0.55016363  0.03170062  1
  O  O40  1  0.34284782  0.14602541  0.03062828  1
  O  O41  1  0.85372162  0.17263885  0.02808268  1
  O  O42  1  0.23022536  0.14968563  0.53153017  1
  O  O43  1  0.73202377  0.16336216  0.52635122  1
  O  O44  1  0.34901395  0.53197228  0.52691513  1
  O  O45  1  0.85465140  0.54715198  0.52593714  1
  O  O46  1  0.42409232  0.30062082  0.53122836  1
  O  O47  1  0.92462979  0.30521062  0.53164309  1
  O  O48  1  0.26363088  0.68856722  0.97077786  1
  O  O49  1  0.76443889  0.69807056  0.97344315  1
  O  O50  1  0.08413977  0.47515111  0.97415221  1
  O  O51  1  0.58584769  0.48314409  0.97316409  1
  O  O52  1  0.15582747  0.83076653  0.97367726  1
  O  O53  1  0.65571853  0.84253544  0.96972516  1
  O  O54  1  0.26477728  0.83644622  0.47390102  1
  O  O55  1  0.76219845  0.83813719  0.46996576  1
  O  O56  1  0.15720450  0.47024146  0.47094659  1
  O  O57  1  0.65069256  0.47502282  0.47182241  1
  O  O58  1  0.08525440  0.68600273  0.47389849  1
  O  O59  1  0.57523606  0.69442852  0.46858696  1
  O  O60  1  0.07478417  0.64893055  0.36032987  1
  O  O61  1  0.56432035  0.64713344  0.36313656  1
  O  O62  1  0.24902113  0.85602126  0.35913882  1
  O  O63  1  0.75749260  0.87092433  0.36501005  1
  O  O64  1  0.17896460  0.48712664  0.36500488  1
  O  O65  1  0.67783604  0.49761390  0.35911461  1
  O  O66  1  0.07626791  0.50748672  0.86050003  1
  O  O67  1  0.57197924  0.49794439  0.85965680  1
  O  O68  1  0.18026864  0.85620590  0.86014150  1
  O  O69  1  0.67674224  0.86447033  0.86334611  1
  O  O70  1  0.25570396  0.64877471  0.86465327  1
  O  O71  1  0.74834195  0.64560318  0.85954032  1
  O  O72  1  0.01499588  0.84164416  0.41367178  1
  O  O73  1  0.51697617  0.83038212  0.40833949  1
  O  O74  1  0.40228557  0.97021590  0.40542087  1
  O  O75  1  0.89445873  0.95936842  0.41519433  1
  O  O76  1  0.08660159  0.21065157  0.41559787  1
  O  O77  1  0.57920336  0.18843727  0.40164977  1
  O  O78  1  0.01681556  0.19538945  0.90704335  1
  O  O79  1  0.51649282  0.18785228  0.91702707  1
  O  O80  1  0.07846395  0.95666773  0.90727172  1
  O  O81  1  0.58411749  0.95500465  0.91217061  1
  O  O82  1  0.39453880  0.82217138  0.91400654  1
  O  O83  1  0.90190043  0.83576451  0.90007201  1
  O  O84  1  0.48958169  0.18226046  0.59197707  1
  O  O85  1  0.99008549  0.18360065  0.59115434  1
  O  O86  1  0.10255262  0.02141044  0.59117395  1
  O  O87  1  0.59320848  0.01657919  0.59961664  1
  O  O88  1  0.41534446  0.81059404  0.59792964  1
  O  O89  1  0.91885634  0.82507385  0.59299746  1
  O  O90  1  0.49368840  0.81997060  0.08911606  1
  O  O91  1  0.99098301  0.79820339  0.09509812  1
  O  O92  1  0.40958476  0.02534551  0.08945211  1
  O  O93  1  0.91600847  0.01368385  0.09823016  1
  O  O94  1  0.10090108  0.18198693  0.09455199  1
  O  O95  1  0.60204800  0.18515035  0.09272755  1
  O  O96  1  0.34522227  0.17162872  0.73387160  1
  O  O97  1  0.84936368  0.16508735  0.74436616  1
  O  O98  1  0.23942167  0.30874944  0.74238057  1
  O  O99  1  0.74438624  0.31559402  0.73884928  1
  O  O100  1  0.42373695  0.52916728  0.73910152  1
  O  O101  1  0.92253903  0.52756438  0.74357278  1
  O  O102  1  0.34783157  0.51919863  0.24175718  1
  O  O103  1  0.84388097  0.53121603  0.23569715  1
  O  O104  1  0.41735750  0.29792940  0.24351627  1
  O  O105  1  0.91538219  0.31764602  0.23624015  1
  O  O106  1  0.24248915  0.16929905  0.23325240  1
  O  O107  1  0.73491085  0.16878867  0.24215207  1
  O  O108  1  0.31062976  0.50586747  0.92270600  1
  O  O109  1  0.81699938  0.49202077  0.92205961  1
  O  O110  1  0.42977119  0.36682923  0.91849436  1
  O  O111  1  0.92876101  0.36259567  0.91934657  1
  O  O112  1  0.25011295  0.14851543  0.92304934  1
  O  O113  1  0.74226278  0.12063823  0.92114934  1
  O  O114  1  0.32226140  0.15148303  0.42202039  1
  O  O115  1  0.81867197  0.12301020  0.42423724  1
  O  O116  1  0.24421546  0.36375699  0.42352093  1
  O  O117  1  0.74886181  0.34988286  0.41859131  1
  O  O118  1  0.43513492  0.51681434  0.42090042  1
  O  O119  1  0.93013695  0.48542034  0.41934296  1
  O  O120  1  0.18052569  0.49197664  0.07677215  1
  O  O121  1  0.68436416  0.49579282  0.07784576  1
  O  O122  1  0.06606372  0.63823565  0.07650413  1
  O  O123  1  0.57251572  0.63752213  0.07169508  1
  O  O124  1  0.25330533  0.86223278  0.07449567  1
  O  O125  1  0.74823579  0.85361396  0.07345882  1
  O  O126  1  0.18279179  0.87041033  0.57724869  1
  O  O127  1  0.67305426  0.84518559  0.56939402  1
  O  O128  1  0.24505658  0.63614776  0.57237353  1
  O  O129  1  0.74878494  0.64039662  0.57376919  1
  O  O130  1  0.06624370  0.49466201  0.57578109  1
  O  O131  1  0.56417365  0.49198779  0.57534987  1
  O  O132  1  0.15506882  0.83516487  0.25523551  1
  O  O133  1  0.65935139  0.85656910  0.25919241  1
  O  O134  1  0.26052536  0.67840640  0.26676930  1
  O  O135  1  0.77042413  0.69438818  0.25269159  1
  O  O136  1  0.08357309  0.47532269  0.25987684  1
  O  O137  1  0.57236325  0.46402621  0.25911615  1
  O  O138  1  0.15760460  0.47837078  0.76525568  1
  O  O139  1  0.65648826  0.48094959  0.75827785  1
  O  O140  1  0.07736737  0.69145153  0.75881695  1
  O  O141  1  0.57876646  0.69490624  0.75713346  1
  O  O142  1  0.26048425  0.83520359  0.75993832  1
  O  O143  1  0.76557372  0.85435476  0.76199956  1
loop_
_geom_bond_atom_site_label_1
_geom_bond_atom_site_label_2
_geom_bond_distance
_geom_bond_site_symmetry_2
Na0 O72 2.425573 1_655
Na0 O75 2.556061 1_555
Na0 O89 2.571238 1_555
Na0 O76 2.668188 1_665
Na0 O86 2.786223 1_665
Na0 O85 2.840171 1_565
Na1 O79 2.439068 1_565
Na1 O90 2.586476 1_556
Na1 O81 2.618749 1_555
Na1 O82 2.630094 1_555
Na1 O92 2.738196 1_566
Na1 O95 2.777619 1_566
Na2 O110 2.381677 1_555
Na2 O112 2.434262 1_555
Na2 O108 2.709282 1_555
Na2 O98 2.783659 1_555
Na2 O96 2.821365 1_555
Na2 O100 2.898728 1_555
Na3 O109 2.447460 1_555
Na3 O111 2.466129 1_555
Na3 O113 2.606629 1_555
Na3 O101 2.734890 1_555
Na3 O99 2.740382 1_555
Na3 O97 2.777751 1_555
Na4 O114 2.437416 1_555
Na4 O116 2.613492 1_555
Na4 O118 2.667523 1_555
Na4 O102 2.727684 1_555
Na4 O104 2.761141 1_555
Na4 O106 2.799169 1_555
Na5 O119 2.284320 1_555
Na5 O117 2.338651 1_555
Na5 O115 2.580646 1_555
Na5 O107 2.917186 1_555
Na5 O105 2.923931 1_555
Na5 O103 2.981452 1_555
O0 Si0 1.596916 1_555
O0 Sc0 1.963385 1_555
O1 S0 1.477439 1_555
O1 Ta0 2.274741 1_545
O2 Si1 1.644583 1_555
O2 Ta0 1.940343 1_555
O3 S1 1.460512 1_555
O3 Sc0 2.258329 1_665
O4 S2 1.491976 1_555
O4 Ta0 2.183314 1_545
O5 Si2 1.584351 1_555
O5 Sc0 2.057173 1_655
O6 Si3 1.637405 1_555
O6 Ta1 1.945571 1_555
O7 Si4 1.594156 1_555
O7 Sc1 1.957152 1_555
O8 S4 1.458109 1_555
O8 Sc1 2.349298 1_565
O9 S3 1.476542 1_555
O9 Ta1 2.280946 1_665
O10 Si5 1.597865 1_555
O10 Sc1 1.956107 1_555
O11 S5 1.477096 1_555
O11 Ta1 2.264374 1_655
O12 Si5 1.627787 1_565
O12 Ta2 1.937830 1_565
O13 S5 1.466971 1_565
O13 Sc2 2.143665 1_565
O14 Si3 1.586273 1_555
O14 Sc2 1.958238 1_455
O15 Si4 1.621800 1_555
O15 Ta2 1.969607 1_555
O16 S3 1.459011 1_455
O16 Sc2 2.182715 1_465
O17 S4 1.473611 1_555
O17 Ta2 2.181914 1_565
O18 Si1 1.596318 1_555
O18 Sc3 1.909233 1_555
O19 S1 1.499120 1_555
O19 Ta3 2.077721 1_665
O20 Si2 1.672541 1_455
O20 Ta3 1.858631 1_555
O21 S2 1.455279 1_555
O21 Sc3 2.242377 1_545
O22 Si0 1.641558 1_565
O22 Ta3 1.914374 1_565
O23 S0 1.460137 1_565
O23 Sc3 2.164290 1_555
O24 S6 1.478547 1_555
O24 Ta4 2.230676 1_555
O25 S7 1.517991 1_555
O25 Ta5 2.132938 1_555
O26 S8 1.507697 1_555
O26 Ta4 2.100557 1_555
O27 Si6 1.709084 1_555
O27 Ta5 1.856401 1_555
O28 Si7 1.671165 1_555
O28 Ta4 1.889953 1_555
O29 Si8 1.681976 1_555
O29 Ta5 1.866249 1_555
O30 Si9 1.691392 1_555
O30 Ta6 1.890089 1_555
O31 S9 1.501934 1_555
O31 Ta7 2.114016 1_555
O32 S10 1.488035 1_555
O32 Ta6 2.239820 1_555
O33 Si10 1.707700 1_555
O33 Ta7 1.844309 1_555
O34 S11 1.493909 1_555
O34 Ta6 2.149140 1_555
O35 S12 1.516307 1_555
O35 Ta7 2.111927 1_555
O36 S11 1.449504 1_555
O36 Sc4 2.308794 1_554
O37 S12 1.461511 1_555
O37 Sc5 2.227088 1_554
O38 Si9 1.597248 1_555
O38 Sc4 1.940313 1_554
O39 S9 1.456258 1_555
O39 Sc5 2.221553 1_554
O40 S10 1.463967 1_555
O40 Sc4 2.141719 1_554
O41 Si10 1.583988 1_555
O41 Sc5 1.984311 1_554
O42 S8 1.462997 1_555
O42 Sc6 2.127664 1_555
O43 Si6 1.570390 1_555
O43 Sc7 2.022210 1_555
O44 Si7 1.599915 1_555
O44 Sc6 1.935189 1_555
O45 Si8 1.577450 1_555
O45 Sc7 1.952887 1_555
O46 S6 1.460552 1_555
O46 Sc6 2.157459 1_555
O47 S7 1.452708 1_555
O47 Sc7 2.255610 1_555
O48 S13 1.537643 1_555
O48 Ta8 2.031884 1_556
O49 Si11 1.629262 1_555
O49 Ta9 1.966797 1_556
O50 Si12 1.685770 1_555
O50 Ta8 1.873212 1_556
O51 Si13 1.639682 1_555
O51 Ta9 1.929534 1_556
O52 Si14 1.690659 1_555
O52 Ta8 1.856043 1_556
O53 S14 1.493537 1_555
O53 Ta9 2.111087 1_556
O54 Si15 1.658622 1_555
O54 Ta10 1.890773 1_555
O55 S15 1.532896 1_555
O55 Ta11 2.019540 1_555
O56 S16 1.513222 1_555
O56 Ta10 2.062108 1_555
O57 Si16 1.668133 1_555
O57 Ta11 1.940292 1_555
O58 Si17 1.693547 1_555
O58 Ta10 1.897131 1_555
O59 S17 1.470605 1_555
O59 Ta11 2.286474 1_555
O60 Si17 1.659480 1_555
O60 Ta12 1.907471 1_555
O61 S17 1.464042 1_555
O61 Sc8 2.161865 1_555
O62 Si15 1.607291 1_555
O62 Ta12 1.973176 1_555
O63 S15 1.479116 1_555
O63 Sc8 2.091182 1_555
O64 S16 1.463595 1_555
O64 Ta12 2.289827 1_555
O65 Si16 1.619709 1_555
O65 Sc8 1.854603 1_555
O66 Si12 1.609012 1_555
O66 Ta13 1.953092 1_555
O67 Si13 1.682663 1_555
O67 Ta14 1.862404 1_555
O68 Si14 1.617331 1_555
O68 Ta13 1.943849 1_555
O69 S14 1.496243 1_555
O69 Ta14 2.173722 1_555
O70 S13 1.478784 1_555
O70 Ta13 2.147826 1_555
O71 Si11 1.670569 1_555
O71 Ta14 1.855868 1_555
O72 Si17 1.628076 1_555
O72 Sc0 2.041187 1_565
O73 S17 1.521843 1_555
O73 Ta0 2.001186 1_555
O74 Si15 1.673379 1_555
O74 Ta0 1.851726 1_555
O75 S15 1.469486 1_555
O75 Sc0 2.314150 1_665
O76 S16 1.475863 1_555
O76 Sc0 2.205064 1_555
O77 Si16 1.663718 1_555
O77 Ta0 1.886506 1_545
O78 Si12 1.641849 1_555
O78 Ta1 1.876744 1_555
O79 Si13 1.616357 1_555
O79 Sc1 1.997221 1_555
O80 Si14 1.643422 1_555
O80 Ta1 1.873561 1_565
O81 S14 1.469801 1_555
O81 Sc1 2.293710 1_565
O82 S13 1.460851 1_555
O82 Sc1 2.339644 1_565
O83 Si11 1.642396 1_555
O83 Ta1 1.903003 1_665
O84 S6 1.493645 1_555
O84 Ta2 2.042874 1_555
O85 S7 1.477636 1_555
O85 Sc2 2.116628 1_555
O86 S8 1.464498 1_555
O86 Sc2 2.206919 1_455
O87 Si6 1.630709 1_555
O87 Ta2 1.914296 1_555
O88 Si7 1.631364 1_555
O88 Ta2 1.924127 1_565
O89 Si8 1.601623 1_555
O89 Sc2 1.986412 1_565
O90 Si9 1.622435 1_555
O90 Sc3 1.944157 1_555
O91 S9 1.469343 1_555
O91 Ta3 2.196431 1_665
O92 S10 1.472698 1_555
O92 Sc3 2.162588 1_545
O93 Si10 1.640804 1_555
O93 Ta3 1.919160 1_655
O94 S11 1.506191 1_555
O94 Ta3 2.041166 1_555
O95 S12 1.462849 1_555
O95 Sc3 2.241977 1_545
O96 Si5 1.658707 1_555
O96 Ta4 1.922644 1_555
O97 S5 1.508161 1_555
O97 Ta5 2.206477 1_555
O98 Si3 1.688795 1_555
O98 Ta4 1.882695 1_555
O99 Si4 1.674786 1_555
O99 Ta5 1.906603 1_555
O100 S4 1.533494 1_555
O100 Ta4 2.055766 1_555
O101 S3 1.498075 1_555
O101 Ta5 2.249574 1_555
O102 Si1 1.695137 1_555
O102 Ta6 1.885623 1_555
O103 S1 1.511651 1_555
O103 Ta7 2.119643 1_555
O104 S2 1.540586 1_555
O104 Ta6 2.055068 1_555
O105 Si2 1.697018 1_555
O105 Ta7 1.872375 1_555
O106 Si0 1.648004 1_555
O106 Ta6 1.926061 1_555
O107 S0 1.560416 1_555
O107 Ta7 2.022334 1_555
O108 S13 1.463115 1_555
O108 Sc4 2.187693 1_555
O109 Si11 1.596483 1_555
O109 Sc5 2.051724 1_555
O110 Si13 1.613289 1_555
O110 Sc4 1.975252 1_555
O111 Si12 1.589959 1_655
O111 Sc5 1.988678 1_555
O112 Si14 1.580042 1_545
O112 Sc4 2.061513 1_555
O113 S14 1.477735 1_545
O113 Sc5 2.173856 1_555
O114 Si15 1.603794 1_545
O114 Sc6 2.061115 1_555
O115 S15 1.453931 1_545
O115 Sc7 2.263835 1_555
O116 S16 1.485004 1_555
O116 Sc6 2.151210 1_555
O117 Si16 1.590436 1_555
O117 Sc7 2.009809 1_555
O118 S17 1.476149 1_555
O118 Sc6 2.167696 1_555
O119 Si17 1.603269 1_655
O119 Sc7 2.067443 1_555
O120 S11 1.497523 1_555
O120 Ta8 2.173636 1_555
O121 S12 1.494106 1_555
O121 Ta9 2.073996 1_555
O122 S9 1.517565 1_455
O122 Ta8 2.082512 1_555
O123 Si9 1.639541 1_555
O123 Ta9 1.932009 1_555
O124 S10 1.518226 1_565
O124 Ta8 2.118832 1_555
O125 Si10 1.612811 1_565
O125 Ta9 1.948811 1_555
O126 S8 1.496449 1_565
O126 Ta10 2.097848 1_555
O127 Si6 1.646469 1_565
O127 Ta11 1.921005 1_555
O128 Si7 1.638123 1_555
O128 Ta10 1.947221 1_555
O129 Si8 1.678736 1_555
O129 Ta11 1.856019 1_555
O130 S7 1.494859 1_455
O130 Ta10 2.156607 1_555
O131 S6 1.488040 1_555
O131 Ta11 2.097195 1_555
O132 Si0 1.627621 1_565
O132 Ta12 1.887831 1_555
O133 S0 1.454974 1_565
O133 Sc8 2.220513 1_555
O134 Si1 1.598937 1_555
O134 Ta12 1.961642 1_555
O135 S1 1.462057 1_555
O135 Sc8 2.154998 1_555
O136 Si2 1.603523 1_455
O136 Ta12 1.964304 1_555
O137 S2 1.460621 1_555
O137 Sc8 2.158161 1_555
O138 Si3 1.623413 1_555
O138 Ta13 1.924049 1_555
O139 Si4 1.664890 1_555
O139 Ta14 1.888450 1_555
O140 S3 1.502388 1_455
O140 Ta13 2.024090 1_555
O141 S4 1.485386 1_555
O141 Ta14 2.182282 1_555
O142 Si5 1.641679 1_565
O142 Ta13 1.915566 1_555
O143 S5 1.489168 1_565
O143 Ta14 2.145306 1_555
