# generated using pymatgen
data_Na6CaHf3Si2(PO6)4
_symmetry_space_group_name_H-M   'P 1'
_cell_length_a   9.16448143
_cell_length_b   9.18578201
_cell_length_c   22.68598044
_cell_angle_alpha   89.89623106
_cell_angle_beta   90.08228978
_cell_angle_gamma   120.07841895
_symmetry_Int_Tables_number   1
_chemical_formula_structural   Na6CaHf3Si2(PO6)4
_chemical_formula_sum   'Na18 Ca3 Hf9 Si6 P12 O72'
_cell_volume   1652.59981216
_cell_formula_units_Z   3
loop_
 _symmetry_equiv_pos_site_id
 _symmetry_equiv_pos_as_xyz
  1  'x, y, z'
loop_
 _atom_site_type_symbol
 _atom_site_label
 _atom_site_symmetry_multiplicity
 _atom_site_fract_x
 _atom_site_fract_y
 _atom_site_fract_z
 _atom_site_occupancy
  Na  Na0  1  0.99875671  0.99472004  0.50157147  1
  Na  Na1  1  0.99874654  0.99679890  0.99895768  1
  Na  Na2  1  0.64809944  0.30032671  0.83222962  1
  Na  Na3  1  0.64985253  0.32909865  0.32218581  1
  Na  Na4  1  0.32273476  0.66577815  0.16117425  1
  Na  Na5  1  0.32572860  0.66258462  0.66602877  1
  Na  Na6  1  0.65257757  0.01529213  0.24252760  1
  Na  Na7  1  0.98445325  0.62375191  0.23776377  1
  Na  Na8  1  0.63184059  0.61834285  0.74176411  1
  Na  Na9  1  0.99035952  0.37055236  0.74641092  1
  Na  Na10  1  0.66544273  0.97501777  0.58604094  1
  Na  Na11  1  0.66334049  0.68021746  0.07825545  1
  Na  Na12  1  0.02284705  0.34504466  0.08463075  1
  Na  Na13  1  0.97176683  0.66826241  0.91903296  1
  Na  Na14  1  0.33562329  0.30575649  0.91778767  1
  Na  Na15  1  0.96048008  0.28227950  0.41144234  1
  Na  Na16  1  0.32813845  0.03003734  0.41088756  1
  Na  Na17  1  0.71299141  0.68748697  0.41635151  1
  Ca  Ca0  1  0.00302575  0.00247381  0.35150317  1
  Ca  Ca1  1  0.65529535  0.32900946  0.68351601  1
  Ca  Ca2  1  0.65853651  0.32897144  0.17761787  1
  Hf  Hf0  1  0.99723107  0.99982669  0.85648936  1
  Hf  Hf1  1  0.00615507  0.99637235  0.64561586  1
  Hf  Hf2  1  0.00863556  0.00171861  0.14949559  1
  Hf  Hf3  1  0.66838768  0.33178695  0.98090913  1
  Hf  Hf4  1  0.66752705  0.33837432  0.48559970  1
  Hf  Hf5  1  0.33347682  0.67417518  0.01365003  1
  Hf  Hf6  1  0.33550760  0.66529834  0.52114950  1
  Hf  Hf7  1  0.33754503  0.66737054  0.31313889  1
  Hf  Hf8  1  0.33664029  0.67535945  0.81552770  1
  Si  Si0  1  0.66915417  0.63925427  0.58658862  1
  Si  Si1  1  0.97338117  0.63866270  0.08490066  1
  Si  Si2  1  0.62660427  0.66366188  0.91644853  1
  Si  Si3  1  0.03900709  0.37470663  0.91546709  1
  Si  Si4  1  0.33835449  0.96528543  0.91473733  1
  Si  Si5  1  0.62260440  0.96752618  0.41786372  1
  P  P0  1  0.29736762  0.99092235  0.25474327  1
  P  P1  1  0.69843494  0.70492058  0.25203628  1
  P  P2  1  0.00572194  0.30382332  0.25193714  1
  P  P3  1  0.28434108  0.29442259  0.75284259  1
  P  P4  1  0.01046831  0.71499659  0.75223106  1
  P  P5  1  0.70966903  0.99096523  0.74910753  1
  P  P6  1  0.96635191  0.33116874  0.58548966  1
  P  P7  1  0.36594156  0.03302403  0.58054364  1
  P  P8  1  0.66840032  0.02909807  0.08578313  1
  P  P9  1  0.36237775  0.33555217  0.08025382  1
  P  P10  1  0.34534441  0.38359552  0.41828835  1
  P  P11  1  0.03911055  0.65351757  0.41713066  1
  O  O0  1  0.22974747  0.00528584  0.31408526  1
  O  O1  1  0.78945955  0.78066338  0.30994007  1
  O  O2  1  0.98878738  0.21062316  0.30940282  1
  O  O3  1  0.19126132  0.19682390  0.80934327  1
  O  O4  1  0.00494445  0.80873328  0.80820473  1
  O  O5  1  0.81790735  0.99444612  0.80229025  1
  O  O6  1  0.79801887  0.97896481  0.69172968  1
  O  O7  1  0.17763119  0.19618207  0.69809464  1
  O  O8  1  0.01750636  0.81975028  0.69688357  1
  O  O9  1  0.80099385  0.82555731  0.19888641  1
  O  O10  1  0.01650603  0.20418986  0.19721653  1
  O  O11  1  0.17717932  0.98130882  0.20304412  1
  O  O12  1  0.89943849  0.35827684  0.64307508  1
  O  O13  1  0.48432919  0.09797065  0.63285753  1
  O  O14  1  0.63937121  0.54282225  0.64755896  1
  O  O15  1  0.90789531  0.53120382  0.14455037  1
  O  O16  1  0.63724757  0.08428144  0.14490626  1
  O  O17  1  0.47353899  0.37527804  0.13360543  1
  O  O18  1  0.44500626  0.30764245  0.02466793  1
  O  O19  1  0.83833338  0.53552137  0.03030820  1
  O  O20  1  0.69033920  0.15651486  0.03611726  1
  O  O21  1  0.45496328  0.14718007  0.52526610  1
  O  O22  1  0.68702062  0.53457417  0.52936432  1
  O  O23  1  0.83909676  0.30269987  0.53314176  1
  O  O24  1  0.54105695  0.68969951  0.97498077  1
  O  O25  1  0.16141129  0.46459400  0.97201044  1
  O  O26  1  0.29845734  0.83896090  0.97009380  1
  O  O27  1  0.51584586  0.84928446  0.47331738  1
  O  O28  1  0.32722060  0.47388483  0.47205002  1
  O  O29  1  0.14803389  0.66351229  0.46942838  1
  O  O30  1  0.12130219  0.63262416  0.35951492  1
  O  O31  1  0.50780119  0.87024686  0.35792386  1
  O  O32  1  0.36115010  0.48923492  0.36195028  1
  O  O33  1  0.12778951  0.49718036  0.85774835  1
  O  O34  1  0.36608806  0.87558762  0.85704205  1
  O  O35  1  0.50434667  0.63337123  0.85893639  1
  O  O36  1  0.01932211  0.80977585  0.41680363  1
  O  O37  1  0.80878416  0.98773902  0.42007046  1
  O  O38  1  0.19372407  0.20495333  0.41689798  1
  O  O39  1  0.02283174  0.18936306  0.91055750  1
  O  O40  1  0.16946898  0.98481433  0.91029039  1
  O  O41  1  0.82030322  0.82196853  0.91098901  1
  O  O42  1  0.97577406  0.16586991  0.58680806  1
  O  O43  1  0.19476475  0.02657857  0.58766142  1
  O  O44  1  0.84012111  0.82982016  0.58620149  1
  O  O45  1  0.97966959  0.82248252  0.09081036  1
  O  O46  1  0.83911642  0.02563531  0.08778726  1
  O  O47  1  0.18154012  0.17802367  0.08850940  1
  O  O48  1  0.69984784  0.15173003  0.75061280  1
  O  O49  1  0.46307120  0.32241153  0.75376371  1
  O  O50  1  0.85136529  0.53946123  0.75230430  1
  O  O51  1  0.67706586  0.53064216  0.24463263  1
  O  O52  1  0.84947924  0.32486530  0.24731118  1
  O  O53  1  0.47924158  0.13188608  0.24690227  1
  O  O54  1  0.64159610  0.49279346  0.92327994  1
  O  O55  1  0.85573415  0.36142113  0.92496157  1
  O  O56  1  0.49870977  0.15329132  0.92361773  1
  O  O57  1  0.63478599  0.15326793  0.42151662  1
  O  O58  1  0.51283965  0.37818081  0.42188592  1
  O  O59  1  0.86167195  0.49109001  0.42251984  1
  O  O60  1  0.33558481  0.48947046  0.07275138  1
  O  O61  1  0.15931999  0.65945181  0.07346996  1
  O  O62  1  0.52576740  0.84662950  0.07352346  1
  O  O63  1  0.32779683  0.85044183  0.57028191  1
  O  O64  1  0.51118288  0.67738919  0.57725427  1
  O  O65  1  0.14306846  0.48048002  0.57291915  1
  O  O66  1  0.29179570  0.81564508  0.25184543  1
  O  O67  1  0.52487765  0.70264806  0.25188347  1
  O  O68  1  0.16881962  0.48194356  0.25198807  1
  O  O69  1  0.28952526  0.46856649  0.75210660  1
  O  O70  1  0.17018677  0.69598918  0.75156918  1
  O  O71  1  0.53590597  0.82414788  0.75185941  1
loop_
_geom_bond_atom_site_label_1
_geom_bond_atom_site_label_2
_geom_bond_distance
_geom_bond_site_symmetry_2
Na0 O44 2.425735 1_555
Na0 O37 2.516547 1_555
Na0 O43 2.567448 1_665
Na0 O42 2.568891 1_565
Na0 O36 2.636957 1_655
Na0 O38 2.673854 1_665
Na1 O41 2.570174 1_555
Na1 O45 2.577781 1_556
Na1 O46 2.582658 1_566
Na1 O40 2.586248 1_655
Na1 O39 2.606996 1_665
Na1 O47 2.629059 1_666
Na2 O56 2.478179 1_555
Na2 O48 2.485334 1_555
Na2 O49 2.533775 1_555
Na2 O55 2.698855 1_555
Na2 O50 2.734337 1_555
Na2 O54 2.741348 1_555
Na3 O53 2.409907 1_555
Na3 O51 2.472180 1_555
Na3 O52 2.512812 1_555
Na3 O57 2.733095 1_555
Na3 O58 2.734038 1_555
Na3 O59 2.875354 1_555
Na4 O61 2.471756 1_555
Na4 O66 2.570961 1_555
Na4 O68 2.587242 1_555
Na4 O60 2.619966 1_555
Na4 O62 2.660096 1_555
Na4 O67 2.672810 1_555
Na5 O70 2.518022 1_555
Na5 O69 2.548757 1_555
Na5 O64 2.596192 1_555
Na5 O71 2.615024 1_555
Na5 O65 2.694057 1_555
Na5 O63 2.765851 1_555
Na6 O53 2.320893 1_555
Na6 O16 2.325772 1_555
Na6 O52 2.492279 1_555
Na6 O67 2.508371 1_545
Na6 O66 2.874489 1_545
Na7 O15 2.256334 1_555
Na7 O52 2.389409 1_555
Na7 O66 2.483021 1_655
Na7 O51 2.505441 1_555
Na7 O68 2.618938 1_655
Na7 O11 2.950815 1_655
Na7 O30 3.016096 1_655
Na8 O14 2.259898 1_555
Na8 O49 2.374856 1_555
Na8 O71 2.463234 1_555
Na8 O50 2.467562 1_555
Na8 O69 2.732064 1_555
Na8 O35 2.936331 1_555
Na9 O48 2.402816 1_555
Na9 O69 2.422667 1_655
Na9 O50 2.455631 1_555
Na9 O12 2.470587 1_555
Na9 O70 2.593952 1_655
Na9 O33 2.802134 1_655
Na10 O64 2.374824 1_555
Na10 O42 2.482832 1_565
Na10 O44 2.545926 1_555
Na10 O13 2.654628 1_565
Na10 O6 2.678441 1_555
Na10 O63 2.731531 1_555
Na10 O27 2.857702 1_555
Na10 O23 2.867724 1_565
Na11 O62 2.422530 1_555
Na11 O45 2.528754 1_555
Na11 O60 2.613847 1_555
Na11 O24 2.615752 1_554
Na11 O17 2.749215 1_555
Na11 O46 2.754516 1_565
Na11 O19 2.769220 1_555
Na11 O9 3.029537 1_555
Na12 O60 2.497332 1_555
Na12 O61 2.519310 1_555
Na12 O46 2.548799 1_455
Na12 O47 2.590826 1_555
Na12 O15 2.774890 1_455
Na12 O25 2.819109 1_554
Na12 O10 2.848520 1_555
Na12 O20 2.864213 1_455
Na13 O41 2.432367 1_555
Na13 O55 2.467379 1_555
Na13 O40 2.548587 1_655
Na13 O54 2.621942 1_555
Na13 O4 2.770566 1_655
Na13 O19 2.803174 1_556
Na13 O26 2.838159 1_655
Na13 O33 2.951806 1_655
Na14 O54 2.449677 1_555
Na14 O56 2.511911 1_555
Na14 O39 2.512855 1_555
Na14 O40 2.557386 1_545
Na14 O18 2.619167 1_556
Na14 O3 2.734340 1_555
Na14 O25 2.922001 1_555
Na14 O35 2.925222 1_555
Na15 O37 2.349427 1_545
Na15 O2 2.457146 1_555
Na15 O59 2.511092 1_555
Na15 O38 2.570961 1_655
Na15 O57 2.611731 1_555
Na16 O0 2.340521 1_555
Na16 O57 2.459159 1_555
Na16 O38 2.470393 1_555
Na16 O36 2.526210 1_545
Na16 O58 2.780314 1_555
Na16 O21 2.826575 1_555
Na16 O31 2.956973 1_545
Na17 O37 2.440958 1_555
Na17 O36 2.445844 1_655
Na17 O58 2.495657 1_555
Na17 O1 2.539182 1_555
Na17 O59 2.755608 1_555
Na17 O22 2.873382 1_555
Ca0 O2 2.197301 1_455
Ca0 O1 2.208067 1_445
Ca0 O0 2.233746 1_555
Ca0 O37 2.317859 1_445
Ca0 O38 2.336423 1_555
Ca0 O36 2.367468 1_545
Ca1 O14 2.196657 1_555
Ca1 O13 2.224920 1_555
Ca1 O12 2.306988 1_555
Ca1 O49 2.355293 1_555
Ca1 O48 2.406497 1_555
Ca1 O50 2.433543 1_555
Ca2 O17 2.183744 1_555
Ca2 O15 2.231728 1_555
Ca2 O16 2.281852 1_555
Ca2 O53 2.337362 1_555
Ca2 O51 2.337956 1_555
Ca2 O52 2.370926 1_555
Hf0 O5 2.031761 1_555
Hf0 O41 2.042063 1_555
Hf0 O39 2.046521 1_665
Hf0 O40 2.052394 1_655
Hf0 O3 2.086509 1_665
Hf0 O4 2.101822 1_655
Hf1 O44 2.034903 1_455
Hf1 O8 2.039054 1_555
Hf1 O43 2.077926 1_565
Hf1 O7 2.089749 1_565
Hf1 O6 2.111344 1_455
Hf1 O42 2.169669 1_465
Hf2 O45 2.030383 1_445
Hf2 O11 2.044697 1_545
Hf2 O9 2.099547 1_445
Hf2 O47 2.115114 1_555
Hf2 O10 2.123414 1_555
Hf2 O46 2.180897 1_455
Hf3 O55 2.041916 1_555
Hf3 O56 2.059590 1_555
Hf3 O19 2.065162 1_556
Hf3 O54 2.076761 1_555
Hf3 O20 2.125529 1_556
Hf3 O18 2.185296 1_556
Hf4 O22 1.987208 1_555
Hf4 O23 2.062336 1_555
Hf4 O21 2.063740 1_555
Hf4 O57 2.142663 1_555
Hf4 O59 2.163239 1_555
Hf4 O58 2.178159 1_555
Hf5 O26 1.962456 1_554
Hf5 O25 2.011100 1_554
Hf5 O24 2.035020 1_554
Hf5 O61 2.048542 1_555
Hf5 O62 2.159304 1_555
Hf5 O60 2.168232 1_555
Hf6 O27 1.990963 1_555
Hf6 O64 2.009910 1_555
Hf6 O28 2.052080 1_555
Hf6 O63 2.065735 1_555
Hf6 O29 2.072413 1_555
Hf6 O65 2.090304 1_555
Hf7 O31 2.006834 1_555
Hf7 O32 2.073182 1_555
Hf7 O67 2.105018 1_555
Hf7 O30 2.122935 1_555
Hf7 O66 2.127967 1_555
Hf7 O68 2.139879 1_555
Hf8 O34 1.962310 1_555
Hf8 O35 2.017224 1_555
Hf8 O33 2.029570 1_555
Hf8 O70 2.179595 1_555
Hf8 O71 2.188082 1_555
Hf8 O69 2.247394 1_555
O0 P0 1.516172 1_545
O1 P1 1.524436 1_555
O2 P2 1.523129 1_655
O3 P3 1.551373 1_555
O4 P4 1.550560 1_555
O5 P5 1.550980 1_555
O6 P5 1.566875 1_555
O7 P3 1.558616 1_555
O8 P4 1.562140 1_555
O9 P1 1.587339 1_555
O10 P2 1.575932 1_555
O11 P0 1.579795 1_555
O12 P6 1.516979 1_555
O13 P7 1.513800 1_555
O14 Si0 1.589531 1_555
O15 Si1 1.602936 1_555
O16 P8 1.511979 1_555
O17 P9 1.503768 1_555
O18 P9 1.558151 1_555
O19 Si1 1.669646 1_555
O20 P8 1.561987 1_555
O21 P7 1.574296 1_555
O22 Si0 1.673221 1_555
O23 P6 1.590668 1_555
O24 Si2 1.620855 1_555
O25 Si3 1.629979 1_555
O26 Si4 1.621117 1_555
O27 Si5 1.628792 1_555
O28 P10 1.531436 1_555
O29 P11 1.522372 1_555
O30 P11 1.568848 1_555
O31 Si5 1.677018 1_555
O32 P10 1.565652 1_555
O33 Si3 1.649975 1_555
O34 Si4 1.634445 1_555
O35 Si2 1.649150 1_555
O36 P11 1.534296 1_555
O37 Si5 1.621874 1_555
O38 P10 1.529392 1_555
O39 Si3 1.637264 1_555
O40 Si4 1.647930 1_555
O41 Si2 1.641220 1_555
O42 P6 1.563694 1_555
O43 P7 1.548592 1_555
O44 Si0 1.664337 1_555
O45 Si1 1.666038 1_555
O46 P8 1.581293 1_555
O47 P9 1.572145 1_555
O48 P5 1.524297 1_545
O49 P3 1.525543 1_555
O50 P4 1.539261 1_655
O51 P1 1.521846 1_555
O52 P2 1.541291 1_655
O53 P0 1.524178 1_545
O54 Si2 1.649736 1_555
O55 Si3 1.636408 1_655
O56 Si4 1.624551 1_545
O57 Si5 1.655280 1_545
O58 P10 1.562542 1_555
O59 P11 1.566309 1_655
O60 P9 1.560530 1_555
O61 Si1 1.637788 1_455
O62 P8 1.549156 1_565
O63 P7 1.550084 1_565
O64 Si0 1.664526 1_555
O65 P6 1.535804 1_455
O66 P0 1.586563 1_555
O67 P1 1.580203 1_555
O68 P2 1.568381 1_555
O69 P3 1.576431 1_555
O70 P4 1.558679 1_555
O71 P5 1.562642 1_555
