# generated using pymatgen
data_Ba2LaMgTa(CuO4)2
_symmetry_space_group_name_H-M   'P 1'
_cell_length_a   4.09791960
_cell_length_b   4.09793360
_cell_length_c   13.61664100
_cell_angle_alpha   90.00069572
_cell_angle_beta   89.99919497
_cell_angle_gamma   89.93780962
_symmetry_Int_Tables_number   1
_chemical_formula_structural   Ba2LaMgTa(CuO4)2
_chemical_formula_sum   'Ba2 La1 Mg1 Ta1 Cu2 O8'
_cell_volume   228.66415092
_cell_formula_units_Z   1
loop_
 _symmetry_equiv_pos_site_id
 _symmetry_equiv_pos_as_xyz
  1  'x, y, z'
loop_
 _atom_site_type_symbol
 _atom_site_label
 _atom_site_symmetry_multiplicity
 _atom_site_fract_x
 _atom_site_fract_y
 _atom_site_fract_z
 _atom_site_occupancy
  Ba  Ba0  1  0.50002000  0.50000400  0.24590600  1
  Ba  Ba1  1  0.49998400  0.50001100  0.75407300  1
  La  La0  1  0.50000200  0.50000100  0.49998200  1
  Mg  Mg0  1  0.49999800  0.49999300  0.99999900  1
  Ta  Ta0  1  0.99999700  0.99998700  0.00002200  1
  Cu  Cu0  1  0.00000100  0.00000800  0.61128200  1
  Cu  Cu1  1  0.00000200  0.99999600  0.38868600  1
  O  O0  1  0.99998600  0.00000000  0.14410700  1
  O  O1  1  0.49999800  0.00000200  0.61758400  1
  O  O2  1  0.99999700  0.50000200  0.61757900  1
  O  O3  1  0.00000700  0.50000800  0.38239400  1
  O  O4  1  0.50000800  0.00001000  0.38239500  1
  O  O5  1  0.49999900  0.99998700  0.00002500  1
  O  O6  1  0.00000500  0.99999800  0.85594400  1
  O  O7  1  0.99999500  0.49999100  0.00002400  1
loop_
_geom_bond_atom_site_label_1
_geom_bond_atom_site_label_2
_geom_bond_distance
_geom_bond_site_symmetry_2
Ba0 O3 2.766257 1_655
Ba0 O4 2.766290 1_555
Ba0 O4 2.766293 1_565
Ba0 O3 2.766297 1_555
Ba0 O0 3.210635 1_555
Ba0 O0 3.210838 1_465
Ba0 O0 3.213473 1_565
Ba0 O0 3.213675 1_455
Ba1 O1 2.766281 1_565
Ba1 O1 2.766302 1_555
Ba1 O2 2.766312 1_455
Ba1 O2 2.766352 1_555
Ba1 O6 3.211048 1_555
Ba1 O6 3.211272 1_645
Ba1 O6 3.213974 1_545
Ba1 O6 3.214019 1_655
La0 O4 2.600324 1_555
La0 O3 2.600369 1_655
La0 O3 2.600373 1_555
La0 O4 2.600412 1_565
La0 O2 2.600445 1_455
La0 O2 2.600448 1_555
La0 O1 2.600482 1_565
La0 O1 2.600506 1_555
Mg0 O5 2.048942 1_556
Mg0 O7 2.048948 1_556
Mg0 O7 2.048972 1_456
Mg0 O5 2.048991 1_546
Cu0 O2 2.050734 1_455
Cu0 O1 2.050745 1_555
Cu0 O1 2.050767 1_455
Cu0 O2 2.050786 1_445
Cu1 O3 2.050707 1_555
Cu1 O4 2.050726 1_465
Cu1 O4 2.050773 1_565
Cu1 O3 2.050807 1_565
O0 Ta0 1.961954 1_545
O5 Ta0 2.048952 1_555
O5 Ta0 2.048968 1_455
O6 Ta0 1.961858 1_456
O7 Ta0 2.048950 1_555
O7 Ta0 2.048983 1_545
