# generated using pymatgen
data_U(FeSi)2
_symmetry_space_group_name_H-M   'P 1'
_cell_length_a   3.96590218
_cell_length_b   3.96590252
_cell_length_c   5.40398754
_cell_angle_alpha   111.52714538
_cell_angle_beta   111.52716470
_cell_angle_gamma   90.00000487
_symmetry_Int_Tables_number   1
_chemical_formula_structural   U(FeSi)2
_chemical_formula_sum   'U1 Fe2 Si2'
_cell_volume   72.65574717
_cell_formula_units_Z   1
loop_
 _symmetry_equiv_pos_site_id
 _symmetry_equiv_pos_as_xyz
  1  'x, y, z'
loop_
 _atom_site_type_symbol
 _atom_site_label
 _atom_site_symmetry_multiplicity
 _atom_site_fract_x
 _atom_site_fract_y
 _atom_site_fract_z
 _atom_site_occupancy
  U  U0  1  -0.00000000  -0.00000000  -0.00000000  1
  Fe  Fe0  1  0.75000000  0.25000000  0.50000000  1
  Fe  Fe1  1  0.25000000  0.75000000  0.50000000  1
  Si  Si0  1  0.63287234  0.63287234  0.26574368  1
  Si  Si1  1  0.36712766  0.36712766  0.73425632  1
loop_
_geom_bond_atom_site_label_1
_geom_bond_atom_site_label_2
_geom_bond_distance
_geom_bond_site_symmetry_2
Fe0 Si1 2.259000 1_655
Fe0 Si0 2.259000 1_545
Fe0 Si0 2.259003 1_555
Fe0 Si1 2.259004 1_555
Fe0 U0 3.044145 1_656
Fe0 U0 3.044145 1_555
Fe0 U0 3.044145 1_655
Fe0 U0 3.044145 1_666
Fe1 Si0 2.259000 1_455
Fe1 Si1 2.259000 1_565
Fe1 Si1 2.259003 1_555
Fe1 Si0 2.259004 1_555
Fe1 U0 3.044145 1_565
Fe1 U0 3.044145 1_666
Fe1 U0 3.044145 1_566
Fe1 U0 3.044145 1_555
Si0 Si1 2.455155 1_554
Si0 U0 3.061229 1_665
Si0 U0 3.061231 1_565
Si0 U0 3.061232 1_655
Si0 U0 3.061234 1_555
Si1 U0 3.061229 1_556
Si1 U0 3.061231 1_656
Si1 U0 3.061232 1_566
Si1 U0 3.061234 1_666
