# generated using pymatgen
data_Ca2BHN2
_symmetry_space_group_name_H-M   'P 1'
_cell_length_a   3.66164337
_cell_length_b   9.18425691
_cell_length_c   9.97060001
_cell_angle_alpha   90.00000000
_cell_angle_beta   90.00000000
_cell_angle_gamma   90.00000000
_symmetry_Int_Tables_number   1
_chemical_formula_structural   Ca2BHN2
_chemical_formula_sum   'Ca8 B4 H4 N8'
_cell_volume   335.30602805
_cell_formula_units_Z   4
loop_
 _symmetry_equiv_pos_site_id
 _symmetry_equiv_pos_as_xyz
  1  'x, y, z'
loop_
 _atom_site_type_symbol
 _atom_site_label
 _atom_site_symmetry_multiplicity
 _atom_site_fract_x
 _atom_site_fract_y
 _atom_site_fract_z
 _atom_site_occupancy
  Ca  Ca0  1  0.25000000  0.67653721  0.52407289  1
  Ca  Ca1  1  0.75000000  0.32346279  0.47592711  1
  Ca  Ca2  1  0.25000000  0.17653721  0.97592711  1
  Ca  Ca3  1  0.75000000  0.82346279  0.02407289  1
  Ca  Ca4  1  0.25000000  0.52623173  0.15574515  1
  Ca  Ca5  1  0.75000000  0.47376827  0.84425485  1
  Ca  Ca6  1  0.25000000  0.02623173  0.34425485  1
  Ca  Ca7  1  0.75000000  0.97376827  0.65574515  1
  B  B0  1  0.25000000  0.73435894  0.82359471  1
  B  B1  1  0.75000000  0.26564106  0.17640529  1
  B  B2  1  0.25000000  0.23435894  0.67640529  1
  B  B3  1  0.75000000  0.76564106  0.32359471  1
  H  H0  1  0.25000000  0.95913805  0.10371354  1
  H  H1  1  0.75000000  0.04086195  0.89628646  1
  H  H2  1  0.25000000  0.45913805  0.39628646  1
  H  H3  1  0.75000000  0.54086195  0.60371354  1
  N  N0  1  0.75000000  0.67902531  0.21747444  1
  N  N1  1  0.25000000  0.32097469  0.78252556  1
  N  N2  1  0.75000000  0.17902531  0.28252556  1
  N  N3  1  0.25000000  0.82097469  0.71747444  1
  N  N4  1  0.75000000  0.84770417  0.43559704  1
  N  N5  1  0.25000000  0.15229583  0.56440296  1
  N  N6  1  0.75000000  0.34770417  0.06440296  1
  N  N7  1  0.25000000  0.65229583  0.93559704  1
loop_
_geom_bond_atom_site_label_1
_geom_bond_atom_site_label_2
_geom_bond_distance
_geom_bond_site_symmetry_2
Ca0 N3 2.340554 1_555
Ca0 H3 2.352691 1_455
Ca0 H3 2.352691 1_555
Ca0 H2 2.368535 1_555
Ca0 N4 2.569324 1_555
Ca0 N4 2.569324 1_455
Ca1 N2 2.340554 1_555
Ca1 H2 2.352691 1_555
Ca1 H2 2.352691 1_655
Ca1 H3 2.368535 1_555
Ca1 N5 2.569324 1_555
Ca1 N5 2.569324 1_655
Ca2 N1 2.340554 1_555
Ca2 H1 2.352691 1_455
Ca2 H1 2.352691 1_555
Ca2 H0 2.368535 1_546
Ca2 N6 2.569324 1_456
Ca2 N6 2.569324 1_556
Ca3 N0 2.340554 1_555
Ca3 H0 2.352691 1_655
Ca3 H0 2.352691 1_555
Ca3 H1 2.368535 1_564
Ca3 N7 2.569324 1_654
Ca3 N7 2.569324 1_554
Ca4 N0 2.387459 1_555
Ca4 N0 2.387459 1_455
Ca4 H2 2.476237 1_555
Ca4 N7 2.481648 1_554
Ca4 N6 2.621026 1_555
Ca4 N6 2.621026 1_455
Ca5 N1 2.387459 1_655
Ca5 N1 2.387459 1_555
Ca5 H3 2.476237 1_555
Ca5 N6 2.481648 1_556
Ca5 N7 2.621026 1_555
Ca5 N7 2.621026 1_655
Ca6 N2 2.387459 1_455
Ca6 N2 2.387459 1_555
Ca6 H0 2.476237 1_545
Ca6 N5 2.481648 1_555
Ca6 N4 2.621026 1_445
Ca6 N4 2.621026 1_545
Ca7 N3 2.387459 1_655
Ca7 N3 2.387459 1_555
Ca7 H1 2.476237 1_565
Ca7 N4 2.481648 1_555
Ca7 N5 2.621026 1_665
Ca7 N5 2.621026 1_565
B0 N3 1.323768 1_555
B0 N7 1.347269 1_555
B1 N2 1.323768 1_555
B1 N6 1.347269 1_555
B2 N1 1.323768 1_555
B2 N5 1.347269 1_555
B3 N0 1.323768 1_555
B3 N4 1.347269 1_555
