# generated using pymatgen
data_TmInNi4
_symmetry_space_group_name_H-M   'P 1'
_cell_length_a   4.90490102
_cell_length_b   4.90490102
_cell_length_c   4.90494139
_cell_angle_alpha   60.00022394
_cell_angle_beta   60.00022394
_cell_angle_gamma   59.99994201
_symmetry_Int_Tables_number   1
_chemical_formula_structural   TmInNi4
_chemical_formula_sum   'Tm1 In1 Ni4'
_cell_volume   83.44121119
_cell_formula_units_Z   1
loop_
 _symmetry_equiv_pos_site_id
 _symmetry_equiv_pos_as_xyz
  1  'x, y, z'
loop_
 _atom_site_type_symbol
 _atom_site_label
 _atom_site_symmetry_multiplicity
 _atom_site_fract_x
 _atom_site_fract_y
 _atom_site_fract_z
 _atom_site_occupancy
  Tm  Tm0  1  0.74999957  0.74999957  0.75000128  1
  In  In0  1  0.00000068  0.00000068  0.99999895  1
  Ni  Ni0  1  0.37415572  0.87753456  0.37415499  1
  Ni  Ni1  1  0.37415472  0.37415472  0.37415499  1
  Ni  Ni2  1  0.87753456  0.37415572  0.37415499  1
  Ni  Ni3  1  0.37415573  0.37415573  0.87753380  1
loop_
_geom_bond_atom_site_label_1
_geom_bond_atom_site_label_2
_geom_bond_distance
_geom_bond_site_symmetry_2
In0 Ni3 2.874003 1_455
In0 Ni3 2.874003 1_545
In0 Ni3 2.874005 1_555
In0 Ni1 2.874013 1_546
In0 Ni1 2.874013 1_456
In0 Ni0 2.874014 1_446
In0 Ni2 2.874014 1_446
In0 Ni0 2.874015 1_546
In0 Ni2 2.874015 1_456
In0 Ni1 2.874022 1_555
In0 Ni0 2.874027 1_545
In0 Ni2 2.874027 1_455
In0 Tm0 3.003624 1_545
In0 Tm0 3.003624 1_455
In0 Tm0 3.003631 1_445
In0 Tm0 3.003671 1_446
Ni0 Ni1 2.435870 1_565
Ni0 Ni2 2.435875 1_465
Ni0 Ni3 2.435896 1_564
Ni0 Ni2 2.469021 1_555
Ni0 Ni1 2.469031 1_555
Ni0 Ni3 2.469042 1_555
Ni0 Tm0 2.877548 1_555
Ni0 Tm0 2.877551 1_455
Ni0 Tm0 2.877558 1_554
Ni1 Ni2 2.435870 1_455
Ni1 Ni3 2.435893 1_554
Ni1 Ni2 2.469031 1_555
Ni1 Ni3 2.469049 1_555
Ni1 Tm0 2.877548 1_455
Ni1 Tm0 2.877548 1_545
Ni1 Tm0 2.877559 1_554
Ni2 Ni3 2.435896 1_654
Ni2 Ni3 2.469042 1_555
Ni2 Tm0 2.877548 1_555
Ni2 Tm0 2.877551 1_545
Ni2 Tm0 2.877558 1_554
Ni3 Tm0 2.877535 1_555
Ni3 Tm0 2.877537 1_455
Ni3 Tm0 2.877537 1_545
