# generated using pymatgen
data_Na3Y2Hf2P5SO24
_symmetry_space_group_name_H-M   'P 1'
_cell_length_a   9.04787545
_cell_length_b   9.03754483
_cell_length_c   23.50553588
_cell_angle_alpha   90.07520039
_cell_angle_beta   89.94734233
_cell_angle_gamma   119.72145444
_symmetry_Int_Tables_number   1
_chemical_formula_structural   Na3Y2Hf2P5SO24
_chemical_formula_sum   'Na9 Y6 Hf6 P15 S3 O72'
_cell_volume   1669.20479571
_cell_formula_units_Z   3
loop_
 _symmetry_equiv_pos_site_id
 _symmetry_equiv_pos_as_xyz
  1  'x, y, z'
loop_
 _atom_site_type_symbol
 _atom_site_label
 _atom_site_symmetry_multiplicity
 _atom_site_fract_x
 _atom_site_fract_y
 _atom_site_fract_z
 _atom_site_occupancy
  Na  Na0  1  0.00407600  0.36366300  0.75094414  1
  Na  Na1  1  0.66830896  0.96268353  0.58344690  1
  Na  Na2  1  0.03869728  0.33258513  0.08363560  1
  Na  Na3  1  0.00706068  0.99284638  0.50068759  1
  Na  Na4  1  0.00783494  0.99492175  0.99987239  1
  Na  Na5  1  0.65785865  0.32601474  0.83399728  1
  Na  Na6  1  0.67923861  0.33705273  0.33313919  1
  Na  Na7  1  0.34595165  0.66941438  0.16729850  1
  Na  Na8  1  0.33441242  0.66724912  0.66681375  1
  Y  Y0  1  0.00892621  0.99696018  0.64612208  1
  Y  Y1  1  0.99506196  0.99231914  0.14613075  1
  Y  Y2  1  0.33360725  0.67333468  0.01794974  1
  Y  Y3  1  0.32433147  0.66583175  0.51784449  1
  Y  Y4  1  0.33015206  0.66608563  0.31710749  1
  Y  Y5  1  0.33606801  0.67702584  0.81805128  1
  Hf  Hf0  1  0.98332456  0.99206947  0.34987392  1
  Hf  Hf1  1  0.00667861  0.00474843  0.84922491  1
  Hf  Hf2  1  0.66160049  0.33655511  0.68669426  1
  Hf  Hf3  1  0.67033310  0.33850966  0.18666978  1
  Hf  Hf4  1  0.66423165  0.32766460  0.98167260  1
  Hf  Hf5  1  0.67364170  0.33732255  0.48146883  1
  P  P0  1  0.70523362  0.70149087  0.24963988  1
  P  P1  1  0.99521949  0.29130328  0.24834087  1
  P  P2  1  0.29530722  0.29218519  0.75017874  1
  P  P3  1  0.99351577  0.70185281  0.75057327  1
  P  P4  1  0.70963793  0.00386021  0.74787065  1
  P  P5  1  0.95215068  0.33508536  0.58526735  1
  P  P6  1  0.38586368  0.05241545  0.58224375  1
  P  P7  1  0.66382173  0.61885822  0.58291496  1
  P  P8  1  0.94919912  0.61577686  0.08239544  1
  P  P9  1  0.66417441  0.04824713  0.08454159  1
  P  P10  1  0.38250608  0.33482474  0.08383935  1
  P  P11  1  0.02895742  0.36122734  0.91670160  1
  P  P12  1  0.33182664  0.97262209  0.91710172  1
  P  P13  1  0.63427905  0.96919786  0.41812044  1
  P  P14  1  0.02940919  0.66934991  0.41599447  1
  S  S0  1  0.29622660  0.00713264  0.25061807  1
  S  S1  1  0.63937489  0.66829269  0.91651872  1
  S  S2  1  0.33117997  0.35986537  0.41625154  1
  O  O0  1  0.20925235  0.02711005  0.30150685  1
  O  O1  1  0.82080498  0.79406022  0.30270425  1
  O  O2  1  0.97591209  0.17300561  0.30011054  1
  O  O3  1  0.20498864  0.17677177  0.80301778  1
  O  O4  1  0.97400887  0.79466314  0.80343283  1
  O  O5  1  0.83091796  0.03029265  0.79940161  1
  O  O6  1  0.78729855  0.98270450  0.69264496  1
  O  O7  1  0.18446827  0.21416632  0.69771550  1
  O  O8  1  0.02086729  0.80589072  0.69716528  1
  O  O9  1  0.78893831  0.80679703  0.19677825  1
  O  O10  1  0.01967819  0.21467676  0.19325871  1
  O  O11  1  0.19660365  0.98387224  0.19899312  1
  O  O12  1  0.86226707  0.34927797  0.64003356  1
  O  O13  1  0.49281797  0.14332171  0.63632142  1
  O  O14  1  0.65156181  0.51337678  0.63682285  1
  O  O15  1  0.85877347  0.50792664  0.13654833  1
  O  O16  1  0.65116114  0.14202610  0.13793737  1
  O  O17  1  0.48870922  0.34809988  0.13759330  1
  O  O18  1  0.47531884  0.32143010  0.03031727  1
  O  O19  1  0.84259434  0.52272532  0.02938292  1
  O  O20  1  0.68148449  0.15684452  0.03083257  1
  O  O21  1  0.47963588  0.15805334  0.52909426  1
  O  O22  1  0.67727344  0.52523600  0.52969738  1
  O  O23  1  0.84167732  0.31984297  0.53224476  1
  O  O24  1  0.56251460  0.69828353  0.96730243  1
  O  O25  1  0.13910812  0.43951790  0.97025751  1
  O  O26  1  0.30111335  0.86120996  0.96962986  1
  O  O27  1  0.56295558  0.86297564  0.47268686  1
  O  O28  1  0.30014623  0.43572488  0.46717439  1
  O  O29  1  0.13914456  0.70089922  0.46917441  1
  O  O30  1  0.10667855  0.63245572  0.36398012  1
  O  O31  1  0.52135369  0.88537716  0.36660945  1
  O  O32  1  0.36326709  0.46783703  0.36602214  1
  O  O33  1  0.10841685  0.47035387  0.86336112  1
  O  O34  1  0.36945985  0.89752989  0.86455358  1
  O  O35  1  0.53277173  0.63679979  0.86598855  1
  O  O36  1  0.01070931  0.83012420  0.40562619  1
  O  O37  1  0.81661144  0.99259024  0.40707133  1
  O  O38  1  0.18002272  0.18796143  0.40714904  1
  O  O39  1  0.00523186  0.17922419  0.90681390  1
  O  O40  1  0.17078314  0.99037624  0.90715272  1
  O  O41  1  0.81085876  0.82047702  0.90816551  1
  O  O42  1  0.95606156  0.16637444  0.58604582  1
  O  O43  1  0.20891318  0.03296694  0.58359564  1
  O  O44  1  0.82218785  0.79818904  0.58451900  1
  O  O45  1  0.97009165  0.79335287  0.08452017  1
  O  O46  1  0.83317272  0.04438916  0.08589049  1
  O  O47  1  0.20304476  0.17609237  0.08588372  1
  O  O48  1  0.70280751  0.17479293  0.74421795  1
  O  O49  1  0.47271497  0.30660333  0.74411849  1
  O  O50  1  0.83036505  0.52122981  0.74519577  1
  O  O51  1  0.69297681  0.52320778  0.24473921  1
  O  O52  1  0.82775789  0.30229277  0.24426183  1
  O  O53  1  0.46684503  0.16423392  0.24587501  1
  O  O54  1  0.66001198  0.51578832  0.92447098  1
  O  O55  1  0.84849669  0.34114311  0.92560556  1
  O  O56  1  0.48803623  0.15417771  0.92611006  1
  O  O57  1  0.65849614  0.15144150  0.42591689  1
  O  O58  1  0.48402472  0.33981458  0.42440424  1
  O  O59  1  0.84777161  0.51251049  0.42547484  1
  O  O60  1  0.36070245  0.49384022  0.08073267  1
  O  O61  1  0.12197910  0.61949735  0.07999334  1
  O  O62  1  0.50787005  0.87138805  0.08104316  1
  O  O63  1  0.38062623  0.87841939  0.58020460  1
  O  O64  1  0.50454108  0.63932110  0.58039819  1
  O  O65  1  0.12850405  0.49225424  0.58134522  1
  O  O66  1  0.31947841  0.85761377  0.25621696  1
  O  O67  1  0.52796993  0.67978128  0.25719879  1
  O  O68  1  0.14881808  0.46933716  0.25672162  1
  O  O69  1  0.31098372  0.46789690  0.75878467  1
  O  O70  1  0.14369321  0.66708734  0.75692553  1
  O  O71  1  0.53225002  0.85129207  0.75622291  1
loop_
_geom_bond_atom_site_label_1
_geom_bond_atom_site_label_2
_geom_bond_distance
_geom_bond_site_symmetry_2
Na0 O70 2.387408 1_555
Na0 O48 2.399021 1_455
Na0 O69 2.457441 1_555
Na0 O50 2.595485 1_455
Na0 O33 2.810455 1_555
Na0 O5 2.855604 1_455
Na0 O7 2.869359 1_555
Na0 O12 2.880893 1_455
Na1 O63 2.322850 1_555
Na1 O42 2.327792 1_565
Na1 O44 2.490308 1_555
Na1 O64 2.539103 1_555
Na1 O6 2.755135 1_555
Na1 O27 2.765032 1_555
Na2 O61 2.315545 1_555
Na2 O46 2.332868 1_455
Na2 O47 2.509961 1_555
Na2 O60 2.531117 1_555
Na2 O10 2.762124 1_555
Na2 O25 2.827251 1_554
Na3 O43 2.571546 1_565
Na3 O44 2.619329 1_455
Na3 O36 2.682538 1_555
Na3 O42 2.721319 1_465
Na3 O38 2.767709 1_565
Na3 O37 2.795441 1_455
Na4 O45 2.604890 1_456
Na4 O40 2.641810 1_555
Na4 O47 2.649196 1_566
Na4 O46 2.734533 1_466
Na4 O41 2.742368 1_455
Na4 O39 2.758287 1_565
Na5 O49 2.648461 1_555
Na5 O48 2.651149 1_555
Na5 O56 2.664063 1_555
Na5 O50 2.679350 1_555
Na5 O55 2.720807 1_555
Na5 O54 2.724305 1_555
Na6 O52 2.584671 1_555
Na6 O51 2.639097 1_555
Na6 O59 2.673904 1_555
Na6 O57 2.702158 1_555
Na6 O53 2.713386 1_555
Na6 O58 2.785494 1_555
Na7 O60 2.622393 1_555
Na7 O62 2.634667 1_555
Na7 O67 2.653166 1_555
Na7 O61 2.760468 1_555
Na7 O68 2.770238 1_555
Na7 O66 2.777126 1_555
Na8 O64 2.633869 1_555
Na8 O65 2.661781 1_555
Na8 O63 2.679344 1_555
Na8 O71 2.726350 1_555
Na8 O70 2.730376 1_555
Na8 O69 2.755916 1_555
Hf0 O1 1.995622 1_555
Hf0 O37 2.021422 1_555
Hf0 O2 2.039750 1_565
Hf0 O36 2.070282 1_655
Hf0 O0 2.219508 1_665
Hf0 O38 2.233390 1_665
Hf1 O3 2.012702 1_555
Hf1 O40 2.066622 1_545
Hf1 O4 2.071125 1_445
Hf1 O5 2.078921 1_455
Hf1 O39 2.081778 1_555
Hf1 O41 2.215349 1_445
Hf2 O14 2.021182 1_555
Hf2 O13 2.034035 1_555
Hf2 O12 2.074187 1_555
Hf2 O49 2.086607 1_555
Hf2 O50 2.116349 1_555
Hf2 O48 2.156636 1_555
Hf3 O15 2.012910 1_555
Hf3 O17 2.045404 1_555
Hf3 O16 2.045734 1_555
Hf3 O51 2.084896 1_555
Hf3 O52 2.106065 1_555
Hf3 O53 2.220999 1_555
Hf4 O20 1.996720 1_556
Hf4 O18 2.033035 1_556
Hf4 O19 2.036403 1_556
Hf4 O56 2.055592 1_555
Hf4 O55 2.079964 1_555
Hf4 O54 2.184112 1_555
Hf5 O23 2.000731 1_555
Hf5 O22 2.027323 1_555
Hf5 O21 2.034827 1_555
Hf5 O59 2.061432 1_555
Hf5 O57 2.076592 1_555
Hf5 O58 2.187623 1_555
O0 S0 1.490389 1_555
O1 P0 1.575225 1_555
O2 P1 1.572308 1_555
O3 P2 1.566748 1_555
O4 P3 1.556322 1_555
O5 P4 1.571658 1_555
O6 P4 1.531752 1_565
O6 Y0 2.230173 1_655
O7 P2 1.523959 1_555
O7 Y0 2.180031 1_545
O8 P3 1.514298 1_455
O8 Y0 2.150277 1_555
O9 P0 1.519840 1_555
O9 Y1 2.146443 1_555
O10 P1 1.534266 1_455
O10 Y1 2.205883 1_445
O11 S0 1.463775 1_565
O11 Y1 2.239970 1_455
O12 P5 1.560794 1_555
O13 P6 1.561531 1_555
O14 P7 1.557164 1_555
O15 P8 1.565340 1_555
O16 P9 1.550266 1_555
O17 P10 1.556194 1_555
O18 P10 1.549527 1_555
O19 P8 1.544490 1_555
O20 P9 1.559505 1_555
O21 P6 1.545990 1_555
O22 P7 1.547433 1_555
O23 P5 1.560996 1_555
O24 S1 1.471910 1_555
O24 Y2 2.300172 1_556
O25 P11 1.542523 1_555
O25 Y2 2.264732 1_556
O26 P12 1.529945 1_555
O26 Y2 2.181759 1_556
O27 P13 1.539658 1_555
O27 Y3 2.269145 1_555
O28 S2 1.472994 1_555
O28 Y3 2.309528 1_555
O29 P14 1.533065 1_555
O29 Y3 2.178920 1_555
O30 P14 1.524227 1_555
O30 Y4 2.186782 1_555
O31 P13 1.521911 1_555
O31 Y4 2.207363 1_555
O32 S2 1.466948 1_555
O32 Y4 2.271605 1_555
O33 P11 1.536250 1_555
O33 Y5 2.247666 1_555
O34 P12 1.525881 1_555
O34 Y5 2.157606 1_555
O35 S1 1.466650 1_555
O35 Y5 2.283782 1_555
O36 P14 1.563335 1_555
O37 P13 1.577103 1_555
O38 S2 1.490873 1_555
O39 P11 1.566728 1_555
O40 P12 1.560811 1_555
O41 S1 1.490543 1_555
O42 P5 1.542715 1_555
O42 Y0 2.302215 1_645
O43 P6 1.521866 1_555
O43 Y0 2.225446 1_545
O44 P7 1.542239 1_555
O44 Y0 2.273014 1_655
O45 P8 1.520779 1_555
O45 Y1 2.229941 1_555
O46 P9 1.547013 1_555
O46 Y1 2.249665 1_545
O47 P10 1.545032 1_555
O47 Y1 2.281952 1_445
O48 P4 1.578816 1_555
O49 P2 1.551145 1_555
O50 P3 1.571681 1_555
O51 P0 1.563338 1_555
O52 P1 1.569812 1_555
O53 S0 1.496054 1_555
O54 S1 1.491758 1_555
O55 P11 1.564718 1_655
O56 P12 1.560396 1_545
O57 P13 1.560691 1_545
O58 S2 1.493684 1_555
O59 P14 1.565249 1_655
O60 P10 1.546271 1_555
O60 Y2 2.295802 1_555
O61 P8 1.547876 1_455
O61 Y2 2.258962 1_555
O62 P9 1.523173 1_565
O62 Y2 2.255700 1_555
O63 P6 1.550228 1_565
O63 Y3 2.263392 1_555
O64 P7 1.542425 1_555
O64 Y3 2.295785 1_555
O65 P5 1.524741 1_455
O65 Y3 2.252414 1_555
O66 S0 1.473075 1_565
O66 Y4 2.286159 1_555
O67 P0 1.526424 1_555
O67 Y4 2.231135 1_555
O68 P1 1.530190 1_455
O68 Y4 2.230065 1_555
O69 P2 1.535792 1_555
O69 Y5 2.265545 1_555
O70 P3 1.546329 1_455
O70 Y5 2.225154 1_555
O71 P4 1.523645 1_565
O71 Y5 2.229921 1_555
