# generated using pymatgen
data_MgHg(SbO3)2
_symmetry_space_group_name_H-M   'P 1'
_cell_length_a   5.58797338
_cell_length_b   5.58797247
_cell_length_c   5.37564481
_cell_angle_alpha   90.17415266
_cell_angle_beta   90.17415197
_cell_angle_gamma   119.70910959
_symmetry_Int_Tables_number   1
_chemical_formula_structural   MgHg(SbO3)2
_chemical_formula_sum   'Mg1 Hg1 Sb2 O6'
_cell_volume   145.78988257
_cell_formula_units_Z   1
loop_
 _symmetry_equiv_pos_site_id
 _symmetry_equiv_pos_as_xyz
  1  'x, y, z'
loop_
 _atom_site_type_symbol
 _atom_site_label
 _atom_site_symmetry_multiplicity
 _atom_site_fract_x
 _atom_site_fract_y
 _atom_site_fract_z
 _atom_site_occupancy
  Mg  Mg0  1  0.66525600  0.33474400  0.00000000  1
  Hg  Hg0  1  0.99916800  0.00083200  0.00000000  1
  Sb  Sb0  1  0.33350400  0.66649600  0.50000000  1
  Sb  Sb1  1  0.66685500  0.33314500  0.50000000  1
  O  O0  1  0.95751200  0.60760900  0.73584600  1
  O  O1  1  0.95846600  0.35007200  0.26588800  1
  O  O2  1  0.39175100  0.35233200  0.73215700  1
  O  O3  1  0.64766800  0.60824900  0.26784300  1
  O  O4  1  0.39239100  0.04248800  0.26415400  1
  O  O5  1  0.64992800  0.04153400  0.73411200  1
loop_
_geom_bond_atom_site_label_1
_geom_bond_atom_site_label_2
_geom_bond_distance
_geom_bond_site_symmetry_2
Mg0 O3 2.134233 1_555
Mg0 O2 2.134233 1_554
Mg0 O4 2.137157 1_555
Mg0 O0 2.137157 1_554
Mg0 O5 2.140263 1_554
Mg0 O1 2.140263 1_555
Hg0 O1 2.515587 1_555
Hg0 O5 2.515587 1_554
Hg0 O0 2.524053 1_544
Hg0 O4 2.524053 1_655
Hg0 O3 2.551282 1_545
Hg0 O2 2.551282 1_654
O0 Sb1 2.025875 1_555
O0 Sb0 2.337403 1_655
O1 Sb1 2.026946 1_555
O1 Sb0 2.323733 1_655
O2 Sb1 2.026429 1_555
O2 Sb0 2.307068 1_555
O3 Sb1 2.026428 1_555
O3 Sb0 2.307068 1_555
O4 Sb1 2.025875 1_555
O4 Sb0 2.337403 1_545
O5 Sb1 2.026946 1_555
O5 Sb0 2.323733 1_545
