# generated using pymatgen
data_MgTi2Cd2O6
_symmetry_space_group_name_H-M   'P 1'
_cell_length_a   6.03696716
_cell_length_b   6.03567369
_cell_length_c   6.03045566
_cell_angle_alpha   54.78640895
_cell_angle_beta   54.79474419
_cell_angle_gamma   54.79242092
_symmetry_Int_Tables_number   1
_chemical_formula_structural   MgTi2Cd2O6
_chemical_formula_sum   'Mg1 Ti2 Cd2 O6'
_cell_volume   136.52820711
_cell_formula_units_Z   1
loop_
 _symmetry_equiv_pos_site_id
 _symmetry_equiv_pos_as_xyz
  1  'x, y, z'
loop_
 _atom_site_type_symbol
 _atom_site_label
 _atom_site_symmetry_multiplicity
 _atom_site_fract_x
 _atom_site_fract_y
 _atom_site_fract_z
 _atom_site_occupancy
  Mg  Mg0  1  0.79147376  0.79058120  0.79162856  1
  Ti  Ti0  1  0.97916382  0.97905680  0.97988123  1
  Ti  Ti1  1  0.16794210  0.16531455  0.16659329  1
  Cd  Cd0  1  0.58555303  0.58536457  0.58546040  1
  Cd  Cd1  1  0.40576028  0.40482665  0.40594136  1
  O  O0  1  0.83805733  0.36543124  0.94463209  1
  O  O1  1  0.36499089  0.94516047  0.83969839  1
  O  O2  1  0.94426709  0.83811876  0.36625353  1
  O  O3  1  0.07785253  0.55985119  0.03180450  1
  O  O4  1  0.03299888  0.07529969  0.56112650  1
  O  O5  1  0.56194029  0.03057787  0.07698015  1
loop_
_geom_bond_atom_site_label_1
_geom_bond_atom_site_label_2
_geom_bond_distance
_geom_bond_site_symmetry_2
Mg0 O2 2.059510 1_555
Mg0 O0 2.061963 1_555
Mg0 O1 2.065161 1_555
Mg0 O5 2.188690 1_566
Mg0 O4 2.192907 1_665
Mg0 O3 2.193390 1_656
Cd0 O0 2.633445 1_555
Cd0 O2 2.635770 1_555
Cd0 O1 2.644076 1_555
Cd0 O5 2.683929 1_565
Cd0 O3 2.686410 1_556
Cd0 O4 2.696445 1_655
Cd1 O1 2.505148 1_545
Cd1 O0 2.506530 1_554
Cd1 O2 2.510800 1_455
O0 Ti0 1.885643 1_545
O0 Ti1 2.377405 1_656
O1 Ti0 1.887175 1_455
O1 Ti1 2.358227 1_566
O2 Ti0 1.884620 1_554
O2 Ti1 2.373008 1_665
O3 Ti1 1.846936 1_555
O3 Ti0 2.101923 1_454
O4 Ti1 1.845079 1_555
O4 Ti0 2.097565 1_445
O5 Ti1 1.845330 1_555
O5 Ti0 2.095244 1_544
