# generated using pymatgen
data_In9Pb4S17
_symmetry_space_group_name_H-M   'P 1'
_cell_length_a   3.90496500
_cell_length_b   15.48829100
_cell_length_c   23.02619300
_cell_angle_alpha   90.00000000
_cell_angle_beta   90.00000000
_cell_angle_gamma   90.00000000
_symmetry_Int_Tables_number   1
_chemical_formula_structural   In9Pb4S17
_chemical_formula_sum   'In18 Pb8 S34'
_cell_volume   1392.65257306
_cell_formula_units_Z   2
loop_
 _symmetry_equiv_pos_site_id
 _symmetry_equiv_pos_as_xyz
  1  'x, y, z'
loop_
 _atom_site_type_symbol
 _atom_site_label
 _atom_site_symmetry_multiplicity
 _atom_site_fract_x
 _atom_site_fract_y
 _atom_site_fract_z
 _atom_site_occupancy
  In  In0  1  0.50000000  0.06704600  0.86410200  1
  In  In1  1  0.50000000  0.93295400  0.13589800  1
  In  In2  1  0.50000000  0.56704600  0.63589800  1
  In  In3  1  0.50000000  0.43295400  0.36410200  1
  In  In4  1  0.50000000  0.26933800  0.61010000  1
  In  In5  1  0.50000000  0.73066200  0.38990000  1
  In  In6  1  0.50000000  0.76933800  0.88990000  1
  In  In7  1  0.50000000  0.23066200  0.11010000  1
  In  In8  1  0.00000000  0.16759300  0.73907200  1
  In  In9  1  0.00000000  0.83240700  0.26092800  1
  In  In10  1  0.00000000  0.66759300  0.76092800  1
  In  In11  1  0.00000000  0.33240700  0.23907200  1
  In  In12  1  0.00000000  0.50000000  0.50000000  1
  In  In13  1  0.00000000  0.00000000  0.00000000  1
  In  In14  1  0.00000000  0.05126200  0.57795400  1
  In  In15  1  0.00000000  0.94873800  0.42204600  1
  In  In16  1  0.00000000  0.55126200  0.92204600  1
  In  In17  1  0.00000000  0.44873800  0.07795400  1
  Pb  Pb0  1  0.50000000  0.29492500  0.93617400  1
  Pb  Pb1  1  0.50000000  0.70507500  0.06382600  1
  Pb  Pb2  1  0.50000000  0.79492500  0.56382600  1
  Pb  Pb3  1  0.50000000  0.20507500  0.43617400  1
  Pb  Pb4  1  0.50000000  0.40816500  0.78110300  1
  Pb  Pb5  1  0.50000000  0.59183500  0.21889700  1
  Pb  Pb6  1  0.50000000  0.90816500  0.71889700  1
  Pb  Pb7  1  0.50000000  0.09183500  0.28110300  1
  S  S0  1  0.50000000  0.06738200  0.06675600  1
  S  S1  1  0.50000000  0.93261800  0.93324400  1
  S  S2  1  0.50000000  0.56738200  0.43324400  1
  S  S3  1  0.50000000  0.43261800  0.56675600  1
  S  S4  1  0.50000000  0.50000000  0.00000000  1
  S  S5  1  0.50000000  0.00000000  0.50000000  1
  S  S6  1  0.00000000  0.21293200  0.54040600  1
  S  S7  1  0.00000000  0.78706800  0.45959400  1
  S  S8  1  0.00000000  0.71293200  0.95959400  1
  S  S9  1  0.00000000  0.28706800  0.04040600  1
  S  S10  1  0.00000000  0.02089400  0.79001800  1
  S  S11  1  0.00000000  0.97910600  0.20998200  1
  S  S12  1  0.00000000  0.52089400  0.70998200  1
  S  S13  1  0.00000000  0.47910600  0.29001800  1
  S  S14  1  0.00000000  0.30849500  0.68208500  1
  S  S15  1  0.50000000  0.10410500  0.65689500  1
  S  S16  1  0.50000000  0.60410500  0.84310500  1
  S  S17  1  0.50000000  0.39589500  0.15689500  1
  S  S18  1  0.50000000  0.21929600  0.80632100  1
  S  S19  1  0.50000000  0.78070400  0.19367900  1
  S  S20  1  0.50000000  0.71929600  0.69367900  1
  S  S21  1  0.50000000  0.28070400  0.30632100  1
  S  S22  1  0.00000000  0.13152100  0.92904300  1
  S  S23  1  0.00000000  0.86847900  0.07095700  1
  S  S24  1  0.00000000  0.63152100  0.57095700  1
  S  S25  1  0.00000000  0.36847900  0.42904300  1
  S  S26  1  0.00000000  0.10208000  0.37265200  1
  S  S27  1  0.00000000  0.89792000  0.62734800  1
  S  S28  1  0.00000000  0.60208000  0.12734800  1
  S  S29  1  0.00000000  0.39792000  0.87265200  1
  S  S30  1  0.00000000  0.19150500  0.18208500  1
  S  S31  1  0.00000000  0.80849500  0.81791500  1
  S  S32  1  0.00000000  0.69150500  0.31791500  1
  S  S33  1  0.50000000  0.89589500  0.34310500  1
loop_
_geom_bond_atom_site_label_1
_geom_bond_atom_site_label_2
_geom_bond_distance
_geom_bond_site_symmetry_2
In0 S1 2.621008 1_545
In0 S22 2.654328 1_555
In0 S22 2.654328 1_655
In0 S10 2.689452 1_555
In0 S10 2.689452 1_655
In0 S18 2.707539 1_555
In1 S0 2.621008 1_565
In1 S23 2.654328 1_555
In1 S23 2.654328 1_655
In1 S11 2.689452 1_655
In1 S11 2.689452 1_555
In1 S19 2.707539 1_555
In2 S3 2.621008 1_555
In2 S24 2.654328 1_555
In2 S24 2.654328 1_655
In2 S12 2.689452 1_555
In2 S12 2.689452 1_655
In2 S20 2.707539 1_555
In3 S2 2.621008 1_555
In3 S25 2.654328 1_555
In3 S25 2.654328 1_655
In3 S13 2.689452 1_655
In3 S13 2.689452 1_555
In3 S21 2.707539 1_555
In4 S14 2.632003 1_555
In4 S14 2.632003 1_655
In4 S6 2.674091 1_555
In4 S6 2.674091 1_655
In4 S3 2.718745 1_555
In4 S15 2.776763 1_555
In5 S32 2.632003 1_655
In5 S32 2.632003 1_555
In5 S7 2.674091 1_555
In5 S7 2.674091 1_655
In5 S2 2.718745 1_555
In5 S33 2.776763 1_555
In6 S31 2.632003 1_555
In6 S31 2.632003 1_655
In6 S8 2.674091 1_655
In6 S8 2.674091 1_555
In6 S1 2.718745 1_555
In6 S16 2.776763 1_555
In7 S30 2.632003 1_555
In7 S30 2.632003 1_655
In7 S9 2.674091 1_555
In7 S9 2.674091 1_655
In7 S0 2.718745 1_555
In7 S17 2.776763 1_555
In8 S14 2.546453 1_555
In8 S10 2.557080 1_555
In8 S18 2.617493 1_555
In8 S18 2.617493 1_455
In8 S15 2.891300 1_455
In8 S15 2.891300 1_555
In9 S32 2.546453 1_555
In9 S11 2.557080 1_555
In9 S19 2.617493 1_455
In9 S19 2.617493 1_555
In9 S33 2.891300 1_555
In9 S33 2.891300 1_455
In10 S31 2.546453 1_555
In10 S12 2.557080 1_555
In10 S20 2.617493 1_455
In10 S20 2.617493 1_555
In10 S16 2.891300 1_455
In10 S16 2.891300 1_555
In11 S30 2.546453 1_555
In11 S13 2.557080 1_555
In11 S21 2.617493 1_555
In11 S21 2.617493 1_455
In11 S17 2.891300 1_555
In11 S17 2.891300 1_455
In12 S24 2.611330 1_555
In12 S25 2.611330 1_555
In12 S3 2.695208 1_555
In12 S3 2.695208 1_455
In12 S2 2.695208 1_555
In12 S2 2.695208 1_455
In13 S23 2.611330 1_545
In13 S22 2.611330 1_554
In13 S0 2.695208 1_555
In13 S0 2.695208 1_455
In13 S1 2.695208 1_444
In13 S1 2.695208 1_544
In14 S27 2.633292 1_545
In14 S6 2.649054 1_555
In14 S5 2.768489 1_455
In14 S5 2.768489 1_555
In14 S15 2.790361 1_455
In14 S15 2.790361 1_555
In15 S26 2.633292 1_565
In15 S7 2.649054 1_555
In15 S5 2.768489 1_465
In15 S5 2.768489 1_565
In15 S33 2.790361 1_555
In15 S33 2.790361 1_455
In16 S29 2.633292 1_555
In16 S8 2.649054 1_555
In16 S4 2.768489 1_556
In16 S4 2.768489 1_456
In16 S16 2.790361 1_455
In16 S16 2.790361 1_555
In17 S28 2.633292 1_555
In17 S9 2.649054 1_555
In17 S4 2.768489 1_455
In17 S4 2.768489 1_555
In17 S17 2.790361 1_455
In17 S17 2.790361 1_555
Pb0 S29 2.914842 1_555
Pb0 S29 2.914842 1_655
Pb0 S9 3.096339 1_556
Pb0 S9 3.096339 1_656
Pb0 S22 3.200679 1_655
Pb0 S22 3.200679 1_555
Pb0 S18 3.211279 1_555
Pb1 S28 2.914842 1_555
Pb1 S28 2.914842 1_655
Pb1 S8 3.096339 1_554
Pb1 S8 3.096339 1_654
Pb1 S23 3.200679 1_555
Pb1 S23 3.200679 1_655
Pb1 S19 3.211279 1_555
Pb2 S27 2.914842 1_555
Pb2 S27 2.914842 1_655
Pb2 S7 3.096339 1_555
Pb2 S7 3.096339 1_655
Pb2 S24 3.200679 1_655
Pb2 S24 3.200679 1_555
Pb2 S20 3.211279 1_555
Pb3 S26 2.914842 1_555
Pb3 S26 2.914842 1_655
Pb3 S6 3.096339 1_655
Pb3 S6 3.096339 1_555
Pb3 S25 3.200679 1_555
Pb3 S25 3.200679 1_655
Pb3 S21 3.211279 1_555
Pb4 S29 2.877696 1_555
Pb4 S29 2.877696 1_655
Pb4 S18 2.982334 1_555
Pb4 S12 3.089096 1_655
Pb4 S12 3.089096 1_555
Pb5 S28 2.877696 1_555
Pb5 S28 2.877696 1_655
Pb5 S19 2.982334 1_555
Pb5 S13 3.089096 1_655
Pb5 S13 3.089096 1_555
Pb6 S27 2.877696 1_655
Pb6 S27 2.877696 1_555
Pb6 S20 2.982334 1_555
Pb6 S10 3.089096 1_565
Pb6 S10 3.089096 1_665
Pb7 S26 2.877696 1_655
Pb7 S26 2.877696 1_555
Pb7 S21 2.982334 1_555
Pb7 S11 3.089096 1_645
Pb7 S11 3.089096 1_545
