# generated using pymatgen
data_Na3MgCo2SbO6
_symmetry_space_group_name_H-M   'P 1'
_cell_length_a   6.09669718
_cell_length_b   6.32398508
_cell_length_c   6.61352824
_cell_angle_alpha   105.23840107
_cell_angle_beta   101.16783792
_cell_angle_gamma   121.40978861
_symmetry_Int_Tables_number   1
_chemical_formula_structural   Na3MgCo2SbO6
_chemical_formula_sum   'Na3 Mg1 Co2 Sb1 O6'
_cell_volume   192.29834718
_cell_formula_units_Z   1
loop_
 _symmetry_equiv_pos_site_id
 _symmetry_equiv_pos_as_xyz
  1  'x, y, z'
loop_
 _atom_site_type_symbol
 _atom_site_label
 _atom_site_symmetry_multiplicity
 _atom_site_fract_x
 _atom_site_fract_y
 _atom_site_fract_z
 _atom_site_occupancy
  Na  Na0  1  0.10249103  0.78474022  0.47364495  1
  Na  Na1  1  0.83374468  0.21289799  0.58522201  1
  Na  Na2  1  0.45192203  0.58939407  0.59354613  1
  Mg  Mg0  1  0.72680879  0.02338358  0.08955147  1
  Co  Co0  1  0.62603910  0.40497053  0.90223793  1
  Co  Co1  1  0.23575978  0.48552913  0.08466232  1
  Sb  Sb0  1  0.17464174  0.95650305  0.01749140  1
  O  O0  1  0.54487101  0.04006023  0.81415589  1
  O  O1  1  0.06880740  0.39612233  0.28234605  1
  O  O2  1  0.87475987  0.61390840  0.73247104  1
  O  O3  1  0.41892757  0.88758249  0.20117637  1
  O  O4  1  0.87633160  0.80745882  0.14895646  1
  O  O5  1  0.27739642  0.37245015  0.81412297  1
loop_
_geom_bond_atom_site_label_1
_geom_bond_atom_site_label_2
_geom_bond_distance
_geom_bond_site_symmetry_2
Na0 O1 2.328416 1_555
Na0 O4 2.398874 1_455
Na0 O0 2.479795 1_565
Na0 O2 2.520759 1_455
Na0 O3 2.836707 1_555
Na1 O2 2.321332 1_555
Na1 O5 2.322086 1_655
Na1 O3 2.534038 1_545
Na1 O0 2.546611 1_555
Na1 O1 2.830190 1_655
Na2 O1 2.241715 1_555
Na2 O5 2.296576 1_555
Na2 O2 2.470811 1_555
Na2 O0 2.526435 1_565
Mg0 O1 1.948586 1_655
Mg0 O3 1.998926 1_545
Mg0 O0 1.999769 1_554
Mg0 O4 2.071399 1_545
Co0 O0 1.975101 1_555
Co0 O5 1.975216 1_555
Co0 O4 2.067252 1_556
Co0 O2 2.157967 1_555
Co1 O1 1.835535 1_555
Co1 O5 1.862708 1_554
Co1 O3 1.995700 1_555
O2 Sb0 1.994823 1_656
O3 Sb0 2.034189 1_555
O4 Sb0 2.051488 1_655
