# generated using pymatgen
data_Nb3ICl6
_symmetry_space_group_name_H-M   'P 1'
_cell_length_a   12.75449342
_cell_length_b   12.75449342
_cell_length_c   12.75449342
_cell_angle_alpha   90.00000000
_cell_angle_beta   90.00000000
_cell_angle_gamma   90.00000000
_symmetry_Int_Tables_number   1
_chemical_formula_structural   Nb3ICl6
_chemical_formula_sum   'Nb24 I8 Cl48'
_cell_volume   2074.86403216
_cell_formula_units_Z   8
loop_
 _symmetry_equiv_pos_site_id
 _symmetry_equiv_pos_as_xyz
  1  'x, y, z'
loop_
 _atom_site_type_symbol
 _atom_site_label
 _atom_site_symmetry_multiplicity
 _atom_site_fract_x
 _atom_site_fract_y
 _atom_site_fract_z
 _atom_site_occupancy
  Nb  Nb0  1  0.55970050  0.04301283  0.14382263  1
  Nb  Nb1  1  0.14382263  0.55970050  0.04301283  1
  Nb  Nb2  1  0.04301283  0.14382263  0.55970050  1
  Nb  Nb3  1  0.45698717  0.85617737  0.05970050  1
  Nb  Nb4  1  0.64382263  0.94029950  0.95698717  1
  Nb  Nb5  1  0.95698717  0.64382263  0.94029950  1
  Nb  Nb6  1  0.35617737  0.44029950  0.54301283  1
  Nb  Nb7  1  0.85617737  0.05970050  0.45698717  1
  Nb  Nb8  1  0.54301283  0.35617737  0.44029950  1
  Nb  Nb9  1  0.05970050  0.45698717  0.85617737  1
  Nb  Nb10  1  0.44029950  0.54301283  0.35617737  1
  Nb  Nb11  1  0.94029950  0.95698717  0.64382263  1
  Nb  Nb12  1  0.44029950  0.95698717  0.85617737  1
  Nb  Nb13  1  0.85617737  0.44029950  0.95698717  1
  Nb  Nb14  1  0.95698717  0.85617737  0.44029950  1
  Nb  Nb15  1  0.54301283  0.14382263  0.94029950  1
  Nb  Nb16  1  0.35617737  0.05970050  0.04301283  1
  Nb  Nb17  1  0.04301283  0.35617737  0.05970050  1
  Nb  Nb18  1  0.64382263  0.55970050  0.45698717  1
  Nb  Nb19  1  0.14382263  0.94029950  0.54301283  1
  Nb  Nb20  1  0.45698717  0.64382263  0.55970050  1
  Nb  Nb21  1  0.94029950  0.54301283  0.14382263  1
  Nb  Nb22  1  0.55970050  0.45698717  0.64382263  1
  Nb  Nb23  1  0.05970050  0.04301283  0.35617737  1
  I  I0  1  0.13007818  0.13007818  0.13007818  1
  I  I1  1  0.36992182  0.86992182  0.63007818  1
  I  I2  1  0.63007818  0.36992182  0.86992182  1
  I  I3  1  0.86992182  0.63007818  0.36992182  1
  I  I4  1  0.86992182  0.86992182  0.86992182  1
  I  I5  1  0.63007818  0.13007818  0.36992182  1
  I  I6  1  0.36992182  0.63007818  0.13007818  1
  I  I7  1  0.13007818  0.36992182  0.63007818  1
  Cl  Cl0  1  0.62220530  0.21934636  0.09970489  1
  Cl  Cl1  1  0.09970489  0.62220530  0.21934636  1
  Cl  Cl2  1  0.21934636  0.09970489  0.62220530  1
  Cl  Cl3  1  0.28065364  0.90029511  0.12220530  1
  Cl  Cl4  1  0.59970489  0.87779470  0.78065364  1
  Cl  Cl5  1  0.78065364  0.59970489  0.87779470  1
  Cl  Cl6  1  0.40029511  0.37779470  0.71934636  1
  Cl  Cl7  1  0.90029511  0.12220530  0.28065364  1
  Cl  Cl8  1  0.71934636  0.40029511  0.37779470  1
  Cl  Cl9  1  0.12220530  0.28065364  0.90029511  1
  Cl  Cl10  1  0.37779470  0.71934636  0.40029511  1
  Cl  Cl11  1  0.87779470  0.78065364  0.59970489  1
  Cl  Cl12  1  0.37779470  0.78065364  0.90029511  1
  Cl  Cl13  1  0.90029511  0.37779470  0.78065364  1
  Cl  Cl14  1  0.78065364  0.90029511  0.37779470  1
  Cl  Cl15  1  0.71934636  0.09970489  0.87779470  1
  Cl  Cl16  1  0.40029511  0.12220530  0.21934636  1
  Cl  Cl17  1  0.21934636  0.40029511  0.12220530  1
  Cl  Cl18  1  0.59970489  0.62220530  0.28065364  1
  Cl  Cl19  1  0.09970489  0.87779470  0.71934636  1
  Cl  Cl20  1  0.28065364  0.59970489  0.62220530  1
  Cl  Cl21  1  0.87779470  0.71934636  0.09970489  1
  Cl  Cl22  1  0.62220530  0.28065364  0.59970489  1
  Cl  Cl23  1  0.12220530  0.21934636  0.40029511  1
  Cl  Cl24  1  0.74156504  0.97903361  0.11873492  1
  Cl  Cl25  1  0.11873492  0.74156504  0.97903361  1
  Cl  Cl26  1  0.97903361  0.11873492  0.74156504  1
  Cl  Cl27  1  0.52096639  0.88126508  0.24156504  1
  Cl  Cl28  1  0.61873492  0.75843496  0.02096639  1
  Cl  Cl29  1  0.02096639  0.61873492  0.75843496  1
  Cl  Cl30  1  0.38126508  0.25843496  0.47903361  1
  Cl  Cl31  1  0.88126508  0.24156504  0.52096639  1
  Cl  Cl32  1  0.47903361  0.38126508  0.25843496  1
  Cl  Cl33  1  0.24156504  0.52096639  0.88126508  1
  Cl  Cl34  1  0.25843496  0.47903361  0.38126508  1
  Cl  Cl35  1  0.75843496  0.02096639  0.61873492  1
  Cl  Cl36  1  0.25843496  0.02096639  0.88126508  1
  Cl  Cl37  1  0.88126508  0.25843496  0.02096639  1
  Cl  Cl38  1  0.02096639  0.88126508  0.25843496  1
  Cl  Cl39  1  0.47903361  0.11873492  0.75843496  1
  Cl  Cl40  1  0.38126508  0.24156504  0.97903361  1
  Cl  Cl41  1  0.97903361  0.38126508  0.24156504  1
  Cl  Cl42  1  0.61873492  0.74156504  0.52096639  1
  Cl  Cl43  1  0.11873492  0.75843496  0.47903361  1
  Cl  Cl44  1  0.52096639  0.61873492  0.74156504  1
  Cl  Cl45  1  0.75843496  0.47903361  0.11873492  1
  Cl  Cl46  1  0.74156504  0.52096639  0.61873492  1
  Cl  Cl47  1  0.24156504  0.97903361  0.38126508  1
loop_
_geom_bond_atom_site_label_1
_geom_bond_atom_site_label_2
_geom_bond_distance
_geom_bond_site_symmetry_2
I0 Nb16 3.217932 1_555
I0 Nb23 3.217932 1_555
I0 Nb17 3.217932 1_555
I1 Nb20 3.217932 1_555
I1 Nb12 3.217932 1_555
I1 Nb19 3.217932 1_555
I2 Nb22 3.217932 1_555
I2 Nb13 3.217932 1_555
I2 Nb15 3.217932 1_555
I3 Nb18 3.217932 1_555
I3 Nb21 3.217932 1_555
I3 Nb14 3.217932 1_555
I4 Nb4 3.217932 1_555
I4 Nb11 3.217932 1_555
I4 Nb5 3.217932 1_555
I5 Nb0 3.217932 1_555
I5 Nb7 3.217932 1_555
I5 Nb8 3.217932 1_555
I6 Nb1 3.217932 1_555
I6 Nb3 3.217932 1_555
I6 Nb10 3.217932 1_555
I7 Nb2 3.217932 1_555
I7 Nb9 3.217932 1_555
I7 Nb6 3.217932 1_555
Cl0 Nb0 2.451609 1_555
Cl0 Nb15 2.466119 1_554
Cl1 Nb1 2.451609 1_555
Cl1 Nb21 2.466119 1_455
Cl2 Nb2 2.451609 1_555
Cl2 Nb19 2.466119 1_545
Cl3 Nb3 2.451609 1_555
Cl3 Nb16 2.466119 1_565
Cl4 Nb4 2.451609 1_555
Cl4 Nb12 2.466119 1_555
Cl5 Nb5 2.451609 1_555
Cl5 Nb13 2.466119 1_555
Cl6 Nb6 2.451609 1_555
Cl6 Nb22 2.466119 1_555
Cl7 Nb7 2.451609 1_555
Cl7 Nb23 2.466119 1_655
Cl8 Nb8 2.451609 1_555
Cl8 Nb18 2.466119 1_555
Cl9 Nb9 2.451609 1_555
Cl9 Nb17 2.466119 1_556
Cl10 Nb10 2.451609 1_555
Cl10 Nb20 2.466119 1_555
Cl11 Nb11 2.451609 1_555
Cl11 Nb14 2.466119 1_555
Cl12 Nb12 2.451609 1_555
Cl12 Nb3 2.466119 1_556
Cl13 Nb13 2.451609 1_555
Cl13 Nb9 2.466119 1_655
Cl14 Nb14 2.451609 1_555
Cl14 Nb7 2.466119 1_565
Cl15 Nb15 2.451609 1_555
Cl15 Nb4 2.466119 1_545
Cl16 Nb16 2.451609 1_555
Cl16 Nb0 2.466119 1_555
Cl17 Nb17 2.451609 1_555
Cl17 Nb1 2.466119 1_555
Cl18 Nb18 2.451609 1_555
Cl18 Nb10 2.466119 1_555
Cl19 Nb19 2.451609 1_555
Cl19 Nb11 2.466119 1_455
Cl20 Nb20 2.451609 1_555
Cl20 Nb6 2.466119 1_555
Cl21 Nb21 2.451609 1_555
Cl21 Nb5 2.466119 1_554
Cl22 Nb22 2.451609 1_555
Cl22 Nb8 2.466119 1_555
Cl23 Nb23 2.451609 1_555
Cl23 Nb2 2.466119 1_555
Cl24 Nb4 2.460535 1_554
Cl24 Nb0 2.479673 1_565
Cl25 Nb5 2.460535 1_455
Cl25 Nb1 2.479673 1_556
Cl26 Nb11 2.460535 1_545
Cl26 Nb2 2.479673 1_655
Cl27 Nb0 2.460535 1_565
Cl27 Nb3 2.479673 1_555
Cl28 Nb3 2.460535 1_555
Cl28 Nb4 2.479673 1_554
Cl29 Nb9 2.460535 1_555
Cl29 Nb5 2.479673 1_455
Cl30 Nb8 2.460535 1_555
Cl30 Nb6 2.479673 1_555
Cl31 Nb2 2.460535 1_655
Cl31 Nb7 2.479673 1_555
Cl32 Nb10 2.460535 1_555
Cl32 Nb8 2.479673 1_555
Cl33 Nb1 2.460535 1_556
Cl33 Nb9 2.479673 1_555
Cl34 Nb6 2.460535 1_555
Cl34 Nb10 2.479673 1_555
Cl35 Nb7 2.460535 1_555
Cl35 Nb11 2.479673 1_545
Cl36 Nb16 2.460535 1_556
Cl36 Nb12 2.479673 1_545
Cl37 Nb17 2.460535 1_655
Cl37 Nb13 2.479673 1_554
Cl38 Nb23 2.460535 1_565
Cl38 Nb14 2.479673 1_455
Cl39 Nb12 2.460535 1_545
Cl39 Nb15 2.479673 1_555
Cl40 Nb15 2.460535 1_555
Cl40 Nb16 2.479673 1_556
Cl41 Nb21 2.460535 1_555
Cl41 Nb17 2.479673 1_655
Cl42 Nb20 2.460535 1_555
Cl42 Nb18 2.479673 1_555
Cl43 Nb14 2.460535 1_455
Cl43 Nb19 2.479673 1_555
Cl44 Nb22 2.460535 1_555
Cl44 Nb20 2.479673 1_555
Cl45 Nb13 2.460535 1_554
Cl45 Nb21 2.479673 1_555
Cl46 Nb18 2.460535 1_555
Cl46 Nb22 2.479673 1_555
Cl47 Nb19 2.460535 1_555
Cl47 Nb23 2.479673 1_565
