# generated using pymatgen
data_MgTi8(NiO3)8
_symmetry_space_group_name_H-M   'P 1'
_cell_length_a   5.63499882
_cell_length_b   11.16620681
_cell_length_c   11.14743622
_cell_angle_alpha   54.41389590
_cell_angle_beta   54.02327661
_cell_angle_gamma   54.09789498
_symmetry_Int_Tables_number   1
_chemical_formula_structural   MgTi8(NiO3)8
_chemical_formula_sum   'Mg1 Ti8 Ni8 O24'
_cell_volume   428.56347548
_cell_formula_units_Z   1
loop_
 _symmetry_equiv_pos_site_id
 _symmetry_equiv_pos_as_xyz
  1  'x, y, z'
loop_
 _atom_site_type_symbol
 _atom_site_label
 _atom_site_symmetry_multiplicity
 _atom_site_fract_x
 _atom_site_fract_y
 _atom_site_fract_z
 _atom_site_occupancy
  Mg  Mg0  1  0.28840300  0.66139200  0.65959600  1
  Ti  Ti0  1  0.35494900  0.17497600  0.17032600  1
  Ti  Ti1  1  0.14003500  0.07722400  0.56917400  1
  Ti  Ti2  1  0.13662200  0.57210800  0.07814000  1
  Ti  Ti3  1  0.01646600  0.50529000  0.51730100  1
  Ti  Ti4  1  0.80898100  0.41840300  0.42512000  1
  Ti  Ti5  1  0.85956400  0.42229300  0.92209500  1
  Ti  Ti6  1  0.89878500  0.91852200  0.40677200  1
  Ti  Ti7  1  0.82566200  0.93770700  0.92994500  1
  Ni  Ni0  1  0.13788700  0.07321600  0.07177400  1
  Ni  Ni1  1  0.34976600  0.67701900  0.16648000  1
  Ni  Ni2  1  0.35849100  0.15863600  0.67895600  1
  Ni  Ni3  1  0.64196200  0.31763900  0.31604500  1
  Ni  Ni4  1  0.49956700  0.74246200  0.74331300  1
  Ni  Ni5  1  0.64538600  0.31995100  0.82804900  1
  Ni  Ni6  1  0.64983100  0.82946800  0.32032800  1
  Ni  Ni7  1  0.66219500  0.82871100  0.83592400  1
  O  O0  1  0.05358900  0.37571400  0.21180100  1
  O  O1  1  0.42288500  0.04553400  0.36989900  1
  O  O2  1  0.72065000  0.22510900  0.03161600  1
  O  O3  1  0.21710500  0.28559100  0.47460400  1
  O  O4  1  0.55321300  0.46972700  0.11097800  1
  O  O5  1  0.04793100  0.37397600  0.71879100  1
  O  O6  1  0.04402100  0.87053900  0.22796500  1
  O  O7  1  0.95350000  0.11451100  0.27849000  1
  O  O8  1  0.46793200  0.02509200  0.87328100  1
  O  O9  1  0.42730200  0.51578500  0.37736900  1
  O  O10  1  0.76156700  0.20922400  0.52696600  1
  O  O11  1  0.76061200  0.72096600  0.03623800  1
  O  O12  1  0.21914400  0.28831100  0.97058800  1
  O  O13  1  0.24174100  0.79605000  0.45196500  1
  O  O14  1  0.61423400  0.46235600  0.61121300  1
  O  O15  1  0.56767600  0.98166300  0.11392200  1
  O  O16  1  0.07721800  0.87493600  0.71245700  1
  O  O17  1  0.95462100  0.11146900  0.77834700  1
  O  O18  1  0.94823400  0.60672100  0.29123100  1
  O  O19  1  0.42022400  0.53546400  0.87690800  1
  O  O20  1  0.73626400  0.70869100  0.53254700  1
  O  O21  1  0.23510900  0.78129100  0.96168500  1
  O  O22  1  0.56795400  0.95454700  0.61363300  1
  O  O23  1  0.89132000  0.62100900  0.79746500  1
loop_
_geom_bond_atom_site_label_1
_geom_bond_atom_site_label_2
_geom_bond_distance
_geom_bond_site_symmetry_2
Mg0 O13 1.971821 1_555
Mg0 O23 1.976970 1_455
Mg0 O14 2.011784 1_555
Mg0 O16 2.220946 1_555
Mg0 O20 2.268710 1_555
Mg0 O19 2.306967 1_555
Ni0 O8 2.005095 1_554
Ni0 O6 2.041789 1_545
Ni0 O2 2.069065 1_455
Ni0 O7 2.112803 1_455
Ni0 O12 2.186438 1_554
Ni0 O15 2.237287 1_545
Ni1 O6 2.019297 1_555
Ni1 O11 2.064587 1_555
Ni1 O9 2.077775 1_555
Ni1 O21 2.177617 1_554
Ni1 O4 2.185407 1_555
Ni1 O18 2.187510 1_455
Ni2 O8 2.006992 1_555
Ni2 O10 2.053800 1_555
Ni2 O5 2.106195 1_555
Ni2 O17 2.109102 1_455
Ni2 O3 2.209745 1_555
Ni2 O22 2.209905 1_545
Ni3 O7 1.993355 1_555
Ni3 O4 2.046629 1_555
Ni3 O3 2.068974 1_555
Ni3 O9 2.115612 1_555
Ni3 O0 2.207086 1_655
Ni3 O10 2.245048 1_555
Ni4 O23 2.044145 1_555
Ni4 O19 2.045410 1_555
Ni4 O20 2.049573 1_555
Ni4 O16 2.052153 1_555
Ni4 O22 2.068325 1_555
Ni4 O21 2.131422 1_555
Ni5 O14 2.024794 1_555
Ni5 O2 2.063477 1_556
Ni5 O12 2.067954 1_555
Ni5 O17 2.090946 1_555
Ni5 O5 2.120485 1_655
Ni5 O19 2.197758 1_555
Ni6 O13 1.996260 1_555
Ni6 O6 2.040224 1_655
Ni6 O15 2.043137 1_555
Ni6 O18 2.124178 1_555
Ni6 O20 2.126672 1_555
Ni6 O1 2.205545 1_565
Ni7 O8 1.972865 1_565
Ni7 O23 2.055404 1_555
Ni7 O11 2.070509 1_556
Ni7 O16 2.106452 1_655
Ni7 O21 2.168905 1_555
Ni7 O22 2.239497 1_555
O0 Ti2 1.956918 1_555
O0 Ti0 1.985262 1_555
O0 Ti4 2.116474 1_455
O1 Ti1 1.921909 1_555
O1 Ti0 1.947905 1_555
O1 Ti6 2.351160 1_545
O2 Ti0 1.884841 1_555
O2 Ti5 2.172817 1_554
O3 Ti4 2.081112 1_455
O3 Ti1 2.122688 1_555
O3 Ti3 2.235359 1_555
O4 Ti5 1.910243 1_554
O4 Ti2 2.080094 1_555
O5 Ti3 1.885823 1_555
O5 Ti5 2.116374 1_455
O6 Ti6 1.934406 1_455
O7 Ti6 1.886890 1_545
O7 Ti0 2.160131 1_655
O8 Ti7 1.971402 1_545
O9 Ti3 1.915471 1_555
O9 Ti4 2.005024 1_555
O10 Ti1 1.904560 1_655
O10 Ti4 2.026128 1_555
O11 Ti2 1.897143 1_655
O11 Ti7 2.142007 1_554
O12 Ti5 1.851083 1_455
O12 Ti0 2.175187 1_556
O13 Ti6 1.761038 1_455
O14 Ti4 1.904500 1_555
O14 Ti3 2.089393 1_655
O15 Ti7 1.841775 1_554
O15 Ti0 2.037429 1_565
O16 Ti1 1.962924 1_565
O16 Ti7 2.270071 1_455
O17 Ti7 1.882325 1_545
O17 Ti1 2.093246 1_655
O18 Ti4 2.042441 1_555
O18 Ti2 2.131550 1_655
O18 Ti3 2.255501 1_655
O19 Ti2 1.960310 1_556
O19 Ti5 2.243849 1_555
O20 Ti3 1.899610 1_655
O20 Ti6 2.340687 1_555
O21 Ti7 2.003204 1_455
O21 Ti2 2.143331 1_556
O22 Ti6 2.025828 1_555
O22 Ti1 2.162545 1_565
O23 Ti5 1.863186 1_555
