# generated using pymatgen
data_MgW2(OF4)2
_symmetry_space_group_name_H-M   'P 1'
_cell_length_a   6.73958630
_cell_length_b   5.59452469
_cell_length_c   6.03607111
_cell_angle_alpha   73.83943019
_cell_angle_beta   99.35740525
_cell_angle_gamma   82.80671908
_symmetry_Int_Tables_number   1
_chemical_formula_structural   MgW2(OF4)2
_chemical_formula_sum   'Mg1 W2 O2 F8'
_cell_volume   212.16880604
_cell_formula_units_Z   1
loop_
 _symmetry_equiv_pos_site_id
 _symmetry_equiv_pos_as_xyz
  1  'x, y, z'
loop_
 _atom_site_type_symbol
 _atom_site_label
 _atom_site_symmetry_multiplicity
 _atom_site_fract_x
 _atom_site_fract_y
 _atom_site_fract_z
 _atom_site_occupancy
  Mg  Mg0  1  0.41037200  0.32264702  0.86721043  1
  W  W0  1  0.20619302  0.87834654  0.73149937  1
  W  W1  1  0.78936293  0.12982932  0.25602994  1
  O  O0  1  0.28386164  0.61788092  0.98859211  1
  O  O1  1  0.71211470  0.36432701  0.97787543  1
  F  F0  1  0.13853531  0.17475664  0.84625144  1
  F  F1  1  0.09711231  0.13374769  0.37699606  1
  F  F2  1  0.30081293  0.62336047  0.57084469  1
  F  F3  1  0.45414456  0.03956035  0.71780996  1
  F  F4  1  0.50492564  0.05537790  0.20330803  1
  F  F5  1  0.72478515  0.32629809  0.46304656  1
  F  F6  1  0.91139499  0.85123531  0.63121564  1
  F  F7  1  0.88638482  0.82013374  0.19223735  1
loop_
_geom_bond_atom_site_label_1
_geom_bond_atom_site_label_2
_geom_bond_distance
_geom_bond_site_symmetry_2
Mg0 O1 2.097596 1_555
Mg0 O0 2.125080 1_555
O0 W0 1.758297 1_555
O1 W1 1.769077 1_556
F0 W0 1.997570 1_545
F0 Mg0 2.102268 1_555
F1 W1 2.088863 1_455
F1 W0 2.164316 1_545
F2 W0 2.031088 1_555
F2 Mg0 2.039536 1_555
F3 W0 1.998421 1_545
F3 Mg0 2.042793 1_555
F4 W1 2.006235 1_555
F4 Mg0 2.099976 1_554
F5 W1 1.944369 1_555
F6 W0 2.018006 1_655
F6 W1 2.311440 1_565
F7 W1 1.935786 1_565
