# generated using pymatgen
data_Na5ZrNb3(SiO4)6
_symmetry_space_group_name_H-M   'P 1'
_cell_length_a   9.09084014
_cell_length_b   9.07884049
_cell_length_c   22.82686188
_cell_angle_alpha   90.19432208
_cell_angle_beta   89.81847377
_cell_angle_gamma   120.17519901
_symmetry_Int_Tables_number   1
_chemical_formula_structural   Na5ZrNb3(SiO4)6
_chemical_formula_sum   'Na15 Zr3 Nb9 Si18 O72'
_cell_volume   1628.69103730
_cell_formula_units_Z   3
loop_
 _symmetry_equiv_pos_site_id
 _symmetry_equiv_pos_as_xyz
  1  'x, y, z'
loop_
 _atom_site_type_symbol
 _atom_site_label
 _atom_site_symmetry_multiplicity
 _atom_site_fract_x
 _atom_site_fract_y
 _atom_site_fract_z
 _atom_site_occupancy
  Na  Na0  1  0.36654835  0.36324004  0.24886309  1
  Na  Na1  1  0.99491596  0.63219648  0.24873470  1
  Na  Na2  1  0.63510202  0.63084440  0.74931441  1
  Na  Na3  1  0.99857272  0.36762850  0.74958769  1
  Na  Na4  1  0.03190619  0.69739028  0.58400375  1
  Na  Na5  1  0.30319335  0.96892386  0.08376244  1
  Na  Na6  1  0.69997195  0.03377268  0.91758185  1
  Na  Na7  1  0.96816142  0.29759677  0.41556305  1
  Na  Na8  1  0.33147577  0.03405042  0.41590978  1
  Na  Na9  1  0.99363870  0.99889678  0.49975290  1
  Na  Na10  1  0.00020708  -0.00000416  0.00086517  1
  Na  Na11  1  0.66025771  0.33240432  0.83390993  1
  Na  Na12  1  0.66686519  0.33295578  0.33092945  1
  Na  Na13  1  0.33945517  0.66736471  0.16504082  1
  Na  Na14  1  0.33976955  0.67319591  0.66575802  1
  Zr  Zr0  1  0.99437869  0.99444101  0.35313972  1
  Zr  Zr1  1  0.65999424  0.32579804  0.68599793  1
  Zr  Zr2  1  0.66683483  0.32816392  0.18419596  1
  Nb  Nb0  1  0.00566412  -0.00001633  0.85518327  1
  Nb  Nb1  1  0.00042216  0.00424019  0.64530478  1
  Nb  Nb2  1  0.99365542  0.99974672  0.14533207  1
  Nb  Nb3  1  0.66802700  0.33928712  0.98011938  1
  Nb  Nb4  1  0.66660349  0.33719930  0.48084494  1
  Nb  Nb5  1  0.33199700  0.66099755  0.02030442  1
  Nb  Nb6  1  0.33836935  0.66645693  0.52092609  1
  Nb  Nb7  1  0.33746944  0.67045664  0.31245880  1
  Nb  Nb8  1  0.33307262  0.67035721  0.81407801  1
  Si  Si0  1  0.29099021  -0.00011693  0.25004418  1
  Si  Si1  1  0.70718709  0.70961887  0.24945757  1
  Si  Si2  1  0.99773198  0.28965414  0.25093855  1
  Si  Si3  1  0.28930226  0.28831048  0.75083406  1
  Si  Si4  1  0.00451858  0.71496978  0.74975171  1
  Si  Si5  1  0.71136909  0.99888510  0.75128644  1
  Si  Si6  1  0.95686024  0.33093616  0.58317852  1
  Si  Si7  1  0.37457164  0.04170913  0.58250949  1
  Si  Si8  1  0.66433649  0.62507259  0.58454426  1
  Si  Si9  1  0.95874938  0.62522623  0.08350536  1
  Si  Si10  1  0.66860086  0.04159665  0.08119927  1
  Si  Si11  1  0.37583110  0.33555112  0.08368336  1
  Si  Si12  1  0.62117308  0.66338334  0.91620594  1
  Si  Si13  1  0.04324806  0.37768180  0.91639711  1
  Si  Si14  1  0.33171504  0.95652628  0.91809998  1
  Si  Si15  1  0.62334438  0.95615374  0.41764493  1
  Si  Si16  1  0.33822710  0.38077508  0.41671088  1
  Si  Si17  1  0.04360094  0.66545682  0.41758897  1
  O  O0  1  0.20812385  0.03200357  0.30861409  1
  O  O1  1  0.82883323  0.79316236  0.30571206  1
  O  O2  1  0.97298945  0.18066053  0.30979688  1
  O  O3  1  0.19007963  0.16688065  0.80718567  1
  O  O4  1  0.97238643  0.80959686  0.80584919  1
  O  O5  1  0.83107790  0.02730797  0.80876967  1
  O  O6  1  0.80439385  0.96521260  0.69432964  1
  O  O7  1  0.16278898  0.19614081  0.69413361  1
  O  O8  1  0.03092331  0.83126279  0.69129903  1
  O  O9  1  0.80396077  0.83403759  0.19266618  1
  O  O10  1  0.03406874  0.19607548  0.19462184  1
  O  O11  1  0.16670179  0.96474160  0.19245062  1
  O  O12  1  0.87992867  0.37316347  0.64094045  1
  O  O13  1  0.49271407  0.12504672  0.63908575  1
  O  O14  1  0.63474215  0.51339939  0.64283456  1
  O  O15  1  0.88144324  0.51472130  0.14217501  1
  O  O16  1  0.62471264  0.12086697  0.13749201  1
  O  O17  1  0.48615570  0.36700380  0.14239444  1
  O  O18  1  0.47157321  0.30091285  0.02756548  1
  O  O19  1  0.83325321  0.52687649  0.02703060  1
  O  O20  1  0.69537247  0.16114498  0.02336223  1
  O  O21  1  0.46692228  0.16191422  0.52436564  1
  O  O22  1  0.69807387  0.52885699  0.52803753  1
  O  O23  1  0.83636875  0.30495889  0.52513650  1
  O  O24  1  0.52908832  0.70012978  0.97150509  1
  O  O25  1  0.16690558  0.47279624  0.97214909  1
  O  O26  1  0.30450674  0.83862454  0.97510181  1
  O  O27  1  0.52385448  0.83432891  0.47354743  1
  O  O28  1  0.30558021  0.47536384  0.47223295  1
  O  O29  1  0.16414698  0.69301251  0.47451976  1
  O  O30  1  0.13277169  0.63153187  0.35937712  1
  O  O31  1  0.49604950  0.86298574  0.36093331  1
  O  O32  1  0.36395157  0.49831962  0.35835250  1
  O  O33  1  0.13522830  0.49615193  0.85807764  1
  O  O34  1  0.36434242  0.86114891  0.86115761  1
  O  O35  1  0.50312847  0.63780287  0.85768659  1
  O  O36  1  0.03419551  0.83816735  0.41336362  1
  O  O37  1  0.81308824  0.98572764  0.41416887  1
  O  O38  1  0.16878101  0.19316525  0.41332845  1
  O  O39  1  0.01760203  0.18582381  0.90957749  1
  O  O40  1  0.16337301  0.97514234  0.90904848  1
  O  O41  1  0.80639237  0.83884869  0.90894092  1
  O  O42  1  0.97593239  0.16181425  0.59013861  1
  O  O43  1  0.18285494  0.01692412  0.58939980  1
  O  O44  1  0.84124626  0.81014478  0.58922448  1
  O  O45  1  0.98442467  0.81791706  0.08888327  1
  O  O46  1  0.83826887  0.02374019  0.08953510  1
  O  O47  1  0.19021714  0.15883270  0.08940421  1
  O  O48  1  0.70201453  0.17166124  0.74599108  1
  O  O49  1  0.47965218  0.31843244  0.74702294  1
  O  O50  1  0.83492396  0.52673992  0.74603886  1
  O  O51  1  0.68486405  0.52138294  0.24386994  1
  O  O52  1  0.84021957  0.32361524  0.24511947  1
  O  O53  1  0.47514833  0.17051487  0.24469539  1
  O  O54  1  0.64084733  0.49554205  0.92400643  1
  O  O55  1  0.85206307  0.35194043  0.92329552  1
  O  O56  1  0.50731273  0.14123150  0.92330395  1
  O  O57  1  0.63559544  0.14340874  0.42363486  1
  O  O58  1  0.50489154  0.35713979  0.42407844  1
  O  O59  1  0.85832534  0.48899230  0.42398315  1
  O  O60  1  0.35367883  0.50170231  0.07346556  1
  O  O61  1  0.15097200  0.65352996  0.07404830  1
  O  O62  1  0.49553475  0.85462789  0.07312918  1
  O  O63  1  0.34475124  0.84861606  0.57462275  1
  O  O64  1  0.49834674  0.64638620  0.57465484  1
  O  O65  1  0.14296413  0.50399617  0.57398119  1
  O  O66  1  0.29914031  0.82251227  0.25714074  1
  O  O67  1  0.51689695  0.68827114  0.25633128  1
  O  O68  1  0.17499775  0.47925657  0.25619013  1
  O  O69  1  0.30217563  0.47620405  0.75690641  1
  O  O70  1  0.17090559  0.68997949  0.75746300  1
  O  O71  1  0.52570506  0.82291420  0.75714773  1
loop_
_geom_bond_atom_site_label_1
_geom_bond_atom_site_label_2
_geom_bond_distance
_geom_bond_site_symmetry_2
Na0 O53 2.404188 1_555
Na0 O68 2.451643 1_555
Na0 O51 2.504101 1_555
Na0 O67 2.558998 1_555
Na0 O17 2.652641 1_555
Na0 O32 2.785493 1_555
Na0 O10 2.893352 1_555
Na0 O0 2.939287 1_555
Na1 O66 2.422462 1_655
Na1 O52 2.423162 1_555
Na1 O51 2.473800 1_555
Na1 O68 2.631644 1_655
Na1 O15 2.647751 1_555
Na1 O30 2.824380 1_655
Na1 O1 2.880905 1_555
Na1 O11 2.911766 1_655
Na2 O71 2.408712 1_555
Na2 O50 2.433804 1_555
Na2 O49 2.452473 1_555
Na2 O69 2.624495 1_555
Na2 O14 2.650229 1_555
Na2 O35 2.760325 1_555
Na2 O6 2.911387 1_555
Na2 O4 2.951134 1_555
Na3 O48 2.370410 1_555
Na3 O69 2.425693 1_655
Na3 O70 2.537829 1_655
Na3 O50 2.543331 1_555
Na3 O12 2.718254 1_555
Na3 O33 2.753268 1_655
Na3 O7 2.926803 1_655
Na3 O5 2.995942 1_555
Na4 O44 2.418236 1_455
Na4 O65 2.435637 1_555
Na4 O63 2.468216 1_555
Na4 O43 2.512113 1_565
Na4 O8 2.732496 1_555
Na4 O29 2.778672 1_555
Na4 O12 2.861638 1_455
Na4 O22 2.920029 1_455
Na5 O47 2.412867 1_565
Na5 O62 2.452084 1_555
Na5 O61 2.485453 1_555
Na5 O45 2.509167 1_455
Na5 O26 2.746990 1_554
Na5 O11 2.762293 1_555
Na5 O16 2.812169 1_565
Na5 O18 2.906715 1_565
Na6 O56 2.398293 1_555
Na6 O41 2.413341 1_545
Na6 O55 2.501249 1_555
Na6 O39 2.503601 1_655
Na6 O20 2.682998 1_556
Na6 O5 2.764783 1_555
Na6 O24 2.895936 1_545
Na6 O34 2.937467 1_545
Na7 O59 2.407098 1_555
Na7 O38 2.442373 1_655
Na7 O37 2.447910 1_545
Na7 O57 2.622508 1_555
Na7 O2 2.643236 1_555
Na7 O23 2.785031 1_555
Na7 O30 2.920465 1_655
Na7 O28 2.953203 1_655
Na8 O36 2.374535 1_545
Na8 O57 2.429583 1_555
Na8 O38 2.535119 1_555
Na8 O58 2.544328 1_555
Na8 O0 2.693077 1_555
Na8 O21 2.748770 1_555
Na8 O31 2.921643 1_545
Na8 O29 2.995148 1_545
Na9 O37 2.519208 1_555
Na9 O44 2.578037 1_555
Na9 O36 2.582792 1_655
Na9 O42 2.585938 1_565
Na9 O38 2.591988 1_665
Na9 O43 2.628734 1_665
Na10 O45 2.563644 1_445
Na10 O46 2.570546 1_455
Na10 O47 2.578026 1_555
Na10 O40 2.637696 1_544
Na10 O39 2.639536 1_554
Na10 O41 2.656900 1_444
Na11 O49 2.540678 1_555
Na11 O56 2.586438 1_555
Na11 O54 2.587326 1_555
Na11 O48 2.614143 1_555
Na11 O50 2.616294 1_555
Na11 O55 2.635192 1_555
Na12 O52 2.537956 1_555
Na12 O53 2.550581 1_555
Na12 O51 2.577250 1_555
Na12 O58 2.653215 1_555
Na12 O57 2.655089 1_555
Na12 O59 2.659413 1_555
Na13 O67 2.586785 1_555
Na13 O60 2.611693 1_555
Na13 O62 2.624081 1_555
Na13 O68 2.630308 1_555
Na13 O66 2.651837 1_555
Na13 O61 2.659026 1_555
Na14 O71 2.598097 1_555
Na14 O64 2.606243 1_555
Na14 O63 2.610673 1_555
Na14 O70 2.640925 1_555
Na14 O69 2.655313 1_555
Na14 O65 2.681167 1_555
Nb0 O3 1.937233 1_555
Nb0 O4 1.952096 1_445
Nb0 O40 1.989054 1_545
Nb0 O5 2.027628 1_455
Nb0 O39 2.050055 1_555
Nb0 O41 2.064359 1_445
Nb1 O7 1.966845 1_555
Nb1 O6 1.977099 1_445
Nb1 O42 2.004019 1_455
Nb1 O8 2.023915 1_545
Nb1 O43 2.046433 1_555
Nb1 O44 2.066620 1_445
Nb2 O9 1.948271 1_555
Nb2 O10 1.977038 1_665
Nb2 O46 1.996930 1_565
Nb2 O45 2.059016 1_555
Nb2 O11 2.061127 1_655
Nb2 O47 2.076653 1_665
Nb3 O19 1.931196 1_556
Nb3 O18 1.961814 1_556
Nb3 O20 2.017044 1_556
Nb3 O54 2.020119 1_555
Nb3 O55 2.070945 1_555
Nb3 O56 2.098811 1_555
Nb4 O22 1.938771 1_555
Nb4 O21 1.977335 1_555
Nb4 O23 1.988893 1_555
Nb4 O58 2.038203 1_555
Nb4 O59 2.050569 1_555
Nb4 O57 2.090105 1_555
Nb5 O25 1.949367 1_554
Nb5 O60 1.975592 1_555
Nb5 O24 1.981784 1_554
Nb5 O61 2.023235 1_555
Nb5 O62 2.030826 1_555
Nb5 O26 2.036133 1_554
Nb6 O27 1.936982 1_555
Nb6 O28 1.950216 1_555
Nb6 O64 1.982852 1_555
Nb6 O29 2.021141 1_555
Nb6 O63 2.032498 1_555
Nb6 O65 2.040175 1_555
Nb7 O31 1.954929 1_555
Nb7 O32 1.997181 1_555
Nb7 O67 2.012775 1_555
Nb7 O30 2.015842 1_555
Nb7 O66 2.029741 1_555
Nb7 O68 2.064950 1_555
Nb8 O34 1.931438 1_555
Nb8 O33 1.970968 1_555
Nb8 O35 1.984770 1_555
Nb8 O70 2.037869 1_555
Nb8 O71 2.057497 1_555
Nb8 O69 2.092391 1_555
O0 Si0 1.628447 1_555
O0 Zr0 2.061245 1_445
O1 Si1 1.614420 1_555
O1 Zr0 2.002123 1_555
O2 Si2 1.618101 1_555
O2 Zr0 2.053790 1_545
O3 Si3 1.638976 1_555
O4 Si4 1.644868 1_655
O5 Si5 1.642284 1_545
O6 Si5 1.658080 1_555
O7 Si3 1.653107 1_555
O8 Si4 1.644818 1_555
O9 Si1 1.653537 1_555
O10 Si2 1.659983 1_455
O11 Si0 1.658612 1_565
O12 Si6 1.623229 1_555
O12 Zr1 2.089490 1_555
O13 Si7 1.605952 1_555
O13 Zr1 1.997979 1_555
O14 Si8 1.613514 1_555
O14 Zr1 2.080928 1_555
O15 Si9 1.608834 1_555
O15 Zr2 2.066963 1_555
O16 Si10 1.614762 1_555
O16 Zr2 2.022297 1_555
O17 Si11 1.612934 1_555
O17 Zr2 2.080190 1_555
O18 Si11 1.662155 1_555
O19 Si9 1.654743 1_555
O20 Si10 1.649970 1_555
O21 Si7 1.655021 1_555
O22 Si8 1.667352 1_555
O23 Si6 1.660793 1_555
O24 Si12 1.636063 1_555
O25 Si13 1.629342 1_555
O26 Si14 1.625194 1_555
O27 Si15 1.632888 1_555
O28 Si16 1.636547 1_555
O29 Si17 1.638155 1_555
O30 Si17 1.661049 1_555
O31 Si15 1.657868 1_555
O32 Si16 1.650731 1_555
O33 Si13 1.651304 1_555
O34 Si14 1.665962 1_555
O35 Si12 1.657216 1_555
O36 Si17 1.615899 1_555
O36 Zr0 2.136934 1_455
O37 Si15 1.608559 1_555
O37 Zr0 2.125631 1_555
O38 Si16 1.625488 1_555
O38 Zr0 2.185822 1_445
O39 Si13 1.644009 1_555
O40 Si14 1.635711 1_555
O41 Si12 1.644354 1_555
O42 Si6 1.637774 1_555
O43 Si7 1.648394 1_555
O44 Si8 1.644515 1_555
O45 Si9 1.648702 1_555
O46 Si10 1.641647 1_555
O47 Si11 1.648296 1_555
O48 Si5 1.617969 1_545
O48 Zr1 2.129158 1_555
O49 Si3 1.612531 1_555
O49 Zr1 2.123376 1_555
O50 Si4 1.629647 1_655
O50 Zr1 2.194497 1_555
O51 Si1 1.621126 1_555
O51 Zr2 2.157724 1_555
O52 Si2 1.615062 1_555
O52 Zr2 2.121295 1_555
O53 Si0 1.615640 1_555
O53 Zr2 2.117356 1_555
O54 Si12 1.631472 1_555
O55 Si13 1.640230 1_655
O56 Si14 1.638045 1_545
O57 Si15 1.652112 1_545
O58 Si16 1.642745 1_555
O59 Si17 1.646887 1_655
O60 Si11 1.636605 1_555
O61 Si9 1.647070 1_455
O62 Si10 1.644862 1_565
O63 Si7 1.643027 1_565
O64 Si8 1.631391 1_555
O65 Si6 1.644004 1_455
O66 Si0 1.657303 1_565
O67 Si1 1.648079 1_555
O68 Si2 1.669002 1_455
O69 Si3 1.655494 1_555
O70 Si4 1.648444 1_555
O71 Si5 1.645694 1_555
