# generated using pymatgen
data_Na14La4Sc4Si7S5O48
_symmetry_space_group_name_H-M   'P 1'
_cell_length_a   18.94066915
_cell_length_b   9.46072360
_cell_length_c   23.35581754
_cell_angle_alpha   89.98568898
_cell_angle_beta   89.79010169
_cell_angle_gamma   120.06299488
_symmetry_Int_Tables_number   1
_chemical_formula_structural   Na14La4Sc4Si7S5O48
_chemical_formula_sum   'Na42 La12 Sc12 Si21 S15 O144'
_cell_volume   3622.13950168
_cell_formula_units_Z   3
loop_
 _symmetry_equiv_pos_site_id
 _symmetry_equiv_pos_as_xyz
  1  'x, y, z'
loop_
 _atom_site_type_symbol
 _atom_site_label
 _atom_site_symmetry_multiplicity
 _atom_site_fract_x
 _atom_site_fract_y
 _atom_site_fract_z
 _atom_site_occupancy
  Na  Na0  1  0.80946603  0.98763799  0.24312227  1
  Na  Na1  1  0.18725798  0.36482182  0.26218957  1
  Na  Na2  1  0.69223413  0.36882431  0.25770170  1
  Na  Na3  1  0.99645464  0.64750048  0.24132700  1
  Na  Na4  1  0.50578165  0.65827384  0.24682045  1
  Na  Na5  1  0.30899351  0.63301685  0.75391166  1
  Na  Na6  1  0.00383696  0.35017211  0.75090799  1
  Na  Na7  1  0.50033601  0.34859644  0.74854400  1
  Na  Na8  1  0.18650320  0.00887173  0.76304923  1
  Na  Na9  1  0.68982894  0.01198665  0.76558129  1
  Na  Na10  1  0.14136971  0.33280141  0.58334606  1
  Na  Na11  1  0.63948768  0.33365896  0.58385166  1
  Na  Na12  1  0.33812333  0.97819917  0.57745189  1
  Na  Na13  1  0.83933636  0.97867675  0.57936586  1
  Na  Na14  1  0.13544585  0.94369447  0.08587700  1
  Na  Na15  1  0.65161379  0.95660542  0.08550304  1
  Na  Na16  1  0.33841795  0.69866084  0.07946722  1
  Na  Na17  1  0.83813206  0.71580690  0.07723838  1
  Na  Na18  1  0.48943105  0.69296721  0.92442786  1
  Na  Na19  1  0.98551174  0.68304765  0.92497363  1
  Na  Na20  1  0.33973115  0.01146462  0.91179443  1
  Na  Na21  1  0.84198207  0.02014572  0.92055477  1
  Na  Na22  1  0.16925217  0.29421195  0.90648615  1
  Na  Na23  1  0.67901181  0.31234960  0.90941666  1
  Na  Na24  1  0.48892111  0.28854887  0.41868026  1
  Na  Na25  1  0.98621383  0.28087042  0.42042138  1
  Na  Na26  1  0.17272449  0.04144159  0.40380838  1
  Na  Na27  1  0.67140590  0.04551989  0.40327685  1
  Na  Na28  1  0.34259735  0.66788063  0.40777895  1
  Na  Na29  1  0.83955321  0.66817194  0.40790711  1
  Na  Na30  1  0.99706062  0.01711566  0.49258745  1
  Na  Na31  1  0.49843870  0.01987499  0.49177470  1
  Na  Na32  1  0.98700095  0.97861114  0.00047733  1
  Na  Na33  1  0.50043142  0.98085691  0.99486942  1
  Na  Na34  1  0.32148633  0.32072066  0.83473250  1
  Na  Na35  1  0.82142788  0.32991853  0.83860388  1
  Na  Na36  1  0.32184645  0.31651298  0.33269462  1
  Na  Na37  1  0.82213190  0.32606634  0.32744618  1
  Na  Na38  1  0.16373950  0.68251345  0.17205452  1
  Na  Na39  1  0.66655380  0.68684147  0.16441751  1
  Na  Na40  1  0.15692835  0.64389862  0.67331157  1
  Na  Na41  1  0.66728007  0.64971541  0.67449860  1
  La  La0  1  0.99879518  0.00905609  0.65355522  1
  La  La1  1  0.49552291  0.00455098  0.65123933  1
  La  La2  1  0.99116590  0.99027043  0.14844499  1
  La  La3  1  0.50018457  0.98898663  0.15240141  1
  La  La4  1  0.83708102  0.33980402  0.68915634  1
  La  La5  1  0.33665998  0.33245595  0.18855053  1
  La  La6  1  0.15842673  0.66550052  0.01146537  1
  La  La7  1  0.67028139  0.68299356  0.01467190  1
  La  La8  1  0.16497170  0.65981211  0.51161027  1
  La  La9  1  0.65995280  0.65287604  0.51065503  1
  La  La10  1  0.18068455  0.68967816  0.31866937  1
  La  La11  1  0.68112754  0.67290464  0.82092847  1
  Sc  Sc0  1  0.99730315  0.99269991  0.34751241  1
  Sc  Sc1  1  0.50113242  0.99917581  0.34687136  1
  Sc  Sc2  1  0.00069059  0.00118737  0.84765922  1
  Sc  Sc3  1  0.49836428  0.00432445  0.84875089  1
  Sc  Sc4  1  0.33633820  0.32583242  0.68874849  1
  Sc  Sc5  1  0.83632581  0.33218091  0.18319679  1
  Sc  Sc6  1  0.33499617  0.34720448  0.97875932  1
  Sc  Sc7  1  0.83813095  0.33528614  0.98496014  1
  Sc  Sc8  1  0.33838455  0.33070456  0.48116780  1
  Sc  Sc9  1  0.83504224  0.32276281  0.47839837  1
  Sc  Sc10  1  0.67973809  0.67848212  0.31939583  1
  Sc  Sc11  1  0.17877472  0.67955748  0.82030319  1
  Si  Si0  1  0.14492839  0.99845650  0.25032788  1
  Si  Si1  1  0.65304190  0.99604051  0.25303454  1
  Si  Si2  1  0.35071997  0.69804399  0.25150577  1
  Si  Si3  1  0.84727993  0.69237580  0.25379609  1
  Si  Si4  1  0.15370541  0.31047357  0.75075261  1
  Si  Si5  1  0.64624333  0.29554282  0.75062401  1
  Si  Si6  1  0.34629806  0.99786013  0.75214890  1
  Si  Si7  1  0.85038057  0.00143923  0.75072493  1
  Si  Si8  1  0.47835204  0.33869032  0.58482117  1
  Si  Si9  1  0.98266684  0.33446697  0.58052545  1
  Si  Si10  1  0.48094442  0.63052755  0.08043607  1
  Si  Si11  1  0.97940257  0.61867115  0.08486794  1
  Si  Si12  1  0.83413547  0.04750310  0.08260210  1
  Si  Si13  1  0.32027960  0.66897310  0.91665731  1
  Si  Si14  1  0.82870759  0.66662561  0.92074202  1
  Si  Si15  1  0.16653833  0.97641024  0.91468183  1
  Si  Si16  1  0.66476102  0.98664172  0.91481665  1
  Si  Si17  1  0.32775167  0.98464990  0.42325096  1
  Si  Si18  1  0.82028022  0.97108662  0.41758746  1
  Si  Si19  1  0.16623015  0.34575049  0.41723583  1
  Si  Si20  1  0.66614625  0.35557109  0.41616813  1
  S  S0  1  0.99629809  0.29744799  0.25338916  1
  S  S1  1  0.50766520  0.30786661  0.25778965  1
  S  S2  1  0.00816741  0.70767944  0.75705420  1
  S  S3  1  0.49505950  0.69359829  0.75174136  1
  S  S4  1  0.19469424  0.05363821  0.58423309  1
  S  S5  1  0.68712175  0.04300832  0.57931157  1
  S  S6  1  0.33286434  0.61372959  0.58324559  1
  S  S7  1  0.83368909  0.62931754  0.57727842  1
  S  S8  1  0.33356887  0.03781995  0.07712818  1
  S  S9  1  0.18834816  0.33250435  0.07922604  1
  S  S10  1  0.69352798  0.33495954  0.08387649  1
  S  S11  1  0.01446257  0.35854001  0.91017785  1
  S  S12  1  0.50855367  0.35226752  0.91564033  1
  S  S13  1  0.00794761  0.66572873  0.41564170  1
  S  S14  1  0.51235225  0.66842612  0.41230293  1
  O  O0  1  0.09187093  0.00855708  0.30528598  1
  O  O1  1  0.60245544  0.02209251  0.30598713  1
  O  O2  1  0.40612825  0.81278888  0.30545889  1
  O  O3  1  0.90776564  0.79133029  0.30791341  1
  O  O4  1  0.49971135  0.20355121  0.30759209  1
  O  O5  1  0.98766987  0.19528211  0.30485101  1
  O  O6  1  0.10506680  0.18096413  0.80310009  1
  O  O7  1  0.59036788  0.17396172  0.80316835  1
  O  O8  1  0.48524229  0.77755591  0.80263801  1
  O  O9  1  0.00128261  0.79730542  0.80617471  1
  O  O10  1  0.40879424  0.02658805  0.80492668  1
  O  O11  1  0.90941783  0.00180743  0.80238411  1
  O  O12  1  0.37806363  0.95449176  0.69287248  1
  O  O13  1  0.88642505  0.98481512  0.68840353  1
  O  O14  1  0.10186523  0.24131490  0.69061359  1
  O  O15  1  0.60335421  0.21792603  0.68812743  1
  O  O16  1  0.01763944  0.79690506  0.70288677  1
  O  O17  1  0.50833559  0.79135141  0.69968708  1
  O  O18  1  0.38852141  0.79118967  0.19047475  1
  O  O19  1  0.87925544  0.80312340  0.19578005  1
  O  O20  1  0.01100873  0.22834306  0.20206603  1
  O  O21  1  0.51667481  0.23587483  0.20415603  1
  O  O22  1  0.10266121  0.99396921  0.18885185  1
  O  O23  1  0.59979331  0.96076816  0.19364769  1
  O  O24  1  0.42769537  0.33662734  0.64325398  1
  O  O25  1  0.94075146  0.34003149  0.64102742  1
  O  O26  1  0.24016925  0.14081145  0.63673832  1
  O  O27  1  0.73032898  0.12049840  0.63296859  1
  O  O28  1  0.33027928  0.52250872  0.63577736  1
  O  O29  1  0.82785450  0.54003906  0.63034925  1
  O  O30  1  0.43790217  0.54145361  0.14102555  1
  O  O31  1  0.92983599  0.52160557  0.14375876  1
  O  O32  1  0.32790240  0.11547380  0.13014034  1
  O  O33  1  0.82984364  0.14291804  0.14114073  1
  O  O34  1  0.23241247  0.34375135  0.13284986  1
  O  O35  1  0.73843813  0.34051012  0.13683460  1
  O  O36  1  0.23525772  0.32382028  0.02876927  1
  O  O37  1  0.73627784  0.32727722  0.03163478  1
  O  O38  1  0.42293154  0.52133066  0.02545184  1
  O  O39  1  0.93041947  0.52115049  0.02688326  1
  O  O40  1  0.33376354  0.13149013  0.02583306  1
  O  O41  1  0.83208343  0.14166367  0.02398443  1
  O  O42  1  0.23734376  0.14774673  0.53200178  1
  O  O43  1  0.73375970  0.14626023  0.52902301  1
  O  O44  1  0.33348567  0.52722964  0.53062145  1
  O  O45  1  0.83390568  0.53641635  0.52608144  1
  O  O46  1  0.42740987  0.33932366  0.52816700  1
  O  O47  1  0.92540991  0.32866831  0.52540954  1
  O  O48  1  0.28309207  0.70411331  0.97475014  1
  O  O49  1  0.79203727  0.71089803  0.97765726  1
  O  O50  1  0.06419690  0.42296197  0.96244276  1
  O  O51  1  0.56377277  0.43085607  0.96424899  1
  O  O52  1  0.14431837  0.86751395  0.97382665  1
  O  O53  1  0.64064650  0.85893092  0.96899192  1
  O  O54  1  0.29223651  0.87323443  0.48197371  1
  O  O55  1  0.78418557  0.86418536  0.47663890  1
  O  O56  1  0.14487492  0.42578714  0.47300101  1
  O  O57  1  0.64278535  0.41648038  0.47603665  1
  O  O58  1  0.06221065  0.69904349  0.46550029  1
  O  O59  1  0.56213765  0.70302224  0.46461044  1
  O  O60  1  0.04234888  0.63042539  0.36468572  1
  O  O61  1  0.55294655  0.63818228  0.36334479  1
  O  O62  1  0.25681555  0.90405348  0.37449113  1
  O  O63  1  0.75546264  0.87515046  0.36541322  1
  O  O64  1  0.18605496  0.46731791  0.36200565  1
  O  O65  1  0.68034853  0.48979836  0.36577487  1
  O  O66  1  0.05716500  0.46942885  0.86100222  1
  O  O67  1  0.54113051  0.45206186  0.86307605  1
  O  O68  1  0.18152339  0.87306674  0.86330274  1
  O  O69  1  0.68178917  0.90397125  0.85847765  1
  O  O70  1  0.25708629  0.63628733  0.86296308  1
  O  O71  1  0.75941774  0.60685584  0.87039345  1
  O  O72  1  0.99805585  0.81142363  0.40948121  1
  O  O73  1  0.50182904  0.81278535  0.40414778  1
  O  O74  1  0.41559259  0.99461117  0.40945008  1
  O  O75  1  0.91151767  0.99420021  0.40705210  1
  O  O76  1  0.08466343  0.16272312  0.40950243  1
  O  O77  1  0.58727513  0.17093546  0.40630794  1
  O  O78  1  0.00367001  0.19290939  0.90214166  1
  O  O79  1  0.49741811  0.18527416  0.90972452  1
  O  O80  1  0.08881691  0.00446553  0.90413185  1
  O  O81  1  0.58324912  0.00804868  0.90773915  1
  O  O82  1  0.41132855  0.82868896  0.90579193  1
  O  O83  1  0.91662771  0.83507742  0.90743306  1
  O  O84  1  0.48145357  0.16477794  0.57996646  1
  O  O85  1  0.98789521  0.16315766  0.57550888  1
  O  O86  1  0.11235812  0.03563741  0.58453143  1
  O  O87  1  0.60541244  0.02898016  0.57788233  1
  O  O88  1  0.40482124  0.78100612  0.58192051  1
  O  O89  1  0.90752588  0.79458175  0.57652547  1
  O  O90  1  0.48513653  0.81119818  0.07534826  1
  O  O91  1  0.98602857  0.80075171  0.08044133  1
  O  O92  1  0.40760044  0.02131978  0.07630546  1
  O  O93  1  0.91217652  0.01803798  0.07823072  1
  O  O94  1  0.10767126  0.18359923  0.07790348  1
  O  O95  1  0.61147561  0.18488848  0.08402034  1
  O  O96  1  0.33907298  0.16634215  0.74664491  1
  O  O97  1  0.85206506  0.17787886  0.75661266  1
  O  O98  1  0.24610424  0.33104247  0.74471802  1
  O  O99  1  0.73471397  0.30361078  0.75513313  1
  O  O100  1  0.41701478  0.53151157  0.74713094  1
  O  O101  1  0.93502065  0.54176748  0.75664633  1
  O  O102  1  0.35291496  0.52571460  0.25751156  1
  O  O103  1  0.84069951  0.51144752  0.24864452  1
  O  O104  1  0.43438057  0.32686561  0.25727565  1
  O  O105  1  0.91878104  0.30390445  0.24947335  1
  O  O106  1  0.23451875  0.16660071  0.25614145  1
  O  O107  1  0.74381207  0.16221769  0.24817653  1
  O  O108  1  0.32880053  0.50197213  0.92069652  1
  O  O109  1  0.84294044  0.50936361  0.92660285  1
  O  O110  1  0.42550966  0.33175025  0.92534009  1
  O  O111  1  0.93278327  0.34333060  0.91682050  1
  O  O112  1  0.25210872  0.15612239  0.92019394  1
  O  O113  1  0.74779340  0.16614092  0.92376191  1
  O  O114  1  0.34330401  0.17263009  0.42761383  1
  O  O115  1  0.82950474  0.15574520  0.42177889  1
  O  O116  1  0.24947426  0.33252810  0.42719060  1
  O  O117  1  0.75129613  0.34641444  0.42164687  1
  O  O118  1  0.42946868  0.52192766  0.42011012  1
  O  O119  1  0.92506687  0.52059220  0.42542567  1
  O  O120  1  0.18321578  0.48351427  0.07629184  1
  O  O121  1  0.68653184  0.48424924  0.08309635  1
  O  O122  1  0.07473635  0.65435507  0.08792238  1
  O  O123  1  0.57383880  0.66112157  0.08097972  1
  O  O124  1  0.25955931  0.87031300  0.07742823  1
  O  O125  1  0.75005480  0.86384735  0.08662761  1
  O  O126  1  0.18985131  0.89158240  0.58382640  1
  O  O127  1  0.68143473  0.88150482  0.57643336  1
  O  O128  1  0.25688347  0.62765103  0.58448588  1
  O  O129  1  0.75937371  0.64804203  0.57760909  1
  O  O130  1  0.07736739  0.49077290  0.58127722  1
  O  O131  1  0.57345624  0.49072792  0.58712641  1
  O  O132  1  0.14405981  0.82345431  0.25256743  1
  O  O133  1  0.65938483  0.82872450  0.26228207  1
  O  O134  1  0.25421550  0.65027571  0.24999655  1
  O  O135  1  0.75470564  0.66686551  0.26274920  1
  O  O136  1  0.06569053  0.46597912  0.25991579  1
  O  O137  1  0.58122391  0.47340838  0.26344427  1
  O  O138  1  0.16036072  0.49091975  0.76024028  1
  O  O139  1  0.64492006  0.46765876  0.75253591  1
  O  O140  1  0.08191430  0.68889532  0.76209200  1
  O  O141  1  0.56401248  0.66383524  0.75793381  1
  O  O142  1  0.25389445  0.83990096  0.76097619  1
  O  O143  1  0.75404500  0.85548459  0.75000092  1
loop_
_geom_bond_atom_site_label_1
_geom_bond_atom_site_label_2
_geom_bond_distance
_geom_bond_site_symmetry_2
Na0 O133 2.499929 1_555
Na0 O107 2.518940 1_565
Na0 O105 2.656541 1_565
Na0 O135 2.708830 1_555
Na0 O33 2.720994 1_565
Na0 O19 2.884323 1_555
Na1 O134 2.355465 1_555
Na1 O106 2.453395 1_555
Na1 O64 2.529542 1_555
Na1 O102 2.717735 1_555
Na1 O136 2.903310 1_555
Na2 O103 2.442722 1_555
Na2 O135 2.454190 1_555
Na2 O107 2.595441 1_555
Na2 O137 2.738669 1_555
Na2 O65 2.826173 1_555
Na3 O132 2.449276 1_655
Na3 O103 2.565312 1_555
Na3 O31 2.592356 1_555
Na3 O136 2.667871 1_655
Na3 O105 2.823761 1_555
Na4 O102 2.524868 1_555
Na4 O133 2.550025 1_555
Na4 O104 2.732760 1_555
Na4 O30 2.753348 1_555
Na4 O137 2.785510 1_555
Na4 O23 2.789162 1_555
Na4 O61 2.903195 1_555
Na5 O138 2.441215 1_555
Na5 O98 2.493893 1_555
Na5 O142 2.644371 1_555
Na5 O100 2.664511 1_555
Na5 O70 2.732555 1_555
Na6 O97 2.498160 1_455
Na6 O138 2.580606 1_555
Na6 O101 2.714496 1_455
Na6 O140 2.789199 1_555
Na6 O66 2.789926 1_555
Na6 O25 2.816175 1_455
Na6 O14 2.896295 1_555
Na7 O139 2.385022 1_555
Na7 O141 2.606872 1_555
Na7 O96 2.651217 1_555
Na7 O24 2.796783 1_555
Na7 O67 2.823018 1_555
Na7 O100 2.867562 1_555
Na7 O10 2.951318 1_555
Na8 O142 2.496211 1_545
Na8 O96 2.528895 1_555
Na8 O68 2.649102 1_545
Na8 O140 2.660992 1_545
Na8 O98 2.701157 1_555
Na8 O6 2.900214 1_555
Na9 O143 2.367565 1_545
Na9 O69 2.369706 1_545
Na9 O99 2.458125 1_555
Na9 O97 2.666976 1_555
Na10 O130 2.349693 1_555
Na10 O85 2.527689 1_455
Na10 O128 2.540591 1_555
Na10 O86 2.580439 1_555
Na10 O14 2.630962 1_555
Na10 O56 2.712813 1_555
Na11 O131 2.374782 1_555
Na11 O84 2.594450 1_555
Na11 O15 2.614251 1_555
Na11 O87 2.623287 1_555
Na11 O57 2.628221 1_555
Na11 O129 2.693428 1_555
Na12 O84 2.385229 1_565
Na12 O54 2.421749 1_555
Na12 O126 2.504352 1_555
Na12 O88 2.729361 1_555
Na12 O12 2.841523 1_555
Na12 O128 2.877239 1_555
Na13 O85 2.459569 1_565
Na13 O55 2.628113 1_555
Na13 O89 2.638013 1_555
Na13 O127 2.653551 1_555
Na13 O13 2.692427 1_555
Na13 O129 2.708159 1_555
Na14 O122 2.379822 1_555
Na14 O91 2.454063 1_455
Na14 O94 2.580626 1_565
Na14 O22 2.584896 1_555
Na14 O52 2.741457 1_554
Na14 O124 2.771088 1_555
Na15 O123 2.423090 1_555
Na15 O125 2.426315 1_555
Na15 O95 2.624647 1_565
Na15 O23 2.713897 1_555
Na15 O90 2.747903 1_555
Na15 O53 2.848707 1_554
Na16 O90 2.428789 1_555
Na16 O120 2.607067 1_555
Na16 O92 2.651859 1_565
Na16 O48 2.674950 1_554
Na16 O124 2.702061 1_555
Na16 O18 2.752396 1_555
Na17 O93 2.475019 1_565
Na17 O49 2.479526 1_554
Na17 O91 2.498912 1_555
Na17 O121 2.599516 1_555
Na17 O125 2.670417 1_555
Na17 O19 2.885608 1_555
Na18 O82 2.435995 1_555
Na18 O81 2.623472 1_565
Na18 O108 2.650125 1_555
Na18 O53 2.696087 1_555
Na18 O38 2.778055 1_556
Na18 O8 2.966824 1_555
Na18 O110 2.999860 1_555
Na19 O109 2.355240 1_555
Na19 O83 2.413009 1_555
Na19 O80 2.709848 1_665
Na19 O39 2.734739 1_556
Na19 O111 2.854653 1_555
Na19 O52 2.856894 1_655
Na19 O9 2.936884 1_655
Na20 O79 2.589394 1_555
Na20 O112 2.634238 1_555
Na20 O110 2.644478 1_555
Na20 O82 2.682707 1_545
Na20 O10 2.783867 1_555
Na20 O68 2.840962 1_545
Na20 O40 2.919614 1_556
Na20 O48 2.937508 1_545
Na21 O111 2.654126 1_555
Na21 O78 2.685172 1_655
Na21 O41 2.721469 1_556
Na21 O113 2.750251 1_555
Na21 O83 2.763279 1_545
Na21 O49 2.906751 1_545
Na22 O80 2.377986 1_555
Na22 O112 2.515903 1_555
Na22 O108 2.676251 1_555
Na22 O6 2.678485 1_555
Na22 O78 2.784906 1_555
Na22 O70 2.977621 1_555
Na23 O113 2.351862 1_555
Na23 O81 2.519602 1_555
Na23 O71 2.578833 1_555
Na23 O109 2.736236 1_555
Na24 O114 2.412147 1_555
Na24 O74 2.416923 1_545
Na24 O77 2.620114 1_555
Na24 O4 2.753532 1_555
Na24 O57 2.871930 1_555
Na24 O118 2.938518 1_555
Na24 O46 2.943920 1_555
Na25 O75 2.369378 1_545
Na25 O115 2.586763 1_555
Na25 O76 2.622298 1_655
Na25 O5 2.822275 1_555
Na25 O47 2.836403 1_555
Na25 O56 2.884200 1_655
Na26 O116 2.447652 1_555
Na26 O76 2.456043 1_555
Na26 O62 2.600338 1_545
Na26 O0 2.699221 1_555
Na26 O114 2.878211 1_555
Na26 O72 2.912350 1_445
Na27 O77 2.417767 1_555
Na27 O117 2.503399 1_555
Na27 O1 2.578745 1_555
Na27 O115 2.668759 1_555
Na27 O73 2.842315 1_545
Na27 O63 2.911392 1_545
Na28 O73 2.614989 1_555
Na28 O118 2.641318 1_555
Na28 O74 2.680786 1_555
Na28 O2 2.713469 1_555
Na28 O116 2.787333 1_555
Na28 O64 2.814628 1_555
Na29 O72 2.602952 1_555
Na29 O3 2.636169 1_555
Na29 O119 2.647735 1_555
Na29 O117 2.657250 1_555
Na29 O75 2.675762 1_555
Na29 O65 2.798788 1_555
Na30 O85 2.434977 1_555
Na30 O76 2.470102 1_655
Na30 O75 2.516978 1_545
Na30 O89 2.747383 1_545
Na30 O72 2.755569 1_545
Na30 O86 3.010371 1_655
Na31 O74 2.421356 1_545
Na31 O77 2.534353 1_555
Na31 O84 2.581470 1_555
Na31 O87 2.830614 1_555
Na31 O73 2.856276 1_545
Na31 O88 2.939303 1_545
Na32 O93 2.440618 1_565
Na32 O91 2.507369 1_555
Na32 O83 2.559758 1_554
Na32 O94 2.801091 1_665
Na32 O80 2.887499 1_664
Na32 O78 2.972544 1_664
Na33 O90 2.392062 1_556
Na33 O81 2.498004 1_565
Na33 O82 2.615743 1_555
Na33 O92 2.739698 1_566
Na33 O79 2.794191 1_565
Na33 O95 2.907178 1_566
Na34 O112 2.462690 1_555
Na34 O98 2.574805 1_555
Na34 O108 2.599322 1_555
Na34 O96 2.638323 1_555
Na34 O100 2.791522 1_555
Na34 O110 2.862848 1_555
Na35 O113 2.472821 1_555
Na35 O99 2.484811 1_555
Na35 O109 2.566549 1_555
Na35 O97 2.627237 1_555
Na35 O111 2.749919 1_555
Na35 O101 2.820935 1_555
Na36 O106 2.369970 1_555
Na36 O102 2.484092 1_555
Na36 O116 2.638004 1_555
Na36 O104 2.723746 1_555
Na36 O114 2.737195 1_555
Na36 O118 2.857234 1_555
Na37 O107 2.397674 1_555
Na37 O103 2.441857 1_555
Na37 O117 2.629659 1_555
Na37 O105 2.659294 1_555
Na37 O115 2.774182 1_555
Na37 O119 2.977365 1_555
Na38 O132 2.438659 1_555
Na38 O122 2.519630 1_555
Na38 O134 2.624842 1_555
Na38 O136 2.831046 1_555
Na38 O124 2.841294 1_555
Na39 O125 2.435255 1_555
Na39 O123 2.556930 1_555
Na39 O133 2.688230 1_555
Na39 O121 2.854370 1_555
Na39 O135 2.905501 1_555
Na39 O137 2.956225 1_555
Na40 O138 2.512912 1_555
Na40 O130 2.613065 1_555
Na40 O140 2.661646 1_555
Na40 O142 2.760635 1_555
Na40 O128 2.859161 1_555
Na40 O126 2.961732 1_555
Na41 O139 2.393716 1_555
Na41 O143 2.533325 1_555
Na41 O131 2.633390 1_555
Na41 O141 2.806247 1_555
Na41 O129 2.857012 1_555
La0 O13 2.177879 1_545
La0 O14 2.259217 1_655
La0 O85 2.407043 1_555
La0 O16 2.490577 1_645
La0 O86 2.592526 1_655
La0 O89 2.617742 1_545
La1 O15 2.207192 1_555
La1 O12 2.246693 1_545
La1 O84 2.355117 1_555
La1 O17 2.428774 1_545
La1 O88 2.535188 1_545
La1 O87 2.610118 1_555
La2 O19 2.252061 1_555
La2 O22 2.300461 1_655
La2 O93 2.325556 1_565
La2 O91 2.361071 1_555
La2 O20 2.437095 1_665
La2 O94 2.618652 1_665
La3 O18 2.187630 1_555
La3 O23 2.253129 1_555
La3 O90 2.382024 1_555
La3 O21 2.507513 1_565
La3 O95 2.547294 1_565
La3 O92 2.624394 1_565
La4 O25 2.258064 1_555
La4 O97 2.312405 1_555
La4 O99 2.358762 1_555
La4 O29 2.416150 1_555
La4 O27 2.435754 1_555
La4 O101 2.459353 1_555
La5 O30 2.236810 1_555
La5 O102 2.339443 1_555
La5 O106 2.373173 1_555
La5 O32 2.400943 1_555
La5 O34 2.415104 1_555
La5 O104 2.474844 1_555
La6 O52 2.238174 1_554
La6 O122 2.350385 1_555
La6 O48 2.359035 1_554
La6 O50 2.382156 1_554
La6 O124 2.470160 1_555
La6 O120 2.508192 1_555
La7 O53 2.272319 1_554
La7 O123 2.319138 1_555
La7 O125 2.337685 1_555
La7 O49 2.347477 1_554
La7 O51 2.518769 1_554
La7 O121 2.601159 1_555
La8 O56 2.240353 1_555
La8 O130 2.297521 1_555
La8 O54 2.340334 1_555
La8 O58 2.413466 1_555
La8 O128 2.563669 1_555
La8 O126 2.616739 1_555
La9 O57 2.243995 1_555
La9 O55 2.331754 1_555
La9 O131 2.384634 1_555
La9 O59 2.389348 1_555
La9 O129 2.470090 1_555
La9 O127 2.515713 1_555
La10 O62 2.231021 1_555
La10 O134 2.270521 1_555
La10 O132 2.313660 1_555
La10 O64 2.382099 1_555
La10 O136 2.551661 1_555
La10 O60 2.615739 1_555
La11 O71 2.205589 1_555
La11 O143 2.286265 1_555
La11 O139 2.338324 1_555
La11 O69 2.349832 1_555
La11 O67 2.606658 1_555
La11 O141 2.631714 1_555
O0 Si0 1.659360 1_545
O0 Sc0 1.980211 1_445
O1 Si1 1.654210 1_545
O1 Sc1 2.052182 1_545
O2 Si2 1.654291 1_555
O2 Sc1 2.029148 1_555
O3 Si3 1.650193 1_555
O3 Sc0 2.033772 1_555
O4 S1 1.482845 1_555
O4 Sc1 2.152291 1_545
O5 S0 1.498438 1_555
O5 Sc0 2.247240 1_545
O6 Si4 1.644636 1_555
O6 Sc2 2.121184 1_555
O7 Si5 1.649029 1_555
O7 Sc3 1.982248 1_555
O8 S3 1.491778 1_555
O8 Sc3 2.300720 1_565
O9 S2 1.470489 1_555
O9 Sc2 2.163786 1_565
O10 Si6 1.638004 1_545
O10 Sc3 2.083464 1_555
O11 Si7 1.646853 1_555
O11 Sc2 2.032337 1_655
O12 Si6 1.639679 1_555
O13 Si7 1.646181 1_565
O14 Si4 1.652873 1_555
O15 Si5 1.655686 1_555
O16 S2 1.480327 1_555
O17 S3 1.469971 1_555
O18 Si2 1.637312 1_555
O19 Si3 1.630384 1_555
O20 S0 1.456841 1_455
O21 S1 1.475625 1_555
O22 Si0 1.636674 1_555
O23 Si1 1.650965 1_555
O24 Si8 1.659858 1_555
O24 Sc4 1.985712 1_555
O25 Si9 1.632031 1_555
O26 S4 1.490773 1_555
O26 Sc4 2.163393 1_555
O27 S5 1.478032 1_555
O28 S6 1.486347 1_555
O28 Sc4 2.284695 1_555
O29 S7 1.472064 1_555
O30 Si10 1.637060 1_555
O31 Si11 1.656099 1_555
O31 Sc5 2.001029 1_555
O32 S8 1.470620 1_555
O33 Si12 1.662550 1_555
O33 Sc5 1.991863 1_555
O34 S9 1.481627 1_555
O35 S10 1.489693 1_555
O35 Sc5 2.185704 1_555
O36 S9 1.500153 1_555
O36 Sc6 2.132357 1_554
O37 S10 1.483726 1_555
O37 Sc7 2.180342 1_554
O38 Si10 1.672569 1_555
O38 Sc6 1.985538 1_554
O39 Si11 1.642644 1_555
O39 Sc7 2.010001 1_554
O40 S8 1.488894 1_555
O40 Sc6 2.307640 1_554
O41 Si12 1.644351 1_555
O41 Sc7 1.996886 1_554
O42 S4 1.484947 1_555
O42 Sc8 2.175237 1_555
O43 S5 1.497110 1_555
O43 Sc9 2.153935 1_555
O44 S6 1.480041 1_555
O44 Sc8 2.229960 1_555
O45 S7 1.485401 1_555
O45 Sc9 2.317543 1_555
O46 Si8 1.642267 1_555
O46 Sc8 1.982604 1_555
O47 Si9 1.669388 1_555
O47 Sc9 2.014035 1_555
O48 Si13 1.635664 1_555
O49 Si14 1.646170 1_555
O50 S11 1.477325 1_555
O51 S12 1.471595 1_555
O52 Si15 1.645396 1_555
O53 Si16 1.646679 1_555
O54 Si17 1.651285 1_555
O55 Si18 1.640754 1_555
O56 Si19 1.654331 1_555
O57 Si20 1.653587 1_555
O58 S13 1.481924 1_555
O59 S14 1.479272 1_555
O60 S13 1.471412 1_555
O61 S14 1.481447 1_555
O61 Sc10 2.455740 1_555
O62 Si17 1.633630 1_555
O63 Si18 1.646521 1_555
O63 Sc10 2.003190 1_555
O64 Si19 1.640350 1_555
O65 Si20 1.650736 1_555
O65 Sc10 2.092805 1_555
O66 S11 1.488745 1_555
O66 Sc11 2.357194 1_555
O67 S12 1.479699 1_555
O68 Si15 1.659091 1_555
O68 Sc11 2.066087 1_555
O69 Si16 1.642352 1_555
O70 Si13 1.655690 1_555
O70 Sc11 1.994841 1_555
O71 Si14 1.641055 1_555
O72 S13 1.488144 1_655
O72 Sc0 2.249360 1_555
O73 S14 1.487999 1_555
O73 Sc1 2.218449 1_555
O74 Si17 1.649199 1_555
O74 Sc1 2.162309 1_555
O75 Si18 1.647101 1_555
O75 Sc0 2.140237 1_555
O76 Si19 1.655210 1_555
O76 Sc0 2.184851 1_445
O77 Si20 1.650524 1_555
O77 Sc1 2.142684 1_545
O78 S11 1.487265 1_555
O78 Sc2 2.193512 1_555
O79 S12 1.491998 1_555
O79 Sc3 2.234004 1_555
O80 Si15 1.640831 1_545
O80 Sc2 2.119209 1_555
O81 Si16 1.663449 1_545
O81 Sc3 2.108030 1_555
O82 Si13 1.645428 1_555
O82 Sc3 2.119401 1_565
O83 Si14 1.657272 1_555
O83 Sc2 2.104631 1_665
O84 Si8 1.679382 1_555
O85 Si9 1.676618 1_555
O86 S4 1.481528 1_555
O87 S5 1.486095 1_555
O88 S6 1.483795 1_555
O89 S7 1.486535 1_555
O90 Si10 1.675082 1_555
O91 Si11 1.666449 1_555
O92 S8 1.486618 1_555
O93 Si12 1.638537 1_555
O94 S9 1.471101 1_555
O95 S10 1.490080 1_555
O96 Si6 1.671687 1_545
O96 Sc4 2.045908 1_555
O97 Si7 1.659247 1_555
O98 Si4 1.666594 1_555
O98 Sc4 2.168017 1_555
O99 Si5 1.642563 1_555
O100 S3 1.509426 1_555
O100 Sc4 2.240144 1_555
O101 S2 1.484806 1_655
O102 Si2 1.657504 1_555
O103 Si3 1.657237 1_555
O103 Sc5 2.254170 1_555
O104 S1 1.486356 1_555
O105 S0 1.502869 1_555
O105 Sc5 2.311466 1_555
O106 Si0 1.650979 1_545
O107 Si1 1.652505 1_545
O107 Sc5 2.261778 1_555
O108 Si13 1.669342 1_555
O108 Sc6 2.041822 1_555
O109 Si14 1.645300 1_555
O109 Sc7 2.103795 1_555
O110 S12 1.501504 1_555
O110 Sc6 2.180064 1_555
O111 S11 1.487739 1_655
O111 Sc7 2.365357 1_555
O112 Si15 1.665805 1_545
O112 Sc6 2.185687 1_555
O113 Si16 1.651553 1_545
O113 Sc7 2.192537 1_555
O114 Si17 1.653905 1_545
O114 Sc8 1.987306 1_555
O115 Si18 1.669290 1_545
O115 Sc9 2.022989 1_555
O116 Si19 1.660111 1_555
O116 Sc8 2.114283 1_555
O117 Si20 1.663272 1_555
O117 Sc9 2.166536 1_555
O118 S14 1.495496 1_555
O118 Sc8 2.266379 1_555
O119 S13 1.496509 1_655
O119 Sc9 2.174183 1_555
O120 S9 1.481341 1_555
O121 S10 1.483325 1_555
O122 Si11 1.664261 1_455
O123 Si10 1.633904 1_555
O124 S8 1.500227 1_565
O125 Si12 1.670473 1_565
O126 S4 1.489366 1_565
O127 S5 1.478489 1_565
O128 S6 1.509595 1_555
O129 S7 1.504153 1_555
O130 Si9 1.657448 1_455
O131 Si8 1.649687 1_555
O132 Si0 1.648283 1_555
O133 Si1 1.660513 1_555
O133 Sc10 2.121369 1_555
O134 Si2 1.649061 1_555
O135 Si3 1.658238 1_555
O135 Sc10 1.980242 1_555
O136 S0 1.481520 1_455
O137 S1 1.492201 1_555
O137 Sc10 2.312061 1_555
O138 Si4 1.662572 1_555
O138 Sc11 2.157714 1_555
O139 Si5 1.641656 1_555
O140 S2 1.498805 1_555
O140 Sc11 2.324348 1_555
O141 S3 1.475023 1_555
O142 Si6 1.647921 1_555
O142 Sc11 2.016829 1_555
O143 Si7 1.646895 1_565
