# generated using pymatgen
data_MgMn6(O2F)4
_symmetry_space_group_name_H-M   'P 1'
_cell_length_a   5.02789242
_cell_length_b   4.97059119
_cell_length_c   8.98697207
_cell_angle_alpha   89.48151291
_cell_angle_beta   91.14741776
_cell_angle_gamma   88.41126876
_symmetry_Int_Tables_number   1
_chemical_formula_structural   MgMn6(O2F)4
_chemical_formula_sum   'Mg1 Mn6 O8 F4'
_cell_volume   224.45706839
_cell_formula_units_Z   1
loop_
 _symmetry_equiv_pos_site_id
 _symmetry_equiv_pos_as_xyz
  1  'x, y, z'
loop_
 _atom_site_type_symbol
 _atom_site_label
 _atom_site_symmetry_multiplicity
 _atom_site_fract_x
 _atom_site_fract_y
 _atom_site_fract_z
 _atom_site_occupancy
  Mg  Mg0  1  0.48098000  0.00082100  0.00299400  1
  Mn  Mn0  1  0.97821900  0.92714500  0.00478800  1
  Mn  Mn1  1  0.04212600  0.02297800  0.32143000  1
  Mn  Mn2  1  0.01155500  0.98296100  0.66006000  1
  Mn  Mn3  1  0.48598400  0.52463000  0.81136500  1
  Mn  Mn4  1  0.51727100  0.49312700  0.17218600  1
  Mn  Mn5  1  0.47576900  0.53294700  0.49899400  1
  O  O0  1  0.24047800  0.83704000  0.15806700  1
  O  O1  1  0.21643800  0.83503700  0.48876800  1
  O  O2  1  0.21170200  0.84179700  0.84788100  1
  O  O3  1  0.32379500  0.34700500  0.33030300  1
  O  O4  1  0.30456400  0.35216000  0.65439100  1
  O  O5  1  0.68037400  0.65389400  0.99284300  1
  O  O6  1  0.68895800  0.67871900  0.65837800  1
  O  O7  1  0.77600600  0.14138500  0.15188900  1
  F  F0  1  0.27931200  0.33268100  0.98414500  1
  F  F1  1  0.71761100  0.68395900  0.34361300  1
  F  F2  1  0.81919600  0.18710100  0.48561800  1
  F  F3  1  0.74966500  0.13850200  0.84657100  1
loop_
_geom_bond_atom_site_label_1
_geom_bond_atom_site_label_2
_geom_bond_distance
_geom_bond_site_symmetry_2
Mg0 O5 1.974261 1_544
Mg0 O0 2.041743 1_545
Mg0 O2 2.098754 1_544
Mg0 O7 2.115174 1_555
Mn0 O2 1.896318 1_654
Mn0 O0 1.928785 1_655
Mn0 O7 1.983592 1_565
Mn0 O5 2.051310 1_554
Mn1 O1 1.943912 1_545
Mn1 O0 2.009054 1_545
Mn1 O7 2.077666 1_455
Mn1 O3 2.174929 1_555
Mn2 O1 2.003379 1_555
Mn2 O2 2.055613 1_555
Mn2 O6 2.247986 1_455
Mn2 O4 2.385775 1_565
Mn3 O4 1.889658 1_555
Mn3 O6 1.897079 1_555
Mn3 O5 2.004493 1_555
Mn3 O2 2.098050 1_555
Mn4 O3 1.889155 1_555
Mn4 O5 1.993685 1_554
Mn4 O7 2.161373 1_555
Mn4 O0 2.175361 1_555
Mn5 O4 1.888694 1_555
Mn5 O6 1.930292 1_555
Mn5 O3 1.937661 1_555
Mn5 O1 1.961482 1_555
F0 Mg0 1.916539 1_556
F0 Mn3 2.119897 1_555
F0 Mn4 2.218023 1_556
F0 Mn0 2.561865 1_446
F1 Mn5 2.022762 1_555
F1 Mn4 2.074880 1_555
F1 Mn1 2.387677 1_665
F2 Mn1 2.033822 1_655
F2 Mn2 2.068520 1_645
F2 Mn5 2.408031 1_555
F3 Mn0 2.070408 1_546
F3 Mg0 2.092707 1_556
F3 Mn2 2.279587 1_645
F3 Mn3 2.317869 1_555
