# generated using pymatgen
data_MgVP2O7
_symmetry_space_group_name_H-M   'P 1'
_cell_length_a   5.48955119
_cell_length_b   5.48955947
_cell_length_c   4.64148334
_cell_angle_alpha   82.84575070
_cell_angle_beta   97.15403616
_cell_angle_gamma   75.83313840
_symmetry_Int_Tables_number   1
_chemical_formula_structural   MgVP2O7
_chemical_formula_sum   'Mg1 V1 P2 O7'
_cell_volume   132.80391375
_cell_formula_units_Z   1
loop_
 _symmetry_equiv_pos_site_id
 _symmetry_equiv_pos_as_xyz
  1  'x, y, z'
loop_
 _atom_site_type_symbol
 _atom_site_label
 _atom_site_symmetry_multiplicity
 _atom_site_fract_x
 _atom_site_fract_y
 _atom_site_fract_z
 _atom_site_occupancy
  Mg  Mg0  1  0.75396000  0.75396000  0.50000000  1
  V  V0  1  0.12564600  0.12565100  0.00000200  1
  P  P0  1  0.67418100  0.25210200  0.40164200  1
  P  P1  1  0.25210100  0.67418200  0.59835900  1
  O  O0  1  0.81184100  0.07715200  0.69168600  1
  O  O1  1  0.36645900  0.83868300  0.78568700  1
  O  O2  1  0.10647800  0.50032500  0.74298200  1
  O  O3  1  0.07715100  0.81184000  0.30831300  1
  O  O4  1  0.51506300  0.51506200  0.49999900  1
  O  O5  1  0.50032600  0.10647500  0.25701700  1
  O  O6  1  0.83868300  0.36645700  0.21431300  1
loop_
_geom_bond_atom_site_label_1
_geom_bond_atom_site_label_2
_geom_bond_distance
_geom_bond_site_symmetry_2
Mg0 O4 2.069208 1_555
Mg0 O3 2.153816 1_655
Mg0 O0 2.153826 1_565
Mg0 O5 2.168349 1_565
Mg0 O2 2.168361 1_655
Mg0 O1 2.621359 1_555
Mg0 O6 2.621374 1_555
O0 P0 1.541132 1_555
O0 V0 2.188988 1_656
O1 P1 1.517461 1_555
O1 V0 2.217478 1_566
O2 P1 1.532339 1_555
O2 V0 2.217262 1_556
O3 P1 1.541137 1_555
O3 V0 2.188988 1_565
O4 P0 1.643608 1_555
O4 P1 1.643625 1_555
O5 P0 1.532354 1_555
O5 V0 2.217271 1_555
O6 P0 1.517456 1_555
O6 V0 2.217430 1_655
