# generated using pymatgen
data_Na4Ca3TiP2(SO6)4
_symmetry_space_group_name_H-M   'P 1'
_cell_length_a   9.12829105
_cell_length_b   9.16513723
_cell_length_c   23.35560429
_cell_angle_alpha   90.30706721
_cell_angle_beta   89.96164221
_cell_angle_gamma   119.77948200
_symmetry_Int_Tables_number   1
_chemical_formula_structural   Na4Ca3TiP2(SO6)4
_chemical_formula_sum   'Na12 Ca9 Ti3 P6 S12 O72'
_cell_volume   1695.91299100
_cell_formula_units_Z   3
loop_
 _symmetry_equiv_pos_site_id
 _symmetry_equiv_pos_as_xyz
  1  'x, y, z'
loop_
 _atom_site_type_symbol
 _atom_site_label
 _atom_site_symmetry_multiplicity
 _atom_site_fract_x
 _atom_site_fract_y
 _atom_site_fract_z
 _atom_site_occupancy
  Na  Na0  1  0.63794114  0.00027888  0.25585513  1
  Na  Na1  1  0.36017723  0.36055976  0.24994283  1
  Na  Na2  1  0.31190946  0.34562506  0.59187854  1
  Na  Na3  1  0.66359120  0.95066696  0.57888792  1
  Na  Na4  1  0.98781148  0.68093137  0.91442012  1
  Na  Na5  1  0.31835870  0.29785943  0.91039750  1
  Na  Na6  1  0.97962108  0.97570598  0.49597057  1
  Na  Na7  1  0.98511573  0.00237769  0.99682461  1
  Na  Na8  1  0.65689467  0.31870506  0.82357343  1
  Na  Na9  1  0.68075507  0.33781035  0.34093724  1
  Na  Na10  1  0.31412349  0.66489022  0.15927913  1
  Na  Na11  1  0.32613730  0.66325565  0.67713897  1
  Ca  Ca0  1  0.99438798  0.99646664  0.35463506  1
  Ca  Ca1  1  0.99368493  0.00100029  0.84719461  1
  Ca  Ca2  1  0.00145529  0.99121034  0.65646302  1
  Ca  Ca3  1  0.99947606  0.99426874  0.14158536  1
  Ca  Ca4  1  0.66775607  0.34378168  0.68849703  1
  Ca  Ca5  1  0.67613374  0.34238015  0.18056973  1
  Ca  Ca6  1  0.33900457  0.67053367  0.01684343  1
  Ca  Ca7  1  0.33305632  0.66954028  0.51191344  1
  Ca  Ca8  1  0.33453126  0.68069175  0.32845789  1
  Ti  Ti0  1  0.66490165  0.32506862  0.97478521  1
  Ti  Ti1  1  0.66880067  0.33892734  0.48273457  1
  Ti  Ti2  1  0.33508024  0.65670109  0.82231274  1
  P  P0  1  0.30678921  0.32004065  0.75525576  1
  P  P1  1  0.66738889  0.62342044  0.57910940  1
  P  P2  1  0.62470227  0.65270455  0.91890143  1
  P  P3  1  0.03577565  0.37855143  0.91838810  1
  P  P4  1  0.34359924  0.96267808  0.91741350  1
  P  P5  1  0.64546315  0.99295207  0.42176753  1
  S  S0  1  0.30182742  0.00045325  0.24928003  1
  S  S1  1  0.69369911  0.69901522  0.25028749  1
  S  S2  1  0.00394653  0.29888125  0.24998871  1
  S  S3  1  0.01905871  0.69388169  0.75678570  1
  S  S4  1  0.67536534  0.98185704  0.75114306  1
  S  S5  1  0.95401266  0.33023050  0.58016221  1
  S  S6  1  0.38191680  0.05115210  0.58014450  1
  S  S7  1  0.95445951  0.62265957  0.07634043  1
  S  S8  1  0.66937198  0.04888963  0.07970411  1
  S  S9  1  0.37668206  0.33124392  0.07948012  1
  S  S10  1  0.34656424  0.35882405  0.41913475  1
  S  S11  1  0.01195657  0.65296750  0.42067343  1
  O  O0  1  0.21830712  0.01613598  0.30070163  1
  O  O1  1  0.79022730  0.78026957  0.30217368  1
  O  O2  1  0.98622504  0.19716684  0.30096266  1
  O  O3  1  0.21489860  0.21011689  0.80640167  1
  O  O4  1  0.99611380  0.77194511  0.80860970  1
  O  O5  1  0.78661888  0.00279121  0.79898958  1
  O  O6  1  0.74378120  0.95802655  0.69578843  1
  O  O7  1  0.20999693  0.25535319  0.69714703  1
  O  O8  1  0.04006711  0.79475442  0.70492317  1
  O  O9  1  0.77724456  0.79736704  0.19864356  1
  O  O10  1  0.02180570  0.21604725  0.19780383  1
  O  O11  1  0.20633313  0.98831155  0.19702309  1
  O  O12  1  0.87734591  0.34425216  0.63294708  1
  O  O13  1  0.47802731  0.12560333  0.63263536  1
  O  O14  1  0.64897802  0.52307397  0.63248761  1
  O  O15  1  0.87332974  0.53724600  0.12965495  1
  O  O16  1  0.66467178  0.12299875  0.13533295  1
  O  O17  1  0.45908310  0.33554499  0.13448474  1
  O  O18  1  0.48207600  0.32971315  0.02923528  1
  O  O19  1  0.85181915  0.52085572  0.02482355  1
  O  O20  1  0.67094949  0.16009173  0.03094794  1
  O  O21  1  0.47839355  0.15709964  0.52933646  1
  O  O22  1  0.67196799  0.51265154  0.52640986  1
  O  O23  1  0.84861228  0.32468752  0.52919277  1
  O  O24  1  0.55424060  0.68185979  0.97245933  1
  O  O25  1  0.13977289  0.45395712  0.97134011  1
  O  O26  1  0.30443931  0.85877782  0.97081760  1
  O  O27  1  0.55301864  0.88197815  0.47283799  1
  O  O28  1  0.32546268  0.44262648  0.46937461  1
  O  O29  1  0.11528811  0.67174946  0.47052788  1
  O  O30  1  0.08159106  0.62416079  0.36749896  1
  O  O31  1  0.54655120  0.92903527  0.36422532  1
  O  O32  1  0.36925209  0.45577890  0.36582672  1
  O  O33  1  0.12948321  0.50387620  0.86628528  1
  O  O34  1  0.37113268  0.87225085  0.86518307  1
  O  O35  1  0.49942603  0.62570233  0.86669283  1
  O  O36  1  0.98654434  0.79930818  0.41647853  1
  O  O37  1  0.82586701  0.02138179  0.41850622  1
  O  O38  1  0.20392190  0.18606434  0.41509938  1
  O  O39  1  0.00914321  0.20206564  0.90843883  1
  O  O40  1  0.19995674  0.00432128  0.90769268  1
  O  O41  1  0.80694583  0.78759679  0.90764467  1
  O  O42  1  0.95946321  0.16882967  0.57888390  1
  O  O43  1  0.21669591  0.04823496  0.58087069  1
  O  O44  1  0.82459837  0.80162486  0.57689506  1
  O  O45  1  0.96202432  0.78855141  0.07308886  1
  O  O46  1  0.82716955  0.04051894  0.07453911  1
  O  O47  1  0.20998638  0.17485966  0.07531933  1
  O  O48  1  0.65002710  0.12927413  0.74824082  1
  O  O49  1  0.48896424  0.35280881  0.75270538  1
  O  O50  1  0.87473714  0.52132557  0.75127582  1
  O  O51  1  0.66358076  0.52335429  0.24739111  1
  O  O52  1  0.84760066  0.31269241  0.24719011  1
  O  O53  1  0.47507958  0.15790589  0.24726427  1
  O  O54  1  0.62449522  0.47610149  0.92415378  1
  O  O55  1  0.85621521  0.37043762  0.92430674  1
  O  O56  1  0.51153186  0.14523082  0.92741818  1
  O  O57  1  0.66021377  0.17234869  0.43316410  1
  O  O58  1  0.50652894  0.34719751  0.42556401  1
  O  O59  1  0.83963038  0.49677744  0.42742546  1
  O  O60  1  0.35781874  0.48166314  0.07821313  1
  O  O61  1  0.12446275  0.64266352  0.07617507  1
  O  O62  1  0.51948854  0.88200046  0.07676249  1
  O  O63  1  0.35898980  0.88010610  0.57442323  1
  O  O64  1  0.50430651  0.63837766  0.57400658  1
  O  O65  1  0.12890594  0.47240819  0.57490681  1
  O  O66  1  0.33095346  0.85376268  0.25190429  1
  O  O67  1  0.52083093  0.68523798  0.25349531  1
  O  O68  1  0.15916835  0.46832587  0.25455591  1
  O  O69  1  0.31834496  0.49919062  0.76857304  1
  O  O70  1  0.17888532  0.68395384  0.76252602  1
  O  O71  1  0.50650620  0.82470057  0.76011644  1
loop_
_geom_bond_atom_site_label_1
_geom_bond_atom_site_label_2
_geom_bond_distance
_geom_bond_site_symmetry_2
Na0 O66 2.434254 1_545
Na0 O67 2.532820 1_545
Na0 O52 2.542565 1_555
Na0 O53 2.544475 1_555
Na0 O31 2.646190 1_545
Na1 O51 2.407529 1_555
Na1 O68 2.480456 1_555
Na1 O53 2.547066 1_555
Na1 O67 2.583634 1_555
Na1 O32 2.827894 1_555
Na1 O17 2.887044 1_555
Na1 O10 2.949846 1_555
Na1 O0 3.004088 1_555
Na2 O64 2.405830 1_555
Na2 O43 2.426967 1_555
Na2 O65 2.496379 1_555
Na2 O7 2.617042 1_555
Na2 O42 2.808204 1_455
Na2 O14 2.833435 1_555
Na2 O28 2.984865 1_555
Na3 O42 2.434773 1_565
Na3 O44 2.453901 1_555
Na3 O64 2.486373 1_555
Na3 O63 2.524627 1_555
Na3 O27 2.627808 1_555
Na3 O6 2.818948 1_555
Na4 O41 2.304731 1_555
Na4 O55 2.491083 1_555
Na4 O4 2.601492 1_555
Na4 O40 2.619693 1_665
Na4 O33 2.762717 1_655
Na4 O26 2.836891 1_655
Na4 O54 2.897231 1_555
Na4 O19 2.927368 1_556
Na5 O40 2.349447 1_555
Na5 O54 2.458062 1_555
Na5 O39 2.505627 1_555
Na5 O3 2.581826 1_555
Na5 O56 2.771520 1_555
Na5 O35 2.810624 1_555
Na6 O44 2.430298 1_555
Na6 O37 2.452251 1_565
Na6 O36 2.476653 1_555
Na6 O42 2.683855 1_565
Na6 O38 2.754905 1_665
Na6 O43 2.760378 1_665
Na7 O46 2.446576 1_556
Na7 O45 2.585399 1_546
Na7 O47 2.612311 1_656
Na7 O39 2.701874 1_655
Na7 O41 2.763838 1_545
Na7 O40 2.853101 1_655
Na8 O49 2.381594 1_555
Na8 O48 2.443993 1_555
Na8 O50 2.571974 1_555
Na8 O54 2.841360 1_555
Na8 O56 2.848212 1_555
Na8 O55 2.864825 1_555
Na9 O59 2.485925 1_555
Na9 O58 2.563826 1_555
Na9 O57 2.593581 1_555
Na9 O52 2.739521 1_555
Na9 O53 2.814576 1_555
Na9 O51 2.827537 1_555
Na10 O61 2.540871 1_555
Na10 O60 2.682192 1_555
Na10 O66 2.719594 1_555
Na10 O62 2.742054 1_555
Na10 O68 2.775885 1_555
Na10 O67 2.844087 1_555
Na11 O70 2.462822 1_555
Na11 O71 2.491912 1_555
Na11 O69 2.598929 1_555
Na11 O65 2.972347 1_555
Na11 O64 2.975946 1_555
Na11 O63 3.041906 1_555
Ca0 O37 2.232949 1_565
Ca0 O2 2.263071 1_565
Ca0 O1 2.282454 1_555
Ca0 O36 2.292577 1_555
Ca0 O38 2.312580 1_665
Ca0 O0 2.330260 1_665
Ca1 O3 2.198012 1_655
Ca1 O5 2.207803 1_555
Ca1 O39 2.274982 1_655
Ca1 O4 2.290347 1_545
Ca1 O41 2.332181 1_545
Ca1 O40 2.342846 1_655
Ca2 O8 2.302165 1_555
Ca2 O6 2.399601 1_455
Ca2 O7 2.405718 1_565
Ca2 O43 2.497147 1_565
Ca2 O44 2.502387 1_455
Ca2 O42 2.594687 1_465
Ca3 O11 2.313304 1_655
Ca3 O10 2.336097 1_665
Ca3 O9 2.352342 1_555
Ca3 O45 2.357781 1_555
Ca3 O47 2.385695 1_665
Ca3 O46 2.403815 1_565
Ca4 O14 2.178063 1_555
Ca4 O49 2.246970 1_555
Ca4 O13 2.288060 1_555
Ca4 O50 2.300362 1_555
Ca4 O12 2.309142 1_555
Ca4 O48 2.356136 1_555
Ca5 O15 2.161129 1_555
Ca5 O16 2.222245 1_555
Ca5 O17 2.228640 1_555
Ca5 O51 2.315320 1_555
Ca5 O52 2.318562 1_555
Ca5 O53 2.365454 1_555
Ca6 O24 2.177471 1_554
Ca6 O25 2.184286 1_554
Ca6 O26 2.189238 1_554
Ca6 O62 2.287205 1_555
Ca6 O61 2.307395 1_555
Ca6 O60 2.324348 1_555
Ca7 O27 2.188303 1_555
Ca7 O29 2.220138 1_555
Ca7 O64 2.253741 1_555
Ca7 O28 2.269752 1_555
Ca7 O63 2.329880 1_555
Ca7 O65 2.362633 1_555
Ca8 O31 2.286972 1_555
Ca8 O30 2.290173 1_555
Ca8 O32 2.404163 1_555
Ca8 O66 2.407463 1_555
Ca8 O67 2.425998 1_555
Ca8 O68 2.490532 1_555
O0 S0 1.466303 1_555
O1 S1 1.462696 1_555
O2 S2 1.474589 1_655
O3 P0 1.522382 1_555
O4 S3 1.469696 1_655
O5 S4 1.456917 1_545
O6 S4 1.496846 1_555
O7 P0 1.564192 1_555
O8 S3 1.481311 1_555
O9 S1 1.475319 1_555
O10 S2 1.483641 1_555
O11 S0 1.471550 1_565
O12 S5 1.453485 1_555
O13 S6 1.461539 1_555
O14 P1 1.512204 1_555
O15 S7 1.464621 1_555
O16 S8 1.473307 1_555
O17 S9 1.479525 1_555
O18 S9 1.521377 1_555
O18 Ti0 2.114567 1_554
O19 S7 1.522247 1_555
O19 Ti0 2.106158 1_554
O20 S8 1.527575 1_555
O20 Ti0 2.028341 1_554
O21 S6 1.512652 1_555
O21 Ti1 2.030395 1_555
O22 P1 1.605003 1_555
O22 Ti1 1.874403 1_555
O23 S5 1.515818 1_555
O23 Ti1 2.026124 1_555
O24 P2 1.488576 1_555
O25 P3 1.499677 1_555
O26 P4 1.504761 1_555
O27 P5 1.525911 1_555
O28 S10 1.463161 1_555
O29 S11 1.453669 1_555
O30 S11 1.475889 1_555
O31 P5 1.559597 1_555
O32 S10 1.487060 1_555
O33 P3 1.602958 1_555
O33 Ti2 1.985062 1_555
O34 P4 1.560062 1_555
O34 Ti2 2.084954 1_555
O35 P2 1.604161 1_555
O35 Ti2 1.958137 1_555
O36 S11 1.474043 1_655
O37 P5 1.536032 1_545
O38 S10 1.470374 1_555
O39 P3 1.528037 1_555
O40 P4 1.554001 1_545
O41 P2 1.524790 1_555
O42 S5 1.504730 1_555
O43 S6 1.495172 1_555
O44 P1 1.549916 1_555
O45 S7 1.489684 1_555
O46 S8 1.484820 1_555
O47 S9 1.487099 1_555
O48 S4 1.481545 1_545
O49 P0 1.537239 1_555
O50 S3 1.477071 1_655
O51 S1 1.493757 1_555
O52 S2 1.495584 1_655
O53 S0 1.522975 1_555
O54 P2 1.622954 1_555
O54 Ti0 1.993944 1_555
O55 P3 1.609333 1_655
O55 Ti0 1.973274 1_555
O56 P4 1.628633 1_545
O56 Ti0 1.894982 1_555
O57 P5 1.602436 1_545
O57 Ti1 1.881407 1_555
O58 S10 1.523523 1_555
O58 Ti1 2.024363 1_555
O59 S11 1.521129 1_655
O59 Ti1 1.992426 1_555
O60 S9 1.472189 1_555
O61 S7 1.469428 1_455
O62 S8 1.461659 1_565
O63 S6 1.480239 1_565
O64 P1 1.565963 1_555
O65 S5 1.482167 1_455
O66 S0 1.495970 1_565
O67 S1 1.521063 1_555
O68 S2 1.497813 1_555
O69 P0 1.620600 1_555
O69 Ti2 1.855921 1_555
O70 S3 1.512292 1_555
O70 Ti2 2.098865 1_555
O71 S4 1.513908 1_555
O71 Ti2 2.134760 1_555
