# generated using pymatgen
data_VO2
_symmetry_space_group_name_H-M   'P 1'
_cell_length_a   3.03614300
_cell_length_b   4.81356200
_cell_length_c   9.12774300
_cell_angle_alpha   90.00000000
_cell_angle_beta   90.00000000
_cell_angle_gamma   90.00000000
_symmetry_Int_Tables_number   1
_chemical_formula_structural   VO2
_chemical_formula_sum   'V4 O8'
_cell_volume   133.39888398
_cell_formula_units_Z   4
loop_
 _symmetry_equiv_pos_site_id
 _symmetry_equiv_pos_as_xyz
  1  'x, y, z'
loop_
 _atom_site_type_symbol
 _atom_site_label
 _atom_site_symmetry_multiplicity
 _atom_site_fract_x
 _atom_site_fract_y
 _atom_site_fract_z
 _atom_site_occupancy
  V  V0  1  0.25000000  0.42534200  0.63584900  1
  V  V1  1  0.25000000  0.07465800  0.13584900  1
  V  V2  1  0.75000000  0.57465800  0.36415100  1
  V  V3  1  0.75000000  0.92534200  0.86415100  1
  O  O0  1  0.75000000  0.28981100  0.51651200  1
  O  O1  1  0.25000000  0.78981100  0.98348800  1
  O  O2  1  0.75000000  0.21018900  0.01651200  1
  O  O3  1  0.25000000  0.71018900  0.48348800  1
  O  O4  1  0.75000000  0.87863900  0.23806400  1
  O  O5  1  0.75000000  0.62136100  0.73806400  1
  O  O6  1  0.25000000  0.12136100  0.76193600  1
  O  O7  1  0.25000000  0.37863900  0.26193600  1
loop_
_geom_bond_atom_site_label_1
_geom_bond_atom_site_label_2
_geom_bond_distance
_geom_bond_site_symmetry_2
O0 V2 1.952965 1_555
O0 V0 1.979059 1_555
O0 V0 1.979059 1_655
O1 V1 1.952965 1_566
O1 V3 1.979059 1_555
O1 V3 1.979059 1_455
O2 V3 1.952965 1_544
O2 V1 1.979059 1_555
O2 V1 1.979059 1_655
O3 V0 1.952965 1_555
O3 V2 1.979059 1_555
O3 V2 1.979059 1_455
O4 V2 1.861610 1_555
O4 V1 2.016259 1_665
O4 V1 2.016259 1_565
O5 V3 1.861610 1_555
O5 V0 2.016259 1_655
O5 V0 2.016259 1_555
O6 V0 1.861610 1_555
O6 V3 2.016259 1_445
O6 V3 2.016259 1_545
O7 V1 1.861610 1_555
O7 V2 2.016259 1_555
O7 V2 2.016259 1_455
