# generated using pymatgen
data_PrNb5O14
_symmetry_space_group_name_H-M   'P 1'
_cell_length_a   6.34844800
_cell_length_b   7.78965400
_cell_length_c   20.55868700
_cell_angle_alpha   90.00000000
_cell_angle_beta   90.00000000
_cell_angle_gamma   90.00000000
_symmetry_Int_Tables_number   1
_chemical_formula_structural   PrNb5O14
_chemical_formula_sum   'Pr4 Nb20 O56'
_cell_volume   1016.67257586
_cell_formula_units_Z   4
loop_
 _symmetry_equiv_pos_site_id
 _symmetry_equiv_pos_as_xyz
  1  'x, y, z'
loop_
 _atom_site_type_symbol
 _atom_site_label
 _atom_site_symmetry_multiplicity
 _atom_site_fract_x
 _atom_site_fract_y
 _atom_site_fract_z
 _atom_site_occupancy
  Pr  Pr0  1  0.95397300  0.00000000  0.26417600  1
  Pr  Pr1  1  0.95397300  0.00000000  0.73582400  1
  Pr  Pr2  1  0.04602700  0.50000000  0.23582400  1
  Pr  Pr3  1  0.04602700  0.50000000  0.76417600  1
  Nb  Nb0  1  0.49716100  0.75130700  0.50000000  1
  Nb  Nb1  1  0.49716100  0.24869300  0.50000000  1
  Nb  Nb2  1  0.50283900  0.25130700  0.00000000  1
  Nb  Nb3  1  0.50283900  0.74869300  0.00000000  1
  Nb  Nb4  1  0.05118200  0.75178900  0.09341100  1
  Nb  Nb5  1  0.05118200  0.24821100  0.90658900  1
  Nb  Nb6  1  0.94881800  0.25178900  0.40658900  1
  Nb  Nb7  1  0.94881800  0.74821100  0.59341100  1
  Nb  Nb8  1  0.94881800  0.74821100  0.40658900  1
  Nb  Nb9  1  0.94881800  0.25178900  0.59341100  1
  Nb  Nb10  1  0.05118200  0.24821100  0.09341100  1
  Nb  Nb11  1  0.05118200  0.75178900  0.90658900  1
  Nb  Nb12  1  0.41074400  0.75221900  0.32721200  1
  Nb  Nb13  1  0.41074400  0.24778100  0.67278800  1
  Nb  Nb14  1  0.58925600  0.25221900  0.17278800  1
  Nb  Nb15  1  0.58925600  0.74778100  0.82721200  1
  Nb  Nb16  1  0.58925600  0.74778100  0.17278800  1
  Nb  Nb17  1  0.58925600  0.25221900  0.82721200  1
  Nb  Nb18  1  0.41074400  0.24778100  0.32721200  1
  Nb  Nb19  1  0.41074400  0.75221900  0.67278800  1
  O  O0  1  0.32888600  0.00000000  0.31960500  1
  O  O1  1  0.32888600  0.00000000  0.68039500  1
  O  O2  1  0.67111400  0.50000000  0.18039500  1
  O  O3  1  0.67111400  0.50000000  0.81960500  1
  O  O4  1  0.33500800  0.71234300  0.22293100  1
  O  O5  1  0.33500800  0.28765700  0.77706900  1
  O  O6  1  0.66499200  0.21234300  0.27706900  1
  O  O7  1  0.66499200  0.78765700  0.72293100  1
  O  O8  1  0.66499200  0.78765700  0.27706900  1
  O  O9  1  0.66499200  0.21234300  0.72293100  1
  O  O10  1  0.33500800  0.28765700  0.22293100  1
  O  O11  1  0.33500800  0.71234300  0.77706900  1
  O  O12  1  0.61090900  0.00000000  0.17172700  1
  O  O13  1  0.61090900  0.00000000  0.82827300  1
  O  O14  1  0.38909100  0.50000000  0.32827300  1
  O  O15  1  0.38909100  0.50000000  0.67172700  1
  O  O16  1  0.91037400  0.50000000  0.40131700  1
  O  O17  1  0.91037400  0.50000000  0.59868300  1
  O  O18  1  0.08962600  0.00000000  0.09868300  1
  O  O19  1  0.23422700  0.24400500  0.43586900  1
  O  O20  1  0.08962600  0.00000000  0.90131700  1
  O  O21  1  0.49990500  0.00000000  0.00000000  1
  O  O22  1  0.76577300  0.74400500  0.06413100  1
  O  O23  1  0.76577300  0.25599500  0.93586900  1
  O  O24  1  0.92578700  0.76895500  0.81707100  1
  O  O25  1  0.92578700  0.23104500  0.18292900  1
  O  O26  1  0.07421300  0.26895500  0.68292900  1
  O  O27  1  0.07421300  0.73104500  0.31707100  1
  O  O28  1  0.07421300  0.73104500  0.68292900  1
  O  O29  1  0.07421300  0.26895500  0.31707100  1
  O  O30  1  0.92578700  0.23104500  0.81707100  1
  O  O31  1  0.92578700  0.76895500  0.18292900  1
  O  O32  1  0.15877500  0.73571400  0.00000000  1
  O  O33  1  0.15877500  0.26428600  0.00000000  1
  O  O34  1  0.84122500  0.23571400  0.50000000  1
  O  O35  1  0.84122500  0.76428600  0.50000000  1
  O  O36  1  0.60906700  0.75476600  0.59674000  1
  O  O37  1  0.60906700  0.24523400  0.40326000  1
  O  O38  1  0.39093300  0.25476600  0.90326000  1
  O  O39  1  0.39093300  0.74523400  0.09674000  1
  O  O40  1  0.39093300  0.74523400  0.90326000  1
  O  O41  1  0.39093300  0.25476600  0.09674000  1
  O  O42  1  0.60906700  0.24523400  0.59674000  1
  O  O43  1  0.60906700  0.75476600  0.40326000  1
  O  O44  1  0.50437500  0.50000000  0.00000000  1
  O  O45  1  0.49562500  0.00000000  0.50000000  1
  O  O46  1  0.08640800  0.50000000  0.88387400  1
  O  O47  1  0.08640800  0.50000000  0.11612600  1
  O  O48  1  0.91359200  0.00000000  0.61612600  1
  O  O49  1  0.91359200  0.00000000  0.38387400  1
  O  O50  1  0.76577300  0.74400500  0.93586900  1
  O  O51  1  0.76577300  0.25599500  0.06413100  1
  O  O52  1  0.23422700  0.24400500  0.56413100  1
  O  O53  1  0.23422700  0.75599500  0.43586900  1
  O  O54  1  0.23422700  0.75599500  0.56413100  1
  O  O55  1  0.50009500  0.50000000  0.50000000  1
loop_
_geom_bond_atom_site_label_1
_geom_bond_atom_site_label_2
_geom_bond_distance
_geom_bond_site_symmetry_2
Nb0 O45 1.937257 1_565
Nb0 O55 1.957683 1_555
Nb0 O43 2.112096 1_555
Nb0 O36 2.112096 1_555
Nb0 O53 2.127427 1_555
Nb0 O54 2.127427 1_555
Nb0 O35 2.186611 1_555
Nb1 O45 1.937257 1_555
Nb1 O55 1.957683 1_555
Nb1 O37 2.112096 1_555
Nb1 O42 2.112096 1_555
Nb1 O19 2.127427 1_555
Nb1 O52 2.127427 1_555
Nb1 O34 2.186611 1_555
Nb2 O44 1.937257 1_555
Nb2 O21 1.957683 1_555
Nb2 O41 2.112096 1_555
Nb2 O38 2.112096 1_554
Nb2 O51 2.127427 1_555
Nb2 O23 2.127427 1_554
Nb2 O33 2.186611 1_555
Nb3 O44 1.937257 1_555
Nb3 O21 1.957683 1_565
Nb3 O39 2.112096 1_555
Nb3 O40 2.112096 1_554
Nb3 O22 2.127427 1_555
Nb3 O50 2.127427 1_554
Nb3 O32 2.186611 1_555
Nb4 O22 1.910243 1_455
Nb4 O18 1.951832 1_565
Nb4 O31 2.009619 1_455
Nb4 O47 2.028542 1_555
Nb4 O32 2.042107 1_555
Nb4 O39 2.158581 1_555
Nb5 O23 1.910243 1_455
Nb5 O20 1.951832 1_555
Nb5 O30 2.009619 1_455
Nb5 O46 2.028542 1_555
Nb5 O33 2.042107 1_556
Nb5 O38 2.158581 1_555
Nb6 O19 1.910243 1_655
Nb6 O16 1.951832 1_555
Nb6 O29 2.009619 1_655
Nb6 O49 2.028542 1_555
Nb6 O34 2.042107 1_555
Nb6 O37 2.158581 1_555
Nb7 O54 1.910243 1_655
Nb7 O17 1.951832 1_555
Nb7 O28 2.009619 1_655
Nb7 O48 2.028542 1_565
Nb7 O35 2.042107 1_555
Nb7 O36 2.158581 1_555
Nb8 O53 1.910243 1_655
Nb8 O16 1.951832 1_555
Nb8 O27 2.009619 1_655
Nb8 O49 2.028542 1_565
Nb8 O35 2.042107 1_555
Nb8 O43 2.158581 1_555
Nb9 O52 1.910243 1_655
Nb9 O17 1.951832 1_555
Nb9 O26 2.009619 1_655
Nb9 O48 2.028542 1_555
Nb9 O34 2.042107 1_555
Nb9 O42 2.158581 1_555
Nb10 O51 1.910243 1_455
Nb10 O18 1.951832 1_555
Nb10 O25 2.009619 1_455
Nb10 O47 2.028542 1_555
Nb10 O33 2.042107 1_555
Nb10 O41 2.158581 1_555
Nb11 O50 1.910243 1_455
Nb11 O20 1.951832 1_565
Nb11 O24 2.009619 1_455
Nb11 O46 2.028542 1_555
Nb11 O32 2.042107 1_556
Nb11 O40 2.158581 1_555
Nb12 O8 1.934983 1_555
Nb12 O14 1.969623 1_555
Nb12 O0 2.004972 1_565
Nb12 O43 2.007474 1_555
Nb12 O27 2.152925 1_555
Nb12 O4 2.218982 1_555
Nb12 O53 2.499339 1_555
Nb13 O9 1.934983 1_555
Nb13 O15 1.969623 1_555
Nb13 O1 2.004972 1_555
Nb13 O42 2.007474 1_555
Nb13 O26 2.152925 1_555
Nb13 O5 2.218982 1_555
Nb13 O52 2.499339 1_555
Nb14 O10 1.934983 1_555
Nb14 O12 1.969623 1_555
Nb14 O2 2.004972 1_555
Nb14 O41 2.007474 1_555
Nb14 O25 2.152925 1_555
Nb14 O6 2.218982 1_555
Nb14 O51 2.499339 1_555
Nb15 O11 1.934983 1_555
Nb15 O13 1.969623 1_565
Nb15 O3 2.004972 1_555
Nb15 O40 2.007474 1_555
Nb15 O24 2.152925 1_555
Nb15 O7 2.218982 1_555
Nb15 O50 2.499339 1_555
Nb16 O4 1.934983 1_555
Nb16 O12 1.969623 1_565
Nb16 O2 2.004972 1_555
Nb16 O39 2.007474 1_555
Nb16 O31 2.152925 1_555
Nb16 O8 2.218982 1_555
Nb16 O22 2.499339 1_555
Nb17 O5 1.934983 1_555
Nb17 O13 1.969623 1_555
Nb17 O3 2.004972 1_555
Nb17 O38 2.007474 1_555
Nb17 O30 2.152925 1_555
Nb17 O9 2.218982 1_555
Nb17 O23 2.499339 1_555
Nb18 O6 1.934983 1_555
Nb18 O14 1.969623 1_555
Nb18 O0 2.004972 1_555
Nb18 O37 2.007474 1_555
Nb18 O29 2.152925 1_555
Nb18 O10 2.218982 1_555
Nb18 O19 2.499339 1_555
Nb19 O7 1.934983 1_555
Nb19 O15 1.969623 1_555
Nb19 O1 2.004972 1_565
Nb19 O36 2.007474 1_555
Nb19 O28 2.152925 1_555
Nb19 O11 2.218982 1_555
Nb19 O54 2.499339 1_555
O0 Pr0 2.638848 1_455
O1 Pr1 2.638848 1_455
O2 Pr2 2.638848 1_655
O3 Pr3 2.638848 1_655
O4 Pr2 2.484335 1_555
O5 Pr3 2.484335 1_555
O6 Pr0 2.484335 1_555
O7 Pr1 2.484335 1_565
O8 Pr0 2.484335 1_565
O9 Pr1 2.484335 1_555
O10 Pr2 2.484335 1_555
O11 Pr3 2.484335 1_555
O12 Pr0 2.890631 1_555
O13 Pr1 2.890631 1_555
O14 Pr2 2.890631 1_555
O15 Pr3 2.890631 1_555
O24 Pr1 2.461943 1_565
O24 Pr3 2.480834 1_655
O25 Pr0 2.461943 1_555
O25 Pr2 2.480834 1_655
O26 Pr3 2.461943 1_555
O26 Pr1 2.480834 1_455
O27 Pr2 2.461943 1_555
O27 Pr0 2.480834 1_465
O28 Pr3 2.461943 1_555
O28 Pr1 2.480834 1_465
O29 Pr2 2.461943 1_555
O29 Pr0 2.480834 1_455
O30 Pr1 2.461943 1_555
O30 Pr3 2.480834 1_655
O31 Pr0 2.461943 1_565
O31 Pr2 2.480834 1_655
O46 Pr3 2.474151 1_555
O47 Pr2 2.474151 1_555
O48 Pr1 2.474151 1_555
O49 Pr0 2.474151 1_555
