# generated using pymatgen
data_Na14Ca6Zr2Si5S7O48
_symmetry_space_group_name_H-M   'P 1'
_cell_length_a   18.93838384
_cell_length_b   9.46644420
_cell_length_c   22.87898483
_cell_angle_alpha   89.89277922
_cell_angle_beta   90.26245809
_cell_angle_gamma   120.07679827
_symmetry_Int_Tables_number   1
_chemical_formula_structural   Na14Ca6Zr2Si5S7O48
_chemical_formula_sum   'Na42 Ca18 Zr6 Si15 S21 O144'
_cell_volume   3549.40828821
_cell_formula_units_Z   3
loop_
 _symmetry_equiv_pos_site_id
 _symmetry_equiv_pos_as_xyz
  1  'x, y, z'
loop_
 _atom_site_type_symbol
 _atom_site_label
 _atom_site_symmetry_multiplicity
 _atom_site_fract_x
 _atom_site_fract_y
 _atom_site_fract_z
 _atom_site_occupancy
  Na  Na0  1  0.80769871  0.00139472  0.24649937  1
  Na  Na1  1  0.68686769  0.34173924  0.23701848  1
  Na  Na2  1  0.50454506  0.65440888  0.24048664  1
  Na  Na3  1  0.30423147  0.61075624  0.74530457  1
  Na  Na4  1  0.00917935  0.37432266  0.73814954  1
  Na  Na5  1  0.17267115  0.00773644  0.73214752  1
  Na  Na6  1  0.15230086  0.31405788  0.56860463  1
  Na  Na7  1  0.68161983  0.37220445  0.58818546  1
  Na  Na8  1  0.01137490  0.69027105  0.56610319  1
  Na  Na9  1  0.51568144  0.65766736  0.59808761  1
  Na  Na10  1  0.32301106  0.00503006  0.58737338  1
  Na  Na11  1  0.82287604  0.97333130  0.59936584  1
  Na  Na12  1  0.17682398  0.98708960  0.07881396  1
  Na  Na13  1  0.66057677  0.00900800  0.06139318  1
  Na  Na14  1  0.31592109  0.67086529  0.09225498  1
  Na  Na15  1  0.82784106  0.64688863  0.07630547  1
  Na  Na16  1  0.01648346  0.37380268  0.09007428  1
  Na  Na17  1  0.50579154  0.31610791  0.06062676  1
  Na  Na18  1  0.49176480  0.66805578  0.91891217  1
  Na  Na19  1  0.97578205  0.65593800  0.91174177  1
  Na  Na20  1  0.35692508  0.05175904  0.92574646  1
  Na  Na21  1  0.84494016  0.04436411  0.90415255  1
  Na  Na22  1  0.16796724  0.29615187  0.91184243  1
  Na  Na23  1  0.66276235  0.28673533  0.92854471  1
  Na  Na24  1  0.48159550  0.29773523  0.42515631  1
  Na  Na25  1  0.99312281  0.31539150  0.42902410  1
  Na  Na26  1  0.15266715  0.02410565  0.43614568  1
  Na  Na27  1  0.66879417  0.03947310  0.42063406  1
  Na  Na28  1  0.34203560  0.65119070  0.41851676  1
  Na  Na29  1  0.85843108  0.67184637  0.42438069  1
  Na  Na30  1  -0.00119110  0.96995579  0.50299150  1
  Na  Na31  1  0.52222227  0.03719213  0.50938993  1
  Na  Na32  1  0.01867388  0.00406907  0.00059897  1
  Na  Na33  1  0.50207174  0.02240449  0.99205286  1
  Na  Na34  1  0.33736106  0.32939777  0.83141249  1
  Na  Na35  1  0.82803996  0.33972841  0.82444432  1
  Na  Na36  1  0.30545113  0.30869456  0.33230434  1
  Na  Na37  1  0.84241201  0.34400700  0.33404519  1
  Na  Na38  1  0.16780960  0.68036528  0.15123401  1
  Na  Na39  1  0.66635360  0.65894180  0.16254841  1
  Na  Na40  1  0.15658558  0.67308140  0.66703249  1
  Na  Na41  1  0.67222372  0.66305678  0.65376575  1
  Ca  Ca0  1  0.00539005  0.00259560  0.35323882  1
  Ca  Ca1  1  0.50438356  0.00151716  0.34412990  1
  Ca  Ca2  1  0.00288285  0.99202753  0.83997136  1
  Ca  Ca3  1  0.50531763  0.01048503  0.85170596  1
  Ca  Ca4  1  0.33543855  0.32811519  0.68100196  1
  Ca  Ca5  1  0.83080482  0.33980872  0.68100212  1
  Ca  Ca6  1  0.32545042  0.32172372  0.17953686  1
  Ca  Ca7  1  0.83732465  0.34366797  0.17993096  1
  Ca  Ca8  1  0.33103360  0.32177170  0.98898272  1
  Ca  Ca9  1  0.83165187  0.34039272  0.98686500  1
  Ca  Ca10  1  0.32863524  0.31966852  0.48972973  1
  Ca  Ca11  1  0.83142536  0.34339298  0.49221332  1
  Ca  Ca12  1  0.16551144  0.66695336  0.01310054  1
  Ca  Ca13  1  0.66429991  0.66421842  0.01387837  1
  Ca  Ca14  1  0.16567338  0.66715364  0.51560448  1
  Ca  Ca15  1  0.66632929  0.66781739  0.51660750  1
  Ca  Ca16  1  0.66453679  0.67356987  0.31494887  1
  Ca  Ca17  1  0.16069878  0.65829512  0.81230332  1
  Zr  Zr0  1  0.00090904  0.98104136  0.65653098  1
  Zr  Zr1  1  0.50845709  0.02036042  0.65092118  1
  Zr  Zr2  1  0.00830867  0.99823541  0.14918409  1
  Zr  Zr3  1  0.50232535  0.00894349  0.15030975  1
  Zr  Zr4  1  0.16024993  0.64841836  0.31990068  1
  Zr  Zr5  1  0.66136408  0.67313383  0.81974701  1
  Si  Si0  1  0.65272463  0.99865392  0.25484402  1
  Si  Si1  1  0.15347752  0.30282713  0.75526046  1
  Si  Si2  1  0.99790849  0.68195981  0.75846485  1
  Si  Si3  1  0.48460564  0.32754150  0.57618056  1
  Si  Si4  1  0.17502851  0.01330676  0.58648836  1
  Si  Si5  1  0.68045542  0.02880789  0.57759592  1
  Si  Si6  1  0.83775250  0.65354998  0.57795456  1
  Si  Si7  1  0.98490698  0.64192246  0.07428958  1
  Si  Si8  1  0.33640472  0.02514865  0.07879773  1
  Si  Si9  1  0.18056725  0.33421372  0.07691863  1
  Si  Si10  1  0.67784324  0.33943112  0.08703056  1
  Si  Si11  1  0.51179792  0.36797403  0.91743489  1
  Si  Si12  1  0.67048005  0.97865360  0.92143285  1
  Si  Si13  1  0.16970155  0.36333753  0.42334076  1
  Si  Si14  1  0.01185616  0.65573170  0.41891294  1
  S  S0  1  0.15119316  0.98449865  0.25298481  1
  S  S1  1  0.34520985  0.69324470  0.25376191  1
  S  S2  1  0.84871032  0.70809471  0.25122957  1
  S  S3  1  0.00413042  0.30406759  0.25221765  1
  S  S4  1  0.50202916  0.30595009  0.25112239  1
  S  S5  1  0.65084650  0.32000049  0.75304147  1
  S  S6  1  0.50418936  0.70347160  0.75272832  1
  S  S7  1  0.35043965  0.99116044  0.75174224  1
  S  S8  1  0.84159198  0.98850036  0.75280676  1
  S  S9  1  0.98901222  0.32431986  0.58695537  1
  S  S10  1  0.34115527  0.65553867  0.58699188  1
  S  S11  1  0.48949990  0.65084187  0.09033368  1
  S  S12  1  0.83901277  0.02483045  0.08915007  1
  S  S13  1  0.31977824  0.66247849  0.91535459  1
  S  S14  1  0.81459262  0.67033758  0.91459454  1
  S  S15  1  0.00975458  0.35026280  0.91759018  1
  S  S16  1  0.16818621  0.97704959  0.91548215  1
  S  S17  1  0.31443509  0.96300352  0.41150748  1
  S  S18  1  0.81826894  0.97907870  0.41286203  1
  S  S19  1  0.66550950  0.36190833  0.41242760  1
  S  S20  1  0.50878283  0.66145458  0.41363518  1
  O  O0  1  0.10895174  -0.01654143  0.30687998  1
  O  O1  1  0.61446270  0.00202995  0.31818280  1
  O  O2  1  0.38731263  0.77792951  0.30878764  1
  O  O3  1  0.88540222  0.79113284  0.30688153  1
  O  O4  1  0.49399277  0.22580220  0.30814282  1
  O  O5  1  0.00205054  0.21951589  0.30672234  1
  O  O6  1  0.11438887  0.22105123  0.81815167  1
  O  O7  1  0.61030593  0.23634735  0.80737898  1
  O  O8  1  0.50082251  0.78093530  0.80760554  1
  O  O9  1  0.99336622  0.75562964  0.82145391  1
  O  O10  1  0.38891503  -0.00996642  0.80766658  1
  O  O11  1  0.88527674  -0.00389142  0.80792128  1
  O  O12  1  0.40433673  0.99567198  0.70220626  1
  O  O13  1  0.88869797  0.98373877  0.70098368  1
  O  O14  1  0.08766815  0.17373140  0.70421475  1
  O  O15  1  0.59895805  0.22147078  0.70075341  1
  O  O16  1  -0.00629568  0.81013803  0.70786733  1
  O  O17  1  0.51067863  0.80857438  0.70115069  1
  O  O18  1  0.39236044  0.79309670  0.20189855  1
  O  O19  1  0.90134126  0.80968255  0.20132862  1
  O  O20  1  0.00926773  0.21244771  0.20032207  1
  O  O21  1  0.49371228  0.19093395  0.20285590  1
  O  O22  1  0.10168582  0.98373841  0.20020588  1
  O  O23  1  0.58526217  0.99825309  0.20491496  1
  O  O24  1  0.43772087  0.38654757  0.62058552  1
  O  O25  1  0.94769428  0.33886752  0.63916489  1
  O  O26  1  0.23581475  0.10799264  0.64107264  1
  O  O27  1  0.75632923  0.12669236  0.62191960  1
  O  O28  1  0.32688139  0.55260250  0.63899181  1
  O  O29  1  0.81804651  0.50769651  0.62383128  1
  O  O30  1  0.45109553  0.56201244  0.14510996  1
  O  O31  1  0.93730643  0.48974264  0.11936804  1
  O  O32  1  0.32088053  0.13355217  0.12611081  1
  O  O33  1  0.82662677  0.09615066  0.14310995  1
  O  O34  1  0.25349795  0.38649964  0.12437868  1
  O  O35  1  0.73400964  0.36152639  0.14395252  1
  O  O36  1  0.20212801  0.27561202  0.01544819  1
  O  O37  1  0.71582433  0.30181522  0.02846626  1
  O  O38  1  0.44064896  0.56331783  0.03850966  1
  O  O39  1  0.93397782  0.60050540  0.01239961  1
  O  O40  1  0.36357171  0.12914377  0.01742827  1
  O  O41  1  0.84902423  0.12598586  0.03726044  1
  O  O42  1  0.21252617  0.11825150  0.52579063  1
  O  O43  1  0.69982472  0.12600312  0.51477865  1
  O  O44  1  0.35162923  0.57968733  0.53325463  1
  O  O45  1  0.86047160  0.59943398  0.51539784  1
  O  O46  1  0.43268687  0.27090830  0.51454807  1
  O  O47  1  0.94335886  0.31565491  0.53245232  1
  O  O48  1  0.27856817  0.67503984  0.96827287  1
  O  O49  1  0.77549633  0.66671455  0.97082268  1
  O  O50  1  0.05501348  0.43084821  0.97175712  1
  O  O51  1  0.55847538  0.45455124  0.97761314  1
  O  O52  1  0.17282895  0.89910970  0.97036718  1
  O  O53  1  0.67076854  0.89002582  0.98194543  1
  O  O54  1  0.27684258  0.87932981  0.46686175  1
  O  O55  1  0.77319505  0.87543760  0.46284229  1
  O  O56  1  0.17108123  0.45146285  0.48411906  1
  O  O57  1  0.66865142  0.45960674  0.46324516  1
  O  O58  1  0.05987114  0.66747405  0.47881809  1
  O  O59  1  0.56084358  0.67434546  0.46366170  1
  O  O60  1  0.07559311  0.65725412  0.36443779  1
  O  O61  1  0.54823151  0.65828151  0.35779314  1
  O  O62  1  0.26372859  0.85919072  0.36081719  1
  O  O63  1  0.77672968  0.89860855  0.35666715  1
  O  O64  1  0.17020702  0.48940088  0.36837835  1
  O  O65  1  0.66134788  0.44034915  0.35708536  1
  O  O66  1  0.05525391  0.44313421  0.86539465  1
  O  O67  1  0.57564197  0.49195802  0.86348421  1
  O  O68  1  0.16539719  0.87995208  0.86420854  1
  O  O69  1  0.66978533  0.85209356  0.86745056  1
  O  O70  1  0.27490648  0.66026905  0.86167842  1
  O  O71  1  0.76267237  0.67288517  0.86481908  1
  O  O72  1  0.00183703  0.81808203  0.41497926  1
  O  O73  1  0.49430019  0.80404662  0.41592223  1
  O  O74  1  0.39784793  0.98455847  0.40832056  1
  O  O75  1  0.90317944  0.00630968  0.41432744  1
  O  O76  1  0.08597085  0.18596623  0.41923516  1
  O  O77  1  0.58890429  0.19605786  0.41835365  1
  O  O78  1  -0.00475395  0.17909563  0.91711144  1
  O  O79  1  0.50173821  0.18550601  0.91481084  1
  O  O80  1  0.09306026  0.99275087  0.91889488  1
  O  O81  1  0.58641738  0.98818338  0.91842176  1
  O  O82  1  0.40504003  0.80597390  0.91529992  1
  O  O83  1  0.89573865  0.82082885  0.91283250  1
  O  O84  1  0.48202873  0.15150827  0.59808902  1
  O  O85  1  0.99322039  0.16997159  0.58977932  1
  O  O86  1  0.08327741  -0.00124988  0.59334273  1
  O  O87  1  0.59293193  0.02906598  0.59950302  1
  O  O88  1  0.42095747  0.81546149  0.59497610  1
  O  O89  1  0.91800928  0.83572667  0.59328124  1
  O  O90  1  0.49377979  0.81592544  0.09117799  1
  O  O91  1  0.98513988  0.81489183  0.09778501  1
  O  O92  1  0.41498930  -0.00305663  0.09639846  1
  O  O93  1  0.91779566  0.01988958  0.09535526  1
  O  O94  1  0.09141660  0.16126286  0.09813131  1
  O  O95  1  0.58336146  0.16940930  0.09319052  1
  O  O96  1  0.33867253  0.13412913  0.74894762  1
  O  O97  1  0.83193508  0.13335398  0.74951126  1
  O  O98  1  0.24508265  0.32335637  0.74957761  1
  O  O99  1  0.73142107  0.33394521  0.74886860  1
  O  O100  1  0.42976573  0.54226808  0.74717195  1
  O  O101  1  0.92621500  0.49173614  0.75155484  1
  O  O102  1  0.34273497  0.53344657  0.25247946  1
  O  O103  1  0.83883871  0.54267747  0.25051512  1
  O  O104  1  0.43933068  0.35468652  0.24528259  1
  O  O105  1  0.92918905  0.31569713  0.24803415  1
  O  O106  1  0.23250806  0.13345982  0.25111262  1
  O  O107  1  0.74380989  0.15972476  0.24819475  1
  O  O108  1  0.32479248  0.51007919  0.91699645  1
  O  O109  1  0.82029362  0.52020732  0.90791264  1
  O  O110  1  0.42502106  0.36507017  0.90976910  1
  O  O111  1  0.92827670  0.34114529  0.91718285  1
  O  O112  1  0.24256968  0.14295388  0.91023865  1
  O  O113  1  0.75293646  0.15683532  0.91186055  1
  O  O114  1  0.31845984  0.12341753  0.40710753  1
  O  O115  1  0.82175877  0.13978012  0.41607764  1
  O  O116  1  0.25301144  0.35416214  0.41371064  1
  O  O117  1  0.73919567  0.34352310  0.41065032  1
  O  O118  1  0.42796940  0.50793204  0.41694857  1
  O  O119  1  0.92563713  0.48417583  0.41175807  1
  O  O120  1  0.15625998  0.47703454  0.07690393  1
  O  O121  1  0.66443769  0.49627729  0.08446682  1
  O  O122  1  0.08088522  0.69660519  0.07371564  1
  O  O123  1  0.57425433  0.68220275  0.08779380  1
  O  O124  1  0.25743016  0.84161060  0.07733171  1
  O  O125  1  0.77147936  0.85436972  0.08328848  1
  O  O126  1  0.16245248  0.82931425  0.58620111  1
  O  O127  1  0.65199111  0.83472830  0.57828750  1
  O  O128  1  0.27504794  0.69477606  0.58142957  1
  O  O129  1  0.75995099  0.68439876  0.57841296  1
  O  O130  1  0.07388055  0.46538730  0.58582470  1
  O  O131  1  0.58163066  0.46062023  0.57486619  1
  O  O132  1  0.15900834  0.83544242  0.24906241  1
  O  O133  1  0.65481019  0.82751583  0.24356833  1
  O  O134  1  0.26151255  0.67089292  0.25212661  1
  O  O135  1  0.76685188  0.69508287  0.24314012  1
  O  O136  1  0.07844104  0.47285159  0.25170056  1
  O  O137  1  0.58490633  0.45419424  0.24487738  1
  O  O138  1  0.15854268  0.48031385  0.74444256  1
  O  O139  1  0.65735264  0.48363531  0.74926181  1
  O  O140  1  0.08777904  0.70006767  0.74498308  1
  O  O141  1  0.57875926  0.68474497  0.75241239  1
  O  O142  1  0.27110731  0.83738287  0.74409254  1
  O  O143  1  0.75944722  0.83485981  0.75225342  1
loop_
_geom_bond_atom_site_label_1
_geom_bond_atom_site_label_2
_geom_bond_distance
_geom_bond_site_symmetry_2
Na0 O107 2.351662 1_555
Na0 O33 2.491180 1_555
Na0 O133 2.513794 1_545
Na0 O135 2.600857 1_545
Na0 O63 2.660107 1_545
Na0 O105 2.699197 1_555
Na1 O35 2.283461 1_555
Na1 O107 2.460770 1_555
Na1 O103 2.550240 1_555
Na1 O137 2.637913 1_555
Na2 O30 2.377144 1_555
Na2 O104 2.464836 1_555
Na2 O133 2.472481 1_555
Na2 O102 2.695654 1_555
Na2 O61 2.799741 1_555
Na2 O23 2.933978 1_555
Na2 O137 2.967767 1_555
Na3 O98 2.368889 1_555
Na3 O138 2.392183 1_555
Na3 O142 2.519002 1_555
Na3 O28 2.579640 1_555
Na3 O100 2.760107 1_555
Na3 O70 2.810025 1_555
Na4 O101 2.356756 1_455
Na4 O138 2.486166 1_555
Na4 O25 2.486810 1_455
Na4 O140 2.673567 1_555
Na5 O26 2.355935 1_555
Na5 O140 2.541959 1_545
Na5 O98 2.619005 1_555
Na5 O96 2.771857 1_555
Na5 O14 2.826925 1_555
Na6 O56 2.255631 1_555
Na6 O130 2.559897 1_555
Na6 O86 2.651040 1_555
Na6 O85 2.657767 1_455
Na6 O42 2.798622 1_555
Na7 O29 2.376709 1_555
Na7 O131 2.441644 1_555
Na7 O129 2.567309 1_555
Na7 O87 2.823454 1_555
Na7 O15 2.983940 1_555
Na7 O57 3.017342 1_555
Na7 O43 3.032622 1_555
Na8 O58 2.257249 1_555
Na8 O126 2.519063 1_555
Na8 O86 2.604526 1_565
Na8 O45 2.786179 1_455
Na8 O89 2.804064 1_455
Na8 O130 2.941813 1_555
Na9 O24 2.288195 1_555
Na9 O127 2.312925 1_555
Na9 O131 2.768865 1_555
Na9 O17 2.785699 1_555
Na9 O88 2.852861 1_555
Na10 O128 2.606900 1_545
Na10 O26 2.612046 1_555
Na10 O84 2.619377 1_555
Na10 O126 2.635023 1_545
Na10 O46 2.863793 1_555
Na10 O54 2.954633 1_545
Na11 O27 2.409345 1_565
Na11 O129 2.421506 1_555
Na11 O13 2.611522 1_555
Na11 O89 2.705098 1_555
Na11 O85 2.811830 1_565
Na11 O127 2.856503 1_555
Na12 O122 2.422376 1_555
Na12 O124 2.517131 1_555
Na12 O32 2.592979 1_565
Na12 O52 2.607364 1_554
Na12 O94 2.865742 1_565
Na12 O36 2.910487 1_565
Na13 O53 2.199693 1_544
Na13 O37 2.537295 1_555
Na13 O95 2.685661 1_555
Na13 O123 2.746098 1_545
Na13 O90 2.830466 1_545
Na14 O124 2.396938 1_555
Na14 O34 2.448474 1_555
Na14 O120 2.657947 1_555
Na14 O92 2.692956 1_565
Na14 O18 2.833005 1_555
Na14 O48 2.925306 1_554
Na14 O90 2.931992 1_555
Na15 O91 2.624113 1_555
Na15 O49 2.646701 1_554
Na15 O125 2.669584 1_555
Na15 O121 2.688139 1_555
Na15 O39 2.699043 1_555
Na15 O35 2.836999 1_555
Na16 O120 2.338047 1_555
Na16 O31 2.358761 1_455
Na16 O122 2.688816 1_555
Na16 O50 2.787375 1_554
Na16 O20 2.914380 1_555
Na17 O51 2.240021 1_554
Na17 O40 2.562781 1_555
Na17 O95 2.583141 1_555
Na17 O121 2.661895 1_555
Na17 O92 2.747998 1_555
Na18 O110 2.496799 1_555
Na18 O82 2.560595 1_555
Na18 O81 2.636722 1_555
Na18 O8 2.732478 1_555
Na18 O108 2.738032 1_555
Na18 O38 2.908509 1_556
Na19 O9 2.225447 1_555
Na19 O39 2.408631 1_556
Na19 O109 2.556469 1_555
Na19 O111 2.649063 1_555
Na19 O83 2.665941 1_555
Na19 O80 2.833095 1_655
Na20 O40 2.205281 1_556
Na20 O79 2.389935 1_555
Na20 O110 2.600000 1_555
Na20 O112 2.725294 1_555
Na20 O10 2.895265 1_555
Na20 O82 2.903476 1_545
Na21 O11 2.451233 1_555
Na21 O111 2.455062 1_555
Na21 O113 2.462441 1_555
Na21 O78 2.484383 1_655
Na21 O83 2.734947 1_545
Na22 O6 2.322187 1_555
Na22 O112 2.480945 1_555
Na22 O36 2.487053 1_556
Na22 O80 2.490801 1_545
Na22 O108 2.627758 1_555
Na22 O78 2.883103 1_555
Na23 O81 2.456679 1_545
Na23 O37 2.468375 1_556
Na23 O113 2.585899 1_555
Na23 O79 2.716609 1_555
Na23 O109 2.721791 1_555
Na23 O7 2.898967 1_555
Na24 O46 2.210178 1_555
Na24 O74 2.595928 1_545
Na24 O77 2.654209 1_555
Na24 O118 2.654891 1_555
Na24 O114 2.705464 1_555
Na24 O4 2.803351 1_555
Na25 O119 2.526316 1_555
Na25 O47 2.551579 1_555
Na25 O75 2.564845 1_555
Na25 O76 2.609065 1_655
Na25 O115 2.822958 1_555
Na25 O5 2.974822 1_655
Na26 O42 2.293212 1_555
Na26 O76 2.454819 1_555
Na26 O72 2.569943 1_545
Na26 O116 2.772841 1_555
Na26 O114 2.870873 1_555
Na27 O43 2.273383 1_555
Na27 O117 2.503625 1_555
Na27 O1 2.508799 1_555
Na27 O115 2.559260 1_555
Na27 O77 2.595372 1_555
Na27 O73 2.918010 1_545
Na28 O116 2.451259 1_555
Na28 O73 2.496332 1_555
Na28 O118 2.588806 1_555
Na28 O2 2.730304 1_555
Na28 O44 2.737609 1_555
Na28 O74 2.790496 1_555
Na29 O45 2.197309 1_555
Na29 O72 2.361031 1_655
Na29 O119 2.670445 1_555
Na29 O117 2.796481 1_555
Na29 O75 2.846998 1_565
Na29 O3 2.861097 1_555
Na30 O72 2.493898 1_555
Na30 O89 2.508716 1_455
Na30 O86 2.537947 1_565
Na30 O76 2.685020 1_565
Na30 O85 2.784932 1_465
Na30 O75 2.846371 1_465
Na31 O87 2.475305 1_555
Na31 O77 2.510655 1_555
Na31 O84 2.591676 1_555
Na31 O88 2.811088 1_545
Na31 O73 2.925952 1_545
Na32 O80 2.380452 1_544
Na32 O94 2.649724 1_555
Na32 O78 2.703304 1_554
Na32 O91 2.722595 1_445
Na32 O83 2.895481 1_444
Na32 O93 2.949268 1_455
Na33 O79 2.346588 1_555
Na33 O81 2.457600 1_545
Na33 O82 2.620761 1_545
Na33 O95 2.737326 1_556
Na33 O92 2.848290 1_556
Na33 O90 2.944064 1_546
Na34 O110 2.344573 1_555
Na34 O112 2.536185 1_555
Na34 O98 2.536363 1_555
Na34 O96 2.652688 1_555
Na34 O108 2.690928 1_555
Na34 O100 2.705469 1_555
Na35 O101 2.376202 1_555
Na35 O99 2.492372 1_555
Na35 O113 2.562306 1_555
Na35 O109 2.617883 1_555
Na35 O97 2.630476 1_555
Na35 O111 2.836084 1_555
Na36 O116 2.255843 1_555
Na36 O106 2.408706 1_555
Na36 O114 2.546347 1_555
Na36 O102 2.617666 1_555
Na36 O118 2.877059 1_555
Na37 O119 2.300668 1_555
Na37 O115 2.578429 1_555
Na37 O117 2.629682 1_555
Na37 O107 2.665021 1_555
Na37 O105 2.667978 1_555
Na37 O103 2.703108 1_555
Na38 O124 2.342945 1_555
Na38 O122 2.470826 1_555
Na38 O120 2.496327 1_555
Na38 O132 2.730105 1_555
Na38 O134 2.933721 1_555
Na38 O136 2.948418 1_555
Na39 O121 2.348934 1_555
Na39 O123 2.524311 1_555
Na39 O133 2.528803 1_555
Na39 O135 2.541033 1_555
Na39 O137 2.588490 1_555
Na39 O125 2.646394 1_555
Na40 O140 2.302298 1_555
Na40 O126 2.333815 1_555
Na40 O138 2.554039 1_555
Na40 O130 2.582876 1_555
Na40 O142 2.612564 1_555
Na40 O128 2.913433 1_555
Na41 O129 2.337043 1_555
Na41 O127 2.525367 1_555
Na41 O131 2.561954 1_555
Na41 O139 2.692589 1_555
Na41 O143 2.781713 1_555
Na41 O141 2.944763 1_555
Ca0 O72 2.219144 1_545
Ca0 O76 2.226097 1_555
Ca0 O0 2.319559 1_555
Ca0 O5 2.339812 1_555
Ca0 O3 2.392123 1_445
Ca0 O75 2.407236 1_455
Ca1 O1 2.167875 1_555
Ca1 O2 2.309928 1_545
Ca1 O4 2.373874 1_555
Ca1 O73 2.421242 1_545
Ca1 O77 2.422726 1_555
Ca1 O74 2.440282 1_545
Ca2 O9 2.195112 1_455
Ca2 O6 2.196750 1_565
Ca2 O11 2.360316 1_465
Ca2 O80 2.477351 1_555
Ca2 O83 2.499495 1_455
Ca2 O78 2.557825 1_565
Ca3 O79 2.226338 1_555
Ca3 O81 2.244046 1_545
Ca3 O7 2.302754 1_555
Ca3 O10 2.337736 1_555
Ca3 O8 2.359934 1_545
Ca3 O82 2.408560 1_545
Ca4 O26 2.187943 1_555
Ca4 O24 2.217328 1_555
Ca4 O98 2.310597 1_555
Ca4 O28 2.408781 1_555
Ca4 O96 2.427693 1_555
Ca4 O100 2.439208 1_555
Ca5 O29 2.160873 1_555
Ca5 O27 2.242171 1_555
Ca5 O101 2.305681 1_555
Ca5 O25 2.419911 1_555
Ca5 O99 2.424521 1_555
Ca5 O97 2.511388 1_555
Ca6 O32 2.127753 1_555
Ca6 O34 2.155060 1_555
Ca6 O106 2.413986 1_555
Ca6 O30 2.458033 1_555
Ca6 O102 2.501840 1_555
Ca6 O104 2.511744 1_555
Ca7 O31 2.193140 1_555
Ca7 O35 2.202450 1_555
Ca7 O107 2.352016 1_555
Ca7 O33 2.402269 1_555
Ca7 O105 2.441314 1_555
Ca7 O103 2.472781 1_555
Ca8 O40 2.290546 1_556
Ca8 O36 2.336807 1_556
Ca8 O110 2.432351 1_555
Ca8 O38 2.460138 1_556
Ca8 O112 2.461543 1_555
Ca8 O108 2.470339 1_555
Ca9 O37 2.250775 1_556
Ca9 O39 2.317764 1_556
Ca9 O113 2.361733 1_555
Ca9 O111 2.429799 1_555
Ca9 O41 2.492849 1_556
Ca9 O109 2.560978 1_555
Ca10 O42 2.227052 1_555
Ca10 O46 2.306315 1_555
Ca10 O116 2.372035 1_555
Ca10 O118 2.478926 1_555
Ca10 O44 2.484118 1_555
Ca10 O114 2.590907 1_555
Ca11 O45 2.263736 1_555
Ca11 O43 2.362219 1_555
Ca11 O47 2.439131 1_555
Ca11 O119 2.446508 1_555
Ca11 O115 2.537505 1_555
Ca11 O117 2.550575 1_555
Ca12 O124 2.241511 1_555
Ca12 O122 2.245744 1_555
Ca12 O120 2.251814 1_555
Ca12 O52 2.343691 1_554
Ca12 O48 2.344705 1_554
Ca12 O50 2.360331 1_554
Ca13 O51 2.155998 1_554
Ca13 O53 2.202403 1_554
Ca13 O121 2.264994 1_555
Ca13 O49 2.318339 1_554
Ca13 O123 2.472942 1_555
Ca13 O125 2.490198 1_555
Ca14 O58 2.171152 1_555
Ca14 O56 2.216806 1_555
Ca14 O126 2.252342 1_555
Ca14 O54 2.342021 1_555
Ca14 O130 2.436653 1_555
Ca14 O128 2.461108 1_555
Ca15 O129 2.206073 1_555
Ca15 O127 2.236878 1_555
Ca15 O131 2.247901 1_555
Ca15 O57 2.339605 1_555
Ca15 O55 2.344958 1_555
Ca15 O59 2.358684 1_555
Ca16 O133 2.254370 1_555
Ca16 O63 2.327223 1_555
Ca16 O61 2.352261 1_555
Ca16 O65 2.380378 1_555
Ca16 O137 2.451194 1_555
Ca16 O135 2.475405 1_555
Ca17 O140 2.227409 1_555
Ca17 O138 2.278412 1_555
Ca17 O66 2.355412 1_555
Ca17 O68 2.375344 1_555
Ca17 O70 2.427308 1_555
Ca17 O142 2.479637 1_555
O0 S0 1.470246 1_545
O1 Si0 1.630665 1_545
O2 S1 1.489040 1_555
O3 S2 1.473130 1_555
O4 S4 1.477528 1_555
O5 S3 1.470493 1_555
O6 Si1 1.627535 1_555
O7 S5 1.468926 1_555
O8 S6 1.472826 1_555
O9 Si2 1.623461 1_555
O10 S7 1.472196 1_545
O11 S8 1.486853 1_545
O12 S7 1.514882 1_555
O12 Zr1 2.208597 1_565
O13 S8 1.501292 1_555
O13 Zr0 2.371778 1_655
O14 Si1 1.695905 1_555
O14 Zr0 2.050400 1_545
O15 S5 1.530189 1_555
O15 Zr1 2.140456 1_555
O16 Si2 1.705719 1_455
O16 Zr0 1.946445 1_555
O17 S6 1.507285 1_555
O17 Zr1 2.327526 1_565
O18 S1 1.502771 1_555
O18 Zr3 2.377721 1_565
O19 S2 1.505758 1_555
O19 Zr2 2.258974 1_655
O20 S3 1.503634 1_555
O20 Zr2 2.335177 1_545
O21 S4 1.503578 1_555
O21 Zr3 2.175125 1_555
O22 S0 1.523203 1_555
O22 Zr2 2.175433 1_555
O23 Si0 1.708522 1_555
O23 Zr3 2.044250 1_565
O24 Si3 1.624827 1_555
O25 S9 1.474885 1_555
O26 Si4 1.626351 1_555
O27 Si5 1.614725 1_555
O28 S10 1.473970 1_555
O29 Si6 1.621426 1_555
O30 S11 1.482586 1_555
O31 Si7 1.628788 1_555
O32 Si8 1.618872 1_555
O33 S12 1.483060 1_555
O34 Si9 1.623196 1_555
O35 Si10 1.623749 1_555
O36 Si9 1.639394 1_555
O37 Si10 1.645250 1_555
O38 S11 1.474298 1_555
O39 Si7 1.643027 1_555
O40 Si8 1.642881 1_555
O41 S12 1.475853 1_555
O42 Si4 1.648177 1_555
O43 Si5 1.645675 1_555
O44 S10 1.488216 1_555
O45 Si6 1.650851 1_555
O46 Si3 1.644485 1_555
O47 S9 1.492859 1_555
O48 S13 1.480302 1_555
O49 S14 1.479000 1_555
O50 S15 1.480159 1_555
O51 Si11 1.617303 1_555
O52 S16 1.479683 1_555
O53 Si12 1.618907 1_555
O54 S17 1.475615 1_555
O55 S18 1.471103 1_555
O56 Si13 1.616294 1_555
O57 S19 1.469318 1_555
O58 Si14 1.614165 1_555
O59 S20 1.471931 1_555
O60 Si14 1.734033 1_555
O60 Zr4 1.940473 1_555
O61 S20 1.490878 1_555
O62 S17 1.510331 1_555
O62 Zr4 2.183773 1_555
O63 S18 1.498626 1_555
O64 Si13 1.728739 1_555
O64 Zr4 1.951430 1_555
O65 S19 1.488296 1_555
O66 S15 1.479078 1_555
O67 Si11 1.717239 1_555
O67 Zr5 1.948350 1_555
O68 S16 1.476008 1_555
O69 Si12 1.717707 1_555
O69 Zr5 1.954773 1_555
O70 S13 1.484398 1_555
O71 S14 1.509216 1_555
O71 Zr5 2.175054 1_555
O72 Si14 1.642475 1_555
O73 S20 1.507156 1_555
O74 S17 1.490078 1_555
O75 S18 1.495829 1_545
O76 Si13 1.634972 1_555
O77 S19 1.518572 1_555
O78 S15 1.501639 1_555
O79 Si11 1.641336 1_555
O80 S16 1.505148 1_555
O81 Si12 1.640216 1_555
O82 S13 1.501350 1_555
O83 S14 1.482832 1_555
O84 Si3 1.716429 1_555
O84 Zr1 1.965853 1_555
O85 S9 1.503908 1_555
O85 Zr0 2.408540 1_645
O86 Si4 1.680867 1_555
O86 Zr0 2.075839 1_545
O87 Si5 1.735044 1_555
O87 Zr1 1.958275 1_555
O88 S10 1.521370 1_555
O88 Zr1 2.216930 1_565
O89 Si6 1.666541 1_555
O89 Zr0 2.067165 1_655
O90 S11 1.523903 1_555
O90 Zr3 2.214938 1_565
O91 Si7 1.722240 1_555
O91 Zr2 1.956361 1_655
O92 Si8 1.685462 1_555
O92 Zr3 2.015813 1_555
O93 S12 1.521989 1_555
O93 Zr2 2.197505 1_645
O94 Si9 1.732201 1_555
O94 Zr2 1.949035 1_545
O95 Si10 1.710822 1_555
O95 Zr3 2.011180 1_555
O96 S7 1.478955 1_545
O97 S8 1.473196 1_545
O98 Si1 1.651795 1_555
O99 S5 1.467806 1_555
O100 S6 1.474691 1_555
O101 Si2 1.630836 1_555
O102 S1 1.490123 1_555
O103 S2 1.481195 1_555
O104 S4 1.479207 1_555
O105 S3 1.480179 1_655
O106 S0 1.478377 1_545
O107 Si0 1.639789 1_545
O108 S13 1.492928 1_555
O109 S14 1.486473 1_555
O110 Si11 1.638420 1_555
O111 S15 1.501649 1_655
O112 S16 1.499562 1_545
O113 Si12 1.641120 1_545
O114 S17 1.485066 1_545
O115 S18 1.491189 1_545
O116 Si13 1.638906 1_555
O117 S19 1.491088 1_555
O118 S20 1.493804 1_555
O119 Si14 1.634336 1_655
O120 Si9 1.632071 1_555
O121 Si10 1.627827 1_555
O122 Si7 1.621468 1_455
O123 S11 1.480223 1_555
O124 Si8 1.628479 1_565
O125 S12 1.479281 1_565
O126 Si4 1.635454 1_565
O127 Si5 1.635109 1_565
O128 S10 1.478530 1_555
O129 Si6 1.639462 1_555
O130 S9 1.488693 1_455
O131 Si3 1.626191 1_555
O132 S0 1.493618 1_555
O132 Zr4 2.406738 1_555
O133 Si0 1.660882 1_555
O134 S1 1.490638 1_555
O134 Zr4 2.396758 1_555
O135 S2 1.502934 1_555
O136 S3 1.509926 1_555
O136 Zr4 2.236949 1_555
O137 S4 1.498956 1_555
O138 Si1 1.652434 1_555
O139 S5 1.493476 1_555
O139 Zr5 2.386933 1_555
O140 Si2 1.653336 1_455
O141 S6 1.508945 1_555
O141 Zr5 2.232120 1_555
O142 S7 1.487751 1_555
O143 S8 1.505886 1_555
O143 Zr5 2.312102 1_555
