# generated using pymatgen
data_KH2N
_symmetry_space_group_name_H-M   'P 1'
_cell_length_a   3.73932380
_cell_length_b   4.54755873
_cell_length_c   6.18554573
_cell_angle_alpha   95.30930626
_cell_angle_beta   90.00000000
_cell_angle_gamma   90.00000000
_symmetry_Int_Tables_number   1
_chemical_formula_structural   KH2N
_chemical_formula_sum   'K2 H4 N2'
_cell_volume   104.73266187
_cell_formula_units_Z   2
loop_
 _symmetry_equiv_pos_site_id
 _symmetry_equiv_pos_as_xyz
  1  'x, y, z'
loop_
 _atom_site_type_symbol
 _atom_site_label
 _atom_site_symmetry_multiplicity
 _atom_site_fract_x
 _atom_site_fract_y
 _atom_site_fract_z
 _atom_site_occupancy
  K  K0  1  0.25000000  0.22486855  0.30965656  1
  K  K1  1  0.75000000  0.77513145  0.69034444  1
  H  H0  1  0.53902599  0.70094842  0.13032181  1
  H  H1  1  0.03902599  0.29905158  0.86967819  1
  H  H2  1  0.96097401  0.70094842  0.13032181  1
  H  H3  1  0.46097401  0.29905158  0.86967819  1
  N  N0  1  0.75000000  0.72744028  0.23646930  1
  N  N1  1  0.25000000  0.27255972  0.76353070  1
loop_
_geom_bond_atom_site_label_1
_geom_bond_atom_site_label_2
_geom_bond_distance
_geom_bond_site_symmetry_2
K0 N1 2.795744 1_555
K0 N0 2.937360 1_445
K0 N0 2.937360 1_545
K0 N0 3.019179 1_455
K0 N0 3.019179 1_555
K1 N0 2.795750 1_555
K1 N1 2.937360 1_565
K1 N1 2.937360 1_665
K1 N1 3.019178 1_655
K1 N1 3.019178 1_555
H0 N0 1.026322 1_555
H0 K0 2.744128 1_555
H0 K0 2.754274 1_565
H0 K1 2.883165 1_554
H1 N1 1.026322 1_555
H1 K1 2.744125 1_455
H1 K1 2.754272 1_445
H1 K0 2.883171 1_556
H2 N0 1.026322 1_555
H2 K0 2.744128 1_655
H2 K0 2.754274 1_665
H2 K1 2.883165 1_554
H3 N1 1.026322 1_555
H3 K1 2.744125 1_555
H3 K1 2.754272 1_545
H3 K0 2.883171 1_556
