# generated using pymatgen
data_NaMnO2
_symmetry_space_group_name_H-M   'P 1'
_cell_length_a   2.86164730
_cell_length_b   4.78879344
_cell_length_c   6.28391662
_cell_angle_alpha   90.00000268
_cell_angle_beta   89.99999829
_cell_angle_gamma   90.00000000
_symmetry_Int_Tables_number   1
_chemical_formula_structural   NaMnO2
_chemical_formula_sum   'Na2 Mn2 O4'
_cell_volume   86.11377422
_cell_formula_units_Z   2
loop_
 _symmetry_equiv_pos_site_id
 _symmetry_equiv_pos_as_xyz
  1  'x, y, z'
loop_
 _atom_site_type_symbol
 _atom_site_label
 _atom_site_symmetry_multiplicity
 _atom_site_fract_x
 _atom_site_fract_y
 _atom_site_fract_z
 _atom_site_occupancy
  Na  Na0  1  0.25000129  0.24999871  0.12364186  1
  Na  Na1  1  0.75000046  0.74999892  0.87635815  1
  Mn  Mn0  1  0.24999783  0.24999900  0.62532702  1
  Mn  Mn1  1  0.74999785  0.74999879  0.37467290  1
  O  O0  1  0.74999999  0.24999937  0.41727318  1
  O  O1  1  0.24999966  0.74999896  0.58272712  1
  O  O2  1  0.75000165  0.24999923  0.82948676  1
  O  O3  1  0.25000127  0.74999902  0.17051302  1
loop_
_geom_bond_atom_site_label_1
_geom_bond_atom_site_label_2
_geom_bond_distance
_geom_bond_site_symmetry_2
Na0 O0 2.334918 1_555
Na0 O0 2.334922 1_455
Na0 O2 2.337521 1_454
Na0 O2 2.337523 1_554
Na0 O3 2.412443 1_545
Na0 O3 2.412445 1_555
Na1 O1 2.334917 1_655
Na1 O1 2.334920 1_555
Na1 O3 2.337519 1_556
Na1 O3 2.337522 1_656
Na1 O2 2.412443 1_555
Na1 O2 2.412446 1_565
Mn0 O2 1.921748 1_455
Mn0 O2 1.921764 1_555
Mn0 O0 1.938173 1_455
Mn0 O0 1.938182 1_555
Mn0 O1 2.409314 1_555
Mn0 O1 2.409315 1_545
Mn1 O3 1.921750 1_555
Mn1 O3 1.921764 1_655
Mn1 O1 1.938175 1_555
Mn1 O1 1.938183 1_655
Mn1 O0 2.409312 1_555
Mn1 O0 2.409317 1_565
