# generated using pymatgen
data_Ba3MgMn3O9
_symmetry_space_group_name_H-M   'P 1'
_cell_length_a   8.59817048
_cell_length_b   7.83840364
_cell_length_c   8.59816410
_cell_angle_alpha   43.30323721
_cell_angle_beta   38.34441397
_cell_angle_gamma   43.30326818
_symmetry_Int_Tables_number   1
_chemical_formula_structural   Ba3MgMn3O9
_chemical_formula_sum   'Ba3 Mg1 Mn3 O9'
_cell_volume   229.17569492
_cell_formula_units_Z   1
loop_
 _symmetry_equiv_pos_site_id
 _symmetry_equiv_pos_as_xyz
  1  'x, y, z'
loop_
 _atom_site_type_symbol
 _atom_site_label
 _atom_site_symmetry_multiplicity
 _atom_site_fract_x
 _atom_site_fract_y
 _atom_site_fract_z
 _atom_site_occupancy
  Ba  Ba0  1  0.71461063  0.85796258  0.71460863  1
  Ba  Ba1  1  0.28517996  0.14206944  0.28517996  1
  Ba  Ba2  1  0.99981734  0.00009999  0.99981834  1
  Mg  Mg0  1  0.00107183  0.49918226  0.00107183  1
  Mn  Mn0  1  0.62903098  0.59066424  0.62903198  1
  Mn  Mn1  1  0.36632566  0.41171683  0.36632966  1
  Mn  Mn2  1  0.49839931  0.50137896  0.49839731  1
  O  O0  1  0.50632331  0.98491447  0.50632331  1
  O  O1  1  0.99211646  0.50230803  0.50051502  1
  O  O2  1  0.50051502  0.50230803  0.99211646  1
  O  O3  1  0.26137440  0.31770817  0.74976685  1
  O  O4  1  0.31188184  0.75763302  0.31187784  1
  O  O5  1  0.74976885  0.31770916  0.26137140  1
  O  O6  1  0.68987093  0.25157514  0.68987393  1
  O  O7  1  0.73930372  0.68138533  0.25441275  1
  O  O8  1  0.25440975  0.68138433  0.73930671  1
loop_
_geom_bond_atom_site_label_1
_geom_bond_atom_site_label_2
_geom_bond_distance
_geom_bond_site_symmetry_2
Ba0 O0 2.692212 1_555
Ba0 O3 2.749955 1_565
Ba0 O5 2.749958 1_565
Ba0 O1 2.784150 1_555
Ba0 O2 2.784156 1_555
Ba0 O6 2.787517 1_565
Ba0 O4 3.028748 1_556
Ba0 O4 3.028762 1_655
Ba1 O4 2.693462 1_545
Ba1 O0 2.757036 1_545
Ba1 O7 2.757546 1_545
Ba1 O8 2.757554 1_545
Ba1 O2 2.772351 1_554
Ba1 O1 2.772352 1_455
Ba1 O6 3.009808 1_554
Ba1 O6 3.009827 1_455
Ba2 O0 2.824762 1_546
Ba2 O0 2.824768 1_645
Ba2 O7 2.923022 1_546
Ba2 O8 2.923023 1_645
Ba2 O5 2.941415 1_556
Ba2 O3 2.941424 1_655
Ba2 O1 3.040205 1_546
Ba2 O2 3.040212 1_645
Ba2 O1 3.066029 1_555
Ba2 O2 3.066030 1_555
Mg0 O5 1.988844 1_455
Mg0 O3 1.988855 1_554
Mg0 O8 2.002330 1_554
Mg0 O7 2.002347 1_455
Mn0 O6 1.998422 1_555
Mn0 O2 2.000640 1_555
Mn0 O1 2.000647 1_555
Mn0 O0 2.007820 1_555
Mn0 O7 2.153325 1_555
Mn0 O8 2.153339 1_555
Mn1 O1 2.057160 1_455
Mn1 O2 2.057173 1_554
Mn1 O4 2.106880 1_555
Mn1 O0 2.154167 1_545
Mn1 O3 2.234245 1_555
Mn1 O5 2.234268 1_555
Mn2 O3 1.931243 1_555
Mn2 O5 1.931243 1_555
Mn2 O7 1.952364 1_555
Mn2 O8 1.952378 1_555
Mn2 O4 1.958512 1_555
Mn2 O6 2.030410 1_555
