# generated using pymatgen
data_SmFeO3
_symmetry_space_group_name_H-M   'P 1'
_cell_length_a   5.38849724
_cell_length_b   5.64927650
_cell_length_c   7.71566968
_cell_angle_alpha   89.99959882
_cell_angle_beta   90.00374659
_cell_angle_gamma   89.99995895
_symmetry_Int_Tables_number   1
_chemical_formula_structural   SmFeO3
_chemical_formula_sum   'Sm4 Fe4 O12'
_cell_volume   234.87355529
_cell_formula_units_Z   4
loop_
 _symmetry_equiv_pos_site_id
 _symmetry_equiv_pos_as_xyz
  1  'x, y, z'
loop_
 _atom_site_type_symbol
 _atom_site_label
 _atom_site_symmetry_multiplicity
 _atom_site_fract_x
 _atom_site_fract_y
 _atom_site_fract_z
 _atom_site_occupancy
  Sm  Sm0  1  0.51574387  0.56336671  0.25001652  1
  Sm  Sm1  1  0.98425403  0.06336662  0.24998159  1
  Sm  Sm2  1  0.48425539  0.43663362  0.74998354  1
  Sm  Sm3  1  0.01574555  0.93663285  0.75001795  1
  Fe  Fe0  1  0.49999912  -0.00000001  -0.00000033  1
  Fe  Fe1  1  -0.00000091  0.49999991  0.49999970  1
  Fe  Fe2  1  0.49999929  0.00000003  0.50000035  1
  Fe  Fe3  1  -0.00000105  0.49999984  0.00000025  1
  O  O0  1  0.40020553  0.96903412  0.24998109  1
  O  O1  1  0.09979571  0.46903415  0.25001965  1
  O  O2  1  0.59979501  0.03096594  0.75001901  1
  O  O3  1  0.90020471  0.53096543  0.74998026  1
  O  O4  1  0.80252003  0.80102332  0.05205622  1
  O  O5  1  0.69748380  0.30102226  0.44794243  1
  O  O6  1  0.19751204  0.19897857  0.55203012  1
  O  O7  1  0.30249309  0.69897866  0.94797142  1
  O  O8  1  0.19748043  0.19897620  0.94794367  1
  O  O9  1  0.30251758  0.69897842  0.55205746  1
  O  O10  1  0.80248952  0.80102176  0.44797032  1
  O  O11  1  0.69750724  0.30102159  0.05202877  1
loop_
_geom_bond_atom_site_label_1
_geom_bond_atom_site_label_2
_geom_bond_distance
_geom_bond_site_symmetry_2
Fe0 O2 2.009989 1_554
Fe0 O0 2.009991 1_545
Fe0 O8 2.020410 1_554
Fe0 O4 2.020422 1_545
Fe0 O7 2.045882 1_544
Fe0 O11 2.045891 1_555
Fe1 O1 2.009988 1_555
Fe1 O3 2.009988 1_455
Fe1 O5 2.020406 1_455
Fe1 O9 2.020424 1_555
Fe1 O10 2.045891 1_455
Fe1 O6 2.045899 1_555
Fe2 O2 2.010205 1_555
Fe2 O0 2.010206 1_545
Fe2 O6 2.020286 1_555
Fe2 O10 2.020299 1_545
Fe2 O9 2.045882 1_545
Fe2 O5 2.045894 1_555
Fe3 O1 2.010209 1_555
Fe3 O3 2.010210 1_454
Fe3 O11 2.020301 1_455
Fe3 O7 2.020314 1_554
Fe3 O4 2.045885 1_455
Fe3 O8 2.045893 1_554
O0 Sm1 2.303835 1_465
O0 Sm0 2.374788 1_555
O1 Sm0 2.303819 1_555
O1 Sm1 2.374794 1_455
O2 Sm3 2.303831 1_645
O2 Sm2 2.374791 1_555
O3 Sm2 2.303824 1_555
O3 Sm3 2.374792 1_655
O4 Sm1 2.342520 1_565
O4 Sm0 2.554152 1_555
O4 Sm3 2.708919 1_654
O5 Sm0 2.342526 1_555
O5 Sm1 2.554143 1_555
O5 Sm2 2.708956 1_555
O6 Sm3 2.342986 1_545
O6 Sm2 2.553899 1_555
O6 Sm1 2.708945 1_455
O7 Sm2 2.342987 1_555
O7 Sm3 2.553898 1_555
O7 Sm0 2.708896 1_556
O8 Sm3 2.342524 1_545
O8 Sm2 2.554150 1_555
O8 Sm1 2.708919 1_456
O9 Sm2 2.342524 1_555
O9 Sm3 2.554143 1_555
O9 Sm0 2.708951 1_555
O10 Sm1 2.342983 1_565
O10 Sm0 2.553909 1_555
O10 Sm3 2.708933 1_655
O11 Sm0 2.342990 1_555
O11 Sm1 2.553895 1_555
O11 Sm2 2.708900 1_554
