# generated using pymatgen
data_Na6Sc4Nb4Si7S5O48
_symmetry_space_group_name_H-M   'P 1'
_cell_length_a   17.95189844
_cell_length_b   8.94880493
_cell_length_c   22.96567958
_cell_angle_alpha   90.08308859
_cell_angle_beta   89.93333431
_cell_angle_gamma   119.94605267
_symmetry_Int_Tables_number   1
_chemical_formula_structural   Na6Sc4Nb4Si7S5O48
_chemical_formula_sum   'Na18 Sc12 Nb12 Si21 S15 O144'
_cell_volume   3196.83833322
_cell_formula_units_Z   3
loop_
 _symmetry_equiv_pos_site_id
 _symmetry_equiv_pos_as_xyz
  1  'x, y, z'
loop_
 _atom_site_type_symbol
 _atom_site_label
 _atom_site_symmetry_multiplicity
 _atom_site_fract_x
 _atom_site_fract_y
 _atom_site_fract_z
 _atom_site_occupancy
  Na  Na0  1  0.00022975  0.61923207  0.25138164  1
  Na  Na1  1  0.50066543  0.63976037  0.25605420  1
  Na  Na2  1  0.99983937  0.36285575  0.75145698  1
  Na  Na3  1  0.50041725  0.38129195  0.74934972  1
  Na  Na4  1  0.33247224  0.97329156  0.58092508  1
  Na  Na5  1  0.83167930  0.69067923  0.08263317  1
  Na  Na6  1  0.00060374  0.98876334  0.50116920  1
  Na  Na7  1  0.50205244  0.00720898  0.49834860  1
  Na  Na8  1  0.99825557  0.99514921  0.00046473  1
  Na  Na9  1  0.50173361  0.01435542  0.00275462  1
  Na  Na10  1  0.33060800  0.34753683  0.82597739  1
  Na  Na11  1  0.83083831  0.33155074  0.83360666  1
  Na  Na12  1  0.33194168  0.33197784  0.33517224  1
  Na  Na13  1  0.82821626  0.31358228  0.32841038  1
  Na  Na14  1  0.16979548  0.66086019  0.17343384  1
  Na  Na15  1  0.66821270  0.66836660  0.16838081  1
  Na  Na16  1  0.16775001  0.66917216  0.66458038  1
  Na  Na17  1  0.66964317  0.67853517  0.66792729  1
  Sc  Sc0  1  0.50457953  0.99529524  0.64554408  1
  Sc  Sc1  1  0.00265044  0.01042062  0.14799836  1
  Sc  Sc2  1  0.33233694  0.33804609  0.68616510  1
  Sc  Sc3  1  0.82757288  0.33126402  0.68465993  1
  Sc  Sc4  1  0.32883674  0.32484262  0.18751972  1
  Sc  Sc5  1  0.83179111  0.32631688  0.18766268  1
  Sc  Sc6  1  0.66764236  0.64887792  0.01541686  1
  Sc  Sc7  1  0.16643405  0.68499159  0.51498054  1
  Sc  Sc8  1  0.16971361  0.66753185  0.31394146  1
  Sc  Sc9  1  0.66818532  0.67795383  0.31898986  1
  Sc  Sc10  1  0.16661087  0.64764440  0.81538815  1
  Sc  Sc11  1  0.66910870  0.67069775  0.81323313  1
  Nb  Nb0  1  0.99374385  0.00589155  0.35731657  1
  Nb  Nb1  1  0.50130365  0.98465667  0.35859611  1
  Nb  Nb2  1  0.99596275  0.01521945  0.85419352  1
  Nb  Nb3  1  0.49479667  0.98276288  0.85646969  1
  Nb  Nb4  1  0.99888573  0.00274069  0.64419893  1
  Nb  Nb5  1  0.49958381  0.99867005  0.14701372  1
  Nb  Nb6  1  0.34067035  0.33015016  0.97667249  1
  Nb  Nb7  1  0.83451738  0.35213380  0.98075259  1
  Nb  Nb8  1  0.33550829  0.31646196  0.48062605  1
  Nb  Nb9  1  0.83528992  0.35205237  0.47329026  1
  Nb  Nb10  1  0.16724725  0.66308589  0.02204888  1
  Nb  Nb11  1  0.66558228  0.65329371  0.51801232  1
  Si  Si0  1  0.64748951  0.00155034  0.25042750  1
  Si  Si1  1  0.35284091  0.70805944  0.24990682  1
  Si  Si2  1  0.00113708  0.29692567  0.24840739  1
  Si  Si3  1  0.14714302  0.28835995  0.74971612  1
  Si  Si4  1  0.50113070  0.70510457  0.74789463  1
  Si  Si5  1  0.85062284  0.99845386  0.74753541  1
  Si  Si6  1  0.48173787  0.33514875  0.58749721  1
  Si  Si7  1  0.18822504  0.04313809  0.58554606  1
  Si  Si8  1  0.83179411  0.62273585  0.58501073  1
  Si  Si9  1  0.98076817  0.62931681  0.08673322  1
  Si  Si10  1  0.33328758  0.04227981  0.08527849  1
  Si  Si11  1  0.68740500  0.33194453  0.08572957  1
  Si  Si12  1  0.30874570  0.66017154  0.91773445  1
  Si  Si13  1  0.81225097  0.67056282  0.91570077  1
  Si  Si14  1  0.02003744  0.37978315  0.91662504  1
  Si  Si15  1  0.52642738  0.37705524  0.91310750  1
  Si  Si16  1  0.31109501  0.95116148  0.41550403  1
  Si  Si17  1  0.80784080  0.95681769  0.41855015  1
  Si  Si18  1  0.66438333  0.37679941  0.41285234  1
  Si  Si19  1  0.02565115  0.67342556  0.41298980  1
  Si  Si20  1  0.52041332  0.65829748  0.41724841  1
  S  S0  1  0.14389437  0.00201862  0.25066796  1
  S  S1  1  0.85467882  0.71360744  0.24982496  1
  S  S2  1  0.50007831  0.28675664  0.24987156  1
  S  S3  1  0.64371220  0.28508678  0.75081547  1
  S  S4  1  0.00057798  0.71516949  0.74987804  1
  S  S5  1  0.35482928  0.99611342  0.75020176  1
  S  S6  1  0.97878961  0.33553225  0.58360502  1
  S  S7  1  0.68977740  0.04382740  0.58186492  1
  S  S8  1  0.33190864  0.62197508  0.58264899  1
  S  S9  1  0.47864702  0.62233092  0.08351913  1
  S  S10  1  0.83206520  0.04253495  0.08262319  1
  S  S11  1  0.18953798  0.33260071  0.08210790  1
  S  S12  1  0.16660866  0.95546105  0.91726278  1
  S  S13  1  0.66723027  0.95920889  0.91708065  1
  S  S14  1  0.16746679  0.37516140  0.41696520  1
  O  O0  1  0.10146810  0.02337308  0.30267487  1
  O  O1  1  0.59446284  0.02050760  0.30654935  1
  O  O2  1  0.41854336  0.80700417  0.30530363  1
  O  O3  1  0.91132396  0.80186428  0.30222332  1
  O  O4  1  0.48665201  0.18225795  0.30147606  1
  O  O5  1  0.99158498  0.16740036  0.30609061  1
  O  O6  1  0.09410885  0.16485218  0.80708373  1
  O  O7  1  0.60069512  0.17833214  0.80311629  1
  O  O8  1  0.49139374  0.81514520  0.80638016  1
  O  O9  1  0.98780764  0.79491108  0.80251255  1
  O  O10  1  0.41126956  0.02028077  0.80292779  1
  O  O11  1  0.91647099  0.02977871  0.80573257  1
  O  O12  1  0.39426163  0.97363853  0.69743172  1
  O  O13  1  0.90520219  0.97874928  0.69265805  1
  O  O14  1  0.08039103  0.18535235  0.69454864  1
  O  O15  1  0.59126180  0.20740191  0.69811861  1
  O  O16  1  0.01140523  0.81894322  0.69676914  1
  O  O17  1  0.51191537  0.83006555  0.69389095  1
  O  O18  1  0.40488011  0.83258883  0.19199933  1
  O  O19  1  0.89624686  0.81482657  0.19659253  1
  O  O20  1  0.01243886  0.19570071  0.19331187  1
  O  O21  1  0.51031136  0.20267630  0.19576756  1
  O  O22  1  0.09162262  0.97570101  0.19755275  1
  O  O23  1  0.58092805  0.97756320  0.19390556  1
  O  O24  1  0.44014901  0.36482773  0.64512514  1
  O  O25  1  0.93936259  0.35584322  0.63757967  1
  O  O26  1  0.25121211  0.13233301  0.63977877  1
  O  O27  1  0.74062986  0.12089130  0.63565072  1
  O  O28  1  0.32097717  0.52192074  0.63527030  1
  O  O29  1  0.81856316  0.50476167  0.64121391  1
  O  O30  1  0.43796309  0.51971903  0.13602027  1
  O  O31  1  0.94260026  0.51628735  0.14415762  1
  O  O32  1  0.31723938  0.13271559  0.14016104  1
  O  O33  1  0.82140236  0.12088492  0.13492542  1
  O  O34  1  0.24053839  0.36231626  0.13496702  1
  O  O35  1  0.75230355  0.37167317  0.13884464  1
  O  O36  1  0.23220599  0.31320527  0.03004253  1
  O  O37  1  0.73503194  0.30395547  0.02651062  1
  O  O38  1  0.42293872  0.53657135  0.03078555  1
  O  O39  1  0.91600121  0.52598703  0.02905088  1
  O  O40  1  0.34424035  0.16646920  0.02746429  1
  O  O41  1  0.84542717  0.14908244  0.02970227  1
  O  O42  1  0.23435040  0.16575827  0.52682886  1
  O  O43  1  0.73276714  0.15248045  0.53079785  1
  O  O44  1  0.34517895  0.54179940  0.53000698  1
  O  O45  1  0.84601741  0.52576294  0.52805524  1
  O  O46  1  0.41606797  0.30556416  0.52977371  1
  O  O47  1  0.92427363  0.30750562  0.53209304  1
  O  O48  1  0.26523905  0.69686294  0.97436279  1
  O  O49  1  0.77820761  0.70680011  0.97643495  1
  O  O50  1  0.08495868  0.47928850  0.97182226  1
  O  O51  1  0.57731452  0.45606759  0.97252609  1
  O  O52  1  0.15485244  0.85033410  0.96995827  1
  O  O53  1  0.65040593  0.85499463  0.96940064  1
  O  O54  1  0.27653009  0.84876383  0.47657384  1
  O  O55  1  0.76581442  0.83300749  0.47491418  1
  O  O56  1  0.15057320  0.44617583  0.46948625  1
  O  O57  1  0.65184327  0.46595273  0.47262140  1
  O  O58  1  0.07850597  0.70243026  0.47214512  1
  O  O59  1  0.58392005  0.69190305  0.47289738  1
  O  O60  1  0.05917877  0.63200516  0.35424912  1
  O  O61  1  0.55549228  0.62474026  0.35710724  1
  O  O62  1  0.25104247  0.87093028  0.36004361  1
  O  O63  1  0.75569067  0.88485714  0.35949913  1
  O  O64  1  0.17991811  0.47566782  0.36459155  1
  O  O65  1  0.68584212  0.49692106  0.35761008  1
  O  O66  1  0.05756042  0.48809894  0.85745302  1
  O  O67  1  0.55792381  0.48583035  0.85459127  1
  O  O68  1  0.18312431  0.88396679  0.86494940  1
  O  O69  1  0.67988664  0.88344674  0.86455788  1
  O  O70  1  0.25449378  0.63136085  0.85982755  1
  O  O71  1  0.75283799  0.63487828  0.86021379  1
  O  O72  1  0.01006352  0.84025929  0.40352544  1
  O  O73  1  0.51145743  0.83359503  0.41266811  1
  O  O74  1  0.40900754  0.98520779  0.40514007  1
  O  O75  1  0.90667193  0.97992470  0.40956754  1
  O  O76  1  0.08944993  0.19465448  0.40947819  1
  O  O77  1  0.58033478  0.18578784  0.40844191  1
  O  O78  1  0.01374883  0.18750947  0.91166815  1
  O  O79  1  0.50912243  0.17887463  0.90443401  1
  O  O80  1  0.09006829  0.97547375  0.91234535  1
  O  O81  1  0.58959375  0.98454999  0.90939004  1
  O  O82  1  0.40701966  0.83161387  0.90952704  1
  O  O83  1  0.91258722  0.83207256  0.90541649  1
  O  O84  1  0.48426566  0.15529248  0.58803005  1
  O  O85  1  0.98519787  0.17270342  0.58830128  1
  O  O86  1  0.09203126  0.02522149  0.59249736  1
  O  O87  1  0.60377249  0.02857866  0.58666279  1
  O  O88  1  0.40877672  0.79993733  0.58739295  1
  O  O89  1  0.91919878  0.81427885  0.59175346  1
  O  O90  1  0.48339461  0.79417195  0.08684343  1
  O  O91  1  0.98478151  0.81506081  0.08653353  1
  O  O92  1  0.41873188  0.02273629  0.08985078  1
  O  O93  1  0.90902362  0.01815153  0.08685833  1
  O  O94  1  0.10301044  0.17996574  0.08610287  1
  O  O95  1  0.59154442  0.15789996  0.09127458  1
  O  O96  1  0.35150343  0.15765181  0.74860397  1
  O  O97  1  0.85359801  0.18316807  0.74404198  1
  O  O98  1  0.23912682  0.30418539  0.74644482  1
  O  O99  1  0.72977499  0.30056302  0.74660700  1
  O  O100  1  0.41542258  0.51670993  0.74902884  1
  O  O101  1  0.92448054  0.53874610  0.74413969  1
  O  O102  1  0.35338159  0.52565977  0.24251308  1
  O  O103  1  0.85159907  0.54544033  0.24758507  1
  O  O104  1  0.42349299  0.30980359  0.24268271  1
  O  O105  1  0.91547343  0.31401623  0.24842466  1
  O  O106  1  0.23001699  0.15875307  0.24594344  1
  O  O107  1  0.73887297  0.17252197  0.24496336  1
  O  O108  1  0.32246829  0.49503121  0.93119292  1
  O  O109  1  0.82340278  0.49547786  0.92462963  1
  O  O110  1  0.42537358  0.34864533  0.92634685  1
  O  O111  1  0.92242125  0.34211213  0.92881008  1
  O  O112  1  0.24392070  0.13389100  0.92623567  1
  O  O113  1  0.74380448  0.13452467  0.92348713  1
  O  O114  1  0.32270303  0.14961189  0.42474555  1
  O  O115  1  0.82585648  0.15147439  0.43206726  1
  O  O116  1  0.24375187  0.35279268  0.42350935  1
  O  O117  1  0.74804102  0.35027722  0.42728568  1
  O  O118  1  0.42201251  0.49932356  0.42960755  1
  O  O119  1  0.92659296  0.50360680  0.42524965  1
  O  O120  1  0.18003619  0.49062981  0.07616902  1
  O  O121  1  0.67997779  0.50590100  0.07780059  1
  O  O122  1  0.07538176  0.64847845  0.07067625  1
  O  O123  1  0.56445130  0.64621990  0.07625017  1
  O  O124  1  0.24852124  0.85246827  0.07196417  1
  O  O125  1  0.75513099  0.86780981  0.07668476  1
  O  O126  1  0.18003925  0.85368119  0.57863294  1
  O  O127  1  0.68005077  0.87012738  0.57665877  1
  O  O128  1  0.25506762  0.64271905  0.57720186  1
  O  O129  1  0.74905344  0.64870563  0.57521262  1
  O  O130  1  0.06565191  0.48250619  0.57784969  1
  O  O131  1  0.57525897  0.50699043  0.57496251  1
  O  O132  1  0.15151158  0.84565148  0.25472765  1
  O  O133  1  0.64582281  0.81786487  0.25119283  1
  O  O134  1  0.26071765  0.69254922  0.25319816  1
  O  O135  1  0.76983932  0.69582405  0.25524219  1
  O  O136  1  0.08493128  0.48604353  0.25392508  1
  O  O137  1  0.57705213  0.46007328  0.25203167  1
  O  O138  1  0.14593677  0.47087030  0.75303210  1
  O  O139  1  0.65136464  0.45661069  0.75580621  1
  O  O140  1  0.07821362  0.69725603  0.75437380  1
  O  O141  1  0.58497355  0.68414891  0.75464405  1
  O  O142  1  0.26851758  0.84544960  0.75789779  1
  O  O143  1  0.76023390  0.82841297  0.75376954  1
loop_
_geom_bond_atom_site_label_1
_geom_bond_atom_site_label_2
_geom_bond_distance
_geom_bond_site_symmetry_2
Na0 O136 2.354960 1_555
Na0 O105 2.372859 1_455
Na0 O103 2.409206 1_455
Na0 O132 2.448098 1_555
Na0 O60 2.568707 1_555
Na0 O31 2.651525 1_455
Na1 O133 2.279593 1_555
Na1 O102 2.331486 1_555
Na1 O61 2.551665 1_555
Na1 O104 2.578085 1_555
Na1 O137 2.583652 1_555
Na1 O2 2.808308 1_555
Na1 O30 2.968434 1_555
Na1 O23 2.985054 1_555
Na2 O138 2.298574 1_655
Na2 O97 2.300553 1_555
Na2 O101 2.542262 1_555
Na2 O140 2.595222 1_655
Na2 O66 2.663462 1_655
Na2 O25 2.821413 1_555
Na2 O11 2.868906 1_555
Na2 O14 2.933450 1_655
Na3 O141 2.357203 1_555
Na3 O100 2.375450 1_555
Na3 O96 2.410530 1_555
Na3 O139 2.448764 1_555
Na3 O24 2.601423 1_555
Na3 O67 2.611050 1_555
Na4 O84 2.382043 1_565
Na4 O126 2.390106 1_555
Na4 O88 2.535290 1_555
Na4 O128 2.566110 1_555
Na4 O54 2.621857 1_555
Na4 O46 2.832756 1_565
Na4 O26 2.836034 1_565
Na4 O12 2.897065 1_555
Na5 O121 2.380635 1_555
Na5 O91 2.397310 1_555
Na5 O93 2.542095 1_565
Na5 O125 2.568144 1_555
Na5 O49 2.652410 1_554
Na5 O35 2.791352 1_555
Na5 O19 2.853117 1_555
Na5 O39 2.862771 1_555
Na6 O89 2.574039 1_455
Na6 O86 2.582801 1_565
Na6 O72 2.653167 1_555
Na6 O75 2.673921 1_455
Na6 O85 2.689571 1_465
Na6 O76 2.728066 1_565
Na7 O84 2.552051 1_555
Na7 O77 2.559823 1_555
Na7 O73 2.562504 1_545
Na7 O74 2.662650 1_545
Na7 O87 2.672738 1_555
Na7 O88 2.707098 1_545
Na8 O91 2.486301 1_555
Na8 O78 2.594236 1_664
Na8 O93 2.620233 1_565
Na8 O83 2.649069 1_554
Na8 O94 2.652149 1_665
Na8 O80 2.669080 1_654
Na9 O95 2.512897 1_555
Na9 O92 2.516134 1_555
Na9 O90 2.661216 1_545
Na9 O79 2.664143 1_554
Na9 O82 2.715074 1_544
Na9 O81 2.750794 1_544
Na10 O100 2.330939 1_555
Na10 O98 2.356386 1_555
Na10 O96 2.609922 1_555
Na10 O108 2.790106 1_555
Na10 O110 2.863518 1_555
Na10 O112 2.900440 1_555
Na11 O97 2.587041 1_555
Na11 O109 2.593358 1_555
Na11 O99 2.620129 1_555
Na11 O113 2.657705 1_555
Na11 O111 2.710163 1_555
Na11 O101 2.716000 1_555
Na12 O114 2.580935 1_555
Na12 O116 2.634899 1_555
Na12 O102 2.650148 1_555
Na12 O106 2.667941 1_555
Na12 O118 2.672444 1_555
Na12 O104 2.751094 1_555
Na13 O105 2.411488 1_555
Na13 O107 2.411923 1_555
Na13 O103 2.658298 1_555
Na13 O115 2.778793 1_555
Na13 O117 2.792446 1_555
Na13 O119 2.820746 1_555
Na14 O134 2.375618 1_555
Na14 O136 2.409939 1_555
Na14 O132 2.619049 1_555
Na14 O120 2.759138 1_555
Na14 O124 2.819999 1_555
Na14 O122 2.876657 1_555
Na15 O133 2.469011 1_555
Na15 O121 2.604325 1_555
Na15 O137 2.607838 1_555
Na15 O135 2.632039 1_555
Na15 O125 2.697721 1_555
Na15 O123 2.761370 1_555
Na16 O126 2.513113 1_555
Na16 O138 2.596855 1_555
Na16 O128 2.627125 1_555
Na16 O130 2.656929 1_555
Na16 O140 2.700618 1_555
Na16 O142 2.739330 1_555
Na17 O143 2.480388 1_555
Na17 O141 2.519499 1_555
Na17 O129 2.647343 1_555
Na17 O127 2.656612 1_555
Na17 O131 2.681009 1_555
Na17 O139 2.735748 1_555
Nb0 O5 1.880264 1_555
Nb0 O75 1.889725 1_545
Nb0 O72 1.961577 1_645
Nb0 O76 2.083686 1_655
Nb0 O3 2.103386 1_545
Nb0 O0 2.243187 1_655
Nb1 O73 1.911575 1_555
Nb1 O1 1.946615 1_565
Nb1 O2 1.968029 1_555
Nb1 O74 1.972792 1_555
Nb1 O77 2.002813 1_565
Nb1 O4 2.321368 1_565
Nb2 O11 1.865946 1_555
Nb2 O6 1.926712 1_655
Nb2 O78 1.930004 1_655
Nb2 O83 1.965364 1_545
Nb2 O9 2.241071 1_545
Nb2 O80 2.317446 1_645
Nb3 O8 1.865643 1_555
Nb3 O82 1.915649 1_555
Nb3 O79 1.975823 1_565
Nb3 O81 2.085906 1_555
Nb3 O10 2.093135 1_565
Nb3 O7 2.203967 1_565
Nb4 O13 1.936215 1_545
Nb4 O14 1.938998 1_655
Nb4 O86 1.976506 1_655
Nb4 O89 1.982643 1_545
Nb4 O85 2.097901 1_555
Nb4 O16 2.142153 1_645
Nb5 O23 1.899327 1_555
Nb5 O18 1.909014 1_555
Nb5 O95 2.011526 1_565
Nb5 O92 2.047881 1_565
Nb5 O21 2.065712 1_565
Nb5 O90 2.192155 1_555
Nb6 O110 1.849476 1_555
Nb6 O40 1.899762 1_556
Nb6 O108 1.965036 1_555
Nb6 O112 2.096716 1_555
Nb6 O38 2.100416 1_556
Nb6 O36 2.239833 1_556
Nb7 O39 1.875430 1_556
Nb7 O109 1.899334 1_555
Nb7 O37 1.925625 1_556
Nb7 O111 2.014412 1_555
Nb7 O41 2.228354 1_556
Nb7 O113 2.237228 1_555
Nb8 O46 1.876143 1_555
Nb8 O114 1.892516 1_555
Nb8 O42 1.948597 1_555
Nb8 O118 1.981525 1_555
Nb8 O44 2.242062 1_555
Nb8 O116 2.254001 1_555
Nb9 O119 1.877216 1_555
Nb9 O117 1.883801 1_555
Nb9 O45 1.931690 1_555
Nb9 O115 1.959261 1_555
Nb9 O43 2.245159 1_555
Nb9 O47 2.275243 1_555
Nb10 O122 1.940331 1_555
Nb10 O50 1.946982 1_554
Nb10 O124 1.960771 1_555
Nb10 O48 1.962369 1_554
Nb10 O120 2.083072 1_555
Nb10 O52 2.160348 1_554
Nb11 O57 1.881699 1_555
Nb11 O59 1.962717 1_555
Nb11 O55 1.978675 1_555
Nb11 O131 1.983554 1_555
Nb11 O129 2.009703 1_555
Nb11 O127 2.266430 1_555
O0 S0 1.478398 1_555
O1 Si0 1.659484 1_555
O2 Si1 1.658707 1_555
O3 S1 1.517956 1_555
O4 S2 1.454180 1_555
O5 Si2 1.712694 1_655
O6 Si3 1.677654 1_555
O7 S3 1.488735 1_555
O8 Si4 1.723889 1_555
O9 S4 1.477537 1_655
O10 S5 1.524122 1_545
O11 Si5 1.712902 1_545
O12 S5 1.466182 1_555
O12 Sc0 2.234188 1_555
O13 Si5 1.657837 1_555
O14 Si3 1.669794 1_555
O15 S3 1.476888 1_555
O15 Sc0 2.128614 1_545
O16 S4 1.486715 1_555
O17 Si4 1.616620 1_555
O17 Sc0 1.906814 1_555
O18 Si1 1.686781 1_555
O19 S1 1.482609 1_555
O19 Sc1 2.149545 1_665
O20 Si2 1.625508 1_555
O20 Sc1 1.888774 1_555
O21 S2 1.509479 1_555
O22 S0 1.484987 1_565
O22 Sc1 2.107962 1_565
O23 Si0 1.704574 1_565
O24 Si6 1.604417 1_555
O24 Sc2 2.055474 1_555
O25 S6 1.481980 1_555
O25 Sc3 2.190841 1_555
O26 Si7 1.601950 1_555
O26 Sc2 1.991478 1_555
O27 S7 1.485388 1_555
O27 Sc3 2.076397 1_555
O28 S8 1.458695 1_555
O28 Sc2 2.111027 1_555
O29 Si8 1.609313 1_555
O29 Sc3 1.920374 1_555
O30 S9 1.470369 1_555
O30 Sc4 2.206270 1_555
O31 Si9 1.594247 1_555
O31 Sc5 2.114103 1_555
O32 Si10 1.598615 1_555
O32 Sc4 1.954489 1_555
O33 S10 1.449837 1_555
O33 Sc5 2.129094 1_555
O34 S11 1.463284 1_555
O34 Sc4 2.148958 1_555
O35 Si11 1.600073 1_555
O35 Sc5 2.010265 1_555
O36 S11 1.475321 1_555
O37 Si11 1.689220 1_555
O38 S9 1.513162 1_555
O39 Si9 1.699534 1_555
O40 Si10 1.679930 1_555
O41 S10 1.489330 1_555
O42 Si7 1.674123 1_555
O43 S7 1.472573 1_555
O44 S8 1.483430 1_555
O45 Si8 1.657204 1_555
O46 Si6 1.705370 1_555
O47 S6 1.475458 1_555
O48 Si12 1.631429 1_555
O49 Si13 1.618236 1_555
O49 Sc6 1.994959 1_556
O50 Si14 1.649906 1_555
O51 Si15 1.597436 1_555
O51 Sc6 1.944804 1_556
O52 S12 1.482772 1_555
O53 S13 1.458048 1_555
O53 Sc6 2.278366 1_556
O54 Si16 1.620423 1_555
O54 Sc7 1.984939 1_555
O55 Si17 1.624710 1_555
O56 S14 1.462887 1_555
O56 Sc7 2.264213 1_555
O57 Si18 1.657328 1_555
O58 Si19 1.602938 1_555
O58 Sc7 1.932273 1_555
O59 Si20 1.638139 1_555
O60 Si19 1.593393 1_555
O60 Sc8 2.064515 1_555
O61 Si20 1.606232 1_555
O61 Sc9 2.030051 1_555
O62 Si16 1.589893 1_555
O62 Sc8 1.977502 1_555
O63 Si17 1.590224 1_555
O63 Sc9 1.963663 1_555
O64 S14 1.451697 1_555
O64 Sc8 2.157512 1_555
O65 Si18 1.582037 1_555
O65 Sc9 2.007264 1_555
O66 Si14 1.609283 1_555
O66 Sc10 2.003312 1_555
O67 Si15 1.589256 1_555
O67 Sc11 2.080009 1_555
O68 S12 1.458405 1_555
O68 Sc10 2.285539 1_555
O69 S13 1.455002 1_555
O69 Sc11 2.162796 1_555
O70 Si12 1.592134 1_555
O70 Sc10 1.945648 1_555
O71 Si13 1.589130 1_555
O71 Sc11 2.002990 1_555
O72 Si19 1.665130 1_555
O73 Si20 1.658330 1_555
O74 Si16 1.644270 1_555
O75 Si17 1.692963 1_555
O76 S14 1.530188 1_555
O77 Si18 1.622837 1_555
O78 Si14 1.670859 1_555
O79 Si15 1.652419 1_555
O80 S12 1.476117 1_555
O81 S13 1.530136 1_555
O82 Si12 1.673188 1_555
O83 Si13 1.670343 1_555
O84 Si6 1.632688 1_555
O84 Sc0 2.110810 1_545
O85 S6 1.521813 1_555
O86 Si7 1.660197 1_555
O87 S7 1.484539 1_555
O87 Sc0 2.134067 1_545
O88 S8 1.502702 1_555
O88 Sc0 2.189624 1_555
O89 Si8 1.654907 1_555
O90 S9 1.498887 1_555
O91 Si9 1.627433 1_555
O91 Sc1 2.141449 1_665
O92 Si10 1.631771 1_555
O93 S10 1.505687 1_555
O93 Sc1 2.218835 1_655
O94 S11 1.472665 1_555
O94 Sc1 2.199943 1_555
O95 Si11 1.651546 1_555
O96 S5 1.476796 1_545
O96 Sc2 2.311495 1_555
O97 Si5 1.629060 1_545
O97 Sc3 2.111717 1_555
O98 Si3 1.587044 1_555
O98 Sc2 2.073122 1_555
O99 S3 1.483774 1_555
O99 Sc3 2.166917 1_555
O100 Si4 1.618831 1_555
O100 Sc2 2.117247 1_555
O101 S4 1.490871 1_655
O101 Sc3 2.261231 1_555
O102 Si1 1.645663 1_555
O102 Sc4 2.054959 1_555
O103 S1 1.478894 1_555
O103 Sc5 2.272121 1_555
O104 S2 1.497908 1_555
O104 Sc4 2.178150 1_555
O105 Si2 1.619601 1_655
O105 Sc5 2.094412 1_555
O106 S0 1.484734 1_555
O106 Sc4 2.127038 1_555
O107 Si0 1.594395 1_555
O107 Sc5 2.028906 1_555
O108 Si12 1.644718 1_555
O109 Si13 1.688543 1_555
O110 Si15 1.728164 1_555
O111 Si14 1.634683 1_655
O112 S12 1.518390 1_545
O113 S13 1.489742 1_545
O114 Si16 1.694642 1_545
O115 Si17 1.634487 1_545
O116 S14 1.487391 1_555
O117 Si18 1.667003 1_555
O118 Si20 1.648013 1_555
O119 Si19 1.689097 1_655
O120 S11 1.512951 1_555
O121 Si11 1.637791 1_555
O121 Sc6 2.006888 1_555
O122 Si9 1.660789 1_455
O123 S9 1.454990 1_555
O123 Sc6 2.309576 1_555
O124 Si10 1.647222 1_565
O125 S10 1.488194 1_565
O125 Sc6 2.282553 1_555
O126 Si7 1.634553 1_565
O126 Sc7 2.025268 1_555
O127 S7 1.479697 1_565
O128 S8 1.486301 1_555
O128 Sc7 2.307495 1_555
O129 Si8 1.629869 1_555
O130 S6 1.459910 1_455
O130 Sc7 2.317293 1_555
O131 Si6 1.639785 1_555
O132 S0 1.475422 1_565
O132 Sc8 2.241445 1_555
O133 Si0 1.629156 1_565
O133 Sc9 2.159153 1_555
O134 Si1 1.590774 1_555
O134 Sc8 2.072581 1_555
O135 S1 1.455356 1_555
O135 Sc9 2.280833 1_555
O136 Si2 1.612825 1_555
O136 Sc8 2.093919 1_555
O137 S2 1.475698 1_555
O137 Sc9 2.378088 1_555
O138 Si3 1.645818 1_555
O138 Sc10 2.024718 1_555
O139 S3 1.475479 1_555
O139 Sc11 2.212597 1_555
O140 S4 1.483985 1_555
O140 Sc10 2.321459 1_555
O141 Si4 1.614638 1_555
O141 Sc11 2.071940 1_555
O142 S5 1.471141 1_555
O142 Sc10 2.234156 1_555
O143 Si5 1.582386 1_555
O143 Sc11 2.056281 1_555
