# generated using pymatgen
data_Na14La4Y4Si7S5O48
_symmetry_space_group_name_H-M   'P 1'
_cell_length_a   19.27064056
_cell_length_b   9.64799517
_cell_length_c   23.74749400
_cell_angle_alpha   90.02534179
_cell_angle_beta   89.76323844
_cell_angle_gamma   120.12147078
_symmetry_Int_Tables_number   1
_chemical_formula_structural   Na14La4Y4Si7S5O48
_chemical_formula_sum   'Na42 La12 Y12 Si21 S15 O144'
_cell_volume   3818.95269163
_cell_formula_units_Z   3
loop_
 _symmetry_equiv_pos_site_id
 _symmetry_equiv_pos_as_xyz
  1  'x, y, z'
loop_
 _atom_site_type_symbol
 _atom_site_label
 _atom_site_symmetry_multiplicity
 _atom_site_fract_x
 _atom_site_fract_y
 _atom_site_fract_z
 _atom_site_occupancy
  Na  Na0  1  0.80796423  0.98508692  0.24013085  1
  Na  Na1  1  0.18917487  0.36353224  0.26139504  1
  Na  Na2  1  0.69249396  0.36883488  0.25837357  1
  Na  Na3  1  0.99928153  0.65686449  0.23945919  1
  Na  Na4  1  0.50254084  0.65801599  0.24294829  1
  Na  Na5  1  0.30770164  0.63207417  0.75514249  1
  Na  Na6  1  -0.00000136  0.34392789  0.74751548  1
  Na  Na7  1  0.50303136  0.34728905  0.74774880  1
  Na  Na8  1  0.18842264  0.01111151  0.76485082  1
  Na  Na9  1  0.69183698  0.01718644  0.76640093  1
  Na  Na10  1  0.14033568  0.33049466  0.58379992  1
  Na  Na11  1  0.64044840  0.33202506  0.58438159  1
  Na  Na12  1  0.34041062  0.98185442  0.57687062  1
  Na  Na13  1  0.84065019  0.98192281  0.57983813  1
  Na  Na14  1  0.13677744  0.94793308  0.08714212  1
  Na  Na15  1  0.65283218  0.95571618  0.08605564  1
  Na  Na16  1  0.34032001  0.69788774  0.07983667  1
  Na  Na17  1  0.83818695  0.71596026  0.07637980  1
  Na  Na18  1  0.48880655  0.69236170  0.92749588  1
  Na  Na19  1  0.98221741  0.68450238  0.92892291  1
  Na  Na20  1  0.33853665  0.00835939  0.91070443  1
  Na  Na21  1  0.83919716  0.01316553  0.92202164  1
  Na  Na22  1  0.17189275  0.29458470  0.90580314  1
  Na  Na23  1  0.67849667  0.30720625  0.90747740  1
  Na  Na24  1  0.48566898  0.28255318  0.42206909  1
  Na  Na25  1  0.98450468  0.27933003  0.42262120  1
  Na  Na26  1  0.17345571  0.04672264  0.40135895  1
  Na  Na27  1  0.67424628  0.05100839  0.40155899  1
  Na  Na28  1  0.33856691  0.66686528  0.40383337  1
  Na  Na29  1  0.83855784  0.66761576  0.40518498  1
  Na  Na30  1  0.99717394  0.02033302  0.49378352  1
  Na  Na31  1  0.49898390  0.02415818  0.49347812  1
  Na  Na32  1  0.98617867  0.97553663  0.00297766  1
  Na  Na33  1  0.50096400  0.97661977  0.99622137  1
  Na  Na34  1  0.31986703  0.31896935  0.83524674  1
  Na  Na35  1  0.81972159  0.32982083  0.83637774  1
  Na  Na36  1  0.31983795  0.31296902  0.32938967  1
  Na  Na37  1  0.82070360  0.32465149  0.32728968  1
  Na  Na38  1  0.16335651  0.68265057  0.17174820  1
  Na  Na39  1  0.66765920  0.68880538  0.16302059  1
  Na  Na40  1  0.15696720  0.64293882  0.67261941  1
  Na  Na41  1  0.66740852  0.64924436  0.67450422  1
  La  La0  1  0.99720753  0.00784256  0.65424648  1
  La  La1  1  0.49705263  0.00758206  0.65251807  1
  La  La2  1  0.99210524  0.98980624  0.14957482  1
  La  La3  1  0.49874977  0.98812623  0.15314330  1
  La  La4  1  0.83720493  0.33873695  0.68629021  1
  La  La5  1  0.33704389  0.33442762  0.18563641  1
  La  La6  1  0.15985670  0.66692493  0.01297357  1
  La  La7  1  0.66880533  0.68025130  0.01534613  1
  La  La8  1  0.16379201  0.65845970  0.51235806  1
  La  La9  1  0.66136693  0.65457764  0.51234486  1
  La  La10  1  0.18081630  0.68915992  0.31655494  1
  La  La11  1  0.68146743  0.67478108  0.81868282  1
  Y  Y0  1  0.99787667  0.99660009  0.34672305  1
  Y  Y1  1  0.49899233  0.99859755  0.34658280  1
  Y  Y2  1  0.99873440  0.99858519  0.84733299  1
  Y  Y3  1  0.49888594  0.00125085  0.84790855  1
  Y  Y4  1  0.33695390  0.32964113  0.68561206  1
  Y  Y5  1  0.83665110  0.33301414  0.18128171  1
  Y  Y6  1  0.33565894  0.34286781  0.98186299  1
  Y  Y7  1  0.83771258  0.33255595  0.98628564  1
  Y  Y8  1  0.33753494  0.33236689  0.48264154  1
  Y  Y9  1  0.83562910  0.32827329  0.48155920  1
  Y  Y10  1  0.67545879  0.67522590  0.31911997  1
  Y  Y11  1  0.17447851  0.67479289  0.82002699  1
  Si  Si0  1  0.14895005  0.99936862  0.24916422  1
  Si  Si1  1  0.65376618  0.99872302  0.25180961  1
  Si  Si2  1  0.34705564  0.68922145  0.25066568  1
  Si  Si3  1  0.84576604  0.68795560  0.25341157  1
  Si  Si4  1  0.15366334  0.30988552  0.74942463  1
  Si  Si5  1  0.65016031  0.30288766  0.74886102  1
  Si  Si6  1  0.34487791  0.99806127  0.75085801  1
  Si  Si7  1  0.84692821  0.00287235  0.74882319  1
  Si  Si8  1  0.48519597  0.33608681  0.58420226  1
  Si  Si9  1  0.98676448  0.33457737  0.58274823  1
  Si  Si10  1  0.48496470  0.63987668  0.08260380  1
  Si  Si11  1  0.98616721  0.63389259  0.08449973  1
  Si  Si12  1  0.83313284  0.03135319  0.08248295  1
  Si  Si13  1  0.31987955  0.66602833  0.91786162  1
  Si  Si14  1  0.82423764  0.66402831  0.92196423  1
  Si  Si15  1  0.16672226  0.97715058  0.91520251  1
  Si  Si16  1  0.66538400  0.98088375  0.91442474  1
  Si  Si17  1  0.32370306  0.97798528  0.42470587  1
  Si  Si18  1  0.81999492  0.97232518  0.41967461  1
  Si  Si19  1  0.16608498  0.35274474  0.41671997  1
  Si  Si20  1  0.66563132  0.35509548  0.41718642  1
  S  S0  1  0.99742205  0.30177580  0.25317451  1
  S  S1  1  0.50452430  0.30842932  0.25529864  1
  S  S2  1  0.00569680  0.70190138  0.75421167  1
  S  S3  1  0.49658900  0.69337812  0.75118058  1
  S  S4  1  0.18882136  0.04323243  0.58406644  1
  S  S5  1  0.68481827  0.03784205  0.58141272  1
  S  S6  1  0.33210394  0.62582511  0.58325096  1
  S  S7  1  0.83328600  0.63494994  0.57889306  1
  S  S8  1  0.33339506  0.03127620  0.07868833  1
  S  S9  1  0.18642644  0.33420315  0.08127776  1
  S  S10  1  0.68747328  0.33287692  0.08371314  1
  S  S11  1  0.01371235  0.36010118  0.91154296  1
  S  S12  1  0.51109811  0.35619003  0.91474392  1
  S  S13  1  0.01117605  0.66769839  0.41501456  1
  S  S14  1  0.51312887  0.66805043  0.41318492  1
  O  O0  1  0.10243102  0.01417526  0.30579594  1
  O  O1  1  0.60774288  0.02209735  0.30682451  1
  O  O2  1  0.39733126  0.79142013  0.30669662  1
  O  O3  1  0.89992613  0.77799136  0.30961870  1
  O  O4  1  0.49716910  0.21207252  0.30654802  1
  O  O5  1  0.98958913  0.20577753  0.30473824  1
  O  O6  1  0.10851373  0.18964693  0.80316943  1
  O  O7  1  0.59992065  0.18786306  0.80269332  1
  O  O8  1  0.48812737  0.77514741  0.80230735  1
  O  O9  1  0.99975407  0.78570789  0.80460492  1
  O  O10  1  0.40232574  0.02029819  0.80491854  1
  O  O11  1  0.90256973  0.00627133  0.80157387  1
  O  O12  1  0.38351746  0.96829432  0.69319692  1
  O  O13  1  0.88663600  0.98864346  0.68888758  1
  O  O14  1  0.10229806  0.22817341  0.69108359  1
  O  O15  1  0.60291626  0.21831258  0.68922987  1
  O  O16  1  0.01273759  0.79436113  0.70244638  1
  O  O17  1  0.50837012  0.79271589  0.70069367  1
  O  O18  1  0.39031175  0.78957937  0.19289363  1
  O  O19  1  0.88632807  0.80258611  0.19811400  1
  O  O20  1  0.01001855  0.22639164  0.20337186  1
  O  O21  1  0.51171582  0.22859075  0.20440329  1
  O  O22  1  0.10135912  0.99275238  0.19096641  1
  O  O23  1  0.60001043  0.97649249  0.19484453  1
  O  O24  1  0.43680175  0.33633208  0.64151180  1
  O  O25  1  0.94254793  0.33952596  0.64131130  1
  O  O26  1  0.23511935  0.13010211  0.63514890  1
  O  O27  1  0.72951483  0.11789740  0.63335576  1
  O  O28  1  0.33027241  0.53457054  0.63442138  1
  O  O29  1  0.82888938  0.54270734  0.62980524  1
  O  O30  1  0.43954485  0.54586401  0.14112494  1
  O  O31  1  0.93855467  0.53837747  0.14222573  1
  O  O32  1  0.32866542  0.11519750  0.12944023  1
  O  O33  1  0.82871395  0.12555890  0.13940995  1
  O  O34  1  0.23189985  0.34542494  0.13329139  1
  O  O35  1  0.73349261  0.34079369  0.13532192  1
  O  O36  1  0.23031059  0.32234347  0.03132319  1
  O  O37  1  0.73013521  0.32309864  0.03269293  1
  O  O38  1  0.43081752  0.54000391  0.02727764  1
  O  O39  1  0.93790283  0.53885352  0.02717601  1
  O  O40  1  0.33478155  0.12065152  0.02700654  1
  O  O41  1  0.83198341  0.12346339  0.02455275  1
  O  O42  1  0.23091628  0.13897777  0.53301879  1
  O  O43  1  0.72880040  0.13860963  0.53148568  1
  O  O44  1  0.33407735  0.54060045  0.53162501  1
  O  O45  1  0.83485407  0.54831461  0.52742767  1
  O  O46  1  0.43512612  0.33381111  0.52785339  1
  O  O47  1  0.93334137  0.32747852  0.52733563  1
  O  O48  1  0.27747337  0.68956175  0.97456030  1
  O  O49  1  0.78589210  0.69420867  0.97960660  1
  O  O50  1  0.06434749  0.43366937  0.96175906  1
  O  O51  1  0.56377667  0.43678048  0.96324825  1
  O  O52  1  0.15106722  0.86621972  0.97190999  1
  O  O53  1  0.64773881  0.86062116  0.96862278  1
  O  O54  1  0.28695094  0.87816685  0.48420584  1
  O  O55  1  0.78011709  0.86899055  0.47794543  1
  O  O56  1  0.15131739  0.43615272  0.47319173  1
  O  O57  1  0.64930701  0.42953422  0.47530120  1
  O  O58  1  0.06272810  0.69329342  0.46498565  1
  O  O59  1  0.56288631  0.69492228  0.46394484  1
  O  O60  1  0.04660011  0.63973023  0.36439374  1
  O  O61  1  0.55161545  0.64205786  0.36327547  1
  O  O62  1  0.25588947  0.88743406  0.37590688  1
  O  O63  1  0.75910840  0.87975621  0.36692259  1
  O  O64  1  0.17965854  0.46758248  0.36180103  1
  O  O65  1  0.67603934  0.47433385  0.36433740  1
  O  O66  1  0.05355269  0.46131650  0.86099414  1
  O  O67  1  0.54507947  0.45118121  0.86224967  1
  O  O68  1  0.17851201  0.88355453  0.86090736  1
  O  O69  1  0.67611531  0.89467342  0.85767511  1
  O  O70  1  0.26228004  0.63885256  0.86269598  1
  O  O71  1  0.75844977  0.61913588  0.87123444  1
  O  O72  1  0.00292301  0.81341328  0.41060439  1
  O  O73  1  0.50410179  0.81184086  0.40718535  1
  O  O74  1  0.41067416  0.98670840  0.41381753  1
  O  O75  1  0.90955189  0.99036570  0.41261849  1
  O  O76  1  0.08569216  0.17187648  0.41267205  1
  O  O77  1  0.58651640  0.17278599  0.41189987  1
  O  O78  1  0.00393805  0.19793216  0.90590050  1
  O  O79  1  0.50097155  0.19271487  0.91034687  1
  O  O80  1  0.08923213  0.00405249  0.90983339  1
  O  O81  1  0.58562242  0.00398543  0.91193389  1
  O  O82  1  0.40953803  0.82739406  0.91198414  1
  O  O83  1  0.91126837  0.83122482  0.91210168  1
  O  O84  1  0.48832049  0.16468481  0.58015564  1
  O  O85  1  0.99209252  0.16564924  0.57903434  1
  O  O86  1  0.10800240  0.02560543  0.58538378  1
  O  O87  1  0.60405356  0.02203712  0.58153342  1
  O  O88  1  0.40301271  0.79029692  0.58281653  1
  O  O89  1  0.90558917  0.79843337  0.57915090  1
  O  O90  1  0.48875395  0.81765193  0.07887973  1
  O  O91  1  0.99292343  0.81312580  0.08077731  1
  O  O92  1  0.40559507  0.01348839  0.07916457  1
  O  O93  1  0.91043463  0.00312553  0.07962478  1
  O  O94  1  0.10637934  0.18889007  0.08177472  1
  O  O95  1  0.60731468  0.18533083  0.08487938  1
  O  O96  1  0.33710982  0.16216507  0.74784425  1
  O  O97  1  0.84694658  0.17523349  0.75261312  1
  O  O98  1  0.24593742  0.33830308  0.74554099  1
  O  O99  1  0.73815896  0.31347819  0.75027405  1
  O  O100  1  0.42027668  0.53648111  0.74694474  1
  O  O101  1  0.93436141  0.53843397  0.75293573  1
  O  O102  1  0.34787410  0.51779245  0.25386367  1
  O  O103  1  0.83909241  0.51018751  0.24887171  1
  O  O104  1  0.43284699  0.32814801  0.25364343  1
  O  O105  1  0.92122099  0.30729542  0.24897638  1
  O  O106  1  0.23803044  0.16456228  0.25106780  1
  O  O107  1  0.74411434  0.15906597  0.24831229  1
  O  O108  1  0.32969277  0.50451439  0.91982595  1
  O  O109  1  0.83898352  0.50980378  0.92343242  1
  O  O110  1  0.42967255  0.33608668  0.92277510  1
  O  O111  1  0.93360671  0.34497837  0.91784604  1
  O  O112  1  0.25093018  0.15321449  0.91928001  1
  O  O113  1  0.74773051  0.15844531  0.91988306  1
  O  O114  1  0.33955072  0.16319351  0.42426866  1
  O  O115  1  0.83123953  0.15473835  0.42108993  1
  O  O116  1  0.24841839  0.33919773  0.42229856  1
  O  O117  1  0.74910810  0.34547759  0.42040765  1
  O  O118  1  0.43173283  0.52538440  0.42025760  1
  O  O119  1  0.92957197  0.52641962  0.42326389  1
  O  O120  1  0.18236333  0.48388456  0.07827701  1
  O  O121  1  0.68121474  0.47945134  0.08227404  1
  O  O122  1  0.08000677  0.66808277  0.08716767  1
  O  O123  1  0.57671977  0.67122010  0.08351982  1
  O  O124  1  0.26021368  0.86823983  0.07949873  1
  O  O125  1  0.75034549  0.85111825  0.08624727  1
  O  O126  1  0.18521954  0.88562000  0.58289530  1
  O  O127  1  0.68016832  0.87985720  0.57819420  1
  O  O128  1  0.25728346  0.63648001  0.58428513  1
  O  O129  1  0.75994692  0.65089049  0.57965541  1
  O  O130  1  0.08002496  0.48880471  0.58349370  1
  O  O131  1  0.57872972  0.48699989  0.58608327  1
  O  O132  1  0.14776907  0.82669343  0.25050961  1
  O  O133  1  0.65804320  0.83174312  0.25598263  1
  O  O134  1  0.25257939  0.64495022  0.24842914  1
  O  O135  1  0.75445946  0.66303569  0.25688953  1
  O  O136  1  0.06599143  0.46721412  0.25799233  1
  O  O137  1  0.57723166  0.46976990  0.25900144  1
  O  O138  1  0.15677869  0.48442196  0.75497782  1
  O  O139  1  0.64789206  0.47152597  0.75063088  1
  O  O140  1  0.07889443  0.68644044  0.75715793  1
  O  O141  1  0.56479785  0.66505669  0.75625621  1
  O  O142  1  0.25409423  0.84013380  0.75528196  1
  O  O143  1  0.75258698  0.85699525  0.74840128  1
loop_
_geom_bond_atom_site_label_1
_geom_bond_atom_site_label_2
_geom_bond_distance
_geom_bond_site_symmetry_2
Na0 O133 2.525630 1_555
Na0 O107 2.537691 1_565
Na0 O33 2.677451 1_565
Na0 O135 2.767331 1_555
Na0 O105 2.768560 1_565
Na0 O19 3.005176 1_555
Na1 O134 2.372253 1_555
Na1 O106 2.538356 1_555
Na1 O64 2.627881 1_555
Na1 O102 2.650900 1_555
Na2 O103 2.453533 1_555
Na2 O135 2.466132 1_555
Na2 O107 2.675973 1_555
Na2 O65 2.789945 1_555
Na2 O137 2.837757 1_555
Na3 O132 2.498315 1_655
Na3 O31 2.585598 1_555
Na3 O103 2.681774 1_555
Na3 O136 2.749641 1_655
Na4 O102 2.593810 1_555
Na4 O133 2.617450 1_555
Na4 O30 2.682362 1_555
Na4 O104 2.775766 1_555
Na4 O137 2.853852 1_555
Na4 O23 2.909813 1_555
Na4 O61 3.041717 1_555
Na5 O98 2.473403 1_555
Na5 O138 2.515908 1_555
Na5 O142 2.679172 1_555
Na5 O70 2.707918 1_555
Na5 O100 2.756674 1_555
Na6 O97 2.557713 1_455
Na6 O138 2.625001 1_555
Na6 O101 2.742056 1_455
Na6 O25 2.750308 1_455
Na6 O140 2.871182 1_555
Na6 O66 2.908103 1_555
Na7 O139 2.424330 1_555
Na7 O141 2.682480 1_555
Na7 O96 2.771587 1_555
Na7 O24 2.809961 1_555
Na7 O67 2.873231 1_555
Na8 O96 2.509342 1_555
Na8 O142 2.543017 1_545
Na8 O68 2.552926 1_545
Na8 O140 2.768989 1_545
Na8 O98 2.808774 1_555
Na8 O6 2.969110 1_555
Na9 O143 2.398567 1_545
Na9 O69 2.413409 1_545
Na9 O99 2.559733 1_555
Na9 O97 2.604730 1_555
Na10 O130 2.337829 1_555
Na10 O85 2.479039 1_455
Na10 O128 2.667754 1_555
Na10 O86 2.683806 1_555
Na10 O14 2.695039 1_555
Na10 O56 2.786499 1_555
Na11 O131 2.331570 1_555
Na11 O84 2.542208 1_555
Na11 O15 2.667843 1_555
Na11 O87 2.708517 1_555
Na11 O57 2.731593 1_555
Na11 O129 2.769048 1_555
Na12 O54 2.426301 1_555
Na12 O84 2.489450 1_565
Na12 O126 2.652562 1_555
Na12 O88 2.670268 1_555
Na12 O128 2.888121 1_555
Na12 O12 2.909761 1_555
Na13 O85 2.543014 1_565
Na13 O89 2.631276 1_555
Na13 O55 2.673607 1_555
Na13 O13 2.730742 1_555
Na13 O127 2.734912 1_555
Na13 O129 2.762939 1_555
Na14 O122 2.349929 1_555
Na14 O91 2.404965 1_455
Na14 O22 2.648250 1_555
Na14 O94 2.670499 1_565
Na14 O124 2.848555 1_555
Na14 O52 2.897483 1_554
Na15 O123 2.376730 1_555
Na15 O125 2.540275 1_555
Na15 O90 2.752810 1_555
Na15 O95 2.761953 1_565
Na15 O23 2.816594 1_555
Na15 O53 2.921996 1_554
Na16 O90 2.489947 1_555
Na16 O92 2.647583 1_565
Na16 O120 2.687537 1_555
Na16 O124 2.762415 1_555
Na16 O48 2.765982 1_554
Na16 O18 2.843034 1_555
Na17 O93 2.397826 1_565
Na17 O49 2.479400 1_554
Na17 O125 2.613942 1_555
Na17 O91 2.641618 1_555
Na17 O121 2.728685 1_555
Na18 O82 2.483716 1_555
Na18 O81 2.649927 1_565
Na18 O108 2.673271 1_555
Na18 O38 2.712359 1_556
Na18 O53 2.828891 1_555
Na19 O109 2.410401 1_555
Na19 O83 2.445465 1_555
Na19 O39 2.632498 1_556
Na19 O80 2.752380 1_665
Na19 O111 2.932327 1_555
Na19 O52 3.000602 1_655
Na19 O9 3.073510 1_555
Na20 O112 2.685099 1_555
Na20 O82 2.705440 1_545
Na20 O79 2.715468 1_555
Na20 O110 2.755746 1_555
Na20 O10 2.769090 1_555
Na20 O68 2.942795 1_545
Na20 O40 2.980162 1_556
Na21 O41 2.687687 1_556
Na21 O83 2.740356 1_545
Na21 O113 2.748549 1_555
Na21 O78 2.777293 1_655
Na21 O111 2.778749 1_555
Na22 O80 2.433355 1_555
Na22 O112 2.524293 1_555
Na22 O6 2.690441 1_555
Na22 O108 2.699328 1_555
Na22 O78 2.883720 1_555
Na23 O113 2.419149 1_555
Na23 O81 2.552729 1_555
Na23 O109 2.733249 1_555
Na23 O71 2.740288 1_555
Na23 O7 2.844161 1_555
Na24 O114 2.449873 1_555
Na24 O74 2.477043 1_545
Na24 O77 2.649192 1_555
Na24 O46 2.822421 1_555
Na24 O4 2.860415 1_555
Na25 O75 2.424013 1_545
Na25 O115 2.570419 1_555
Na25 O76 2.637767 1_655
Na25 O47 2.794638 1_555
Na25 O5 2.900986 1_555
Na26 O116 2.491997 1_555
Na26 O76 2.536962 1_555
Na26 O0 2.591464 1_555
Na26 O62 2.773470 1_545
Na26 O114 2.864871 1_555
Na26 O72 2.912849 1_545
Na27 O117 2.498726 1_555
Na27 O77 2.507748 1_555
Na27 O1 2.538873 1_555
Na27 O115 2.709582 1_555
Na27 O73 2.914781 1_545
Na27 O63 2.963173 1_545
Na28 O2 2.581206 1_555
Na28 O74 2.684754 1_555
Na28 O73 2.768100 1_555
Na28 O116 2.772562 1_555
Na28 O118 2.775726 1_555
Na28 O64 2.860891 1_555
Na29 O3 2.529624 1_555
Na29 O75 2.706461 1_555
Na29 O117 2.716684 1_555
Na29 O119 2.742448 1_555
Na29 O72 2.749399 1_655
Na29 O65 2.896316 1_555
Na30 O75 2.487223 1_545
Na30 O85 2.491473 1_555
Na30 O76 2.495965 1_655
Na30 O89 2.826660 1_545
Na30 O72 2.848897 1_645
Na31 O74 2.452379 1_545
Na31 O77 2.490456 1_555
Na31 O84 2.528040 1_555
Na31 O87 2.923928 1_555
Na31 O73 2.933015 1_545
Na31 O88 2.965790 1_545
Na32 O93 2.425282 1_565
Na32 O91 2.468720 1_555
Na32 O83 2.585642 1_554
Na32 O80 2.885840 1_664
Na32 O94 2.889807 1_665
Na33 O90 2.428456 1_556
Na33 O81 2.505769 1_565
Na33 O82 2.580559 1_555
Na33 O92 2.830087 1_566
Na33 O79 2.917012 1_565
Na33 O95 2.928760 1_566
Na34 O112 2.480570 1_555
Na34 O98 2.625787 1_555
Na34 O108 2.633335 1_555
Na34 O96 2.683886 1_555
Na34 O100 2.905174 1_555
Na34 O110 2.917297 1_555
Na35 O113 2.503767 1_555
Na35 O99 2.540440 1_555
Na35 O109 2.604462 1_555
Na35 O97 2.688999 1_555
Na35 O111 2.879841 1_555
Na35 O101 2.891808 1_555
Na36 O106 2.398161 1_555
Na36 O102 2.517418 1_555
Na36 O116 2.673986 1_555
Na36 O104 2.765403 1_555
Na36 O114 2.805346 1_555
Na37 O107 2.429366 1_555
Na37 O103 2.481651 1_555
Na37 O117 2.662045 1_555
Na37 O105 2.744867 1_555
Na37 O115 2.833985 1_555
Na38 O132 2.435558 1_555
Na38 O122 2.536504 1_555
Na38 O134 2.656821 1_555
Na38 O136 2.844847 1_555
Na38 O124 2.846824 1_555
Na39 O125 2.406108 1_555
Na39 O123 2.528414 1_555
Na39 O133 2.657091 1_555
Na39 O135 2.877074 1_555
Na39 O121 2.889106 1_555
Na39 O137 2.995511 1_555
Na40 O138 2.482171 1_555
Na40 O130 2.588367 1_555
Na40 O140 2.660477 1_555
Na40 O142 2.725693 1_555
Na40 O128 2.868568 1_555
Na40 O126 3.005643 1_555
Na41 O139 2.387360 1_555
Na41 O143 2.551468 1_555
Na41 O131 2.668632 1_555
Na41 O141 2.823670 1_555
Na41 O129 2.862190 1_555
La0 O13 2.200181 1_545
La0 O14 2.253345 1_655
La0 O85 2.381683 1_555
La0 O16 2.503108 1_645
La0 O89 2.611901 1_545
La0 O86 2.620377 1_655
La1 O15 2.214885 1_555
La1 O12 2.239253 1_545
La1 O84 2.353597 1_555
La1 O17 2.472205 1_545
La1 O88 2.574371 1_545
La1 O87 2.606850 1_555
La2 O19 2.243526 1_555
La2 O22 2.314451 1_655
La2 O93 2.340441 1_565
La2 O91 2.366315 1_555
La2 O20 2.484282 1_665
La2 O94 2.619011 1_665
La3 O18 2.212448 1_555
La3 O23 2.244323 1_555
La3 O90 2.352597 1_555
La3 O21 2.518898 1_565
La3 O95 2.569917 1_565
La3 O92 2.614601 1_565
La4 O25 2.286604 1_555
La4 O97 2.303516 1_555
La4 O99 2.349618 1_555
La4 O27 2.451102 1_555
La4 O29 2.453210 1_555
La4 O101 2.474589 1_555
La5 O30 2.262913 1_555
La5 O102 2.329828 1_555
La5 O106 2.362237 1_555
La5 O34 2.428709 1_555
La5 O32 2.436660 1_555
La5 O104 2.481387 1_555
La6 O52 2.237557 1_554
La6 O122 2.338185 1_555
La6 O48 2.345920 1_554
La6 O50 2.406263 1_554
La6 O124 2.502174 1_555
La6 O120 2.547244 1_555
La7 O53 2.266880 1_554
La7 O125 2.332631 1_555
La7 O49 2.347092 1_554
La7 O123 2.366182 1_555
La7 O51 2.528100 1_554
La7 O121 2.609086 1_555
La8 O56 2.237344 1_555
La8 O130 2.338093 1_555
La8 O54 2.347728 1_555
La8 O58 2.418038 1_555
La8 O128 2.572480 1_555
La8 O126 2.621807 1_555
La9 O57 2.244017 1_555
La9 O55 2.327697 1_555
La9 O131 2.368893 1_555
La9 O59 2.415369 1_555
La9 O129 2.501632 1_555
La9 O127 2.551860 1_555
La10 O62 2.230638 1_555
La10 O134 2.298839 1_555
La10 O132 2.341888 1_555
La10 O64 2.383079 1_555
La10 O136 2.585117 1_555
La10 O60 2.635504 1_555
La11 O71 2.204921 1_555
La11 O143 2.306504 1_555
La11 O69 2.363470 1_555
La11 O139 2.368165 1_555
La11 O67 2.630761 1_555
La11 O141 2.660280 1_555
O0 Si0 1.658639 1_545
O0 Y0 2.161938 1_445
O1 Si1 1.653846 1_545
O1 Y1 2.200390 1_545
O2 Si2 1.652893 1_555
O2 Y1 2.194070 1_555
O3 Si3 1.651077 1_555
O3 Y0 2.191831 1_555
O4 S1 1.494276 1_555
O4 Y1 2.285110 1_545
O5 S0 1.496394 1_555
O5 Y0 2.327890 1_545
O6 Si4 1.646452 1_555
O6 Y2 2.245601 1_445
O7 Si5 1.647971 1_555
O7 Y3 2.156719 1_555
O8 S3 1.499905 1_555
O8 Y3 2.349516 1_565
O9 S2 1.479852 1_655
O9 Y2 2.299288 1_555
O10 Si6 1.640997 1_545
O10 Y3 2.213048 1_555
O11 Si7 1.641893 1_555
O11 Y2 2.185214 1_545
O12 Si6 1.648568 1_555
O13 Si7 1.651202 1_565
O14 Si4 1.657688 1_555
O15 Si5 1.662536 1_555
O16 S2 1.484401 1_555
O17 S3 1.479164 1_555
O18 Si2 1.642021 1_555
O19 Si3 1.638204 1_555
O20 S0 1.469936 1_455
O21 S1 1.475899 1_555
O22 Si0 1.645257 1_555
O23 Si1 1.654522 1_555
O24 Si8 1.647317 1_555
O24 Y4 2.159159 1_555
O25 Si9 1.641164 1_555
O26 S4 1.492498 1_555
O26 Y4 2.284506 1_555
O27 S5 1.483322 1_555
O28 S6 1.490782 1_555
O28 Y4 2.379593 1_555
O29 S7 1.478309 1_555
O30 Si10 1.647546 1_555
O31 Si11 1.646932 1_555
O31 Y5 2.173404 1_555
O32 S8 1.479443 1_555
O33 Si12 1.654252 1_555
O33 Y5 2.170361 1_555
O34 S9 1.489608 1_555
O35 S10 1.495074 1_555
O35 Y5 2.305749 1_555
O36 S9 1.491397 1_555
O36 Y6 2.262132 1_554
O37 S10 1.490730 1_555
O37 Y7 2.304754 1_554
O38 Si10 1.656672 1_555
O38 Y6 2.158072 1_554
O39 Si11 1.646923 1_555
O39 Y7 2.188380 1_554
O40 S8 1.492683 1_555
O40 Y6 2.389886 1_554
O41 Si12 1.644346 1_555
O41 Y7 2.164454 1_554
O42 S4 1.490531 1_555
O42 Y8 2.295207 1_555
O43 S5 1.494985 1_555
O43 Y9 2.278830 1_555
O44 S6 1.486838 1_555
O44 Y8 2.350623 1_555
O45 S7 1.489101 1_555
O45 Y9 2.392343 1_555
O46 Si8 1.646659 1_555
O46 Y8 2.163367 1_555
O47 Si9 1.654244 1_555
O47 Y9 2.181471 1_555
O48 Si13 1.645950 1_555
O49 Si14 1.646769 1_555
O50 S11 1.480451 1_555
O51 S12 1.475982 1_555
O52 Si15 1.650399 1_555
O53 Si16 1.649292 1_555
O54 Si17 1.653458 1_555
O55 Si18 1.650103 1_555
O56 Si19 1.659141 1_555
O57 Si20 1.655797 1_555
O58 S13 1.489764 1_555
O59 S14 1.483049 1_555
O60 S13 1.470276 1_555
O61 S14 1.482178 1_555
O61 Y10 2.471965 1_555
O62 Si17 1.636976 1_555
O63 Si18 1.644099 1_555
O63 Y10 2.145139 1_555
O64 Si19 1.644528 1_555
O65 Si20 1.645111 1_555
O65 Y10 2.221152 1_555
O66 S11 1.491630 1_555
O66 Y11 2.405148 1_555
O67 S12 1.488183 1_555
O68 Si15 1.652876 1_555
O68 Y11 2.201589 1_555
O69 Si16 1.649279 1_555
O70 Si13 1.654278 1_555
O70 Y11 2.147824 1_555
O71 Si14 1.645359 1_555
O72 S13 1.495785 1_555
O72 Y0 2.368661 1_455
O73 S14 1.489203 1_555
O73 Y1 2.347123 1_555
O74 Si17 1.654614 1_555
O74 Y1 2.289292 1_555
O75 Si18 1.653171 1_555
O75 Y0 2.285772 1_555
O76 Si19 1.655945 1_555
O76 Y0 2.307277 1_445
O77 Si20 1.656459 1_555
O77 Y1 2.291165 1_545
O78 S11 1.485147 1_555
O78 Y2 2.334258 1_445
O79 S12 1.492541 1_555
O79 Y3 2.352879 1_555
O80 Si15 1.644423 1_545
O80 Y2 2.275097 1_445
O81 Si16 1.661423 1_545
O81 Y3 2.254540 1_555
O82 Si13 1.651339 1_555
O82 Y3 2.274958 1_565
O83 Si14 1.658772 1_555
O83 Y2 2.250142 1_555
O84 Si8 1.687390 1_555
O85 Si9 1.685936 1_555
O86 S4 1.479616 1_555
O87 S5 1.485721 1_555
O88 S6 1.486248 1_555
O89 S7 1.491159 1_555
O90 Si10 1.682069 1_555
O91 Si11 1.670064 1_555
O92 S8 1.484989 1_555
O93 Si12 1.644439 1_555
O94 S9 1.474607 1_555
O95 S10 1.485258 1_555
O96 Si6 1.665038 1_545
O96 Y4 2.191331 1_555
O97 Si7 1.665156 1_555
O98 Si4 1.659805 1_555
O98 Y4 2.288030 1_555
O99 Si5 1.647371 1_555
O100 S3 1.493649 1_555
O100 Y4 2.341516 1_555
O101 S2 1.484016 1_655
O102 Si2 1.663688 1_555
O103 Si3 1.657806 1_555
O103 Y5 2.327651 1_555
O104 S1 1.486553 1_555
O105 S0 1.499600 1_555
O105 Y5 2.393686 1_555
O106 Si0 1.656389 1_545
O107 Si1 1.651366 1_545
O107 Y5 2.346386 1_555
O108 Si13 1.661955 1_555
O108 Y6 2.190719 1_555
O109 Si14 1.649389 1_555
O109 Y7 2.261147 1_555
O110 S12 1.492729 1_555
O110 Y6 2.313733 1_555
O111 S11 1.482806 1_655
O111 Y7 2.413257 1_555
O112 Si15 1.662128 1_545
O112 Y6 2.289512 1_555
O113 Si16 1.656126 1_545
O113 Y7 2.326355 1_555
O114 Si17 1.654879 1_545
O114 Y8 2.155992 1_555
O115 Si18 1.662124 1_545
O115 Y9 2.174655 1_555
O116 Si19 1.661889 1_555
O116 Y8 2.267392 1_555
O117 Si20 1.659236 1_555
O117 Y9 2.283497 1_555
O118 S14 1.488033 1_555
O118 Y8 2.354819 1_555
O119 S13 1.488485 1_655
O119 Y9 2.314418 1_555
O120 S9 1.486719 1_555
O121 S10 1.478780 1_555
O122 Si11 1.668885 1_455
O123 Si10 1.637690 1_555
O124 S8 1.495594 1_565
O125 Si12 1.670797 1_565
O126 S4 1.487277 1_565
O127 S5 1.483253 1_565
O128 S6 1.496174 1_555
O129 S7 1.496433 1_555
O130 Si9 1.661486 1_455
O131 Si8 1.654505 1_555
O132 Si0 1.654986 1_555
O133 Si1 1.656949 1_555
O133 Y10 2.270649 1_555
O134 Si2 1.649302 1_555
O135 Si3 1.653729 1_555
O135 Y10 2.162503 1_555
O136 S0 1.480219 1_455
O137 S1 1.485194 1_555
O137 Y10 2.409242 1_555
O138 Si4 1.659822 1_555
O138 Y11 2.291100 1_555
O139 Si5 1.649903 1_555
O140 S2 1.492932 1_555
O140 Y11 2.421795 1_555
O141 S3 1.476052 1_555
O142 Si6 1.648173 1_555
O142 Y11 2.188345 1_555
O143 Si7 1.648682 1_565
