# generated using pymatgen
data_Lu(ClO4)3
_symmetry_space_group_name_H-M   'P 1'
_cell_length_a   9.19778984
_cell_length_b   9.19778984
_cell_length_c   9.19778890
_cell_angle_alpha   52.01433769
_cell_angle_beta   52.01433769
_cell_angle_gamma   52.01433431
_symmetry_Int_Tables_number   1
_chemical_formula_structural   Lu(ClO4)3
_chemical_formula_sum   'Lu2 Cl6 O24'
_cell_volume   446.92013563
_cell_formula_units_Z   2
loop_
 _symmetry_equiv_pos_site_id
 _symmetry_equiv_pos_as_xyz
  1  'x, y, z'
loop_
 _atom_site_type_symbol
 _atom_site_label
 _atom_site_symmetry_multiplicity
 _atom_site_fract_x
 _atom_site_fract_y
 _atom_site_fract_z
 _atom_site_occupancy
  Lu  Lu0  1  0.94139978  0.94139978  0.94139978  1
  Lu  Lu1  1  0.44139978  0.44139978  0.44139978  1
  Cl  Cl0  1  0.53678285  0.15695804  0.80590005  1
  Cl  Cl1  1  0.15695804  0.80590005  0.53678285  1
  Cl  Cl2  1  0.80590005  0.53678285  0.15695804  1
  Cl  Cl3  1  0.65695804  0.03678285  0.30590005  1
  Cl  Cl4  1  0.03678285  0.30590005  0.65695804  1
  Cl  Cl5  1  0.30590005  0.65695804  0.03678285  1
  O  O0  1  0.72417537  0.11725524  0.79096432  1
  O  O1  1  0.11725524  0.79096432  0.72417537  1
  O  O2  1  0.79096432  0.72417537  0.11725524  1
  O  O3  1  0.61725524  0.22417537  0.29096432  1
  O  O4  1  0.22417537  0.29096432  0.61725524  1
  O  O5  1  0.29096432  0.61725524  0.22417537  1
  O  O6  1  0.42217186  0.37244918  0.74581761  1
  O  O7  1  0.37244918  0.74581761  0.42217186  1
  O  O8  1  0.49723812  0.54869063  0.93108721  1
  O  O9  1  0.93108721  0.49723812  0.54869063  1
  O  O10  1  0.54869063  0.93108721  0.49723812  1
  O  O11  1  0.99723812  0.43108721  0.04869063  1
  O  O12  1  0.04869063  0.99723812  0.43108721  1
  O  O13  1  0.43108721  0.04869063  0.99723812  1
  O  O14  1  0.15058893  0.61244250  0.08357830  1
  O  O15  1  0.08357830  0.15058893  0.61244250  1
  O  O16  1  0.61244250  0.08357830  0.15058893  1
  O  O17  1  0.65058893  0.58357830  0.11244250  1
  O  O18  1  0.11244250  0.65058893  0.58357830  1
  O  O19  1  0.58357830  0.11244250  0.65058893  1
  O  O20  1  0.24581761  0.87244918  0.92217186  1
  O  O21  1  0.92217186  0.24581761  0.87244918  1
  O  O22  1  0.87244918  0.92217186  0.24581761  1
  O  O23  1  0.74581761  0.42217186  0.37244918  1
loop_
_geom_bond_atom_site_label_1
_geom_bond_atom_site_label_2
_geom_bond_distance
_geom_bond_site_symmetry_2
Lu0 O1 2.278776 1_655
Lu0 O0 2.278776 1_565
Lu0 O2 2.278776 1_556
Lu0 O22 2.369820 1_556
Lu0 O20 2.369821 1_655
Lu0 O21 2.369821 1_565
Lu0 O14 2.372271 1_656
Lu0 O16 2.372271 1_566
Lu0 O15 2.372271 1_665
Lu1 O5 2.278776 1_555
Lu1 O3 2.278776 1_555
Lu1 O4 2.278776 1_555
Lu1 O6 2.369820 1_555
Lu1 O7 2.369821 1_555
Lu1 O23 2.369821 1_555
Lu1 O18 2.372271 1_555
Lu1 O19 2.372271 1_555
Lu1 O17 2.372271 1_555
Cl0 O13 1.400855 1_555
Cl0 O0 1.455519 1_555
Cl0 O19 1.462794 1_555
Cl0 O6 1.463581 1_555
Cl1 O12 1.400855 1_555
Cl1 O1 1.455519 1_555
Cl1 O18 1.462794 1_555
Cl1 O7 1.463581 1_555
Cl2 O11 1.400855 1_555
Cl2 O2 1.455519 1_555
Cl2 O17 1.462794 1_555
Cl2 O23 1.463580 1_555
Cl3 O10 1.400855 1_545
Cl3 O3 1.455519 1_555
Cl3 O16 1.462794 1_555
Cl3 O22 1.463581 1_545
Cl4 O9 1.400855 1_455
Cl4 O4 1.455519 1_555
Cl4 O15 1.462794 1_555
Cl4 O21 1.463580 1_455
Cl5 O8 1.400855 1_554
Cl5 O5 1.455519 1_555
Cl5 O14 1.462794 1_555
Cl5 O20 1.463581 1_554
