# generated using pymatgen
data_MgCr2Cd2O8
_symmetry_space_group_name_H-M   'P 1'
_cell_length_a   5.46213543
_cell_length_b   5.46213601
_cell_length_c   6.62282800
_cell_angle_alpha   90.00000000
_cell_angle_beta   90.00000000
_cell_angle_gamma   113.54958178
_symmetry_Int_Tables_number   1
_chemical_formula_structural   MgCr2Cd2O8
_chemical_formula_sum   'Mg1 Cr2 Cd2 O8'
_cell_volume   181.13510629
_cell_formula_units_Z   1
loop_
 _symmetry_equiv_pos_site_id
 _symmetry_equiv_pos_as_xyz
  1  'x, y, z'
loop_
 _atom_site_type_symbol
 _atom_site_label
 _atom_site_symmetry_multiplicity
 _atom_site_fract_x
 _atom_site_fract_y
 _atom_site_fract_z
 _atom_site_occupancy
  Mg  Mg0  1  0.34442300  0.65557700  0.25000000  1
  Cr  Cr0  1  0.64960100  0.35039900  0.25000000  1
  Cr  Cr1  1  0.35897000  0.64103000  0.75000000  1
  Cd  Cd0  1  0.00101700  0.99898300  0.50196400  1
  Cd  Cd1  1  0.00101700  0.99898300  0.99803600  1
  O  O0  1  0.70055600  0.77620700  0.75000000  1
  O  O1  1  0.28656800  0.26511900  0.25000000  1
  O  O2  1  0.73488100  0.71343200  0.25000000  1
  O  O3  1  0.22379300  0.29944400  0.75000000  1
  O  O4  1  0.25376500  0.74623500  0.97395100  1
  O  O5  1  0.74582200  0.25417800  0.46032500  1
  O  O6  1  0.74582200  0.25417800  0.03967500  1
  O  O7  1  0.25376500  0.74623500  0.52604900  1
loop_
_geom_bond_atom_site_label_1
_geom_bond_atom_site_label_2
_geom_bond_distance
_geom_bond_site_symmetry_2
Mg0 O4 2.007179 1_554
Mg0 O7 2.007179 1_555
Mg0 O2 2.027279 1_555
Mg0 O1 2.027279 1_555
Cr0 O6 1.647264 1_555
Cr0 O5 1.647264 1_555
Cr0 O1 1.846867 1_555
Cr0 O2 1.846868 1_555
Cr1 O0 1.710411 1_555
Cr1 O3 1.710411 1_555
Cr1 O7 1.767527 1_555
Cr1 O4 1.767527 1_555
Cd0 O0 2.297120 1_455
Cd0 O3 2.297120 1_565
Cd0 O7 2.315216 1_555
Cd0 O5 2.348324 1_465
Cd0 O1 2.349193 1_565
Cd0 O2 2.349193 1_455
Cd1 O0 2.297120 1_455
Cd1 O3 2.297120 1_565
Cd1 O4 2.315216 1_555
Cd1 O6 2.348324 1_466
Cd1 O1 2.349193 1_566
Cd1 O2 2.349193 1_456
