# generated using pymatgen
data_Na2Si2SnGeSO12
_symmetry_space_group_name_H-M   'P 1'
_cell_length_a   8.76572157
_cell_length_b   8.81769369
_cell_length_c   22.32951711
_cell_angle_alpha   89.57071056
_cell_angle_beta   90.71341906
_cell_angle_gamma   119.87474832
_symmetry_Int_Tables_number   1
_chemical_formula_structural   Na2Si2SnGeSO12
_chemical_formula_sum   'Na12 Si12 Sn6 Ge6 S6 O72'
_cell_volume   1496.46045151
_cell_formula_units_Z   6
loop_
 _symmetry_equiv_pos_site_id
 _symmetry_equiv_pos_as_xyz
  1  'x, y, z'
loop_
 _atom_site_type_symbol
 _atom_site_label
 _atom_site_symmetry_multiplicity
 _atom_site_fract_x
 _atom_site_fract_y
 _atom_site_fract_z
 _atom_site_occupancy
  Na  Na0  1  0.99421562  0.63258881  0.25393471  1
  Na  Na1  1  0.37024591  0.00241066  0.75505341  1
  Na  Na2  1  0.66100789  0.96632119  0.58730107  1
  Na  Na3  1  0.03879620  0.33642653  0.08594485  1
  Na  Na4  1  0.33375641  0.29848566  0.92071050  1
  Na  Na5  1  0.70649430  0.67114295  0.42047267  1
  Na  Na6  1  0.01286234  0.99289735  0.50099872  1
  Na  Na7  1  0.00131802  0.98336286  0.99799079  1
  Na  Na8  1  0.67920740  0.33014947  0.83580550  1
  Na  Na9  1  0.67391935  0.31738991  0.33196681  1
  Na  Na10  1  0.35013741  0.66311451  0.16468209  1
  Na  Na11  1  0.33883320  0.65093626  0.66815507  1
  Si  Si0  1  0.70243681  0.70509188  0.24774341  1
  Si  Si1  1  0.99065976  0.28883473  0.24535612  1
  Si  Si2  1  0.28734682  0.30246967  0.75411090  1
  Si  Si3  1  0.71027976  0.99403896  0.75431539  1
  Si  Si4  1  0.36688907  0.03842726  0.58307957  1
  Si  Si5  1  0.65800628  0.62435607  0.58057319  1
  Si  Si6  1  0.95036160  0.62101529  0.07918133  1
  Si  Si7  1  0.39237423  0.34328999  0.07922875  1
  Si  Si8  1  0.03836384  0.38388040  0.91628133  1
  Si  Si9  1  0.33027307  0.94746729  0.91668537  1
  Si  Si10  1  0.62124399  0.96153923  0.41739618  1
  Si  Si11  1  0.05130558  0.66874793  0.41755773  1
  Sn  Sn0  1  0.98602112  0.99376773  0.35301326  1
  Sn  Sn1  1  0.99734144  0.99839810  0.64966383  1
  Sn  Sn2  1  0.00229169  0.00021554  0.14344244  1
  Sn  Sn3  1  0.65149334  0.32740351  0.68812267  1
  Sn  Sn4  1  0.66827456  0.33384428  0.48062316  1
  Sn  Sn5  1  0.33131644  0.66296182  0.31269879  1
  Ge  Ge0  1  0.01781724  0.03323930  0.85590242  1
  Ge  Ge1  1  0.68565796  0.36660136  0.18374030  1
  Ge  Ge2  1  0.66550052  0.32659503  0.97947524  1
  Ge  Ge3  1  0.30437724  0.64949469  0.01898802  1
  Ge  Ge4  1  0.35025894  0.69896366  0.52039709  1
  Ge  Ge5  1  0.33652166  0.66786615  0.81703319  1
  S  S0  1  0.30054197  0.00968143  0.24955033  1
  S  S1  1  0.00019353  0.70652992  0.75387113  1
  S  S2  1  0.96773736  0.34228317  0.58442393  1
  S  S3  1  0.65612010  0.04244390  0.08187502  1
  S  S4  1  0.62543912  0.67148609  0.91759737  1
  S  S5  1  0.32757695  0.37382653  0.41860001  1
  O  O0  1  0.22150499  0.03609536  0.30406777  1
  O  O1  1  0.82516428  0.77008193  0.30916700  1
  O  O2  1  0.96515836  0.17609782  0.30631115  1
  O  O3  1  0.20973923  0.16926952  0.81248910  1
  O  O4  1  0.97230878  0.78881630  0.80575261  1
  O  O5  1  0.84094190  0.01891686  0.81101420  1
  O  O6  1  0.77647700  0.95774594  0.69054574  1
  O  O7  1  0.17154580  0.21510450  0.69396734  1
  O  O8  1  0.03441900  0.81176486  0.69742547  1
  O  O9  1  0.79672637  0.82706644  0.19042137  1
  O  O10  1  0.03398148  0.21536057  0.18504872  1
  O  O11  1  0.18540371  0.97160434  0.19574377  1
  O  O12  1  0.88731050  0.36901866  0.63837253  1
  O  O13  1  0.49258673  0.10521481  0.64367133  1
  O  O14  1  0.63182883  0.50888773  0.64072958  1
  O  O15  1  0.88242700  0.50376927  0.14152130  1
  O  O16  1  0.63434502  0.12226871  0.13611028  1
  O  O17  1  0.50909489  0.36244397  0.13989781  1
  O  O18  1  0.47174883  0.30575432  0.01867337  1
  O  O19  1  0.82462548  0.51607895  0.02295892  1
  O  O20  1  0.69189372  0.15426752  0.02729061  1
  O  O21  1  0.45921375  0.15861373  0.52535911  1
  O  O22  1  0.69992197  0.55140765  0.52004961  1
  O  O23  1  0.85431110  0.30421227  0.53013511  1
  O  O24  1  0.54490710  0.69832745  0.97104417  1
  O  O25  1  0.16509148  0.45301308  0.97692058  1
  O  O26  1  0.30267868  0.82322403  0.97538404  1
  O  O27  1  0.54320392  0.83685743  0.47759300  1
  O  O28  1  0.30484835  0.45591399  0.47143355  1
  O  O29  1  0.17218374  0.68338397  0.47611197  1
  O  O30  1  0.11773574  0.63243236  0.35433734  1
  O  O31  1  0.50674656  0.87069530  0.35801166  1
  O  O32  1  0.35933466  0.47742141  0.36247269  1
  O  O33  1  0.13893439  0.50921974  0.85961036  1
  O  O34  1  0.36472551  0.86659785  0.85590737  1
  O  O35  1  0.51100759  0.63462995  0.86276139  1
  O  O36  1  0.03882234  0.84940870  0.41480348  1
  O  O37  1  0.81384065  0.97162462  0.41663962  1
  O  O38  1  0.17258900  0.19726574  0.41294993  1
  O  O39  1  0.02696386  0.18909861  0.91124042  1
  O  O40  1  0.15209183  0.97297410  0.90874017  1
  O  O41  1  0.80207176  0.82485934  0.91110557  1
  O  O42  1  0.97762570  0.17913138  0.58859900  1
  O  O43  1  0.17483452  0.01885389  0.58905927  1
  O  O44  1  0.82193161  0.82656923  0.58671766  1
  O  O45  1  0.97306487  0.81478254  0.08375833  1
  O  O46  1  0.82193314  0.03116467  0.08399217  1
  O  O47  1  0.18898946  0.17612685  0.08445024  1
  O  O48  1  0.69351975  0.17301161  0.74971685  1
  O  O49  1  0.47973581  0.31147432  0.75115947  1
  O  O50  1  0.84500523  0.52970203  0.74705038  1
  O  O51  1  0.68933669  0.51178790  0.24168162  1
  O  O52  1  0.80857659  0.30265327  0.23762844  1
  O  O53  1  0.47474793  0.16322130  0.24242068  1
  O  O54  1  0.63691925  0.50738744  0.92081249  1
  O  O55  1  0.84109182  0.35731337  0.92492429  1
  O  O56  1  0.49985218  0.15095128  0.92471414  1
  O  O57  1  0.64098052  0.15302221  0.42093821  1
  O  O58  1  0.49038767  0.36041352  0.42080380  1
  O  O59  1  0.84865220  0.50444928  0.42143417  1
  O  O60  1  0.37094744  0.52205732  0.07279354  1
  O  O61  1  0.14635338  0.63375091  0.07529263  1
  O  O62  1  0.50257427  0.86632049  0.07559183  1
  O  O63  1  0.35369046  0.84506060  0.57760200  1
  O  O64  1  0.47468778  0.63605827  0.57327365  1
  O  O65  1  0.14228680  0.49515710  0.57745296  1
  O  O66  1  0.31107526  0.84698668  0.25344991  1
  O  O67  1  0.50934925  0.68358885  0.25277334  1
  O  O68  1  0.15450682  0.49143743  0.25098850  1
  O  O69  1  0.30659030  0.49409069  0.76326276  1
  O  O70  1  0.16346185  0.69392855  0.75807321  1
  O  O71  1  0.50791954  0.82685023  0.76224967  1
loop_
_geom_bond_atom_site_label_1
_geom_bond_atom_site_label_2
_geom_bond_distance
_geom_bond_site_symmetry_2
Na0 O68 2.296375 1_655
Na0 O51 2.345614 1_555
Na0 O66 2.461319 1_655
Na0 O30 2.477828 1_655
Na0 O52 2.555254 1_555
Na0 O1 2.654143 1_555
Na0 O15 2.724680 1_555
Na0 O11 2.904879 1_655
Na1 O71 2.393989 1_545
Na1 O49 2.397591 1_555
Na1 O70 2.403652 1_545
Na1 O48 2.462972 1_555
Na1 O34 2.532320 1_545
Na1 O13 2.687319 1_555
Na1 O3 2.815059 1_555
Na1 O8 2.855830 1_545
Na2 O44 2.289308 1_555
Na2 O63 2.359349 1_555
Na2 O42 2.456701 1_565
Na2 O6 2.522026 1_555
Na2 O64 2.551262 1_555
Na2 O13 2.671049 1_565
Na2 O27 2.678664 1_555
Na2 O23 2.888779 1_565
Na3 O61 2.313586 1_555
Na3 O47 2.363894 1_555
Na3 O46 2.400643 1_455
Na3 O10 2.441421 1_555
Na3 O60 2.551272 1_555
Na3 O25 2.665494 1_554
Na3 O15 2.771440 1_455
Na3 O20 2.934052 1_455
Na4 O54 2.361874 1_555
Na4 O39 2.368963 1_555
Na4 O56 2.387898 1_555
Na4 O18 2.472088 1_556
Na4 O40 2.508625 1_545
Na4 O3 2.657352 1_555
Na4 O25 2.774275 1_555
Na4 O35 2.877257 1_555
Na5 O37 2.329763 1_555
Na5 O59 2.353140 1_555
Na5 O58 2.434151 1_555
Na5 O22 2.443236 1_555
Na5 O36 2.533273 1_655
Na5 O1 2.673616 1_555
Na5 O27 2.822723 1_555
Na5 O32 2.934656 1_555
Na6 O43 2.355472 1_565
Na6 O36 2.385644 1_555
Na6 O44 2.491610 1_455
Na6 O37 2.494891 1_455
Na6 O38 2.564209 1_565
Na6 O42 2.680815 1_465
Na7 O45 2.353971 1_456
Na7 O40 2.432243 1_555
Na7 O41 2.508438 1_455
Na7 O47 2.550895 1_566
Na7 O39 2.577943 1_565
Na7 O46 2.661887 1_466
Na8 O55 2.372607 1_555
Na8 O48 2.418679 1_555
Na8 O49 2.508473 1_555
Na8 O56 2.542790 1_555
Na8 O50 2.570603 1_555
Na8 O54 2.611891 1_555
Na9 O57 2.384354 1_555
Na9 O52 2.463015 1_555
Na9 O53 2.546293 1_555
Na9 O59 2.552263 1_555
Na9 O51 2.597138 1_555
Na9 O58 2.714018 1_555
Na10 O67 2.352763 1_555
Na10 O60 2.462498 1_555
Na10 O68 2.529582 1_555
Na10 O62 2.565374 1_555
Na10 O61 2.588487 1_555
Na10 O66 2.700546 1_555
Na11 O69 2.466634 1_555
Na11 O64 2.479254 1_555
Na11 O65 2.560133 1_555
Na11 O71 2.588125 1_555
Na11 O63 2.601557 1_555
Na11 O70 2.684598 1_555
Ge0 O5 1.786789 1_455
Ge0 O3 1.794892 1_555
Ge0 O39 1.826273 1_555
Ge0 O40 1.907588 1_545
Ge0 O41 2.243769 1_445
Ge0 O4 2.286211 1_445
Ge1 O17 1.805939 1_555
Ge1 O15 1.808807 1_555
Ge1 O51 1.815642 1_555
Ge1 O52 1.868053 1_555
Ge1 O16 2.243247 1_555
Ge1 O53 2.252363 1_555
Ge2 O19 1.829993 1_556
Ge2 O18 1.846086 1_556
Ge2 O55 1.884842 1_555
Ge2 O56 1.935489 1_555
Ge2 O20 1.955052 1_556
Ge2 O54 2.162970 1_555
Ge3 O25 1.806437 1_554
Ge3 O26 1.815195 1_554
Ge3 O61 1.835185 1_555
Ge3 O60 1.913702 1_555
Ge3 O24 2.218516 1_554
Ge3 O62 2.223454 1_555
Ge4 O29 1.784176 1_555
Ge4 O27 1.796285 1_555
Ge4 O63 1.810305 1_555
Ge4 O64 1.858011 1_555
Ge4 O65 2.221696 1_555
Ge4 O28 2.263024 1_555
Ge5 O33 1.862250 1_555
Ge5 O34 1.863123 1_555
Ge5 O69 1.864832 1_555
Ge5 O71 1.908090 1_555
Ge5 O35 1.967495 1_555
Ge5 O70 2.092944 1_555
O0 S0 1.483975 1_555
O0 Sn0 2.208444 1_445
O1 Si0 1.651600 1_555
O1 Sn0 2.015204 1_555
O2 Si1 1.629931 1_555
O2 Sn0 1.992179 1_545
O3 Si2 1.656714 1_555
O4 S1 1.457611 1_655
O5 Si3 1.637253 1_545
O6 Si3 1.636808 1_555
O6 Sn1 2.014402 1_555
O7 Si2 1.621718 1_555
O7 Sn1 2.011385 1_445
O8 S1 1.501411 1_555
O8 Sn1 2.109311 1_455
O9 Si0 1.611947 1_555
O9 Sn2 1.990171 1_665
O10 Si1 1.627352 1_455
O10 Sn2 2.008537 1_555
O11 S0 1.487671 1_565
O11 Sn2 2.087161 1_565
O12 S2 1.481468 1_555
O12 Sn3 2.221959 1_555
O13 Si4 1.649184 1_555
O13 Sn3 2.009958 1_555
O14 Si5 1.627299 1_555
O14 Sn3 1.988816 1_555
O15 Si6 1.657385 1_555
O16 S3 1.466586 1_555
O17 Si7 1.645402 1_555
O18 Si7 1.637550 1_555
O19 Si6 1.616789 1_555
O20 S3 1.496543 1_555
O21 Si4 1.609454 1_555
O21 Sn4 1.986260 1_555
O22 Si5 1.623588 1_555
O22 Sn4 2.005331 1_555
O23 S2 1.488073 1_555
O23 Sn4 2.079700 1_555
O24 S4 1.473194 1_555
O25 Si8 1.655100 1_555
O26 Si9 1.642885 1_555
O27 Si10 1.653772 1_555
O28 S5 1.455241 1_555
O29 Si11 1.637284 1_555
O30 Si11 1.627105 1_555
O30 Sn5 1.994879 1_555
O31 Si10 1.609094 1_555
O31 Sn5 1.981580 1_555
O32 S5 1.490260 1_555
O32 Sn5 2.082896 1_555
O33 Si8 1.623629 1_555
O34 Si9 1.637306 1_555
O35 S4 1.503897 1_555
O36 Si11 1.650897 1_555
O36 Sn0 2.069525 1_455
O37 Si10 1.646055 1_555
O37 Sn0 2.022438 1_555
O38 S5 1.475479 1_555
O38 Sn0 2.177983 1_445
O39 Si8 1.674571 1_555
O40 Si9 1.692338 1_555
O41 S4 1.471025 1_555
O42 S2 1.485885 1_555
O42 Sn1 2.159814 1_545
O43 Si4 1.611699 1_555
O43 Sn1 2.013396 1_445
O44 Si5 1.645967 1_555
O44 Sn1 2.071878 1_555
O45 Si6 1.622550 1_555
O45 Sn2 2.030304 1_665
O46 S3 1.505634 1_555
O46 Sn2 2.169865 1_655
O47 Si7 1.658125 1_555
O47 Sn2 2.076936 1_555
O48 Si3 1.658546 1_545
O48 Sn3 2.083183 1_555
O49 Si2 1.650449 1_555
O49 Sn3 2.026554 1_555
O50 S1 1.479946 1_655
O50 Sn3 2.180811 1_555
O51 Si0 1.656772 1_555
O52 Si1 1.666942 1_555
O53 S0 1.460617 1_555
O54 S4 1.500777 1_555
O55 Si8 1.639038 1_655
O56 Si9 1.674005 1_545
O57 Si10 1.611729 1_545
O57 Sn4 2.004874 1_555
O58 S5 1.489796 1_555
O58 Sn4 2.139601 1_555
O59 Si11 1.643197 1_655
O59 Sn4 2.040226 1_555
O60 Si7 1.682728 1_555
O61 Si6 1.668256 1_455
O62 S3 1.469452 1_565
O63 Si4 1.655835 1_565
O64 Si5 1.666677 1_555
O65 S2 1.459616 1_455
O66 S0 1.484604 1_565
O66 Sn5 2.159556 1_555
O67 Si0 1.611834 1_555
O67 Sn5 2.006147 1_555
O68 Si1 1.647090 1_455
O68 Sn5 2.056987 1_555
O69 Si2 1.626509 1_555
O70 S1 1.491410 1_555
O71 Si3 1.658311 1_555
