# generated using pymatgen
data_Ba2YMgBiO6
_symmetry_space_group_name_H-M   'P 1'
_cell_length_a   7.38085088
_cell_length_b   7.38085129
_cell_length_c   7.38544993
_cell_angle_alpha   50.48140852
_cell_angle_beta   50.48140703
_cell_angle_gamma   50.48864890
_symmetry_Int_Tables_number   1
_chemical_formula_structural   Ba2YMgBiO6
_chemical_formula_sum   'Ba2 Y1 Mg1 Bi1 O6'
_cell_volume   220.59647814
_cell_formula_units_Z   1
loop_
 _symmetry_equiv_pos_site_id
 _symmetry_equiv_pos_as_xyz
  1  'x, y, z'
loop_
 _atom_site_type_symbol
 _atom_site_label
 _atom_site_symmetry_multiplicity
 _atom_site_fract_x
 _atom_site_fract_y
 _atom_site_fract_z
 _atom_site_occupancy
  Ba  Ba0  1  0.77969984  0.77969984  0.78014988  1
  Ba  Ba1  1  0.32282987  0.32282987  0.32466612  1
  Y  Y0  1  0.50305737  0.50305737  0.50344483  1
  Mg  Mg0  1  0.10688909  0.10688909  0.10842716  1
  Bi  Bi0  1  0.95730178  0.95730178  0.95735849  1
  O  O0  1  0.73795623  0.73795623  0.21303305  1
  O  O1  1  0.26212096  0.74255173  0.26399959  1
  O  O2  1  0.73927288  0.21590946  0.73672770  1
  O  O3  1  0.21590946  0.73927288  0.73672770  1
  O  O4  1  0.26261877  0.26261877  0.74427789  1
  O  O5  1  0.74255173  0.26212096  0.26399959  1
loop_
_geom_bond_atom_site_label_1
_geom_bond_atom_site_label_2
_geom_bond_distance
_geom_bond_site_symmetry_2
Ba0 O0 2.832757 1_556
Ba0 O3 2.853598 1_655
Ba0 O2 2.853598 1_565
Ba0 O1 3.177842 1_655
Ba0 O5 3.177842 1_565
Ba0 O4 3.180524 1_565
Ba0 O4 3.180524 1_655
Ba0 O1 3.186068 1_556
Ba0 O5 3.186069 1_556
Ba1 O5 2.592537 1_555
Ba1 O1 2.592537 1_555
Ba1 O4 2.597066 1_555
Mg0 O5 1.920136 1_455
Mg0 O1 1.920136 1_545
Mg0 O4 1.920456 1_554
Bi0 O2 2.087693 1_565
Bi0 O3 2.087693 1_655
Bi0 O0 2.088459 1_556
O0 Y0 2.229792 1_555
O1 Y0 2.332026 1_555
O2 Y0 2.230192 1_555
O3 Y0 2.230192 1_555
O4 Y0 2.331421 1_555
O5 Y0 2.332026 1_555
