# generated using pymatgen
data_MgMn6(OF)6
_symmetry_space_group_name_H-M   'P 1'
_cell_length_a   5.08224881
_cell_length_b   4.91919126
_cell_length_c   9.29724518
_cell_angle_alpha   89.08354136
_cell_angle_beta   92.85201089
_cell_angle_gamma   90.44636325
_symmetry_Int_Tables_number   1
_chemical_formula_structural   MgMn6(OF)6
_chemical_formula_sum   'Mg1 Mn6 O6 F6'
_cell_volume   232.11298931
_cell_formula_units_Z   1
loop_
 _symmetry_equiv_pos_site_id
 _symmetry_equiv_pos_as_xyz
  1  'x, y, z'
loop_
 _atom_site_type_symbol
 _atom_site_label
 _atom_site_symmetry_multiplicity
 _atom_site_fract_x
 _atom_site_fract_y
 _atom_site_fract_z
 _atom_site_occupancy
  Mg  Mg0  1  0.48348900  0.99385100  0.99944800  1
  Mn  Mn0  1  0.97311800  0.92710600  0.99536800  1
  Mn  Mn1  1  0.02170100  0.03640700  0.33117900  1
  Mn  Mn2  1  0.06265800  0.00929600  0.65350900  1
  Mn  Mn3  1  0.47377700  0.52166300  0.81757800  1
  Mn  Mn4  1  0.54430600  0.46191600  0.17688200  1
  Mn  Mn5  1  0.46903800  0.52636000  0.49344900  1
  O  O0  1  0.22007600  0.83518300  0.48275400  1
  O  O1  1  0.22219900  0.83155700  0.84240300  1
  O  O2  1  0.31524700  0.33021900  0.33259600  1
  O  O3  1  0.30114000  0.35397100  0.65388900  1
  O  O4  1  0.67706300  0.64932300  0.99194100  1
  O  O5  1  0.77637900  0.13115900  0.14832600  1
  F  F0  1  0.26354000  0.81888200  0.15335900  1
  F  F1  1  0.25366200  0.30089700  0.00000700  1
  F  F2  1  0.72100500  0.69361200  0.34428700  1
  F  F3  1  0.70614500  0.70059100  0.65386300  1
  F  F4  1  0.80571500  0.21007400  0.50049500  1
  F  F5  1  0.70974100  0.16793700  0.84533900  1
loop_
_geom_bond_atom_site_label_1
_geom_bond_atom_site_label_2
_geom_bond_distance
_geom_bond_site_symmetry_2
Mg0 O4 1.970192 1_555
Mg0 O1 2.088174 1_555
Mg0 O5 2.096919 1_566
Mn0 O1 2.013884 1_655
Mn0 O4 2.024039 1_555
Mn0 O5 2.057293 1_566
Mn1 O0 1.952368 1_545
Mn1 O2 2.068782 1_555
Mn1 O5 2.105852 1_455
Mn2 O0 2.018546 1_545
Mn2 O3 2.076429 1_555
Mn2 O1 2.079985 1_545
Mn3 O3 1.913722 1_555
Mn3 O4 1.986329 1_555
Mn3 O1 2.020622 1_555
Mn4 O2 1.999184 1_555
Mn4 O5 2.045431 1_555
Mn4 O4 2.077652 1_554
Mn5 O2 1.922610 1_555
Mn5 O3 1.935766 1_555
Mn5 O0 1.982746 1_555
F0 Mg0 2.035380 1_554
F0 Mn0 2.095490 1_454
F0 Mn4 2.272250 1_555
F0 Mn1 2.380784 1_565
F1 Mg0 1.916780 1_544
F1 Mn4 2.301136 1_555
F1 Mn0 2.317611 1_444
F1 Mn3 2.327766 1_554
F2 Mn5 2.088959 1_555
F2 Mn4 2.104663 1_555
F2 Mn1 2.272798 1_665
F3 Mn5 2.063236 1_555
F3 Mn3 2.146154 1_555
F3 Mn2 2.355121 1_665
F4 Mn2 2.120099 1_655
F4 Mn1 2.154615 1_655
F4 Mn5 2.319455 1_555
F5 Mg0 2.053727 1_545
F5 Mn3 2.125998 1_555
F5 Mn0 2.219658 1_545
F5 Mn2 2.718740 1_655
