# generated using pymatgen
data_Mo2(PO4)3
_symmetry_space_group_name_H-M   'P 1'
_cell_length_a   8.92735600
_cell_length_b   9.13906500
_cell_length_c   12.49915500
_cell_angle_alpha   90.00000000
_cell_angle_beta   90.00000000
_cell_angle_gamma   90.00000000
_symmetry_Int_Tables_number   1
_chemical_formula_structural   Mo2(PO4)3
_chemical_formula_sum   'Mo8 P12 O48'
_cell_volume   1019.77714293
_cell_formula_units_Z   4
loop_
 _symmetry_equiv_pos_site_id
 _symmetry_equiv_pos_as_xyz
  1  'x, y, z'
loop_
 _atom_site_type_symbol
 _atom_site_label
 _atom_site_symmetry_multiplicity
 _atom_site_fract_x
 _atom_site_fract_y
 _atom_site_fract_z
 _atom_site_occupancy
  Mo  Mo0  1  0.24484300  0.02731700  0.39846300  1
  Mo  Mo1  1  0.75515700  0.52731700  0.39846300  1
  Mo  Mo2  1  0.75515700  0.97268300  0.60153700  1
  Mo  Mo3  1  0.24484300  0.47268300  0.60153700  1
  Mo  Mo4  1  0.75515700  0.52731700  0.10153700  1
  Mo  Mo5  1  0.24484300  0.47268300  0.89846300  1
  Mo  Mo6  1  0.75515700  0.97268300  0.89846300  1
  Mo  Mo7  1  0.24484300  0.02731700  0.10153700  1
  P  P0  1  0.60070200  0.87738900  0.13296400  1
  P  P1  1  0.03556700  0.75000000  0.50000000  1
  P  P2  1  0.39929800  0.37738900  0.36703600  1
  P  P3  1  0.03556700  0.75000000  0.00000000  1
  P  P4  1  0.60070200  0.87738900  0.36703600  1
  P  P5  1  0.96443300  0.25000000  0.50000000  1
  P  P6  1  0.60070200  0.62261100  0.86703600  1
  P  P7  1  0.39929800  0.37738900  0.13296400  1
  P  P8  1  0.60070200  0.62261100  0.63296400  1
  P  P9  1  0.39929800  0.12261100  0.63296400  1
  P  P10  1  0.39929800  0.12261100  0.86703600  1
  P  P11  1  0.96443300  0.25000000  0.00000000  1
  O  O0  1  0.86790600  0.33487600  0.08002700  1
  O  O1  1  0.34092300  0.42649700  0.25000000  1
  O  O2  1  0.93726900  0.85773300  0.56510400  1
  O  O3  1  0.30625300  0.47302000  0.05680700  1
  O  O4  1  0.43296400  0.90700300  0.37154500  1
  O  O5  1  0.43296400  0.59299700  0.62845500  1
  O  O6  1  0.34092300  0.07350300  0.75000000  1
  O  O7  1  0.43296400  0.59299700  0.87154500  1
  O  O8  1  0.65907700  0.57350300  0.75000000  1
  O  O9  1  0.37187200  0.28511800  0.61934900  1
  O  O10  1  0.62812800  0.71488200  0.38065100  1
  O  O11  1  0.06273100  0.35773300  0.56510400  1
  O  O12  1  0.20375300  0.47169300  0.75000000  1
  O  O13  1  0.43296400  0.90700300  0.12845500  1
  O  O14  1  0.37187200  0.21488200  0.11934900  1
  O  O15  1  0.86790600  0.33487600  0.41997300  1
  O  O16  1  0.62812800  0.78511800  0.61934900  1
  O  O17  1  0.30625300  0.02698000  0.94319300  1
  O  O18  1  0.56703600  0.40700300  0.12845500  1
  O  O19  1  0.86790600  0.16512400  0.58002700  1
  O  O20  1  0.06273100  0.14226700  0.06510400  1
  O  O21  1  0.65907700  0.92649700  0.25000000  1
  O  O22  1  0.93726900  0.64226700  0.43489600  1
  O  O23  1  0.79624700  0.52830700  0.25000000  1
  O  O24  1  0.69374700  0.52698000  0.94319300  1
  O  O25  1  0.93726900  0.85773300  0.93489600  1
  O  O26  1  0.69374700  0.52698000  0.55680700  1
  O  O27  1  0.56703600  0.40700300  0.37154500  1
  O  O28  1  0.06273100  0.14226700  0.43489600  1
  O  O29  1  0.93726900  0.64226700  0.06510400  1
  O  O30  1  0.30625300  0.02698000  0.55680700  1
  O  O31  1  0.62812800  0.78511800  0.88065100  1
  O  O32  1  0.86790600  0.16512400  0.91997300  1
  O  O33  1  0.20375300  0.02830700  0.25000000  1
  O  O34  1  0.13209400  0.83487600  0.41997300  1
  O  O35  1  0.13209400  0.66512400  0.58002700  1
  O  O36  1  0.06273100  0.35773300  0.93489600  1
  O  O37  1  0.56703600  0.09299700  0.62845500  1
  O  O38  1  0.37187200  0.28511800  0.88065100  1
  O  O39  1  0.62812800  0.71488200  0.11934900  1
  O  O40  1  0.69374700  0.97302000  0.44319300  1
  O  O41  1  0.13209400  0.66512400  0.91997300  1
  O  O42  1  0.30625300  0.47302000  0.44319300  1
  O  O43  1  0.37187200  0.21488200  0.38065100  1
  O  O44  1  0.79624700  0.97169300  0.75000000  1
  O  O45  1  0.69374700  0.97302000  0.05680700  1
  O  O46  1  0.56703600  0.09299700  0.87154500  1
  O  O47  1  0.13209400  0.83487600  0.08002700  1
loop_
_geom_bond_atom_site_label_1
_geom_bond_atom_site_label_2
_geom_bond_distance
_geom_bond_site_symmetry_2
Mo0 O33 1.891593 1_555
Mo0 O28 1.988505 1_555
Mo0 O4 2.035360 1_545
Mo0 O34 2.044153 1_545
Mo0 O30 2.053695 1_555
Mo0 O43 2.067359 1_555
Mo1 O23 1.891593 1_555
Mo1 O22 1.988505 1_555
Mo1 O27 2.035360 1_555
Mo1 O15 2.044153 1_555
Mo1 O26 2.053695 1_555
Mo1 O10 2.067359 1_555
Mo2 O44 1.891593 1_555
Mo2 O2 1.988505 1_555
Mo2 O37 2.035360 1_565
Mo2 O19 2.044153 1_565
Mo2 O40 2.053695 1_555
Mo2 O16 2.067359 1_555
Mo3 O12 1.891593 1_555
Mo3 O11 1.988505 1_555
Mo3 O5 2.035360 1_555
Mo3 O35 2.044153 1_555
Mo3 O42 2.053695 1_555
Mo3 O9 2.067359 1_555
Mo4 O23 1.891593 1_555
Mo4 O29 1.988505 1_555
Mo4 O18 2.035360 1_555
Mo4 O0 2.044153 1_555
Mo4 O24 2.053695 1_554
Mo4 O39 2.067359 1_555
Mo5 O12 1.891593 1_555
Mo5 O36 1.988505 1_555
Mo5 O7 2.035360 1_555
Mo5 O41 2.044153 1_555
Mo5 O3 2.053695 1_556
Mo5 O38 2.067359 1_555
Mo6 O44 1.891593 1_555
Mo6 O25 1.988505 1_555
Mo6 O46 2.035360 1_565
Mo6 O32 2.044153 1_565
Mo6 O45 2.053695 1_556
Mo6 O31 2.067359 1_555
Mo7 O33 1.891593 1_555
Mo7 O20 1.988505 1_555
Mo7 O13 2.035360 1_545
Mo7 O47 2.044153 1_545
Mo7 O17 2.053695 1_554
Mo7 O14 2.067359 1_555
O0 P11 1.531277 1_555
O1 P2 1.616458 1_555
O1 P7 1.616458 1_555
O2 P1 1.549727 1_655
O3 P7 1.536203 1_555
O4 P4 1.522761 1_555
O5 P8 1.522761 1_555
O6 P10 1.616458 1_555
O6 P9 1.616458 1_555
O7 P6 1.522761 1_555
O8 P8 1.616458 1_555
O8 P6 1.616458 1_555
O9 P9 1.514798 1_555
O10 P4 1.514798 1_555
O11 P5 1.549727 1_455
O13 P0 1.522761 1_555
O14 P7 1.514798 1_555
O15 P5 1.531277 1_555
O16 P8 1.514798 1_555
O17 P10 1.536203 1_555
O18 P7 1.522761 1_555
O19 P5 1.531277 1_555
O20 P11 1.549727 1_455
O21 P4 1.616458 1_555
O21 P0 1.616458 1_555
O22 P1 1.549727 1_655
O24 P6 1.536203 1_555
O25 P3 1.549727 1_656
O26 P8 1.536203 1_555
O27 P2 1.522761 1_555
O28 P5 1.549727 1_455
O29 P3 1.549727 1_655
O30 P9 1.536203 1_555
O31 P6 1.514798 1_555
O32 P11 1.531277 1_556
O34 P1 1.531277 1_555
O35 P1 1.531277 1_555
O36 P11 1.549727 1_456
O37 P9 1.522761 1_555
O38 P10 1.514798 1_555
O39 P0 1.514798 1_555
O40 P4 1.536203 1_555
O41 P3 1.531277 1_556
O42 P2 1.536203 1_555
O43 P2 1.514798 1_555
O45 P0 1.536203 1_555
O46 P10 1.522761 1_555
O47 P3 1.531277 1_555
