# generated using pymatgen
data_Ba2MgCuHgO4
_symmetry_space_group_name_H-M   'P 1'
_cell_length_a   3.95259300
_cell_length_b   3.95259300
_cell_length_c   10.45915600
_cell_angle_alpha   90.00000000
_cell_angle_beta   90.00000000
_cell_angle_gamma   90.00000000
_symmetry_Int_Tables_number   1
_chemical_formula_structural   Ba2MgCuHgO4
_chemical_formula_sum   'Ba2 Mg1 Cu1 Hg1 O4'
_cell_volume   163.40330449
_cell_formula_units_Z   1
loop_
 _symmetry_equiv_pos_site_id
 _symmetry_equiv_pos_as_xyz
  1  'x, y, z'
loop_
 _atom_site_type_symbol
 _atom_site_label
 _atom_site_symmetry_multiplicity
 _atom_site_fract_x
 _atom_site_fract_y
 _atom_site_fract_z
 _atom_site_occupancy
  Ba  Ba0  1  0.50000000  0.50000000  0.68263100  1
  Ba  Ba1  1  0.50000000  0.50000000  0.31736900  1
  Mg  Mg0  1  0.50000000  0.50000000  0.00000000  1
  Cu  Cu0  1  0.00000000  0.00000000  0.50000000  1
  Hg  Hg0  1  0.00000000  0.00000000  0.00000000  1
  O  O0  1  0.00000000  0.00000000  0.79010600  1
  O  O1  1  0.00000000  0.00000000  0.20989400  1
  O  O2  1  0.00000000  0.50000000  0.50000000  1
  O  O3  1  0.50000000  0.00000000  0.50000000  1
loop_
_geom_bond_atom_site_label_1
_geom_bond_atom_site_label_2
_geom_bond_distance
_geom_bond_site_symmetry_2
Ba0 O2 2.748542 1_555
Ba0 O3 2.748542 1_565
Ba0 O2 2.748542 1_655
Ba0 O3 2.748542 1_555
Ba0 O0 3.012489 1_655
Ba0 O0 3.012489 1_565
Ba0 O0 3.012489 1_665
Ba0 O0 3.012489 1_555
Ba0 Mg0 3.319412 1_556
Ba1 O2 2.748542 1_555
Ba1 O3 2.748542 1_565
Ba1 O2 2.748542 1_655
Ba1 O3 2.748542 1_555
Ba1 O1 3.012489 1_655
Ba1 O1 3.012489 1_555
Ba1 O1 3.012489 1_565
Ba1 O1 3.012489 1_665
Ba1 Mg0 3.319412 1_555
Cu0 O2 1.976296 1_555
Cu0 O2 1.976296 1_545
Cu0 O3 1.976296 1_555
Cu0 O3 1.976296 1_455
Hg0 O1 2.195314 1_555
Hg0 O0 2.195314 1_554
Hg0 Mg0 2.794905 1_545
Hg0 Mg0 2.794905 1_455
Hg0 Mg0 2.794905 1_445
Hg0 Mg0 2.794905 1_555
