# generated using pymatgen
data_Na6Sc4In4Si3(S3O16)3
_symmetry_space_group_name_H-M   'P 1'
_cell_length_a   17.91890179
_cell_length_b   8.92357761
_cell_length_c   23.24933095
_cell_angle_alpha   90.01846508
_cell_angle_beta   90.11448957
_cell_angle_gamma   119.84747221
_symmetry_Int_Tables_number   1
_chemical_formula_structural   Na6Sc4In4Si3(S3O16)3
_chemical_formula_sum   'Na18 Sc12 In12 Si9 S27 O144'
_cell_volume   3224.44940288
_cell_formula_units_Z   3
loop_
 _symmetry_equiv_pos_site_id
 _symmetry_equiv_pos_as_xyz
  1  'x, y, z'
loop_
 _atom_site_type_symbol
 _atom_site_label
 _atom_site_symmetry_multiplicity
 _atom_site_fract_x
 _atom_site_fract_y
 _atom_site_fract_z
 _atom_site_occupancy
  Na  Na0  1  0.00522253  0.64886979  0.25230608  1
  Na  Na1  1  0.50356569  0.36209720  0.74302816  1
  Na  Na2  1  0.16199462  0.30523619  0.91294619  1
  Na  Na3  1  0.66204063  0.30463389  0.91318001  1
  Na  Na4  1  0.16357641  0.02281632  0.41741420  1
  Na  Na5  1  0.66073453  0.01405657  0.41747200  1
  Na  Na6  1  0.99603634  0.98975672  0.49980119  1
  Na  Na7  1  0.49392998  0.99950367  0.50276316  1
  Na  Na8  1  0.99571012  0.00339111  0.99624551  1
  Na  Na9  1  0.49575913  0.00291199  0.99748532  1
  Na  Na10  1  0.33083348  0.33269330  0.82771642  1
  Na  Na11  1  0.83963459  0.33573907  0.82871888  1
  Na  Na12  1  0.34196446  0.34810087  0.33443068  1
  Na  Na13  1  0.83114719  0.32994426  0.33502400  1
  Na  Na14  1  0.17285559  0.67898623  0.16989769  1
  Na  Na15  1  0.66326617  0.67612264  0.17190533  1
  Na  Na16  1  0.16649265  0.65207127  0.67007651  1
  Na  Na17  1  0.66441209  0.65537373  0.66339552  1
  Sc  Sc0  1  0.00387410  0.99634456  0.35185735  1
  Sc  Sc1  1  0.50433218  0.99367173  0.35004476  1
  Sc  Sc2  1  0.00498300  0.01745750  0.84763791  1
  Sc  Sc3  1  0.50376248  0.01241839  0.84925552  1
  Sc  Sc4  1  0.32991113  0.33393129  0.68286733  1
  Sc  Sc5  1  0.82275174  0.31533885  0.18759343  1
  Sc  Sc6  1  0.34178627  0.33376853  0.97913605  1
  Sc  Sc7  1  0.84064157  0.33435990  0.98005768  1
  Sc  Sc8  1  0.34619916  0.34493904  0.48340459  1
  Sc  Sc9  1  0.84093565  0.34887580  0.48048623  1
  Sc  Sc10  1  0.16387614  0.67166678  0.31637107  1
  Sc  Sc11  1  0.66236777  0.65566195  0.81400379  1
  In  In0  1  0.00351395  0.00807736  0.65097357  1
  In  In1  1  0.50311726  0.01588082  0.64727363  1
  In  In2  1  0.00376188  0.00012577  0.15050773  1
  In  In3  1  0.50233100  0.99700231  0.15219763  1
  In  In4  1  0.83020703  0.33452365  0.68621627  1
  In  In5  1  0.33080523  0.32738625  0.18705686  1
  In  In6  1  0.16289702  0.65918327  0.01559258  1
  In  In7  1  0.66361322  0.65956395  0.01605005  1
  In  In8  1  0.16534977  0.66840569  0.51698191  1
  In  In9  1  0.65189319  0.65242131  0.51971719  1
  In  In10  1  0.65957832  0.67022279  0.31622118  1
  In  In11  1  0.15916922  0.64754749  0.81380154  1
  Si  Si0  1  0.14946893  0.00196174  0.25088415  1
  Si  Si1  1  0.64767683  0.99600324  0.25029226  1
  Si  Si2  1  0.15192172  0.29875994  0.74942416  1
  Si  Si3  1  0.65074439  0.29632156  0.75219016  1
  Si  Si4  1  0.48004708  0.33009234  0.58703012  1
  Si  Si5  1  0.01800291  0.36815335  0.91747873  1
  Si  Si6  1  0.51899074  0.37006029  0.91555647  1
  Si  Si7  1  0.01873370  0.66502172  0.41569442  1
  Si  Si8  1  0.51589820  0.66525936  0.41614979  1
  S  S0  1  0.35205658  0.70727742  0.24970026  1
  S  S1  1  0.85247127  0.70692849  0.24929319  1
  S  S2  1  0.99990340  0.29364120  0.24951607  1
  S  S3  1  0.50053357  0.29261805  0.24949037  1
  S  S4  1  0.00001867  0.70841631  0.74985041  1
  S  S5  1  0.49991533  0.71069791  0.74998872  1
  S  S6  1  0.35107641  0.99598161  0.75100498  1
  S  S7  1  0.85242851  0.99743673  0.74976331  1
  S  S8  1  0.97883946  0.33190638  0.58375950  1
  S  S9  1  0.18552342  0.03786191  0.58141698  1
  S  S10  1  0.68961962  0.04148016  0.58157276  1
  S  S11  1  0.33112956  0.62562004  0.58264836  1
  S  S12  1  0.83552778  0.63354027  0.58297725  1
  S  S13  1  0.47880929  0.62599449  0.08371274  1
  S  S14  1  0.97940992  0.62743860  0.08472097  1
  S  S15  1  0.33331863  0.03522895  0.08268175  1
  S  S16  1  0.83329564  0.03697877  0.08348574  1
  S  S17  1  0.18690569  0.33559807  0.08188462  1
  S  S18  1  0.68670450  0.33449981  0.08209728  1
  S  S19  1  0.31599164  0.66938978  0.91846248  1
  S  S20  1  0.81461784  0.66960253  0.91760737  1
  S  S21  1  0.16669089  0.96076048  0.91694195  1
  S  S22  1  0.66648281  0.96017214  0.91727800  1
  S  S23  1  0.31436432  0.95987304  0.41650881  1
  S  S24  1  0.81471947  0.95959806  0.41875286  1
  S  S25  1  0.16596626  0.37263791  0.41637570  1
  S  S26  1  0.66759072  0.37365146  0.41577674  1
  O  O0  1  0.10219002  0.02452346  0.30773596  1
  O  O1  1  0.60592402  0.02622759  0.30811107  1
  O  O2  1  0.40641225  0.79508771  0.29954880  1
  O  O3  1  0.90792365  0.79085055  0.29962336  1
  O  O4  1  0.48806470  0.18516188  0.29964009  1
  O  O5  1  0.98498556  0.18473724  0.29982741  1
  O  O6  1  0.10731357  0.18773054  0.80917974  1
  O  O7  1  0.60650888  0.18455524  0.81106301  1
  O  O8  1  0.48827502  0.79248156  0.80143838  1
  O  O9  1  0.98755102  0.79099218  0.80069352  1
  O  O10  1  0.40658510  0.02103660  0.80189435  1
  O  O11  1  0.90672335  0.01942484  0.80036787  1
  O  O12  1  0.38634177  0.96092786  0.69867157  1
  O  O13  1  0.88685830  0.96399396  0.69639443  1
  O  O14  1  0.09041593  0.21442476  0.69346364  1
  O  O15  1  0.58605020  0.21500740  0.69785918  1
  O  O16  1  0.00718284  0.80155880  0.69570679  1
  O  O17  1  0.51012137  0.80993057  0.69699805  1
  O  O18  1  0.38580099  0.80835265  0.19552065  1
  O  O19  1  0.88721047  0.81162527  0.19635781  1
  O  O20  1  0.01097170  0.21774835  0.19571728  1
  O  O21  1  0.50807920  0.21441531  0.19465012  1
  O  O22  1  0.08543117  0.94989487  0.19472543  1
  O  O23  1  0.59181900  0.96520771  0.19186779  1
  O  O24  1  0.43391610  0.34980057  0.64566145  1
  O  O25  1  0.93940884  0.35562378  0.63653558  1
  O  O26  1  0.23691843  0.12661751  0.63285822  1
  O  O27  1  0.74062979  0.12539488  0.63420391  1
  O  O28  1  0.31772950  0.52065998  0.63490793  1
  O  O29  1  0.82302820  0.53049816  0.63582130  1
  O  O30  1  0.43939495  0.52307868  0.13630461  1
  O  O31  1  0.93937380  0.52793119  0.13738761  1
  O  O32  1  0.32069508  0.11288592  0.13537997  1
  O  O33  1  0.82286931  0.12047965  0.13520128  1
  O  O34  1  0.23811318  0.35473269  0.13420932  1
  O  O35  1  0.73923792  0.34990324  0.13323437  1
  O  O36  1  0.22773870  0.31561352  0.02969198  1
  O  O37  1  0.72728848  0.31541994  0.02930007  1
  O  O38  1  0.42710482  0.53806220  0.03225194  1
  O  O39  1  0.92738703  0.53788436  0.03323028  1
  O  O40  1  0.34399458  0.14232430  0.03164251  1
  O  O41  1  0.84395366  0.14179281  0.03175874  1
  O  O42  1  0.22395394  0.13530741  0.52809064  1
  O  O43  1  0.73080312  0.14704994  0.52959512  1
  O  O44  1  0.33943118  0.54223417  0.53085323  1
  O  O45  1  0.84683414  0.54640472  0.53201019  1
  O  O46  1  0.42372043  0.31691399  0.52995566  1
  O  O47  1  0.92694597  0.31631763  0.53214630  1
  O  O48  1  0.28003085  0.70487732  0.97086419  1
  O  O49  1  0.77982692  0.70445599  0.97098008  1
  O  O50  1  0.08095265  0.44071624  0.97411172  1
  O  O51  1  0.58181743  0.44602766  0.97208566  1
  O  O52  1  0.15571164  0.86145566  0.97036115  1
  O  O53  1  0.65536845  0.86183361  0.97116659  1
  O  O54  1  0.27964935  0.85560627  0.46953870  1
  O  O55  1  0.77681744  0.85098742  0.46982790  1
  O  O56  1  0.15392419  0.44911807  0.46974872  1
  O  O57  1  0.65802729  0.45398047  0.46815542  1
  O  O58  1  0.08320997  0.71453951  0.47084911  1
  O  O59  1  0.58470693  0.72899848  0.46961704  1
  O  O60  1  0.06118607  0.63668606  0.35723822  1
  O  O61  1  0.55381961  0.62106528  0.35949685  1
  O  O62  1  0.25752888  0.87179132  0.36642360  1
  O  O63  1  0.76158992  0.88567896  0.36588699  1
  O  O64  1  0.17903182  0.48097881  0.36572623  1
  O  O65  1  0.68549935  0.48091507  0.36378196  1
  O  O66  1  0.05695683  0.49230041  0.86254200  1
  O  O67  1  0.56314072  0.48834959  0.85892849  1
  O  O68  1  0.18430784  0.88636713  0.86594675  1
  O  O69  1  0.68169955  0.88172891  0.86711398  1
  O  O70  1  0.26054690  0.63701264  0.86741845  1
  O  O71  1  0.75769459  0.64010938  0.86778193  1
  O  O72  1  0.01056473  0.84062223  0.40958768  1
  O  O73  1  0.50903608  0.84322947  0.40901259  1
  O  O74  1  0.40126646  0.98943533  0.40755049  1
  O  O75  1  0.90239281  0.98941942  0.41031204  1
  O  O76  1  0.08632320  0.19995753  0.41060890  1
  O  O77  1  0.58896645  0.20173832  0.40975001  1
  O  O78  1  0.01014658  0.17716250  0.91053413  1
  O  O79  1  0.50974152  0.17779221  0.91012860  1
  O  O80  1  0.08815856  0.97589726  0.91109978  1
  O  O81  1  0.58804837  0.97609870  0.91176842  1
  O  O82  1  0.40311605  0.81413769  0.91067979  1
  O  O83  1  0.90163892  0.81352970  0.90935702  1
  O  O84  1  0.48529313  0.15169817  0.58384143  1
  O  O85  1  0.98393212  0.17061589  0.58579804  1
  O  O86  1  0.09693223  0.01437238  0.58536181  1
  O  O87  1  0.60213155  0.01847645  0.58566298  1
  O  O88  1  0.41004836  0.79675882  0.58852120  1
  O  O89  1  0.91553646  0.80588077  0.58781127  1
  O  O90  1  0.48416867  0.79771695  0.08598001  1
  O  O91  1  0.98512128  0.80009606  0.08551510  1
  O  O92  1  0.41198254  0.01878981  0.08754514  1
  O  O93  1  0.91171410  0.01974692  0.08849981  1
  O  O94  1  0.09929310  0.18011542  0.08584757  1
  O  O95  1  0.59901215  0.18067046  0.08591229  1
  O  O96  1  0.34929771  0.16072109  0.74595319  1
  O  O97  1  0.84868115  0.16022736  0.74502972  1
  O  O98  1  0.24558263  0.31009688  0.74416221  1
  O  O99  1  0.74564492  0.31462040  0.74858429  1
  O  O100  1  0.42447978  0.53232703  0.74611808  1
  O  O101  1  0.92423347  0.53017879  0.74635784  1
  O  O102  1  0.34832367  0.53705992  0.24468704  1
  O  O103  1  0.85187523  0.53914263  0.24234787  1
  O  O104  1  0.42445818  0.31839889  0.24549109  1
  O  O105  1  0.92532146  0.32452223  0.24302168  1
  O  O106  1  0.24354039  0.17461976  0.24683200  1
  O  O107  1  0.74347995  0.17573269  0.24390342  1
  O  O108  1  0.31740721  0.50390634  0.92631792  1
  O  O109  1  0.81553243  0.50294336  0.92488595  1
  O  O110  1  0.42385804  0.35207375  0.92392764  1
  O  O111  1  0.92196418  0.34607845  0.92643645  1
  O  O112  1  0.24087731  0.14126767  0.92440453  1
  O  O113  1  0.74101257  0.14013819  0.92419690  1
  O  O114  1  0.31400520  0.12626446  0.42197407  1
  O  O115  1  0.81778163  0.13070935  0.42580242  1
  O  O116  1  0.23951277  0.34149864  0.42205577  1
  O  O117  1  0.74165730  0.33999355  0.42270416  1
  O  O118  1  0.42052869  0.49927025  0.42353766  1
  O  O119  1  0.92342924  0.49391372  0.42330006  1
  O  O120  1  0.17984630  0.49518163  0.08018175  1
  O  O121  1  0.68140449  0.49620433  0.08088819  1
  O  O122  1  0.06735087  0.64941746  0.08048013  1
  O  O123  1  0.56686583  0.64838651  0.07965807  1
  O  O124  1  0.25528223  0.86107089  0.07673469  1
  O  O125  1  0.75497752  0.86309161  0.07805467  1
  O  O126  1  0.17956223  0.86430226  0.58062105  1
  O  O127  1  0.68614807  0.87251215  0.57888234  1
  O  O128  1  0.25310802  0.64713955  0.57804125  1
  O  O129  1  0.75951847  0.65439824  0.57613585  1
  O  O130  1  0.06655457  0.48541943  0.57954936  1
  O  O131  1  0.57694819  0.50288069  0.58567731  1
  O  O132  1  0.15621945  0.82467092  0.25662320  1
  O  O133  1  0.66475110  0.83291741  0.25190409  1
  O  O134  1  0.26453650  0.68039925  0.25715324  1
  O  O135  1  0.76434003  0.67496512  0.25717895  1
  O  O136  1  0.07832299  0.46632061  0.25521981  1
  O  O137  1  0.58100553  0.46214441  0.25289705  1
  O  O138  1  0.16386394  0.49298202  0.75155040  1
  O  O139  1  0.65685639  0.48706761  0.75803261  1
  O  O140  1  0.08047715  0.70036924  0.75366434  1
  O  O141  1  0.57852303  0.69346069  0.75548617  1
  O  O142  1  0.26336609  0.85025178  0.75912552  1
  O  O143  1  0.76530190  0.84949805  0.75824759  1
loop_
_geom_bond_atom_site_label_1
_geom_bond_atom_site_label_2
_geom_bond_distance
_geom_bond_site_symmetry_2
Na0 O132 2.359174 1_555
Na0 O103 2.425288 1_455
Na0 O105 2.519369 1_455
Na0 O136 2.549047 1_555
Na0 O60 2.658574 1_555
Na0 O22 2.690849 1_555
Na0 O3 2.839142 1_455
Na0 O31 2.900578 1_455
Na1 O139 2.420147 1_555
Na1 O96 2.435475 1_555
Na1 O100 2.542455 1_555
Na1 O24 2.558569 1_555
Na1 O141 2.583811 1_555
Na1 O15 2.635641 1_555
Na1 O67 2.908467 1_555
Na1 O10 2.983859 1_555
Na2 O78 2.369994 1_555
Na2 O108 2.465112 1_555
Na2 O112 2.503446 1_555
Na2 O80 2.553169 1_545
Na2 O6 2.616479 1_555
Na2 O50 2.710603 1_555
Na2 O70 2.794568 1_555
Na2 O36 2.939743 1_556
Na3 O79 2.378717 1_555
Na3 O109 2.433586 1_555
Na3 O113 2.507826 1_555
Na3 O81 2.546481 1_545
Na3 O7 2.588924 1_555
Na3 O51 2.710378 1_555
Na3 O71 2.813461 1_555
Na3 O37 2.922307 1_556
Na4 O114 2.377224 1_555
Na4 O72 2.398872 1_545
Na4 O116 2.469373 1_555
Na4 O76 2.572431 1_555
Na4 O58 2.692750 1_545
Na4 O42 2.775873 1_555
Na4 O0 2.778111 1_555
Na4 O62 2.884657 1_545
Na5 O73 2.371608 1_545
Na5 O115 2.474301 1_555
Na5 O59 2.521007 1_545
Na5 O117 2.525466 1_555
Na5 O77 2.575674 1_555
Na5 O1 2.745439 1_555
Na5 O63 2.843469 1_545
Na5 O43 2.877835 1_555
Na6 O72 2.565770 1_655
Na6 O89 2.572530 1_555
Na6 O86 2.619920 1_665
Na6 O85 2.645244 1_565
Na6 O75 2.669347 1_555
Na6 O76 2.726015 1_665
Na7 O84 2.372858 1_565
Na7 O88 2.610602 1_555
Na7 O73 2.672999 1_555
Na7 O87 2.675942 1_565
Na7 O74 2.738968 1_555
Na7 O77 2.791303 1_565
Na8 O78 2.459110 1_655
Na8 O83 2.633276 1_545
Na8 O93 2.668037 1_556
Na8 O80 2.672175 1_645
Na8 O91 2.701099 1_546
Na8 O94 2.709350 1_656
Na9 O79 2.497579 1_555
Na9 O82 2.620569 1_545
Na9 O92 2.623327 1_556
Na9 O81 2.677735 1_545
Na9 O95 2.688369 1_556
Na9 O90 2.693443 1_546
Na10 O98 2.414358 1_555
Na10 O96 2.565948 1_555
Na10 O100 2.574440 1_555
Na10 O110 2.740409 1_555
Na10 O112 2.801003 1_555
Na10 O108 2.830753 1_555
Na11 O99 2.452422 1_555
Na11 O101 2.524043 1_555
Na11 O97 2.552854 1_555
Na11 O111 2.682771 1_555
Na11 O113 2.836365 1_555
Na11 O109 2.838097 1_555
Na12 O118 2.487906 1_555
Na12 O106 2.630728 1_555
Na12 O104 2.633041 1_555
Na12 O102 2.649827 1_555
Na12 O114 2.707720 1_555
Na12 O116 2.726052 1_555
Na13 O119 2.581400 1_555
Na13 O107 2.585052 1_555
Na13 O117 2.625078 1_555
Na13 O115 2.693180 1_555
Na13 O105 2.742428 1_555
Na13 O103 2.753372 1_555
Na14 O132 2.496179 1_555
Na14 O134 2.603924 1_555
Na14 O124 2.671954 1_555
Na14 O136 2.687349 1_555
Na14 O120 2.694437 1_555
Na14 O122 2.730009 1_555
Na15 O133 2.319212 1_555
Na15 O137 2.564424 1_555
Na15 O123 2.684045 1_555
Na15 O135 2.686097 1_555
Na15 O125 2.744590 1_555
Na15 O121 2.771483 1_555
Na16 O138 2.353972 1_555
Na16 O140 2.647768 1_555
Na16 O128 2.659054 1_555
Na16 O130 2.679605 1_555
Na16 O142 2.711939 1_555
Na16 O126 2.744091 1_555
Na17 O131 2.331768 1_555
Na17 O139 2.629834 1_555
Na17 O127 2.649761 1_555
Na17 O129 2.654937 1_555
Na17 O141 2.757098 1_555
Na17 O143 2.827819 1_555
In0 O14 1.982393 1_555
In0 O16 2.145633 1_545
In0 O13 2.197727 1_445
In0 O85 2.242504 1_455
In0 O86 2.246969 1_555
In0 O89 2.248323 1_445
In1 O15 2.027866 1_555
In1 O84 2.032333 1_555
In1 O17 2.227143 1_545
In1 O12 2.244086 1_545
In1 O87 2.273649 1_555
In1 O88 2.283359 1_545
In2 O22 2.011616 1_545
In2 O20 2.154333 1_555
In2 O19 2.200169 1_445
In2 O91 2.232427 1_445
In2 O94 2.246120 1_555
In2 O93 2.260004 1_455
In3 O23 1.987349 1_555
In3 O21 2.132652 1_565
In3 O18 2.172357 1_555
In3 O90 2.249146 1_555
In3 O92 2.285157 1_565
In3 O95 2.290957 1_565
In4 O99 2.042343 1_555
In4 O27 2.128497 1_555
In4 O29 2.161534 1_555
In4 O25 2.200224 1_555
In4 O101 2.214290 1_555
In4 O97 2.215956 1_555
In5 O106 2.030503 1_555
In5 O34 2.173335 1_555
In5 O32 2.189203 1_555
In5 O104 2.189349 1_555
In5 O102 2.192404 1_555
In5 O30 2.203681 1_555
In6 O50 2.007607 1_554
In6 O52 2.147662 1_554
In6 O48 2.193215 1_554
In6 O120 2.220587 1_555
In6 O124 2.242127 1_555
In6 O122 2.253123 1_555
In7 O51 2.009165 1_554
In7 O53 2.152831 1_554
In7 O49 2.184850 1_554
In7 O121 2.227362 1_555
In7 O123 2.245116 1_555
In7 O125 2.255250 1_555
In8 O58 2.020724 1_555
In8 O56 2.162394 1_555
In8 O54 2.192407 1_555
In8 O128 2.193717 1_555
In8 O126 2.205338 1_555
In8 O130 2.247391 1_555
In9 O59 2.021603 1_555
In9 O131 2.040015 1_555
In9 O57 2.185815 1_555
In9 O127 2.218358 1_555
In9 O129 2.322947 1_555
In9 O55 2.357861 1_555
In10 O61 1.994115 1_555
In10 O133 2.054357 1_555
In10 O63 2.205245 1_555
In10 O137 2.232770 1_555
In10 O65 2.252188 1_555
In10 O135 2.311119 1_555
In11 O66 2.010354 1_555
In11 O138 2.029494 1_555
In11 O140 2.195323 1_555
In11 O142 2.241235 1_555
In11 O70 2.241362 1_555
In11 O68 2.292375 1_555
O0 Si0 1.636889 1_555
O0 Sc0 1.945650 1_545
O1 Si1 1.626081 1_545
O1 Sc1 1.956950 1_545
O2 S0 1.463229 1_555
O2 Sc1 2.119592 1_555
O3 S1 1.473598 1_555
O3 Sc0 2.155328 1_655
O4 S3 1.455107 1_555
O4 Sc1 2.207693 1_545
O5 S2 1.458592 1_555
O5 Sc0 2.229374 1_645
O6 Si2 1.663635 1_555
O6 Sc2 1.924735 1_555
O7 Si3 1.647668 1_555
O7 Sc3 1.931330 1_555
O8 S5 1.469318 1_555
O8 Sc3 2.149426 1_565
O9 S4 1.467833 1_655
O9 Sc2 2.177527 1_665
O10 S6 1.487590 1_545
O10 Sc3 2.091943 1_555
O11 S7 1.474621 1_545
O11 Sc2 2.081161 1_655
O12 S6 1.475516 1_555
O13 S7 1.481663 1_555
O14 Si2 1.625357 1_555
O15 Si3 1.619326 1_555
O16 S4 1.478855 1_555
O17 S5 1.475059 1_555
O18 S0 1.492228 1_555
O19 S1 1.483212 1_555
O20 S2 1.482090 1_455
O21 S3 1.491621 1_555
O22 Si0 1.643247 1_565
O23 Si1 1.625712 1_555
O24 Si4 1.649675 1_555
O24 Sc4 1.996330 1_555
O25 S8 1.483815 1_555
O26 S9 1.474697 1_555
O26 Sc4 2.115022 1_555
O27 S10 1.485647 1_555
O28 S11 1.479587 1_555
O28 Sc4 2.104687 1_555
O29 S12 1.483885 1_555
O30 S13 1.481835 1_555
O31 S14 1.473968 1_555
O31 Sc5 2.322385 1_555
O32 S15 1.479556 1_555
O33 S16 1.474672 1_555
O33 Sc5 2.123579 1_555
O34 S17 1.480024 1_555
O35 S18 1.478220 1_555
O35 Sc5 2.093783 1_555
O36 S17 1.474076 1_555
O36 Sc6 2.294405 1_554
O37 S18 1.480295 1_555
O37 Sc7 2.265521 1_554
O38 S13 1.475419 1_555
O38 Sc6 2.098214 1_554
O39 S14 1.481258 1_555
O39 Sc7 2.103261 1_554
O40 S15 1.475688 1_555
O40 Sc6 2.116301 1_554
O41 S16 1.476963 1_555
O41 Sc7 2.122211 1_554
O42 S9 1.474965 1_555
O42 Sc8 2.304039 1_555
O43 S10 1.484826 1_555
O43 Sc9 2.216814 1_555
O44 S11 1.461586 1_555
O44 Sc8 2.131453 1_555
O45 S12 1.485572 1_555
O45 Sc9 2.089451 1_555
O46 Si4 1.633927 1_555
O46 Sc8 1.871741 1_555
O47 S8 1.480077 1_555
O47 Sc9 2.083465 1_555
O48 S19 1.485186 1_555
O49 S20 1.490303 1_555
O50 Si5 1.640664 1_555
O51 Si6 1.639543 1_555
O52 S21 1.481416 1_555
O53 S22 1.485652 1_555
O54 S23 1.483380 1_555
O55 S24 1.469498 1_555
O56 S25 1.482986 1_555
O57 S26 1.465846 1_555
O58 Si7 1.630933 1_555
O59 Si8 1.638398 1_555
O60 Si7 1.638607 1_555
O60 Sc10 1.954885 1_555
O61 Si8 1.619293 1_555
O62 S23 1.486208 1_555
O62 Sc10 2.089818 1_555
O63 S24 1.490587 1_555
O64 S25 1.467205 1_555
O64 Sc10 2.178520 1_555
O65 S26 1.475473 1_555
O66 Si5 1.606434 1_555
O67 Si6 1.627039 1_555
O67 Sc11 1.961500 1_555
O68 S21 1.468195 1_555
O69 S22 1.454399 1_555
O69 Sc11 2.239503 1_555
O70 S19 1.479268 1_555
O71 S20 1.476296 1_555
O71 Sc11 2.174363 1_555
O72 Si7 1.650879 1_555
O72 Sc0 1.978188 1_555
O73 Si8 1.661107 1_555
O73 Sc1 1.949939 1_555
O74 S23 1.459538 1_555
O74 Sc1 2.267175 1_555
O75 S24 1.470554 1_555
O75 Sc0 2.248458 1_655
O76 S25 1.496416 1_555
O76 Sc0 2.160594 1_545
O77 S26 1.485148 1_555
O77 Sc1 2.204822 1_545
O78 Si5 1.646666 1_555
O78 Sc2 2.011157 1_555
O79 Si6 1.644329 1_555
O79 Sc3 2.008202 1_555
O80 S21 1.485056 1_555
O80 Sc2 2.253348 1_565
O81 S22 1.486620 1_555
O81 Sc3 2.230957 1_565
O82 S19 1.460301 1_555
O82 Sc3 2.293081 1_565
O83 S20 1.457981 1_555
O83 Sc2 2.336185 1_665
O84 Si4 1.642386 1_555
O85 S8 1.487578 1_555
O86 S9 1.497247 1_555
O87 S10 1.479567 1_555
O88 S11 1.483276 1_555
O89 S12 1.495908 1_555
O90 S13 1.487828 1_555
O91 S14 1.492535 1_555
O92 S15 1.492110 1_555
O93 S16 1.492038 1_555
O94 S17 1.493552 1_555
O95 S18 1.488261 1_555
O96 S6 1.490851 1_545
O96 Sc4 2.279218 1_555
O97 S7 1.491326 1_545
O98 Si2 1.635151 1_555
O98 Sc4 2.012036 1_555
O99 Si3 1.627765 1_555
O100 S5 1.492175 1_555
O100 Sc4 2.273873 1_555
O101 S4 1.493321 1_655
O102 S0 1.491304 1_555
O103 S1 1.500622 1_555
O103 Sc5 2.199932 1_555
O104 S3 1.493828 1_555
O105 S2 1.500190 1_555
O105 Sc5 2.210417 1_555
O106 Si0 1.624725 1_555
O107 Si1 1.673903 1_545
O107 Sc5 1.879010 1_555
O108 S19 1.500698 1_555
O108 Sc6 2.159413 1_555
O109 S20 1.505014 1_555
O109 Sc7 2.187136 1_555
O110 Si6 1.642727 1_555
O110 Sc6 1.898825 1_555
O111 Si5 1.645518 1_655
O111 Sc7 1.882610 1_555
O112 S21 1.503111 1_545
O112 Sc6 2.176502 1_555
O113 S22 1.500870 1_545
O113 Sc7 2.187935 1_555
O114 S23 1.493395 1_545
O114 Sc8 2.248290 1_555
O115 S24 1.509231 1_545
O115 Sc9 2.184244 1_555
O116 S25 1.481648 1_555
O116 Sc8 2.370779 1_555
O117 S26 1.507828 1_555
O117 Sc9 2.196751 1_555
O118 Si8 1.620384 1_555
O118 Sc8 1.946980 1_555
O119 Si7 1.638581 1_655
O119 Sc9 1.931959 1_555
O120 S17 1.491586 1_555
O121 S18 1.492794 1_555
O122 S14 1.491425 1_455
O123 S13 1.491738 1_555
O124 S15 1.491865 1_565
O125 S16 1.491565 1_565
O126 S9 1.498583 1_565
O127 S10 1.479122 1_565
O128 S11 1.506509 1_555
O129 S12 1.471899 1_555
O130 S8 1.487985 1_455
O131 Si4 1.651875 1_555
O132 Si0 1.651040 1_565
O132 Sc10 1.999876 1_555
O133 Si1 1.629762 1_555
O134 S0 1.474349 1_555
O134 Sc10 2.241670 1_555
O135 S1 1.470279 1_555
O136 S2 1.486744 1_455
O136 Sc10 2.218706 1_555
O137 S3 1.483983 1_555
O138 Si2 1.637925 1_555
O139 Si3 1.655883 1_555
O139 Sc11 1.953679 1_555
O140 S4 1.481263 1_555
O141 S5 1.496330 1_555
O141 Sc11 2.172209 1_555
O142 S6 1.471001 1_555
O143 S7 1.472738 1_555
O143 Sc11 2.215776 1_555
