# generated using pymatgen
data_Nb3AlSi3(SO8)3
_symmetry_space_group_name_H-M   'P 1'
_cell_length_a   8.79720699
_cell_length_b   8.81289415
_cell_length_c   22.69781644
_cell_angle_alpha   89.60055364
_cell_angle_beta   89.39279877
_cell_angle_gamma   119.82632474
_symmetry_Int_Tables_number   1
_chemical_formula_structural   Nb3AlSi3(SO8)3
_chemical_formula_sum   'Nb9 Al3 Si9 S9 O72'
_cell_volume   1526.39811929
_cell_formula_units_Z   3
loop_
 _symmetry_equiv_pos_site_id
 _symmetry_equiv_pos_as_xyz
  1  'x, y, z'
loop_
 _atom_site_type_symbol
 _atom_site_label
 _atom_site_symmetry_multiplicity
 _atom_site_fract_x
 _atom_site_fract_y
 _atom_site_fract_z
 _atom_site_occupancy
  Nb  Nb0  1  0.00920856  0.98748530  0.85593811  1
  Nb  Nb1  1  0.01581182  0.01661683  0.64567404  1
  Nb  Nb2  1  0.99831315  0.99478479  0.13964609  1
  Nb  Nb3  1  0.67864344  0.34016359  0.97411593  1
  Nb  Nb4  1  0.67003292  0.32279071  0.47341070  1
  Nb  Nb5  1  0.34355123  0.68922876  0.02639003  1
  Nb  Nb6  1  0.33516251  0.65135167  0.52390333  1
  Nb  Nb7  1  0.34424738  0.67025227  0.31094381  1
  Nb  Nb8  1  0.34094494  0.67007023  0.80593317  1
  Al  Al0  1  0.00504173  0.01386184  0.35797508  1
  Al  Al1  1  0.68374887  0.34607517  0.69593423  1
  Al  Al2  1  0.67474144  0.32541657  0.18532880  1
  Si  Si0  1  0.30520748  0.28827677  0.74925480  1
  Si  Si1  1  0.99184543  0.70313504  0.74776076  1
  Si  Si2  1  0.93881576  0.33365707  0.58786995  1
  Si  Si3  1  0.94255046  0.60075101  0.08716769  1
  Si  Si4  1  0.66577001  0.06092876  0.08795526  1
  Si  Si5  1  0.61546973  0.66950031  0.91584362  1
  Si  Si6  1  0.34039206  0.95472787  0.91555715  1
  Si  Si7  1  0.62956206  0.94552106  0.41510528  1
  Si  Si8  1  0.32572695  0.36777936  0.41535537  1
  S  S0  1  0.28776401  0.00995300  0.25140704  1
  S  S1  1  0.72161245  0.70838010  0.25077405  1
  S  S2  1  0.99176365  0.28209972  0.25104807  1
  S  S3  1  0.71701363  0.01006278  0.74858493  1
  S  S4  1  0.38569425  0.04734810  0.58383357  1
  S  S5  1  0.67080644  0.61649463  0.58476138  1
  S  S6  1  0.38999426  0.33665826  0.08684550  1
  S  S7  1  0.05388137  0.38122679  0.91605268  1
  S  S8  1  0.04999516  0.67765689  0.41483857  1
  O  O0  1  0.19728077  0.02802479  0.30356924  1
  O  O1  1  0.82862043  0.79177284  0.30199836  1
  O  O2  1  0.96681143  0.17033419  0.30322369  1
  O  O3  1  0.19514053  0.16333055  0.80565374  1
  O  O4  1  0.96786432  0.80391966  0.80608382  1
  O  O5  1  0.82069687  0.03596050  0.80149708  1
  O  O6  1  0.79869749  0.97581281  0.69591199  1
  O  O7  1  0.16785746  0.19902831  0.69190688  1
  O  O8  1  0.02615876  0.83786715  0.69162677  1
  O  O9  1  0.79949637  0.82411401  0.19724668  1
  O  O10  1  0.03031981  0.20757097  0.19811962  1
  O  O11  1  0.17731300  0.97749349  0.19835937  1
  O  O12  1  0.83808727  0.35421146  0.64216092  1
  O  O13  1  0.48841791  0.12308218  0.63541234  1
  O  O14  1  0.63216495  0.50643678  0.63685750  1
  O  O15  1  0.85051024  0.49555190  0.14606057  1
  O  O16  1  0.62838341  0.13731648  0.14586569  1
  O  O17  1  0.49331998  0.36088017  0.13960126  1
  O  O18  1  0.45778140  0.29857277  0.03287495  1
  O  O19  1  0.82720108  0.52850673  0.02759812  1
  O  O20  1  0.70013393  0.17396656  0.02783426  1
  O  O21  1  0.46300518  0.15847667  0.52892989  1
  O  O22  1  0.69340165  0.53902957  0.53017732  1
  O  O23  1  0.82839813  0.31185107  0.52650497  1
  O  O24  1  0.51679715  0.68594400  0.97489312  1
  O  O25  1  0.15407285  0.45618314  0.96952712  1
  O  O26  1  0.30184977  0.83312657  0.97565747  1
  O  O27  1  0.52223849  0.82674461  0.47276242  1
  O  O28  1  0.29593796  0.46795619  0.47269094  1
  O  O29  1  0.15592380  0.70423186  0.46778531  1
  O  O30  1  0.12791636  0.63667309  0.36236122  1
  O  O31  1  0.49356136  0.85773222  0.35800797  1
  O  O32  1  0.36008053  0.50553819  0.35883437  1
  O  O33  1  0.13038795  0.49106638  0.86274661  1
  O  O34  1  0.36539704  0.85940624  0.85915306  1
  O  O35  1  0.49564015  0.63558984  0.85840930  1
  O  O36  1  0.02978337  0.82860784  0.40257624  1
  O  O37  1  0.81217110  0.96232653  0.39906682  1
  O  O38  1  0.16588682  0.18299844  0.40049747  1
  O  O39  1  0.02571721  0.20422491  0.90794715  1
  O  O40  1  0.16632175  0.97503492  0.90916615  1
  O  O41  1  0.80294808  0.84592742  0.90533024  1
  O  O42  1  0.96636877  0.16322170  0.59399259  1
  O  O43  1  0.20722499  0.03000423  0.58855299  1
  O  O44  1  0.82061066  0.79428616  0.59055974  1
  O  O45  1  0.97954706  0.80707102  0.09784625  1
  O  O46  1  0.83969757  0.03348257  0.09810324  1
  O  O47  1  0.20905198  0.17546671  0.09626437  1
  O  O48  1  0.68954255  0.15758573  0.73898796  1
  O  O49  1  0.48179143  0.29528075  0.73109867  1
  O  O50  1  0.82467159  0.51829305  0.74061825  1
  O  O51  1  0.68953311  0.53122035  0.24131912  1
  O  O52  1  0.83590808  0.30126780  0.24300829  1
  O  O53  1  0.46225656  0.16468993  0.24234624  1
  O  O54  1  0.64191343  0.50113314  0.92771551  1
  O  O55  1  0.87598172  0.36664508  0.92193097  1
  O  O56  1  0.50699356  0.14545990  0.92854091  1
  O  O57  1  0.64240142  0.13802087  0.42544784  1
  O  O58  1  0.50624365  0.36735901  0.43003449  1
  O  O59  1  0.87302321  0.51838081  0.42375172  1
  O  O60  1  0.35900454  0.48454299  0.07880695  1
  O  O61  1  0.13530633  0.62313076  0.07471887  1
  O  O62  1  0.50321316  0.86047454  0.07759580  1
  O  O63  1  0.36020334  0.87000005  0.57310786  1
  O  O64  1  0.50685578  0.63606118  0.57599327  1
  O  O65  1  0.13536424  0.50541055  0.57275419  1
  O  O66  1  0.30427150  0.84825371  0.25898900  1
  O  O67  1  0.54211987  0.69776638  0.25721346  1
  O  O68  1  0.14971744  0.46132840  0.25957368  1
  O  O69  1  0.31513591  0.47664289  0.75958609  1
  O  O70  1  0.17108405  0.69598799  0.76000663  1
  O  O71  1  0.54195527  0.84685250  0.75383803  1
loop_
_geom_bond_atom_site_label_1
_geom_bond_atom_site_label_2
_geom_bond_distance
_geom_bond_site_symmetry_2
Nb0 O4 1.865157 1_455
Nb0 O40 1.888505 1_555
Nb0 O41 1.947118 1_455
Nb0 O3 1.947813 1_565
Nb0 O39 2.195968 1_565
Nb0 O5 2.280455 1_465
Nb1 O7 1.840904 1_555
Nb1 O8 1.923410 1_545
Nb1 O42 1.945059 1_455
Nb1 O43 2.069875 1_555
Nb1 O6 2.083883 1_445
Nb1 O44 2.255139 1_445
Nb2 O45 1.848690 1_555
Nb2 O46 1.857223 1_565
Nb2 O47 1.986203 1_665
Nb2 O9 2.082779 1_555
Nb2 O11 2.135237 1_655
Nb2 O10 2.207892 1_665
Nb3 O54 1.915311 1_555
Nb3 O56 1.942943 1_555
Nb3 O19 1.959735 1_556
Nb3 O20 1.980687 1_556
Nb3 O55 2.005192 1_555
Nb3 O18 2.217673 1_556
Nb4 O57 1.879464 1_555
Nb4 O23 1.889476 1_555
Nb4 O58 1.946126 1_555
Nb4 O59 2.073369 1_555
Nb4 O21 2.074703 1_555
Nb4 O22 2.232540 1_555
Nb5 O26 1.876213 1_554
Nb5 O62 1.884604 1_555
Nb5 O24 1.922631 1_554
Nb5 O61 1.945693 1_555
Nb5 O60 2.214812 1_555
Nb5 O25 2.310741 1_554
Nb6 O28 1.887440 1_555
Nb6 O65 1.913924 1_555
Nb6 O27 1.961926 1_555
Nb6 O64 1.983815 1_555
Nb6 O63 2.149851 1_555
Nb6 O29 2.256369 1_555
Nb7 O32 1.868287 1_555
Nb7 O31 1.868671 1_555
Nb7 O67 2.026638 1_555
Nb7 O30 2.111709 1_555
Nb7 O66 2.122958 1_555
Nb7 O68 2.148514 1_555
Nb8 O69 1.925907 1_555
Nb8 O70 1.934164 1_555
Nb8 O35 1.950314 1_555
Nb8 O34 1.991548 1_555
Nb8 O71 2.035165 1_555
Nb8 O33 2.144034 1_555
Al0 O38 1.762528 1_555
Al0 O37 1.774557 1_445
Al0 O2 2.001344 1_455
Al0 O36 2.018117 1_545
Al0 O0 2.035730 1_555
Al0 O1 2.215539 1_445
Al1 O50 1.745145 1_555
Al1 O49 1.779829 1_555
Al1 O12 1.790290 1_555
Al1 O48 1.944116 1_555
Al1 O14 2.150740 1_555
Al1 O13 2.330322 1_555
Al2 O16 1.752879 1_555
Al2 O15 1.754827 1_555
Al2 O52 2.026107 1_555
Al2 O17 2.061297 1_555
Al2 O53 2.112997 1_555
Al2 O51 2.173129 1_555
O0 S0 1.472930 1_555
O1 S1 1.457749 1_555
O2 S2 1.477842 1_555
O3 Si0 1.637766 1_555
O4 Si1 1.668157 1_555
O5 S3 1.465057 1_555
O6 S3 1.496472 1_565
O7 Si0 1.695644 1_555
O8 Si1 1.654867 1_455
O9 S1 1.501925 1_555
O10 S2 1.487849 1_455
O11 S0 1.492929 1_565
O12 Si2 1.573598 1_555
O13 S4 1.437375 1_555
O14 S5 1.449847 1_555
O15 Si3 1.585894 1_555
O16 Si4 1.585101 1_555
O17 S6 1.462631 1_555
O18 S6 1.469111 1_555
O19 Si3 1.631460 1_555
O20 Si4 1.618236 1_555
O21 S4 1.509023 1_555
O22 S5 1.477197 1_555
O23 Si2 1.663501 1_555
O24 Si5 1.635259 1_555
O25 S7 1.463254 1_555
O26 Si6 1.653080 1_555
O27 Si7 1.634444 1_555
O28 Si8 1.667529 1_555
O29 S8 1.475828 1_555
O30 S8 1.501366 1_555
O31 Si7 1.683938 1_555
O32 Si8 1.678151 1_555
O33 S7 1.473865 1_555
O34 Si6 1.608097 1_555
O35 Si5 1.619017 1_555
O36 S8 1.452585 1_555
O37 Si7 1.576490 1_555
O38 Si8 1.575671 1_555
O39 S7 1.465957 1_555
O40 Si6 1.635546 1_555
O41 Si5 1.621786 1_555
O42 Si2 1.641378 1_555
O43 S4 1.502440 1_555
O44 S5 1.470245 1_555
O45 Si3 1.699984 1_555
O46 Si4 1.681529 1_555
O47 S6 1.528624 1_555
O48 S3 1.451150 1_555
O49 Si0 1.574016 1_555
O50 Si1 1.571106 1_555
O51 S1 1.459790 1_555
O52 S2 1.475468 1_555
O53 S0 1.471521 1_555
O54 Si5 1.633253 1_555
O55 S7 1.509596 1_655
O56 Si6 1.620424 1_545
O57 Si7 1.661751 1_545
O58 Si8 1.627868 1_555
O59 S8 1.500192 1_655
O60 S6 1.468797 1_555
O61 Si3 1.628055 1_455
O62 Si4 1.649555 1_565
O63 S4 1.486668 1_565
O64 S5 1.550033 1_555
O65 Si2 1.665915 1_455
O66 S0 1.511426 1_565
O67 S1 1.539952 1_555
O68 S2 1.513229 1_455
O69 Si0 1.637076 1_555
O70 Si1 1.635653 1_455
O71 S3 1.498336 1_565
