# generated using pymatgen
data_NaScCl4
_symmetry_space_group_name_H-M   'P 1'
_cell_length_a   6.20482254
_cell_length_b   6.37509210
_cell_length_c   15.50500136
_cell_angle_alpha   90.00000000
_cell_angle_beta   90.00000000
_cell_angle_gamma   90.00000000
_symmetry_Int_Tables_number   1
_chemical_formula_structural   NaScCl4
_chemical_formula_sum   'Na4 Sc4 Cl16'
_cell_volume   613.32072030
_cell_formula_units_Z   4
loop_
 _symmetry_equiv_pos_site_id
 _symmetry_equiv_pos_as_xyz
  1  'x, y, z'
loop_
 _atom_site_type_symbol
 _atom_site_label
 _atom_site_symmetry_multiplicity
 _atom_site_fract_x
 _atom_site_fract_y
 _atom_site_fract_z
 _atom_site_occupancy
  Na  Na0  1  0.00000000  0.25000000  0.31956905  1
  Na  Na1  1  0.50000000  0.75000000  0.18043095  1
  Na  Na2  1  0.00000000  0.75000000  0.68043095  1
  Na  Na3  1  0.50000000  0.25000000  0.81956905  1
  Sc  Sc0  1  0.00000000  0.25000000  0.07073587  1
  Sc  Sc1  1  0.50000000  0.25000000  0.57073587  1
  Sc  Sc2  1  0.00000000  0.75000000  0.92926413  1
  Sc  Sc3  1  0.50000000  0.75000000  0.42926413  1
  Cl  Cl0  1  0.26601377  0.60333970  0.32120480  1
  Cl  Cl1  1  0.77477146  0.42535180  0.94956755  1
  Cl  Cl2  1  0.27477146  0.57464820  0.55043245  1
  Cl  Cl3  1  0.72522854  0.92535180  0.55043245  1
  Cl  Cl4  1  0.76601377  0.39666030  0.17879520  1
  Cl  Cl5  1  0.23398623  0.60333970  0.82120480  1
  Cl  Cl6  1  0.73398623  0.89666030  0.32120480  1
  Cl  Cl7  1  0.23398623  0.10333970  0.17879520  1
  Cl  Cl8  1  0.26601377  0.10333970  0.67879520  1
  Cl  Cl9  1  0.73398623  0.39666030  0.67879520  1
  Cl  Cl10  1  0.22522854  0.57464820  0.05043245  1
  Cl  Cl11  1  0.76601377  0.89666030  0.82120480  1
  Cl  Cl12  1  0.77477146  0.92535180  0.05043245  1
  Cl  Cl13  1  0.27477146  0.07464820  0.44956755  1
  Cl  Cl14  1  0.72522854  0.42535180  0.44956755  1
  Cl  Cl15  1  0.22522854  0.07464820  0.94956755  1
loop_
_geom_bond_atom_site_label_1
_geom_bond_atom_site_label_2
_geom_bond_distance
_geom_bond_site_symmetry_2
Cl0 Sc3 2.406073 1_555
Cl0 Na1 2.783199 1_555
Cl0 Na0 2.792688 1_555
Cl1 Sc2 2.517065 1_655
Cl1 Sc0 2.594658 1_656
Cl1 Na3 2.866902 1_555
Cl2 Sc1 2.517065 1_555
Cl2 Sc3 2.594658 1_555
Cl2 Na2 2.866902 1_555
Cl3 Sc1 2.517065 1_565
Cl3 Sc3 2.594658 1_555
Cl3 Na2 2.866902 1_655
Cl4 Sc0 2.406073 1_655
Cl4 Na0 2.783199 1_655
Cl4 Na1 2.792688 1_555
Cl5 Sc2 2.406073 1_555
Cl5 Na2 2.783199 1_555
Cl5 Na3 2.792688 1_555
Cl6 Sc3 2.406073 1_555
Cl6 Na1 2.783199 1_555
Cl6 Na0 2.792688 1_665
Cl7 Sc0 2.406073 1_555
Cl7 Na0 2.783199 1_555
Cl7 Na1 2.792688 1_545
Cl8 Sc1 2.406073 1_555
Cl8 Na3 2.783199 1_555
Cl8 Na2 2.792688 1_545
Cl9 Sc1 2.406073 1_555
Cl9 Na3 2.783199 1_555
Cl9 Na2 2.792688 1_655
Cl10 Sc0 2.517065 1_555
Cl10 Sc2 2.594658 1_554
Cl10 Na1 2.866902 1_555
Cl11 Sc2 2.406073 1_655
Cl11 Na2 2.783199 1_655
Cl11 Na3 2.792688 1_565
Cl12 Sc0 2.517065 1_665
Cl12 Sc2 2.594658 1_654
Cl12 Na1 2.866902 1_555
Cl13 Sc3 2.517065 1_545
Cl13 Sc1 2.594658 1_555
Cl13 Na0 2.866902 1_555
Cl14 Sc3 2.517065 1_555
Cl14 Sc1 2.594658 1_555
Cl14 Na0 2.866902 1_655
Cl15 Sc2 2.517065 1_545
Cl15 Sc0 2.594658 1_556
Cl15 Na3 2.866902 1_555
