# generated using pymatgen
data_NdSnPd
_symmetry_space_group_name_H-M   'P 1'
_cell_length_a   4.70378219
_cell_length_b   7.50901360
_cell_length_c   7.99734730
_cell_angle_alpha   90.00000000
_cell_angle_beta   89.99998000
_cell_angle_gamma   90.00000000
_symmetry_Int_Tables_number   1
_chemical_formula_structural   NdSnPd
_chemical_formula_sum   'Nd4 Sn4 Pd4'
_cell_volume   282.47242010
_cell_formula_units_Z   4
loop_
 _symmetry_equiv_pos_site_id
 _symmetry_equiv_pos_as_xyz
  1  'x, y, z'
loop_
 _atom_site_type_symbol
 _atom_site_label
 _atom_site_symmetry_multiplicity
 _atom_site_fract_x
 _atom_site_fract_y
 _atom_site_fract_z
 _atom_site_occupancy
  Nd  Nd0  1  0.25000000  0.48852198  0.29694149  1
  Nd  Nd1  1  0.75000000  0.51147802  0.70305851  1
  Nd  Nd2  1  0.25000000  0.98852198  0.20305951  1
  Nd  Nd3  1  0.75000000  0.01147802  0.79694049  1
  Sn  Sn0  1  0.25000000  0.81072049  0.58750253  1
  Sn  Sn1  1  0.75000000  0.68927951  0.08750253  1
  Sn  Sn2  1  0.25000000  0.31072049  0.91249747  1
  Sn  Sn3  1  0.75000000  0.18927951  0.41249747  1
  Pd  Pd0  1  0.75000000  0.30039594  0.08410968  1
  Pd  Pd1  1  0.25000000  0.19960406  0.58410968  1
  Pd  Pd2  1  0.75000000  0.80039594  0.41589032  1
  Pd  Pd3  1  0.25000000  0.69960406  0.91589032  1
loop_
_geom_bond_atom_site_label_1
_geom_bond_atom_site_label_2
_geom_bond_distance
_geom_bond_site_symmetry_2
Nd0 Pd1 3.159269 1_555
Nd0 Pd0 3.228630 1_555
Nd0 Pd0 3.228631 1_455
Nd0 Sn1 3.257207 1_555
Nd0 Sn1 3.257208 1_455
Nd0 Sn2 3.351907 1_554
Nd0 Sn0 3.354568 1_555
Nd0 Sn3 3.381495 1_455
Nd0 Sn3 3.381495 1_555
Nd0 Pd3 3.434956 1_554
Nd0 Pd2 3.452629 1_455
Nd0 Pd2 3.452630 1_555
Nd0 Nd2 3.828842 1_555
Nd0 Nd2 3.828842 1_545
Nd0 Nd1 4.013688 1_455
Nd0 Nd1 4.013689 1_555
Nd1 Pd2 3.159269 1_555
Nd1 Pd3 3.228630 1_555
Nd1 Pd3 3.228631 1_655
Nd1 Sn2 3.257207 1_555
Nd1 Sn2 3.257208 1_655
Nd1 Sn1 3.351907 1_556
Nd1 Sn3 3.354568 1_555
Nd1 Sn0 3.381495 1_655
Nd1 Sn0 3.381495 1_555
Nd1 Pd0 3.434956 1_556
Nd1 Pd1 3.452629 1_655
Nd1 Pd1 3.452630 1_555
Nd1 Nd3 3.828842 1_555
Nd1 Nd3 3.828842 1_565
Nd2 Pd3 3.159274 1_554
Nd2 Pd2 3.228626 1_455
Nd2 Pd2 3.228627 1_555
Nd2 Sn3 3.257203 1_465
Nd2 Sn3 3.257204 1_565
Nd2 Sn0 3.351899 1_555
Nd2 Sn2 3.354573 1_564
Nd2 Sn1 3.381497 1_555
Nd2 Sn1 3.381497 1_455
Nd2 Pd1 3.434949 1_565
Nd2 Pd0 3.452632 1_565
Nd2 Pd0 3.452632 1_465
Nd2 Nd3 4.013700 1_564
Nd2 Nd3 4.013702 1_464
Nd3 Pd0 3.159274 1_556
Nd3 Pd1 3.228626 1_655
Nd3 Pd1 3.228627 1_555
Nd3 Sn0 3.257203 1_645
Nd3 Sn0 3.257204 1_545
Nd3 Sn3 3.351899 1_555
Nd3 Sn1 3.354573 1_546
Nd3 Sn2 3.381497 1_555
Nd3 Sn2 3.381497 1_655
Nd3 Pd2 3.434949 1_545
Nd3 Pd3 3.452632 1_545
Nd3 Pd3 3.452632 1_645
Pd0 Sn2 2.724151 1_654
Pd0 Sn2 2.724152 1_554
Pd0 Sn3 2.755589 1_555
Pd0 Sn1 2.920258 1_555
Pd1 Sn3 2.724151 1_555
Pd1 Sn3 2.724152 1_455
Pd1 Sn2 2.755589 1_555
Pd1 Sn0 2.920258 1_545
Pd2 Sn0 2.724151 1_555
Pd2 Sn0 2.724152 1_655
Pd2 Sn1 2.755589 1_555
Pd2 Sn3 2.920258 1_565
Pd3 Sn1 2.724151 1_456
Pd3 Sn1 2.724152 1_556
Pd3 Sn0 2.755589 1_555
Pd3 Sn2 2.920258 1_555
