# generated using pymatgen
data_Yb4MgTi2O10
_symmetry_space_group_name_H-M   'P 1'
_cell_length_a   5.29881448
_cell_length_b   6.35455385
_cell_length_c   7.47028285
_cell_angle_alpha   71.59214713
_cell_angle_beta   92.04700351
_cell_angle_gamma   71.53420336
_symmetry_Int_Tables_number   1
_chemical_formula_structural   Yb4MgTi2O10
_chemical_formula_sum   'Yb4 Mg1 Ti2 O10'
_cell_volume   223.78812142
_cell_formula_units_Z   1
loop_
 _symmetry_equiv_pos_site_id
 _symmetry_equiv_pos_as_xyz
  1  'x, y, z'
loop_
 _atom_site_type_symbol
 _atom_site_label
 _atom_site_symmetry_multiplicity
 _atom_site_fract_x
 _atom_site_fract_y
 _atom_site_fract_z
 _atom_site_occupancy
  Yb  Yb0  1  0.84837985  0.51113532  0.86341338  1
  Yb  Yb1  1  0.69888974  0.69402681  0.30362944  1
  Yb  Yb2  1  0.27317543  0.52654576  0.51127306  1
  Yb  Yb3  1  0.38883190  0.22917614  0.25149173  1
  Mg  Mg0  1  0.47739290  0.06478270  0.82205394  1
  Ti  Ti0  1  0.98909621  0.03070802  0.53271747  1
  Ti  Ti1  1  0.06395268  0.91083563  0.04784961  1
  O  O0  1  0.78708673  0.79681083  0.99129355  1
  O  O1  1  0.32114158  0.88455314  0.42828688  1
  O  O2  1  0.89925127  0.72666864  0.58254611  1
  O  O3  1  0.55771448  0.35947392  0.78532932  1
  O  O4  1  0.32428616  0.62998017  0.18820408  1
  O  O5  1  0.01899270  0.33108370  0.40523006  1
  O  O6  1  0.60985148  0.16680815  0.55554453  1
  O  O7  1  0.17317852  0.94511599  0.77272405  1
  O  O8  1  0.20531060  0.16413370  0.00337748  1
  O  O9  1  0.84747576  0.01600637  0.22601930  1
loop_
_geom_bond_atom_site_label_1
_geom_bond_atom_site_label_2
_geom_bond_distance
_geom_bond_site_symmetry_2
Mg0 O0 1.978110 1_545
Mg0 O3 1.987945 1_555
Mg0 O7 2.055132 1_545
Mg0 O8 2.101165 1_556
Mg0 O6 2.109393 1_555
O0 Ti1 1.917869 1_656
O0 Yb0 2.248881 1_555
O0 Yb1 2.323317 1_556
O1 Ti0 2.021711 1_465
O1 Yb2 2.260813 1_555
O1 Yb3 2.318080 1_565
O1 Yb1 2.376873 1_555
O2 Ti0 2.058904 1_565
O2 Yb2 2.175609 1_655
O2 Yb0 2.193209 1_555
O2 Yb1 2.401238 1_555
O3 Yb0 2.207341 1_555
O3 Yb2 2.232594 1_555
O4 Ti1 1.828311 1_555
O4 Yb1 2.336727 1_555
O4 Yb2 2.342556 1_555
O4 Yb3 2.345955 1_555
O5 Ti0 1.905176 1_455
O5 Yb1 2.257572 1_455
O5 Yb3 2.324944 1_555
O5 Yb2 2.364165 1_555
O6 Ti0 1.957548 1_555
O6 Yb2 2.326933 1_555
O6 Yb3 2.373845 1_555
O7 Ti0 1.839818 1_465
O7 Ti1 2.118639 1_556
O8 Ti1 1.925101 1_545
O8 Yb3 2.271905 1_555
O8 Yb0 2.300711 1_454
O9 Ti1 1.928506 1_645
O9 Yb1 2.333708 1_545
O9 Ti0 2.424431 1_555
O9 Yb3 2.426469 1_555
