# generated using pymatgen
data_Sr2LuBiO6
_symmetry_space_group_name_H-M   'P 1'
_cell_length_a   6.00731800
_cell_length_b   5.90670800
_cell_length_c   10.28366666
_cell_angle_alpha   54.84870749
_cell_angle_beta   90.00000000
_cell_angle_gamma   90.00000000
_symmetry_Int_Tables_number   1
_chemical_formula_structural   Sr2LuBiO6
_chemical_formula_sum   'Sr4 Lu2 Bi2 O12'
_cell_volume   298.35504975
_cell_formula_units_Z   2
loop_
 _symmetry_equiv_pos_site_id
 _symmetry_equiv_pos_as_xyz
  1  'x, y, z'
loop_
 _atom_site_type_symbol
 _atom_site_label
 _atom_site_symmetry_multiplicity
 _atom_site_fract_x
 _atom_site_fract_y
 _atom_site_fract_z
 _atom_site_occupancy
  Sr  Sr0  1  0.45910700  0.25940300  0.75024300  1
  Sr  Sr1  1  0.95910700  0.74059700  0.74975700  1
  Sr  Sr2  1  0.04089300  0.25940300  0.25024300  1
  Sr  Sr3  1  0.54089300  0.74059700  0.24975700  1
  Lu  Lu0  1  0.50000000  0.50000000  0.00000000  1
  Lu  Lu1  1  0.00000000  0.50000000  0.50000000  1
  Bi  Bi0  1  0.00000000  0.00000000  0.00000000  1
  Bi  Bi1  1  0.50000000  0.00000000  0.50000000  1
  O  O0  1  0.70554000  0.66491300  0.54571900  1
  O  O1  1  0.20554000  0.33508700  0.95428100  1
  O  O2  1  0.29446000  0.33508700  0.45428100  1
  O  O3  1  0.79446000  0.66491300  0.04571900  1
  O  O4  1  0.21112900  0.75073300  0.54637700  1
  O  O5  1  0.71112900  0.24926700  0.95362300  1
  O  O6  1  0.78887100  0.24926700  0.45362300  1
  O  O7  1  0.28887100  0.75073300  0.04637700  1
  O  O8  1  0.02869100  0.15974600  0.75345200  1
  O  O9  1  0.52869100  0.84025400  0.74654800  1
  O  O10  1  0.97130900  0.84025400  0.24654800  1
  O  O11  1  0.47130900  0.15974600  0.25345200  1
loop_
_geom_bond_atom_site_label_1
_geom_bond_atom_site_label_2
_geom_bond_distance
_geom_bond_site_symmetry_2
Lu0 O1 2.196888 1_554
Lu0 O3 2.196888 1_555
Lu0 O11 2.197847 1_555
Lu0 O9 2.197847 1_554
Lu0 O7 2.200635 1_555
Lu0 O5 2.200635 1_554
Lu1 O2 2.196888 1_555
Lu1 O0 2.196888 1_455
Lu1 O8 2.197847 1_555
Lu1 O10 2.197847 1_455
Lu1 O4 2.200635 1_555
Lu1 O6 2.200635 1_455
Bi0 O3 2.142800 1_445
Bi0 O1 2.142800 1_554
Bi0 O8 2.143279 1_554
Bi0 O10 2.143279 1_445
Bi0 O7 2.144319 1_545
Bi0 O5 2.144319 1_454
Bi1 O0 2.142800 1_545
Bi1 O2 2.142800 1_555
Bi1 O9 2.143279 1_545
Bi1 O11 2.143279 1_555
Bi1 O4 2.144319 1_545
Bi1 O6 2.144319 1_555
O0 Sr0 2.559594 1_555
O0 Sr1 2.828948 1_555
O0 Sr3 2.979057 1_555
O1 Sr1 2.559594 1_455
O1 Sr0 2.828948 1_555
O1 Sr2 2.979057 1_556
O2 Sr3 2.559594 1_555
O2 Sr2 2.828948 1_555
O2 Sr0 2.979057 1_555
O3 Sr2 2.559594 1_655
O3 Sr3 2.828948 1_555
O3 Sr1 2.979057 1_554
O4 Sr1 2.554577 1_455
O4 Sr0 2.833888 1_555
O4 Sr2 2.968408 1_565
O5 Sr0 2.554577 1_555
O5 Sr1 2.833888 1_555
O5 Sr3 2.968408 1_546
O6 Sr2 2.554577 1_655
O6 Sr3 2.833888 1_555
O6 Sr1 2.968408 1_545
O7 Sr3 2.554577 1_555
O7 Sr2 2.833888 1_555
O7 Sr0 2.968408 1_564
O8 Sr1 2.532596 1_445
O8 Sr0 2.647789 1_555
O9 Sr0 2.532596 1_565
O9 Sr1 2.647789 1_555
O10 Sr2 2.532596 1_665
O10 Sr3 2.647789 1_555
O11 Sr3 2.532596 1_545
O11 Sr2 2.647789 1_555
