# generated using pymatgen
data_Na3LaTaSi2PO12
_symmetry_space_group_name_H-M   'P 1'
_cell_length_a   16.44168376
_cell_length_b   28.26737763
_cell_length_c   9.18576994
_cell_angle_alpha   90.00000000
_cell_angle_beta   125.89811732
_cell_angle_gamma   90.00000000
_symmetry_Int_Tables_number   1
_chemical_formula_structural   Na3LaTaSi2PO12
_chemical_formula_sum   'Na36 La12 Ta12 Si24 P12 O144'
_cell_volume   3458.31899213
_cell_formula_units_Z   12
loop_
 _symmetry_equiv_pos_site_id
 _symmetry_equiv_pos_as_xyz
  1  'x, y, z'
loop_
 _atom_site_type_symbol
 _atom_site_label
 _atom_site_symmetry_multiplicity
 _atom_site_fract_x
 _atom_site_fract_y
 _atom_site_fract_z
 _atom_site_occupancy
  Na  Na0  1  0.24659414  0.25748381  0.99680130  1
  Na  Na1  1  0.23818327  0.58824776  0.00276994  1
  Na  Na2  1  0.23752222  0.92101367  0.00076358  1
  Na  Na3  1  0.74659414  0.24251619  0.49680130  1
  Na  Na4  1  0.73752222  0.57898633  0.50076358  1
  Na  Na5  1  0.73818327  0.91175224  0.50276994  1
  Na  Na6  1  0.73818327  0.08824776  0.00276994  1
  Na  Na7  1  0.73752222  0.42101367  0.00076358  1
  Na  Na8  1  0.74659414  0.75748381  0.99680130  1
  Na  Na9  1  0.23752222  0.07898633  0.50076358  1
  Na  Na10  1  0.23818327  0.41175224  0.50276994  1
  Na  Na11  1  0.24659414  0.74251619  0.49680130  1
  Na  Na12  1  0.49393005  0.02982558  0.75794647  1
  Na  Na13  1  0.49664427  0.36388789  0.76561604  1
  Na  Na14  1  0.49438958  0.69659772  0.75907591  1
  Na  Na15  1  0.49438958  0.30340228  0.25907591  1
  Na  Na16  1  0.49664427  0.63611211  0.26561604  1
  Na  Na17  1  0.49393005  0.97017442  0.25794647  1
  Na  Na18  1  0.99438958  0.19659772  0.75907591  1
  Na  Na19  1  0.99393005  0.52982558  0.75794647  1
  Na  Na20  1  0.99664427  0.86388789  0.76561604  1
  Na  Na21  1  0.99664427  0.13611211  0.26561604  1
  Na  Na22  1  0.99393005  0.47017442  0.25794647  1
  Na  Na23  1  0.99438958  0.80340228  0.25907591  1
  Na  Na24  1  0.82316624  0.64345255  0.20363063  1
  Na  Na25  1  0.82221868  0.97628937  0.20636417  1
  Na  Na26  1  0.18766882  0.30477789  0.28789780  1
  Na  Na27  1  0.18766882  0.69522211  0.78789780  1
  Na  Na28  1  0.82221868  0.02371063  0.70636417  1
  Na  Na29  1  0.82316624  0.35654745  0.70363063  1
  Na  Na30  1  0.32316624  0.14345255  0.20363063  1
  Na  Na31  1  0.32221868  0.47628937  0.20636417  1
  Na  Na32  1  0.68766882  0.80477789  0.28789780  1
  Na  Na33  1  0.68766882  0.19522211  0.78789780  1
  Na  Na34  1  0.32221868  0.52371063  0.70636417  1
  Na  Na35  1  0.32316624  0.85654745  0.70363063  1
  La  La0  1  0.90161882  0.25164577  0.95498872  1
  La  La1  1  0.88956522  0.58396755  0.92468240  1
  La  La2  1  0.88952415  0.91491765  0.93140295  1
  La  La3  1  0.88952415  0.08508235  0.43140295  1
  La  La4  1  0.88956522  0.41603245  0.42468240  1
  La  La5  1  0.90161882  0.74835423  0.45498872  1
  La  La6  1  0.38956522  0.08396755  0.92468240  1
  La  La7  1  0.38952415  0.41491765  0.93140295  1
  La  La8  1  0.40161882  0.75164577  0.95498872  1
  La  La9  1  0.40161882  0.24835423  0.45498872  1
  La  La10  1  0.38952415  0.58508235  0.43140295  1
  La  La11  1  0.38956522  0.91603245  0.42468240  1
  Ta  Ta0  1  0.10494505  0.24835098  0.56157743  1
  Ta  Ta1  1  0.10670745  0.58248481  0.56483173  1
  Ta  Ta2  1  0.10651029  0.91672775  0.56545480  1
  Ta  Ta3  1  0.10651029  0.08327225  0.06545480  1
  Ta  Ta4  1  0.10670745  0.41751519  0.06483173  1
  Ta  Ta5  1  0.10494505  0.75164902  0.06157743  1
  Ta  Ta6  1  0.60670745  0.08248481  0.56483173  1
  Ta  Ta7  1  0.60651029  0.41672775  0.56545480  1
  Ta  Ta8  1  0.60494505  0.74835098  0.56157743  1
  Ta  Ta9  1  0.60494505  0.25164902  0.06157743  1
  Ta  Ta10  1  0.60651029  0.58327225  0.06545480  1
  Ta  Ta11  1  0.60670745  0.91751519  0.06483173  1
  Si  Si0  1  0.34231085  0.29235026  0.74514755  1
  Si  Si1  1  0.34880776  0.62653286  0.76541879  1
  Si  Si2  1  0.34823903  0.95834494  0.75757566  1
  Si  Si3  1  0.64511194  0.30673808  0.74477918  1
  Si  Si4  1  0.64013466  0.63826824  0.73936106  1
  Si  Si5  1  0.64212219  0.97293397  0.74041602  1
  Si  Si6  1  0.64212219  0.02706603  0.24041602  1
  Si  Si7  1  0.64013466  0.36173176  0.23936106  1
  Si  Si8  1  0.64511194  0.69326192  0.24477918  1
  Si  Si9  1  0.34823903  0.04165506  0.25757566  1
  Si  Si10  1  0.34880776  0.37346714  0.26541879  1
  Si  Si11  1  0.34231085  0.70764974  0.24514755  1
  Si  Si12  1  0.84880776  0.12653286  0.76541879  1
  Si  Si13  1  0.84823903  0.45834494  0.75757566  1
  Si  Si14  1  0.84231085  0.79235026  0.74514755  1
  Si  Si15  1  0.14013466  0.13826824  0.73936106  1
  Si  Si16  1  0.14212219  0.47293397  0.74041602  1
  Si  Si17  1  0.14511194  0.80673808  0.74477918  1
  Si  Si18  1  0.14511194  0.19326192  0.24477918  1
  Si  Si19  1  0.14212219  0.52706603  0.24041602  1
  Si  Si20  1  0.14013466  0.86173176  0.23936106  1
  Si  Si21  1  0.84231085  0.20764974  0.24514755  1
  Si  Si22  1  0.84823903  0.54165506  0.25757566  1
  Si  Si23  1  0.84880776  0.87346714  0.26541879  1
  P  P0  1  0.01753120  0.31843843  0.75821812  1
  P  P1  1  0.01551480  0.64991521  0.74946446  1
  P  P2  1  0.01480774  0.98612242  0.75114970  1
  P  P3  1  0.01480774  0.01387758  0.25114970  1
  P  P4  1  0.01551480  0.35008479  0.24946446  1
  P  P5  1  0.01753120  0.68156157  0.25821812  1
  P  P6  1  0.51551480  0.14991521  0.74946446  1
  P  P7  1  0.51480774  0.48612242  0.75114970  1
  P  P8  1  0.51753120  0.81843843  0.75821812  1
  P  P9  1  0.51753120  0.18156157  0.25821812  1
  P  P10  1  0.51480774  0.51387758  0.25114970  1
  P  P11  1  0.51551480  0.85008479  0.24946446  1
  O  O0  1  0.13811531  0.19847711  0.74200299  1
  O  O1  1  0.14080432  0.53272595  0.75131405  1
  O  O2  1  0.14316427  0.86571063  0.75173344  1
  O  O3  1  0.83618701  0.18385258  0.75256930  1
  O  O4  1  0.84261345  0.51499709  0.74187518  1
  O  O5  1  0.83789154  0.84977123  0.74339307  1
  O  O6  1  0.83789154  0.15022877  0.24339307  1
  O  O7  1  0.84261345  0.48500291  0.24187518  1
  O  O8  1  0.83618701  0.81614742  0.25256930  1
  O  O9  1  0.14316427  0.13428937  0.25173344  1
  O  O10  1  0.14080432  0.46727405  0.25131405  1
  O  O11  1  0.13811531  0.80152289  0.24200299  1
  O  O12  1  0.64080432  0.03272595  0.75131405  1
  O  O13  1  0.64316427  0.36571063  0.75173344  1
  O  O14  1  0.63811531  0.69847711  0.74200299  1
  O  O15  1  0.34261345  0.01499709  0.74187518  1
  O  O16  1  0.33789154  0.34977123  0.74339307  1
  O  O17  1  0.33618701  0.68385258  0.75256930  1
  O  O18  1  0.33618701  0.31614742  0.25256930  1
  O  O19  1  0.33789154  0.65022877  0.24339307  1
  O  O20  1  0.34261345  0.98500291  0.24187518  1
  O  O21  1  0.63811531  0.30152289  0.24200299  1
  O  O22  1  0.64316427  0.63428937  0.25173344  1
  O  O23  1  0.64080432  0.96727405  0.25131405  1
  O  O24  1  0.44902005  0.17280465  0.56381213  1
  O  O25  1  0.44609859  0.51166647  0.57361677  1
  O  O26  1  0.45173987  0.84766545  0.59105868  1
  O  O27  1  0.56747609  0.18928841  0.90176729  1
  O  O28  1  0.56930523  0.52405648  0.91155498  1
  O  O29  1  0.57755486  0.85319987  0.92958280  1
  O  O30  1  0.57755486  0.14680013  0.42958280  1
  O  O31  1  0.56930523  0.47594352  0.41155498  1
  O  O32  1  0.56747609  0.81071159  0.40176729  1
  O  O33  1  0.45173987  0.15233455  0.09105868  1
  O  O34  1  0.44609859  0.48833353  0.07361677  1
  O  O35  1  0.44902005  0.82719535  0.06381213  1
  O  O36  1  0.94609859  0.01166647  0.57361677  1
  O  O37  1  0.95173987  0.34766545  0.59105868  1
  O  O38  1  0.94902005  0.67280465  0.56381213  1
  O  O39  1  0.06930523  0.02405648  0.91155498  1
  O  O40  1  0.07755486  0.35319987  0.92958280  1
  O  O41  1  0.06747609  0.68928841  0.90176729  1
  O  O42  1  0.06747609  0.31071159  0.40176729  1
  O  O43  1  0.07755486  0.64680013  0.42958280  1
  O  O44  1  0.06930523  0.97594352  0.41155498  1
  O  O45  1  0.94902005  0.32719535  0.06381213  1
  O  O46  1  0.95173987  0.65233455  0.09105868  1
  O  O47  1  0.94609859  0.98833353  0.07361677  1
  O  O48  1  0.24833540  0.26857418  0.74097536  1
  O  O49  1  0.25475880  0.60049811  0.75748092  1
  O  O50  1  0.25275990  0.93430926  0.75145837  1
  O  O51  1  0.74102788  0.28882482  0.75184779  1
  O  O52  1  0.73286633  0.61986168  0.74274161  1
  O  O53  1  0.73881008  0.95947397  0.74467473  1
  O  O54  1  0.73881008  0.04052603  0.24467473  1
  O  O55  1  0.73286633  0.38013832  0.24274161  1
  O  O56  1  0.74102788  0.71117518  0.25184779  1
  O  O57  1  0.25275990  0.06569074  0.25145837  1
  O  O58  1  0.25475880  0.39950189  0.25748092  1
  O  O59  1  0.24833540  0.73142582  0.24097536  1
  O  O60  1  0.75475880  0.10049811  0.75748092  1
  O  O61  1  0.75275990  0.43430926  0.75145837  1
  O  O62  1  0.74833540  0.76857418  0.74097536  1
  O  O63  1  0.23286633  0.11986168  0.74274161  1
  O  O64  1  0.23881008  0.45947397  0.74467473  1
  O  O65  1  0.24102788  0.78882482  0.75184779  1
  O  O66  1  0.24102788  0.21117518  0.25184779  1
  O  O67  1  0.23881008  0.54052603  0.24467473  1
  O  O68  1  0.23286633  0.88013832  0.24274161  1
  O  O69  1  0.74833540  0.23142582  0.24097536  1
  O  O70  1  0.75275990  0.56569074  0.25145837  1
  O  O71  1  0.75475880  0.89950189  0.25748092  1
  O  O72  1  0.31990434  0.27909534  0.55441915  1
  O  O73  1  0.33768152  0.60491561  0.59448498  1
  O  O74  1  0.33957439  0.93270865  0.59471844  1
  O  O75  1  0.63256820  0.28579436  0.90883131  1
  O  O76  1  0.63447479  0.62062647  0.91712692  1
  O  O77  1  0.63828516  0.95309230  0.91901079  1
  O  O78  1  0.63828516  0.04690770  0.41901079  1
  O  O79  1  0.63447479  0.37937353  0.41712692  1
  O  O80  1  0.63256820  0.71420564  0.40883131  1
  O  O81  1  0.33957439  0.06729135  0.09471844  1
  O  O82  1  0.33768152  0.39508439  0.09448498  1
  O  O83  1  0.31990434  0.72090466  0.05441915  1
  O  O84  1  0.83768152  0.10491561  0.59448498  1
  O  O85  1  0.83957439  0.43270865  0.59471844  1
  O  O86  1  0.81990434  0.77909534  0.55441915  1
  O  O87  1  0.13447479  0.12062647  0.91712692  1
  O  O88  1  0.13828516  0.45309230  0.91901079  1
  O  O89  1  0.13256820  0.78579436  0.90883131  1
  O  O90  1  0.13256820  0.21420564  0.40883131  1
  O  O91  1  0.13828516  0.54690770  0.41901079  1
  O  O92  1  0.13447479  0.87937353  0.41712692  1
  O  O93  1  0.81990434  0.22090466  0.05441915  1
  O  O94  1  0.83957439  0.56729135  0.09471844  1
  O  O95  1  0.83768152  0.89508439  0.09448498  1
  O  O96  1  0.45822081  0.27042031  0.91364228  1
  O  O97  1  0.46347706  0.60567836  0.94342878  1
  O  O98  1  0.46524517  0.93706324  0.93905412  1
  O  O99  1  0.54428093  0.29024699  0.55788553  1
  O  O100  1  0.53519523  0.62545363  0.55584442  1
  O  O101  1  0.53954523  0.95768881  0.55941879  1
  O  O102  1  0.53954523  0.04231119  0.05941879  1
  O  O103  1  0.53519523  0.37454637  0.05584442  1
  O  O104  1  0.54428093  0.70975301  0.05788553  1
  O  O105  1  0.46524517  0.06293676  0.43905412  1
  O  O106  1  0.46347706  0.39432164  0.44342878  1
  O  O107  1  0.45822081  0.72957969  0.41364228  1
  O  O108  1  0.96347706  0.10567836  0.94342878  1
  O  O109  1  0.96524517  0.43706324  0.93905412  1
  O  O110  1  0.95822081  0.77042031  0.91364228  1
  O  O111  1  0.03519523  0.12545363  0.55584442  1
  O  O112  1  0.03954523  0.45768881  0.55941879  1
  O  O113  1  0.04428093  0.79024699  0.55788553  1
  O  O114  1  0.04428093  0.20975301  0.05788553  1
  O  O115  1  0.03954523  0.54231119  0.05941879  1
  O  O116  1  0.03519523  0.87454637  0.05584442  1
  O  O117  1  0.95822081  0.22957969  0.41364228  1
  O  O118  1  0.96524517  0.56293676  0.43905412  1
  O  O119  1  0.96347706  0.89432164  0.44342878  1
  O  O120  1  0.09515545  0.28928421  0.74906490  1
  O  O121  1  0.10407221  0.62544703  0.75698647  1
  O  O122  1  0.09592215  0.95748692  0.75108392  1
  O  O123  1  0.94922105  0.28374885  0.76911925  1
  O  O124  1  0.95596735  0.61218733  0.76630475  1
  O  O125  1  0.94891156  0.95222017  0.77078133  1
  O  O126  1  0.94891156  0.04777983  0.27078133  1
  O  O127  1  0.95596735  0.38781267  0.26630475  1
  O  O128  1  0.94922105  0.71625115  0.26911925  1
  O  O129  1  0.09592215  0.04251308  0.25108392  1
  O  O130  1  0.10407221  0.37455297  0.25698647  1
  O  O131  1  0.09515545  0.71071579  0.24906490  1
  O  O132  1  0.60407221  0.12544703  0.75698647  1
  O  O133  1  0.59592215  0.45748692  0.75108392  1
  O  O134  1  0.59515545  0.78928421  0.74906490  1
  O  O135  1  0.45596735  0.11218733  0.76630475  1
  O  O136  1  0.44891156  0.45222017  0.77078133  1
  O  O137  1  0.44922105  0.78374885  0.76911925  1
  O  O138  1  0.44922105  0.21625115  0.26911925  1
  O  O139  1  0.44891156  0.54777983  0.27078133  1
  O  O140  1  0.45596735  0.88781267  0.26630475  1
  O  O141  1  0.59515545  0.21071579  0.24906490  1
  O  O142  1  0.59592215  0.54251308  0.25108392  1
  O  O143  1  0.60407221  0.87455297  0.25698647  1
loop_
_geom_bond_atom_site_label_1
_geom_bond_atom_site_label_2
_geom_bond_distance
_geom_bond_site_symmetry_2
Na0 O120 2.354063 1_555
Na0 O48 2.387530 1_555
Na0 O18 2.526074 1_556
Na0 O0 2.558492 1_555
Na0 O66 2.731677 1_556
Na0 O138 2.990319 1_556
Na1 O121 2.286275 1_554
Na1 O49 2.447662 1_554
Na1 O1 2.454597 1_554
Na1 O19 2.528514 1_555
Na1 O67 2.594343 1_555
Na2 O122 2.341295 1_554
Na2 O2 2.433461 1_554
Na2 O50 2.474107 1_554
Na2 O68 2.545795 1_555
Na2 O20 2.583582 1_555
Na3 O141 2.354063 1_555
Na3 O69 2.387530 1_555
Na3 O3 2.526074 1_555
Na3 O21 2.558492 1_555
Na3 O51 2.731677 1_555
Na3 O123 2.990319 1_555
Na4 O142 2.341295 1_555
Na4 O22 2.433461 1_555
Na4 O70 2.474107 1_555
Na4 O52 2.545795 1_555
Na4 O4 2.583582 1_555
Na5 O143 2.286275 1_555
Na5 O71 2.447662 1_555
Na5 O23 2.454597 1_555
Na5 O5 2.528514 1_555
Na5 O53 2.594343 1_555
Na6 O132 2.286275 1_554
Na6 O60 2.447662 1_554
Na6 O12 2.454597 1_554
Na6 O6 2.528514 1_555
Na6 O54 2.594343 1_555
Na7 O133 2.341295 1_554
Na7 O13 2.433461 1_554
Na7 O61 2.474107 1_554
Na7 O55 2.545795 1_555
Na7 O7 2.583582 1_555
Na8 O134 2.354063 1_555
Na8 O62 2.387530 1_555
Na8 O8 2.526074 1_556
Na8 O14 2.558492 1_555
Na8 O56 2.731677 1_556
Na8 O128 2.990319 1_556
Na9 O129 2.341295 1_555
Na9 O9 2.433461 1_555
Na9 O57 2.474107 1_555
Na9 O63 2.545795 1_555
Na9 O15 2.583582 1_555
Na10 O130 2.286275 1_555
Na10 O58 2.447662 1_555
Na10 O10 2.454597 1_555
Na10 O16 2.528514 1_555
Na10 O64 2.594343 1_555
Na11 O131 2.354063 1_555
Na11 O59 2.387530 1_555
Na11 O17 2.526074 1_555
Na11 O11 2.558492 1_555
Na11 O65 2.731677 1_555
Na11 O137 2.990319 1_555
Na12 O135 2.423214 1_555
Na12 O102 2.433155 1_556
Na12 O15 2.440579 1_555
Na12 O12 2.452450 1_555
Na12 O105 2.838837 1_555
Na12 O77 2.899828 1_545
Na13 O103 2.370298 1_556
Na13 O13 2.486489 1_555
Na13 O16 2.527649 1_555
Na13 O136 2.626111 1_555
Na13 O106 2.811354 1_555
Na13 O75 2.854892 1_555
Na14 O104 2.388453 1_556
Na14 O14 2.458907 1_555
Na14 O137 2.590247 1_555
Na14 O17 2.591691 1_555
Na14 O76 2.846599 1_555
Na15 O99 2.388453 1_555
Na15 O21 2.458907 1_555
Na15 O138 2.590247 1_555
Na15 O18 2.591691 1_555
Na15 O79 2.846599 1_555
Na16 O100 2.370298 1_555
Na16 O22 2.486489 1_555
Na16 O19 2.527649 1_555
Na16 O139 2.626111 1_555
Na16 O97 2.811354 1_554
Na16 O80 2.854892 1_555
Na17 O140 2.423214 1_555
Na17 O101 2.433155 1_555
Na17 O20 2.440579 1_555
Na17 O23 2.452450 1_555
Na17 O98 2.838837 1_554
Na17 O78 2.899828 1_565
Na18 O114 2.388453 1_656
Na18 O0 2.458907 1_655
Na18 O123 2.590247 1_555
Na18 O3 2.591691 1_555
Na18 O87 2.846599 1_655
Na19 O124 2.423214 1_555
Na19 O115 2.433155 1_656
Na19 O4 2.440579 1_555
Na19 O1 2.452450 1_655
Na19 O118 2.838837 1_555
Na19 O88 2.899828 1_655
Na20 O116 2.370298 1_656
Na20 O2 2.486489 1_655
Na20 O5 2.527649 1_555
Na20 O125 2.626111 1_555
Na20 O119 2.811354 1_555
Na20 O89 2.854892 1_655
Na21 O111 2.370298 1_655
Na21 O9 2.486489 1_655
Na21 O6 2.527649 1_555
Na21 O126 2.626111 1_555
Na21 O108 2.811354 1_554
Na21 O90 2.854892 1_655
Na22 O127 2.423214 1_555
Na22 O112 2.433155 1_655
Na22 O7 2.440579 1_555
Na22 O10 2.452450 1_655
Na22 O109 2.838837 1_554
Na22 O91 2.899828 1_655
Na23 O113 2.388453 1_655
Na23 O11 2.458907 1_655
Na23 O128 2.590247 1_555
Na23 O8 2.591691 1_555
Na23 O92 2.846599 1_655
Na24 O94 2.454598 1_555
Na24 O56 2.527083 1_555
Na24 O70 2.638407 1_555
Na24 O76 2.718938 1_554
Na24 O128 2.725788 1_555
Na24 O38 2.808592 1_555
Na24 O46 2.857383 1_555
Na25 O54 2.422313 1_565
Na25 O95 2.587719 1_555
Na25 O71 2.602471 1_555
Na25 O77 2.679905 1_554
Na25 O126 2.706953 1_565
Na25 O36 2.910558 1_565
Na25 O47 2.943449 1_555
Na26 O72 2.237354 1_555
Na26 O130 2.324289 1_555
Na26 O18 2.664716 1_555
Na26 O42 2.729734 1_555
Na26 O66 2.867199 1_555
Na27 O83 2.237354 1_556
Na27 O121 2.324289 1_555
Na27 O17 2.664716 1_555
Na27 O41 2.729734 1_555
Na27 O65 2.867199 1_555
Na28 O53 2.422313 1_545
Na28 O84 2.587719 1_555
Na28 O60 2.602471 1_555
Na28 O78 2.679905 1_555
Na28 O125 2.706953 1_545
Na28 O47 2.910558 1_546
Na28 O36 2.943449 1_555
Na29 O85 2.454598 1_555
Na29 O51 2.527083 1_555
Na29 O61 2.638407 1_555
Na29 O79 2.718938 1_555
Na29 O123 2.725788 1_555
Na29 O45 2.808592 1_556
Na29 O37 2.857383 1_555
Na30 O81 2.454598 1_555
Na30 O66 2.527083 1_555
Na30 O57 2.638407 1_555
Na30 O87 2.718938 1_554
Na30 O138 2.725788 1_555
Na30 O24 2.808592 1_555
Na30 O33 2.857383 1_555
Na31 O67 2.422313 1_555
Na31 O82 2.587719 1_555
Na31 O58 2.602471 1_555
Na31 O88 2.679905 1_554
Na31 O139 2.706953 1_555
Na31 O25 2.910558 1_555
Na31 O34 2.943449 1_555
Na32 O86 2.237354 1_555
Na32 O143 2.324289 1_555
Na32 O8 2.664716 1_555
Na32 O32 2.729734 1_555
Na32 O56 2.867199 1_555
Na33 O93 2.237354 1_556
Na33 O132 2.324289 1_555
Na33 O3 2.664716 1_555
Na33 O27 2.729734 1_555
Na33 O51 2.867199 1_555
Na34 O64 2.422313 1_555
Na34 O73 2.587719 1_555
Na34 O49 2.602471 1_555
Na34 O91 2.679905 1_555
Na34 O136 2.706953 1_555
Na34 O34 2.910558 1_556
Na34 O25 2.943449 1_555
Na35 O74 2.454598 1_555
Na35 O65 2.527083 1_555
Na35 O50 2.638407 1_555
Na35 O92 2.718938 1_555
Na35 O137 2.725788 1_555
Na35 O35 2.808592 1_556
Na35 O26 2.857383 1_555
La0 O93 2.198494 1_556
La0 O114 2.279840 1_656
La0 O45 2.292114 1_556
La0 O51 2.404225 1_555
La0 O123 2.432727 1_555
La0 O3 2.437461 1_555
La1 O94 2.200646 1_556
La1 O46 2.298555 1_556
La1 O52 2.326154 1_555
La1 O115 2.328111 1_656
La1 O4 2.386746 1_555
La1 O124 2.409851 1_555
La2 O95 2.186863 1_556
La2 O116 2.266006 1_656
La2 O5 2.318438 1_555
La2 O47 2.335284 1_556
La2 O53 2.384211 1_555
La2 O125 2.435491 1_555
La3 O84 2.186863 1_555
La3 O111 2.266006 1_655
La3 O6 2.318438 1_555
La3 O36 2.335284 1_555
La3 O54 2.384211 1_555
La3 O126 2.435491 1_555
La4 O85 2.200646 1_555
La4 O37 2.298555 1_555
La4 O55 2.326154 1_555
La4 O112 2.328111 1_655
La4 O7 2.386746 1_555
La4 O127 2.409851 1_555
La5 O86 2.198494 1_555
La5 O113 2.279840 1_655
La5 O38 2.292114 1_555
La5 O56 2.404225 1_555
La5 O128 2.432727 1_555
La5 O8 2.437461 1_555
La6 O81 2.200646 1_556
La6 O33 2.298555 1_556
La6 O63 2.326154 1_555
La6 O102 2.328111 1_556
La6 O15 2.386746 1_555
La6 O135 2.409851 1_555
La7 O82 2.186863 1_556
La7 O103 2.266006 1_556
La7 O16 2.318438 1_555
La7 O34 2.335284 1_556
La7 O64 2.384211 1_555
La7 O136 2.435491 1_555
La8 O83 2.198494 1_556
La8 O104 2.279840 1_556
La8 O35 2.292114 1_556
La8 O65 2.404225 1_555
La8 O137 2.432727 1_555
La8 O17 2.437461 1_555
La9 O72 2.198494 1_555
La9 O99 2.279840 1_555
La9 O24 2.292114 1_555
La9 O66 2.404225 1_555
La9 O138 2.432727 1_555
La9 O18 2.437461 1_555
La10 O73 2.186863 1_555
La10 O100 2.266006 1_555
La10 O19 2.318438 1_555
La10 O25 2.335284 1_555
La10 O67 2.384211 1_555
La10 O139 2.435491 1_555
La11 O74 2.200646 1_555
La11 O26 2.298555 1_555
La11 O68 2.326154 1_555
La11 O101 2.328111 1_555
La11 O20 2.386746 1_555
La11 O140 2.409851 1_555
O0 Si15 1.702721 1_555
O0 Ta0 1.992941 1_555
O1 Si16 1.694014 1_555
O1 Ta1 2.025051 1_555
O2 Si17 1.669249 1_555
O2 Ta2 2.039980 1_555
O3 Si12 1.628978 1_555
O4 Si13 1.605683 1_555
O5 Si14 1.624423 1_555
O6 Si21 1.624423 1_555
O7 Si22 1.605683 1_555
O8 Si23 1.628978 1_555
O9 Si18 1.669249 1_555
O9 Ta3 2.039980 1_555
O10 Si19 1.694014 1_555
O10 Ta4 2.025051 1_555
O11 Si20 1.702721 1_555
O11 Ta5 1.992941 1_555
O12 Si5 1.694014 1_545
O12 Ta6 2.025051 1_555
O13 Si3 1.669249 1_555
O13 Ta7 2.039980 1_555
O14 Si4 1.702721 1_555
O14 Ta8 1.992941 1_555
O15 Si2 1.605683 1_545
O16 Si0 1.624423 1_555
O17 Si1 1.628978 1_555
O18 Si10 1.628978 1_555
O19 Si11 1.624423 1_555
O20 Si9 1.605683 1_565
O21 Si7 1.702721 1_555
O21 Ta9 1.992941 1_555
O22 Si8 1.669249 1_555
O22 Ta10 2.039980 1_555
O23 Si6 1.694014 1_565
O23 Ta11 2.025051 1_555
O24 P6 1.528315 1_555
O25 P7 1.515451 1_555
O26 P8 1.504193 1_555
O27 P6 1.588780 1_555
O27 Ta9 2.140401 1_556
O28 P7 1.604832 1_555
O28 Ta10 2.039719 1_556
O29 P8 1.611078 1_555
O29 Ta11 2.092871 1_556
O30 P9 1.611078 1_555
O30 Ta6 2.092871 1_555
O31 P10 1.604832 1_555
O31 Ta7 2.039719 1_555
O32 P11 1.588780 1_555
O32 Ta8 2.140401 1_555
O33 P9 1.504193 1_555
O34 P10 1.515451 1_555
O35 P11 1.528315 1_555
O36 P2 1.515451 1_645
O37 P0 1.504193 1_655
O38 P1 1.528315 1_655
O39 P2 1.604832 1_545
O39 Ta3 2.039719 1_556
O40 P0 1.611078 1_555
O40 Ta4 2.092871 1_556
O41 P1 1.588780 1_555
O41 Ta5 2.140401 1_556
O42 P4 1.588780 1_555
O42 Ta0 2.140401 1_555
O43 P5 1.611078 1_555
O43 Ta1 2.092871 1_555
O44 P3 1.604832 1_565
O44 Ta2 2.039719 1_555
O45 P4 1.528315 1_655
O46 P5 1.504193 1_655
O47 P3 1.515451 1_665
O48 Si0 1.664664 1_555
O48 Ta0 2.011114 1_555
O49 Si1 1.675055 1_555
O49 Ta1 2.065117 1_555
O50 Si2 1.680988 1_555
O50 Ta2 2.032331 1_555
O51 Si3 1.620965 1_555
O52 Si4 1.593977 1_555
O53 Si5 1.612622 1_555
O54 Si6 1.612622 1_555
O55 Si7 1.593977 1_555
O56 Si8 1.620965 1_555
O57 Si9 1.680988 1_555
O57 Ta3 2.032331 1_555
O58 Si10 1.675055 1_555
O58 Ta4 2.065117 1_555
O59 Si11 1.664664 1_555
O59 Ta5 2.011114 1_555
O60 Si12 1.675055 1_555
O60 Ta6 2.065117 1_555
O61 Si13 1.680988 1_555
O61 Ta7 2.032331 1_555
O62 Si14 1.664664 1_555
O62 Ta8 2.011114 1_555
O63 Si15 1.593977 1_555
O64 Si16 1.612622 1_555
O65 Si17 1.620965 1_555
O66 Si18 1.620965 1_555
O67 Si19 1.612622 1_555
O68 Si20 1.593977 1_555
O69 Si21 1.664664 1_555
O69 Ta9 2.011114 1_555
O70 Si22 1.680988 1_555
O70 Ta10 2.032331 1_555
O71 Si23 1.675055 1_555
O71 Ta11 2.065117 1_555
O72 Si0 1.608935 1_555
O73 Si1 1.592301 1_555
O74 Si2 1.591680 1_555
O75 Si3 1.740223 1_555
O75 Ta9 1.963118 1_556
O76 Si4 1.761238 1_555
O76 Ta10 1.979243 1_556
O77 Si5 1.769539 1_555
O77 Ta11 1.972480 1_556
O78 Si6 1.769539 1_555
O78 Ta6 1.972480 1_555
O79 Si7 1.761238 1_555
O79 Ta7 1.979243 1_555
O80 Si8 1.740223 1_555
O80 Ta8 1.963118 1_555
O81 Si9 1.591680 1_555
O82 Si10 1.592301 1_555
O83 Si11 1.608935 1_555
O84 Si12 1.592301 1_555
O85 Si13 1.591680 1_555
O86 Si14 1.608935 1_555
O87 Si15 1.761238 1_555
O87 Ta3 1.979243 1_556
O88 Si16 1.769539 1_555
O88 Ta4 1.972480 1_556
O89 Si17 1.740223 1_555
O89 Ta5 1.963118 1_556
O90 Si18 1.740223 1_555
O90 Ta0 1.963118 1_555
O91 Si19 1.769539 1_555
O91 Ta1 1.972480 1_555
O92 Si20 1.761238 1_555
O92 Ta2 1.979243 1_555
O93 Si21 1.608935 1_555
O94 Si22 1.591680 1_555
O95 Si23 1.592301 1_555
O96 Si0 1.718344 1_555
O96 Ta9 2.025706 1_556
O97 Si1 1.720635 1_555
O97 Ta10 2.024065 1_556
O98 Si2 1.755272 1_555
O98 Ta11 1.974490 1_556
O99 Si3 1.604800 1_555
O100 Si4 1.593440 1_555
O101 Si5 1.583062 1_555
O102 Si6 1.583062 1_555
O103 Si7 1.593440 1_555
O104 Si8 1.604800 1_555
O105 Si9 1.755272 1_555
O105 Ta6 1.974490 1_555
O106 Si10 1.720635 1_555
O106 Ta7 2.024065 1_555
O107 Si11 1.718344 1_555
O107 Ta8 2.025706 1_555
O108 Si12 1.720635 1_555
O108 Ta3 2.024065 1_656
O109 Si13 1.755272 1_555
O109 Ta4 1.974490 1_656
O110 Si14 1.718344 1_555
O110 Ta5 2.025706 1_656
O111 Si15 1.593440 1_555
O112 Si16 1.583062 1_555
O113 Si17 1.604800 1_555
O114 Si18 1.604800 1_555
O115 Si19 1.583062 1_555
O116 Si20 1.593440 1_555
O117 Si21 1.718344 1_555
O117 Ta0 2.025706 1_655
O118 Si22 1.755272 1_555
O118 Ta1 1.974490 1_655
O119 Si23 1.720635 1_555
O119 Ta2 2.024065 1_655
O120 P0 1.562353 1_555
O120 Ta0 2.157738 1_555
O121 P1 1.576454 1_555
O121 Ta1 2.163779 1_555
O122 P2 1.560384 1_555
O122 Ta2 2.147882 1_555
O123 P0 1.537819 1_655
O124 P1 1.515734 1_655
O125 P2 1.534237 1_655
O126 P3 1.534237 1_655
O127 P4 1.515734 1_655
O128 P5 1.537819 1_655
O129 P3 1.560384 1_555
O129 Ta3 2.147882 1_555
O130 P4 1.576454 1_555
O130 Ta4 2.163779 1_555
O131 P5 1.562353 1_555
O131 Ta5 2.157738 1_555
O132 P6 1.576454 1_555
O132 Ta6 2.163779 1_555
O133 P7 1.560384 1_555
O133 Ta7 2.147882 1_555
O134 P8 1.562353 1_555
O134 Ta8 2.157738 1_555
O135 P6 1.515734 1_555
O136 P7 1.534237 1_555
O137 P8 1.537819 1_555
O138 P9 1.537819 1_555
O139 P10 1.534237 1_555
O140 P11 1.515734 1_555
O141 P9 1.562353 1_555
O141 Ta9 2.157738 1_555
O142 P10 1.560384 1_555
O142 Ta10 2.147882 1_555
O143 P11 1.576454 1_555
O143 Ta11 2.163779 1_555
