# generated using pymatgen
data_Sr2Mg(WO4)2
_symmetry_space_group_name_H-M   'P 1'
_cell_length_a   5.41754506
_cell_length_b   5.53420037
_cell_length_c   8.42906857
_cell_angle_alpha   112.22723946
_cell_angle_beta   111.71952970
_cell_angle_gamma   80.94563073
_symmetry_Int_Tables_number   1
_chemical_formula_structural   Sr2Mg(WO4)2
_chemical_formula_sum   'Sr2 Mg1 W2 O8'
_cell_volume   217.28661095
_cell_formula_units_Z   1
loop_
 _symmetry_equiv_pos_site_id
 _symmetry_equiv_pos_as_xyz
  1  'x, y, z'
loop_
 _atom_site_type_symbol
 _atom_site_label
 _atom_site_symmetry_multiplicity
 _atom_site_fract_x
 _atom_site_fract_y
 _atom_site_fract_z
 _atom_site_occupancy
  Sr  Sr0  1  0.66622104  0.91603368  0.33246180  1
  Sr  Sr1  1  0.35651825  0.10640987  0.71510217  1
  Mg  Mg0  1  0.02048067  0.77080182  0.03967008  1
  W  W0  1  0.18397699  0.43388551  0.36789567  1
  W  W1  1  0.81972094  0.57009524  0.64140904  1
  O  O0  1  0.11467693  0.49631177  0.83804665  1
  O  O1  1  0.47606720  0.68092705  0.44844362  1
  O  O2  1  0.97175712  0.26656613  0.44754786  1
  O  O3  1  0.72215680  0.84134085  0.83898662  1
  O  O4  1  0.22723409  0.09539446  0.19365735  1
  O  O5  1  0.03187709  0.74835706  0.56829607  1
  O  O6  1  0.53474041  0.31935155  0.56837040  1
  O  O7  1  0.96981046  0.59976300  0.19455666  1
loop_
_geom_bond_atom_site_label_1
_geom_bond_atom_site_label_2
_geom_bond_distance
_geom_bond_site_symmetry_2
Mg0 O0 1.975102 1_554
Mg0 O3 1.975717 1_454
Mg0 O7 1.989416 1_455
Mg0 O4 1.989848 1_565
O0 W1 1.952889 1_455
O0 Sr1 2.422792 1_555
O1 W0 2.004409 1_555
O1 W1 2.154542 1_555
O1 Sr0 2.416512 1_555
O1 Sr1 2.758517 1_565
O2 W0 2.001695 1_655
O2 W1 2.157382 1_555
O2 Sr0 2.417162 1_545
O2 Sr1 2.769141 1_655
O3 W1 1.953635 1_555
O3 Sr1 2.424781 1_565
O4 W0 1.938083 1_555
O4 Sr0 2.467058 1_545
O5 W1 2.003795 1_455
O5 W0 2.217175 1_555
O5 Sr1 2.486357 1_565
O5 Sr0 2.576701 1_455
O6 W1 2.003180 1_555
O6 W0 2.218762 1_555
O6 Sr1 2.489056 1_555
O6 Sr0 2.575553 1_545
O7 W0 1.936110 1_655
O7 Sr0 2.467689 1_555
