# generated using pymatgen
data_GeBr2
_symmetry_space_group_name_H-M   'P 1'
_cell_length_a   8.93955089
_cell_length_b   7.00768775
_cell_length_c   12.91947796
_cell_angle_alpha   79.25991383
_cell_angle_beta   90.00000000
_cell_angle_gamma   90.00000000
_symmetry_Int_Tables_number   1
_chemical_formula_structural   GeBr2
_chemical_formula_sum   'Ge8 Br16'
_cell_volume   795.17057651
_cell_formula_units_Z   8
loop_
 _symmetry_equiv_pos_site_id
 _symmetry_equiv_pos_as_xyz
  1  'x, y, z'
loop_
 _atom_site_type_symbol
 _atom_site_label
 _atom_site_symmetry_multiplicity
 _atom_site_fract_x
 _atom_site_fract_y
 _atom_site_fract_z
 _atom_site_occupancy
  Ge  Ge0  1  0.87086729  0.27211777  0.00304934  1
  Ge  Ge1  1  0.37086729  0.22788223  -0.00304934  1
  Ge  Ge2  1  0.12913271  0.72788223  -0.00304934  1
  Ge  Ge3  1  0.62913271  0.77211777  0.00304934  1
  Ge  Ge4  1  0.62938869  0.22807813  0.49687913  1
  Ge  Ge5  1  0.12938869  0.27192187  0.50312087  1
  Ge  Ge6  1  0.37061131  0.77192187  0.50312087  1
  Ge  Ge7  1  0.87061131  0.72807813  0.49687913  1
  Br  Br0  1  0.92700757  0.33262542  0.62805422  1
  Br  Br1  1  0.42700757  0.16737458  0.37194578  1
  Br  Br2  1  0.07299243  0.66737458  0.37194578  1
  Br  Br3  1  0.57299243  0.83262542  0.62805422  1
  Br  Br4  1  0.66600760  0.40351243  0.11361413  1
  Br  Br5  1  0.16600760  0.09648757  0.88638587  1
  Br  Br6  1  0.33399240  0.59648757  0.88638587  1
  Br  Br7  1  0.83399240  0.90351243  0.11361413  1
  Br  Br8  1  0.57287986  0.16719021  0.87177224  1
  Br  Br9  1  0.07287986  0.33280979  0.12822776  1
  Br  Br10  1  0.42712014  0.83280979  0.12822776  1
  Br  Br11  1  0.92712014  0.66719021  0.87177224  1
  Br  Br12  1  0.83367186  0.09602476  0.38602593  1
  Br  Br13  1  0.33367186  0.40397524  0.61397407  1
  Br  Br14  1  0.16632814  0.90397524  0.61397407  1
  Br  Br15  1  0.66632814  0.59602476  0.38602593  1
loop_
_geom_bond_atom_site_label_1
_geom_bond_atom_site_label_2
_geom_bond_distance
_geom_bond_site_symmetry_2
Br0 Ge5 2.513024 1_655
Br0 Ge7 3.009226 1_555
Br1 Ge4 2.513024 1_555
Br1 Ge6 3.009226 1_545
Br2 Ge7 2.513024 1_455
Br2 Ge5 3.009226 1_555
Br3 Ge6 2.513024 1_555
Br3 Ge4 3.009226 1_565
Br4 Ge0 2.594673 1_555
Br4 Ge3 2.728765 1_555
Br5 Ge1 2.594673 1_556
Br5 Ge2 2.728765 1_546
Br6 Ge2 2.594673 1_556
Br6 Ge1 2.728765 1_556
Br7 Ge3 2.594673 1_555
Br7 Ge0 2.728765 1_565
Br8 Ge1 2.512766 1_556
Br8 Ge3 3.007354 1_546
Br9 Ge0 2.512766 1_455
Br9 Ge2 3.007354 1_555
Br10 Ge3 2.512766 1_555
Br10 Ge1 3.007354 1_565
Br11 Ge2 2.512766 1_656
Br11 Ge0 3.007354 1_556
Br12 Ge4 2.595458 1_555
Br12 Ge7 2.726215 1_545
Br13 Ge5 2.595458 1_555
Br13 Ge6 2.726215 1_555
Br14 Ge6 2.595458 1_555
Br14 Ge5 2.726215 1_565
Br15 Ge7 2.595458 1_555
Br15 Ge4 2.726215 1_555
