# generated using pymatgen
data_Mg17Al12
_symmetry_space_group_name_H-M   'P 1'
_cell_length_a   9.03824463
_cell_length_b   9.03824463
_cell_length_c   9.03824463
_cell_angle_alpha   109.47122063
_cell_angle_beta   109.47122063
_cell_angle_gamma   109.47122063
_symmetry_Int_Tables_number   1
_chemical_formula_structural   Mg17Al12
_chemical_formula_sum   'Mg17 Al12'
_cell_volume   568.36900268
_cell_formula_units_Z   1
loop_
 _symmetry_equiv_pos_site_id
 _symmetry_equiv_pos_as_xyz
  1  'x, y, z'
loop_
 _atom_site_type_symbol
 _atom_site_label
 _atom_site_symmetry_multiplicity
 _atom_site_fract_x
 _atom_site_fract_y
 _atom_site_fract_z
 _atom_site_occupancy
  Mg  Mg0  1  -0.00000000  -0.00000000  -0.00000000  1
  Mg  Mg1  1  0.65402652  0.00000000  0.00000000  1
  Mg  Mg2  1  0.00000000  0.65402652  -0.00000000  1
  Mg  Mg3  1  0.00000000  -0.00000000  0.65402652  1
  Mg  Mg4  1  0.34597348  0.34597348  0.34597348  1
  Mg  Mg5  1  0.39759328  0.68390268  -0.00000000  1
  Mg  Mg6  1  0.71369060  0.31609732  0.31609732  1
  Mg  Mg7  1  0.39759328  0.00000000  0.68390268  1
  Mg  Mg8  1  0.68390268  0.39759328  0.00000000  1
  Mg  Mg9  1  0.00000000  0.39759328  0.68390268  1
  Mg  Mg10  1  0.31609732  0.71369060  0.31609732  1
  Mg  Mg11  1  0.31609732  0.31609732  0.71369060  1
  Mg  Mg12  1  -0.00000000  0.68390268  0.39759328  1
  Mg  Mg13  1  0.68390268  0.00000000  0.39759328  1
  Mg  Mg14  1  0.60240672  0.60240672  0.28630940  1
  Mg  Mg15  1  0.28630940  0.60240672  0.60240672  1
  Mg  Mg16  1  0.60240672  0.28630940  0.60240672  1
  Al  Al0  1  0.36674665  0.18571754  0.00000000  1
  Al  Al1  1  0.18103012  0.81428246  0.81428246  1
  Al  Al2  1  0.36674665  -0.00000000  0.18571754  1
  Al  Al3  1  0.18571754  0.36674665  0.00000000  1
  Al  Al4  1  -0.00000000  0.36674665  0.18571754  1
  Al  Al5  1  0.81428246  0.18103012  0.81428246  1
  Al  Al6  1  0.81428246  0.81428246  0.18103012  1
  Al  Al7  1  0.00000000  0.18571754  0.36674665  1
  Al  Al8  1  0.18571754  0.00000000  0.36674665  1
  Al  Al9  1  0.63325335  0.63325335  0.81896988  1
  Al  Al10  1  0.81896988  0.63325335  0.63325335  1
  Al  Al11  1  0.63325335  0.81896988  0.63325335  1
loop_
_geom_bond_atom_site_label_1
_geom_bond_atom_site_label_2
_geom_bond_distance
_geom_bond_site_symmetry_2
Mg0 Mg1 3.126993 1_455
Mg0 Mg3 3.126993 1_554
Mg0 Mg2 3.126993 1_545
Mg0 Mg4 3.126993 1_555
Mg1 Mg5 3.019869 1_545
Mg1 Mg7 3.019869 1_554
Mg1 Mg6 3.019869 1_555
Mg2 Mg9 3.019869 1_554
Mg2 Mg8 3.019869 1_455
Mg5 Mg9 3.130435 1_554
Mg6 Mg9 3.106750 1_655
Mg6 Mg8 3.130435 1_555
Mg7 Mg8 3.130435 1_556
Mg10 Mg2 3.019869 1_555
Mg10 Mg7 3.106750 1_565
Mg10 Mg13 3.106750 1_565
Mg10 Mg14 3.130435 1_555
Mg10 Mg12 3.130435 1_555
Mg10 Mg5 3.130435 1_555
Mg10 Mg15 3.130435 1_555
Mg11 Mg3 3.019869 1_555
Mg11 Mg8 3.106750 1_556
Mg11 Mg5 3.106750 1_556
Mg11 Mg9 3.130435 1_555
Mg11 Mg15 3.130435 1_555
Mg11 Mg16 3.130435 1_555
Mg11 Mg7 3.130435 1_555
Mg12 Mg3 3.019869 1_565
Mg12 Mg15 3.106750 1_555
Mg12 Mg6 3.106750 1_455
Mg12 Mg14 3.130435 1_455
Mg12 Mg7 3.130435 1_565
Mg12 Mg8 3.130435 1_455
Mg13 Mg3 3.019869 1_655
Mg13 Mg16 3.106750 1_555
Mg13 Mg5 3.130435 1_545
Mg13 Mg14 3.130435 1_545
Mg13 Mg6 3.130435 1_555
Mg13 Mg9 3.130435 1_655
Mg14 Mg4 3.019869 1_555
Mg14 Mg8 3.106750 1_555
Mg14 Mg5 3.106750 1_555
Mg14 Mg6 3.130435 1_555
Mg15 Mg4 3.019869 1_555
Mg15 Mg9 3.106750 1_555
Mg15 Mg7 3.130435 1_565
Mg15 Mg5 3.130435 1_556
Mg16 Mg4 3.019869 1_555
Mg16 Mg7 3.106750 1_555
Mg16 Mg9 3.130435 1_655
Mg16 Mg8 3.130435 1_556
Mg16 Mg6 3.130435 1_555
Al0 Al3 2.671880 1_555
Al0 Al2 2.741078 1_555
Al0 Al1 2.741078 1_544
Al0 Mg8 2.867857 1_555
Al0 Mg7 2.950167 1_554
Al0 Mg6 2.950167 1_555
Al0 Mg3 3.076443 1_554
Al0 Mg4 3.076443 1_555
Al0 Mg14 3.146012 1_555
Al0 Mg11 3.146012 1_554
Al0 Mg0 3.177384 1_555
Al1 Al10 2.671894 1_455
Al1 Al2 2.741078 1_566
Al1 Mg15 2.867850 1_555
Al1 Mg5 2.950161 1_556
Al1 Mg7 2.950161 1_565
Al1 Mg2 3.076448 1_556
Al1 Mg3 3.076448 1_565
Al1 Mg9 3.146012 1_555
Al1 Mg12 3.146012 1_555
Al1 Mg0 3.177392 1_566
Al2 Al8 2.671880 1_555
Al2 Mg13 2.867857 1_555
Al2 Mg6 2.950167 1_555
Al2 Mg5 2.950167 1_545
Al2 Mg2 3.076443 1_545
Al2 Mg4 3.076443 1_555
Al2 Mg10 3.146012 1_545
Al2 Mg16 3.146012 1_555
Al2 Mg0 3.177384 1_555
Al3 Al4 2.741078 1_555
Al3 Al5 2.741078 1_454
Al3 Mg5 2.867857 1_555
Al3 Mg9 2.950167 1_554
Al3 Mg10 2.950167 1_555
Al3 Mg3 3.076443 1_554
Al3 Mg4 3.076443 1_555
Al3 Mg14 3.146012 1_555
Al3 Mg11 3.146012 1_554
Al3 Mg0 3.177384 1_555
Al4 Al7 2.671880 1_555
Al4 Al5 2.741078 1_454
Al4 Mg12 2.867857 1_555
Al4 Mg10 2.950167 1_555
Al4 Mg8 2.950167 1_455
Al4 Mg4 3.076443 1_555
Al4 Mg1 3.076443 1_455
Al4 Mg6 3.146012 1_455
Al4 Mg15 3.146012 1_555
Al4 Mg0 3.177384 1_555
Al5 Mg16 2.867850 1_555
Al5 Mg9 2.950161 1_655
Al5 Mg8 2.950161 1_556
Al5 Mg1 3.076448 1_556
Al5 Mg3 3.076448 1_655
Al5 Mg7 3.146012 1_555
Al5 Mg13 3.146012 1_555
Al5 Mg0 3.177392 1_656
Al6 Al9 2.671894 1_554
Al6 Al7 2.741078 1_665
Al6 Al8 2.741078 1_665
Al6 Mg14 2.867850 1_555
Al6 Mg12 2.950161 1_655
Al6 Mg13 2.950161 1_565
Al6 Mg1 3.076448 1_565
Al6 Mg2 3.076448 1_655
Al6 Mg5 3.146012 1_555
Al6 Mg8 3.146012 1_555
Al6 Mg0 3.177392 1_665
Al7 Al8 2.741078 1_555
Al7 Mg9 2.867857 1_555
Al7 Mg11 2.950167 1_555
Al7 Mg13 2.950167 1_455
Al7 Mg1 3.076443 1_455
Al7 Mg4 3.076443 1_555
Al7 Mg6 3.146012 1_455
Al7 Mg15 3.146012 1_555
Al7 Mg0 3.177384 1_555
Al8 Mg7 2.867857 1_555
Al8 Mg12 2.950167 1_545
Al8 Mg11 2.950167 1_555
Al8 Mg2 3.076443 1_545
Al8 Mg4 3.076443 1_555
Al8 Mg16 3.146012 1_555
Al8 Mg10 3.146012 1_545
Al8 Mg0 3.177384 1_555
Al9 Mg11 2.867860 1_555
Al9 Mg15 2.950164 1_555
Al9 Mg16 2.950164 1_555
Al9 Mg1 3.076444 1_566
Al9 Mg2 3.076444 1_656
Al9 Mg5 3.146018 1_556
Al9 Mg8 3.146018 1_556
Al9 Mg0 3.177383 1_666
Al10 Al11 2.741063 1_555
Al10 Al9 2.741063 1_555
Al10 Mg6 2.867860 1_555
Al10 Mg16 2.950164 1_555
Al10 Mg14 2.950164 1_555
Al10 Mg3 3.076444 1_665
Al10 Mg2 3.076444 1_656
Al10 Mg9 3.146018 1_655
Al10 Mg12 3.146018 1_655
Al10 Mg0 3.177383 1_666
Al11 Al5 2.671894 1_565
Al11 Al9 2.741063 1_555
Al11 Mg10 2.867860 1_555
Al11 Mg15 2.950164 1_555
Al11 Mg14 2.950164 1_555
Al11 Mg3 3.076444 1_665
Al11 Mg1 3.076444 1_566
Al11 Mg7 3.146018 1_565
Al11 Mg13 3.146018 1_565
Al11 Mg0 3.177383 1_666
