# generated using pymatgen
data_MgV4(GeO4)4
_symmetry_space_group_name_H-M   'P 1'
_cell_length_a   4.87141024
_cell_length_b   5.30644042
_cell_length_c   11.04639402
_cell_angle_alpha   89.70536859
_cell_angle_beta   90.27239265
_cell_angle_gamma   87.48922443
_symmetry_Int_Tables_number   1
_chemical_formula_structural   MgV4(GeO4)4
_chemical_formula_sum   'Mg1 V4 Ge4 O16'
_cell_volume   285.26616770
_cell_formula_units_Z   1
loop_
 _symmetry_equiv_pos_site_id
 _symmetry_equiv_pos_as_xyz
  1  'x, y, z'
loop_
 _atom_site_type_symbol
 _atom_site_label
 _atom_site_symmetry_multiplicity
 _atom_site_fract_x
 _atom_site_fract_y
 _atom_site_fract_z
 _atom_site_occupancy
  Mg  Mg0  1  0.48063400  0.03585200  0.61561800  1
  V  V0  1  0.96971000  0.71155500  0.54644200  1
  V  V1  1  0.55366300  0.75003800  0.06514300  1
  V  V2  1  0.57995200  0.24633900  0.93583000  1
  V  V3  1  0.91891700  0.20395300  0.41324500  1
  Ge  Ge0  1  0.03107500  0.70954800  0.84243100  1
  Ge  Ge1  1  0.58140600  0.49861900  0.71309300  1
  Ge  Ge2  1  0.46144000  0.67497300  0.33050200  1
  Ge  Ge3  1  0.10917900  0.28755600  0.14411000  1
  O  O0  1  0.11212100  0.08968600  0.27259900  1
  O  O1  1  0.18897500  0.55089400  0.42496700  1
  O  O2  1  0.31708600  0.09183500  0.04012200  1
  O  O3  1  0.13880600  0.05137900  0.52416600  1
  O  O4  1  0.27370600  0.57522900  0.17997900  1
  O  O5  1  0.42067100  0.22041500  0.77130800  1
  O  O6  1  0.25677900  0.69922400  0.69942600  1
  O  O7  1  0.33063100  0.60696500  0.93801300  1
  O  O8  1  0.79445700  0.40248600  0.06901000  1
  O  O9  1  0.68773400  0.40288600  0.32827200  1
  O  O10  1  0.64099300  0.85312100  0.21015500  1
  O  O11  1  0.85720800  0.42002000  0.82809400  1
  O  O12  1  0.66434600  0.88328100  0.44859300  1
  O  O13  1  0.80896100  0.89967800  0.94662900  1
  O  O14  1  0.70910700  0.38317900  0.57176900  1
  O  O15  1  0.76869100  0.80684200  0.70159500  1
loop_
_geom_bond_atom_site_label_1
_geom_bond_atom_site_label_2
_geom_bond_distance
_geom_bond_site_symmetry_2
Mg0 O3 1.941981 1_555
Mg0 O5 1.999822 1_555
Mg0 O15 2.043018 1_545
Mg0 O12 2.197288 1_545
Mg0 O14 2.246315 1_555
Mg0 O6 2.323864 1_545
Ge0 O11 1.793907 1_455
Ge0 O13 1.855160 1_455
Ge0 O7 1.857523 1_555
Ge0 O6 1.928585 1_555
Ge0 O15 2.058059 1_455
Ge1 O14 1.784661 1_555
Ge1 O5 1.817227 1_555
Ge1 O6 1.872254 1_555
Ge1 O11 1.876719 1_555
Ge1 O15 1.911356 1_555
Ge2 O9 1.778089 1_555
Ge2 O1 1.834875 1_555
Ge2 O10 1.869918 1_555
Ge2 O4 1.979445 1_555
Ge2 O12 1.999707 1_555
Ge3 O0 1.760785 1_555
Ge3 O4 1.800005 1_555
Ge3 O8 1.819739 1_455
Ge3 O2 1.831688 1_555
O0 V3 1.908097 1_455
O1 V0 1.901032 1_455
O1 V3 2.312978 1_455
O2 V2 1.932731 1_554
O2 V1 2.121991 1_545
O3 V3 1.790401 1_455
O3 V0 2.029367 1_445
O4 V1 2.108249 1_555
O5 V2 1.980492 1_555
O6 V0 2.187259 1_455
O7 V1 1.948769 1_556
O7 V2 2.221450 1_555
O8 V2 2.004131 1_554
O8 V1 2.142021 1_555
O9 V3 1.771807 1_555
O10 V1 1.751876 1_555
O11 V2 2.050117 1_555
O12 V0 2.016758 1_555
O12 V3 2.183702 1_565
O13 V1 1.995598 1_556
O13 V2 2.111719 1_565
O14 V0 2.217752 1_555
O14 V3 2.228121 1_555
O15 V0 2.033093 1_555
