# generated using pymatgen
data_CsO2
_symmetry_space_group_name_H-M   'P 1'
_cell_length_a   4.17132661
_cell_length_b   4.59548135
_cell_length_c   7.33959270
_cell_angle_alpha   90.00000000
_cell_angle_beta   89.97262471
_cell_angle_gamma   90.00000000
_symmetry_Int_Tables_number   1
_chemical_formula_structural   CsO2
_chemical_formula_sum   'Cs2 O4'
_cell_volume   140.69449805
_cell_formula_units_Z   2
loop_
 _symmetry_equiv_pos_site_id
 _symmetry_equiv_pos_as_xyz
  1  'x, y, z'
loop_
 _atom_site_type_symbol
 _atom_site_label
 _atom_site_symmetry_multiplicity
 _atom_site_fract_x
 _atom_site_fract_y
 _atom_site_fract_z
 _atom_site_occupancy
  Cs  Cs0  1  0.00000000  0.00000000  0.00000000  1
  Cs  Cs1  1  0.50000000  0.50000000  0.50000000  1
  O  O0  1  0.00090913  0.00000000  0.40858476  1
  O  O1  1  0.50086610  0.50000000  0.09139107  1
  O  O2  1  0.49913390  0.50000000  0.90860893  1
  O  O3  1  -0.00090913  0.00000000  0.59141524  1
loop_
_geom_bond_atom_site_label_1
_geom_bond_atom_site_label_2
_geom_bond_distance
_geom_bond_site_symmetry_2
Cs0 O0 2.998850 1_555
Cs0 O3 2.998850 1_554
Cs0 O2 3.172247 1_554
Cs0 O2 3.172247 1_544
Cs0 O1 3.172247 1_445
Cs0 O1 3.172247 1_455
Cs0 O1 3.177414 1_555
Cs0 O1 3.177414 1_545
Cs0 O2 3.177414 1_454
Cs0 O2 3.177414 1_444
Cs1 O1 2.999024 1_555
Cs1 O2 2.999024 1_555
Cs1 O3 3.172587 1_665
Cs1 O0 3.172587 1_555
Cs1 O0 3.172587 1_565
Cs1 O3 3.172587 1_655
Cs1 O0 3.177148 1_655
Cs1 O0 3.177148 1_665
Cs1 O3 3.177148 1_565
Cs1 O3 3.177148 1_555
O0 O3 1.341919 1_555
O1 O2 1.341569 1_554
