# generated using pymatgen
data_NaY2Sn2P3(SO8)3
_symmetry_space_group_name_H-M   'P 1'
_cell_length_a   8.97145168
_cell_length_b   8.97148577
_cell_length_c   23.55130731
_cell_angle_alpha   90.25540766
_cell_angle_beta   90.13905692
_cell_angle_gamma   120.06380209
_symmetry_Int_Tables_number   1
_chemical_formula_structural   NaY2Sn2P3(SO8)3
_chemical_formula_sum   'Na3 Y6 Sn6 P9 S9 O72'
_cell_volume   1640.52390308
_cell_formula_units_Z   3
loop_
 _symmetry_equiv_pos_site_id
 _symmetry_equiv_pos_as_xyz
  1  'x, y, z'
loop_
 _atom_site_type_symbol
 _atom_site_label
 _atom_site_symmetry_multiplicity
 _atom_site_fract_x
 _atom_site_fract_y
 _atom_site_fract_z
 _atom_site_occupancy
  Na  Na0  1  0.68196962  0.33592836  0.83444078  1
  Na  Na1  1  0.66193612  0.34229041  0.33054578  1
  Na  Na2  1  0.34646366  0.67572059  0.16672525  1
  Y  Y0  1  0.67428534  0.33467340  0.68700534  1
  Y  Y1  1  0.65358212  0.32856074  0.18485354  1
  Y  Y2  1  0.66588131  0.32467297  0.98610950  1
  Y  Y3  1  0.66546595  0.33797074  0.48069758  1
  Y  Y4  1  0.33586325  0.66817689  0.31048708  1
  Y  Y5  1  0.32827112  0.66809120  0.80791779  1
  Sn  Sn0  1  0.00939436  0.99470412  0.35394613  1
  Sn  Sn1  1  0.99440271  0.00255355  0.85470082  1
  Sn  Sn2  1  0.99489034  0.99410905  0.64938022  1
  Sn  Sn3  1  0.99893440  0.99976150  0.14651705  1
  Sn  Sn4  1  0.33349579  0.65744814  0.01756137  1
  Sn  Sn5  1  0.32576896  0.66045289  0.51261373  1
  P  P0  1  0.28297482  0.00045969  0.24905437  1
  P  P1  1  0.72175766  0.71938826  0.24988062  1
  P  P2  1  0.99571305  0.72085052  0.75129951  1
  P  P3  1  0.71924253  0.00227380  0.75043997  1
  P  P4  1  0.66527884  0.02643615  0.08388780  1
  P  P5  1  0.36050698  0.33136197  0.08338374  1
  P  P6  1  0.04364052  0.37210180  0.91508416  1
  P  P7  1  0.32387367  0.36847940  0.41521034  1
  P  P8  1  0.04372478  0.67192251  0.41585196  1
  S  S0  1  0.99688785  0.28080472  0.25062704  1
  S  S1  1  0.28396697  0.27973612  0.75003771  1
  S  S2  1  0.97259674  0.33255594  0.58340053  1
  S  S3  1  0.36156563  0.02703844  0.58336377  1
  S  S4  1  0.66283379  0.63742832  0.58324157  1
  S  S5  1  0.97081176  0.63620783  0.08380026  1
  S  S6  1  0.62931899  0.67082140  0.91553799  1
  S  S7  1  0.32560819  0.95618372  0.91597589  1
  S  S8  1  0.63225673  0.95695173  0.41687011  1
  O  O0  1  0.20455004  0.03032601  0.30403494  1
  O  O1  1  0.82598431  0.80562980  0.30557771  1
  O  O2  1  0.97539130  0.17857992  0.30290189  1
  O  O3  1  0.20561501  0.17314148  0.80142276  1
  O  O4  1  0.97048986  0.80673400  0.80525024  1
  O  O5  1  0.83443292  0.03714325  0.80390578  1
  O  O6  1  0.80100580  0.97857899  0.69498928  1
  O  O7  1  0.18017795  0.20212907  0.69690861  1
  O  O8  1  0.02526418  0.82736436  0.69581456  1
  O  O9  1  0.80504314  0.82843022  0.19603391  1
  O  O10  1  0.02086145  0.20206460  0.19835697  1
  O  O11  1  0.17381480  0.97780600  0.19522740  1
  O  O12  1  0.89556625  0.36451472  0.63391461  1
  O  O13  1  0.46989043  0.10550799  0.63411271  1
  O  O14  1  0.63282446  0.53035909  0.63372088  1
  O  O15  1  0.89595293  0.52791525  0.13403953  1
  O  O16  1  0.63011342  0.10461721  0.13630093  1
  O  O17  1  0.47579008  0.37158964  0.13577697  1
  O  O18  1  0.44093699  0.30385015  0.03012861  1
  O  O19  1  0.86606978  0.55963653  0.03235017  1
  O  O20  1  0.69716454  0.13555297  0.03077691  1
  O  O21  1  0.43799719  0.13581339  0.53334264  1
  O  O22  1  0.69596177  0.56038559  0.53324661  1
  O  O23  1  0.86257794  0.29854579  0.53331116  1
  O  O24  1  0.55273074  0.70178100  0.96793144  1
  O  O25  1  0.15550872  0.45549200  0.97027952  1
  O  O26  1  0.30032187  0.85122828  0.96822045  1
  O  O27  1  0.55294041  0.84995557  0.46982857  1
  O  O28  1  0.29678443  0.44933142  0.47181878  1
  O  O29  1  0.15542478  0.70565354  0.47211201  1
  O  O30  1  0.12728232  0.64291508  0.36466744  1
  O  O31  1  0.52260761  0.87990741  0.36703232  1
  O  O32  1  0.35837267  0.48404871  0.36465270  1
  O  O33  1  0.12954033  0.48193125  0.86335068  1
  O  O34  1  0.35460077  0.87764664  0.86569116  1
  O  O35  1  0.52359217  0.64598283  0.86515934  1
  O  O36  1  0.02567405  0.83418108  0.41083256  1
  O  O37  1  0.80334892  0.97345991  0.41009379  1
  O  O38  1  0.15729259  0.19112331  0.40829201  1
  O  O39  1  0.03144486  0.19182736  0.90888964  1
  O  O40  1  0.16711515  0.97015559  0.90884497  1
  O  O41  1  0.80318259  0.82926968  0.91031769  1
  O  O42  1  0.99264955  0.17769008  0.59278415  1
  O  O43  1  0.18692751  0.00963087  0.59213137  1
  O  O44  1  0.82031677  0.81211957  0.59104593  1
  O  O45  1  0.98962526  0.80865892  0.09109602  1
  O  O46  1  0.82452748  0.00506220  0.09275123  1
  O  O47  1  0.18126743  0.17119322  0.09317541  1
  O  O48  1  0.70225515  0.16465672  0.74559443  1
  O  O49  1  0.45505813  0.29544832  0.74455800  1
  O  O50  1  0.83107918  0.54319595  0.74635093  1
  O  O51  1  0.70912533  0.54255420  0.24692769  1
  O  O52  1  0.84302206  0.29886648  0.24631562  1
  O  O53  1  0.46271334  0.16206791  0.24711146  1
  O  O54  1  0.65003860  0.51922189  0.92237985  1
  O  O55  1  0.86325635  0.34881439  0.92187611  1
  O  O56  1  0.47653727  0.13065634  0.92186949  1
  O  O57  1  0.65054458  0.12851949  0.42520195  1
  O  O58  1  0.47983587  0.34334773  0.42412719  1
  O  O59  1  0.86515864  0.51211165  0.42437428  1
  O  O60  1  0.34108222  0.49645182  0.07647951  1
  O  O61  1  0.14735998  0.65613177  0.07591188  1
  O  O62  1  0.49735418  0.84365693  0.07392473  1
  O  O63  1  0.34444382  0.85299811  0.57417222  1
  O  O64  1  0.50836090  0.65750812  0.57347000  1
  O  O65  1  0.14634795  0.48935177  0.57525674  1
  O  O66  1  0.29609696  0.83679083  0.25183964  1
  O  O67  1  0.54288035  0.70261731  0.25238261  1
  O  O68  1  0.15334259  0.45227774  0.25373656  1
  O  O69  1  0.29967926  0.44866077  0.75488798  1
  O  O70  1  0.15480286  0.70435199  0.75559864  1
  O  O71  1  0.54657137  0.84049633  0.75609120  1
loop_
_geom_bond_atom_site_label_1
_geom_bond_atom_site_label_2
_geom_bond_distance
_geom_bond_site_symmetry_2
Na0 O55 2.586922 1_555
Na0 O48 2.650630 1_555
Na0 O50 2.665879 1_555
Na0 O54 2.742268 1_555
Na0 O56 2.771195 1_555
Na0 O49 2.826420 1_555
Na1 O51 2.561041 1_555
Na1 O53 2.594057 1_555
Na1 O52 2.714623 1_555
Na1 O58 2.749428 1_555
Na1 O59 2.774120 1_555
Na1 O57 2.915662 1_555
Na2 O67 2.604884 1_555
Na2 O62 2.622871 1_555
Na2 O66 2.635024 1_555
Na2 O60 2.645290 1_555
Na2 O61 2.731210 1_555
Na2 O68 2.791712 1_555
O0 P0 1.560036 1_555
O0 Sn0 2.000501 1_545
O1 P1 1.566451 1_555
O1 Sn0 2.014860 1_655
O2 S0 1.492648 1_555
O2 Sn0 2.186243 1_645
O3 S1 1.487993 1_555
O3 Sn1 2.151817 1_455
O4 P2 1.557784 1_555
O4 Sn1 2.022777 1_565
O5 P3 1.554880 1_555
O5 Sn1 2.007060 1_555
O6 P3 1.564334 1_565
O6 Sn2 1.991584 1_555
O7 S1 1.501485 1_555
O7 Sn2 2.088822 1_445
O8 P2 1.565246 1_455
O8 Sn2 1.982327 1_455
O9 P1 1.551397 1_555
O9 Sn3 2.023705 1_555
O10 S0 1.485420 1_455
O10 Sn3 2.108251 1_445
O11 P0 1.549093 1_565
O11 Sn3 2.029607 1_455
O12 S2 1.474649 1_555
O12 Y0 2.249145 1_555
O13 S3 1.473075 1_555
O13 Y0 2.308676 1_555
O14 S4 1.470094 1_555
O14 Y0 2.338147 1_555
O15 S5 1.468082 1_555
O15 Y1 2.343988 1_555
O16 P4 1.526797 1_555
O16 Y1 2.223263 1_555
O17 P5 1.529172 1_555
O17 Y1 2.154318 1_555
O18 P5 1.527990 1_555
O18 Y2 2.194641 1_554
O19 S5 1.470872 1_555
O19 Y2 2.243198 1_554
O20 P4 1.528663 1_555
O20 Y2 2.134421 1_554
O21 S3 1.467675 1_555
O21 Y3 2.305466 1_555
O22 S4 1.467214 1_555
O22 Y3 2.239968 1_555
O23 S2 1.465722 1_555
O23 Y3 2.325434 1_555
O24 S6 1.504703 1_555
O24 Sn4 2.150450 1_556
O25 P6 1.577804 1_555
O25 Sn4 2.036468 1_556
O26 S7 1.499901 1_555
O26 Sn4 2.235179 1_556
O27 S8 1.521184 1_555
O27 Sn5 2.147803 1_555
O28 P7 1.591295 1_555
O28 Sn5 2.016757 1_555
O29 P8 1.592973 1_555
O29 Sn5 2.006764 1_555
O30 P8 1.509921 1_555
O30 Y4 2.184149 1_555
O31 S8 1.459121 1_555
O31 Y4 2.228592 1_555
O32 P7 1.509915 1_555
O32 Y4 2.179145 1_555
O33 P6 1.517797 1_555
O33 Y5 2.172504 1_555
O34 S7 1.464337 1_555
O34 Y5 2.229868 1_555
O35 S6 1.462019 1_555
O35 Y5 2.294886 1_555
O36 P8 1.548192 1_555
O36 Sn0 2.029095 1_555
O37 S8 1.475497 1_555
O37 Sn0 2.205245 1_655
O38 P7 1.551046 1_555
O38 Sn0 2.032973 1_545
O39 P6 1.571474 1_555
O39 Sn1 2.008937 1_455
O40 S7 1.497785 1_555
O40 Sn1 2.134566 1_465
O41 S6 1.499916 1_555
O41 Sn1 2.105348 1_565
O42 S2 1.504843 1_555
O42 Sn2 2.131259 1_545
O43 S3 1.509456 1_555
O43 Sn2 2.139640 1_445
O44 S4 1.504592 1_555
O44 Sn2 2.100866 1_555
O45 S5 1.479025 1_555
O45 Sn3 2.118041 1_555
O46 P4 1.547547 1_555
O46 Sn3 2.029623 1_545
O47 P5 1.547069 1_555
O47 Sn3 2.031246 1_445
O48 P3 1.543505 1_555
O48 Y0 2.166579 1_555
O49 S1 1.475430 1_555
O49 Y0 2.270030 1_555
O50 P2 1.540872 1_555
O50 Y0 2.182305 1_555
O51 P1 1.534075 1_555
O51 Y1 2.254829 1_555
O52 S0 1.471614 1_555
O52 Y1 2.345180 1_555
O53 P0 1.537180 1_555
O53 Y1 2.186837 1_555
O54 S6 1.471540 1_555
O54 Y2 2.364365 1_555
O55 P6 1.533283 1_655
O55 Y2 2.258895 1_555
O56 S7 1.475268 1_545
O56 Y2 2.281633 1_555
O57 S8 1.476056 1_545
O57 Y3 2.232119 1_555
O58 P7 1.538766 1_555
O58 Y3 2.149680 1_555
O59 P8 1.537902 1_655
O59 Y3 2.153055 1_555
O60 P5 1.584641 1_555
O60 Sn4 2.032779 1_555
O61 S5 1.514347 1_455
O61 Sn4 2.160733 1_555
O62 P4 1.591639 1_565
O62 Sn4 2.055267 1_555
O63 S3 1.504974 1_565
O63 Sn5 2.190989 1_555
O64 S4 1.501646 1_555
O64 Sn5 2.184173 1_555
O65 S2 1.500768 1_455
O65 Sn5 2.163330 1_555
O66 P0 1.532396 1_565
O66 Y4 2.209146 1_555
O67 P1 1.536253 1_555
O67 Y4 2.204220 1_555
O68 S0 1.475515 1_455
O68 Y4 2.237835 1_555
O69 S1 1.453964 1_555
O69 Y5 2.229716 1_555
O70 P2 1.510082 1_455
O70 Y5 2.132504 1_555
O71 P3 1.507981 1_565
O71 Y5 2.170524 1_555
