# generated using pymatgen
data_YNiSn
_symmetry_space_group_name_H-M   'P 1'
_cell_length_a   4.45477959
_cell_length_b   7.14232303
_cell_length_c   7.63866915
_cell_angle_alpha   90.00000000
_cell_angle_beta   90.00000000
_cell_angle_gamma   90.00000000
_symmetry_Int_Tables_number   1
_chemical_formula_structural   YNiSn
_chemical_formula_sum   'Y4 Ni4 Sn4'
_cell_volume   243.04316364
_cell_formula_units_Z   4
loop_
 _symmetry_equiv_pos_site_id
 _symmetry_equiv_pos_as_xyz
  1  'x, y, z'
loop_
 _atom_site_type_symbol
 _atom_site_label
 _atom_site_symmetry_multiplicity
 _atom_site_fract_x
 _atom_site_fract_y
 _atom_site_fract_z
 _atom_site_occupancy
  Y  Y0  1  0.75000000  0.51322897  0.20285441  1
  Y  Y1  1  0.25000000  0.98677103  0.70285441  1
  Y  Y2  1  0.25000000  0.48677103  0.79714559  1
  Y  Y3  1  0.75000000  0.01322897  0.29714559  1
  Ni  Ni0  1  0.75000000  0.80284020  0.91688163  1
  Ni  Ni1  1  0.25000000  0.19715980  0.08311837  1
  Ni  Ni2  1  0.75000000  0.30284020  0.58311837  1
  Ni  Ni3  1  0.25000000  0.69715980  0.41688063  1
  Sn  Sn0  1  0.25000000  0.80958782  0.08778825  1
  Sn  Sn1  1  0.25000000  0.30958782  0.41221175  1
  Sn  Sn2  1  0.75000000  0.69041218  0.58778825  1
  Sn  Sn3  1  0.75000000  0.19041218  0.91221175  1
loop_
_geom_bond_atom_site_label_1
_geom_bond_atom_site_label_2
_geom_bond_distance
_geom_bond_site_symmetry_2
Ni0 Sn0 2.582231 1_556
Ni0 Sn0 2.582231 1_656
Ni0 Sn2 2.638972 1_555
Ni0 Sn3 2.768394 1_565
Ni0 Y0 3.008406 1_556
Ni0 Y1 3.059395 1_555
Ni0 Y1 3.059395 1_655
Ni0 Y3 3.270374 1_566
Ni0 Y2 3.300601 1_555
Ni0 Y2 3.300601 1_655
Ni1 Sn3 2.582231 1_454
Ni1 Sn3 2.582231 1_554
Ni1 Sn1 2.638972 1_555
Ni1 Sn0 2.768394 1_545
Ni1 Y2 3.008406 1_554
Ni1 Y3 3.059395 1_555
Ni1 Y3 3.059395 1_455
Ni1 Y1 3.270374 1_544
Ni1 Y0 3.300601 1_455
Ni1 Y0 3.300601 1_555
Ni2 Sn1 2.582231 1_555
Ni2 Sn1 2.582231 1_655
Ni2 Sn3 2.638972 1_555
Ni2 Sn2 2.768394 1_555
Ni2 Y3 3.008406 1_555
Ni2 Y2 3.059395 1_655
Ni2 Y2 3.059395 1_555
Ni2 Y0 3.270374 1_555
Ni2 Y1 3.300601 1_545
Ni2 Y1 3.300601 1_645
Ni3 Sn2 2.582235 1_555
Ni3 Sn2 2.582235 1_455
Ni3 Sn0 2.638965 1_555
Ni3 Sn1 2.768394 1_555
Ni3 Y1 3.008412 1_555
Ni3 Y0 3.059391 1_455
Ni3 Y0 3.059391 1_555
Ni3 Y2 3.270381 1_555
Ni3 Y3 3.300599 1_565
Ni3 Y3 3.300599 1_465
Sn0 Y3 3.103905 1_565
Sn0 Y3 3.103905 1_465
Sn0 Y0 3.195966 1_455
Sn0 Y0 3.195966 1_555
Sn0 Y2 3.200785 1_554
Sn0 Y1 3.201146 1_554
Sn1 Y0 3.103905 1_455
Sn1 Y0 3.103905 1_555
Sn1 Y3 3.195966 1_555
Sn1 Y3 3.195966 1_455
Sn1 Y1 3.200785 1_545
Sn1 Y2 3.201146 1_555
Sn2 Y2 3.103905 1_555
Sn2 Y2 3.103905 1_655
Sn2 Y1 3.195966 1_555
Sn2 Y1 3.195966 1_655
Sn2 Y3 3.200785 1_565
Sn2 Y0 3.201146 1_555
Sn3 Y1 3.103905 1_645
Sn3 Y1 3.103905 1_545
Sn3 Y2 3.195966 1_655
Sn3 Y2 3.195966 1_555
Sn3 Y0 3.200785 1_556
Sn3 Y3 3.201146 1_556
