# generated using pymatgen
data_La2Re3B7
_symmetry_space_group_name_H-M   'P 1'
_cell_length_a   6.79074690
_cell_length_b   7.68226949
_cell_length_c   11.66862000
_cell_angle_alpha   90.00000000
_cell_angle_beta   90.00000000
_cell_angle_gamma   90.00000000
_symmetry_Int_Tables_number   1
_chemical_formula_structural   La2Re3B7
_chemical_formula_sum   'La8 Re12 B28'
_cell_volume   608.73262562
_cell_formula_units_Z   4
loop_
 _symmetry_equiv_pos_site_id
 _symmetry_equiv_pos_as_xyz
  1  'x, y, z'
loop_
 _atom_site_type_symbol
 _atom_site_label
 _atom_site_symmetry_multiplicity
 _atom_site_fract_x
 _atom_site_fract_y
 _atom_site_fract_z
 _atom_site_occupancy
  La  La0  1  0.76371072  0.82339339  0.82224592  1
  La  La1  1  0.23628928  0.67660661  0.82224592  1
  La  La2  1  0.23628928  0.32339339  0.67775408  1
  La  La3  1  0.76371072  0.17660661  0.67775408  1
  La  La4  1  0.23628928  0.17660661  0.17775408  1
  La  La5  1  0.76371072  0.32339339  0.17775408  1
  La  La6  1  0.76371072  0.67660661  0.32224592  1
  La  La7  1  0.23628928  0.82339339  0.32224592  1
  Re  Re0  1  0.60515519  0.59076540  0.58058295  1
  Re  Re1  1  0.39484481  0.90923460  0.58058295  1
  Re  Re2  1  0.39484481  0.09076540  0.91941705  1
  Re  Re3  1  0.60515519  0.40923460  0.91941705  1
  Re  Re4  1  0.39484481  0.40923460  0.41941705  1
  Re  Re5  1  0.60515519  0.09076540  0.41941705  1
  Re  Re6  1  0.60515519  0.90923460  0.08058295  1
  Re  Re7  1  0.39484481  0.59076540  0.08058295  1
  Re  Re8  1  0.00000000  0.75000000  0.56785725  1
  Re  Re9  1  0.00000000  0.25000000  0.93214275  1
  Re  Re10  1  0.00000000  0.25000000  0.43214275  1
  Re  Re11  1  0.00000000  0.75000000  0.06785725  1
  B  B0  1  0.89586209  0.53299795  0.95914698  1
  B  B1  1  0.10413791  0.96700205  0.95914698  1
  B  B2  1  0.10413791  0.03299795  0.54085302  1
  B  B3  1  0.89586209  0.46700205  0.54085302  1
  B  B4  1  0.10413791  0.46700205  0.04085302  1
  B  B5  1  0.89586209  0.03299795  0.04085302  1
  B  B6  1  0.89586209  0.96700205  0.45914698  1
  B  B7  1  0.10413791  0.53299795  0.45914698  1
  B  B8  1  0.87670291  0.54017599  0.68297256  1
  B  B9  1  0.12329709  0.95982401  0.68297256  1
  B  B10  1  0.12329709  0.04017599  0.81702744  1
  B  B11  1  0.87670291  0.45982401  0.81702744  1
  B  B12  1  0.12329709  0.45982401  0.31702744  1
  B  B13  1  0.87670291  0.04017599  0.31702744  1
  B  B14  1  0.87670291  0.95982401  0.18297256  1
  B  B15  1  0.12329709  0.54017599  0.18297256  1
  B  B16  1  0.69690289  0.87088300  0.53833508  1
  B  B17  1  0.30309711  0.62911700  0.53833508  1
  B  B18  1  0.30309711  0.37088300  0.96166492  1
  B  B19  1  0.69690289  0.12911700  0.96166492  1
  B  B20  1  0.30309711  0.12911700  0.46166492  1
  B  B21  1  0.69690289  0.37088300  0.46166492  1
  B  B22  1  0.69690289  0.62911700  0.03833508  1
  B  B23  1  0.30309711  0.87088300  0.03833508  1
  B  B24  1  0.63288181  0.50000000  0.75000000  1
  B  B25  1  0.36711819  -0.00000000  0.75000000  1
  B  B26  1  0.36711819  0.50000000  0.25000000  1
  B  B27  1  0.63288181  -0.00000000  0.25000000  1
loop_
_geom_bond_atom_site_label_1
_geom_bond_atom_site_label_2
_geom_bond_distance
_geom_bond_site_symmetry_2
B0 B11 1.755853 1_555
B0 B4 1.779436 1_656
B0 B22 1.795684 1_556
B0 Re11 2.210950 1_656
B0 Re3 2.239653 1_555
B0 Re9 2.307802 1_655
B0 La0 2.886879 1_555
B0 La1 3.018805 1_655
B0 La5 3.147222 1_556
B1 B10 1.755853 1_565
B1 B5 1.779436 1_466
B1 B23 1.795684 1_556
B1 Re11 2.210950 1_556
B1 Re2 2.239653 1_565
B1 Re9 2.307802 1_565
B1 La1 2.886879 1_555
B1 La0 3.018805 1_455
B1 La4 3.147222 1_566
B2 B9 1.755853 1_545
B2 B6 1.779436 1_445
B2 B20 1.795684 1_555
B2 Re10 2.210950 1_555
B2 Re1 2.239653 1_545
B2 Re8 2.307802 1_545
B2 La2 2.886879 1_555
B2 La3 3.018805 1_455
B2 La7 3.147222 1_545
B3 B8 1.755853 1_555
B3 B7 1.779436 1_655
B3 Re10 2.210950 1_655
B3 Re0 2.239653 1_555
B3 Re8 2.307802 1_655
B3 La3 2.886879 1_555
B3 La2 3.018805 1_655
B3 La6 3.147222 1_555
B4 Re9 2.210950 1_554
B4 Re7 2.239653 1_555
B4 Re11 2.307802 1_555
B4 La4 2.886879 1_555
B4 La5 3.018805 1_455
B4 La1 3.147222 1_554
B5 Re9 2.210950 1_654
B5 Re6 2.239653 1_545
B5 Re11 2.307802 1_645
B5 La5 2.886879 1_555
B5 La4 3.018805 1_655
B5 La0 3.147222 1_544
B6 Re8 2.210950 1_655
B6 Re5 2.239653 1_565
B6 Re10 2.307802 1_665
B6 La6 2.886879 1_555
B6 La7 3.018805 1_655
B6 La3 3.147222 1_565
B7 Re8 2.210950 1_555
B7 Re4 2.239653 1_555
B7 Re10 2.307802 1_555
B7 La7 2.886879 1_555
B7 La6 3.018805 1_455
B7 La2 3.147222 1_555
B8 Re0 2.231331 1_555
B8 Re8 2.259120 1_655
B8 La0 2.822001 1_555
B8 La3 2.897157 1_555
B8 La2 2.956330 1_655
B8 La1 3.114840 1_655
B9 Re1 2.231331 1_555
B9 Re8 2.259120 1_555
B9 La1 2.822001 1_555
B9 La2 2.897157 1_565
B9 La3 2.956330 1_465
B9 La0 3.114840 1_455
B10 B9 1.681628 1_545
B10 B25 1.856987 1_555
B10 Re2 2.231331 1_555
B10 Re9 2.259120 1_555
B10 La2 2.822001 1_555
B10 La1 2.897157 1_545
B10 La0 2.956330 1_445
B10 La3 3.114840 1_455
B11 B8 1.681628 1_555
B11 B24 1.856987 1_555
B11 Re3 2.231331 1_555
B11 Re9 2.259120 1_655
B11 La3 2.822001 1_555
B11 La0 2.897157 1_555
B11 La1 2.956330 1_655
B11 La2 3.114840 1_655
B12 B15 1.681628 1_555
B12 B7 1.755853 1_555
B12 B26 1.856987 1_555
B12 Re4 2.231331 1_555
B12 Re10 2.259120 1_555
B12 La4 2.822001 1_555
B12 La7 2.897157 1_555
B12 La6 2.956330 1_455
B12 La5 3.114840 1_455
B13 B14 1.681628 1_545
B13 B6 1.755853 1_545
B13 B27 1.856987 1_555
B13 Re5 2.231331 1_555
B13 Re10 2.259120 1_655
B13 La5 2.822001 1_555
B13 La6 2.897157 1_545
B13 La7 2.956330 1_645
B13 La4 3.114840 1_655
B14 B5 1.755853 1_565
B14 B27 1.856987 1_565
B14 Re6 2.231331 1_555
B14 Re11 2.259120 1_655
B14 La6 2.822001 1_555
B14 La5 2.897157 1_565
B14 La4 2.956330 1_665
B14 La7 3.114840 1_655
B15 B4 1.755853 1_555
B15 B26 1.856987 1_555
B15 Re7 2.231331 1_555
B15 Re11 2.259120 1_555
B15 La7 2.822001 1_555
B15 La4 2.897157 1_555
B15 La5 2.956330 1_455
B15 La6 3.114840 1_455
B16 B6 1.795684 1_555
B16 Re1 2.130082 1_555
B16 Re5 2.273107 1_565
B16 Re8 2.284182 1_655
B16 Re0 2.293913 1_555
B16 La3 2.892845 1_565
B16 La6 2.964979 1_555
B16 La0 3.363611 1_555
B17 B7 1.795684 1_555
B17 Re0 2.130082 1_555
B17 Re4 2.273107 1_555
B17 Re8 2.284182 1_555
B17 Re1 2.293913 1_555
B17 La2 2.892845 1_555
B17 La7 2.964979 1_555
B17 La1 3.363611 1_555
B18 B4 1.795684 1_556
B18 Re3 2.130082 1_555
B18 Re7 2.273107 1_556
B18 Re9 2.284182 1_555
B18 Re2 2.293913 1_555
B18 La1 2.892845 1_555
B18 La4 2.964979 1_556
B18 La2 3.363611 1_555
B19 B5 1.795684 1_556
B19 Re2 2.130082 1_555
B19 Re6 2.273107 1_546
B19 Re9 2.284182 1_655
B19 Re3 2.293913 1_555
B19 La0 2.892845 1_545
B19 La5 2.964979 1_556
B19 La3 3.363611 1_555
B20 Re5 2.130082 1_555
B20 Re1 2.273107 1_545
B20 Re10 2.284182 1_555
B20 Re4 2.293913 1_555
B20 La7 2.892845 1_545
B20 La2 2.964979 1_555
B20 La4 3.363611 1_555
B21 B3 1.795684 1_555
B21 Re4 2.130082 1_555
B21 Re0 2.273107 1_555
B21 Re10 2.284182 1_655
B21 Re5 2.293913 1_555
B21 La6 2.892845 1_555
B21 La3 2.964979 1_555
B21 La5 3.363611 1_555
B22 Re7 2.130082 1_555
B22 Re3 2.273107 1_554
B22 Re11 2.284182 1_655
B22 Re6 2.293913 1_555
B22 La5 2.892845 1_555
B22 La0 2.964979 1_554
B22 La6 3.363611 1_555
B23 Re6 2.130082 1_555
B23 Re2 2.273107 1_564
B23 Re11 2.284182 1_555
B23 Re7 2.293913 1_555
B23 La4 2.892845 1_565
B23 La1 2.964979 1_554
B23 La7 3.363611 1_555
B24 B8 1.856987 1_555
B24 Re0 2.104672 1_555
B24 Re3 2.104672 1_555
B24 La3 2.769871 1_555
B24 La0 2.769871 1_555
B24 La1 3.131216 1_555
B24 La2 3.131216 1_555
B25 B9 1.856987 1_545
B25 Re2 2.104672 1_555
B25 Re1 2.104672 1_545
B25 La1 2.769871 1_545
B25 La2 2.769871 1_555
B25 La3 3.131216 1_555
B25 La0 3.131216 1_545
B26 Re7 2.104672 1_555
B26 Re4 2.104672 1_555
B26 La7 2.769871 1_555
B26 La4 2.769871 1_555
B26 La5 3.131216 1_555
B26 La6 3.131216 1_555
B27 Re5 2.104672 1_555
B27 Re6 2.104672 1_545
B27 La5 2.769871 1_555
B27 La6 2.769871 1_545
B27 La7 3.131216 1_545
B27 La4 3.131216 1_555
