# generated using pymatgen
data_Tl4Sn5S12
_symmetry_space_group_name_H-M   'P 1'
_cell_length_a   7.50399283
_cell_length_b   9.87483591
_cell_length_c   17.36787752
_cell_angle_alpha   104.99746398
_cell_angle_beta   90.12189806
_cell_angle_gamma   111.92491127
_symmetry_Int_Tables_number   1
_chemical_formula_structural   Tl4Sn5S12
_chemical_formula_sum   'Tl8 Sn10 S24'
_cell_volume   1146.19869044
_cell_formula_units_Z   2
loop_
 _symmetry_equiv_pos_site_id
 _symmetry_equiv_pos_as_xyz
  1  'x, y, z'
loop_
 _atom_site_type_symbol
 _atom_site_label
 _atom_site_symmetry_multiplicity
 _atom_site_fract_x
 _atom_site_fract_y
 _atom_site_fract_z
 _atom_site_occupancy
  Tl  Tl0  1  0.31260800  0.76162800  0.70198300  1
  Tl  Tl1  1  0.68739200  0.23837200  0.29801700  1
  Tl  Tl2  1  0.10140700  0.46254400  0.85466400  1
  Tl  Tl3  1  0.89859300  0.53745600  0.14533600  1
  Tl  Tl4  1  0.41740600  0.15287500  0.61265400  1
  Tl  Tl5  1  0.58259400  0.84712500  0.38734600  1
  Tl  Tl6  1  0.62462400  0.51741100  0.85683200  1
  Tl  Tl7  1  0.37537600  0.48258900  0.14316800  1
  Sn  Sn0  1  0.68314700  0.57436900  0.58249700  1
  Sn  Sn1  1  0.31685300  0.42563100  0.41750300  1
  Sn  Sn2  1  0.01777100  0.32359000  0.59724400  1
  Sn  Sn3  1  0.98222900  0.67641000  0.40275600  1
  Sn  Sn4  1  0.88446200  0.03179800  0.72998600  1
  Sn  Sn5  1  0.11553800  0.96820200  0.27001400  1
  Sn  Sn6  1  0.68758900  0.12735800  0.94751000  1
  Sn  Sn7  1  0.31241100  0.87264200  0.05249000  1
  Sn  Sn8  1  0.18471300  0.11932100  0.94212300  1
  Sn  Sn9  1  0.81528700  0.88067900  0.05787700  1
  S  S0  1  0.47158300  0.67608600  0.52190600  1
  S  S1  1  0.52841700  0.32391400  0.47809400  1
  S  S2  1  0.01213200  0.70755600  0.54555300  1
  S  S3  1  0.98786800  0.29244400  0.45444700  1
  S  S4  1  0.73051200  0.76264000  0.72150100  1
  S  S5  1  0.26948800  0.23736000  0.27849900  1
  S  S6  1  0.33036200  0.44329100  0.67282100  1
  S  S7  1  0.66963800  0.55670900  0.32717900  1
  S  S8  1  0.88197900  0.05149700  0.59270400  1
  S  S9  1  0.11802100  0.94850300  0.40729600  1
  S  S10  1  0.81043700  0.43952500  0.67068200  1
  S  S11  1  0.18956300  0.56047500  0.32931800  1
  S  S12  1  0.21046100  0.15230400  0.79813700  1
  S  S13  1  0.78953900  0.84769600  0.20186300  1
  S  S14  1  0.33742900  0.91426000  0.90801400  1
  S  S15  1  0.66257100  0.08574000  0.09198600  1
  S  S16  1  0.69342500  0.16380200  0.80325300  1
  S  S17  1  0.30657500  0.83619800  0.19674700  1
  S  S18  1  0.96189500  0.67960800  0.00798400  1
  S  S19  1  0.03810500  0.32039200  0.99201600  1
  S  S20  1  0.46995800  0.67877100  0.01685200  1
  S  S21  1  0.53004200  0.32122900  0.98314800  1
  S  S22  1  0.17035400  0.08202200  0.08759200  1
  S  S23  1  0.82964600  0.91797800  0.91240800  1
loop_
_geom_bond_atom_site_label_1
_geom_bond_atom_site_label_2
_geom_bond_distance
_geom_bond_site_symmetry_2
S0 Sn1 2.505663 1_555
S0 Sn0 2.523388 1_555
S0 Tl5 3.163657 1_555
S1 Sn0 2.505663 1_555
S1 Sn1 2.523388 1_555
S1 Tl4 3.163657 1_555
S2 Sn3 2.418070 1_455
S2 Sn0 2.500950 1_455
S3 Sn2 2.418070 1_655
S3 Sn1 2.500950 1_655
S4 Sn4 2.433977 1_565
S4 Sn0 2.567305 1_555
S4 Tl0 3.149525 1_555
S5 Sn5 2.433977 1_545
S5 Sn1 2.567305 1_555
S5 Tl1 3.149525 1_555
S6 Sn2 2.394928 1_555
S6 Tl4 3.097373 1_555
S6 Tl0 3.105648 1_555
S6 Sn0 3.107117 1_555
S7 Sn3 2.394928 1_555
S7 Tl5 3.097373 1_555
S7 Tl1 3.105648 1_555
S7 Sn1 3.107117 1_555
S8 Sn4 2.442462 1_555
S8 Sn2 2.471688 1_655
S9 Sn5 2.442462 1_555
S9 Sn3 2.471688 1_455
S10 Sn2 2.437405 1_655
S10 Sn0 2.651468 1_555
S10 Tl4 3.162752 1_555
S11 Sn3 2.437405 1_455
S11 Sn1 2.651468 1_555
S11 Tl5 3.162752 1_555
S12 Sn4 2.426149 1_455
S12 Sn8 2.602628 1_555
S13 Sn5 2.426149 1_655
S13 Sn9 2.602628 1_555
S14 Sn8 2.622897 1_565
S14 Sn6 2.630403 1_565
S14 Sn7 2.641692 1_556
S15 Sn9 2.622897 1_545
S15 Sn7 2.630403 1_545
S15 Sn6 2.641692 1_554
S16 Sn4 2.432734 1_555
S16 Sn6 2.619924 1_555
S17 Sn5 2.432734 1_555
S17 Sn7 2.619924 1_555
S18 Sn7 2.575637 1_655
S18 Sn9 2.578455 1_555
S18 Tl3 3.021046 1_555
S18 Tl6 3.260478 1_554
S19 Sn6 2.575637 1_455
S19 Sn8 2.578455 1_555
S19 Tl2 3.021046 1_555
S19 Tl7 3.260478 1_556
S20 Sn7 2.554587 1_555
S20 Sn9 2.568378 1_555
S20 Tl7 3.201425 1_555
S20 Tl6 3.273040 1_554
S21 Sn6 2.554587 1_555
S21 Sn8 2.568378 1_555
S21 Tl6 3.201425 1_555
S21 Tl7 3.273040 1_556
S22 Sn7 2.603706 1_545
S22 Sn9 2.612578 1_445
S22 Sn8 2.642640 1_554
S23 Sn6 2.603706 1_565
S23 Sn8 2.612578 1_665
S23 Sn9 2.642640 1_556
