# generated using pymatgen
data_YbMg(FeO2)2
_symmetry_space_group_name_H-M   'P 1'
_cell_length_a   11.12443569
_cell_length_b   11.12443565
_cell_length_c   11.12443539
_cell_angle_alpha   16.21990214
_cell_angle_beta   16.21990362
_cell_angle_gamma   16.21990472
_symmetry_Int_Tables_number   1
_chemical_formula_structural   YbMg(FeO2)2
_chemical_formula_sum   'Yb1 Mg1 Fe2 O4'
_cell_volume   93.64262787
_cell_formula_units_Z   1
loop_
 _symmetry_equiv_pos_site_id
 _symmetry_equiv_pos_as_xyz
  1  'x, y, z'
loop_
 _atom_site_type_symbol
 _atom_site_label
 _atom_site_symmetry_multiplicity
 _atom_site_fract_x
 _atom_site_fract_y
 _atom_site_fract_z
 _atom_site_occupancy
  Yb  Yb0  1  0.00001550  0.00001550  0.00001550  1
  Mg  Mg0  1  0.49997897  0.49997897  0.49997897  1
  Fe  Fe0  1  0.75996363  0.75996363  0.75996363  1
  Fe  Fe1  1  0.24003678  0.24003678  0.24003678  1
  O  O0  1  0.86806299  0.86806299  0.86806299  1
  O  O1  1  0.13194916  0.13194916  0.13194916  1
  O  O2  1  0.70204097  0.70204097  0.70204097  1
  O  O3  1  0.29795100  0.29795100  0.29795100  1
loop_
_geom_bond_atom_site_label_1
_geom_bond_atom_site_label_2
_geom_bond_distance
_geom_bond_site_symmetry_2
Mg0 O1 2.142216 1_565
Mg0 O1 2.142216 1_556
Mg0 O1 2.142216 1_655
Mg0 O0 2.143169 1_545
Mg0 O0 2.143169 1_554
Mg0 O0 2.143169 1_455
Fe0 O2 1.907251 1_555
Fe0 O1 2.214424 1_656
Fe0 O1 2.214424 1_665
Fe0 O1 2.214424 1_566
Fe1 O3 1.906973 1_555
Fe1 O0 2.214202 1_454
Fe1 O0 2.214202 1_445
Fe1 O0 2.214202 1_544
O2 Yb0 2.153926 1_665
O2 Yb0 2.153926 1_656
O2 Yb0 2.153926 1_566
O3 Yb0 2.154621 1_556
O3 Yb0 2.154621 1_565
O3 Yb0 2.154621 1_655
