# generated using pymatgen
data_MgFe6(O5F)2
_symmetry_space_group_name_H-M   'P 1'
_cell_length_a   7.06991738
_cell_length_b   5.68934400
_cell_length_c   5.92865436
_cell_angle_alpha   81.93435263
_cell_angle_beta   71.05763635
_cell_angle_gamma   74.25097225
_symmetry_Int_Tables_number   1
_chemical_formula_structural   MgFe6(O5F)2
_chemical_formula_sum   'Mg1 Fe6 O10 F2'
_cell_volume   216.73068427
_cell_formula_units_Z   1
loop_
 _symmetry_equiv_pos_site_id
 _symmetry_equiv_pos_as_xyz
  1  'x, y, z'
loop_
 _atom_site_type_symbol
 _atom_site_label
 _atom_site_symmetry_multiplicity
 _atom_site_fract_x
 _atom_site_fract_y
 _atom_site_fract_z
 _atom_site_occupancy
  Mg  Mg0  1  0.15740805  0.34075447  0.83566048  1
  Fe  Fe0  1  0.83513366  0.67377827  0.63468659  1
  Fe  Fe1  1  0.67365590  0.27137644  0.39783214  1
  Fe  Fe2  1  0.33943603  0.75086310  0.58174564  1
  Fe  Fe3  1  0.16501977  0.32891994  0.34204615  1
  Fe  Fe4  1  0.51887475  0.98968484  0.99714417  1
  Fe  Fe5  1  0.00686506  0.91975579  0.05412239  1
  O  O0  1  0.68755351  0.01362414  0.65546949  1
  O  O1  1  0.28588655  0.95923759  0.85553402  1
  O  O2  1  0.97846524  0.23868102  0.18848345  1
  O  O3  1  0.62967649  0.58684972  0.53224051  1
  O  O4  1  0.05109440  0.71953237  0.78718751  1
  O  O5  1  0.36564175  0.40813683  0.48500448  1
  O  O6  1  0.71232979  0.06109590  0.13729236  1
  O  O7  1  0.32676977  0.98720471  0.32236582  1
  O  O8  1  0.96863503  0.33332908  0.65501341  1
  O  O9  1  0.03324198  0.67843481  0.30773073  1
  F  F0  1  0.36111894  0.35724607  0.99074421  1
  F  F1  1  0.65319333  0.64339991  0.98969545  1
loop_
_geom_bond_atom_site_label_1
_geom_bond_atom_site_label_2
_geom_bond_distance
_geom_bond_site_symmetry_2
Mg0 O8 1.975168 1_455
Mg0 O4 2.092538 1_555
Mg0 O1 2.116082 1_545
Mg0 O2 2.157106 1_456
Mg0 O5 2.175300 1_555
Fe0 O8 1.916508 1_555
Fe0 O0 1.931451 1_565
Fe0 O3 1.941774 1_555
Fe0 O9 1.990711 1_655
Fe0 O4 2.096288 1_655
Fe1 O0 1.970750 1_555
Fe1 O3 1.972471 1_555
Fe1 O6 1.989667 1_555
Fe1 O5 2.019154 1_555
Fe1 O2 2.080792 1_555
Fe2 O7 1.903837 1_555
Fe2 O3 1.952922 1_555
Fe2 O1 2.020129 1_555
Fe2 O4 2.048243 1_555
Fe2 O5 2.052820 1_555
Fe3 O8 1.921652 1_455
Fe3 O9 1.966569 1_555
Fe3 O7 1.967525 1_545
Fe3 O2 2.027397 1_455
Fe3 O5 2.041557 1_555
Fe4 O6 1.964753 1_566
Fe4 O7 1.965985 1_556
Fe4 O0 1.996610 1_565
Fe4 O1 2.131127 1_555
Fe5 O9 1.908990 1_555
Fe5 O6 1.939476 1_465
Fe5 O4 1.972603 1_554
Fe5 O1 1.996618 1_554
Fe5 O2 2.017712 1_465
F0 Mg0 1.971211 1_555
F0 Fe4 2.087469 1_545
F0 Fe3 2.106738 1_556
F1 Fe4 1.940810 1_555
F1 Fe0 2.091707 1_555
