# generated using pymatgen
data_Zn2PdO4
_symmetry_space_group_name_H-M   'P 1'
_cell_length_a   6.14515108
_cell_length_b   6.14515108
_cell_length_c   6.14515108
_cell_angle_alpha   60.00000000
_cell_angle_beta   60.00000000
_cell_angle_gamma   60.00000000
_symmetry_Int_Tables_number   1
_chemical_formula_structural   Zn2PdO4
_chemical_formula_sum   'Zn4 Pd2 O8'
_cell_volume   164.09021948
_cell_formula_units_Z   2
loop_
 _symmetry_equiv_pos_site_id
 _symmetry_equiv_pos_as_xyz
  1  'x, y, z'
loop_
 _atom_site_type_symbol
 _atom_site_label
 _atom_site_symmetry_multiplicity
 _atom_site_fract_x
 _atom_site_fract_y
 _atom_site_fract_z
 _atom_site_occupancy
  Zn  Zn0  1  0.12500000  0.12500000  0.12500000  1
  Zn  Zn1  1  0.62500000  0.12500000  0.12500000  1
  Zn  Zn2  1  0.12500000  0.12500000  0.62500000  1
  Zn  Zn3  1  0.12500000  0.62500000  0.12500000  1
  Pd  Pd0  1  0.50000000  0.50000000  0.50000000  1
  Pd  Pd1  1  0.75000000  0.75000000  0.75000000  1
  O  O0  1  0.36571900  0.36571900  0.36571900  1
  O  O1  1  0.34715600  0.88428100  0.88428100  1
  O  O2  1  0.88428100  0.88428100  0.34715600  1
  O  O3  1  0.88428100  0.34715600  0.88428100  1
  O  O4  1  0.36571900  0.36571900  0.90284400  1
  O  O5  1  0.36571900  0.90284400  0.36571900  1
  O  O6  1  0.88428100  0.88428100  0.88428100  1
  O  O7  1  0.90284400  0.36571900  0.36571900  1
loop_
_geom_bond_atom_site_label_1
_geom_bond_atom_site_label_2
_geom_bond_distance
_geom_bond_site_symmetry_2
O0 Pd0 2.021263 1_555
O0 Zn1 2.095089 1_555
O0 Zn2 2.095089 1_555
O0 Zn3 2.095089 1_555
O1 Pd1 2.021268 1_555
O1 Zn2 2.095085 1_565
O1 Zn3 2.095085 1_556
O1 Zn0 2.095090 1_566
O2 Pd1 2.021268 1_555
O2 Zn1 2.095085 1_565
O2 Zn3 2.095085 1_655
O2 Zn0 2.095090 1_665
O3 Pd1 2.021268 1_555
O3 Zn2 2.095085 1_655
O3 Zn1 2.095085 1_556
O3 Zn0 2.095090 1_656
O4 Pd0 2.021268 1_555
O4 Zn3 2.095085 1_556
O4 Zn1 2.095085 1_556
O4 Zn0 2.095090 1_556
O5 Pd0 2.021268 1_555
O5 Zn1 2.095085 1_565
O5 Zn2 2.095085 1_565
O5 Zn0 2.095090 1_565
O6 Pd1 2.021263 1_555
O6 Zn1 2.095089 1_566
O6 Zn3 2.095089 1_656
O6 Zn2 2.095089 1_665
O7 Pd0 2.021268 1_555
O7 Zn2 2.095085 1_655
O7 Zn3 2.095085 1_655
O7 Zn0 2.095090 1_655
