# generated using pymatgen
data_Ba2EuMgSbO6
_symmetry_space_group_name_H-M   'P 1'
_cell_length_a   6.63377173
_cell_length_b   6.63377277
_cell_length_c   6.23029700
_cell_angle_alpha   61.99236654
_cell_angle_beta   61.99236175
_cell_angle_gamma   56.32592138
_symmetry_Int_Tables_number   1
_chemical_formula_structural   Ba2EuMgSbO6
_chemical_formula_sum   'Ba2 Eu1 Mg1 Sb1 O6'
_cell_volume   193.10908785
_cell_formula_units_Z   1
loop_
 _symmetry_equiv_pos_site_id
 _symmetry_equiv_pos_as_xyz
  1  'x, y, z'
loop_
 _atom_site_type_symbol
 _atom_site_label
 _atom_site_symmetry_multiplicity
 _atom_site_fract_x
 _atom_site_fract_y
 _atom_site_fract_z
 _atom_site_occupancy
  Ba  Ba0  1  0.69110000  0.69110000  0.80890000  1
  Ba  Ba1  1  0.30890000  0.30890000  0.19110000  1
  Eu  Eu0  1  0.50000000  0.50000000  0.50000000  1
  Mg  Mg0  1  0.00000000  0.00000000  0.50000000  1
  Sb  Sb0  1  0.00000000  0.00000000  0.00000000  1
  O  O0  1  0.22637600  0.77362400  0.73961600  1
  O  O1  1  0.22637600  0.77362400  0.26038400  1
  O  O2  1  0.77362400  0.22637600  0.73961600  1
  O  O3  1  0.23468400  0.23468400  0.76531600  1
  O  O4  1  0.77362400  0.22637600  0.26038400  1
  O  O5  1  0.76531600  0.76531600  0.23468400  1
loop_
_geom_bond_atom_site_label_1
_geom_bond_atom_site_label_2
_geom_bond_distance
_geom_bond_site_symmetry_2
Ba0 O0 3.024310 1_555
Ba0 O1 3.024310 1_556
Ba0 O2 3.024311 1_555
Ba0 O4 3.024311 1_556
Ba0 Mg0 3.057925 1_665
Ba0 O3 3.160602 1_655
Ba0 O3 3.160602 1_565
Ba0 O5 3.200613 1_556
Ba0 O5 3.200613 1_555
Ba1 O4 3.024310 1_555
Ba1 O2 3.024310 1_554
Ba1 O1 3.024311 1_555
Ba1 O0 3.024311 1_554
Ba1 Mg0 3.057925 1_555
Ba1 O5 3.160602 1_455
Ba1 O5 3.160602 1_545
Ba1 O3 3.200613 1_554
Ba1 O3 3.200613 1_555
Eu0 O4 2.272569 1_555
Eu0 O1 2.272569 1_555
Eu0 O2 2.272569 1_555
Eu0 O0 2.272569 1_555
Eu0 O5 2.626470 1_555
Eu0 O3 2.626470 1_555
Mg0 O4 2.058689 1_455
Mg0 O2 2.058689 1_455
Mg0 O0 2.058689 1_545
Mg0 O1 2.058689 1_545
O0 Sb0 2.154361 1_566
O1 Sb0 2.154361 1_565
O2 Sb0 2.154361 1_656
O3 Sb0 2.323231 1_556
O4 Sb0 2.154361 1_655
O5 Sb0 2.323231 1_665
