# generated using pymatgen
data_NaNbGa3P3(SO8)3
_symmetry_space_group_name_H-M   'P 1'
_cell_length_a   8.58458474
_cell_length_b   8.55736963
_cell_length_c   22.32788516
_cell_angle_alpha   90.59870147
_cell_angle_beta   89.94184502
_cell_angle_gamma   120.15737907
_symmetry_Int_Tables_number   1
_chemical_formula_structural   NaNbGa3P3(SO8)3
_chemical_formula_sum   'Na3 Nb3 Ga9 P9 S9 O72'
_cell_volume   1418.13629078
_cell_formula_units_Z   3
loop_
 _symmetry_equiv_pos_site_id
 _symmetry_equiv_pos_as_xyz
  1  'x, y, z'
loop_
 _atom_site_type_symbol
 _atom_site_label
 _atom_site_symmetry_multiplicity
 _atom_site_fract_x
 _atom_site_fract_y
 _atom_site_fract_z
 _atom_site_occupancy
  Na  Na0  1  0.00069372  0.01166217  0.99923289  1
  Na  Na1  1  0.67831170  0.33986989  0.83457550  1
  Na  Na2  1  0.66443554  0.33984198  0.33784672  1
  Nb  Nb0  1  0.00294298  0.99563121  0.64395241  1
  Nb  Nb1  1  0.65858859  0.33276180  0.18496669  1
  Nb  Nb2  1  0.32834056  0.65638195  0.52415049  1
  Ga  Ga0  1  0.99943512  0.99777300  0.35572875  1
  Ga  Ga1  1  0.99696623  0.00141977  0.85367635  1
  Ga  Ga2  1  0.98988241  0.00203234  0.14586133  1
  Ga  Ga3  1  0.67454594  0.34193265  0.68593145  1
  Ga  Ga4  1  0.66827690  0.32227523  0.98066011  1
  Ga  Ga5  1  0.65865405  0.33216565  0.48198399  1
  Ga  Ga6  1  0.33493249  0.65525839  0.02094520  1
  Ga  Ga7  1  0.34717737  0.66092654  0.31267568  1
  Ga  Ga8  1  0.31358303  0.65924417  0.81445439  1
  P  P0  1  0.71807434  0.72463793  0.25149488  1
  P  P1  1  0.99781006  0.70760499  0.75420313  1
  P  P2  1  0.93794647  0.32718438  0.58294803  1
  P  P3  1  0.39327741  0.05695625  0.58391070  1
  P  P4  1  0.66616903  0.60968152  0.58334675  1
  P  P5  1  0.66439387  0.03541980  0.07906042  1
  P  P6  1  0.36793924  0.32704139  0.07850795  1
  P  P7  1  0.04159373  0.37557677  0.91706099  1
  P  P8  1  0.33430355  0.36960518  0.41299415  1
  S  S0  1  0.28164012  0.98994035  0.25151966  1
  S  S1  1  0.00509643  0.29182433  0.25174803  1
  S  S2  1  0.29601189  0.29425203  0.75277498  1
  S  S3  1  0.70434374  0.99854695  0.75259648  1
  S  S4  1  0.96001291  0.62794845  0.08105983  1
  S  S5  1  0.62255055  0.66566962  0.91568158  1
  S  S6  1  0.33220889  0.95528907  0.91683545  1
  S  S7  1  0.62412488  0.95982281  0.41492329  1
  S  S8  1  0.04306811  0.66526932  0.41356882  1
  O  O0  1  0.21190747  0.03612452  0.30519964  1
  O  O1  1  0.83602251  0.79876910  0.30806770  1
  O  O2  1  0.96653545  0.17789770  0.30500165  1
  O  O3  1  0.21245353  0.17990816  0.80554368  1
  O  O4  1  0.96385859  0.79793556  0.80835905  1
  O  O5  1  0.82258182  0.03805156  0.80571538  1
  O  O6  1  0.79310049  0.97506983  0.69759253  1
  O  O7  1  0.18174810  0.20821223  0.69764007  1
  O  O8  1  0.02072125  0.82651160  0.69676479  1
  O  O9  1  0.80261330  0.83243075  0.19487481  1
  O  O10  1  0.03666662  0.21484894  0.19677214  1
  O  O11  1  0.17947703  0.96795512  0.19646656  1
  O  O12  1  0.87293023  0.37333250  0.63967082  1
  O  O13  1  0.50282027  0.13003717  0.64073398  1
  O  O14  1  0.62397028  0.49996882  0.63957864  1
  O  O15  1  0.87109528  0.51370844  0.13653287  1
  O  O16  1  0.64137633  0.13535478  0.13714652  1
  O  O17  1  0.49234124  0.35800797  0.13729824  1
  O  O18  1  0.45992301  0.29430155  0.02532455  1
  O  O19  1  0.84235729  0.54699276  0.02827333  1
  O  O20  1  0.70872311  0.16200468  0.02613988  1
  O  O21  1  0.45889286  0.16506838  0.52703332  1
  O  O22  1  0.70892154  0.54289110  0.52618787  1
  O  O23  1  0.83084829  0.29242545  0.52560799  1
  O  O24  1  0.54647900  0.70066974  0.97048407  1
  O  O25  1  0.15877488  0.45941756  0.97358938  1
  O  O26  1  0.30548195  0.84733815  0.97075895  1
  O  O27  1  0.53634092  0.84855784  0.46888782  1
  O  O28  1  0.30831712  0.46544650  0.47018156  1
  O  O29  1  0.15406722  0.69099002  0.46874109  1
  O  O30  1  0.12761648  0.63689286  0.36008704  1
  O  O31  1  0.50872238  0.88099169  0.36095730  1
  O  O32  1  0.37116574  0.49187849  0.35894132  1
  O  O33  1  0.12094754  0.48783162  0.85986152  1
  O  O34  1  0.36602741  0.87762413  0.86175552  1
  O  O35  1  0.51354484  0.63901866  0.86104289  1
  O  O36  1  0.02976749  0.82968296  0.41007309  1
  O  O37  1  0.79974555  0.97059783  0.40954519  1
  O  O38  1  0.16117602  0.18707569  0.40701763  1
  O  O39  1  0.02285026  0.18450300  0.90986272  1
  O  O40  1  0.16857163  0.97241904  0.91078089  1
  O  O41  1  0.80598215  0.82911477  0.91088743  1
  O  O42  1  0.97099136  0.16746904  0.59389029  1
  O  O43  1  0.19991811  0.02931134  0.59405850  1
  O  O44  1  0.82928493  0.80382173  0.59305967  1
  O  O45  1  0.97797725  0.80708281  0.09029167  1
  O  O46  1  0.83263715  0.01898706  0.08915778  1
  O  O47  1  0.18740208  0.15641771  0.09137511  1
  O  O48  1  0.68496495  0.16020907  0.74543379  1
  O  O49  1  0.47311339  0.30703275  0.74516629  1
  O  O50  1  0.82740535  0.52020263  0.74565267  1
  O  O51  1  0.69583854  0.52840536  0.24260960  1
  O  O52  1  0.83950487  0.30987605  0.24407770  1
  O  O53  1  0.47121745  0.15828742  0.24498945  1
  O  O54  1  0.63887722  0.50150838  0.92165000  1
  O  O55  1  0.85224194  0.35745917  0.92322376  1
  O  O56  1  0.49451437  0.13982024  0.92123902  1
  O  O57  1  0.64624072  0.14260770  0.42141288  1
  O  O58  1  0.50371858  0.35325885  0.42182082  1
  O  O59  1  0.86343277  0.50123724  0.42002137  1
  O  O60  1  0.35845187  0.49870307  0.07598426  1
  O  O61  1  0.13442114  0.63918638  0.07645813  1
  O  O62  1  0.49071903  0.85628028  0.07288886  1
  O  O63  1  0.36170366  0.86326087  0.57231079  1
  O  O64  1  0.50345583  0.64041489  0.57326229  1
  O  O65  1  0.13193864  0.49546929  0.57286350  1
  O  O66  1  0.30352834  0.83290104  0.25968576  1
  O  O67  1  0.52988479  0.69894400  0.25834430  1
  O  O68  1  0.16106380  0.47433098  0.25931624  1
  O  O69  1  0.31293943  0.47325822  0.75790020  1
  O  O70  1  0.17092564  0.69911362  0.75774374  1
  O  O71  1  0.53022446  0.83250168  0.75891906  1
loop_
_geom_bond_atom_site_label_1
_geom_bond_atom_site_label_2
_geom_bond_distance
_geom_bond_site_symmetry_2
Na0 O39 2.446193 1_555
Na0 O46 2.489788 1_456
Na0 O47 2.508915 1_556
Na0 O41 2.538502 1_445
Na0 O40 2.560618 1_545
Na0 O45 2.639527 1_446
Na1 O55 2.437983 1_555
Na1 O50 2.456819 1_555
Na1 O54 2.494125 1_555
Na1 O48 2.520409 1_555
Na1 O56 2.552159 1_555
Na1 O49 2.581734 1_555
Na2 O58 2.362546 1_555
Na2 O59 2.403135 1_555
Na2 O57 2.480896 1_555
Na2 O53 2.610374 1_555
Na2 O51 2.613740 1_555
Na2 O52 2.660357 1_555
Nb0 O43 1.922666 1_565
Nb0 O44 1.927095 1_455
Nb0 O8 1.940663 1_555
Nb0 O42 1.981719 1_465
Nb0 O7 2.062743 1_565
Nb0 O6 2.095712 1_455
Nb1 O17 1.879884 1_555
Nb1 O16 1.930642 1_555
Nb1 O51 1.994883 1_555
Nb1 O15 2.021857 1_555
Nb1 O53 2.058398 1_555
Nb1 O52 2.123099 1_555
Nb2 O65 1.901760 1_555
Nb2 O64 1.921943 1_555
Nb2 O63 1.955462 1_555
Nb2 O28 1.956612 1_555
Nb2 O29 2.076801 1_555
Nb2 O27 2.121988 1_555
Ga0 O1 1.888195 1_555
Ga0 O38 1.888915 1_665
Ga0 O36 2.005640 1_655
Ga0 O37 2.009407 1_555
Ga0 O0 2.027213 1_665
Ga0 O2 2.052571 1_565
Ga1 O4 1.898209 1_545
Ga1 O39 1.920284 1_655
Ga1 O5 1.991948 1_555
Ga1 O41 2.024858 1_545
Ga1 O3 2.025163 1_655
Ga1 O40 2.057969 1_645
Ga2 O9 1.890453 1_545
Ga2 O46 1.910567 1_555
Ga2 O47 1.969559 1_655
Ga2 O10 1.998204 1_655
Ga2 O45 2.029453 1_545
Ga2 O11 2.120915 1_645
Ga3 O12 1.892591 1_555
Ga3 O14 1.925793 1_555
Ga3 O13 1.938701 1_555
Ga3 O50 1.943436 1_555
Ga3 O49 2.076859 1_555
Ga3 O48 2.091532 1_555
Ga4 O20 1.881758 1_556
Ga4 O55 1.937928 1_555
Ga4 O18 1.955046 1_556
Ga4 O56 2.010914 1_555
Ga4 O19 2.033333 1_556
Ga4 O54 2.141021 1_555
Ga5 O21 1.886784 1_555
Ga5 O22 1.895757 1_555
Ga5 O23 1.940217 1_555
Ga5 O58 1.963681 1_555
Ga5 O57 2.062144 1_555
Ga5 O59 2.139875 1_555
Ga6 O25 1.906117 1_554
Ga6 O60 1.911142 1_555
Ga6 O62 1.934624 1_555
Ga6 O24 2.003588 1_554
Ga6 O61 2.068697 1_555
Ga6 O26 2.116105 1_554
Ga7 O67 1.878628 1_555
Ga7 O32 1.879674 1_555
Ga7 O68 1.980553 1_555
Ga7 O31 1.992063 1_555
Ga7 O66 2.073007 1_555
Ga7 O30 2.080036 1_555
Ga8 O33 1.872071 1_555
Ga8 O70 1.910891 1_555
Ga8 O34 1.981098 1_555
Ga8 O69 2.019095 1_555
Ga8 O35 2.089162 1_555
Ga8 O71 2.111349 1_555
O0 S0 1.475618 1_545
O1 P0 1.537426 1_555
O2 S1 1.474117 1_655
O3 S2 1.475573 1_555
O4 P1 1.533205 1_555
O5 S3 1.483418 1_545
O6 S3 1.508623 1_555
O7 S2 1.509176 1_555
O8 P1 1.595140 1_455
O9 P0 1.525012 1_555
O10 S1 1.475089 1_555
O11 S0 1.465307 1_555
O12 P2 1.510319 1_555
O13 P3 1.509992 1_555
O14 P4 1.506997 1_555
O15 S4 1.531694 1_555
O16 P5 1.611991 1_555
O17 P6 1.626356 1_555
O18 P6 1.524975 1_555
O19 S4 1.473606 1_555
O20 P5 1.525140 1_555
O21 P3 1.511779 1_555
O22 P4 1.511528 1_555
O23 P2 1.514114 1_555
O24 S5 1.483464 1_555
O25 P7 1.542149 1_555
O26 S6 1.471509 1_555
O27 S7 1.492474 1_555
O28 P8 1.585618 1_555
O29 S8 1.503311 1_555
O30 S8 1.476819 1_555
O31 S7 1.484039 1_555
O32 P8 1.531165 1_555
O33 P7 1.544117 1_555
O34 S6 1.488120 1_555
O35 S5 1.482588 1_555
O36 S8 1.470495 1_555
O37 S7 1.468354 1_555
O38 P8 1.526434 1_555
O39 P7 1.566989 1_555
O40 S6 1.490237 1_555
O41 S5 1.495730 1_555
O42 P2 1.550750 1_555
O43 P3 1.571117 1_555
O44 P4 1.556771 1_555
O45 S4 1.473787 1_555
O46 P5 1.536877 1_555
O47 P6 1.533167 1_555
O48 S3 1.484240 1_545
O49 S2 1.478195 1_555
O50 P1 1.544419 1_555
O51 P0 1.602084 1_555
O52 S1 1.515136 1_655
O53 S0 1.547073 1_545
O54 S5 1.487485 1_555
O55 P7 1.559493 1_655
O56 S6 1.493639 1_545
O57 S7 1.483433 1_545
O58 P8 1.542442 1_555
O59 S8 1.482569 1_655
O60 P6 1.513155 1_555
O61 S4 1.454890 1_455
O62 P5 1.513746 1_565
O63 P3 1.558107 1_565
O64 P4 1.562680 1_555
O65 P2 1.579329 1_455
O66 S0 1.460605 1_555
O67 P0 1.524785 1_555
O68 S1 1.467758 1_555
O69 S2 1.467449 1_555
O70 P1 1.526092 1_455
O71 S3 1.463879 1_555
