# generated using pymatgen
data_KSnF3
_symmetry_space_group_name_H-M   'P 1'
_cell_length_a   7.97859278
_cell_length_b   9.89107785
_cell_length_c   10.21951682
_cell_angle_alpha   80.38084710
_cell_angle_beta   72.36743442
_cell_angle_gamma   74.20170479
_symmetry_Int_Tables_number   1
_chemical_formula_structural   KSnF3
_chemical_formula_sum   'K8 Sn8 F24'
_cell_volume   736.41295777
_cell_formula_units_Z   8
loop_
 _symmetry_equiv_pos_site_id
 _symmetry_equiv_pos_as_xyz
  1  'x, y, z'
loop_
 _atom_site_type_symbol
 _atom_site_label
 _atom_site_symmetry_multiplicity
 _atom_site_fract_x
 _atom_site_fract_y
 _atom_site_fract_z
 _atom_site_occupancy
  K  K0  1  0.53870951  0.88148284  0.36476384  1
  K  K1  1  0.46129049  0.11851716  0.63523616  1
  K  K2  1  0.05073028  0.84921774  0.39380174  1
  K  K3  1  0.94926972  0.15078226  0.60619826  1
  K  K4  1  0.74544713  0.50979351  0.49081202  1
  K  K5  1  0.25455287  0.49020649  0.50918798  1
  K  K6  1  0.74228244  0.02321827  0.98646536  1
  K  K7  1  0.25771756  0.97678173  0.01353464  1
  Sn  Sn0  1  0.54615899  0.61810454  0.14251765  1
  Sn  Sn1  1  0.45384101  0.38189546  0.85748235  1
  Sn  Sn2  1  0.02881118  0.64240335  0.12654581  1
  Sn  Sn3  1  0.97118882  0.35759665  0.87345419  1
  Sn  Sn4  1  0.27086740  0.25466947  0.25185297  1
  Sn  Sn5  1  0.72913260  0.74533053  0.74814703  1
  Sn  Sn6  1  0.79310487  0.21653705  0.25445447  1
  Sn  Sn7  1  0.20689513  0.78346295  0.74554553  1
  F  F0  1  0.38460684  0.68918306  0.32772763  1
  F  F1  1  0.61539316  0.31081694  0.67227237  1
  F  F2  1  0.56734699  0.82391170  0.07240686  1
  F  F3  1  0.43265301  0.17608830  0.92759314  1
  F  F4  1  0.93842532  0.85665129  0.15780927  1
  F  F5  1  0.06157468  0.14334871  0.84219073  1
  F  F6  1  0.05785522  0.59385780  0.32350761  1
  F  F7  1  0.94214478  0.40614220  0.67649239  1
  F  F8  1  0.74338293  0.64622069  0.24938201  1
  F  F9  1  0.25661707  0.35377931  0.75061799  1
  F  F10  1  0.28546853  0.70877531  0.08980729  1
  F  F11  1  0.71453147  0.29122469  0.91019271  1
  F  F12  1  0.23226643  0.05532123  0.25978689  1
  F  F13  1  0.76773357  0.94467877  0.74021311  1
  F  F14  1  0.26098937  0.22600729  0.45663449  1
  F  F15  1  0.73901063  0.77399271  0.54336551  1
  F  F16  1  0.04093082  0.71013341  0.64527034  1
  F  F17  1  0.95906918  0.28986659  0.35472966  1
  F  F18  1  0.44545051  0.86620865  0.76485815  1
  F  F19  1  0.55454949  0.13379135  0.23514185  1
  F  F20  1  0.23149180  0.92385496  0.57309994  1
  F  F21  1  0.76850820  0.07614504  0.42690006  1
  F  F22  1  0.41065325  0.63688844  0.63638633  1
  F  F23  1  0.58934675  0.36311156  0.36361367  1
loop_
_geom_bond_atom_site_label_1
_geom_bond_atom_site_label_2
_geom_bond_distance
_geom_bond_site_symmetry_2
F0 Sn0 2.052189 1_555
F0 K2 2.651271 1_555
F0 K0 2.658701 1_555
F0 K5 2.667497 1_555
F1 Sn1 2.052189 1_555
F1 K3 2.651271 1_555
F1 K1 2.658701 1_555
F1 K4 2.667497 1_555
F2 Sn0 2.076631 1_555
F2 K6 2.604349 1_564
F2 K7 2.704380 1_555
F2 K0 3.063865 1_555
F3 Sn1 2.076631 1_555
F3 K7 2.604349 1_546
F3 K6 2.704380 1_555
F3 K1 3.063865 1_555
F4 Sn2 2.089849 1_655
F4 K6 2.742572 1_564
F4 K2 2.799780 1_655
F4 K7 2.977035 1_655
F4 K0 3.219481 1_555
F5 Sn3 2.089849 1_455
F5 K7 2.742572 1_546
F5 K3 2.799780 1_455
F5 K6 2.977035 1_455
F5 K1 3.219481 1_555
F6 Sn2 2.057871 1_555
F6 K5 2.718942 1_555
F6 K2 2.720725 1_555
F6 K4 2.810545 1_455
F7 Sn3 2.057871 1_555
F7 K4 2.718942 1_555
F7 K3 2.720725 1_555
F7 K5 2.810545 1_655
F8 Sn2 2.236190 1_655
F8 Sn0 2.264295 1_555
F8 K4 2.609327 1_555
F8 K0 2.674573 1_555
F9 Sn3 2.236190 1_455
F9 Sn1 2.264295 1_555
F9 K5 2.609327 1_555
F9 K1 2.674573 1_555
F10 Sn0 2.218618 1_555
F10 Sn2 2.224664 1_555
F10 K7 2.603487 1_555
F11 Sn1 2.218618 1_555
F11 Sn3 2.224664 1_555
F11 K6 2.603487 1_555
F12 Sn4 2.061893 1_555
F12 K7 2.689934 1_545
F12 K2 2.757233 1_545
F12 K0 2.961230 1_545
F13 Sn5 2.061893 1_555
F13 K6 2.689934 1_565
F13 K3 2.757233 1_565
F13 K1 2.961230 1_565
F14 Sn4 2.044560 1_555
F14 K1 2.685005 1_555
F14 K3 2.720290 1_455
F14 K5 2.738473 1_555
F15 Sn5 2.044560 1_555
F15 K0 2.685005 1_555
F15 K2 2.720290 1_655
F15 K4 2.738473 1_555
F16 Sn7 2.218793 1_555
F16 Sn5 2.341257 1_455
F16 K5 2.669688 1_555
F16 K2 2.694123 1_555
F17 Sn6 2.218793 1_555
F17 Sn4 2.341257 1_655
F17 K4 2.669688 1_555
F17 K3 2.694123 1_555
F18 Sn5 2.223091 1_555
F18 Sn7 2.336936 1_555
F18 K1 2.638991 1_565
F18 K7 2.762057 1_556
F19 Sn4 2.223091 1_555
F19 Sn6 2.336936 1_555
F19 K0 2.638991 1_545
F19 K6 2.762057 1_554
F20 Sn7 2.047818 1_555
F20 K3 2.695006 1_465
F20 K0 2.700759 1_555
F20 K2 2.935177 1_555
F20 K1 3.241639 1_565
F21 Sn6 2.047818 1_555
F21 K2 2.695006 1_645
F21 K1 2.700759 1_555
F21 K3 2.935177 1_555
F21 K0 3.241639 1_545
F22 Sn7 2.036588 1_555
F22 K4 2.705160 1_555
F22 K5 2.817955 1_555
F23 Sn6 2.036588 1_555
F23 K5 2.705160 1_555
F23 K4 2.817955 1_555
