# generated using pymatgen
data_BaYMgCuNiO5
_symmetry_space_group_name_H-M   'P 1'
_cell_length_a   3.78276328
_cell_length_b   4.05381883
_cell_length_c   9.56125518
_cell_angle_alpha   90.04255002
_cell_angle_beta   90.40459383
_cell_angle_gamma   89.98592052
_symmetry_Int_Tables_number   1
_chemical_formula_structural   BaYMgCuNiO5
_chemical_formula_sum   'Ba1 Y1 Mg1 Cu1 Ni1 O5'
_cell_volume   146.61467721
_cell_formula_units_Z   1
loop_
 _symmetry_equiv_pos_site_id
 _symmetry_equiv_pos_as_xyz
  1  'x, y, z'
loop_
 _atom_site_type_symbol
 _atom_site_label
 _atom_site_symmetry_multiplicity
 _atom_site_fract_x
 _atom_site_fract_y
 _atom_site_fract_z
 _atom_site_occupancy
  Ba  Ba0  1  0.00688172  1.00008739  0.81668826  1
  Y  Y0  1  0.00045530  0.00014206  0.45605413  1
  Mg  Mg0  1  0.99654942  0.50047844  0.10721746  1
  Cu  Cu0  1  0.49889792  0.49981758  0.32122506  1
  Ni  Ni0  1  0.50173516  0.49992003  0.61805858  1
  O  O0  1  0.00164725  0.49979005  0.62183443  1
  O  O1  1  0.50171752  0.99990949  0.62765712  1
  O  O2  1  -0.00129939  0.49987572  0.31224912  1
  O  O3  1  0.49840366  -0.00014393  0.32333086  1
  O  O4  1  0.49500544  0.50011717  0.01038799  1
loop_
_geom_bond_atom_site_label_1
_geom_bond_atom_site_label_2
_geom_bond_distance
_geom_bond_site_symmetry_2
Ba0 O1 2.611167 1_555
Ba0 O1 2.620960 1_455
Ba0 O0 2.752903 1_555
Ba0 O0 2.753158 1_565
Ba0 O4 3.300935 1_566
Ba0 O4 3.301918 1_556
Ba0 O4 3.366189 1_466
Ba0 O4 3.368272 1_456
Mg0 O2 1.960323 1_655
Mg0 O4 2.105178 1_555
Mg0 O4 2.106429 1_655
Cu0 O2 1.893187 1_655
Cu0 O2 1.893468 1_555
Cu0 O3 2.026870 1_555
Cu0 O3 2.027151 1_565
Ni0 O0 1.891139 1_655
Ni0 O0 1.892314 1_555
Ni0 O1 2.028875 1_555
Ni0 O1 2.029097 1_545
O0 Y0 2.571026 1_555
O0 Y0 2.575127 1_565
O1 Y0 2.498700 1_565
O1 Y0 2.508991 1_665
O2 Y0 2.449191 1_555
O2 Y0 2.449291 1_565
O3 Y0 2.276636 1_655
O3 Y0 2.278628 1_555
