# generated using pymatgen
data_Ba2Mg(FeO2)4
_symmetry_space_group_name_H-M   'P 1'
_cell_length_a   5.60330600
_cell_length_b   5.60330707
_cell_length_c   9.31142500
_cell_angle_alpha   90.00000000
_cell_angle_beta   90.00000000
_cell_angle_gamma   120.00000549
_symmetry_Int_Tables_number   1
_chemical_formula_structural   Ba2Mg(FeO2)4
_chemical_formula_sum   'Ba2 Mg1 Fe4 O8'
_cell_volume   253.18357075
_cell_formula_units_Z   1
loop_
 _symmetry_equiv_pos_site_id
 _symmetry_equiv_pos_as_xyz
  1  'x, y, z'
loop_
 _atom_site_type_symbol
 _atom_site_label
 _atom_site_symmetry_multiplicity
 _atom_site_fract_x
 _atom_site_fract_y
 _atom_site_fract_z
 _atom_site_occupancy
  Ba  Ba0  1  0.00000000  0.00000000  0.75000000  1
  Ba  Ba1  1  0.00000000  0.00000000  0.25000000  1
  Mg  Mg0  1  0.66666700  0.33333300  0.25000000  1
  Fe  Fe0  1  0.33333300  0.66666700  0.45426200  1
  Fe  Fe1  1  0.66666700  0.33333300  0.95048100  1
  Fe  Fe2  1  0.66666700  0.33333300  0.54951900  1
  Fe  Fe3  1  0.33333300  0.66666700  0.04573800  1
  O  O0  1  0.66533400  0.99687100  0.50339900  1
  O  O1  1  0.66533400  0.66846400  0.99660100  1
  O  O2  1  0.00312900  0.33466600  0.99660100  1
  O  O3  1  0.00312900  0.66846400  0.50339900  1
  O  O4  1  0.33153600  0.33466600  0.50339900  1
  O  O5  1  0.33153600  0.99687100  0.99660100  1
  O  O6  1  0.33333300  0.66666700  0.25000000  1
  O  O7  1  0.66666700  0.33333300  0.75000000  1
loop_
_geom_bond_atom_site_label_1
_geom_bond_atom_site_label_2
_geom_bond_distance
_geom_bond_site_symmetry_2
Ba0 O5 2.959136 1_545
Ba0 O3 2.959136 1_545
Ba0 O1 2.959137 1_445
Ba0 O4 2.959137 1_555
Ba0 O0 2.959139 1_445
Ba0 O2 2.959139 1_555
Ba0 O7 3.235067 1_455
Ba0 O7 3.235072 1_555
Ba0 O7 3.235072 1_445
Ba1 O5 3.008519 1_544
Ba1 O3 3.008519 1_545
Ba1 O1 3.008521 1_444
Ba1 O4 3.008521 1_555
Ba1 O0 3.008522 1_445
Ba1 O2 3.008523 1_554
Ba1 O6 3.235067 1_545
Ba1 Mg0 3.235067 1_455
Ba1 Mg0 3.235072 1_555
Ba1 O6 3.235072 1_445
Ba1 Mg0 3.235072 1_445
Ba1 O6 3.235072 1_555
Fe0 O6 1.901970 1_555
Fe0 O3 1.910873 1_555
Fe0 O0 1.910873 1_555
Fe0 O4 1.910874 1_555
Fe1 O7 1.866764 1_555
Fe1 O2 1.929961 1_655
Fe1 O5 1.929967 1_545
Fe1 O1 1.929972 1_555
Fe1 Mg0 2.788949 1_556
Fe2 O7 1.866764 1_555
Fe2 O0 1.929961 1_545
Fe2 O3 1.929967 1_655
Fe2 O4 1.929972 1_555
Fe2 Mg0 2.788949 1_555
Fe3 O6 1.901970 1_555
Fe3 O1 1.910873 1_554
Fe3 O2 1.910873 1_554
Fe3 O5 1.910874 1_554
