# generated using pymatgen
data_Li3Co3(PO4)4
_symmetry_space_group_name_H-M   'P 1'
_cell_length_a   5.08064300
_cell_length_b   7.68397945
_cell_length_c   8.01721106
_cell_angle_alpha   87.90068338
_cell_angle_beta   89.09829803
_cell_angle_gamma   85.69055574
_symmetry_Int_Tables_number   1
_chemical_formula_structural   Li3Co3(PO4)4
_chemical_formula_sum   'Li3 Co3 P4 O16'
_cell_volume   311.86751822
_cell_formula_units_Z   1
loop_
 _symmetry_equiv_pos_site_id
 _symmetry_equiv_pos_as_xyz
  1  'x, y, z'
loop_
 _atom_site_type_symbol
 _atom_site_label
 _atom_site_symmetry_multiplicity
 _atom_site_fract_x
 _atom_site_fract_y
 _atom_site_fract_z
 _atom_site_occupancy
  Li  Li0  1  0.08872400  0.40322500  0.86335500  1
  Li  Li1  1  0.60223800  0.89579900  0.63832400  1
  Li  Li2  1  0.91205800  0.59594800  0.14076600  1
  Co  Co0  1  0.48420700  0.98855300  0.97872900  1
  Co  Co1  1  0.40550400  0.09972200  0.35783800  1
  Co  Co2  1  0.99901400  0.52326000  0.51338200  1
  P  P0  1  0.53497900  0.30395000  0.68912900  1
  P  P1  1  0.46377500  0.70069600  0.30708200  1
  P  P2  1  0.96539000  0.19711300  0.19254400  1
  P  P3  1  0.03236200  0.79910900  0.80899300  1
  O  O0  1  0.93945900  0.35261400  0.07563000  1
  O  O1  1  0.05509200  0.64382000  0.92857700  1
  O  O2  1  0.18391600  0.05169100  0.14271600  1
  O  O3  1  0.53806000  0.76402000  0.12774400  1
  O  O4  1  0.06993900  0.23941400  0.37119400  1
  O  O5  1  0.44118300  0.85831200  0.42638800  1
  O  O6  1  0.68765500  0.56550100  0.36574000  1
  O  O7  1  0.30233800  0.88719200  0.80131000  1
  O  O8  1  0.69382500  0.11240700  0.20869600  1
  O  O9  1  0.95386000  0.74808000  0.62885100  1
  O  O10  1  0.54814400  0.14996700  0.56683000  1
  O  O11  1  0.80823100  0.38343600  0.68383400  1
  O  O12  1  0.46024100  0.23167500  0.86656500  1
  O  O13  1  0.31743500  0.44773300  0.64284500  1
  O  O14  1  0.19659900  0.61351000  0.31689600  1
  O  O15  1  0.81577000  0.94325000  0.85604100  1
loop_
_geom_bond_atom_site_label_1
_geom_bond_atom_site_label_2
_geom_bond_distance
_geom_bond_site_symmetry_2
Li0 O0 1.891526 1_456
Li0 O1 1.934153 1_555
Li0 O11 2.058788 1_455
Li0 O13 2.131516 1_555
Li0 O12 2.219508 1_555
Li1 O5 1.937686 1_555
Li1 O7 1.994890 1_555
Li1 O10 2.015103 1_565
Li1 O9 2.045217 1_555
Li1 O15 2.126568 1_555
Li2 O1 1.874244 1_654
Li2 O0 1.954038 1_555
Li2 O14 2.051729 1_655
Li2 O6 2.133598 1_555
Li2 O3 2.217411 1_555
Co0 O7 1.927262 1_555
Co0 O15 1.952231 1_555
Co0 O12 2.039512 1_565
Co0 O2 2.040561 1_566
Co0 O3 2.065708 1_556
Co0 O8 2.404539 1_566
Co1 O8 1.882233 1_555
Co1 O10 1.899822 1_555
Co1 O5 1.911490 1_545
Co1 O4 1.948825 1_555
Co1 O2 2.132690 1_555
Co2 O13 1.974575 1_655
Co2 O9 1.986163 1_555
Co2 O14 1.986187 1_655
Co2 O6 1.990599 1_555
Co2 O11 1.992134 1_555
Co2 O4 2.497499 1_655
O0 P2 1.490575 1_555
O1 P3 1.501758 1_555
O2 P2 1.572631 1_455
O3 P1 1.551035 1_555
O4 P2 1.588462 1_455
O5 P1 1.566972 1_555
O6 P1 1.548419 1_555
O7 P3 1.573889 1_555
O8 P2 1.570738 1_555
O9 P3 1.575361 1_655
O10 P0 1.561042 1_555
O11 P0 1.557525 1_555
O12 P0 1.559822 1_555
O13 P0 1.542496 1_555
O14 P1 1.557901 1_555
O15 P3 1.553806 1_655
