# generated using pymatgen
data_K3AuSe13
_symmetry_space_group_name_H-M   'P 1'
_cell_length_a   4.97852845
_cell_length_b   13.74429186
_cell_length_c   15.03592944
_cell_angle_alpha   85.91133156
_cell_angle_beta   90.00000000
_cell_angle_gamma   90.00000000
_symmetry_Int_Tables_number   1
_chemical_formula_structural   K3AuSe13
_chemical_formula_sum   'K6 Au2 Se26'
_cell_volume   1026.23520917
_cell_formula_units_Z   2
loop_
 _symmetry_equiv_pos_site_id
 _symmetry_equiv_pos_as_xyz
  1  'x, y, z'
loop_
 _atom_site_type_symbol
 _atom_site_label
 _atom_site_symmetry_multiplicity
 _atom_site_fract_x
 _atom_site_fract_y
 _atom_site_fract_z
 _atom_site_occupancy
  K  K0  1  0.20434907  0.16244141  0.72127940  1
  K  K1  1  0.20434907  0.33755859  0.27872060  1
  K  K2  1  0.16983718  0.25000000  -0.00000000  1
  K  K3  1  0.83016282  0.75000000  -0.00000000  1
  K  K4  1  0.79565093  0.83755859  0.27872060  1
  K  K5  1  0.79565093  0.66244141  0.72127940  1
  Au  Au0  1  -0.00000000  0.50000000  0.50000000  1
  Au  Au1  1  -0.00000000  0.00000000  0.50000000  1
  Se  Se0  1  0.30301939  0.54857426  0.62127846  1
  Se  Se1  1  0.63256888  0.57719164  0.26592421  1
  Se  Se2  1  0.36743112  0.07719164  0.26592421  1
  Se  Se3  1  0.36743112  0.42280836  0.73407579  1
  Se  Se4  1  0.91718549  0.53533715  0.14691872  1
  Se  Se5  1  0.91718549  0.96466285  0.85308128  1
  Se  Se6  1  0.08281451  0.46466285  0.85308128  1
  Se  Se7  1  0.08281451  0.03533715  0.14691872  1
  Se  Se8  1  0.67713713  0.41847419  0.06986468  1
  Se  Se9  1  0.63256888  0.92280836  0.73407579  1
  Se  Se10  1  0.32286287  0.58152581  0.93013532  1
  Se  Se11  1  0.32286287  0.91847419  0.06986468  1
  Se  Se12  1  0.69606547  0.26631657  0.15127954  1
  Se  Se13  1  0.69606547  0.23368343  0.84872046  1
  Se  Se14  1  0.30393453  0.73368343  0.84872046  1
  Se  Se15  1  0.30393453  0.76631657  0.15127954  1
  Se  Se16  1  0.10344340  0.65805686  0.41316047  1
  Se  Se17  1  0.10344340  0.84194314  0.58683953  1
  Se  Se18  1  0.89655660  0.34194314  0.58683953  1
  Se  Se19  1  0.89655660  0.15805686  0.41316047  1
  Se  Se20  1  0.61393232  0.25000000  0.50000000  1
  Se  Se21  1  0.38606768  0.75000000  0.50000000  1
  Se  Se22  1  0.69698061  0.45142574  0.37872154  1
  Se  Se23  1  0.69698061  0.04857426  0.62127846  1
  Se  Se24  1  0.67713713  0.08152581  0.93013532  1
  Se  Se25  1  0.30301939  0.95142574  0.37872154  1
loop_
_geom_bond_atom_site_label_1
_geom_bond_atom_site_label_2
_geom_bond_distance
_geom_bond_site_symmetry_2
K0 Se13 3.300145 1_555
K0 Se23 3.325785 1_555
K0 Se13 3.361784 1_455
K0 Se23 3.380253 1_455
K0 Se18 3.436542 1_455
K0 Se5 3.548576 1_445
K0 Se3 3.687884 1_555
K1 Se12 3.300145 1_555
K1 Se22 3.325785 1_555
K1 Se12 3.361784 1_455
K1 Se22 3.380253 1_455
K1 Se19 3.436542 1_455
K1 Se4 3.548576 1_455
K1 Se2 3.687884 1_555
K2 Se13 3.295507 1_454
K2 Se12 3.295507 1_455
K2 Se12 3.487197 1_555
K2 Se13 3.487197 1_554
K2 Se24 3.581761 1_454
K2 Se8 3.581761 1_455
K2 Se6 3.583717 1_554
K2 Se7 3.583717 1_555
K2 Se24 3.631925 1_554
K2 Se8 3.631925 1_555
K3 Se15 3.295507 1_655
K3 Se14 3.295507 1_654
K3 Se15 3.487197 1_555
K3 Se14 3.487197 1_554
K3 Se11 3.581761 1_655
K3 Se10 3.581761 1_654
K3 Se4 3.583717 1_555
K3 Se5 3.583717 1_554
K3 Se11 3.631925 1_555
K3 Se10 3.631925 1_554
K4 Se15 3.300145 1_555
K4 Se25 3.325785 1_555
K4 Se15 3.361784 1_655
K4 Se25 3.380253 1_655
K4 Se16 3.436542 1_655
K4 Se7 3.548576 1_665
K4 Se1 3.687884 1_555
K5 Se14 3.300145 1_555
K5 Se0 3.325785 1_555
K5 Se14 3.361784 1_655
K5 Se0 3.380253 1_655
K5 Se17 3.436542 1_655
K5 Se6 3.548576 1_655
K5 Se9 3.687884 1_555
Au0 Se0 2.494082 1_555
Au0 Se22 2.494082 1_455
Au0 Se16 2.506961 1_555
Au0 Se18 2.506961 1_455
Au1 Se25 2.494082 1_545
Au1 Se23 2.494082 1_455
Au1 Se17 2.506961 1_545
Au1 Se19 2.506961 1_455
Se0 Se3 2.355667 1_555
Se1 Se22 2.355667 1_555
Se1 Se4 2.384811 1_555
Se2 Se25 2.355667 1_545
Se2 Se7 2.384811 1_555
Se3 Se6 2.384811 1_555
Se4 Se8 2.369764 1_555
Se5 Se9 2.384811 1_555
Se10 Se14 2.348592 1_555
Se10 Se6 2.369764 1_555
Se11 Se15 2.348592 1_555
Se11 Se7 2.369764 1_565
Se12 Se8 2.348592 1_555
Se13 Se24 2.348592 1_555
Se16 Se21 2.348808 1_555
Se17 Se21 2.348808 1_555
Se18 Se20 2.348808 1_555
Se19 Se20 2.348808 1_555
Se23 Se9 2.355667 1_545
Se24 Se5 2.369764 1_545
