# generated using pymatgen
data_Fe7S8
_symmetry_space_group_name_H-M   'P 1'
_cell_length_a   6.64482143
_cell_length_b   6.64482143
_cell_length_c   15.77436300
_cell_angle_alpha   90.00000000
_cell_angle_beta   90.00000000
_cell_angle_gamma   119.99999435
_symmetry_Int_Tables_number   1
_chemical_formula_structural   Fe7S8
_chemical_formula_sum   'Fe21 S24'
_cell_volume   603.18303217
_cell_formula_units_Z   3
loop_
 _symmetry_equiv_pos_site_id
 _symmetry_equiv_pos_as_xyz
  1  'x, y, z'
loop_
 _atom_site_type_symbol
 _atom_site_label
 _atom_site_symmetry_multiplicity
 _atom_site_fract_x
 _atom_site_fract_y
 _atom_site_fract_z
 _atom_site_occupancy
  Fe  Fe0  1  0.47936500  0.47245400  0.17967600  1
  Fe  Fe1  1  0.52754600  0.00691200  0.51301000  1
  Fe  Fe2  1  0.99308800  0.52063500  0.84634300  1
  Fe  Fe3  1  0.43273200  0.96295700  0.16240900  1
  Fe  Fe4  1  0.03704300  0.46977400  0.49574300  1
  Fe  Fe5  1  0.53022600  0.56726800  0.82907600  1
  Fe  Fe6  1  0.01249500  0.96216500  0.16220500  1
  Fe  Fe7  1  0.03783500  0.05033000  0.49553800  1
  Fe  Fe8  1  0.94967000  0.98750500  0.82887200  1
  Fe  Fe9  1  0.01012900  0.54171600  0.15383500  1
  Fe  Fe10  1  0.45828400  0.46841300  0.48716900  1
  Fe  Fe11  1  0.53158700  0.98987100  0.82050200  1
  Fe  Fe12  1  0.52737200  0.00215500  0.33439800  1
  Fe  Fe13  1  0.99784500  0.52521700  0.66773200  1
  Fe  Fe14  1  0.47478300  0.47262800  0.00106500  1
  Fe  Fe15  1  0.95203800  0.00003400  0.32496200  1
  Fe  Fe16  1  0.99996600  0.95200300  0.65829500  1
  Fe  Fe17  1  0.04799700  0.04796200  0.99162900  1
  Fe  Fe18  1  0.95529400  0.43026400  0.31971600  1
  Fe  Fe19  1  0.56973600  0.52503000  0.65304900  1
  Fe  Fe20  1  0.47497000  0.04470600  0.98638300  1
  S  S0  1  0.16435700  0.33018100  0.09056900  1
  S  S1  1  0.66981900  0.83417600  0.42390200  1
  S  S2  1  0.16582400  0.83564300  0.75723600  1
  S  S3  1  0.15946400  0.83448600  0.06603000  1
  S  S4  1  0.16551400  0.32497800  0.39936300  1
  S  S5  1  0.67502200  0.84053600  0.73269600  1
  S  S6  1  0.64525200  0.32625800  0.08884200  1
  S  S7  1  0.67374200  0.31899400  0.42217600  1
  S  S8  1  0.68100600  0.35474800  0.75550900  1
  S  S9  1  0.64264700  0.80398100  0.08866300  1
  S  S10  1  0.19601900  0.83866600  0.42199600  1
  S  S11  1  0.16133400  0.35735300  0.75533000  1
  S  S12  1  0.31722900  0.14342900  0.25465000  1
  S  S13  1  0.85657100  0.17380000  0.58798300  1
  S  S14  1  0.82620000  0.68277100  0.92131700  1
  S  S15  1  0.31385800  0.64949500  0.24819000  1
  S  S16  1  0.35050500  0.66436300  0.58152300  1
  S  S17  1  0.33563700  0.68614200  0.91485600  1
  S  S18  1  0.81879500  0.64735400  0.25161100  1
  S  S19  1  0.35264600  0.17144100  0.58494400  1
  S  S20  1  0.82855900  0.18120500  0.91827700  1
  S  S21  1  0.80610400  0.13971400  0.22894400  1
  S  S22  1  0.86028600  0.66639000  0.56227700  1
  S  S23  1  0.33361000  0.19389600  0.89561000  1
loop_
_geom_bond_atom_site_label_1
_geom_bond_atom_site_label_2
_geom_bond_distance
_geom_bond_site_symmetry_2
Fe0 S12 2.232470 1_555
Fe0 S15 2.248385 1_555
Fe0 S18 2.259224 1_555
Fe0 S0 2.296083 1_555
Fe0 S6 2.298395 1_555
Fe0 S9 2.387703 1_555
Fe1 S13 2.232462 1_555
Fe1 S16 2.248382 1_545
Fe1 S19 2.259211 1_555
Fe1 S1 2.296098 1_545
Fe1 S7 2.298391 1_555
Fe1 S10 2.387713 1_545
Fe2 S14 2.232465 1_555
Fe2 S17 2.248382 1_655
Fe2 S20 2.259216 1_555
Fe2 S2 2.296084 1_655
Fe2 S8 2.298391 1_555
Fe2 S11 2.387708 1_655
Fe3 S3 2.187967 1_555
Fe3 S12 2.250484 1_565
Fe3 S15 2.268947 1_555
Fe3 S21 2.392151 1_565
Fe3 S6 2.399911 1_565
Fe3 S9 2.426570 1_555
Fe4 S4 2.187974 1_555
Fe4 S13 2.250470 1_455
Fe4 S16 2.268938 1_555
Fe4 S22 2.392149 1_455
Fe4 S7 2.399912 1_455
Fe4 S10 2.426583 1_555
Fe5 S5 2.187978 1_555
Fe5 S14 2.250479 1_555
Fe5 S17 2.268942 1_555
Fe5 S23 2.392144 1_555
Fe5 S8 2.399906 1_555
Fe5 S11 2.426575 1_555
Fe6 S3 2.191719 1_555
Fe6 S12 2.288792 1_565
Fe6 S18 2.308483 1_455
Fe6 S0 2.409884 1_565
Fe6 S9 2.430454 1_455
Fe6 S21 2.449288 1_465
Fe7 S4 2.191719 1_555
Fe7 S13 2.288792 1_455
Fe7 S19 2.308482 1_555
Fe7 S1 2.409884 1_445
Fe7 S10 2.430454 1_545
Fe7 S22 2.449288 1_445
Fe8 S5 2.191730 1_555
Fe8 S14 2.288792 1_555
Fe8 S20 2.308473 1_565
Fe8 S2 2.409884 1_655
Fe8 S11 2.430454 1_665
Fe8 S23 2.449281 1_665
Fe9 S3 2.181111 1_555
Fe9 S15 2.314313 1_555
Fe9 S18 2.319576 1_455
Fe9 S0 2.337190 1_555
Fe9 S6 2.346919 1_455
Fe9 S21 2.599184 1_455
Fe10 S4 2.181121 1_555
Fe10 S16 2.314302 1_555
Fe10 S19 2.319565 1_555
Fe10 S1 2.337197 1_555
Fe10 S7 2.346919 1_555
Fe10 S22 2.599176 1_555
Fe11 S5 2.181121 1_555
Fe11 S17 2.314303 1_555
Fe11 S20 2.319565 1_565
Fe11 S2 2.337190 1_555
Fe11 S8 2.346919 1_565
Fe11 S23 2.599176 1_565
Fe12 S1 2.278529 1_545
Fe12 S7 2.290848 1_555
Fe12 S21 2.310855 1_555
Fe12 S10 2.354883 1_545
Fe12 S12 2.392568 1_555
Fe12 S15 2.455367 1_545
Fe13 S2 2.278529 1_655
Fe13 S8 2.290838 1_555
Fe13 S22 2.310866 1_555
Fe13 S11 2.354882 1_655
Fe13 S13 2.392577 1_555
Fe13 S16 2.455375 1_655
Fe14 S0 2.278529 1_555
Fe14 S6 2.290838 1_555
Fe14 S23 2.310866 1_554
Fe14 S9 2.354883 1_555
Fe14 S14 2.392568 1_554
Fe14 S17 2.455375 1_554
Fe15 S4 2.233575 1_655
Fe15 S21 2.235151 1_555
Fe15 S1 2.258412 1_545
Fe15 S18 2.353675 1_545
Fe15 S12 2.390483 1_655
Fe15 S10 2.803447 1_645
Fe16 S5 2.233576 1_555
Fe16 S22 2.235147 1_555
Fe16 S2 2.258419 1_655
Fe16 S19 2.353676 1_665
Fe16 S13 2.390488 1_565
Fe16 S11 2.803461 1_665
Fe17 S3 2.233571 1_546
Fe17 S23 2.235158 1_555
Fe17 S0 2.258412 1_556
Fe17 S20 2.353688 1_455
Fe17 S14 2.390484 1_445
Fe17 S9 2.803452 1_446
Fe18 S21 2.201476 1_555
Fe18 S4 2.235277 1_655
Fe18 S7 2.296905 1_555
Fe18 S18 2.316480 1_555
Fe18 S15 2.366652 1_655
Fe18 S10 2.861002 1_655
Fe19 S22 2.201476 1_555
Fe19 S5 2.235277 1_555
Fe19 S8 2.296905 1_555
Fe19 S19 2.316480 1_555
Fe19 S16 2.366652 1_555
Fe19 S11 2.861011 1_555
Fe20 S23 2.201486 1_555
Fe20 S3 2.235277 1_546
Fe20 S6 2.296894 1_556
Fe20 S20 2.316488 1_555
Fe20 S17 2.366659 1_545
Fe20 S9 2.861002 1_546
