# generated using pymatgen
data_MgV4O8
_symmetry_space_group_name_H-M   'P 1'
_cell_length_a   5.39391470
_cell_length_b   5.72874042
_cell_length_c   5.90273573
_cell_angle_alpha   61.13299510
_cell_angle_beta   101.98095850
_cell_angle_gamma   101.96554012
_symmetry_Int_Tables_number   1
_chemical_formula_structural   MgV4O8
_chemical_formula_sum   'Mg1 V4 O8'
_cell_volume   155.02688130
_cell_formula_units_Z   1
loop_
 _symmetry_equiv_pos_site_id
 _symmetry_equiv_pos_as_xyz
  1  'x, y, z'
loop_
 _atom_site_type_symbol
 _atom_site_label
 _atom_site_symmetry_multiplicity
 _atom_site_fract_x
 _atom_site_fract_y
 _atom_site_fract_z
 _atom_site_occupancy
  Mg  Mg0  1  0.82425877  0.14006189  0.13649356  1
  V  V0  1  0.08499619  0.70855924  0.20764431  1
  V  V1  1  0.07499265  0.20998333  0.70503457  1
  V  V2  1  0.46400620  0.26635819  0.28372988  1
  V  V3  1  0.49697877  0.74972765  0.73995390  1
  O  O0  1  0.17284701  0.09756182  0.11913582  1
  O  O1  1  0.61986694  0.91257700  0.42657360  1
  O  O2  1  0.59444226  0.42116141  0.92067838  1
  O  O3  1  0.85549936  0.37580591  0.34928213  1
  O  O4  1  0.17548431  0.59336041  0.57842265  1
  O  O5  1  0.30836369  0.62234101  0.09117088  1
  O  O6  1  0.33085698  0.08512074  0.62091360  1
  O  O7  1  0.81685088  0.91261939  0.91620472  1
loop_
_geom_bond_atom_site_label_1
_geom_bond_atom_site_label_2
_geom_bond_distance
_geom_bond_site_symmetry_2
Mg0 O1 1.969532 1_545
Mg0 O0 1.974595 1_655
Mg0 O2 1.985953 1_554
Mg0 O3 2.210327 1_555
Mg0 O7 2.232225 1_544
O0 V2 1.997340 1_555
O0 V0 2.001109 1_545
O0 V1 2.180235 1_554
O1 V3 1.821495 1_555
O1 V2 2.070629 1_565
O2 V3 1.787734 1_555
O2 V2 2.099082 1_556
O3 V0 1.943592 1_655
O3 V1 2.054698 1_655
O3 V2 2.085201 1_555
O4 V0 1.938867 1_555
O4 V1 1.940527 1_555
O4 V3 2.052516 1_555
O5 V0 1.756920 1_555
O5 V2 2.056991 1_555
O5 V3 2.229919 1_554
O6 V1 1.923466 1_555
O6 V2 1.960637 1_555
O6 V3 2.034018 1_545
O7 V1 2.020207 1_665
O7 V0 2.035736 1_656
O7 V3 2.110587 1_555
