# generated using pymatgen
data_CoP4H16(NO8)2
_symmetry_space_group_name_H-M   'P 1'
_cell_length_a   7.05034647
_cell_length_b   7.17719140
_cell_length_c   7.70545265
_cell_angle_alpha   100.05450071
_cell_angle_beta   110.74145976
_cell_angle_gamma   88.74052107
_symmetry_Int_Tables_number   1
_chemical_formula_structural   CoP4H16(NO8)2
_chemical_formula_sum   'Co1 P4 H16 N2 O16'
_cell_volume   358.70170301
_cell_formula_units_Z   1
loop_
 _symmetry_equiv_pos_site_id
 _symmetry_equiv_pos_as_xyz
  1  'x, y, z'
loop_
 _atom_site_type_symbol
 _atom_site_label
 _atom_site_symmetry_multiplicity
 _atom_site_fract_x
 _atom_site_fract_y
 _atom_site_fract_z
 _atom_site_occupancy
  Co  Co0  1  -0.00000000  0.50000000  0.00000000  1
  P  P0  1  0.84896533  0.25913055  0.27176251  1
  P  P1  1  0.15103467  0.74086945  0.72823749  1
  P  P2  1  0.74110883  0.77799166  0.73487652  1
  P  P3  1  0.25889117  0.22200834  0.26512348  1
  H  H0  1  0.64079238  0.83447428  0.19121626  1
  H  H1  1  0.35920762  0.16552572  0.80878374  1
  H  H2  1  0.67343274  0.59973939  0.17005617  1
  H  H3  1  0.32656726  0.40026061  0.82994383  1
  H  H4  1  0.56218747  0.70943481  0.31915704  1
  H  H5  1  0.56185424  0.31920522  0.91522103  1
  H  H6  1  0.10942562  0.70185121  0.33108255  1
  H  H7  1  0.89057438  0.29814879  0.66891745  1
  H  H8  1  0.12413019  0.83614122  0.18975197  1
  H  H9  1  0.41369520  0.72090207  0.56347016  1
  H  H10  1  0.58630480  0.27909793  0.43652984  1
  H  H11  1  0.87586981  0.16385878  0.81024803  1
  H  H12  1  0.75921494  0.01679054  0.03664070  1
  H  H13  1  0.24078506  0.98320946  0.96335930  1
  H  H14  1  0.43781253  0.29056519  0.68084296  1
  H  H15  1  0.43814576  0.68079478  0.08477897  1
  N  N0  1  0.42161474  0.29377225  0.80917316  1
  N  N1  1  0.57838526  0.70622775  0.19082684  1
  O  O0  1  0.05294773  0.72388445  0.20012992  1
  O  O1  1  0.08854671  0.23772402  0.35987545  1
  O  O2  1  0.75314086  0.05727380  0.17130443  1
  O  O3  1  0.91145329  0.76227598  0.64012455  1
  O  O4  1  0.23695283  0.02426782  0.15203378  1
  O  O5  1  0.94705227  0.27611555  0.79987008  1
  O  O6  1  0.78519825  0.32314496  0.43757753  1
  O  O7  1  0.76304717  0.97573218  0.84796622  1
  O  O8  1  0.45001973  0.24502801  0.44848318  1
  O  O9  1  0.54998027  0.75497199  0.55151682  1
  O  O10  1  0.24960246  0.37973320  0.15889878  1
  O  O11  1  0.19482781  0.61319731  0.87244377  1
  O  O12  1  0.21480175  0.67685504  0.56242247  1
  O  O13  1  0.75039754  0.62026680  0.84110122  1
  O  O14  1  0.80517219  0.38680269  0.12755623  1
  O  O15  1  0.24685914  0.94272620  0.82869557  1
loop_
_geom_bond_atom_site_label_1
_geom_bond_atom_site_label_2
_geom_bond_distance
_geom_bond_site_symmetry_2
Co0 O5 1.962858 1_454
Co0 O0 1.962858 1_555
Co0 O13 2.029073 1_454
Co0 O10 2.029073 1_555
Co0 O11 2.190216 1_554
Co0 O14 2.190216 1_455
H0 N1 1.027976 1_555
H1 N0 1.027976 1_555
H2 N1 1.034189 1_555
H3 N0 1.034189 1_555
H4 N1 1.031166 1_555
H5 N0 1.030647 1_555
H6 O0 0.984936 1_555
H7 O5 0.984936 1_555
H8 O0 0.987973 1_555
H8 O4 1.699492 1_565
H9 O9 1.035568 1_555
H9 O12 1.441159 1_555
H10 O8 1.035568 1_555
H10 O6 1.441159 1_555
H11 O5 0.987973 1_555
H11 O7 1.699492 1_545
H12 O2 1.043369 1_555
H12 O7 1.441891 1_544
H13 O15 1.043369 1_555
H13 O4 1.441891 1_566
H14 N0 1.031166 1_555
H15 N1 1.030647 1_555
O1 P0 1.597013 1_455
O1 P3 1.604529 1_555
O2 P0 1.560633 1_555
O3 P1 1.597013 1_655
O3 P2 1.604529 1_555
O4 P3 1.509908 1_555
O6 P0 1.496158 1_555
O7 P2 1.509908 1_555
O8 P3 1.555337 1_555
O9 P2 1.555337 1_555
O10 P3 1.496002 1_555
O11 P1 1.506578 1_555
O12 P1 1.496158 1_555
O13 P2 1.496002 1_555
O14 P0 1.506578 1_555
O15 P1 1.560633 1_555
