# generated using pymatgen
data_MgMn6(O2F)4
_symmetry_space_group_name_H-M   'P 1'
_cell_length_a   7.03422708
_cell_length_b   5.91695568
_cell_length_c   5.87948393
_cell_angle_alpha   84.40997813
_cell_angle_beta   74.80758191
_cell_angle_gamma   73.00454406
_symmetry_Int_Tables_number   1
_chemical_formula_structural   MgMn6(O2F)4
_chemical_formula_sum   'Mg1 Mn6 O8 F4'
_cell_volume   225.78790113
_cell_formula_units_Z   1
loop_
 _symmetry_equiv_pos_site_id
 _symmetry_equiv_pos_as_xyz
  1  'x, y, z'
loop_
 _atom_site_type_symbol
 _atom_site_label
 _atom_site_symmetry_multiplicity
 _atom_site_fract_x
 _atom_site_fract_y
 _atom_site_fract_z
 _atom_site_occupancy
  Mg  Mg0  1  0.49736939  0.50926796  0.00068314  1
  Mn  Mn0  1  0.83569769  0.67429380  0.66635955  1
  Mn  Mn1  1  0.66674725  0.30204432  0.37886533  1
  Mn  Mn2  1  0.32677745  0.71383565  0.61725243  1
  Mn  Mn3  1  0.14597869  0.33129295  0.36138545  1
  Mn  Mn4  1  0.50304851  0.99890270  0.99565322  1
  Mn  Mn5  1  0.99610223  0.01233118  -0.00532742  1
  O  O0  1  0.30203280  0.84821381  0.92617315  1
  O  O1  1  0.61060950  0.53143105  0.62863631  1
  O  O2  1  0.96121189  0.17902008  0.27944283  1
  O  O3  1  0.68838333  0.16634426  0.07219104  1
  O  O4  1  0.03405031  0.81712055  0.73055795  1
  O  O5  1  0.37898984  0.47749749  0.37280395  1
  O  O6  1  0.68588546  0.70290965  -0.00288293  1
  O  O7  1  0.97631206  0.63129855  0.34993915  1
  F  F0  1  0.62902666  0.02448697  0.62353181  1
  F  F1  1  0.31487660  0.32005240  0.97695022  1
  F  F2  1  0.34391393  0.00901989  0.36847289  1
  F  F3  1  0.01965440  0.31016274  0.73074193  1
loop_
_geom_bond_atom_site_label_1
_geom_bond_atom_site_label_2
_geom_bond_distance
_geom_bond_site_symmetry_2
Mg0 O6 1.985102 1_555
Mg0 O1 2.128038 1_554
Mg0 O5 2.138236 1_555
Mg0 O3 2.152979 1_555
Mg0 O0 2.153004 1_554
Mn0 O7 1.866750 1_555
Mn0 O6 1.951082 1_556
Mn0 O4 1.957266 1_655
Mn0 O1 2.067281 1_555
Mn1 O2 1.931022 1_555
Mn1 O1 1.981347 1_555
Mn1 O5 1.994584 1_555
Mn1 O3 1.996439 1_555
Mn2 O4 1.918833 1_555
Mn2 O1 1.987905 1_555
Mn2 O5 1.992661 1_555
Mn2 O0 1.999041 1_555
Mn3 O7 1.833109 1_455
Mn3 O2 1.957145 1_455
Mn3 O5 2.082611 1_555
Mn4 O6 1.845963 1_556
Mn4 O3 2.008255 1_566
Mn4 O0 2.017909 1_555
Mn5 O4 1.941315 1_644
Mn5 O2 1.949648 1_555
Mn5 O3 2.033280 1_555
Mn5 O0 2.033844 1_644
F0 Mn1 2.105063 1_555
F0 Mn4 2.143068 1_545
F0 Mn0 2.190798 1_545
F1 Mg0 1.971116 1_556
F1 Mn4 1.984992 1_545
F1 Mn3 2.258413 1_556
F2 Mn3 2.009805 1_555
F2 Mn2 2.176591 1_545
F2 Mn4 2.182150 1_544
F3 Mn3 2.126463 1_555
F3 Mn0 2.219864 1_455
F3 Mn5 2.245924 1_456
