# generated using pymatgen
data_Na3YZnSi(SO6)2
_symmetry_space_group_name_H-M   'P 1'
_cell_length_a   9.24884951
_cell_length_b   9.31219855
_cell_length_c   23.00837404
_cell_angle_alpha   88.95691084
_cell_angle_beta   90.00000000
_cell_angle_gamma   119.77521914
_symmetry_Int_Tables_number   1
_chemical_formula_structural   Na3YZnSi(SO6)2
_chemical_formula_sum   'Na18 Y6 Zn6 Si6 S12 O72'
_cell_volume   1719.65056795
_cell_formula_units_Z   6
loop_
 _symmetry_equiv_pos_site_id
 _symmetry_equiv_pos_as_xyz
  1  'x, y, z'
loop_
 _atom_site_type_symbol
 _atom_site_label
 _atom_site_symmetry_multiplicity
 _atom_site_fract_x
 _atom_site_fract_y
 _atom_site_fract_z
 _atom_site_occupancy
  Na  Na0  1  0.62676929  0.01162610  0.25272803  1
  Na  Na1  1  0.00496089  0.64345374  0.23758930  1
  Na  Na2  1  0.63849285  0.64345374  0.73758930  1
  Na  Na3  1  0.38485681  0.01162610  0.75272803  1
  Na  Na4  1  0.31917167  0.35152231  0.58456956  1
  Na  Na5  1  0.65096642  0.94255906  0.57947975  1
  Na  Na6  1  0.29159364  0.94255906  0.07947975  1
  Na  Na7  1  0.03235164  0.35152231  0.08456956  1
  Na  Na8  1  0.98404714  0.68643591  0.92421873  1
  Na  Na9  1  0.68930148  0.02588740  0.90395305  1
  Na  Na10  1  0.33658492  0.02588740  0.40395305  1
  Na  Na11  1  0.70238778  0.68643591  0.42421873  1
  Na  Na12  1  0.97170626  0.98240713  0.49279388  1
  Na  Na13  1  0.01070087  0.98240713  0.99279388  1
  Na  Na14  1  0.65686458  0.30607863  0.82668798  1
  Na  Na15  1  0.64921506  0.30607863  0.32668798  1
  Na  Na16  1  0.33157043  0.66615287  0.16066770  1
  Na  Na17  1  0.33458145  0.66615287  0.66066770  1
  Y  Y0  1  0.98538021  0.98600663  0.64907504  1
  Y  Y1  1  0.00062642  0.98600663  0.14907504  1
  Y  Y2  1  0.65634890  0.33479546  0.98354322  1
  Y  Y3  1  0.67844756  0.33479546  0.48354322  1
  Y  Y4  1  0.33647681  0.67406173  0.31759331  1
  Y  Y5  1  0.33758392  0.67406173  0.81759331  1
  Zn  Zn0  1  0.01040822  0.01511522  0.34730048  1
  Zn  Zn1  1  0.00470700  0.01511522  0.84730048  1
  Zn  Zn2  1  0.68073229  0.33649345  0.68146553  1
  Zn  Zn3  1  0.65576216  0.33649345  0.18146553  1
  Zn  Zn4  1  0.29491542  0.67401906  0.01286282  1
  Zn  Zn5  1  0.37910264  0.67401906  0.51286282  1
  Si  Si0  1  0.30648267  0.01256579  0.25229528  1
  Si  Si1  1  0.70608312  0.01256579  0.75229528  1
  Si  Si2  1  0.66083552  0.62399348  0.58467891  1
  Si  Si3  1  0.96315895  0.62399348  0.08467891  1
  Si  Si4  1  0.32324012  0.97281518  0.91440806  1
  Si  Si5  1  0.64957406  0.97281518  0.41440806  1
  S  S0  1  0.70228410  0.69674197  0.25361242  1
  S  S1  1  0.99569636  0.29587289  0.24921230  1
  S  S2  1  0.30017652  0.29587289  0.74921230  1
  S  S3  1  0.99445787  0.69674197  0.75361242  1
  S  S4  1  0.97511990  0.34161520  0.58557432  1
  S  S5  1  0.36998580  0.03310854  0.58477266  1
  S  S6  1  0.66312374  0.03310854  0.08477266  1
  S  S7  1  0.36649629  0.34161520  0.08557432  1
  S  S8  1  0.62920792  0.67030657  0.91859560  1
  S  S9  1  0.03516515  0.36304857  0.92079784  1
  S  S10  1  0.32788242  0.36304857  0.42079784  1
  S  S11  1  0.04109764  0.67030657  0.41859560  1
  O  O0  1  0.21324028  0.02438085  0.31175964  1
  O  O1  1  0.79932271  0.77638941  0.30624668  1
  O  O2  1  0.97760461  0.18836426  0.29989501  1
  O  O3  1  0.21075965  0.18836426  0.79989501  1
  O  O4  1  0.97706670  0.77638941  0.80624668  1
  O  O5  1  0.81114057  0.02438085  0.81175964  1
  O  O6  1  0.78933634  0.98005614  0.69473556  1
  O  O7  1  0.20988497  0.22189212  0.69429689  1
  O  O8  1  0.02733834  0.80789837  0.70160485  1
  O  O9  1  0.78056003  0.80789837  0.20160485  1
  O  O10  1  0.01200715  0.22189212  0.19429689  1
  O  O11  1  0.19071980  0.98005614  0.19473556  1
  O  O12  1  0.89075927  0.35377374  0.63758905  1
  O  O13  1  0.47287247  0.11110331  0.63667035  1
  O  O14  1  0.64086877  0.50887055  0.64282859  1
  O  O15  1  0.86800277  0.50887055  0.14282859  1
  O  O16  1  0.63823184  0.11110331  0.13667035  1
  O  O17  1  0.46301547  0.35377374  0.13758905  1
  O  O18  1  0.43999800  0.30654560  0.03364031  1
  O  O19  1  0.86636520  0.53878388  0.02460513  1
  O  O20  1  0.68216139  0.13495695  0.03116159  1
  O  O21  1  0.45279656  0.13495695  0.53116159  1
  O  O22  1  0.67241969  0.53878388  0.52460513  1
  O  O23  1  0.86654861  0.30654560  0.53364031  1
  O  O24  1  0.53016809  0.67431423  0.96802023  1
  O  O25  1  0.13113494  0.44087450  0.97430192  1
  O  O26  1  0.29197655  0.85891984  0.97461002  1
  O  O27  1  0.56694228  0.85891984  0.47461002  1
  O  O28  1  0.30973856  0.44087450  0.47430192  1
  O  O29  1  0.14414514  0.67431423  0.46802023  1
  O  O30  1  0.11087106  0.65050297  0.36272790  1
  O  O31  1  0.52850720  0.88212203  0.35837387  1
  O  O32  1  0.34478047  0.46655428  0.36891477  1
  O  O33  1  0.12177281  0.46655428  0.86891477  1
  O  O34  1  0.35361383  0.88212203  0.85837387  1
  O  O35  1  0.53963091  0.65050297  0.86272790  1
  O  O36  1  0.03121975  0.82524107  0.41672408  1
  O  O37  1  0.82982712  0.97769226  0.40670781  1
  O  O38  1  0.18559261  0.19320548  0.41748813  1
  O  O39  1  0.00761287  0.19320548  0.91748813  1
  O  O40  1  0.14786513  0.97769226  0.90670781  1
  O  O41  1  0.79402132  0.82524107  0.91672408  1
  O  O42  1  0.00182981  0.19385819  0.58965882  1
  O  O43  1  0.20763820  0.03049571  0.58841279  1
  O  O44  1  0.81772840  0.81755071  0.58509874  1
  O  O45  1  -0.00017769  0.81755071  0.08509874  1
  O  O46  1  0.82285751  0.03049571  0.08841279  1
  O  O47  1  0.19202837  0.19385819  0.08965882  1
  O  O48  1  0.67193849  0.17033646  0.74414808  1
  O  O49  1  0.46904127  0.31305722  0.74810684  1
  O  O50  1  0.83951611  0.53681239  0.74690308  1
  O  O51  1  0.69729728  0.53681239  0.24690308  1
  O  O52  1  0.84401696  0.31305722  0.24810684  1
  O  O53  1  0.49839896  0.17033646  0.24414808  1
  O  O54  1  0.66249973  0.52858377  0.92145737  1
  O  O55  1  0.86738718  0.35343587  0.92200691  1
  O  O56  1  0.50126688  0.14889322  0.91843327  1
  O  O57  1  0.64762734  0.14889322  0.41843327  1
  O  O58  1  0.48604968  0.35343587  0.42200691  1
  O  O59  1  0.86608504  0.52858377  0.42145737  1
  O  O60  1  0.35045022  0.49038792  0.07747102  1
  O  O61  1  0.15252492  0.63898141  0.08391780  1
  O  O62  1  0.51762165  0.86520801  0.07965447  1
  O  O63  1  0.34758536  0.86520801  0.57965447  1
  O  O64  1  0.48645549  0.63898141  0.58391780  1
  O  O65  1  0.13993670  0.49038792  0.57747102  1
  O  O66  1  0.32058080  0.83856954  0.25371689  1
  O  O67  1  0.53099696  0.67405567  0.25616588  1
  O  O68  1  0.14484255  0.46534921  0.25346993  1
  O  O69  1  0.32050566  0.46534921  0.75346993  1
  O  O70  1  0.14305771  0.67405567  0.75616588  1
  O  O71  1  0.51798774  0.83856954  0.75371689  1
loop_
_geom_bond_atom_site_label_1
_geom_bond_atom_site_label_2
_geom_bond_distance
_geom_bond_site_symmetry_2
Na0 O53 2.316265 1_555
Na0 O66 2.466413 1_545
Na0 O52 2.513002 1_555
Na0 O31 2.644526 1_545
Na0 O16 2.795042 1_555
Na0 O67 2.810340 1_545
Na1 O51 2.512935 1_455
Na1 O15 2.540009 1_455
Na1 O68 2.582078 1_555
Na1 O66 2.591718 1_555
Na1 O52 2.676702 1_455
Na1 O11 2.878870 1_555
Na1 O30 3.032629 1_555
Na2 O50 2.512943 1_555
Na2 O14 2.540012 1_555
Na2 O69 2.582085 1_555
Na2 O71 2.591726 1_555
Na2 O49 2.676702 1_555
Na2 O6 2.878870 1_555
Na2 O35 3.032632 1_555
Na3 O48 2.316272 1_555
Na3 O71 2.466405 1_545
Na3 O49 2.512999 1_555
Na3 O34 2.644525 1_545
Na3 O13 2.795043 1_555
Na3 O70 2.810343 1_545
Na4 O64 2.333401 1_555
Na4 O42 2.549048 1_555
Na4 O65 2.562873 1_555
Na4 O43 2.633700 1_555
Na4 O28 2.670572 1_555
Na4 O7 2.744066 1_555
Na4 O14 2.921968 1_555
Na5 O44 2.351272 1_555
Na5 O64 2.456562 1_555
Na5 O63 2.526775 1_555
Na5 O27 2.549474 1_555
Na5 O6 2.895152 1_555
Na5 O42 2.922216 1_665
Na6 O45 2.351280 1_555
Na6 O61 2.456561 1_555
Na6 O62 2.526757 1_555
Na6 O26 2.549472 1_554
Na6 O11 2.895156 1_555
Na6 O47 2.922223 1_565
Na7 O61 2.333403 1_555
Na7 O47 2.549039 1_555
Na7 O60 2.562856 1_555
Na7 O46 2.633701 1_455
Na7 O25 2.670569 1_554
Na7 O10 2.744064 1_555
Na7 O15 2.921968 1_455
Na8 O40 2.385991 1_655
Na8 O54 2.582774 1_555
Na8 O19 2.609223 1_556
Na8 O41 2.652838 1_555
Na8 O55 2.732288 1_555
Na8 O26 2.749487 1_655
Na8 O4 2.836274 1_555
Na9 O5 2.405493 1_555
Na9 O41 2.508569 1_545
Na9 O56 2.537707 1_555
Na9 O39 2.579473 1_655
Na9 O55 2.691749 1_555
Na9 O34 2.907624 1_545
Na10 O0 2.405489 1_555
Na10 O36 2.508562 1_545
Na10 O57 2.537723 1_555
Na10 O38 2.579465 1_555
Na10 O58 2.691748 1_555
Na10 O31 2.907624 1_545
Na11 O37 2.385990 1_555
Na11 O59 2.582790 1_555
Na11 O22 2.609226 1_555
Na11 O36 2.652846 1_655
Na11 O58 2.732284 1_555
Na11 O27 2.749487 1_555
Na11 O1 2.836275 1_555
Na12 O37 2.364945 1_555
Na12 O36 2.530160 1_655
Na12 O44 2.570065 1_555
Na12 O38 2.605406 1_665
Na12 O42 2.921799 1_665
Na12 O43 2.977851 1_665
Na13 O40 2.364945 1_555
Na13 O41 2.530160 1_455
Na13 O45 2.570065 1_556
Na13 O39 2.605406 1_565
Na13 O47 2.921799 1_566
Na13 O46 2.977851 1_466
Na14 O48 2.342291 1_555
Na14 O49 2.529567 1_555
Na14 O56 2.542607 1_555
Na14 O50 2.663018 1_555
Na14 O55 2.824512 1_555
Na14 O54 3.017901 1_555
Na15 O53 2.342291 1_555
Na15 O52 2.529567 1_555
Na15 O57 2.542607 1_555
Na15 O51 2.663018 1_555
Na15 O58 2.824512 1_555
Na15 O59 3.017900 1_555
Na16 O61 2.350474 1_555
Na16 O62 2.564695 1_555
Na16 O60 2.602238 1_555
Na16 O66 2.731107 1_555
Na16 O68 2.772294 1_555
Na16 O67 2.847189 1_555
Na17 O64 2.350474 1_555
Na17 O63 2.564695 1_555
Na17 O65 2.602238 1_555
Na17 O71 2.731107 1_555
Na17 O69 2.772294 1_555
Na17 O70 2.847189 1_555
O0 Si0 1.651497 1_555
O0 Zn0 2.007995 1_555
O1 S0 1.481135 1_555
O1 Zn0 2.326286 1_665
O2 S1 1.476906 1_555
O2 Zn0 2.075244 1_655
O3 S2 1.476906 1_555
O3 Zn1 2.075244 1_555
O4 S3 1.481135 1_555
O4 Zn1 2.326286 1_665
O5 Si1 1.651497 1_555
O5 Zn1 2.007995 1_655
O6 Si1 1.638469 1_565
O6 Y0 2.071833 1_555
O7 S2 1.492902 1_555
O7 Y0 2.402574 1_445
O8 S3 1.496018 1_455
O8 Y0 2.220029 1_455
O9 S0 1.496018 1_555
O9 Y1 2.220029 1_655
O10 S1 1.492902 1_455
O10 Y1 2.402574 1_545
O11 Si0 1.638469 1_565
O11 Y1 2.071833 1_555
O12 S4 1.465105 1_555
O12 Zn2 2.121793 1_555
O13 S5 1.484587 1_555
O13 Zn2 2.287929 1_555
O14 Si2 1.650635 1_555
O14 Zn2 2.009665 1_555
O15 Si3 1.650635 1_555
O15 Zn3 2.009665 1_555
O16 S6 1.484587 1_555
O16 Zn3 2.287929 1_555
O17 S7 1.465106 1_555
O17 Zn3 2.121793 1_555
O18 S7 1.493760 1_555
O18 Y2 2.206342 1_554
O19 Si3 1.635832 1_555
O19 Y2 2.162088 1_554
O20 S6 1.497866 1_555
O20 Y2 2.255544 1_554
O21 S5 1.497866 1_555
O21 Y3 2.255544 1_555
O22 Si2 1.635833 1_555
O22 Y3 2.162088 1_555
O23 S4 1.493760 1_555
O23 Y3 2.206342 1_555
O24 S8 1.472798 1_555
O24 Zn4 2.406795 1_556
O25 S9 1.490681 1_555
O25 Zn4 2.144559 1_556
O26 Si4 1.664053 1_555
O26 Zn4 1.931681 1_556
O27 Si5 1.664053 1_555
O27 Zn5 1.931681 1_555
O28 S10 1.490681 1_555
O28 Zn5 2.144559 1_555
O29 S11 1.472798 1_555
O29 Zn5 2.406795 1_555
O30 S11 1.493184 1_555
O30 Y4 2.239974 1_555
O31 Si5 1.652165 1_555
O31 Y4 2.106459 1_555
O32 S10 1.478845 1_555
O32 Y4 2.280030 1_555
O33 S9 1.478845 1_555
O33 Y5 2.280030 1_555
O34 Si4 1.652165 1_555
O34 Y5 2.106459 1_555
O35 S8 1.493184 1_555
O35 Y5 2.239974 1_555
O36 S11 1.490124 1_555
O36 Zn0 2.439268 1_565
O37 Si5 1.654477 1_555
O37 Zn0 2.045436 1_665
O38 S10 1.475233 1_555
O38 Zn0 2.326415 1_555
O39 S9 1.475237 1_555
O39 Zn1 2.326415 1_555
O40 Si4 1.654467 1_555
O40 Zn1 2.045436 1_565
O41 S8 1.490129 1_555
O41 Zn1 2.439268 1_665
O42 S4 1.515244 1_455
O42 Y0 2.291199 1_445
O43 S5 1.491923 1_555
O43 Y0 2.340610 1_445
O44 Si2 1.660561 1_555
O44 Y0 2.167971 1_555
O45 Si3 1.660564 1_455
O45 Y1 2.167971 1_555
O46 S6 1.491914 1_555
O46 Y1 2.340610 1_645
O47 S7 1.515249 1_555
O47 Y1 2.291199 1_545
O48 Si1 1.656556 1_555
O48 Zn2 2.067483 1_555
O49 S2 1.488998 1_555
O49 Zn2 2.407375 1_555
O50 S3 1.477869 1_555
O50 Zn2 2.298853 1_555
O51 S0 1.477873 1_555
O51 Zn3 2.298853 1_555
O52 S1 1.488988 1_555
O52 Zn3 2.407375 1_555
O53 Si0 1.656562 1_555
O53 Zn3 2.067483 1_555
O54 S8 1.497105 1_555
O54 Y2 2.259331 1_555
O55 S9 1.509528 1_655
O55 Y2 2.345010 1_555
O56 Si4 1.652971 1_545
O56 Y2 2.219617 1_555
O57 Si5 1.652961 1_545
O57 Y3 2.219617 1_555
O58 S10 1.509546 1_555
O58 Y3 2.345010 1_555
O59 S11 1.497093 1_655
O59 Y3 2.259331 1_555
O60 S7 1.473405 1_555
O60 Zn4 2.485461 1_555
O61 Si3 1.686528 1_455
O61 Zn4 2.016776 1_555
O62 S6 1.478646 1_565
O62 Zn4 2.496293 1_555
O63 S5 1.478639 1_565
O63 Zn5 2.496293 1_555
O64 Si2 1.686546 1_555
O64 Zn5 2.016776 1_555
O65 S4 1.473395 1_455
O65 Zn5 2.485461 1_555
O66 Si0 1.688582 1_565
O66 Y4 2.161050 1_555
O67 S0 1.491625 1_555
O67 Y4 2.287873 1_555
O68 S1 1.498852 1_455
O68 Y4 2.403882 1_555
O69 S2 1.498855 1_555
O69 Y5 2.403882 1_555
O70 S3 1.491616 1_455
O70 Y5 2.287873 1_555
O71 Si1 1.688587 1_565
O71 Y5 2.161050 1_555
