# generated using pymatgen
data_CsMgBiO3
_symmetry_space_group_name_H-M   'P 1'
_cell_length_a   5.32399972
_cell_length_b   5.32111000
_cell_length_c   5.32328177
_cell_angle_alpha   105.25577654
_cell_angle_beta   74.72057786
_cell_angle_gamma   105.26251271
_symmetry_Int_Tables_number   1
_chemical_formula_structural   CsMgBiO3
_chemical_formula_sum   'Cs1 Mg1 Bi1 O3'
_cell_volume   137.26925965
_cell_formula_units_Z   1
loop_
 _symmetry_equiv_pos_site_id
 _symmetry_equiv_pos_as_xyz
  1  'x, y, z'
loop_
 _atom_site_type_symbol
 _atom_site_label
 _atom_site_symmetry_multiplicity
 _atom_site_fract_x
 _atom_site_fract_y
 _atom_site_fract_z
 _atom_site_occupancy
  Cs  Cs0  1  0.91732765  0.08271835  0.91732169  1
  Mg  Mg0  1  0.30222663  0.69778427  0.30221891  1
  Bi  Bi0  1  0.56537969  0.43472739  0.56532938  1
  O  O0  1  0.49139232  0.50856181  0.98227806  1
  O  O1  1  0.49141878  0.01763209  0.49144395  1
  O  O2  1  0.98225494  0.50857608  0.49140802  1
loop_
_geom_bond_atom_site_label_1
_geom_bond_atom_site_label_2
_geom_bond_distance
_geom_bond_site_symmetry_2
Cs0 O0 3.330318 1_545
Cs0 O2 3.330340 1_545
Cs0 O1 3.330641 1_556
Cs0 O1 3.330698 1_655
Cs0 O2 3.330720 1_556
Cs0 O0 3.330725 1_655
Cs0 O2 3.503305 1_555
Cs0 O0 3.503744 1_555
Cs0 O1 3.504857 1_555
Mg0 O1 1.912026 1_565
Mg0 O0 1.912105 1_554
Mg0 O2 1.912148 1_455
Bi0 O2 2.096924 1_555
Bi0 O0 2.097053 1_555
Bi0 O1 2.097061 1_555
