# generated using pymatgen
data_Na6Mg8Nb16Si15(S7O48)3
_symmetry_space_group_name_H-M   'P 1'
_cell_length_a   17.68171778
_cell_length_b   8.84130784
_cell_length_c   22.90979445
_cell_angle_alpha   89.99676574
_cell_angle_beta   89.78341559
_cell_angle_gamma   119.95322309
_symmetry_Int_Tables_number   1
_chemical_formula_structural   Na6Mg8Nb16Si15(S7O48)3
_chemical_formula_sum   'Na6 Mg8 Nb16 Si15 S21 O144'
_cell_volume   3103.08097963
_cell_formula_units_Z   1
loop_
 _symmetry_equiv_pos_site_id
 _symmetry_equiv_pos_as_xyz
  1  'x, y, z'
loop_
 _atom_site_type_symbol
 _atom_site_label
 _atom_site_symmetry_multiplicity
 _atom_site_fract_x
 _atom_site_fract_y
 _atom_site_fract_z
 _atom_site_occupancy
  Na  Na0  1  0.99789396  0.99634172  0.49847961  1
  Na  Na1  1  0.49883075  0.00052051  0.00064528  1
  Na  Na2  1  0.33205002  0.33115908  0.84098782  1
  Na  Na3  1  0.83569587  0.33084096  0.83978697  1
  Na  Na4  1  0.33658681  0.34099039  0.33879327  1
  Na  Na5  1  0.83300259  0.34013748  0.33897265  1
  Mg  Mg0  1  0.99863557  0.99594008  0.34770361  1
  Mg  Mg1  1  0.50168494  0.99667816  0.85202642  1
  Mg  Mg2  1  0.99609915  0.98927000  0.64896256  1
  Mg  Mg3  1  0.49675466  0.00259734  0.14969077  1
  Mg  Mg4  1  0.33064782  0.32668624  0.98007047  1
  Mg  Mg5  1  0.83745137  0.32974848  0.97973454  1
  Mg  Mg6  1  0.33785438  0.34603253  0.47865989  1
  Mg  Mg7  1  0.83179835  0.33637751  0.47907956  1
  Nb  Nb0  1  0.49693826  0.99756547  0.35811010  1
  Nb  Nb1  1  0.99518620  0.99234748  0.85927703  1
  Nb  Nb2  1  0.50477261  0.99626282  0.64562318  1
  Nb  Nb3  1  0.99508558  0.99947032  0.14938338  1
  Nb  Nb4  1  0.33211945  0.34260991  0.68605364  1
  Nb  Nb5  1  0.83578190  0.34051630  0.69373991  1
  Nb  Nb6  1  0.33352225  0.33154084  0.19372543  1
  Nb  Nb7  1  0.83326058  0.32658331  0.18992952  1
  Nb  Nb8  1  0.16265122  0.66452233  0.01997942  1
  Nb  Nb9  1  0.66685675  0.66978673  0.02650763  1
  Nb  Nb10  1  0.16565970  0.66258467  0.52373553  1
  Nb  Nb11  1  0.66431846  0.66219187  0.51604931  1
  Nb  Nb12  1  0.16447761  0.66532837  0.30273317  1
  Nb  Nb13  1  0.66278127  0.64637085  0.30929647  1
  Nb  Nb14  1  0.16042697  0.67048327  0.81361452  1
  Nb  Nb15  1  0.66477591  0.66588619  0.80402802  1
  Si  Si0  1  0.13805641  0.00225714  0.25184400  1
  Si  Si1  1  0.36164099  0.72173188  0.24790242  1
  Si  Si2  1  0.85623819  0.71269978  0.25358311  1
  Si  Si3  1  0.99696007  0.27611879  0.25390437  1
  Si  Si4  1  0.50076448  0.27678253  0.24699753  1
  Si  Si5  1  0.63923438  0.27781331  0.75239498  1
  Si  Si6  1  0.00323102  0.72674386  0.74726800  1
  Si  Si7  1  0.49579517  0.71325841  0.75367879  1
  Si  Si8  1  0.86159877  0.00172029  0.74797196  1
  Si  Si9  1  0.33514219  0.62540554  0.57968158  1
  Si  Si10  1  0.83752905  0.05375037  0.08058612  1
  Si  Si11  1  0.01662646  0.37470366  0.91730740  1
  Si  Si12  1  0.17181873  0.96835268  0.91733390  1
  Si  Si13  1  0.67130244  0.37311366  0.41575251  1
  Si  Si14  1  0.51784496  0.65862434  0.41431000  1
  S  S0  1  0.64242069  0.99826248  0.24970415  1
  S  S1  1  0.14351305  0.28713023  0.74959535  1
  S  S2  1  0.35630820  0.00032480  0.75031129  1
  S  S3  1  0.47667574  0.33209967  0.58250836  1
  S  S4  1  0.97524824  0.32736066  0.58124325  1
  S  S5  1  0.18783497  0.04776388  0.58072900  1
  S  S6  1  0.69230168  0.04688913  0.58269860  1
  S  S7  1  0.83501395  0.62431041  0.58137441  1
  S  S8  1  0.47481313  0.62345697  0.08131071  1
  S  S9  1  0.97628420  0.62126626  0.08219089  1
  S  S10  1  0.33547421  0.04585390  0.08121385  1
  S  S11  1  0.19051843  0.33382461  0.08238624  1
  S  S12  1  0.68752775  0.32606738  0.08052612  1
  S  S13  1  0.31303977  0.66977148  0.91702290  1
  S  S14  1  0.80637462  0.65982369  0.91735746  1
  S  S15  1  0.52258815  0.37743353  0.91707267  1
  S  S16  1  0.66521423  0.95341615  0.91738180  1
  S  S17  1  0.30707032  0.95352678  0.41722678  1
  S  S18  1  0.81407668  0.96021524  0.41681852  1
  S  S19  1  0.16508054  0.37501279  0.41691619  1
  S  S20  1  0.02265379  0.66809944  0.41731213  1
  O  O0  1  0.10940908  0.04889212  0.31059486  1
  O  O1  1  0.60485162  0.03386717  0.30244623  1
  O  O2  1  0.41831091  0.80145776  0.30799017  1
  O  O3  1  0.91513256  0.77996047  0.30958561  1
  O  O4  1  0.48329160  0.16175570  0.30708134  1
  O  O5  1  0.97566268  0.17017963  0.31157580  1
  O  O6  1  0.10640113  0.17850243  0.80251162  1
  O  O7  1  0.60412022  0.16709941  0.80952528  1
  O  O8  1  0.47235344  0.78250375  0.80948934  1
  O  O9  1  0.98455685  0.80510493  0.80726375  1
  O  O10  1  0.40923913  0.03715305  0.80269998  1
  O  O11  1  0.91851606  0.03467058  0.80804170  1
  O  O12  1  0.39771829  0.97561925  0.69692296  1
  O  O13  1  0.89651000  0.96799713  0.68976678  1
  O  O14  1  0.09417775  0.21633447  0.69631581  1
  O  O15  1  0.58194553  0.19611769  0.69244019  1
  O  O16  1  0.02312876  0.83342012  0.68966942  1
  O  O17  1  0.51273304  0.83101521  0.69346817  1
  O  O18  1  0.39614236  0.82435018  0.18956886  1
  O  O19  1  0.90182721  0.83084821  0.19343980  1
  O  O20  1  0.01540903  0.19989458  0.19311846  1
  O  O21  1  0.52152226  0.21096175  0.18942419  1
  O  O22  1  0.08360899  0.96859894  0.19130687  1
  O  O23  1  0.59297626  0.97207048  0.19636097  1
  O  O24  1  0.43409569  0.35886944  0.63610788  1
  O  O25  1  0.93810805  0.36218776  0.63482295  1
  O  O26  1  0.24294132  0.12277040  0.63481299  1
  O  O27  1  0.74411434  0.12827182  0.63612178  1
  O  O28  1  0.31737706  0.49825891  0.63980694  1
  O  O29  1  0.82137569  0.51407753  0.63522674  1
  O  O30  1  0.43891199  0.51468018  0.13446978  1
  O  O31  1  0.93649669  0.51102485  0.13528266  1
  O  O32  1  0.32029017  0.12541864  0.13459142  1
  O  O33  1  0.81712848  0.13720065  0.13956219  1
  O  O34  1  0.24574219  0.36347381  0.13516554  1
  O  O35  1  0.74144141  0.36449202  0.13390318  1
  O  O36  1  0.23094297  0.30951344  0.03023644  1
  O  O37  1  0.73064761  0.31139378  0.02820933  1
  O  O38  1  0.42302695  0.54031190  0.02932330  1
  O  O39  1  0.92431320  0.54424769  0.03007101  1
  O  O40  1  0.34637087  0.15372289  0.02969791  1
  O  O41  1  0.84843171  0.16190599  0.02442369  1
  O  O42  1  0.23173630  0.15208351  0.52932601  1
  O  O43  1  0.72894292  0.15208279  0.53093058  1
  O  O44  1  0.35070487  0.53476318  0.52675334  1
  O  O45  1  0.84620988  0.53762192  0.53040753  1
  O  O46  1  0.42362020  0.30140385  0.53102898  1
  O  O47  1  0.92262157  0.30556769  0.52983340  1
  O  O48  1  0.26730650  0.69107087  0.97037616  1
  O  O49  1  0.76569833  0.68988312  0.97006846  1
  O  O50  1  0.08329406  0.47360589  0.97397197  1
  O  O51  1  0.57895038  0.46610053  0.96949175  1
  O  O52  1  0.15463990  0.83228427  0.97319014  1
  O  O53  1  0.65592180  0.83951575  0.97042205  1
  O  O54  1  0.26512314  0.84124527  0.47040537  1
  O  O55  1  0.76619795  0.84269363  0.47149099  1
  O  O56  1  0.15665628  0.47396450  0.47082653  1
  O  O57  1  0.65403599  0.47413834  0.47308302  1
  O  O58  1  0.07981058  0.68757352  0.47016595  1
  O  O59  1  0.58297136  0.69267919  0.47383030  1
  O  O60  1  0.06681283  0.64578086  0.36491000  1
  O  O61  1  0.57649430  0.65228551  0.36046446  1
  O  O62  1  0.25394527  0.86823656  0.36505882  1
  O  O63  1  0.75930611  0.87759880  0.36536431  1
  O  O64  1  0.17729405  0.48797274  0.36558118  1
  O  O65  1  0.68205971  0.50122836  0.36031957  1
  O  O66  1  0.07434440  0.49949480  0.86100908  1
  O  O67  1  0.56668404  0.48789493  0.86418628  1
  O  O68  1  0.18195228  0.86078561  0.86051290  1
  O  O69  1  0.67661602  0.86506439  0.86519180  1
  O  O70  1  0.25875071  0.64340420  0.86416602  1
  O  O71  1  0.75420695  0.64031424  0.86465695  1
  O  O72  1  0.01707338  0.82735255  0.41544765  1
  O  O73  1  0.51557912  0.84063600  0.40643895  1
  O  O74  1  0.39400750  0.96532600  0.41245059  1
  O  O75  1  0.89863901  0.96737504  0.41594400  1
  O  O76  1  0.08448746  0.20719683  0.41629955  1
  O  O77  1  0.58002998  0.19047724  0.40594469  1
  O  O78  1  0.01647914  0.19201334  0.90571191  1
  O  O79  1  0.51408374  0.20380892  0.91212208  1
  O  O80  1  0.08087952  0.96895601  0.90516898  1
  O  O81  1  0.58429291  0.96143815  0.91528695  1
  O  O82  1  0.39795110  0.83177617  0.91319333  1
  O  O83  1  0.89397101  0.82236305  0.91191188  1
  O  O84  1  0.48767294  0.17924876  0.59397100  1
  O  O85  1  0.99256078  0.18298229  0.58873090  1
  O  O86  1  0.10095722  0.02643239  0.58880619  1
  O  O87  1  0.60157463  0.02487068  0.59158414  1
  O  O88  1  0.41403856  0.81933103  0.59782671  1
  O  O89  1  0.91173842  0.79966551  0.58740123  1
  O  O90  1  0.49239200  0.80220538  0.08825027  1
  O  O91  1  0.99055185  0.79794086  0.09103360  1
  O  O92  1  0.41140310  0.02187073  0.08683383  1
  O  O93  1  0.91711830  0.01603860  0.09362559  1
  O  O94  1  0.10260533  0.18132093  0.09099108  1
  O  O95  1  0.59992214  0.17599802  0.08752124  1
  O  O96  1  0.34252084  0.15303095  0.73930462  1
  O  O97  1  0.84392902  0.17050616  0.73989768  1
  O  O98  1  0.23415637  0.30163923  0.74289318  1
  O  O99  1  0.73867292  0.31390992  0.73585679  1
  O  O100  1  0.41507454  0.51091907  0.73729432  1
  O  O101  1  0.91730644  0.52327895  0.74086077  1
  O  O102  1  0.34384910  0.51773647  0.24060951  1
  O  O103  1  0.83832910  0.51512991  0.23450989  1
  O  O104  1  0.41486118  0.30811459  0.24000712  1
  O  O105  1  0.91600121  0.31605281  0.23838141  1
  O  O106  1  0.23900514  0.16328019  0.23577595  1
  O  O107  1  0.73239479  0.16263070  0.24386741  1
  O  O108  1  0.32119588  0.51353567  0.92452068  1
  O  O109  1  0.81714209  0.50810284  0.92422591  1
  O  O110  1  0.43743971  0.36783124  0.92341119  1
  O  O111  1  0.92518776  0.36593560  0.91841500  1
  O  O112  1  0.25633958  0.15445782  0.92105142  1
  O  O113  1  0.74284468  0.12612553  0.92272121  1
  O  O114  1  0.31663246  0.12541955  0.42518813  1
  O  O115  1  0.82088598  0.12998862  0.42662083  1
  O  O116  1  0.24316695  0.35961496  0.42386597  1
  O  O117  1  0.75543953  0.35601730  0.42211050  1
  O  O118  1  0.42558596  0.48636908  0.41899815  1
  O  O119  1  0.93814898  0.50828086  0.42459099  1
  O  O120  1  0.18192189  0.49442633  0.07520653  1
  O  O121  1  0.67785563  0.49001265  0.07171076  1
  O  O122  1  0.06559255  0.63628943  0.07592326  1
  O  O123  1  0.56505711  0.63676275  0.07252584  1
  O  O124  1  0.25430467  0.86753372  0.07377755  1
  O  O125  1  0.74818064  0.85094608  0.07131821  1
  O  O126  1  0.17875146  0.86728285  0.57322488  1
  O  O127  1  0.67972588  0.86842765  0.57716792  1
  O  O128  1  0.24681022  0.64531699  0.57186836  1
  O  O129  1  0.75420877  0.63993366  0.57508443  1
  O  O130  1  0.06493559  0.49390364  0.57291331  1
  O  O131  1  0.56500928  0.49201386  0.57746749  1
  O  O132  1  0.15617156  0.83552203  0.26039455  1
  O  O133  1  0.65796518  0.85191527  0.25954916  1
  O  O134  1  0.26259052  0.68580147  0.26580065  1
  O  O135  1  0.76080485  0.69851274  0.25902824  1
  O  O136  1  0.08183771  0.47639423  0.25997344  1
  O  O137  1  0.57964132  0.47754840  0.26076477  1
  O  O138  1  0.16132849  0.46767752  0.75950797  1
  O  O139  1  0.65632190  0.47862924  0.76060158  1
  O  O140  1  0.08364846  0.68503695  0.76149221  1
  O  O141  1  0.58131105  0.68757984  0.75967001  1
  O  O142  1  0.26919252  0.84093032  0.75666715  1
  O  O143  1  0.76241900  0.83950944  0.76595400  1
loop_
_geom_bond_atom_site_label_1
_geom_bond_atom_site_label_2
_geom_bond_distance
_geom_bond_site_symmetry_2
Na0 O75 2.509448 1_555
Na0 O72 2.543077 1_655
Na0 O76 2.547911 1_665
Na0 O89 2.612542 1_555
Na0 O85 2.676062 1_565
Na0 O86 2.686706 1_665
Na1 O92 2.567606 1_555
Na1 O81 2.593485 1_544
Na1 O82 2.606047 1_544
Na1 O95 2.611777 1_555
Na1 O90 2.629428 1_545
Na1 O79 2.632020 1_554
Na2 O112 2.343052 1_555
Na2 O110 2.562551 1_555
Na2 O108 2.570164 1_555
Na2 O98 2.773637 1_555
Na2 O100 2.822733 1_555
Na2 O96 2.868732 1_555
Na3 O111 2.318699 1_555
Na3 O113 2.567112 1_555
Na3 O109 2.610555 1_555
Na3 O97 2.733420 1_555
Na3 O101 2.763458 1_555
Na3 O99 2.899861 1_555
Na4 O118 2.346726 1_555
Na4 O116 2.607976 1_555
Na4 O114 2.645263 1_555
Na4 O102 2.704648 1_555
Na4 O104 2.738625 1_555
Na4 O106 2.887884 1_555
Na5 O117 2.387658 1_555
Na5 O119 2.604216 1_555
Na5 O115 2.670006 1_555
Na5 O107 2.759839 1_555
Na5 O105 2.792212 1_555
Na5 O103 2.825324 1_555
Mg0 O3 1.945116 1_555
Mg0 O0 1.962141 1_665
Mg0 O5 1.962263 1_565
Mg0 O75 2.273166 1_555
Mg0 O72 2.285934 1_655
Mg0 O76 2.334461 1_665
Mg1 O7 1.939128 1_565
Mg1 O8 1.956440 1_555
Mg1 O10 2.162185 1_565
Mg1 O82 2.182553 1_555
Mg1 O81 2.191211 1_555
Mg1 O79 2.213351 1_565
Mg2 O16 1.912493 1_655
Mg2 O13 1.914905 1_555
Mg2 O89 2.131537 1_555
Mg2 O14 2.180024 1_665
Mg2 O86 2.194811 1_665
Mg2 O85 2.224556 1_565
Mg3 O21 1.900456 1_555
Mg3 O18 1.915986 1_545
Mg3 O23 2.140781 1_545
Mg3 O92 2.157203 1_555
Mg3 O95 2.212246 1_555
Mg3 O90 2.234032 1_545
Mg4 O112 1.972060 1_555
Mg4 O40 2.033521 1_556
Mg4 O36 2.041886 1_556
Mg4 O38 2.107614 1_556
Mg4 O108 2.157240 1_555
Mg4 O110 2.162937 1_555
Mg5 O41 1.891305 1_556
Mg5 O111 1.992572 1_555
Mg5 O39 2.095315 1_556
Mg5 O37 2.122282 1_556
Mg5 O113 2.180575 1_555
Mg5 O109 2.191212 1_555
Mg6 O44 1.916617 1_555
Mg6 O118 1.968723 1_555
Mg6 O46 2.122754 1_555
Mg6 O42 2.139815 1_555
Mg6 O116 2.147080 1_555
Mg6 O114 2.172291 1_555
Mg7 O117 1.950357 1_555
Mg7 O45 2.040401 1_555
Mg7 O43 2.097115 1_555
Mg7 O47 2.110941 1_555
Mg7 O115 2.112278 1_555
Mg7 O119 2.128955 1_555
Nb0 O73 1.928429 1_555
Nb0 O77 1.943869 1_565
Nb0 O2 1.965378 1_555
Nb0 O4 1.970775 1_565
Nb0 O74 2.099587 1_555
Nb0 O1 2.177178 1_565
Nb1 O78 1.931142 1_665
Nb1 O80 1.941377 1_655
Nb1 O11 1.968288 1_565
Nb1 O9 1.971563 1_555
Nb1 O83 2.052622 1_555
Nb1 O6 2.239549 1_665
Nb2 O17 1.887369 1_555
Nb2 O88 1.930632 1_555
Nb2 O15 1.933435 1_565
Nb2 O87 2.019399 1_565
Nb2 O84 2.144774 1_565
Nb2 O12 2.153094 1_555
Nb3 O19 1.868906 1_555
Nb3 O20 1.907914 1_665
Nb3 O93 1.941310 1_565
Nb3 O22 1.971022 1_655
Nb3 O91 2.196955 1_555
Nb3 O94 2.217460 1_665
Nb4 O28 1.855908 1_555
Nb4 O100 1.891432 1_555
Nb4 O98 2.045383 1_555
Nb4 O24 2.075267 1_555
Nb4 O26 2.143841 1_555
Nb4 O96 2.154261 1_555
Nb5 O99 1.875827 1_555
Nb5 O101 1.881568 1_555
Nb5 O97 1.901454 1_555
Nb5 O29 2.146924 1_555
Nb5 O25 2.183462 1_555
Nb5 O27 2.206834 1_555
Nb6 O106 1.854495 1_555
Nb6 O104 1.882700 1_555
Nb6 O102 1.896991 1_555
Nb6 O34 2.177589 1_555
Nb6 O32 2.188170 1_555
Nb6 O30 2.214675 1_555
Nb7 O105 1.878686 1_555
Nb7 O103 1.918782 1_555
Nb7 O33 1.934481 1_555
Nb7 O107 2.051956 1_555
Nb7 O31 2.137441 1_555
Nb7 O35 2.225924 1_555
Nb8 O50 1.890840 1_554
Nb8 O52 1.892054 1_554
Nb8 O122 2.050791 1_555
Nb8 O48 2.078733 1_554
Nb8 O124 2.116054 1_555
Nb8 O120 2.119744 1_555
Nb9 O125 1.843492 1_555
Nb9 O123 1.974212 1_555
Nb9 O121 1.986606 1_555
Nb9 O53 2.057097 1_554
Nb9 O49 2.104914 1_554
Nb9 O51 2.141422 1_554
Nb10 O128 1.878526 1_555
Nb10 O130 1.999424 1_555
Nb10 O56 2.003059 1_555
Nb10 O126 2.048978 1_555
Nb10 O58 2.051377 1_555
Nb10 O54 2.071304 1_555
Nb11 O57 1.861732 1_555
Nb11 O59 1.864055 1_555
Nb11 O55 1.987237 1_555
Nb11 O131 2.160989 1_555
Nb11 O129 2.173186 1_555
Nb11 O127 2.206063 1_555
Nb12 O134 1.852981 1_555
Nb12 O132 1.856941 1_555
Nb12 O136 1.859765 1_555
Nb12 O60 2.173572 1_555
Nb12 O64 2.222687 1_555
Nb12 O62 2.223310 1_555
Nb13 O137 1.856500 1_555
Nb13 O65 1.889173 1_555
Nb13 O135 1.931273 1_555
Nb13 O61 1.941861 1_555
Nb13 O133 2.182594 1_555
Nb13 O63 2.296716 1_555
Nb14 O66 1.862975 1_555
Nb14 O140 1.863370 1_555
Nb14 O68 1.869216 1_555
Nb14 O142 2.181374 1_555
Nb14 O138 2.186441 1_555
Nb14 O70 2.202703 1_555
Nb15 O143 1.854720 1_555
Nb15 O139 1.872787 1_555
Nb15 O141 1.881883 1_555
Nb15 O67 2.154134 1_555
Nb15 O69 2.177793 1_555
Nb15 O71 2.203292 1_555
O0 Si0 1.562587 1_555
O1 S0 1.484309 1_545
O2 Si1 1.643520 1_555
O3 Si2 1.573517 1_555
O4 Si4 1.645406 1_555
O5 Si3 1.551987 1_555
O6 S1 1.478914 1_555
O7 Si5 1.563183 1_555
O8 Si7 1.559146 1_555
O9 Si6 1.644188 1_655
O10 S2 1.458317 1_555
O11 Si8 1.646005 1_555
O12 S2 1.494259 1_565
O13 Si8 1.557464 1_565
O14 S1 1.451056 1_555
O15 Si5 1.647562 1_555
O16 Si6 1.555503 1_555
O17 Si7 1.661855 1_555
O18 Si1 1.556375 1_555
O19 Si2 1.670351 1_555
O20 Si3 1.648059 1_455
O21 Si4 1.556544 1_555
O22 Si0 1.631846 1_565
O23 S0 1.455123 1_555
O24 S3 1.517140 1_555
O25 S4 1.492883 1_555
O26 S5 1.512748 1_555
O27 S6 1.485031 1_555
O28 Si9 1.704025 1_555
O29 S7 1.514284 1_555
O30 S8 1.481710 1_555
O31 S9 1.494334 1_555
O32 S10 1.499518 1_555
O33 Si10 1.661994 1_555
O34 S11 1.495863 1_555
O35 S12 1.484928 1_555
O36 S11 1.459966 1_555
O37 S12 1.458280 1_555
O38 S8 1.460666 1_555
O39 S9 1.455138 1_555
O40 S10 1.467737 1_555
O41 Si10 1.555949 1_555
O42 S5 1.455365 1_555
O43 S6 1.443497 1_555
O44 Si9 1.551160 1_555
O45 S7 1.462829 1_555
O46 S3 1.448729 1_555
O47 S4 1.455840 1_555
O48 S13 1.525788 1_555
O49 S14 1.493505 1_555
O50 Si11 1.679828 1_555
O51 S15 1.509608 1_555
O52 Si12 1.676016 1_555
O53 S16 1.533231 1_555
O54 S17 1.509191 1_555
O55 S18 1.574357 1_555
O56 S19 1.562640 1_555
O57 Si13 1.698677 1_555
O58 S20 1.533864 1_555
O59 Si14 1.715169 1_555
O60 S20 1.495542 1_555
O61 Si14 1.627474 1_555
O62 S17 1.476703 1_555
O63 S18 1.470829 1_555
O64 S19 1.486537 1_555
O65 Si13 1.647681 1_555
O66 Si11 1.669690 1_555
O67 S15 1.504015 1_555
O68 Si12 1.673225 1_555
O69 S16 1.495320 1_555
O70 S13 1.492492 1_555
O71 S14 1.479147 1_555
O72 S20 1.460411 1_555
O73 Si14 1.639548 1_555
O74 S17 1.491452 1_555
O75 S18 1.464688 1_555
O76 S19 1.456405 1_555
O77 Si13 1.631845 1_555
O78 Si11 1.635656 1_555
O79 S15 1.470222 1_555
O80 Si12 1.635602 1_555
O81 S16 1.468489 1_555
O82 S13 1.471384 1_555
O83 S14 1.501841 1_555
O84 S3 1.481828 1_555
O85 S4 1.463948 1_555
O86 S5 1.462226 1_555
O87 S6 1.529215 1_555
O88 Si9 1.635420 1_555
O89 S7 1.471149 1_555
O90 S8 1.459224 1_555
O91 S9 1.466817 1_555
O92 S10 1.466140 1_555
O93 Si10 1.628665 1_555
O94 S11 1.475767 1_555
O95 S12 1.459903 1_555
O96 S2 1.508292 1_555
O97 Si8 1.680696 1_555
O98 S1 1.549712 1_555
O99 Si5 1.664765 1_555
O100 Si7 1.683081 1_555
O101 Si6 1.684743 1_655
O102 Si1 1.677393 1_555
O103 Si2 1.670693 1_555
O104 Si4 1.682707 1_555
O105 Si3 1.675957 1_555
O106 Si0 1.675039 1_555
O107 S0 1.533105 1_545
O108 S13 1.468829 1_555
O109 S14 1.454517 1_555
O110 S15 1.471647 1_555
O111 Si11 1.579622 1_655
O112 Si12 1.579088 1_545
O113 S16 1.462541 1_545
O114 S17 1.454369 1_545
O115 S18 1.462108 1_545
O116 S19 1.462730 1_555
O117 Si13 1.575903 1_555
O118 Si14 1.584250 1_555
O119 S20 1.465187 1_655
O120 S11 1.510645 1_555
O121 S12 1.555258 1_555
O122 S9 1.523394 1_455
O123 S8 1.552618 1_555
O124 S10 1.522113 1_565
O125 Si10 1.711683 1_565
O126 S5 1.531629 1_565
O127 S6 1.484903 1_565
O128 Si9 1.667069 1_555
O129 S7 1.509925 1_555
O130 S4 1.544447 1_455
O131 S3 1.498423 1_555
O132 Si0 1.669151 1_565
O133 S0 1.468387 1_555
O134 Si1 1.665944 1_555
O135 Si2 1.632712 1_555
O136 Si3 1.659814 1_455
O137 Si4 1.651254 1_555
O138 S1 1.482345 1_555
O139 Si5 1.656423 1_555
O140 Si6 1.670655 1_555
O141 Si7 1.643502 1_555
O142 S2 1.486773 1_565
O143 Si8 1.668792 1_565
