# generated using pymatgen
data_P4(SO2)3
_symmetry_space_group_name_H-M   'P 1'
_cell_length_a   8.68306400
_cell_length_b   10.18478100
_cell_length_c   12.95302621
_cell_angle_alpha   88.89606238
_cell_angle_beta   90.00000000
_cell_angle_gamma   90.00000000
_symmetry_Int_Tables_number   1
_chemical_formula_structural   P4(SO2)3
_chemical_formula_sum   'P16 S12 O24'
_cell_volume   1145.28961961
_cell_formula_units_Z   4
loop_
 _symmetry_equiv_pos_site_id
 _symmetry_equiv_pos_as_xyz
  1  'x, y, z'
loop_
 _atom_site_type_symbol
 _atom_site_label
 _atom_site_symmetry_multiplicity
 _atom_site_fract_x
 _atom_site_fract_y
 _atom_site_fract_z
 _atom_site_occupancy
  P  P0  1  0.51504800  0.32914200  0.86700300  1
  P  P1  1  0.01504800  0.17085800  0.13299700  1
  P  P2  1  0.21415800  0.94956700  0.73413800  1
  P  P3  1  0.98495200  0.82914200  0.86700300  1
  P  P4  1  0.56080200  0.59900700  0.79044600  1
  P  P5  1  0.06080200  0.90099300  0.20955400  1
  P  P6  1  0.43919800  0.40099300  0.20955400  1
  P  P7  1  0.93919800  0.09900700  0.79044600  1
  P  P8  1  0.58163100  0.37598900  0.65075000  1
  P  P9  1  0.08163100  0.12401100  0.34925000  1
  P  P10  1  0.41836900  0.62401100  0.34925000  1
  P  P11  1  0.91836900  0.87598900  0.65075000  1
  P  P12  1  0.28584200  0.44956700  0.73413800  1
  P  P13  1  0.78584200  0.05043300  0.26586200  1
  P  P14  1  0.71415800  0.55043300  0.26586200  1
  P  P15  1  0.48495200  0.67085800  0.13299700  1
  S  S0  1  0.68220700  0.30674300  0.53583700  1
  S  S1  1  0.31779300  0.69325700  0.46416300  1
  S  S2  1  0.81779300  0.80674300  0.53583700  1
  S  S3  1  0.54527900  0.21023700  0.97812300  1
  S  S4  1  0.04527900  0.28976300  0.02187700  1
  S  S5  1  0.45472100  0.78976300  0.02187700  1
  S  S6  1  0.95472100  0.71023700  0.97812300  1
  S  S7  1  0.07408600  0.45929400  0.70520000  1
  S  S8  1  0.57408600  0.04070600  0.29480000  1
  S  S9  1  0.92591400  0.54070600  0.29480000  1
  S  S10  1  0.42591400  0.95929400  0.70520000  1
  S  S11  1  0.18220700  0.19325700  0.46416300  1
  O  O0  1  0.57603500  0.47819400  0.88038400  1
  O  O1  1  0.09576900  0.21161000  0.24187800  1
  O  O2  1  0.40423100  0.71161000  0.24187800  1
  O  O3  1  0.90423100  0.78839000  0.75812200  1
  O  O4  1  0.63446100  0.51978500  0.68911000  1
  O  O5  1  0.13446100  0.98021500  0.31089000  1
  O  O6  1  0.36553900  0.48021500  0.31089000  1
  O  O7  1  0.86553900  0.01978500  0.68911000  1
  O  O8  1  0.33634700  0.35322200  0.83114000  1
  O  O9  1  0.83634700  0.14677800  0.16886000  1
  O  O10  1  0.66365300  0.64677800  0.16886000  1
  O  O11  1  0.16365300  0.85322200  0.83114000  1
  O  O12  1  0.12732200  0.08501600  0.76250500  1
  O  O13  1  0.59576900  0.28839000  0.75812200  1
  O  O14  1  0.62732200  0.41498400  0.23749500  1
  O  O15  1  0.87267800  0.91498400  0.23749500  1
  O  O16  1  0.07603500  0.02180600  0.11961600  1
  O  O17  1  0.42396500  0.52180600  0.11961600  1
  O  O18  1  0.92396500  0.97819400  0.88038400  1
  O  O19  1  0.39447800  0.39337500  0.64165900  1
  O  O20  1  0.89447800  0.10662500  0.35834100  1
  O  O21  1  0.60552200  0.60662500  0.35834100  1
  O  O22  1  0.10552200  0.89337500  0.64165900  1
  O  O23  1  0.37267800  0.58501600  0.76250500  1
loop_
_geom_bond_atom_site_label_1
_geom_bond_atom_site_label_2
_geom_bond_distance
_geom_bond_site_symmetry_2
P0 S3 1.881492 1_555
P1 S4 1.881492 1_555
P2 S10 1.878741 1_555
P3 S6 1.881492 1_555
P8 S0 1.875113 1_555
P9 S11 1.875113 1_555
P10 S1 1.875113 1_555
P11 S2 1.875113 1_555
P12 S7 1.878741 1_555
P13 S8 1.878741 1_555
P14 S9 1.878741 1_555
P15 S5 1.881492 1_555
O0 P0 1.620222 1_555
O0 P4 1.683280 1_555
O1 P1 1.635587 1_555
O1 P9 1.642419 1_555
O2 P15 1.635587 1_555
O2 P10 1.642419 1_555
O3 P3 1.635587 1_555
O3 P11 1.642419 1_555
O4 P8 1.621792 1_555
O4 P4 1.680428 1_555
O5 P9 1.621792 1_565
O5 P5 1.680428 1_555
O6 P10 1.621792 1_555
O6 P6 1.680428 1_555
O7 P11 1.621792 1_545
O7 P7 1.680428 1_555
O8 P0 1.636837 1_555
O8 P12 1.639018 1_555
O9 P1 1.636837 1_655
O9 P13 1.639018 1_555
O10 P15 1.636837 1_555
O10 P14 1.639018 1_555
O11 P3 1.636837 1_455
O11 P2 1.639018 1_555
O12 P2 1.620535 1_545
O12 P7 1.679755 1_455
O13 P0 1.635587 1_555
O13 P8 1.642419 1_555
O14 P14 1.620535 1_555
O14 P6 1.679755 1_555
O15 P13 1.620535 1_565
O15 P5 1.679755 1_655
O16 P1 1.620222 1_555
O16 P5 1.683280 1_545
O17 P15 1.620222 1_555
O17 P6 1.683280 1_555
O18 P3 1.620222 1_555
O18 P7 1.683280 1_565
O19 P12 1.636665 1_555
O19 P8 1.638671 1_555
O20 P13 1.636665 1_555
O20 P9 1.638671 1_655
O21 P14 1.636665 1_555
O21 P10 1.638671 1_555
O22 P2 1.636665 1_555
O22 P11 1.638671 1_455
O23 P12 1.620535 1_555
O23 P4 1.679755 1_555
