# generated using pymatgen
data_CsTiBr3
_symmetry_space_group_name_H-M   'P 1'
_cell_length_a   7.62652780
_cell_length_b   7.62652871
_cell_length_c   6.53842333
_cell_angle_alpha   90.00003531
_cell_angle_beta   90.00001716
_cell_angle_gamma   119.99993233
_symmetry_Int_Tables_number   1
_chemical_formula_structural   CsTiBr3
_chemical_formula_sum   'Cs2 Ti2 Br6'
_cell_volume   329.35004764
_cell_formula_units_Z   2
loop_
 _symmetry_equiv_pos_site_id
 _symmetry_equiv_pos_as_xyz
  1  'x, y, z'
loop_
 _atom_site_type_symbol
 _atom_site_label
 _atom_site_symmetry_multiplicity
 _atom_site_fract_x
 _atom_site_fract_y
 _atom_site_fract_z
 _atom_site_occupancy
  Cs  Cs0  1  0.33333300  0.66666700  0.75007138  1
  Cs  Cs1  1  0.66666700  0.33333300  0.24992862  1
  Ti  Ti0  1  0.00000000  0.00000000  0.00000000  1
  Ti  Ti1  1  0.00000000  0.00000000  0.50000000  1
  Br  Br0  1  0.83863217  0.67726534  0.75015286  1
  Br  Br1  1  0.83863217  0.16136683  0.75015186  1
  Br  Br2  1  0.16136783  0.32273466  0.24984714  1
  Br  Br3  1  0.32273466  0.16136783  0.75015186  1
  Br  Br4  1  0.67726534  0.83863217  0.24984814  1
  Br  Br5  1  0.16136783  0.83863317  0.24984814  1
loop_
_geom_bond_atom_site_label_1
_geom_bond_atom_site_label_2
_geom_bond_distance
_geom_bond_site_symmetry_2
Br0 Ti0 2.685579 1_666
Br0 Ti1 2.686798 1_665
Br0 Cs0 3.813906 1_655
Br0 Cs0 3.813906 1_555
Br0 Cs1 3.979738 1_556
Br0 Cs1 3.982143 1_555
Br1 Ti0 2.685583 1_656
Br1 Ti1 2.686791 1_655
Br1 Cs0 3.813907 1_545
Br1 Cs0 3.813914 1_655
Br1 Cs1 3.979736 1_556
Br1 Cs1 3.982134 1_555
Br2 Ti0 2.685579 1_555
Br2 Ti1 2.686798 1_555
Br2 Cs1 3.813906 1_455
Br2 Cs1 3.813906 1_555
Br2 Cs0 3.979738 1_554
Br2 Cs0 3.982143 1_555
Br3 Ti0 2.685585 1_556
Br3 Ti1 2.686791 1_555
Br3 Cs0 3.813907 1_545
Br3 Cs0 3.813907 1_555
Br3 Cs1 3.979740 1_556
Br3 Cs1 3.982140 1_555
Br4 Ti0 2.685585 1_665
Br4 Ti1 2.686791 1_665
Br4 Cs1 3.813907 1_565
Br4 Cs1 3.813907 1_555
Br4 Cs0 3.979740 1_554
Br4 Cs0 3.982140 1_555
Br5 Ti0 2.685583 1_565
Br5 Ti1 2.686791 1_565
Br5 Cs1 3.813907 1_565
Br5 Cs1 3.813914 1_455
Br5 Cs0 3.979736 1_554
Br5 Cs0 3.982134 1_555
