# generated using pymatgen
data_Ir(N2Cl3)2
_symmetry_space_group_name_H-M   'P 1'
_cell_length_a   7.46280614
_cell_length_b   7.46291679
_cell_length_c   7.45267917
_cell_angle_alpha   115.68069787
_cell_angle_beta   115.68297380
_cell_angle_gamma   97.72142376
_symmetry_Int_Tables_number   1
_chemical_formula_structural   Ir(N2Cl3)2
_chemical_formula_sum   'Ir1 N4 Cl6'
_cell_volume   309.45973357
_cell_formula_units_Z   1
loop_
 _symmetry_equiv_pos_site_id
 _symmetry_equiv_pos_as_xyz
  1  'x, y, z'
loop_
 _atom_site_type_symbol
 _atom_site_label
 _atom_site_symmetry_multiplicity
 _atom_site_fract_x
 _atom_site_fract_y
 _atom_site_fract_z
 _atom_site_occupancy
  Ir  Ir0  1  0.01581146  0.01581851  -0.00001703  1
  N  N0  1  0.26780610  0.69785000  0.43060044  1
  N  N1  1  0.26732046  0.83718271  0.56946685  1
  N  N2  1  0.69785968  0.26777253  0.43056223  1
  N  N3  1  0.83720601  0.26734339  0.56946468  1
  Cl  Cl0  1  0.24649639  0.24648875  0.99996888  1
  Cl  Cl1  1  0.21760922  0.21760598  0.40791100  1
  Cl  Cl2  1  0.21716998  0.81017736  -0.00000464  1
  Cl  Cl3  1  0.78205432  0.78207595  1.00000220  1
  Cl  Cl4  1  0.80969222  0.80970532  0.59206071  1
  Cl  Cl5  1  0.81017516  0.21717850  -0.00001632  1
loop_
_geom_bond_atom_site_label_1
_geom_bond_atom_site_label_2
_geom_bond_distance
_geom_bond_site_symmetry_2
N0 N1 1.106294 1_555
N2 N3 1.106222 1_555
Cl0 Ir0 2.265210 1_556
Cl1 Ir0 2.287448 1_555
Cl2 Ir0 2.287588 1_565
Cl3 Ir0 2.295404 1_666
Cl4 Ir0 2.287417 1_666
Cl5 Ir0 2.287567 1_655
