# generated using pymatgen
data_Na6Nb3Ga(SiO4)6
_symmetry_space_group_name_H-M   'P 1'
_cell_length_a   9.04067104
_cell_length_b   9.04218112
_cell_length_c   22.48382630
_cell_angle_alpha   90.03602021
_cell_angle_beta   90.01728359
_cell_angle_gamma   119.96855905
_symmetry_Int_Tables_number   1
_chemical_formula_structural   Na6Nb3Ga(SiO4)6
_chemical_formula_sum   'Na18 Nb9 Ga3 Si18 O72'
_cell_volume   1592.25284204
_cell_formula_units_Z   3
loop_
 _symmetry_equiv_pos_site_id
 _symmetry_equiv_pos_as_xyz
  1  'x, y, z'
loop_
 _atom_site_type_symbol
 _atom_site_label
 _atom_site_symmetry_multiplicity
 _atom_site_fract_x
 _atom_site_fract_y
 _atom_site_fract_z
 _atom_site_occupancy
  Na  Na0  1  0.00675183  0.00049900  0.49836146  1
  Na  Na1  1  0.99181110  0.99244121  0.99702514  1
  Na  Na2  1  0.66663124  0.33258626  0.83288690  1
  Na  Na3  1  0.66668674  0.33281246  0.32686272  1
  Na  Na4  1  0.34213477  0.66723857  0.16349715  1
  Na  Na5  1  0.32517404  0.65874419  0.66537826  1
  Na  Na6  1  0.63700900  0.01329879  0.24612733  1
  Na  Na7  1  0.37531430  0.36226763  0.24539824  1
  Na  Na8  1  0.98746577  0.62406276  0.24587288  1
  Na  Na9  1  0.63446523  0.62407012  0.74626236  1
  Na  Na10  1  0.98852906  0.36481368  0.74656623  1
  Na  Na11  1  0.37704315  0.01070333  0.74705288  1
  Na  Na12  1  0.66611243  0.96835473  0.58591019  1
  Na  Na13  1  0.30429889  0.97190137  0.08374445  1
  Na  Na14  1  0.03030719  0.33634672  0.08380699  1
  Na  Na15  1  0.96546712  0.28867567  0.41252284  1
  Na  Na16  1  0.32350334  0.03349865  0.41264106  1
  Na  Na17  1  0.71078522  0.67759575  0.41290213  1
  Nb  Nb0  1  0.00076758  0.00088188  0.85540596  1
  Nb  Nb1  1  0.00457463  0.00007961  0.64420442  1
  Nb  Nb2  1  0.99561447  0.99600665  0.14568953  1
  Nb  Nb3  1  0.66734917  0.33427937  0.97773065  1
  Nb  Nb4  1  0.66624390  0.33410834  0.48177304  1
  Nb  Nb5  1  0.33783525  0.66684094  0.02004819  1
  Nb  Nb6  1  0.32916083  0.66237526  0.52228012  1
  Nb  Nb7  1  0.33288124  0.66676183  0.31196229  1
  Nb  Nb8  1  0.33377768  0.66718706  0.81434162  1
  Ga  Ga0  1  0.99961701  0.00005097  0.35019197  1
  Ga  Ga1  1  0.66701408  0.33424807  0.68506347  1
  Ga  Ga2  1  0.66624548  0.33374398  0.18403446  1
  Si  Si0  1  0.29119398  0.00541507  0.25210926  1
  Si  Si1  1  0.71350500  0.70818039  0.25279929  1
  Si  Si2  1  0.99496661  0.28578207  0.25182390  1
  Si  Si3  1  0.29231716  0.28941348  0.74946302  1
  Si  Si4  1  0.99653068  0.70713215  0.74981920  1
  Si  Si5  1  0.71095408  0.00298723  0.74884384  1
  Si  Si6  1  0.95533372  0.33573489  0.58686659  1
  Si  Si7  1  0.37832268  0.04657876  0.58590820  1
  Si  Si8  1  0.66630825  0.61995587  0.58674097  1
  Si  Si9  1  0.95062189  0.61864255  0.08550621  1
  Si  Si10  1  0.66532110  0.04702744  0.08562766  1
  Si  Si11  1  0.38415919  0.33714310  0.08624092  1
  Si  Si12  1  0.62627518  0.66684807  0.91616581  1
  Si  Si13  1  0.04157437  0.37521852  0.91701667  1
  Si  Si14  1  0.33311090  0.95815455  0.91743646  1
  Si  Si15  1  0.62750301  0.95746125  0.41700230  1
  Si  Si16  1  0.33021341  0.37239067  0.41590631  1
  Si  Si17  1  0.04249171  0.67018104  0.41633993  1
  O  O0  1  0.20625831  0.03602049  0.31083734  1
  O  O1  1  0.82880063  0.79185130  0.31160690  1
  O  O2  1  0.96363112  0.17031097  0.31059495  1
  O  O3  1  0.19511942  0.16403080  0.80611939  1
  O  O4  1  0.96944835  0.80543047  0.80632607  1
  O  O5  1  0.83724864  0.03013843  0.80529273  1
  O  O6  1  0.79657994  0.96438077  0.69041415  1
  O  O7  1  0.16128696  0.19695423  0.69284977  1
  O  O8  1  0.03406903  0.83759252  0.69306430  1
  O  O9  1  0.80577211  0.83918667  0.19525807  1
  O  O10  1  0.03459939  0.20005644  0.19271038  1
  O  O11  1  0.16595746  0.96631922  0.19294122  1
  O  O12  1  0.87240897  0.36500005  0.64566601  1
  O  O13  1  0.50003966  0.12513861  0.64362204  1
  O  O14  1  0.63369919  0.50634325  0.64530537  1
  O  O15  1  0.87663588  0.50234020  0.14455618  1
  O  O16  1  0.62632182  0.12258250  0.14505724  1
  O  O17  1  0.49026830  0.36506554  0.14657218  1
  O  O18  1  0.47230548  0.29984294  0.02854107  1
  O  O19  1  0.83134726  0.52617860  0.02717483  1
  O  O20  1  0.70032398  0.17139835  0.02793159  1
  O  O21  1  0.47020281  0.16327205  0.52529764  1
  O  O22  1  0.69231454  0.52912767  0.52593162  1
  O  O23  1  0.83413350  0.30443396  0.52648045  1
  O  O24  1  0.52531437  0.69147184  0.97289966  1
  O  O25  1  0.16084959  0.46972572  0.97554923  1
  O  O26  1  0.30748759  0.83833350  0.97579442  1
  O  O27  1  0.53214080  0.83577746  0.47451579  1
  O  O28  1  0.30501099  0.47440552  0.47186768  1
  O  O29  1  0.17060210  0.69651041  0.47205779  1
  O  O30  1  0.13244125  0.63258885  0.35797470  1
  O  O31  1  0.49889198  0.86544574  0.35887775  1
  O  O32  1  0.36727510  0.49985257  0.35775158  1
  O  O33  1  0.13737375  0.49584172  0.85814129  1
  O  O34  1  0.35861550  0.86273865  0.85839876  1
  O  O35  1  0.50579487  0.64087872  0.85719342  1
  O  O36  1  0.02518170  0.83869805  0.41210600  1
  O  O37  1  0.81415703  0.97589119  0.41190016  1
  O  O38  1  0.16172152  0.18654845  0.41201417  1
  O  O39  1  0.02660998  0.18935750  0.91002721  1
  O  O40  1  0.16252319  0.97344301  0.91006474  1
  O  O41  1  0.81115206  0.83790369  0.91018922  1
  O  O42  1  0.96540565  0.15894879  0.58869175  1
  O  O43  1  0.18875189  0.02652435  0.58869947  1
  O  O44  1  0.83305163  0.81442714  0.58870159  1
  O  O45  1  0.98156877  0.81524711  0.08963636  1
  O  O46  1  0.84079270  0.03287378  0.09002648  1
  O  O47  1  0.18927259  0.16364247  0.08992298  1
  O  O48  1  0.69035179  0.17115975  0.74559645  1
  O  O49  1  0.47967037  0.30762340  0.74487498  1
  O  O50  1  0.82829379  0.51946074  0.74559050  1
  O  O51  1  0.68869940  0.51898912  0.24498413  1
  O  O52  1  0.83079998  0.31201979  0.24489051  1
  O  O53  1  0.48182225  0.16871371  0.24563473  1
  O  O54  1  0.63932506  0.49494335  0.92299706  1
  O  O55  1  0.85475177  0.35943658  0.92257621  1
  O  O56  1  0.50472264  0.14427979  0.92326341  1
  O  O57  1  0.63931235  0.14544955  0.42193606  1
  O  O58  1  0.50619152  0.36133883  0.42193292  1
  O  O59  1  0.85574966  0.49408725  0.42246192  1
  O  O60  1  0.34772459  0.49789899  0.07754006  1
  O  O61  1  0.14516922  0.64466317  0.07710561  1
  O  O62  1  0.49460580  0.85709837  0.07681460  1
  O  O63  1  0.36381926  0.85904272  0.57540813  1
  O  O64  1  0.50188503  0.65005334  0.57628441  1
  O  O65  1  0.14555371  0.50198100  0.57614173  1
  O  O66  1  0.30423746  0.82709155  0.25608970  1
  O  O67  1  0.52314827  0.69620800  0.25582784  1
  O  O68  1  0.17288537  0.47706995  0.25606545  1
  O  O69  1  0.30534617  0.47797855  0.75513942  1
  O  O70  1  0.17250005  0.69436459  0.75511558  1
  O  O71  1  0.52140048  0.82765365  0.75541344  1
loop_
_geom_bond_atom_site_label_1
_geom_bond_atom_site_label_2
_geom_bond_distance
_geom_bond_site_symmetry_2
Na0 O36 2.483844 1_545
Na0 O38 2.492617 1_555
Na0 O37 2.543748 1_445
Na0 O43 2.549278 1_555
Na0 O44 2.605606 1_445
Na0 O42 2.617084 1_455
Na1 O41 2.479239 1_555
Na1 O40 2.549614 1_655
Na1 O39 2.557455 1_665
Na1 O45 2.601454 1_556
Na1 O46 2.620984 1_566
Na1 O47 2.679317 1_666
Na2 O48 2.517504 1_555
Na2 O50 2.526338 1_555
Na2 O49 2.537713 1_555
Na2 O55 2.569582 1_555
Na2 O54 2.584481 1_555
Na2 O56 2.585927 1_555
Na3 O53 2.418177 1_555
Na3 O52 2.431753 1_555
Na3 O51 2.435585 1_555
Na3 O57 2.662112 1_555
Na3 O58 2.667595 1_555
Na3 O59 2.678030 1_555
Na4 O60 2.481105 1_555
Na4 O62 2.507467 1_555
Na4 O61 2.572896 1_555
Na4 O67 2.573957 1_555
Na4 O68 2.647202 1_555
Na4 O66 2.651804 1_555
Na5 O65 2.523220 1_555
Na5 O69 2.547243 1_555
Na5 O70 2.554363 1_555
Na5 O64 2.588109 1_555
Na5 O71 2.620076 1_555
Na5 O63 2.620526 1_555
Na6 O52 2.374547 1_555
Na6 O53 2.431686 1_555
Na6 O16 2.499574 1_555
Na6 O67 2.525922 1_545
Na6 O66 2.622267 1_545
Na6 O31 2.848060 1_545
Na6 O9 2.917726 1_545
Na6 O2 2.939840 1_555
Na7 O53 2.381988 1_555
Na7 O17 2.448087 1_555
Na7 O51 2.454435 1_555
Na7 O68 2.526309 1_555
Na7 O67 2.631734 1_555
Na7 O32 2.832106 1_555
Na7 O10 2.919722 1_555
Na7 O0 2.950517 1_555
Na8 O51 2.373789 1_555
Na8 O52 2.444397 1_555
Na8 O15 2.509640 1_555
Na8 O66 2.524107 1_655
Na8 O68 2.618253 1_655
Na8 O30 2.823727 1_655
Na8 O11 2.935025 1_655
Na8 O1 2.952366 1_555
Na9 O50 2.370992 1_555
Na9 O49 2.479151 1_555
Na9 O14 2.505046 1_555
Na9 O71 2.520994 1_555
Na9 O69 2.590767 1_555
Na9 O35 2.788369 1_555
Na9 O6 2.948551 1_555
Na9 O4 2.952582 1_555
Na10 O48 2.370155 1_555
Na10 O50 2.465397 1_555
Na10 O12 2.499815 1_555
Na10 O69 2.521791 1_655
Na10 O70 2.594311 1_655
Na10 O33 2.812325 1_655
Na10 O7 2.927280 1_655
Na10 O5 2.939903 1_555
Na11 O49 2.362831 1_555
Na11 O48 2.454317 1_555
Na11 O70 2.520059 1_545
Na11 O13 2.563259 1_555
Na11 O71 2.576140 1_545
Na11 O34 2.804816 1_545
Na11 O3 2.944148 1_555
Na11 O8 2.946946 1_545
Na12 O42 2.374115 1_565
Na12 O63 2.408787 1_555
Na12 O64 2.502953 1_555
Na12 O44 2.513495 1_555
Na12 O6 2.637076 1_555
Na12 O27 2.778628 1_555
Na12 O13 2.841316 1_565
Na12 O23 2.953355 1_565
Na13 O62 2.417903 1_555
Na13 O47 2.430569 1_565
Na13 O45 2.531493 1_455
Na13 O61 2.567846 1_555
Na13 O26 2.716906 1_554
Na13 O11 2.744732 1_555
Na13 O18 2.854239 1_565
Na13 O16 2.874860 1_565
Na14 O46 2.405937 1_455
Na14 O61 2.445721 1_555
Na14 O60 2.490232 1_555
Na14 O47 2.601019 1_555
Na14 O25 2.712083 1_554
Na14 O10 2.750855 1_555
Na14 O15 2.851387 1_455
Na14 O20 2.872770 1_455
Na15 O38 2.374412 1_655
Na15 O37 2.450553 1_545
Na15 O59 2.514733 1_555
Na15 O2 2.525259 1_555
Na15 O57 2.569477 1_555
Na15 O23 2.857512 1_555
Na15 O30 2.961318 1_655
Na15 O28 2.977948 1_655
Na16 O36 2.372884 1_545
Na16 O38 2.465125 1_555
Na16 O57 2.516359 1_555
Na16 O0 2.527063 1_555
Na16 O58 2.582001 1_555
Na16 O21 2.826870 1_555
Na16 O31 2.947972 1_545
Na16 O29 2.962854 1_545
Na17 O37 2.372927 1_555
Na17 O36 2.462686 1_655
Na17 O1 2.509167 1_555
Na17 O58 2.521247 1_555
Na17 O59 2.586506 1_555
Na17 O22 2.840615 1_555
Na17 O32 2.962069 1_555
Na17 O27 2.979934 1_555
Nb0 O3 1.976158 1_555
Nb0 O5 1.978643 1_455
Nb0 O4 1.979569 1_445
Nb0 O39 2.016584 1_555
Nb0 O40 2.017965 1_545
Nb0 O41 2.026639 1_445
Nb1 O8 1.956998 1_545
Nb1 O7 1.962001 1_555
Nb1 O43 1.997738 1_555
Nb1 O6 2.028496 1_445
Nb1 O44 2.043402 1_445
Nb1 O42 2.063260 1_455
Nb2 O9 1.941710 1_555
Nb2 O11 1.996190 1_655
Nb2 O10 1.998447 1_665
Nb2 O45 2.016402 1_555
Nb2 O46 2.025387 1_565
Nb2 O47 2.070614 1_665
Nb3 O19 1.967573 1_556
Nb3 O18 1.991106 1_556
Nb3 O20 1.993120 1_556
Nb3 O54 2.014667 1_555
Nb3 O55 2.019061 1_555
Nb3 O56 2.021308 1_555
Nb4 O22 1.932179 1_555
Nb4 O21 1.937217 1_555
Nb4 O23 1.947442 1_555
Nb4 O58 2.078403 1_555
Nb4 O59 2.081814 1_555
Nb4 O57 2.088373 1_555
Nb5 O24 1.915837 1_554
Nb5 O25 1.971200 1_554
Nb5 O26 1.973999 1_554
Nb5 O60 2.037483 1_555
Nb5 O62 2.039010 1_555
Nb5 O61 2.091087 1_555
Nb6 O28 1.961616 1_555
Nb6 O29 1.966390 1_555
Nb6 O65 1.980815 1_555
Nb6 O64 2.024354 1_555
Nb6 O27 2.026819 1_555
Nb6 O63 2.031711 1_555
Nb7 O30 1.972719 1_555
Nb7 O31 1.973745 1_555
Nb7 O32 1.976094 1_555
Nb7 O66 2.030775 1_555
Nb7 O68 2.032558 1_555
Nb7 O67 2.041295 1_555
Nb8 O34 1.938871 1_555
Nb8 O35 1.942252 1_555
Nb8 O33 1.943613 1_555
Nb8 O71 2.069516 1_555
Nb8 O70 2.077683 1_555
Nb8 O69 2.079062 1_555
Ga0 O2 1.941785 1_555
Ga0 O0 1.942456 1_655
Ga0 O1 1.942735 1_545
Ga0 O37 2.102336 1_545
Ga0 O38 2.109603 1_655
Ga0 O36 2.111666 1_645
Ga1 O14 1.944510 1_555
Ga1 O12 1.948212 1_555
Ga1 O13 1.966587 1_555
Ga1 O49 2.080745 1_555
Ga1 O50 2.083043 1_555
Ga1 O48 2.093975 1_555
Ga2 O17 1.941763 1_555
Ga2 O15 1.958466 1_555
Ga2 O16 1.962941 1_555
Ga2 O51 2.093344 1_555
Ga2 O52 2.101198 1_555
Ga2 O53 2.107908 1_555
O0 Si0 1.619324 1_555
O1 Si1 1.617778 1_555
O2 Si2 1.619558 1_555
O3 Si3 1.639332 1_555
O4 Si4 1.637162 1_555
O5 Si5 1.641180 1_555
O6 Si5 1.648332 1_565
O7 Si3 1.652510 1_555
O8 Si4 1.654473 1_455
O9 Si1 1.669798 1_555
O10 Si2 1.664994 1_455
O11 Si0 1.665919 1_565
O12 Si6 1.605678 1_555
O13 Si7 1.617521 1_555
O14 Si8 1.604827 1_555
O15 Si9 1.617274 1_555
O16 Si10 1.617491 1_555
O17 Si11 1.606499 1_555
O18 Si11 1.643296 1_555
O19 Si9 1.636745 1_555
O20 Si10 1.641395 1_555
O21 Si7 1.669525 1_555
O22 Si8 1.670566 1_555
O23 Si6 1.677171 1_555
O24 Si12 1.647183 1_555
O25 Si13 1.643812 1_555
O26 Si14 1.643281 1_555
O27 Si15 1.637329 1_555
O28 Si16 1.641531 1_555
O29 Si17 1.640357 1_555
O30 Si17 1.665877 1_555
O31 Si15 1.668325 1_555
O32 Si16 1.663316 1_555
O33 Si13 1.658551 1_555
O34 Si14 1.660422 1_555
O35 Si12 1.656150 1_555
O36 Si17 1.610530 1_555
O37 Si15 1.614840 1_555
O38 Si16 1.610673 1_555
O39 Si13 1.624773 1_555
O40 Si14 1.624167 1_555
O41 Si12 1.619154 1_555
O42 Si6 1.646444 1_555
O43 Si7 1.632080 1_555
O44 Si8 1.648672 1_555
O45 Si9 1.658346 1_555
O46 Si10 1.656961 1_555
O47 Si11 1.676643 1_555
O48 Si5 1.623417 1_555
O49 Si3 1.621173 1_555
O50 Si4 1.619631 1_555
O51 Si1 1.619874 1_555
O52 Si2 1.623285 1_555
O53 Si0 1.621635 1_555
O54 Si12 1.623931 1_555
O55 Si13 1.627289 1_655
O56 Si14 1.627161 1_545
O57 Si15 1.652741 1_545
O58 Si16 1.648704 1_555
O59 Si17 1.649037 1_655
O60 Si11 1.654793 1_555
O61 Si9 1.664743 1_455
O62 Si10 1.649850 1_565
O63 Si7 1.650996 1_565
O64 Si8 1.656212 1_555
O65 Si6 1.641128 1_455
O66 Si0 1.676900 1_565
O67 Si1 1.670924 1_555
O68 Si2 1.675794 1_455
O69 Si3 1.654205 1_555
O70 Si4 1.655839 1_455
O71 Si5 1.660780 1_565
