# generated using pymatgen
data_Na5ZrGa3Si3(SO8)3
_symmetry_space_group_name_H-M   'P 1'
_cell_length_a   8.90200904
_cell_length_b   8.93917503
_cell_length_c   22.30850495
_cell_angle_alpha   89.93381370
_cell_angle_beta   90.90523230
_cell_angle_gamma   120.19143206
_symmetry_Int_Tables_number   1
_chemical_formula_structural   Na5ZrGa3Si3(SO8)3
_chemical_formula_sum   'Na15 Zr3 Ga9 Si9 S9 O72'
_cell_volume   1534.18584546
_cell_formula_units_Z   3
loop_
 _symmetry_equiv_pos_site_id
 _symmetry_equiv_pos_as_xyz
  1  'x, y, z'
loop_
 _atom_site_type_symbol
 _atom_site_label
 _atom_site_symmetry_multiplicity
 _atom_site_fract_x
 _atom_site_fract_y
 _atom_site_fract_z
 _atom_site_occupancy
  Na  Na0  1  0.63850582  0.00024114  0.25596400  1
  Na  Na1  1  0.00288909  0.62428239  0.24838450  1
  Na  Na2  1  0.62814372  0.63294635  0.74262913  1
  Na  Na3  1  0.36990587  0.01151231  0.75557449  1
  Na  Na4  1  0.66782539  0.96008750  0.58679230  1
  Na  Na5  1  0.97412825  0.68525382  0.92225208  1
  Na  Na6  1  0.69159113  0.02061559  0.90916836  1
  Na  Na7  1  0.96113598  0.29929207  0.40658639  1
  Na  Na8  1  0.71050073  0.68468022  0.42207342  1
  Na  Na9  1  0.00694443  0.97914790  0.50287655  1
  Na  Na10  1  0.01229554  0.98958667  0.00092816  1
  Na  Na11  1  0.64386663  0.32143606  0.83029270  1
  Na  Na12  1  0.65729902  0.31976663  0.32920659  1
  Na  Na13  1  0.31401983  0.63700132  0.16137758  1
  Na  Na14  1  0.32224165  0.63470553  0.66176581  1
  Zr  Zr0  1  0.66123998  0.34671347  0.98359782  1
  Zr  Zr1  1  0.67346443  0.34117893  0.48017253  1
  Zr  Zr2  1  0.34376839  0.66504593  0.81091467  1
  Ga  Ga0  1  0.98637203  0.99404725  0.35307157  1
  Ga  Ga1  1  0.00739820  0.01498153  0.85130004  1
  Ga  Ga2  1  0.98107535  0.99234966  0.65200334  1
  Ga  Ga3  1  0.01111389  0.00631652  0.14771583  1
  Ga  Ga4  1  0.64633303  0.33257521  0.68788849  1
  Ga  Ga5  1  0.70522728  0.34409137  0.17845462  1
  Ga  Ga6  1  0.33063237  0.69376609  0.01609477  1
  Ga  Ga7  1  0.35137126  0.68343296  0.51517232  1
  Ga  Ga8  1  0.31311203  0.65514329  0.31744058  1
  Si  Si0  1  0.00855378  0.28760220  0.24954124  1
  Si  Si1  1  0.27644396  0.27808504  0.74567942  1
  Si  Si2  1  0.71714262  0.01682394  0.74863645  1
  Si  Si3  1  0.66553842  0.63278629  0.58616281  1
  Si  Si4  1  0.98336676  0.64879539  0.08667137  1
  Si  Si5  1  0.62618153  0.67606879  0.92082678  1
  Si  Si6  1  0.32489108  0.96331087  0.91399061  1
  Si  Si7  1  0.61873384  0.95212174  0.41224331  1
  Si  Si8  1  0.05635708  0.68158221  0.41561214  1
  S  S0  1  0.29375353  0.00604863  0.24986716  1
  S  S1  1  0.70263609  0.70037650  0.24904113  1
  S  S2  1  0.99207544  0.70451649  0.74904124  1
  S  S3  1  0.96789819  0.33773842  0.58533225  1
  S  S4  1  0.36740877  0.03629172  0.58455137  1
  S  S5  1  0.66875900  0.03651904  0.08621158  1
  S  S6  1  0.37547134  0.33427538  0.08978871  1
  S  S7  1  0.04806438  0.37471335  0.92034326  1
  S  S8  1  0.32812638  0.37582988  0.41563342  1
  O  O0  1  0.21288325  0.02566251  0.30453864  1
  O  O1  1  0.81084255  0.77343539  0.30613549  1
  O  O2  1  0.96864819  0.16993904  0.31073741  1
  O  O3  1  0.20015567  0.15684759  0.80477725  1
  O  O4  1  0.96501016  0.77838203  0.80469809  1
  O  O5  1  0.82338952  0.03280031  0.81112125  1
  O  O6  1  0.78326470  0.95936710  0.68983149  1
  O  O7  1  0.16856546  0.18181051  0.68502232  1
  O  O8  1  0.02229651  0.81496035  0.69606399  1
  O  O9  1  0.79090647  0.81419697  0.19778066  1
  O  O10  1  0.02475997  0.18720740  0.19223448  1
  O  O11  1  0.18164395  0.97237327  0.19604703  1
  O  O12  1  0.87618612  0.35344559  0.63676022  1
  O  O13  1  0.47622700  0.11599303  0.64001715  1
  O  O14  1  0.64552430  0.51485263  0.64470030  1
  O  O15  1  0.89496211  0.53190727  0.14740835  1
  O  O16  1  0.64386641  0.11993799  0.14139749  1
  O  O17  1  0.48729256  0.34628818  0.14235571  1
  O  O18  1  0.45327613  0.30955027  0.03379463  1
  O  O19  1  0.85609865  0.54982912  0.02798605  1
  O  O20  1  0.68289440  0.14041108  0.03257719  1
  O  O21  1  0.46041969  0.14286324  0.53171103  1
  O  O22  1  0.68525513  0.54177369  0.52466781  1
  O  O23  1  0.85960682  0.31270699  0.52815858  1
  O  O24  1  0.52012157  0.69760986  0.97577578  1
  O  O25  1  0.15142393  0.45729118  0.97455496  1
  O  O26  1  0.27683212  0.83269763  0.97055824  1
  O  O27  1  0.54873023  0.83791591  0.47331150  1
  O  O28  1  0.30275699  0.45406359  0.47001227  1
  O  O29  1  0.17037945  0.69273837  0.47454316  1
  O  O30  1  0.11377280  0.62211993  0.35465036  1
  O  O31  1  0.50589233  0.85409523  0.35152243  1
  O  O32  1  0.36192171  0.48454145  0.36173053  1
  O  O33  1  0.12020955  0.47967003  0.86590273  1
  O  O34  1  0.35451178  0.87408753  0.85445960  1
  O  O35  1  0.51846179  0.63797387  0.85702930  1
  O  O36  1  0.02767837  0.84855542  0.40777551  1
  O  O37  1  0.81849468  0.98099166  0.40969612  1
  O  O38  1  0.17326975  0.20206366  0.40938224  1
  O  O39  1  0.02353208  0.20000051  0.91509675  1
  O  O40  1  0.15234056  0.98215203  0.90838494  1
  O  O41  1  0.81769645  0.85046675  0.91519994  1
  O  O42  1  0.97677891  0.17633203  0.58609066  1
  O  O43  1  0.19524152  0.01773759  0.58654710  1
  O  O44  1  0.84123462  0.82933309  0.58956698  1
  O  O45  1  0.99207733  0.83657929  0.09354139  1
  O  O46  1  0.82866487  0.02645521  0.09072612  1
  O  O47  1  0.20008086  0.17707715  0.09136372  1
  O  O48  1  0.69043362  0.18453914  0.74009052  1
  O  O49  1  0.47940973  0.31328419  0.74472844  1
  O  O50  1  0.83620513  0.53021467  0.74289280  1
  O  O51  1  0.68401762  0.52517565  0.24353848  1
  O  O52  1  0.82614301  0.30510472  0.24409104  1
  O  O53  1  0.47033959  0.15991867  0.24404748  1
  O  O54  1  0.66150504  0.51071704  0.92282713  1
  O  O55  1  0.86736853  0.35286448  0.92491168  1
  O  O56  1  0.51176873  0.14430231  0.92321941  1
  O  O57  1  0.64470444  0.14818017  0.41792705  1
  O  O58  1  0.48650577  0.35849818  0.42098086  1
  O  O59  1  0.85377718  0.50976519  0.42235025  1
  O  O60  1  0.36353965  0.49049033  0.08515722  1
  O  O61  1  0.16949882  0.65450891  0.07854332  1
  O  O62  1  0.51277190  0.86233147  0.08295730  1
  O  O63  1  0.35689629  0.86383277  0.58035084  1
  O  O64  1  0.49229973  0.65743735  0.57880536  1
  O  O65  1  0.13998668  0.49268031  0.57934323  1
  O  O66  1  0.31390425  0.84749159  0.25274496  1
  O  O67  1  0.53130812  0.68838747  0.25379992  1
  O  O68  1  0.17551507  0.48859535  0.25502004  1
  O  O69  1  0.30154573  0.47343646  0.74922781  1
  O  O70  1  0.14923628  0.68723152  0.75341434  1
  O  O71  1  0.51613460  0.84233891  0.75221369  1
loop_
_geom_bond_atom_site_label_1
_geom_bond_atom_site_label_2
_geom_bond_distance
_geom_bond_site_symmetry_2
Na0 O52 2.391862 1_555
Na0 O67 2.451031 1_545
Na0 O31 2.483286 1_545
Na0 O66 2.498936 1_545
Na0 O53 2.546543 1_555
Na0 O16 2.761429 1_555
Na0 O2 2.799705 1_555
Na0 O9 2.936169 1_545
Na1 O68 2.392012 1_555
Na1 O15 2.411896 1_455
Na1 O66 2.468170 1_555
Na1 O52 2.471060 1_455
Na1 O51 2.513041 1_455
Na1 O30 2.557296 1_555
Na2 O50 2.446278 1_555
Na2 O14 2.468060 1_555
Na2 O49 2.473254 1_555
Na2 O69 2.520149 1_555
Na2 O71 2.535428 1_555
Na2 O35 2.755302 1_555
Na2 O6 2.792722 1_555
Na2 O4 2.924379 1_555
Na3 O49 2.376322 1_555
Na3 O71 2.443436 1_545
Na3 O34 2.495640 1_545
Na3 O48 2.498857 1_555
Na3 O70 2.556218 1_545
Na3 O3 2.684477 1_555
Na3 O13 2.756117 1_555
Na4 O64 2.352277 1_555
Na4 O44 2.358932 1_555
Na4 O42 2.440325 1_565
Na4 O63 2.452465 1_555
Na4 O6 2.504369 1_555
Na4 O27 2.735449 1_555
Na5 O40 2.331343 1_655
Na5 O54 2.411083 1_555
Na5 O41 2.491216 1_555
Na5 O26 2.549334 1_655
Na5 O55 2.626116 1_555
Na5 O19 2.631666 1_556
Na5 O4 2.762804 1_555
Na6 O41 2.302998 1_545
Na6 O56 2.383282 1_555
Na6 O5 2.474802 1_555
Na6 O39 2.557908 1_655
Na6 O55 2.589150 1_555
Na6 O34 2.853799 1_545
Na6 O24 2.916141 1_545
Na6 O20 2.971375 1_556
Na7 O38 2.443841 1_655
Na7 O2 2.449822 1_555
Na7 O57 2.453192 1_555
Na7 O37 2.466091 1_545
Na7 O59 2.529347 1_555
Na7 O30 2.759486 1_655
Na7 O23 2.893774 1_555
Na7 O28 2.966704 1_655
Na8 O37 2.337099 1_555
Na8 O59 2.465194 1_555
Na8 O36 2.467229 1_655
Na8 O58 2.574768 1_555
Na8 O22 2.577100 1_555
Na8 O27 2.701185 1_555
Na8 O1 2.733551 1_555
Na9 O43 2.394543 1_565
Na9 O44 2.409744 1_455
Na9 O36 2.476429 1_555
Na9 O37 2.655778 1_455
Na9 O42 2.669200 1_465
Na9 O38 2.762927 1_565
Na10 O45 2.435036 1_455
Na10 O41 2.437021 1_454
Na10 O40 2.446584 1_554
Na10 O47 2.599430 1_565
Na10 O39 2.650044 1_564
Na10 O46 2.727766 1_465
Na11 O49 2.365772 1_555
Na11 O48 2.502183 1_555
Na11 O56 2.526718 1_555
Na11 O54 2.622888 1_555
Na11 O50 2.664472 1_555
Na11 O55 2.792755 1_555
Na12 O53 2.436252 1_555
Na12 O57 2.471758 1_555
Na12 O52 2.484084 1_555
Na12 O51 2.578286 1_555
Na12 O59 2.677125 1_555
Na12 O58 2.693060 1_555
Na13 O61 2.284980 1_555
Na13 O60 2.326016 1_555
Na13 O68 2.464550 1_555
Na13 O62 2.598737 1_555
Na13 O67 2.680686 1_555
Na13 O66 2.775945 1_555
Na14 O65 2.337618 1_555
Na14 O64 2.352976 1_555
Na14 O69 2.378422 1_555
Na14 O63 2.638687 1_555
Na14 O71 2.678056 1_555
Na14 O70 2.757089 1_555
Ga0 O2 1.905360 1_565
Ga0 O37 1.930434 1_555
Ga0 O36 1.944004 1_655
Ga0 O1 2.069021 1_555
Ga0 O38 2.152115 1_665
Ga0 O0 2.193880 1_665
Ga1 O3 1.869322 1_555
Ga1 O40 1.923734 1_545
Ga1 O5 1.930720 1_455
Ga1 O39 2.131117 1_555
Ga1 O41 2.149418 1_445
Ga1 O4 2.210528 1_445
Ga2 O7 1.821430 1_665
Ga2 O6 1.850429 1_555
Ga2 O44 1.933555 1_555
Ga2 O8 2.045858 1_655
Ga2 O42 2.219089 1_565
Ga2 O43 2.338927 1_665
Ga3 O10 1.848827 1_555
Ga3 O45 1.879014 1_445
Ga3 O11 1.992458 1_545
Ga3 O47 2.054254 1_555
Ga3 O46 2.124844 1_455
Ga3 O9 2.172157 1_445
Ga4 O14 1.895058 1_555
Ga4 O49 1.909701 1_555
Ga4 O48 1.940615 1_555
Ga4 O13 2.046186 1_555
Ga4 O50 2.102369 1_555
Ga4 O12 2.282940 1_555
Ga5 O15 1.825761 1_555
Ga5 O52 1.936603 1_555
Ga5 O16 1.971168 1_555
Ga5 O17 2.098011 1_555
Ga5 O51 2.255117 1_555
Ga5 O53 2.419206 1_555
Ga6 O26 1.839478 1_554
Ga6 O24 1.909237 1_554
Ga6 O61 1.917613 1_555
Ga6 O25 2.106731 1_554
Ga6 O62 2.143794 1_555
Ga6 O60 2.505211 1_555
Ga7 O27 1.863981 1_555
Ga7 O29 1.874261 1_555
Ga7 O64 1.969572 1_555
Ga7 O28 2.122455 1_555
Ga7 O63 2.154201 1_555
Ga7 O65 2.313042 1_555
Ga8 O30 1.855863 1_555
Ga8 O31 1.891639 1_555
Ga8 O68 1.942344 1_555
Ga8 O32 2.034745 1_555
Ga8 O66 2.240961 1_555
Ga8 O67 2.319997 1_555
O0 S0 1.480445 1_555
O1 S1 1.518913 1_555
O2 Si0 1.653016 1_655
O3 Si1 1.630525 1_555
O4 S2 1.485604 1_555
O5 Si2 1.637368 1_555
O6 Si2 1.631335 1_565
O7 Si1 1.619982 1_555
O8 S2 1.477855 1_455
O9 S1 1.477144 1_555
O10 Si0 1.612235 1_555
O11 S0 1.479522 1_565
O12 S3 1.465530 1_555
O13 S4 1.499017 1_555
O14 Si3 1.632095 1_555
O15 Si4 1.658426 1_555
O16 S5 1.515833 1_555
O17 S6 1.494496 1_555
O18 S6 1.506943 1_555
O18 Zr0 2.058572 1_554
O19 Si4 1.651634 1_555
O19 Zr0 2.017017 1_554
O20 S5 1.481420 1_555
O20 Zr0 2.231205 1_554
O21 S4 1.489148 1_555
O21 Zr1 2.178096 1_555
O22 Si3 1.651826 1_555
O22 Zr1 2.005800 1_555
O23 S3 1.533309 1_555
O23 Zr1 2.079430 1_555
O24 Si5 1.628227 1_555
O25 S7 1.462150 1_555
O26 Si6 1.627884 1_555
O27 Si7 1.634104 1_555
O28 S8 1.476886 1_555
O29 Si8 1.620153 1_555
O30 Si8 1.640174 1_555
O31 Si7 1.638981 1_555
O32 S8 1.481741 1_555
O33 S7 1.477728 1_555
O33 Zr2 2.228658 1_555
O34 Si6 1.641468 1_555
O34 Zr2 2.065480 1_555
O35 Si5 1.640314 1_555
O35 Zr2 1.965372 1_555
O36 Si8 1.644643 1_555
O37 Si7 1.665433 1_555
O38 S8 1.474232 1_555
O39 S7 1.468722 1_555
O40 Si6 1.630193 1_555
O41 Si5 1.638850 1_555
O42 S3 1.484234 1_555
O43 S4 1.457713 1_555
O44 Si3 1.664822 1_555
O45 Si4 1.648215 1_555
O46 S5 1.472682 1_555
O47 S6 1.486119 1_555
O48 Si2 1.642260 1_555
O49 Si1 1.671343 1_555
O50 S2 1.480493 1_555
O51 S1 1.494688 1_555
O52 Si0 1.710353 1_655
O53 S0 1.487012 1_555
O54 Si5 1.659083 1_555
O54 Zr0 1.994815 1_555
O55 S7 1.524839 1_655
O55 Zr0 2.249080 1_555
O56 Si6 1.646329 1_545
O56 Zr0 2.094318 1_555
O57 Si7 1.653238 1_545
O57 Zr1 2.126100 1_555
O58 S8 1.496790 1_555
O58 Zr1 2.174119 1_555
O59 Si8 1.689955 1_655
O59 Zr1 2.034571 1_555
O60 S6 1.456188 1_555
O61 Si4 1.644787 1_455
O62 S5 1.476622 1_565
O63 S4 1.499716 1_565
O64 Si3 1.669584 1_555
O65 S3 1.467994 1_455
O66 S0 1.516701 1_565
O67 S1 1.479719 1_555
O68 Si0 1.661646 1_555
O69 Si1 1.647113 1_555
O69 Zr2 2.076154 1_555
O70 S2 1.484520 1_455
O70 Zr2 2.226722 1_555
O71 Si2 1.684686 1_565
O71 Zr2 2.047892 1_555
