# generated using pymatgen
data_BaMg(FeS2)2
_symmetry_space_group_name_H-M   'P 1'
_cell_length_a   5.06282622
_cell_length_b   6.37585517
_cell_length_c   6.92825768
_cell_angle_alpha   60.25767740
_cell_angle_beta   68.61287804
_cell_angle_gamma   66.55594143
_symmetry_Int_Tables_number   1
_chemical_formula_structural   BaMg(FeS2)2
_chemical_formula_sum   'Ba1 Mg1 Fe2 S4'
_cell_volume   174.17870258
_cell_formula_units_Z   1
loop_
 _symmetry_equiv_pos_site_id
 _symmetry_equiv_pos_as_xyz
  1  'x, y, z'
loop_
 _atom_site_type_symbol
 _atom_site_label
 _atom_site_symmetry_multiplicity
 _atom_site_fract_x
 _atom_site_fract_y
 _atom_site_fract_z
 _atom_site_occupancy
  Ba  Ba0  1  0.85917634  0.18808043  0.09373213  1
  Mg  Mg0  1  0.28167256  0.75499998  0.67974117  1
  Fe  Fe0  1  0.77389488  0.48848509  0.46185440  1
  Fe  Fe1  1  0.27507187  0.48844982  0.46175119  1
  S  S0  1  0.47080005  0.29791187  0.76028896  1
  S  S1  1  0.18400703  0.20865097  0.42312543  1
  S  S2  1  0.85165796  0.72582506  0.56967634  1
  S  S3  1  0.56621930  0.69134778  0.17483039  1
loop_
_geom_bond_atom_site_label_1
_geom_bond_atom_site_label_2
_geom_bond_distance
_geom_bond_site_symmetry_2
Ba0 S2 3.148990 1_545
Ba0 S3 3.194652 1_555
Ba0 S0 3.210263 1_554
Ba0 S0 3.212295 1_654
Ba0 S1 3.337024 1_655
Ba0 S1 3.340747 1_555
Ba0 S2 3.547514 1_554
Ba0 S3 3.720256 1_645
Ba0 S3 3.729664 1_545
Mg0 S1 2.484414 1_565
Mg0 S0 2.505430 1_555
Mg0 S2 2.651340 1_455
Mg0 S2 2.655608 1_555
Fe0 S3 2.150273 1_555
Fe0 S1 2.165035 1_655
Fe0 S0 2.187029 1_555
Fe0 S2 2.193879 1_555
Fe1 S3 2.150950 1_555
Fe1 S1 2.164440 1_555
Fe1 S0 2.186250 1_555
Fe1 S2 2.194822 1_455
