# generated using pymatgen
data_U(PO3)4
_symmetry_space_group_name_H-M   'P 1'
_cell_length_a   8.71805076
_cell_length_b   8.71805076
_cell_length_c   8.32229748
_cell_angle_alpha   61.71974301
_cell_angle_beta   61.71974301
_cell_angle_gamma   94.81852583
_symmetry_Int_Tables_number   1
_chemical_formula_structural   U(PO3)4
_chemical_formula_sum   'U2 P8 O24'
_cell_volume   450.07108131
_cell_formula_units_Z   2
loop_
 _symmetry_equiv_pos_site_id
 _symmetry_equiv_pos_as_xyz
  1  'x, y, z'
loop_
 _atom_site_type_symbol
 _atom_site_label
 _atom_site_symmetry_multiplicity
 _atom_site_fract_x
 _atom_site_fract_y
 _atom_site_fract_z
 _atom_site_occupancy
  U  U0  1  0.66304018  0.08806722  0.00796490  1
  U  U1  1  0.08806722  0.66304018  0.00796490  1
  P  P0  1  0.13599286  0.90359592  0.25554838  1
  P  P1  1  0.84787609  0.61535064  0.76006590  1
  P  P2  1  0.37350225  0.14737793  0.47357180  1
  P  P3  1  0.60319130  0.37699087  0.54333047  1
  P  P4  1  0.90359592  0.13599286  0.25554838  1
  P  P5  1  0.14737793  0.37350225  0.47357180  1
  P  P6  1  0.37699087  0.60319130  0.54333047  1
  P  P7  1  0.61535064  0.84787609  0.76006590  1
  O  O0  1  0.77716320  0.53599883  0.32053874  1
  O  O1  1  0.89460044  0.66161854  0.88582373  1
  O  O2  1  0.70068272  0.70068272  0.73157141  1
  O  O3  1  0.72454017  0.02724536  0.50785660  1
  O  O4  1  0.50858875  0.12765163  0.29922294  1
  O  O5  1  0.62485275  0.24386693  0.71668080  1
  O  O6  1  0.08922039  0.85644140  0.13032367  1
  O  O7  1  0.66161854  0.89460044  0.88582373  1
  O  O8  1  0.48588908  0.26080312  0.51192306  1
  O  O9  1  0.85644140  0.08922039  0.13032367  1
  O  O10  1  0.97819543  0.33780051  0.16620571  1
  O  O11  1  0.12765163  0.50858875  0.29922294  1
  O  O12  1  0.02724536  0.72454017  0.50785660  1
  O  O13  1  0.77400689  0.41364293  0.84867856  1
  O  O14  1  0.24386693  0.62485275  0.71668080  1
  O  O15  1  0.05066169  0.05066169  0.28412107  1
  O  O16  1  0.29111571  0.29111571  0.36932376  1
  O  O17  1  0.97265223  0.21328270  0.69440634  1
  O  O18  1  0.46119631  0.46119631  0.64634054  1
  O  O19  1  0.41364293  0.77400689  0.84867856  1
  O  O20  1  0.53599883  0.77716320  0.32053874  1
  O  O21  1  0.33780051  0.97819543  0.16620571  1
  O  O22  1  0.26080312  0.48588908  0.51192306  1
  O  O23  1  0.21328270  0.97265223  0.69440634  1
loop_
_geom_bond_atom_site_label_1
_geom_bond_atom_site_label_2
_geom_bond_distance
_geom_bond_site_symmetry_2
O0 P3 1.485394 1_555
O0 U1 2.329104 1_655
O1 P1 1.483371 1_555
O1 U1 2.347600 1_656
O2 P1 1.593090 1_555
O2 P7 1.593090 1_555
O3 P7 1.582270 1_545
O3 P4 1.582329 1_555
O4 P2 1.474158 1_555
O4 U0 2.363393 1_555
O5 P3 1.473887 1_555
O5 U0 2.356467 1_556
O6 P0 1.483860 1_555
O6 U1 2.348127 1_555
O7 P7 1.483371 1_555
O7 U0 2.347600 1_566
O8 P3 1.571717 1_555
O8 P2 1.572356 1_555
O9 P4 1.483860 1_555
O9 U0 2.348127 1_555
O10 P4 1.476884 1_555
O10 U1 2.345574 1_655
O11 P5 1.474158 1_555
O11 U1 2.363393 1_555
O12 P1 1.582270 1_455
O12 P0 1.582329 1_555
O13 P1 1.477088 1_555
O13 U0 2.346858 1_556
O14 P6 1.473887 1_555
O14 U1 2.356467 1_556
O15 P4 1.592269 1_455
O15 P0 1.592269 1_545
O16 P5 1.596990 1_555
O16 P2 1.596990 1_555
O17 P5 1.485384 1_655
O17 U0 2.327739 1_556
O18 P3 1.596777 1_555
O18 P6 1.596777 1_555
O19 P7 1.477088 1_555
O19 U1 2.346858 1_556
O20 P6 1.485394 1_555
O20 U0 2.329104 1_565
O21 P0 1.476884 1_555
O21 U0 2.345574 1_565
O22 P6 1.571717 1_555
O22 P5 1.572356 1_555
O23 P2 1.485384 1_565
O23 U1 2.327739 1_556
