# generated using pymatgen
data_V2CuO6
_symmetry_space_group_name_H-M   'P 1'
_cell_length_a   4.96775229
_cell_length_b   5.29387578
_cell_length_c   6.79551910
_cell_angle_alpha   80.80802455
_cell_angle_beta   103.27114290
_cell_angle_gamma   138.42777544
_symmetry_Int_Tables_number   1
_chemical_formula_structural   V2CuO6
_chemical_formula_sum   'V2 Cu1 O6'
_cell_volume   115.40065873
_cell_formula_units_Z   1
loop_
 _symmetry_equiv_pos_site_id
 _symmetry_equiv_pos_as_xyz
  1  'x, y, z'
loop_
 _atom_site_type_symbol
 _atom_site_label
 _atom_site_symmetry_multiplicity
 _atom_site_fract_x
 _atom_site_fract_y
 _atom_site_fract_z
 _atom_site_occupancy
  V  V0  1  0.75981300  0.19890400  0.32403600  1
  V  V1  1  0.24018700  0.80109600  0.67596400  1
  Cu  Cu0  1  0.00000000  0.00000000  0.00000000  1
  O  O0  1  0.94682100  0.06687500  0.25077300  1
  O  O1  1  0.05317900  0.93312500  0.74922700  1
  O  O2  1  0.56010700  0.26953300  0.11595900  1
  O  O3  1  0.43989300  0.73046700  0.88404100  1
  O  O4  1  0.73033700  0.28522900  0.59414600  1
  O  O5  1  0.26966300  0.71477100  0.40585400  1
loop_
_geom_bond_atom_site_label_1
_geom_bond_atom_site_label_2
_geom_bond_distance
_geom_bond_site_symmetry_2
Cu0 O0 1.907506 1_455
Cu0 O1 1.907506 1_544
Cu0 O2 1.952231 1_555
Cu0 O3 1.952231 1_444
O0 V0 1.701329 1_555
O1 V1 1.701329 1_555
O2 V0 1.692770 1_555
O3 V1 1.692770 1_555
O4 V1 1.906722 1_545
O4 V1 1.916096 1_655
O4 V0 2.022623 1_555
O5 V0 1.906722 1_565
O5 V0 1.916096 1_455
O5 V1 2.022623 1_555
