# generated using pymatgen
data_LiSn2(PO4)3
_symmetry_space_group_name_H-M   'P 1'
_cell_length_a   8.86695300
_cell_length_b   8.58806500
_cell_length_c   14.89129057
_cell_angle_alpha   55.27665679
_cell_angle_beta   90.00000000
_cell_angle_gamma   90.00000000
_symmetry_Int_Tables_number   1
_chemical_formula_structural   LiSn2(PO4)3
_chemical_formula_sum   'Li4 Sn8 P12 O48'
_cell_volume   932.02467275
_cell_formula_units_Z   4
loop_
 _symmetry_equiv_pos_site_id
 _symmetry_equiv_pos_as_xyz
  1  'x, y, z'
loop_
 _atom_site_type_symbol
 _atom_site_label
 _atom_site_symmetry_multiplicity
 _atom_site_fract_x
 _atom_site_fract_y
 _atom_site_fract_z
 _atom_site_occupancy
  Li  Li0  1  0.71244200  0.98893400  0.32291800  1
  Li  Li1  1  0.21244200  0.01106600  0.17708200  1
  Li  Li2  1  0.78755800  0.98893400  0.82291800  1
  Li  Li3  1  0.28755800  0.01106600  0.67708200  1
  Sn  Sn0  1  0.96942800  0.36959900  0.88210300  1
  Sn  Sn1  1  0.46942800  0.63040100  0.61789700  1
  Sn  Sn2  1  0.53609400  0.14298600  0.10928600  1
  Sn  Sn3  1  0.03609400  0.85701400  0.39071400  1
  Sn  Sn4  1  0.96390600  0.14298600  0.60928600  1
  Sn  Sn5  1  0.46390600  0.85701400  0.89071400  1
  Sn  Sn6  1  0.53057200  0.36959900  0.38210300  1
  Sn  Sn7  1  0.03057200  0.63040100  0.11789700  1
  P  P0  1  0.24882900  0.45757400  0.00701700  1
  P  P1  1  0.12004800  0.74633300  0.64978500  1
  P  P2  1  0.38994600  0.03419500  0.35420800  1
  P  P3  1  0.88994600  0.96580500  0.14579200  1
  P  P4  1  0.62004800  0.25366700  0.85021500  1
  P  P5  1  0.74882900  0.54242600  0.49298300  1
  P  P6  1  0.25117100  0.45757400  0.50701700  1
  P  P7  1  0.37995200  0.74633300  0.14978500  1
  P  P8  1  0.11005400  0.03419500  0.85420800  1
  P  P9  1  0.61005400  0.96580500  0.64579200  1
  P  P10  1  0.87995200  0.25366700  0.35021500  1
  P  P11  1  0.75117100  0.54242600  0.99298300  1
  O  O0  1  0.61964500  0.81360600  0.62200900  1
  O  O1  1  0.62700500  0.39481300  0.05866800  1
  O  O2  1  0.81627500  0.53229000  0.90039000  1
  O  O3  1  0.91236000  0.10340500  0.32471100  1
  O  O4  1  0.13133300  0.48480500  0.92379500  1
  O  O5  1  0.29193600  0.71164200  0.67188800  1
  O  O6  1  0.08730700  0.83678000  0.52853000  1
  O  O7  1  0.50873600  0.09378700  0.26265200  1
  O  O8  1  0.23387900  0.01145200  0.31406200  1
  O  O9  1  0.31944400  0.25448200  0.06437900  1
  O  O10  1  0.02085900  0.57042600  0.72048400  1
  O  O11  1  0.44416900  0.84206400  0.45327300  1
  O  O12  1  0.94416900  0.15793600  0.04672700  1
  O  O13  1  0.52085900  0.42957400  0.77951600  1
  O  O14  1  0.81944400  0.74551800  0.43562100  1
  O  O15  1  0.73387900  0.98854800  0.18593800  1
  O  O16  1  0.00873600  0.90621300  0.23734800  1
  O  O17  1  0.58730700  0.16322000  0.97147000  1
  O  O18  1  0.79193600  0.28835800  0.82811200  1
  O  O19  1  0.63133300  0.51519500  0.57620500  1
  O  O20  1  0.41236000  0.89659500  0.17528900  1
  O  O21  1  0.31627500  0.46771000  0.59961000  1
  O  O22  1  0.11964500  0.18639400  0.87799100  1
  O  O23  1  0.12700500  0.60518700  0.44133200  1
  O  O24  1  0.87299500  0.39481300  0.55866800  1
  O  O25  1  0.88035500  0.81360600  0.12200900  1
  O  O26  1  0.68372500  0.53229000  0.40039000  1
  O  O27  1  0.58764000  0.10340500  0.82471100  1
  O  O28  1  0.36866700  0.48480500  0.42379500  1
  O  O29  1  0.20806400  0.71164200  0.17188800  1
  O  O30  1  0.41269300  0.83678000  0.02853000  1
  O  O31  1  0.99126400  0.09378700  0.76265200  1
  O  O32  1  0.26612100  0.01145200  0.81406200  1
  O  O33  1  0.18055600  0.25448200  0.56437900  1
  O  O34  1  0.47914100  0.57042600  0.22048400  1
  O  O35  1  0.05583100  0.84206400  0.95327300  1
  O  O36  1  0.55583100  0.15793600  0.54672700  1
  O  O37  1  0.97914100  0.42957400  0.27951600  1
  O  O38  1  0.68055600  0.74551800  0.93562100  1
  O  O39  1  0.76612100  0.98854800  0.68593800  1
  O  O40  1  0.49126400  0.90621300  0.73734800  1
  O  O41  1  0.91269300  0.16322000  0.47147000  1
  O  O42  1  0.70806400  0.28835800  0.32811200  1
  O  O43  1  0.86866700  0.51519500  0.07620500  1
  O  O44  1  0.08764000  0.89659500  0.67528900  1
  O  O45  1  0.18372500  0.46771000  0.09961000  1
  O  O46  1  0.37299500  0.60518700  0.94133200  1
  O  O47  1  0.38035500  0.18639400  0.37799100  1
loop_
_geom_bond_atom_site_label_1
_geom_bond_atom_site_label_2
_geom_bond_distance
_geom_bond_site_symmetry_2
Li0 O7 1.989515 1_565
Li0 O14 2.022382 1_555
Li0 O3 2.034553 1_565
Li0 O15 2.050528 1_555
Li1 O16 1.989515 1_545
Li1 O9 2.022382 1_555
Li1 O20 2.034553 1_545
Li1 O8 2.050528 1_555
Li2 O31 1.989515 1_565
Li2 O38 2.022382 1_555
Li2 O27 2.034553 1_565
Li2 O39 2.050528 1_555
Li3 O40 1.989515 1_545
Li3 O33 2.022382 1_555
Li3 O44 2.034553 1_545
Li3 O32 2.050528 1_555
O0 P9 1.539003 1_555
O0 Sn1 2.088817 1_555
O1 P11 1.537318 1_554
O1 Sn2 2.009508 1_555
O2 P11 1.542313 1_555
O2 Sn0 2.074596 1_555
O3 P10 1.565387 1_555
O3 Sn3 2.068325 1_645
O4 P0 1.531586 1_556
O4 Sn0 2.031035 1_455
O5 P1 1.551880 1_555
O5 Sn1 2.061344 1_555
O6 P1 1.533022 1_555
O6 Sn3 2.010446 1_555
O7 P2 1.560543 1_555
O7 Sn2 2.086594 1_555
O8 P2 1.563195 1_555
O8 Sn3 2.100706 1_545
O9 P0 1.570519 1_555
O9 Sn2 2.079645 1_555
O10 P1 1.533697 1_555
O10 Sn0 2.060599 1_455
O11 P2 1.535240 1_565
O11 Sn1 2.070628 1_555
O12 P3 1.535240 1_545
O12 Sn0 2.070628 1_554
O13 P4 1.533697 1_555
O13 Sn1 2.060599 1_555
O14 P5 1.570519 1_555
O14 Sn3 2.079645 1_655
O15 P3 1.563195 1_555
O15 Sn2 2.100706 1_565
O16 P3 1.560543 1_455
O16 Sn3 2.086594 1_555
O17 P4 1.533022 1_555
O17 Sn2 2.010446 1_556
O18 P4 1.551880 1_555
O18 Sn0 2.061344 1_555
O19 P5 1.531586 1_555
O19 Sn1 2.031035 1_555
O20 P7 1.565387 1_555
O20 Sn2 2.068325 1_565
O21 P6 1.542313 1_555
O21 Sn1 2.074596 1_555
O22 P8 1.539003 1_555
O22 Sn0 2.088817 1_455
O23 P6 1.537318 1_555
O23 Sn3 2.009508 1_555
O24 P5 1.537318 1_555
O24 Sn4 2.009508 1_555
O25 P3 1.539003 1_555
O25 Sn7 2.088817 1_655
O26 P5 1.542313 1_555
O26 Sn6 2.074596 1_555
O27 P4 1.565387 1_555
O27 Sn5 2.068325 1_545
O28 P6 1.531586 1_555
O28 Sn6 2.031035 1_555
O29 P7 1.551880 1_555
O29 Sn7 2.061344 1_555
O30 P7 1.533022 1_555
O30 Sn5 2.010446 1_554
O31 P8 1.560543 1_655
O31 Sn4 2.086594 1_555
O32 P8 1.563195 1_555
O32 Sn5 2.100706 1_545
O33 P6 1.570519 1_555
O33 Sn4 2.079645 1_455
O34 P7 1.533697 1_555
O34 Sn6 2.060599 1_555
O35 P8 1.535240 1_565
O35 Sn7 2.070628 1_556
O36 P9 1.535240 1_545
O36 Sn6 2.070628 1_555
O37 P10 1.533697 1_555
O37 Sn7 2.060599 1_655
O38 P11 1.570519 1_555
O38 Sn5 2.079645 1_555
O39 P9 1.563195 1_555
O39 Sn4 2.100706 1_565
O40 P9 1.560543 1_555
O40 Sn5 2.086594 1_555
O41 P10 1.533022 1_555
O41 Sn4 2.010446 1_555
O42 P10 1.551880 1_555
O42 Sn6 2.061344 1_555
O43 P11 1.531586 1_554
O43 Sn7 2.031035 1_655
O44 P1 1.565387 1_555
O44 Sn4 2.068325 1_465
O45 P0 1.542313 1_555
O45 Sn7 2.074596 1_555
O46 P0 1.537318 1_556
O46 Sn5 2.009508 1_555
O47 P2 1.539003 1_555
O47 Sn6 2.088817 1_555
