# generated using pymatgen
data_Dy4MgTi2O10
_symmetry_space_group_name_H-M   'P 1'
_cell_length_a   4.13430082
_cell_length_b   5.98700449
_cell_length_c   10.62471700
_cell_angle_alpha   90.00000000
_cell_angle_beta   90.00000000
_cell_angle_gamma   68.54248867
_symmetry_Int_Tables_number   1
_chemical_formula_structural   Dy4MgTi2O10
_chemical_formula_sum   'Dy4 Mg1 Ti2 O10'
_cell_volume   244.75617371
_cell_formula_units_Z   1
loop_
 _symmetry_equiv_pos_site_id
 _symmetry_equiv_pos_as_xyz
  1  'x, y, z'
loop_
 _atom_site_type_symbol
 _atom_site_label
 _atom_site_symmetry_multiplicity
 _atom_site_fract_x
 _atom_site_fract_y
 _atom_site_fract_z
 _atom_site_occupancy
  Dy  Dy0  1  0.13146300  0.72866800  0.92664600  1
  Dy  Dy1  1  0.13146300  0.72866800  0.57335400  1
  Dy  Dy2  1  0.87150400  0.28841400  0.06363600  1
  Dy  Dy3  1  0.87150400  0.28841400  0.43636400  1
  Mg  Mg0  1  0.59251800  0.94443500  0.25000000  1
  Ti  Ti0  1  0.22005700  0.57930800  0.25000000  1
  Ti  Ti1  1  0.77953300  0.35815700  0.75000000  1
  O  O0  1  0.99127200  0.90384300  0.37728100  1
  O  O1  1  0.99127200  0.90384300  0.12271900  1
  O  O2  1  0.70688500  0.59315400  0.90271000  1
  O  O3  1  0.70688500  0.59315400  0.59729000  1
  O  O4  1  0.29184200  0.45906300  0.75000000  1
  O  O5  1  0.71386500  0.57483700  0.25000000  1
  O  O6  1  0.29868600  0.43343200  0.07609200  1
  O  O7  1  0.29868600  0.43343200  0.42390800  1
  O  O8  1  0.94294800  0.11542400  0.62378200  1
  O  O9  1  0.94294800  0.11542400  0.87621800  1
loop_
_geom_bond_atom_site_label_1
_geom_bond_atom_site_label_2
_geom_bond_distance
_geom_bond_site_symmetry_2
Dy0 O2 2.201374 1_455
Dy0 O9 2.221655 1_465
Dy0 O2 2.229416 1_555
Dy0 O6 2.286793 1_556
Dy0 O1 2.308882 1_456
Dy0 O4 2.405089 1_555
Dy1 O3 2.201374 1_455
Dy1 O8 2.221655 1_465
Dy1 O3 2.229416 1_555
Dy1 O7 2.286793 1_555
Dy1 O0 2.308882 1_455
Dy1 O4 2.405089 1_555
Dy2 O6 2.208030 1_555
Dy2 O9 2.213869 1_554
Dy2 O6 2.238812 1_655
Dy2 O1 2.259716 1_545
Dy2 O2 2.409741 1_554
Dy2 O5 2.543294 1_555
Dy3 O7 2.208030 1_555
Dy3 O8 2.213869 1_555
Dy3 O7 2.238812 1_655
Dy3 O0 2.259716 1_545
Dy3 O3 2.409741 1_555
Dy3 O5 2.543294 1_555
Mg0 O0 2.076657 1_555
Mg0 O1 2.076657 1_555
Mg0 O5 2.082286 1_555
O0 Ti0 2.270260 1_655
O1 Ti0 2.270260 1_655
O2 Ti1 2.095949 1_555
O3 Ti1 2.095949 1_555
O4 Ti1 1.881251 1_555
O4 Ti1 2.405663 1_455
O5 Ti0 2.031912 1_555
O5 Ti0 2.102690 1_655
O6 Ti0 2.018613 1_555
O7 Ti0 2.018613 1_555
O8 Ti1 1.910079 1_555
O9 Ti1 1.910079 1_555
