# generated using pymatgen
data_Sr3MgFe2O7
_symmetry_space_group_name_H-M   'P 1'
_cell_length_a   3.88858705
_cell_length_b   3.88858588
_cell_length_c   12.06863908
_cell_angle_alpha   90.24061222
_cell_angle_beta   90.24060880
_cell_angle_gamma   90.05223178
_symmetry_Int_Tables_number   1
_chemical_formula_structural   Sr3MgFe2O7
_chemical_formula_sum   'Sr3 Mg1 Fe2 O7'
_cell_volume   182.48785764
_cell_formula_units_Z   1
loop_
 _symmetry_equiv_pos_site_id
 _symmetry_equiv_pos_as_xyz
  1  'x, y, z'
loop_
 _atom_site_type_symbol
 _atom_site_label
 _atom_site_symmetry_multiplicity
 _atom_site_fract_x
 _atom_site_fract_y
 _atom_site_fract_z
 _atom_site_occupancy
  Sr  Sr0  1  0.78621548  0.78621548  0.41250459  1
  Sr  Sr1  1  0.29174187  0.29174187  0.63742264  1
  Sr  Sr2  1  0.29574852  0.29574853  0.92843166  1
  Mg  Mg0  1  0.79002738  0.79002738  0.13173716  1
  Fe  Fe0  1  0.79370168  0.79370068  0.78230811  1
  Fe  Fe1  1  0.28864543  0.28864643  0.24725542  1
  O  O0  1  0.29385019  0.79449733  0.78487749  1
  O  O1  1  0.78775101  0.28881803  0.20256959  1
  O  O2  1  0.78957571  0.78957771  0.60171695  1
  O  O3  1  0.79449833  0.29385020  0.78487649  1
  O  O4  1  0.79493616  0.79493616  0.97200676  1
  O  O5  1  0.28881603  0.78775101  0.20257059  1
  O  O6  1  0.28782520  0.28782319  0.40547255  1
loop_
_geom_bond_atom_site_label_1
_geom_bond_atom_site_label_2
_geom_bond_distance
_geom_bond_site_symmetry_2
Mg0 O4 1.928078 1_554
Mg0 O5 2.116370 1_655
Mg0 O1 2.116371 1_565
Mg0 O1 2.131539 1_555
Mg0 O5 2.131551 1_555
Fe0 O3 1.944094 1_555
Fe0 O0 1.944099 1_555
Fe0 O0 1.944987 1_655
Fe0 O3 1.944991 1_565
Fe0 O2 2.179473 1_555
Fe0 O4 2.289374 1_555
Fe1 O6 1.909498 1_555
Fe1 O5 2.016524 1_555
Fe1 O1 2.016531 1_555
Fe1 O5 2.018871 1_545
Fe1 O1 2.018871 1_455
O0 Sr2 2.602373 1_565
O0 Sr2 2.605982 1_555
O0 Sr1 2.633344 1_565
O0 Sr1 2.638115 1_555
O2 Sr0 2.283501 1_555
O2 Sr1 2.772740 1_555
O2 Sr1 2.784454 1_565
O2 Sr1 2.784465 1_655
O2 Sr1 2.791196 1_665
O3 Sr2 2.602378 1_655
O3 Sr2 2.605993 1_555
O3 Sr1 2.633333 1_655
O3 Sr1 2.638111 1_555
O4 Sr2 2.790797 1_555
O4 Sr2 2.800724 1_655
O4 Sr2 2.800724 1_565
O4 Sr2 2.805707 1_665
O6 Sr0 2.740360 1_555
O6 Sr0 2.752218 1_545
O6 Sr0 2.752229 1_455
O6 Sr0 2.759045 1_445
O6 Sr1 2.799277 1_555
