# generated using pymatgen
data_Ga2Au
_symmetry_space_group_name_H-M   'P 1'
_cell_length_a   4.31875307
_cell_length_b   4.31875376
_cell_length_c   4.31875299
_cell_angle_alpha   59.99999053
_cell_angle_beta   59.99998519
_cell_angle_gamma   59.99999994
_symmetry_Int_Tables_number   1
_chemical_formula_structural   Ga2Au
_chemical_formula_sum   'Ga2 Au1'
_cell_volume   56.95870464
_cell_formula_units_Z   1
loop_
 _symmetry_equiv_pos_site_id
 _symmetry_equiv_pos_as_xyz
  1  'x, y, z'
loop_
 _atom_site_type_symbol
 _atom_site_label
 _atom_site_symmetry_multiplicity
 _atom_site_fract_x
 _atom_site_fract_y
 _atom_site_fract_z
 _atom_site_occupancy
  Ga  Ga0  1  0.75000000  0.75000000  0.75000000  1
  Ga  Ga1  1  0.25000000  0.25000000  0.25000000  1
  Au  Au0  1  -0.00000000  -0.00000000  0.00000000  1
loop_
_geom_bond_atom_site_label_1
_geom_bond_atom_site_label_2
_geom_bond_distance
_geom_bond_site_symmetry_2
Ga0 Ga1 3.053819 1_665
Ga0 Ga1 3.053819 1_556
Ga0 Ga1 3.053820 1_565
Ga0 Ga1 3.053820 1_656
Ga0 Ga1 3.053820 1_655
Ga0 Ga1 3.053820 1_566
Au0 Ga1 2.644685 1_554
Au0 Ga0 2.644685 1_445
Au0 Ga0 2.644685 1_544
Au0 Ga1 2.644685 1_455
Au0 Ga1 2.644686 1_555
Au0 Ga0 2.644686 1_444
Au0 Ga1 2.644686 1_545
Au0 Ga0 2.644686 1_454
