# generated using pymatgen
data_SrRuO3
_symmetry_space_group_name_H-M   'P 1'
_cell_length_a   5.54327240
_cell_length_b   5.57521296
_cell_length_c   7.87656975
_cell_angle_alpha   90.00000000
_cell_angle_beta   90.00000000
_cell_angle_gamma   90.00000000
_symmetry_Int_Tables_number   1
_chemical_formula_structural   SrRuO3
_chemical_formula_sum   'Sr4 Ru4 O12'
_cell_volume   243.42479049
_cell_formula_units_Z   4
loop_
 _symmetry_equiv_pos_site_id
 _symmetry_equiv_pos_as_xyz
  1  'x, y, z'
loop_
 _atom_site_type_symbol
 _atom_site_label
 _atom_site_symmetry_multiplicity
 _atom_site_fract_x
 _atom_site_fract_y
 _atom_site_fract_z
 _atom_site_occupancy
  Sr  Sr0  1  0.47764435  0.49663032  0.25000000  1
  Sr  Sr1  1  0.97764435  0.00336968  0.25000000  1
  Sr  Sr2  1  0.52235565  0.50336968  0.75000000  1
  Sr  Sr3  1  0.02235565  0.99663032  0.75000000  1
  Ru  Ru0  1  0.50000000  -0.00000000  0.00000000  1
  Ru  Ru1  1  0.00000000  0.50000000  0.50000000  1
  Ru  Ru2  1  0.50000000  -0.00000000  0.50000000  1
  Ru  Ru3  1  0.00000000  0.50000000  0.00000000  1
  O  O0  1  0.22084786  0.22095520  0.02870116  1
  O  O1  1  0.72084786  0.27904480  0.47129884  1
  O  O2  1  0.77915214  0.77904480  0.52870116  1
  O  O3  1  0.27915214  0.72095520  0.97129884  1
  O  O4  1  0.77915214  0.77904480  0.97129884  1
  O  O5  1  0.27915214  0.72095520  0.52870116  1
  O  O6  1  0.22084786  0.22095520  0.47129884  1
  O  O7  1  0.72084786  0.27904480  0.02870116  1
  O  O8  1  0.00370318  0.55519375  0.25000000  1
  O  O9  1  0.50370318  0.94480625  0.25000000  1
  O  O10  1  0.99629682  0.44480625  0.75000000  1
  O  O11  1  0.49629682  0.05519375  0.75000000  1
loop_
_geom_bond_atom_site_label_1
_geom_bond_atom_site_label_2
_geom_bond_distance
_geom_bond_site_symmetry_2
O0 Ru0 1.990757 1_555
O0 Ru3 1.992518 1_555
O0 Sr1 2.515428 1_455
O0 Sr0 2.725225 1_555
O0 Sr3 2.755675 1_544
O0 Sr2 3.176702 1_554
O1 Ru1 1.990757 1_655
O1 Ru2 1.992518 1_555
O1 Sr0 2.515428 1_555
O1 Sr1 2.725225 1_555
O1 Sr2 2.755675 1_555
O1 Sr3 3.176702 1_645
O2 Ru2 1.990757 1_565
O2 Ru1 1.992518 1_655
O2 Sr3 2.515428 1_655
O2 Sr2 2.725225 1_555
O2 Sr1 2.755675 1_565
O2 Sr0 3.176702 1_555
O3 Ru3 1.990757 1_556
O3 Ru0 1.992518 1_566
O3 Sr2 2.515428 1_555
O3 Sr3 2.725225 1_555
O3 Sr0 2.755675 1_556
O3 Sr1 3.176702 1_466
O4 Ru0 1.990757 1_566
O4 Ru3 1.992518 1_656
O4 Sr3 2.515428 1_655
O4 Sr2 2.725225 1_555
O4 Sr1 2.755675 1_566
O4 Sr0 3.176702 1_556
O5 Ru1 1.990757 1_555
O5 Ru2 1.992518 1_565
O5 Sr2 2.515428 1_555
O5 Sr3 2.725225 1_555
O5 Sr0 2.755675 1_555
O5 Sr1 3.176702 1_465
O6 Ru2 1.990757 1_555
O6 Ru1 1.992518 1_555
O6 Sr1 2.515428 1_455
O6 Sr0 2.725225 1_555
O6 Sr3 2.755675 1_545
O6 Sr2 3.176702 1_555
O7 Ru3 1.990757 1_655
O7 Ru0 1.992518 1_555
O7 Sr0 2.515428 1_555
O7 Sr1 2.725225 1_555
O7 Sr2 2.755675 1_554
O7 Sr3 3.176702 1_644
O8 Ru1 1.993147 1_555
O8 Ru3 1.993147 1_555
O8 Sr1 2.502848 1_465
O8 Sr0 2.647396 1_555
O8 Sr0 2.934309 1_455
O8 Sr1 3.079926 1_455
O9 Ru2 1.993147 1_565
O9 Ru0 1.993147 1_565
O9 Sr0 2.502848 1_555
O9 Sr1 2.647396 1_565
O9 Sr1 2.934309 1_465
O9 Sr0 3.079926 1_565
O10 Ru3 1.993147 1_656
O10 Ru1 1.993147 1_655
O10 Sr3 2.502848 1_645
O10 Sr2 2.647396 1_555
O10 Sr2 2.934309 1_655
O10 Sr3 3.079926 1_655
O11 Ru2 1.993147 1_555
O11 Ru0 1.993147 1_556
O11 Sr2 2.502848 1_555
O11 Sr3 2.647396 1_545
O11 Sr3 2.934309 1_645
O11 Sr2 3.079926 1_545
