# generated using pymatgen
data_MgTi2O5
_symmetry_space_group_name_H-M   'P 1'
_cell_length_a   3.74069933
_cell_length_b   5.21434758
_cell_length_c   10.00066454
_cell_angle_alpha   90.00000000
_cell_angle_beta   90.00000000
_cell_angle_gamma   111.01995265
_symmetry_Int_Tables_number   1
_chemical_formula_structural   MgTi2O5
_chemical_formula_sum   'Mg2 Ti4 O10'
_cell_volume   182.08546975
_cell_formula_units_Z   2
loop_
 _symmetry_equiv_pos_site_id
 _symmetry_equiv_pos_as_xyz
  1  'x, y, z'
loop_
 _atom_site_type_symbol
 _atom_site_label
 _atom_site_symmetry_multiplicity
 _atom_site_fract_x
 _atom_site_fract_y
 _atom_site_fract_z
 _atom_site_occupancy
  Mg  Mg0  1  0.19642107  0.39284214  0.75000000  1
  Mg  Mg1  1  0.80357893  0.60715786  0.25000000  1
  Ti  Ti0  1  0.86667016  0.73334033  0.56672290  1
  Ti  Ti1  1  0.13332984  0.26665967  0.43327710  1
  Ti  Ti2  1  0.86667016  0.73334033  0.93327710  1
  Ti  Ti3  1  0.13332984  0.26665967  0.06672290  1
  O  O0  1  0.31335091  0.62670081  0.56208557  1
  O  O1  1  0.68664909  0.37329919  0.43791443  1
  O  O2  1  0.68664909  0.37329919  0.06208557  1
  O  O3  1  0.31335091  0.62670081  0.93791443  1
  O  O4  1  0.04691124  0.09382148  0.61324876  1
  O  O5  1  0.95308876  0.90617852  0.38675124  1
  O  O6  1  0.78317016  0.56634031  0.75000000  1
  O  O7  1  0.21682984  0.43365969  0.25000000  1
  O  O8  1  0.04691124  0.09382148  0.88675124  1
  O  O9  1  0.95308876  0.90617852  0.11324876  1
loop_
_geom_bond_atom_site_label_1
_geom_bond_atom_site_label_2
_geom_bond_distance
_geom_bond_site_symmetry_2
Mg0 O4 1.997160 1_555
Mg0 O8 1.997160 1_555
Mg0 O6 2.052158 1_555
Mg0 O6 2.052158 1_455
Mg0 O0 2.197117 1_555
Mg0 O3 2.197117 1_555
Mg1 O5 1.997160 1_555
Mg1 O9 1.997160 1_555
Mg1 O7 2.052158 1_555
Mg1 O7 2.052158 1_655
Mg1 O2 2.197117 1_555
Mg1 O1 2.197117 1_555
O0 Ti0 1.941589 1_555
O0 Ti0 1.941593 1_455
O0 Ti1 2.174963 1_555
O1 Ti1 1.941589 1_555
O1 Ti1 1.941593 1_655
O1 Ti0 2.174963 1_555
O2 Ti3 1.941589 1_555
O2 Ti3 1.941593 1_655
O2 Ti2 2.174963 1_554
O3 Ti2 1.941589 1_555
O3 Ti2 1.941593 1_455
O3 Ti3 2.174963 1_556
O4 Ti0 1.815238 1_445
O4 Ti1 1.986741 1_555
O5 Ti1 1.815238 1_665
O5 Ti0 1.986741 1_555
O6 Ti0 2.005049 1_555
O6 Ti2 2.005049 1_555
O7 Ti1 2.005049 1_555
O7 Ti3 2.005049 1_555
O8 Ti2 1.815238 1_445
O8 Ti3 1.986741 1_556
O9 Ti3 1.815238 1_665
O9 Ti2 1.986741 1_554
