# generated using pymatgen
data_Tb2MgTi2S2O5
_symmetry_space_group_name_H-M   'P 1'
_cell_length_a   3.91214229
_cell_length_b   3.91214215
_cell_length_c   11.54590146
_cell_angle_alpha   99.75392442
_cell_angle_beta   99.75392605
_cell_angle_gamma   89.99999484
_symmetry_Int_Tables_number   1
_chemical_formula_structural   Tb2MgTi2S2O5
_chemical_formula_sum   'Tb2 Mg1 Ti2 S2 O5'
_cell_volume   171.56150780
_cell_formula_units_Z   1
loop_
 _symmetry_equiv_pos_site_id
 _symmetry_equiv_pos_as_xyz
  1  'x, y, z'
loop_
 _atom_site_type_symbol
 _atom_site_label
 _atom_site_symmetry_multiplicity
 _atom_site_fract_x
 _atom_site_fract_y
 _atom_site_fract_z
 _atom_site_occupancy
  Tb  Tb0  1  0.83377600  0.83377600  0.66755100  1
  Tb  Tb1  1  0.16622400  0.16622400  0.33244900  1
  Mg  Mg0  1  0.00000000  0.00000000  0.00000000  1
  Ti  Ti0  1  0.41346500  0.41346500  0.82693000  1
  Ti  Ti1  1  0.58653500  0.58653500  0.17307000  1
  S  S0  1  0.29505000  0.29505000  0.59010000  1
  S  S1  1  0.70495000  0.70495000  0.40990000  1
  O  O0  1  0.40272300  0.90272300  0.80544700  1
  O  O1  1  0.90272300  0.40272300  0.80544700  1
  O  O2  1  0.59727700  0.09727700  0.19455300  1
  O  O3  1  0.09727700  0.59727700  0.19455300  1
  O  O4  1  0.50000000  0.50000000  0.00000000  1
loop_
_geom_bond_atom_site_label_1
_geom_bond_atom_site_label_2
_geom_bond_distance
_geom_bond_site_symmetry_2
Mg0 O4 2.766302 1_455
Mg0 O4 2.766302 1_545
Mg0 O4 2.766302 1_555
Mg0 O4 2.766302 1_445
S0 Ti0 2.654772 1_555
S0 Tb1 2.888168 1_555
S0 Tb0 2.899341 1_445
S0 Tb0 2.899343 1_545
S0 Tb0 2.899343 1_455
S0 Tb0 2.899346 1_555
S1 Ti1 2.654772 1_555
S1 Tb0 2.888168 1_555
S1 Tb1 2.899341 1_665
S1 Tb1 2.899343 1_565
S1 Tb1 2.899343 1_655
S1 Tb1 2.899346 1_555
O0 Ti0 1.970837 1_555
O0 Ti0 1.970841 1_565
O0 Tb0 2.493105 1_455
O0 Tb0 2.493112 1_555
O1 Ti0 1.970837 1_555
O1 Ti0 1.970841 1_655
O1 Tb0 2.493105 1_545
O1 Tb0 2.493112 1_555
O2 Ti1 1.970837 1_555
O2 Ti1 1.970841 1_545
O2 Tb1 2.493105 1_655
O2 Tb1 2.493112 1_555
O3 Ti1 1.970837 1_555
O3 Ti1 1.970841 1_455
O3 Tb1 2.493105 1_565
O3 Tb1 2.493112 1_555
O4 Ti0 1.940048 1_554
O4 Ti1 1.940048 1_555
