# generated using pymatgen
data_MgMn6(O2F)4
_symmetry_space_group_name_H-M   'P 1'
_cell_length_a   5.22693892
_cell_length_b   7.56109448
_cell_length_c   5.87402106
_cell_angle_alpha   98.40891965
_cell_angle_beta   98.95083032
_cell_angle_gamma   85.25398485
_symmetry_Int_Tables_number   1
_chemical_formula_structural   MgMn6(O2F)4
_chemical_formula_sum   'Mg1 Mn6 O8 F4'
_cell_volume   226.42921105
_cell_formula_units_Z   1
loop_
 _symmetry_equiv_pos_site_id
 _symmetry_equiv_pos_as_xyz
  1  'x, y, z'
loop_
 _atom_site_type_symbol
 _atom_site_label
 _atom_site_symmetry_multiplicity
 _atom_site_fract_x
 _atom_site_fract_y
 _atom_site_fract_z
 _atom_site_occupancy
  Mg  Mg0  1  0.52124810  0.16295059  0.17422744  1
  Mn  Mn0  1  0.34573338  0.97199443  0.52859778  1
  Mn  Mn1  1  0.55073654  0.67441693  0.13172622  1
  Mn  Mn2  1  0.55895302  0.36328318  0.76601130  1
  Mn  Mn3  1  0.99090216  0.65262056  0.70034643  1
  Mn  Mn4  1  0.00759393  0.33732735  0.33058868  1
  Mn  Mn5  1  0.01273699  0.97819126  0.00419668  1
  O  O0  1  0.85358026  0.42164711  0.63286340  1
  O  O1  1  0.84483408  0.75071895  0.97042453  1
  O  O2  1  0.89651619  0.10076662  0.28584605  1
  O  O3  1  0.67818495  0.41312115  0.11351189  1
  O  O4  1  0.33122981  0.57429577  0.84951159  1
  O  O5  1  0.36234066  0.24731650  0.47750715  1
  O  O6  1  0.37674828  0.91066022  0.17780715  1
  O  O7  1  0.10309421  0.88641895  0.71104021  1
  F  F0  1  0.61827849  0.09117046  0.83874585  1
  F  F1  1  0.65073901  0.73670950  0.47778509  1
  F  F2  1  0.12458346  0.57955081  0.38471919  1
  F  F3  1  0.17196649  0.22183667  0.00406636  1
loop_
_geom_bond_atom_site_label_1
_geom_bond_atom_site_label_2
_geom_bond_distance
_geom_bond_site_symmetry_2
Mg0 O2 2.008930 1_555
Mg0 O5 2.076258 1_555
Mg0 O6 2.113032 1_545
Mg0 O3 2.218829 1_555
Mn0 O7 1.984229 1_555
Mn0 O6 2.073461 1_555
Mn0 O5 2.156839 1_565
Mn1 O6 1.938405 1_555
Mn1 O4 1.955100 1_554
Mn1 O3 2.025119 1_555
Mn1 O1 2.086508 1_554
Mn2 O0 1.940679 1_555
Mn2 O4 1.959970 1_555
Mn2 O5 1.967099 1_555
Mn2 O3 2.028557 1_556
Mn3 O1 1.894445 1_555
Mn3 O7 1.897487 1_655
Mn3 O0 1.907540 1_555
Mn3 O4 1.943004 1_655
Mn4 O2 1.895346 1_455
Mn4 O5 2.027604 1_555
Mn4 O0 2.058139 1_455
Mn4 O3 2.070314 1_455
Mn5 O7 1.875961 1_554
Mn5 O2 1.932925 1_465
Mn5 O1 1.965597 1_454
Mn5 O6 2.075713 1_555
F0 Mg0 2.094706 1_556
F0 Mn2 2.149924 1_555
F0 Mn0 2.255018 1_545
F0 Mn5 2.291974 1_646
F1 Mn1 2.014261 1_555
F1 Mn3 2.146490 1_555
F1 Mn0 2.306303 1_555
F2 Mn4 1.945207 1_555
F2 Mn3 2.066508 1_455
F3 Mg0 1.989523 1_555
F3 Mn5 2.083464 1_545
F3 Mn4 2.253486 1_555
