# generated using pymatgen
data_NdFeSi
_symmetry_space_group_name_H-M   'P 1'
_cell_length_a   4.04857541
_cell_length_b   4.04857541
_cell_length_c   6.97736365
_cell_angle_alpha   90.00000000
_cell_angle_beta   90.00000000
_cell_angle_gamma   90.00000000
_symmetry_Int_Tables_number   1
_chemical_formula_structural   NdFeSi
_chemical_formula_sum   'Nd2 Fe2 Si2'
_cell_volume   114.36570838
_cell_formula_units_Z   2
loop_
 _symmetry_equiv_pos_site_id
 _symmetry_equiv_pos_as_xyz
  1  'x, y, z'
loop_
 _atom_site_type_symbol
 _atom_site_label
 _atom_site_symmetry_multiplicity
 _atom_site_fract_x
 _atom_site_fract_y
 _atom_site_fract_z
 _atom_site_occupancy
  Nd  Nd0  1  0.25000000  0.25000000  0.69075581  1
  Nd  Nd1  1  0.75000000  0.75000000  0.30924419  1
  Fe  Fe0  1  0.75000000  0.25000000  -0.00000000  1
  Fe  Fe1  1  0.25000000  0.75000000  0.00000000  1
  Si  Si0  1  0.75000000  0.75000000  0.84187919  1
  Si  Si1  1  0.25000000  0.25000000  0.15812081  1
loop_
_geom_bond_atom_site_label_1
_geom_bond_atom_site_label_2
_geom_bond_distance
_geom_bond_site_symmetry_2
Nd0 Si0 3.050792 1_445
Nd0 Si0 3.050792 1_455
Nd0 Si0 3.050792 1_545
Nd0 Si0 3.050792 1_555
Nd0 Si1 3.716388 1_555
Nd1 Si1 3.050792 1_555
Nd1 Si1 3.050792 1_655
Nd1 Si1 3.050792 1_565
Nd1 Si1 3.050792 1_665
Nd1 Si0 3.716388 1_555
Fe0 Si1 2.305415 1_555
Fe0 Si0 2.305415 1_554
Fe0 Si0 2.305415 1_544
Fe0 Si1 2.305415 1_655
Fe0 Nd0 2.958623 1_654
Fe0 Nd0 2.958623 1_554
Fe0 Nd1 2.958623 1_555
Fe0 Nd1 2.958623 1_545
Fe1 Si1 2.305415 1_555
Fe1 Si0 2.305415 1_554
Fe1 Si0 2.305415 1_454
Fe1 Si1 2.305415 1_565
Fe1 Nd0 2.958623 1_554
Fe1 Nd1 2.958623 1_455
Fe1 Nd1 2.958623 1_555
Fe1 Nd0 2.958623 1_564
