# generated using pymatgen
data_Sc3TaP2(SO6)4
_symmetry_space_group_name_H-M   'P 1'
_cell_length_a   8.84435153
_cell_length_b   8.84711951
_cell_length_c   22.82685327
_cell_angle_alpha   89.94500894
_cell_angle_beta   90.03546930
_cell_angle_gamma   119.89779788
_symmetry_Int_Tables_number   1
_chemical_formula_structural   Sc3TaP2(SO6)4
_chemical_formula_sum   'Sc9 Ta3 P6 S12 O72'
_cell_volume   1548.42688431
_cell_formula_units_Z   3
loop_
 _symmetry_equiv_pos_site_id
 _symmetry_equiv_pos_as_xyz
  1  'x, y, z'
loop_
 _atom_site_type_symbol
 _atom_site_label
 _atom_site_symmetry_multiplicity
 _atom_site_fract_x
 _atom_site_fract_y
 _atom_site_fract_z
 _atom_site_occupancy
  Sc  Sc0  1  0.99698109  0.99990276  0.35647698  1
  Sc  Sc1  1  0.99387521  0.00222467  0.85707326  1
  Sc  Sc2  1  0.99022403  0.99591106  0.64602913  1
  Sc  Sc3  1  0.00217613  0.00973352  0.14389415  1
  Sc  Sc4  1  0.66592677  0.32724657  0.68904958  1
  Sc  Sc5  1  0.67363061  0.33489277  0.19010998  1
  Sc  Sc6  1  0.67337738  0.33906282  0.47695226  1
  Sc  Sc7  1  0.33209016  0.66612094  0.01974646  1
  Sc  Sc8  1  0.32876326  0.67097344  0.52387194  1
  Ta  Ta0  1  0.66679786  0.33293644  0.97297512  1
  Ta  Ta1  1  0.32327441  0.66063644  0.31238846  1
  Ta  Ta2  1  0.33801153  0.67109815  0.81289670  1
  P  P0  1  0.00047356  0.28546005  0.25052162  1
  P  P1  1  0.71159855  0.99927289  0.75041901  1
  P  P2  1  0.61810139  0.66663059  0.91773431  1
  P  P3  1  0.05033920  0.38354063  0.91728551  1
  P  P4  1  0.33121822  0.95142011  0.91737809  1
  P  P5  1  0.04566618  0.66792305  0.41794250  1
  S  S0  1  0.28888988  0.99803365  0.25049735  1
  S  S1  1  0.70745034  0.71188839  0.25066252  1
  S  S2  1  0.28902410  0.29215537  0.75061220  1
  S  S3  1  0.00249853  0.71060965  0.75070536  1
  S  S4  1  0.95521948  0.33215580  0.58337636  1
  S  S5  1  0.37694021  0.04765308  0.58318746  1
  S  S6  1  0.66633485  0.62089357  0.58320136  1
  S  S7  1  0.95081805  0.61960826  0.08273933  1
  S  S8  1  0.66550533  0.04834586  0.08273321  1
  S  S9  1  0.38369757  0.33310582  0.08300914  1
  S  S10  1  0.61647998  0.95099694  0.41662223  1
  S  S11  1  0.33411369  0.38158286  0.41704439  1
  O  O0  1  0.20895162  0.02431635  0.30267618  1
  O  O1  1  0.81650568  0.78987229  0.30262623  1
  O  O2  1  0.97505274  0.17540991  0.30460439  1
  O  O3  1  0.21152829  0.18470108  0.80272253  1
  O  O4  1  0.97652275  0.79072917  0.80281140  1
  O  O5  1  0.82240718  0.02606708  0.80444349  1
  O  O6  1  0.78822785  0.96059241  0.69580860  1
  O  O7  1  0.18021341  0.21776003  0.69803684  1
  O  O8  1  0.04016693  0.82051073  0.69807157  1
  O  O9  1  0.78238683  0.82106930  0.19799521  1
  O  O10  1  0.03891093  0.20879735  0.19565262  1
  O  O11  1  0.17851347  0.95871055  0.19796138  1
  O  O12  1  0.87472367  0.36166836  0.63546125  1
  O  O13  1  0.48710821  0.12911923  0.63539553  1
  O  O14  1  0.63924154  0.51285119  0.63554102  1
  O  O15  1  0.86840752  0.51080807  0.13515267  1
  O  O16  1  0.64021935  0.13041713  0.13524149  1
  O  O17  1  0.49023998  0.35717832  0.13553351  1
  O  O18  1  0.47308850  0.30963882  0.03023184  1
  O  O19  1  0.83729834  0.52960479  0.03013525  1
  O  O20  1  0.69098173  0.16231610  0.03017802  1
  O  O21  1  0.45917754  0.15527276  0.53021207  1
  O  O22  1  0.69353859  0.53827246  0.53028639  1
  O  O23  1  0.84551933  0.30365292  0.53056588  1
  O  O24  1  0.53492322  0.69217188  0.97194657  1
  O  O25  1  0.15685222  0.46623348  0.97204973  1
  O  O26  1  0.30719868  0.84362786  0.97176551  1
  O  O27  1  0.53801461  0.84211464  0.46845061  1
  O  O28  1  0.30708297  0.46341598  0.46835799  1
  O  O29  1  0.16321057  0.69604159  0.47022495  1
  O  O30  1  0.14462452  0.64359950  0.36220382  1
  O  O31  1  0.50490472  0.86074367  0.36323800  1
  O  O32  1  0.35955014  0.49619930  0.36323756  1
  O  O33  1  0.13431952  0.50330950  0.86299447  1
  O  O34  1  0.36802371  0.86515377  0.86310940  1
  O  O35  1  0.49682594  0.63067285  0.86321608  1
  O  O36  1  0.02958124  0.82729201  0.40404366  1
  O  O37  1  0.78894063  0.96912863  0.40694226  1
  O  O38  1  0.17985497  0.21111940  0.40649090  1
  O  O39  1  0.02024388  0.20290365  0.90671076  1
  O  O40  1  0.18329738  0.98294090  0.90420815  1
  O  O41  1  0.79924151  0.81393452  0.90615333  1
  O  O42  1  0.97501451  0.17735987  0.59129714  1
  O  O43  1  0.20274098  0.02700414  0.59196830  1
  O  O44  1  0.82359312  0.79446310  0.59049536  1
  O  O45  1  0.96336117  0.79124745  0.08952574  1
  O  O46  1  0.82506696  0.03488810  0.08861199  1
  O  O47  1  0.21167266  0.17216001  0.08844081  1
  O  O48  1  0.67996709  0.15200439  0.74022341  1
  O  O49  1  0.46664577  0.32243058  0.74170414  1
  O  O50  1  0.85295162  0.53528124  0.74161253  1
  O  O51  1  0.67898787  0.53488114  0.24176272  1
  O  O52  1  0.84860252  0.31840778  0.24060952  1
  O  O53  1  0.46426078  0.14747145  0.24167043  1
  O  O54  1  0.63104185  0.49515916  0.92798027  1
  O  O55  1  0.86416216  0.36765169  0.92816455  1
  O  O56  1  0.50308448  0.13558317  0.92812213  1
  O  O57  1  0.62840810  0.12174722  0.42163242  1
  O  O58  1  0.49195190  0.36775552  0.42127478  1
  O  O59  1  0.86924952  0.50169540  0.42305947  1
  O  O60  1  0.36363930  0.48584342  0.07492474  1
  O  O61  1  0.12254255  0.63687151  0.07475121  1
  O  O62  1  0.51240284  0.87665681  0.07465666  1
  O  O63  1  0.36097042  0.87334423  0.57595733  1
  O  O64  1  0.51199149  0.64147512  0.57436233  1
  O  O65  1  0.12995162  0.48722920  0.57530650  1
  O  O66  1  0.31204369  0.84016159  0.26133964  1
  O  O67  1  0.53045351  0.69373133  0.26203464  1
  O  O68  1  0.16729934  0.47261754  0.26292882  1
  O  O69  1  0.30594719  0.47016348  0.76134105  1
  O  O70  1  0.16189950  0.69024940  0.76122939  1
  O  O71  1  0.52497552  0.83250926  0.76318691  1
loop_
_geom_bond_atom_site_label_1
_geom_bond_atom_site_label_2
_geom_bond_distance
_geom_bond_site_symmetry_2
O0 S0 1.462208 1_545
O0 Sc0 2.160605 1_445
O1 S1 1.466309 1_555
O1 Sc0 2.134660 1_555
O2 P0 1.517365 1_655
O2 Sc0 2.036431 1_545
O3 S2 1.462103 1_555
O3 Sc1 2.179937 1_455
O4 S3 1.460899 1_655
O4 Sc1 2.185589 1_565
O5 P1 1.518197 1_545
O5 Sc1 2.025782 1_555
O6 P1 1.537362 1_555
O6 Sc2 2.006447 1_555
O7 S2 1.472511 1_555
O7 Sc2 2.190742 1_445
O8 S3 1.474861 1_555
O8 Sc2 2.166461 1_455
O9 S1 1.475870 1_555
O9 Sc3 2.203242 1_665
O10 P0 1.541533 1_555
O10 Sc3 2.009024 1_555
O11 S0 1.474093 1_555
O11 Sc3 2.204014 1_565
O12 S4 1.474972 1_555
O12 Sc4 2.107305 1_555
O13 S5 1.479605 1_555
O13 Sc4 2.076503 1_555
O14 S6 1.472530 1_555
O14 Sc4 2.150843 1_555
O15 S7 1.479421 1_555
O15 Sc5 2.071167 1_555
O16 S8 1.475720 1_555
O16 Sc5 2.097509 1_555
O17 S9 1.473035 1_555
O17 Sc5 2.130149 1_555
O18 S9 1.511573 1_555
O18 Ta0 2.082330 1_554
O19 S7 1.512388 1_555
O19 Ta0 2.095256 1_554
O20 S8 1.509365 1_555
O20 Ta0 2.084968 1_554
O21 S5 1.485388 1_555
O21 Sc6 2.153860 1_555
O22 S6 1.492832 1_555
O22 Sc6 2.076223 1_555
O23 S4 1.487744 1_555
O23 Sc6 2.094349 1_555
O24 P2 1.513615 1_555
O24 Sc7 2.012859 1_556
O25 P3 1.516127 1_555
O25 Sc7 1.996018 1_556
O26 P4 1.513927 1_555
O26 Sc7 2.013788 1_556
O27 S10 1.463423 1_555
O27 Sc8 2.126919 1_555
O28 S11 1.458713 1_555
O28 Sc8 2.160482 1_555
O29 P5 1.519271 1_555
O29 Sc8 2.003422 1_555
O30 P5 1.618898 1_555
O30 Ta1 1.891240 1_555
O31 S10 1.520264 1_555
O31 Ta1 2.056344 1_555
O32 S11 1.535567 1_555
O32 Ta1 2.007050 1_555
O33 P3 1.557025 1_555
O33 Ta2 2.022406 1_555
O34 P4 1.572584 1_555
O34 Ta2 1.969985 1_555
O35 P2 1.568232 1_555
O35 Ta2 1.979449 1_555
O36 P5 1.519184 1_555
O36 Sc0 2.007367 1_455
O37 S10 1.468854 1_555
O37 Sc0 2.071062 1_555
O38 S11 1.463866 1_555
O38 Sc0 2.097627 1_445
O39 P3 1.503228 1_555
O39 Sc1 2.020185 1_455
O40 P4 1.497584 1_555
O40 Sc1 2.067799 1_465
O41 P2 1.501117 1_555
O41 Sc1 2.033100 1_565
O42 S4 1.475593 1_555
O42 Sc2 2.089784 1_545
O43 S5 1.472062 1_555
O43 Sc2 2.148977 1_445
O44 S6 1.480287 1_555
O44 Sc2 2.082986 1_555
O45 S7 1.474679 1_555
O45 Sc3 2.176468 1_665
O46 S8 1.480190 1_555
O46 Sc3 2.107168 1_655
O47 S9 1.482525 1_555
O47 Sc3 2.108427 1_555
O48 P1 1.527885 1_545
O48 Sc4 1.992973 1_555
O49 S2 1.470301 1_555
O49 Sc4 2.116737 1_555
O50 S3 1.467494 1_655
O50 Sc4 2.128374 1_555
O51 S1 1.471245 1_555
O51 Sc5 2.107916 1_555
O52 P0 1.526490 1_655
O52 Sc5 1.991823 1_555
O53 S0 1.466238 1_545
O53 Sc5 2.121700 1_555
O54 P2 1.594223 1_555
O54 Ta0 1.914149 1_555
O55 P3 1.600768 1_655
O55 Ta0 1.911740 1_555
O56 P4 1.598962 1_545
O56 Ta0 1.916936 1_555
O57 S10 1.465506 1_545
O57 Sc6 2.165867 1_555
O58 S11 1.463932 1_555
O58 Sc6 2.158092 1_555
O59 P5 1.524234 1_655
O59 Sc6 2.024619 1_555
O60 S9 1.459441 1_555
O60 Sc7 2.155808 1_555
O61 S7 1.460255 1_455
O61 Sc7 2.145315 1_555
O62 S8 1.457586 1_565
O62 Sc7 2.150458 1_555
O63 S5 1.486161 1_565
O63 Sc8 2.048293 1_555
O64 S6 1.478058 1_555
O64 Sc8 2.107440 1_555
O65 S4 1.480082 1_455
O65 Sc8 2.064519 1_555
O66 S0 1.529184 1_555
O66 Ta1 2.010961 1_555
O67 S1 1.514422 1_555
O67 Ta1 2.057077 1_555
O68 P0 1.601172 1_555
O68 Ta1 1.912782 1_555
O69 S2 1.525867 1_555
O69 Ta2 2.031410 1_555
O70 S3 1.526548 1_555
O70 Ta2 2.026386 1_555
O71 P1 1.599415 1_555
O71 Ta2 1.925179 1_555
