# generated using pymatgen
data_Pa3As4
_symmetry_space_group_name_H-M   'P 1'
_cell_length_a   7.44639002
_cell_length_b   7.44638940
_cell_length_c   7.44638998
_cell_angle_alpha   109.47123080
_cell_angle_beta   109.47122913
_cell_angle_gamma   109.47121385
_symmetry_Int_Tables_number   1
_chemical_formula_structural   Pa3As4
_chemical_formula_sum   'Pa6 As8'
_cell_volume   317.84497202
_cell_formula_units_Z   2
loop_
 _symmetry_equiv_pos_site_id
 _symmetry_equiv_pos_as_xyz
  1  'x, y, z'
loop_
 _atom_site_type_symbol
 _atom_site_label
 _atom_site_symmetry_multiplicity
 _atom_site_fract_x
 _atom_site_fract_y
 _atom_site_fract_z
 _atom_site_occupancy
  Pa  Pa0  1  0.75000000  0.87500000  0.12500000  1
  Pa  Pa1  1  0.62500000  0.37500000  0.25000000  1
  Pa  Pa2  1  0.87500000  0.12500000  0.75000000  1
  Pa  Pa3  1  0.12500000  0.75000000  0.87500000  1
  Pa  Pa4  1  0.37500000  0.25000000  0.62500000  1
  Pa  Pa5  1  0.25000000  0.62500000  0.37500000  1
  As  As0  1  0.65634027  0.65634027  0.65634027  1
  As  As1  1  0.34365973  0.50000000  -0.00000000  1
  As  As2  1  0.50000000  -0.00000000  0.34365973  1
  As  As3  1  -0.00000000  0.34365973  0.50000000  1
  As  As4  1  0.50000000  -0.00000000  0.84365973  1
  As  As5  1  -0.00000000  0.84365973  0.50000000  1
  As  As6  1  0.15634027  0.15634027  0.15634027  1
  As  As7  1  0.84365973  0.50000000  -0.00000000  1
loop_
_geom_bond_atom_site_label_1
_geom_bond_atom_site_label_2
_geom_bond_distance
_geom_bond_site_symmetry_2
As0 Pa1 2.928483 1_555
As0 Pa5 2.928483 1_555
As0 Pa4 2.928483 1_555
As0 Pa0 3.024665 1_556
As0 Pa2 3.024665 1_565
As0 Pa3 3.024665 1_655
As1 Pa4 2.928483 1_554
As1 Pa1 2.928483 1_555
As1 Pa0 2.928483 1_555
As1 Pa2 3.024665 1_454
As1 Pa3 3.024665 1_554
As1 Pa5 3.024665 1_555
As2 Pa2 2.928483 1_555
As2 Pa4 2.928483 1_555
As2 Pa5 2.928483 1_545
As2 Pa3 3.024664 1_544
As2 Pa0 3.024665 1_545
As2 Pa1 3.024665 1_555
As3 Pa3 2.928482 1_555
As3 Pa1 2.928483 1_455
As3 Pa5 2.928483 1_555
As3 Pa0 3.024664 1_445
As3 Pa4 3.024665 1_555
As3 Pa2 3.024665 1_455
As4 Pa1 2.928482 1_556
As4 Pa0 2.928483 1_546
As4 Pa3 2.928483 1_545
As4 Pa5 3.024664 1_545
As4 Pa4 3.024665 1_555
As4 Pa2 3.024665 1_555
As5 Pa2 2.928483 1_465
As5 Pa0 2.928483 1_455
As5 Pa4 2.928483 1_565
As5 Pa1 3.024665 1_455
As5 Pa5 3.024665 1_555
As5 Pa3 3.024665 1_555
As6 Pa3 2.928483 1_544
As6 Pa2 2.928483 1_454
As6 Pa0 2.928483 1_445
As6 Pa5 3.024665 1_555
As6 Pa4 3.024665 1_555
As6 Pa1 3.024665 1_555
As7 Pa2 2.928483 1_554
As7 Pa5 2.928483 1_655
As7 Pa3 2.928483 1_654
As7 Pa4 3.024665 1_554
As7 Pa0 3.024665 1_555
As7 Pa1 3.024665 1_555
