# generated using pymatgen
data_Na7Hf2Sc2Si3(PO8)3
_symmetry_space_group_name_H-M   'P 1'
_cell_length_a   9.14225536
_cell_length_b   9.12332962
_cell_length_c   22.70704547
_cell_angle_alpha   90.02338940
_cell_angle_beta   90.11677925
_cell_angle_gamma   120.02731326
_symmetry_Int_Tables_number   1
_chemical_formula_structural   Na7Hf2Sc2Si3(PO8)3
_chemical_formula_sum   'Na21 Hf6 Sc6 Si9 P9 O72'
_cell_volume   1639.74715776
_cell_formula_units_Z   3
loop_
 _symmetry_equiv_pos_site_id
 _symmetry_equiv_pos_as_xyz
  1  'x, y, z'
loop_
 _atom_site_type_symbol
 _atom_site_label
 _atom_site_symmetry_multiplicity
 _atom_site_fract_x
 _atom_site_fract_y
 _atom_site_fract_z
 _atom_site_occupancy
  Na  Na0  1  0.63322490  0.00409926  0.25281730  1
  Na  Na1  1  0.36667579  0.37074950  0.24740514  1
  Na  Na2  1  0.99989126  0.62376421  0.24991988  1
  Na  Na3  1  0.63274517  0.63506538  0.74944116  1
  Na  Na4  1  0.99364209  0.36435818  0.74923230  1
  Na  Na5  1  0.37326594  0.00116099  0.74785975  1
  Na  Na6  1  0.03262401  0.69488489  0.58321881  1
  Na  Na7  1  0.66330174  0.97290987  0.58298648  1
  Na  Na8  1  0.66599252  0.68822336  0.08211974  1
  Na  Na9  1  0.02977468  0.33672639  0.08599009  1
  Na  Na10  1  0.96015250  0.66440769  0.91903827  1
  Na  Na11  1  0.70123851  0.03175267  0.91655103  1
  Na  Na12  1  0.33947391  0.30263166  0.91802195  1
  Na  Na13  1  0.96714181  0.30550895  0.41551900  1
  Na  Na14  1  0.33577103  0.02640064  0.41824314  1
  Na  Na15  1  0.00039363  0.99895916  0.50019258  1
  Na  Na16  1  0.00899662  0.99503297  0.00033171  1
  Na  Na17  1  0.66674570  0.33340951  0.83337842  1
  Na  Na18  1  0.67438006  0.34166756  0.33387476  1
  Na  Na19  1  0.32522999  0.66666081  0.16699447  1
  Na  Na20  1  0.33323315  0.66071220  0.66543187  1
  Hf  Hf0  1  0.99018587  0.99470742  0.35407068  1
  Hf  Hf1  1  0.00314178  0.00710941  0.64675483  1
  Hf  Hf2  1  0.00945572  0.00416441  0.14624498  1
  Hf  Hf3  1  0.66640702  0.33341542  0.48198571  1
  Hf  Hf4  1  0.33532508  0.67095923  0.01977671  1
  Hf  Hf5  1  0.33348751  0.66609566  0.51804979  1
  Sc  Sc0  1  0.99227490  0.99849693  0.85090127  1
  Sc  Sc1  1  0.66709892  0.32671012  0.68188765  1
  Sc  Sc2  1  0.67093181  0.33689001  0.18140785  1
  Sc  Sc3  1  0.66261435  0.33874307  0.98496942  1
  Sc  Sc4  1  0.32896330  0.66532596  0.31792448  1
  Sc  Sc5  1  0.34168055  0.66904259  0.81568810  1
  Si  Si0  1  -0.00030855  0.29631069  0.25003987  1
  Si  Si1  1  0.70420839  0.00072156  0.75041667  1
  Si  Si2  1  0.96303986  0.33496588  0.58413342  1
  Si  Si3  1  0.37090509  0.03902808  0.58348783  1
  Si  Si4  1  0.96195453  0.62841464  0.08314503  1
  Si  Si5  1  0.37272979  0.33196609  0.08298970  1
  Si  Si6  1  0.62960749  0.66569062  0.91599242  1
  Si  Si7  1  0.62622243  0.95924717  0.41611843  1
  Si  Si8  1  0.03739273  0.66599895  0.41598498  1
  P  P0  1  0.29182527  0.00041637  0.25130506  1
  P  P1  1  0.70794841  0.70838724  0.24885754  1
  P  P2  1  0.29218495  0.29222241  0.75169694  1
  P  P3  1  -0.00116390  0.70694792  0.75061276  1
  P  P4  1  0.66489866  0.62348464  0.58554723  1
  P  P5  1  0.66551264  0.04021073  0.08371363  1
  P  P6  1  0.04131350  0.37446162  0.91591726  1
  P  P7  1  0.33423939  0.95945093  0.91521211  1
  P  P8  1  0.33584693  0.37577767  0.41474470  1
  O  O0  1  0.20678816  0.02445742  0.30664335  1
  O  O1  1  0.82534869  0.79860250  0.30269770  1
  O  O2  1  0.97572785  0.17560107  0.30760542  1
  O  O3  1  0.21447994  0.18460558  0.80738633  1
  O  O4  1  0.97655934  0.79328763  0.80568926  1
  O  O5  1  0.82345191  0.03159114  0.80839412  1
  O  O6  1  0.79715729  0.97059937  0.69306176  1
  O  O7  1  0.17559036  0.19845152  0.69794591  1
  O  O8  1  0.02618688  0.81977742  0.69533631  1
  O  O9  1  0.79291231  0.81723008  0.19361326  1
  O  O10  1  0.02394616  0.20025485  0.19247395  1
  O  O11  1  0.17475194  0.97333834  0.19755965  1
  O  O12  1  0.88096194  0.37061572  0.64215104  1
  O  O13  1  0.48825568  0.12216152  0.64165169  1
  O  O14  1  0.64126031  0.52352719  0.64215747  1
  O  O15  1  0.88017875  0.50977949  0.14147032  1
  O  O16  1  0.64044031  0.11953486  0.13946050  1
  O  O17  1  0.48957165  0.36816788  0.14165746  1
  O  O18  1  0.45490535  0.30493057  0.02379938  1
  O  O19  1  0.84499937  0.54431328  0.02489597  1
  O  O20  1  0.69901133  0.14929061  0.02842296  1
  O  O21  1  0.45901122  0.15327579  0.52486442  1
  O  O22  1  0.69514386  0.53721439  0.53212696  1
  O  O23  1  0.84064562  0.30325089  0.52667716  1
  O  O24  1  0.53710715  0.69558241  0.97338228  1
  O  O25  1  0.15377472  0.46444960  0.97087182  1
  O  O26  1  0.30602449  0.84212811  0.96862386  1
  O  O27  1  0.53874346  0.84583986  0.47472195  1
  O  O28  1  0.30368173  0.46063847  0.46804294  1
  O  O29  1  0.15937916  0.69615967  0.47351191  1
  O  O30  1  0.11981432  0.62979969  0.35794471  1
  O  O31  1  0.51051406  0.87652512  0.35758072  1
  O  O32  1  0.36009765  0.47700747  0.35820436  1
  O  O33  1  0.12133092  0.48438515  0.86070924  1
  O  O34  1  0.35785845  0.87701939  0.85923685  1
  O  O35  1  0.51019355  0.63590760  0.85815800  1
  O  O36  1  0.03366135  0.84373490  0.41049197  1
  O  O37  1  0.82073969  0.99183427  0.41172519  1
  O  O38  1  0.17434059  0.19610726  0.41010350  1
  O  O39  1  0.03231312  0.19959401  0.91277935  1
  O  O40  1  0.17663742  0.98056936  0.91171549  1
  O  O41  1  0.81827171  0.83674847  0.91278858  1
  O  O42  1  0.96901335  0.15786887  0.58946835  1
  O  O43  1  0.17625495  0.00319334  0.58948522  1
  O  O44  1  0.82833145  0.80206930  0.58966656  1
  O  O45  1  0.96986108  0.81134401  0.09043395  1
  O  O46  1  0.82394159  0.01783669  0.09048550  1
  O  O47  1  0.17775195  0.17192691  0.08873182  1
  O  O48  1  0.68674796  0.17097783  0.74631266  1
  O  O49  1  0.47104836  0.31678287  0.74476754  1
  O  O50  1  0.83638244  0.53170497  0.74575369  1
  O  O51  1  0.69046747  0.53104053  0.24585054  1
  O  O52  1  0.82707542  0.30966452  0.24707406  1
  O  O53  1  0.46727429  0.16139966  0.24545891  1
  O  O54  1  0.64754844  0.49564005  0.91971179  1
  O  O55  1  0.86141439  0.34864989  0.92216238  1
  O  O56  1  0.49712460  0.13399746  0.92141588  1
  O  O57  1  0.64348711  0.14838746  0.42212546  1
  O  O58  1  0.48805860  0.34797073  0.42293903  1
  O  O59  1  0.85191167  0.49761223  0.42399909  1
  O  O60  1  0.35346309  0.50307502  0.07654698  1
  O  O61  1  0.14750802  0.64414285  0.07587688  1
  O  O62  1  0.51106429  0.85790343  0.07704030  1
  O  O63  1  0.35686624  0.85109946  0.57762843  1
  O  O64  1  0.51344800  0.65291013  0.57712521  1
  O  O65  1  0.14857910  0.50277357  0.57615483  1
  O  O66  1  0.30945923  0.84087677  0.25416574  1
  O  O67  1  0.53287521  0.69390744  0.25446620  1
  O  O68  1  0.17247167  0.48285363  0.25268930  1
  O  O69  1  0.30108869  0.46643266  0.75426159  1
  O  O70  1  0.15677874  0.68588230  0.75469224  1
  O  O71  1  0.51574642  0.82970324  0.75369699  1
loop_
_geom_bond_atom_site_label_1
_geom_bond_atom_site_label_2
_geom_bond_distance
_geom_bond_site_symmetry_2
Na0 O52 2.446644 1_555
Na0 O67 2.500732 1_545
Na0 O53 2.562707 1_555
Na0 O66 2.562959 1_545
Na0 O31 2.641698 1_545
Na0 O16 2.769898 1_555
Na1 O68 2.455781 1_555
Na1 O53 2.500782 1_555
Na1 O67 2.557720 1_555
Na1 O51 2.563295 1_555
Na1 O17 2.658231 1_555
Na1 O32 2.707443 1_555
Na2 O68 2.485097 1_655
Na2 O52 2.486043 1_555
Na2 O51 2.516009 1_555
Na2 O66 2.516096 1_655
Na2 O30 2.674023 1_655
Na2 O15 2.681666 1_555
Na3 O50 2.473818 1_555
Na3 O71 2.491579 1_555
Na3 O49 2.516257 1_555
Na3 O69 2.627793 1_555
Na3 O14 2.655968 1_555
Na3 O35 2.714664 1_555
Na4 O48 2.456433 1_555
Na4 O69 2.481841 1_655
Na4 O70 2.542601 1_655
Na4 O50 2.569187 1_555
Na4 O12 2.650551 1_555
Na4 O33 2.770509 1_655
Na4 O5 2.954116 1_555
Na4 O7 2.990072 1_655
Na5 O48 2.484297 1_555
Na5 O71 2.489978 1_545
Na5 O70 2.553208 1_545
Na5 O49 2.553404 1_555
Na5 O13 2.644051 1_555
Na5 O34 2.746412 1_545
Na6 O43 2.441043 1_565
Na6 O65 2.466065 1_555
Na6 O44 2.508954 1_455
Na6 O63 2.570580 1_555
Na6 O29 2.747180 1_555
Na6 O8 2.801521 1_555
Na6 O12 2.893247 1_455
Na6 O22 2.911463 1_455
Na7 O42 2.441016 1_565
Na7 O63 2.445579 1_555
Na7 O64 2.532558 1_555
Na7 O44 2.661098 1_555
Na7 O27 2.710962 1_555
Na7 O6 2.785463 1_555
Na7 O13 2.894443 1_565
Na7 O23 2.909950 1_565
Na8 O45 2.426834 1_555
Na8 O60 2.490194 1_555
Na8 O62 2.570964 1_555
Na8 O46 2.610895 1_565
Na8 O24 2.748971 1_554
Na8 O9 2.785654 1_555
Na8 O19 2.871956 1_555
Na8 O17 2.872974 1_555
Na9 O61 2.461227 1_555
Na9 O47 2.475901 1_555
Na9 O46 2.556859 1_455
Na9 O60 2.571848 1_555
Na9 O10 2.708512 1_555
Na9 O15 2.848973 1_455
Na9 O25 2.858048 1_554
Na9 O20 2.929817 1_455
Na10 O54 2.476851 1_555
Na10 O41 2.493075 1_555
Na10 O55 2.552748 1_555
Na10 O40 2.559882 1_655
Na10 O19 2.635274 1_556
Na10 O4 2.803056 1_555
Na10 O26 2.957712 1_655
Na10 O33 3.008548 1_655
Na11 O56 2.471317 1_555
Na11 O41 2.494512 1_545
Na11 O55 2.506218 1_555
Na11 O39 2.622211 1_655
Na11 O5 2.700513 1_555
Na11 O20 2.761012 1_556
Na12 O54 2.463883 1_555
Na12 O39 2.477923 1_555
Na12 O40 2.547780 1_545
Na12 O56 2.582466 1_555
Na12 O18 2.617378 1_556
Na12 O3 2.744283 1_555
Na13 O59 2.463117 1_555
Na13 O37 2.480801 1_545
Na13 O38 2.548071 1_655
Na13 O57 2.567016 1_555
Na13 O2 2.739857 1_555
Na13 O23 2.774323 1_555
Na13 O30 2.878948 1_655
Na13 O28 2.918455 1_655
Na14 O36 2.414088 1_545
Na14 O57 2.454791 1_555
Na14 O58 2.543236 1_555
Na14 O38 2.625927 1_555
Na14 O21 2.674349 1_555
Na14 O0 2.789147 1_555
Na14 O29 2.898579 1_545
Na14 O31 2.917688 1_545
Na15 O37 2.572323 1_455
Na15 O43 2.573315 1_565
Na15 O36 2.584174 1_555
Na15 O42 2.590351 1_465
Na15 O44 2.648945 1_455
Na15 O38 2.665027 1_565
Na16 O47 2.550857 1_565
Na16 O45 2.555020 1_455
Na16 O41 2.557480 1_454
Na16 O40 2.574894 1_554
Na16 O39 2.662217 1_564
Na16 O46 2.731721 1_465
Na17 O54 2.514663 1_555
Na17 O48 2.531476 1_555
Na17 O50 2.616197 1_555
Na17 O56 2.627342 1_555
Na17 O49 2.643088 1_555
Na17 O55 2.643583 1_555
Na18 O52 2.517434 1_555
Na18 O59 2.553319 1_555
Na18 O57 2.590679 1_555
Na18 O51 2.598347 1_555
Na18 O58 2.665878 1_555
Na18 O53 2.680639 1_555
Na19 O68 2.493749 1_555
Na19 O61 2.571926 1_555
Na19 O66 2.587094 1_555
Na19 O60 2.626270 1_555
Na19 O67 2.668809 1_555
Na19 O62 2.674540 1_555
Na20 O65 2.566105 1_555
Na20 O71 2.566581 1_555
Na20 O63 2.582205 1_555
Na20 O69 2.603956 1_555
Na20 O64 2.621266 1_555
Na20 O70 2.673368 1_555
Hf0 O2 2.018297 1_565
Hf0 O37 2.020402 1_555
Hf0 O1 2.031130 1_555
Hf0 O36 2.060043 1_655
Hf0 O0 2.150766 1_665
Hf0 O38 2.173203 1_665
Hf1 O42 2.027452 1_455
Hf1 O7 2.029913 1_555
Hf1 O6 2.035550 1_445
Hf1 O43 2.064482 1_555
Hf1 O8 2.131495 1_545
Hf1 O44 2.175170 1_445
Hf2 O47 2.017022 1_555
Hf2 O10 2.020071 1_555
Hf2 O11 2.034429 1_545
Hf2 O45 2.047131 1_445
Hf2 O9 2.148440 1_445
Hf2 O46 2.167541 1_455
Hf3 O23 2.018760 1_555
Hf3 O21 2.033270 1_555
Hf3 O59 2.078951 1_555
Hf3 O22 2.081009 1_555
Hf3 O57 2.093802 1_555
Hf3 O58 2.163746 1_555
Hf4 O24 2.038805 1_554
Hf4 O61 2.054183 1_555
Hf4 O26 2.068447 1_554
Hf4 O60 2.071271 1_555
Hf4 O25 2.097330 1_554
Hf4 O62 2.104322 1_555
Hf5 O29 2.015507 1_555
Hf5 O27 2.026689 1_555
Hf5 O65 2.075687 1_555
Hf5 O63 2.088216 1_555
Hf5 O28 2.088782 1_555
Hf5 O64 2.170241 1_555
O0 P0 1.551092 1_555
O1 P1 1.560047 1_555
O2 Si0 1.652362 1_655
O3 P2 1.540884 1_555
O3 Sc0 2.131560 1_445
O4 P3 1.544930 1_655
O4 Sc0 2.075653 1_555
O5 Si1 1.639356 1_555
O5 Sc0 1.966089 1_545
O6 Si1 1.652786 1_565
O7 P2 1.561721 1_555
O8 P3 1.562791 1_555
O9 P1 1.547919 1_555
O10 Si0 1.649404 1_555
O11 P0 1.557490 1_565
O12 Si2 1.628605 1_555
O12 Sc1 2.005250 1_555
O13 Si3 1.627763 1_555
O13 Sc1 1.982270 1_555
O14 P4 1.528260 1_555
O14 Sc1 2.125778 1_555
O15 Si4 1.637005 1_555
O15 Sc2 1.989530 1_555
O16 P5 1.531374 1_555
O16 Sc2 2.088396 1_555
O17 Si5 1.632653 1_555
O17 Sc2 2.028023 1_555
O18 Si5 1.618945 1_555
O18 Sc3 1.974661 1_554
O19 Si4 1.629033 1_555
O19 Sc3 1.995574 1_554
O20 P5 1.535568 1_555
O20 Sc3 2.155798 1_554
O21 Si3 1.634771 1_555
O22 P4 1.544587 1_555
O23 Si2 1.645491 1_555
O24 Si6 1.650073 1_555
O25 P6 1.561216 1_555
O26 P7 1.552155 1_555
O27 Si7 1.630405 1_555
O28 P8 1.542438 1_555
O29 Si8 1.646946 1_555
O30 Si8 1.632953 1_555
O30 Sc4 1.993498 1_555
O31 Si7 1.627836 1_555
O31 Sc4 2.017465 1_555
O32 P8 1.532192 1_555
O32 Sc4 2.087841 1_555
O33 P6 1.543683 1_555
O33 Sc5 2.134164 1_555
O34 P7 1.546155 1_555
O34 Sc5 2.077742 1_555
O35 Si6 1.639289 1_555
O35 Sc5 1.963438 1_555
O36 Si8 1.643665 1_555
O37 Si7 1.652996 1_555
O38 P8 1.566880 1_555
O39 P6 1.557424 1_555
O39 Sc0 2.190414 1_445
O40 P7 1.548167 1_555
O40 Sc0 2.245249 1_455
O41 Si6 1.649974 1_555
O41 Sc0 2.084326 1_555
O42 Si2 1.648221 1_555
O43 Si3 1.646497 1_555
O44 P4 1.568024 1_555
O45 Si4 1.642230 1_555
O46 P5 1.567860 1_555
O47 Si5 1.650028 1_555
O48 Si1 1.641686 1_555
O48 Sc1 2.108810 1_555
O49 P2 1.543782 1_555
O49 Sc1 2.259963 1_555
O50 P3 1.548171 1_655
O50 Sc1 2.255629 1_555
O51 P1 1.545696 1_555
O51 Sc2 2.234023 1_555
O52 Si0 1.643707 1_655
O52 Sc2 2.160855 1_555
O53 P0 1.546224 1_555
O53 Sc2 2.274821 1_555
O54 Si6 1.641855 1_555
O54 Sc3 2.112326 1_555
O55 P6 1.547224 1_655
O55 Sc3 2.278511 1_555
O56 P7 1.548836 1_545
O56 Sc3 2.240827 1_555
O57 Si7 1.657802 1_545
O58 P8 1.545224 1_555
O59 Si8 1.631845 1_655
O60 Si5 1.662735 1_555
O61 Si4 1.638006 1_455
O62 P5 1.559355 1_565
O63 Si3 1.659311 1_565
O64 P4 1.548140 1_555
O65 Si2 1.629838 1_455
O66 P0 1.543912 1_565
O66 Sc4 2.231513 1_555
O67 P1 1.544249 1_555
O67 Sc4 2.268121 1_555
O68 Si0 1.644444 1_555
O68 Sc4 2.148990 1_555
O69 P2 1.551309 1_555
O69 Sc5 2.193020 1_555
O70 P3 1.551684 1_555
O70 Sc5 2.247220 1_555
O71 Si1 1.648846 1_565
O71 Sc5 2.082941 1_555
