# generated using pymatgen
data_Na2La2Si(SO6)2
_symmetry_space_group_name_H-M   'P 1'
_cell_length_a   9.59307550
_cell_length_b   9.59307513
_cell_length_c   24.73267805
_cell_angle_alpha   90.60823201
_cell_angle_beta   89.39176799
_cell_angle_gamma   119.84110479
_symmetry_Int_Tables_number   1
_chemical_formula_structural   Na2La2Si(SO6)2
_chemical_formula_sum   'Na12 La12 Si6 S12 O72'
_cell_volume   1974.13996996
_cell_formula_units_Z   6
loop_
 _symmetry_equiv_pos_site_id
 _symmetry_equiv_pos_as_xyz
  1  'x, y, z'
loop_
 _atom_site_type_symbol
 _atom_site_label
 _atom_site_symmetry_multiplicity
 _atom_site_fract_x
 _atom_site_fract_y
 _atom_site_fract_z
 _atom_site_occupancy
  Na  Na0  1  0.00198865  0.62559183  0.25287219  1
  Na  Na1  1  0.37440817  0.99801135  0.75287219  1
  Na  Na2  1  0.65189741  0.97044983  0.59654204  1
  Na  Na3  1  0.02955017  0.34810259  0.09654204  1
  Na  Na4  1  0.98967249  0.68209813  0.92783159  1
  Na  Na5  1  0.31790187  0.01032751  0.42783159  1
  Na  Na6  1  0.02525279  0.97427867  0.50226319  1
  Na  Na7  1  0.02572133  0.97474721  0.00226319  1
  Na  Na8  1  0.64955064  0.28159533  0.83564226  1
  Na  Na9  1  0.71840467  0.35044936  0.33564226  1
  Na  Na10  1  0.31644235  0.64856593  0.16765977  1
  Na  Na11  1  0.35143407  0.68355765  0.66765977  1
  La  La0  1  0.99161583  0.01322703  0.34875869  1
  La  La1  1  0.98677297  0.00838417  0.84875869  1
  La  La2  1  0.00557214  0.99872830  0.65031478  1
  La  La3  1  0.00127170  0.99442786  0.15031478  1
  La  La4  1  0.66697653  0.32622592  0.68298169  1
  La  La5  1  0.67377408  0.33302347  0.18298169  1
  La  La6  1  0.65249030  0.32411268  0.98369496  1
  La  La7  1  0.67588732  0.34750970  0.48369496  1
  La  La8  1  0.33279234  0.68964919  0.01585714  1
  La  La9  1  0.31035081  0.66720766  0.51585714  1
  La  La10  1  0.31061162  0.63994038  0.31780906  1
  La  La11  1  0.36005962  0.68938838  0.81780906  1
  Si  Si0  1  0.00016468  0.30786641  0.24405322  1
  Si  Si1  1  0.69213359  0.99983532  0.74405322  1
  Si  Si2  1  0.36633576  0.03167498  0.58085838  1
  Si  Si3  1  0.96832502  0.63366424  0.08085838  1
  Si  Si4  1  0.32421252  0.97460846  0.91142091  1
  Si  Si5  1  0.02539154  0.67578748  0.41142091  1
  S  S0  1  0.30150523  0.99646440  0.25316612  1
  S  S1  1  0.69771779  0.69703267  0.25019779  1
  S  S2  1  0.30296733  0.30228221  0.75019779  1
  S  S3  1  0.00353560  0.69849477  0.75316612  1
  S  S4  1  0.96817264  0.32706759  0.58314619  1
  S  S5  1  0.66430835  0.64333111  0.58450921  1
  S  S6  1  0.67293241  0.03182736  0.08314619  1
  S  S7  1  0.35666889  0.33569165  0.08450921  1
  S  S8  1  0.64206630  0.66462504  0.91815510  1
  S  S9  1  0.03525228  0.37432981  0.91823151  1
  S  S10  1  0.62567019  0.96474772  0.41823151  1
  S  S11  1  0.33537496  0.35793370  0.41815510  1
  O  O0  1  0.22390965  0.01001423  0.30366727  1
  O  O1  1  0.79700029  0.78136551  0.29831148  1
  O  O2  1  0.99940025  0.20331435  0.29634739  1
  O  O3  1  0.21863449  0.20299970  0.79831148  1
  O  O4  1  0.98998577  0.77609035  0.80366727  1
  O  O5  1  0.79668565  0.00059975  0.79634739  1
  O  O6  1  0.77973793  0.99847674  0.68653724  1
  O  O7  1  0.21056801  0.21976889  0.70084113  1
  O  O8  1  0.02085728  0.80268066  0.70615839  1
  O  O9  1  0.78023111  0.78943199  0.20084113  1
  O  O10  1  0.00152326  0.22026207  0.18653724  1
  O  O11  1  0.19731934  0.97914272  0.20615839  1
  O  O12  1  0.89085683  0.34818133  0.63204920  1
  O  O13  1  0.47676888  0.12848151  0.63455743  1
  O  O14  1  0.66305480  0.55490853  0.63319532  1
  O  O15  1  0.87151849  0.52323112  0.13455743  1
  O  O16  1  0.65181867  0.10914317  0.13204920  1
  O  O17  1  0.44509147  0.33694520  0.13319532  1
  O  O18  1  0.43875697  0.32266902  0.03515319  1
  O  O19  1  0.86741248  0.54113363  0.02557095  1
  O  O20  1  0.67650247  0.12370209  0.03453369  1
  O  O21  1  0.45886637  0.13258752  0.52557095  1
  O  O22  1  0.67733098  0.56124303  0.53515319  1
  O  O23  1  0.87629791  0.32349753  0.53453369  1
  O  O24  1  0.55372253  0.66855075  0.96664956  1
  O  O25  1  0.12328708  0.44874203  0.96891523  1
  O  O26  1  0.30439410  0.85160884  0.96154052  1
  O  O27  1  0.55125797  0.87671292  0.46891523  1
  O  O28  1  0.33144925  0.44627747  0.46664956  1
  O  O29  1  0.14839116  0.69560590  0.46154052  1
  O  O30  1  0.10703361  0.65657803  0.35434631  1
  O  O31  1  0.53010757  0.87086559  0.37089280  1
  O  O32  1  0.34649733  0.44896029  0.36889563  1
  O  O33  1  0.12913441  0.46989243  0.87089280  1
  O  O34  1  0.34342197  0.89296639  0.85434631  1
  O  O35  1  0.55103971  0.65350267  0.86889563  1
  O  O36  1  0.02784341  0.84946968  0.41277812  1
  O  O37  1  0.79308846  0.99597920  0.41493878  1
  O  O38  1  0.18748524  0.19518624  0.41700474  1
  O  O39  1  0.00402080  0.20691154  0.91493878  1
  O  O40  1  0.15053032  0.97215659  0.91277812  1
  O  O41  1  0.80481376  0.81251476  0.91700474  1
  O  O42  1  0.96610588  0.17088241  0.58465443  1
  O  O43  1  0.18203081  0.00323716  0.58422640  1
  O  O44  1  0.80640976  0.81083196  0.58469564  1
  O  O45  1  0.99676284  0.81796919  0.08422640  1
  O  O46  1  0.82911759  0.03389412  0.08465443  1
  O  O47  1  0.18916804  0.19359024  0.08469564  1
  O  O48  1  0.66374392  0.15777144  0.74934890  1
  O  O49  1  0.46337110  0.31246050  0.74761591  1
  O  O50  1  0.86036792  0.53765679  0.74737883  1
  O  O51  1  0.68753950  0.53662890  0.24761591  1
  O  O52  1  0.84222856  0.33625608  0.24934890  1
  O  O53  1  0.46234321  0.13963208  0.24737883  1
  O  O54  1  0.67103741  0.52526800  0.91857992  1
  O  O55  1  0.87751539  0.37261450  0.91855971  1
  O  O56  1  0.48399205  0.15379067  0.91754670  1
  O  O57  1  0.62738550  0.12248461  0.41855971  1
  O  O58  1  0.47473200  0.32896259  0.41857992  1
  O  O59  1  0.84620933  0.51600795  0.41754670  1
  O  O60  1  0.34086371  0.48233027  0.08318253  1
  O  O61  1  0.14295661  0.63354515  0.08130953  1
  O  O62  1  0.53851953  0.86437601  0.08048070  1
  O  O63  1  0.36645485  0.85704339  0.58130953  1
  O  O64  1  0.51766973  0.65913629  0.58318253  1
  O  O65  1  0.13562399  0.46148047  0.58048070  1
  O  O66  1  0.31474402  0.84764610  0.25412016  1
  O  O67  1  0.53600394  0.67831666  0.25395642  1
  O  O68  1  0.16044264  0.49286007  0.24549409  1
  O  O69  1  0.32168334  0.46399606  0.75395642  1
  O  O70  1  0.15235390  0.68525598  0.75412016  1
  O  O71  1  0.50713993  0.83955736  0.74549409  1
loop_
_geom_bond_atom_site_label_1
_geom_bond_atom_site_label_2
_geom_bond_distance
_geom_bond_site_symmetry_2
Na0 O52 2.413452 1_455
Na0 O68 2.424988 1_555
Na0 O30 2.672510 1_555
Na0 O66 2.679643 1_555
Na0 O51 2.699754 1_455
Na1 O48 2.413453 1_565
Na1 O71 2.424988 1_555
Na1 O34 2.672510 1_555
Na1 O70 2.679642 1_555
Na1 O49 2.699754 1_565
Na2 O63 2.423250 1_555
Na2 O6 2.499539 1_555
Na2 O64 2.616713 1_555
Na2 O44 2.620603 1_555
Na2 O42 2.663536 1_565
Na2 O13 2.911299 1_565
Na3 O61 2.423250 1_555
Na3 O10 2.499539 1_555
Na3 O60 2.616713 1_555
Na3 O47 2.620603 1_555
Na3 O46 2.663536 1_455
Na3 O15 2.911299 1_455
Na4 O40 2.449298 1_655
Na4 O55 2.614649 1_555
Na4 O41 2.647063 1_555
Na4 O54 2.662723 1_555
Na4 O19 2.734715 1_556
Na4 O26 2.755605 1_655
Na5 O36 2.449298 1_545
Na5 O57 2.614649 1_555
Na5 O38 2.647063 1_555
Na5 O58 2.662723 1_555
Na5 O21 2.734715 1_555
Na5 O29 2.755605 1_545
Na6 O43 2.466887 1_565
Na6 O36 2.510899 1_555
Na6 O44 2.779131 1_455
Na6 O38 2.846484 1_565
Na6 O42 2.998394 1_465
Na7 O45 2.466887 1_455
Na7 O40 2.510899 1_554
Na7 O47 2.779131 1_565
Na7 O41 2.846484 1_454
Na7 O46 2.998394 1_465
Na8 O48 2.466898 1_555
Na8 O56 2.485095 1_555
Na8 O55 2.812011 1_555
Na8 O49 2.939388 1_555
Na8 O54 3.023590 1_555
Na9 O52 2.466898 1_555
Na9 O59 2.485095 1_555
Na9 O57 2.812011 1_555
Na9 O51 2.939388 1_555
Na9 O58 3.023590 1_555
Na10 O68 2.439632 1_555
Na10 O61 2.679906 1_555
Na10 O60 2.693333 1_555
Na10 O66 2.857242 1_555
Na10 O67 2.925327 1_555
Na10 O62 3.013582 1_555
Na11 O71 2.439632 1_555
Na11 O63 2.679906 1_555
Na11 O64 2.693333 1_555
Na11 O70 2.857242 1_555
Na11 O69 2.925327 1_555
Na11 O65 3.013582 1_555
La0 O2 2.218950 1_555
La0 O36 2.388202 1_645
La0 O1 2.418165 1_545
La0 O37 2.441222 1_545
La0 O38 2.483396 1_655
La0 O0 2.495069 1_655
La1 O5 2.218950 1_555
La1 O40 2.388202 1_645
La1 O3 2.418165 1_655
La1 O39 2.441222 1_655
La1 O41 2.483396 1_545
La1 O4 2.495069 1_545
La2 O43 2.325725 1_565
La2 O6 2.334464 1_455
La2 O7 2.402343 1_565
La2 O8 2.408326 1_555
La2 O44 2.471783 1_455
La2 O42 2.490026 1_465
La3 O45 2.325725 1_455
La3 O10 2.334464 1_565
La3 O9 2.402343 1_455
La3 O11 2.408326 1_555
La3 O47 2.471783 1_565
La3 O46 2.490026 1_465
La4 O13 2.217158 1_555
La4 O48 2.304797 1_555
La4 O12 2.396213 1_555
La4 O49 2.463614 1_555
La4 O50 2.518295 1_555
La4 O14 2.543764 1_555
La5 O15 2.217158 1_555
La5 O52 2.304797 1_555
La5 O16 2.396213 1_555
La5 O51 2.463614 1_555
La5 O53 2.518295 1_555
La5 O17 2.543764 1_555
La6 O56 2.308690 1_555
La6 O19 2.320704 1_556
La6 O18 2.395964 1_556
La6 O20 2.414224 1_556
La6 O54 2.463171 1_555
La6 O55 2.532614 1_555
La7 O59 2.308690 1_555
La7 O21 2.320704 1_555
La7 O22 2.395964 1_555
La7 O23 2.414224 1_555
La7 O58 2.463171 1_555
La7 O57 2.532614 1_555
La8 O26 2.183163 1_554
La8 O61 2.281916 1_555
La8 O62 2.444801 1_555
La8 O25 2.469473 1_554
La8 O24 2.526046 1_554
La8 O60 2.638258 1_555
La9 O29 2.183163 1_555
La9 O63 2.281916 1_555
La9 O65 2.444801 1_555
La9 O27 2.469473 1_555
La9 O28 2.526045 1_555
La9 O64 2.638258 1_555
La10 O30 2.219398 1_555
La10 O68 2.289815 1_555
La10 O32 2.399491 1_555
La10 O31 2.533712 1_555
La10 O66 2.537660 1_555
La10 O67 2.540148 1_555
La11 O34 2.219398 1_555
La11 O71 2.289815 1_555
La11 O35 2.399491 1_555
La11 O33 2.533712 1_555
La11 O70 2.537660 1_555
La11 O69 2.540148 1_555
O0 S0 1.484647 1_545
O1 S1 1.488110 1_555
O2 Si0 1.642819 1_655
O3 S2 1.488110 1_555
O4 S3 1.484647 1_655
O5 Si1 1.642819 1_545
O6 Si1 1.647766 1_555
O7 S2 1.485469 1_555
O8 S3 1.494499 1_555
O9 S1 1.485469 1_555
O10 Si0 1.647766 1_555
O11 S0 1.494499 1_555
O12 S4 1.476243 1_555
O13 Si2 1.665304 1_555
O14 S5 1.476766 1_555
O15 Si3 1.665304 1_555
O16 S6 1.476243 1_555
O17 S7 1.476766 1_555
O18 S7 1.483277 1_555
O19 Si3 1.655909 1_555
O20 S6 1.488328 1_555
O21 Si2 1.655909 1_555
O22 S5 1.483277 1_555
O23 S4 1.488328 1_555
O24 S8 1.472220 1_555
O25 S9 1.482459 1_555
O26 Si4 1.663671 1_555
O27 S10 1.482459 1_555
O28 S11 1.472220 1_555
O29 Si5 1.663671 1_555
O30 Si5 1.659708 1_555
O31 S10 1.483599 1_555
O32 S11 1.478279 1_555
O33 S9 1.483599 1_555
O34 Si4 1.659708 1_555
O35 S8 1.478279 1_555
O36 Si5 1.654555 1_555
O37 S10 1.481446 1_555
O38 S11 1.498885 1_555
O39 S9 1.481446 1_555
O40 Si4 1.654555 1_555
O41 S8 1.498885 1_555
O42 S4 1.489390 1_555
O43 Si2 1.650669 1_555
O44 S5 1.503441 1_555
O45 Si3 1.650668 1_555
O46 S6 1.489390 1_555
O47 S7 1.503441 1_555
O48 Si1 1.671079 1_545
O49 S2 1.493296 1_555
O50 S3 1.475799 1_655
O51 S1 1.493296 1_555
O52 Si0 1.671079 1_655
O53 S0 1.475799 1_545
O54 S8 1.494881 1_555
O55 S9 1.504998 1_655
O56 Si4 1.644497 1_545
O57 S10 1.504998 1_545
O58 S11 1.494881 1_555
O59 Si5 1.644497 1_655
O60 S7 1.488711 1_555
O61 Si3 1.675978 1_455
O62 S6 1.478385 1_565
O63 Si2 1.675978 1_565
O64 S5 1.488711 1_555
O65 S4 1.478385 1_455
O66 S0 1.495331 1_555
O67 S1 1.472281 1_555
O68 Si0 1.673041 1_555
O69 S2 1.472281 1_555
O70 S3 1.495331 1_555
O71 Si1 1.673041 1_555
