# generated using pymatgen
data_Na6In8Si3(S3O16)3
_symmetry_space_group_name_H-M   'P 1'
_cell_length_a   17.98413393
_cell_length_b   8.96850913
_cell_length_c   23.42223631
_cell_angle_alpha   90.04737936
_cell_angle_beta   89.50516288
_cell_angle_gamma   119.86940685
_symmetry_Int_Tables_number   1
_chemical_formula_structural   Na6In8Si3(S3O16)3
_chemical_formula_sum   'Na18 In24 Si9 S27 O144'
_cell_volume   3275.81293651
_cell_formula_units_Z   3
loop_
 _symmetry_equiv_pos_site_id
 _symmetry_equiv_pos_as_xyz
  1  'x, y, z'
loop_
 _atom_site_type_symbol
 _atom_site_label
 _atom_site_symmetry_multiplicity
 _atom_site_fract_x
 _atom_site_fract_y
 _atom_site_fract_z
 _atom_site_occupancy
  Na  Na0  1  0.00567048  0.64808934  0.25502356  1
  Na  Na1  1  0.50405121  0.36405814  0.74320356  1
  Na  Na2  1  0.16137773  0.30325265  0.91037905  1
  Na  Na3  1  0.66123986  0.30309299  0.91054067  1
  Na  Na4  1  0.16277613  0.02195649  0.41628710  1
  Na  Na5  1  0.65985118  0.01537100  0.41595780  1
  Na  Na6  1  0.99560074  0.98588011  0.49967767  1
  Na  Na7  1  0.49401439  0.00058401  0.50287274  1
  Na  Na8  1  0.99629019  0.00614913  0.99566871  1
  Na  Na9  1  0.49511170  0.00441507  0.99683626  1
  Na  Na10  1  0.33231538  0.33226460  0.82876106  1
  Na  Na11  1  0.83970485  0.33503699  0.82897011  1
  Na  Na12  1  0.34219175  0.34806803  0.33470595  1
  Na  Na13  1  0.83029067  0.32949456  0.33524389  1
  Na  Na14  1  0.17314178  0.68225807  0.17033867  1
  Na  Na15  1  0.66312901  0.67828266  0.17251400  1
  Na  Na16  1  0.16703707  0.65139129  0.67012322  1
  Na  Na17  1  0.66304339  0.64940100  0.66356945  1
  In  In0  1  0.00190214  0.99440573  0.35123071  1
  In  In1  1  0.50242442  0.99226284  0.34913340  1
  In  In2  1  0.00372065  0.01682066  0.84640577  1
  In  In3  1  0.50273808  0.01262810  0.84789585  1
  In  In4  1  0.00466690  0.00936230  0.65152692  1
  In  In5  1  0.50385974  0.01718404  0.64849574  1
  In  In6  1  0.00449247  0.00083173  0.15140663  1
  In  In7  1  0.50366864  0.99697797  0.15328577  1
  In  In8  1  0.33046992  0.33523329  0.68122203  1
  In  In9  1  0.83035328  0.33619108  0.68528890  1
  In  In10  1  0.33148606  0.32634396  0.18629712  1
  In  In11  1  0.82495885  0.31753884  0.18481172  1
  In  In12  1  0.33949470  0.33230038  0.98209546  1
  In  In13  1  0.83922819  0.33260077  0.98238950  1
  In  In14  1  0.34709328  0.34968887  0.48518427  1
  In  In15  1  0.83901079  0.34674546  0.48306373  1
  In  In16  1  0.16268262  0.65848141  0.01467228  1
  In  In17  1  0.66188417  0.65782606  0.01511103  1
  In  In18  1  0.16401853  0.66770048  0.51657122  1
  In  In19  1  0.65089921  0.65088260  0.51932066  1
  In  In20  1  0.16563843  0.67290147  0.31748925  1
  In  In21  1  0.65945757  0.67218896  0.31578156  1
  In  In22  1  0.15913555  0.64560540  0.81310737  1
  In  In23  1  0.66396747  0.65790737  0.81474728  1
  Si  Si0  1  0.15009810  0.00198628  0.25041015  1
  Si  Si1  1  0.65014209  -0.00027778  0.25022689  1
  Si  Si2  1  0.15256767  0.29884341  0.74923168  1
  Si  Si3  1  0.65211175  0.29872582  0.75225702  1
  Si  Si4  1  0.48038769  0.32843848  0.58719806  1
  Si  Si5  1  0.01700510  0.36799290  0.91788771  1
  Si  Si6  1  0.51697931  0.36803031  0.91595203  1
  Si  Si7  1  0.01675520  0.66287323  0.41588498  1
  Si  Si8  1  0.51542656  0.66674266  0.41612458  1
  S  S0  1  0.35013063  0.70326185  0.24919762  1
  S  S1  1  0.85097013  0.70522855  0.24870483  1
  S  S2  1  0.00013020  0.29377356  0.24937393  1
  S  S3  1  0.50034472  0.29289090  0.24937198  1
  S  S4  1  0.99968386  0.70736474  0.74990515  1
  S  S5  1  0.50010717  0.71185149  0.75018539  1
  S  S6  1  0.34936914  0.99426032  0.75106838  1
  S  S7  1  0.85068967  0.99786925  0.74934650  1
  S  S8  1  0.97955805  0.33054408  0.58451208  1
  S  S9  1  0.18386252  0.03470235  0.58070157  1
  S  S10  1  0.68982197  0.04132123  0.58157076  1
  S  S11  1  0.33041307  0.63358143  0.58278140  1
  S  S12  1  0.83555026  0.63754407  0.58397267  1
  S  S13  1  0.47961513  0.62897366  0.08452115  1
  S  S14  1  0.97960867  0.62842422  0.08555729  1
  S  S15  1  0.33327036  0.03111074  0.08376072  1
  S  S16  1  0.83336396  0.02993647  0.08325827  1
  S  S17  1  0.18741917  0.33597742  0.08191463  1
  S  S18  1  0.68649013  0.33575555  0.08103632  1
  S  S19  1  0.31555966  0.66994643  0.91770205  1
  S  S20  1  0.81591967  0.67075606  0.91794843  1
  S  S21  1  0.16623763  0.95926290  0.91701938  1
  S  S22  1  0.66648000  0.96014062  0.91752367  1
  S  S23  1  0.31569561  0.96270283  0.41674961  1
  S  S24  1  0.81389187  0.95794971  0.41808032  1
  S  S25  1  0.16699615  0.37296487  0.41717126  1
  S  S26  1  0.66745147  0.37493587  0.41574572  1
  O  O0  1  0.10979444  0.03205360  0.30915496  1
  O  O1  1  0.61153035  0.03279629  0.30906279  1
  O  O2  1  0.40064570  0.78442039  0.30024623  1
  O  O3  1  0.90494745  0.78542952  0.29947196  1
  O  O4  1  0.48467514  0.18427355  0.30025798  1
  O  O5  1  0.98408365  0.18634766  0.30030569  1
  O  O6  1  0.11661807  0.19518673  0.81060390  1
  O  O7  1  0.61638515  0.19656964  0.81351002  1
  O  O8  1  0.48730163  0.78886850  0.80293327  1
  O  O9  1  0.98397645  0.78376326  0.80167647  1
  O  O10  1  0.40181843  0.01891914  0.80304777  1
  O  O11  1  0.90051258  0.01924005  0.80175689  1
  O  O12  1  0.38626654  0.96072901  0.69984902  1
  O  O13  1  0.88805803  0.96447385  0.69776566  1
  O  O14  1  0.09050072  0.21137208  0.69471711  1
  O  O15  1  0.58591388  0.20831089  0.70007287  1
  O  O16  1  0.00772852  0.80475623  0.69712163  1
  O  O17  1  0.50717798  0.81008175  0.69830028  1
  O  O18  1  0.38613596  0.80922502  0.19641187  1
  O  O19  1  0.88720431  0.81213813  0.19637794  1
  O  O20  1  0.00861184  0.21366608  0.19607515  1
  O  O21  1  0.50840311  0.21235156  0.19562481  1
  O  O22  1  0.08529827  0.95353265  0.19559306  1
  O  O23  1  0.59372616  0.96927540  0.19250464  1
  O  O24  1  0.43909778  0.35682595  0.64665134  1
  O  O25  1  0.93867194  0.35507507  0.63612835  1
  O  O26  1  0.23401924  0.11672271  0.63180352  1
  O  O27  1  0.74219283  0.12795177  0.63213301  1
  O  O28  1  0.31376860  0.52643976  0.63413142  1
  O  O29  1  0.82243938  0.53040779  0.63521056  1
  O  O30  1  0.43874477  0.52225947  0.13599633  1
  O  O31  1  0.93929090  0.52472703  0.13831306  1
  O  O32  1  0.31965281  0.11114827  0.13479015  1
  O  O33  1  0.82058427  0.10975319  0.13489919  1
  O  O34  1  0.23934277  0.35494670  0.13243664  1
  O  O35  1  0.73948538  0.35880283  0.13164556  1
  O  O36  1  0.22679101  0.31249840  0.02851309  1
  O  O37  1  0.72675709  0.31208829  0.02807738  1
  O  O38  1  0.42882880  0.54964591  0.03250499  1
  O  O39  1  0.92756394  0.54595089  0.03455430  1
  O  O40  1  0.34664072  0.13579414  0.03155464  1
  O  O41  1  0.84694067  0.13602941  0.03161115  1
  O  O42  1  0.22256489  0.13616327  0.52741965  1
  O  O43  1  0.72856118  0.14656006  0.52816412  1
  O  O44  1  0.34045671  0.55404846  0.53016597  1
  O  O45  1  0.85024183  0.55981994  0.53196201  1
  O  O46  1  0.42344769  0.29766316  0.53065334  1
  O  O47  1  0.92898817  0.30842018  0.53242640  1
  O  O48  1  0.28022379  0.70453692  0.97071458  1
  O  O49  1  0.77991363  0.70501515  0.97054925  1
  O  O50  1  0.07842625  0.44265680  0.97468583  1
  O  O51  1  0.58038631  0.44775255  0.97147481  1
  O  O52  1  0.15791206  0.86366008  0.97100069  1
  O  O53  1  0.65844632  0.86329838  0.97083214  1
  O  O54  1  0.27903073  0.85541246  0.46842872  1
  O  O55  1  0.77650858  0.85134293  0.46936624  1
  O  O56  1  0.15703557  0.45469958  0.46913038  1
  O  O57  1  0.66093690  0.45725469  0.46825233  1
  O  O58  1  0.08232068  0.70783819  0.46941357  1
  O  O59  1  0.58215228  0.72045509  0.46969902  1
  O  O60  1  0.05428660  0.63272070  0.35541181  1
  O  O61  1  0.55496573  0.62723040  0.35947809  1
  O  O62  1  0.26289795  0.88102094  0.36522152  1
  O  O63  1  0.76365185  0.88141804  0.36563556  1
  O  O64  1  0.18224225  0.47832866  0.36511924  1
  O  O65  1  0.68382315  0.48091519  0.36402896  1
  O  O66  1  0.05974097  0.48889536  0.86277144  1
  O  O67  1  0.55768253  0.48048422  0.85802581  1
  O  O68  1  0.18248820  0.88357690  0.86667973  1
  O  O69  1  0.68282921  0.88507094  0.86660219  1
  O  O70  1  0.26220325  0.64454237  0.86739087  1
  O  O71  1  0.76209273  0.64348514  0.86739265  1
  O  O72  1  0.01151001  0.84294312  0.41468277  1
  O  O73  1  0.50996171  0.84613450  0.41393880  1
  O  O74  1  0.40340437  0.99260372  0.40920350  1
  O  O75  1  0.90324428  0.98994744  0.41108475  1
  O  O76  1  0.08635703  0.20237895  0.41286789  1
  O  O77  1  0.58754384  0.20414478  0.41165326  1
  O  O78  1  0.01057592  0.17685301  0.91405855  1
  O  O79  1  0.51032062  0.17656161  0.91419002  1
  O  O80  1  0.08675855  0.97148067  0.91329008  1
  O  O81  1  0.58667952  0.97057411  0.91376161  1
  O  O82  1  0.40389303  0.81477508  0.91097101  1
  O  O83  1  0.90376758  0.81581773  0.91055568  1
  O  O84  1  0.48860310  0.15426470  0.58590659  1
  O  O85  1  0.98625703  0.17182525  0.58824720  1
  O  O86  1  0.09555164  0.01216783  0.58495682  1
  O  O87  1  0.60259709  0.01735939  0.58648195  1
  O  O88  1  0.40948284  0.80225363  0.58894755  1
  O  O89  1  0.91497283  0.81012474  0.58990544  1
  O  O90  1  0.48643539  0.80117888  0.08841133  1
  O  O91  1  0.98640314  0.80080304  0.08853277  1
  O  O92  1  0.41134393  0.01367021  0.08952118  1
  O  O93  1  0.91185862  0.01331785  0.08892252  1
  O  O94  1  0.09983874  0.18107080  0.08627051  1
  O  O95  1  0.59962880  0.18134660  0.08579910  1
  O  O96  1  0.34755375  0.15814891  0.74635118  1
  O  O97  1  0.84671046  0.15890635  0.74337754  1
  O  O98  1  0.24719218  0.31309559  0.74424440  1
  O  O99  1  0.74721773  0.31817296  0.74718587  1
  O  O100  1  0.42590699  0.53305808  0.74796408  1
  O  O101  1  0.92509136  0.52977818  0.74564309  1
  O  O102  1  0.34612403  0.53429667  0.24303374  1
  O  O103  1  0.85222952  0.53938675  0.24196373  1
  O  O104  1  0.42501221  0.31977323  0.24493427  1
  O  O105  1  0.92674311  0.32783146  0.24416854  1
  O  O106  1  0.24437474  0.17336212  0.24508681  1
  O  O107  1  0.74543848  0.17686945  0.24777331  1
  O  O108  1  0.31537432  0.50246826  0.92441267  1
  O  O109  1  0.81571007  0.50339871  0.92467603  1
  O  O110  1  0.42208663  0.35061593  0.92052675  1
  O  O111  1  0.92156626  0.34866468  0.92124922  1
  O  O112  1  0.24011004  0.14111537  0.92265131  1
  O  O113  1  0.74016468  0.14098528  0.92274066  1
  O  O114  1  0.31469105  0.12803351  0.42209333  1
  O  O115  1  0.81594393  0.12770902  0.42385640  1
  O  O116  1  0.23987772  0.33944725  0.42257560  1
  O  O117  1  0.74102627  0.33906267  0.42057279  1
  O  O118  1  0.41903214  0.49935908  0.41883420  1
  O  O119  1  0.92178672  0.49163507  0.42058458  1
  O  O120  1  0.18061516  0.49486317  0.07902638  1
  O  O121  1  0.68018583  0.49483237  0.07782431  1
  O  O122  1  0.06680598  0.64792197  0.08084628  1
  O  O123  1  0.56699258  0.64881577  0.08004653  1
  O  O124  1  0.25468082  0.85747355  0.07788422  1
  O  O125  1  0.75526822  0.85717407  0.07736218  1
  O  O126  1  0.17709099  0.86177758  0.57810678  1
  O  O127  1  0.68714399  0.87414956  0.57769248  1
  O  O128  1  0.25283782  0.65573910  0.57734546  1
  O  O129  1  0.75937882  0.65711464  0.57763952  1
  O  O130  1  0.06668316  0.48512127  0.58006861  1
  O  O131  1  0.57640990  0.50188890  0.58529255  1
  O  O132  1  0.15569944  0.82260561  0.25240788  1
  O  O133  1  0.66346482  0.83147388  0.25089120  1
  O  O134  1  0.26181425  0.67671578  0.25531175  1
  O  O135  1  0.76333196  0.67342112  0.25623045  1
  O  O136  1  0.08004816  0.46396786  0.25339974  1
  O  O137  1  0.58079935  0.45995457  0.25322411  1
  O  O138  1  0.16333681  0.49204341  0.75022855  1
  O  O139  1  0.65625674  0.48805166  0.75254751  1
  O  O140  1  0.08050495  0.70177500  0.75404454  1
  O  O141  1  0.58030777  0.70056091  0.75351992  1
  O  O142  1  0.26145672  0.84711280  0.75842226  1
  O  O143  1  0.76282098  0.84816355  0.75608840  1
loop_
_geom_bond_atom_site_label_1
_geom_bond_atom_site_label_2
_geom_bond_distance
_geom_bond_site_symmetry_2
Na0 O132 2.350405 1_555
Na0 O103 2.448128 1_455
Na0 O105 2.504667 1_455
Na0 O60 2.543267 1_555
Na0 O136 2.591629 1_555
Na0 O22 2.749005 1_555
Na0 O3 2.840763 1_455
Na0 O31 2.976185 1_455
Na1 O139 2.399012 1_555
Na1 O96 2.481264 1_555
Na1 O100 2.530495 1_555
Na1 O24 2.540256 1_555
Na1 O141 2.632317 1_555
Na1 O15 2.675705 1_555
Na1 O67 2.879312 1_555
Na2 O78 2.362526 1_555
Na2 O108 2.460988 1_555
Na2 O112 2.502103 1_555
Na2 O6 2.510046 1_555
Na2 O80 2.584692 1_545
Na2 O50 2.805908 1_555
Na2 O70 2.848848 1_555
Na2 O36 3.000927 1_556
Na3 O79 2.364318 1_555
Na3 O7 2.447230 1_555
Na3 O109 2.469465 1_555
Na3 O113 2.504637 1_555
Na3 O81 2.590908 1_545
Na3 O51 2.770311 1_555
Na3 O71 2.844113 1_555
Na3 O37 2.989092 1_556
Na4 O72 2.372950 1_545
Na4 O114 2.409363 1_555
Na4 O116 2.474338 1_555
Na4 O76 2.594355 1_555
Na4 O0 2.709273 1_555
Na4 O58 2.737335 1_545
Na4 O42 2.815616 1_555
Na4 O62 2.915073 1_545
Na5 O73 2.345038 1_545
Na5 O115 2.474106 1_555
Na5 O117 2.520198 1_555
Na5 O77 2.600559 1_555
Na5 O59 2.612776 1_545
Na5 O1 2.687325 1_555
Na5 O43 2.901917 1_555
Na5 O63 2.917321 1_545
Na6 O72 2.457570 1_655
Na6 O89 2.594100 1_555
Na6 O86 2.629742 1_665
Na6 O75 2.680653 1_555
Na6 O76 2.713095 1_665
Na6 O85 2.716654 1_565
Na7 O84 2.411937 1_555
Na7 O73 2.592414 1_545
Na7 O88 2.607505 1_545
Na7 O74 2.723829 1_545
Na7 O87 2.728344 1_555
Na7 O77 2.759137 1_555
Na8 O78 2.380804 1_655
Na8 O83 2.622834 1_545
Na8 O80 2.629712 1_645
Na8 O93 2.668382 1_556
Na8 O94 2.754114 1_656
Na8 O91 2.797865 1_546
Na9 O79 2.404325 1_555
Na9 O82 2.626949 1_545
Na9 O81 2.651712 1_545
Na9 O92 2.656487 1_556
Na9 O95 2.735729 1_556
Na9 O90 2.768509 1_546
Na10 O98 2.466058 1_555
Na10 O100 2.566877 1_555
Na10 O96 2.579043 1_555
Na10 O110 2.654805 1_555
Na10 O112 2.763422 1_555
Na10 O108 2.808560 1_555
Na11 O99 2.502566 1_555
Na11 O101 2.549529 1_555
Na11 O97 2.592071 1_555
Na11 O111 2.594072 1_555
Na11 O113 2.809357 1_555
Na11 O109 2.849185 1_555
Na12 O118 2.410074 1_555
Na12 O104 2.650569 1_555
Na12 O106 2.696050 1_555
Na12 O102 2.700100 1_555
Na12 O114 2.710226 1_555
Na12 O116 2.724083 1_555
Na13 O107 2.523595 1_555
Na13 O119 2.546827 1_555
Na13 O117 2.580771 1_555
Na13 O115 2.679782 1_555
Na13 O105 2.742518 1_555
Na13 O103 2.779351 1_555
Na14 O132 2.399298 1_555
Na14 O134 2.576937 1_555
Na14 O124 2.639053 1_555
Na14 O136 2.665692 1_555
Na14 O122 2.761743 1_555
Na14 O120 2.762416 1_555
Na15 O133 2.290291 1_555
Na15 O137 2.582639 1_555
Na15 O135 2.689537 1_555
Na15 O123 2.712625 1_555
Na15 O125 2.753345 1_555
Na15 O121 2.864398 1_555
Na16 O138 2.339795 1_555
Na16 O128 2.643298 1_555
Na16 O140 2.671283 1_555
Na16 O130 2.703675 1_555
Na16 O142 2.706963 1_555
Na16 O126 2.810356 1_555
Na17 O131 2.351887 1_555
Na17 O139 2.505372 1_555
Na17 O129 2.622563 1_555
Na17 O127 2.723610 1_555
Na17 O141 2.736329 1_555
Na17 O143 2.822795 1_555
In0 O0 2.040869 1_565
In0 O72 2.079762 1_555
In0 O3 2.190969 1_455
In0 O75 2.236401 1_455
In0 O5 2.246818 1_465
In0 O76 2.254277 1_565
In1 O1 2.030128 1_565
In1 O73 2.055163 1_555
In1 O2 2.184113 1_555
In1 O4 2.221472 1_565
In1 O74 2.261181 1_555
In1 O77 2.288094 1_565
In2 O6 2.030330 1_555
In2 O78 2.099858 1_555
In2 O11 2.147775 1_455
In2 O9 2.203649 1_445
In2 O83 2.338533 1_445
In2 O80 2.344350 1_545
In3 O7 2.040294 1_555
In3 O79 2.095576 1_555
In3 O10 2.129716 1_555
In3 O8 2.158702 1_545
In3 O82 2.303991 1_545
In3 O81 2.325831 1_545
In4 O14 1.981635 1_555
In4 O16 2.148410 1_545
In4 O13 2.203050 1_445
In4 O85 2.218545 1_455
In4 O86 2.240183 1_555
In4 O89 2.245669 1_445
In5 O84 2.020331 1_555
In5 O15 2.020666 1_555
In5 O17 2.220244 1_545
In5 O12 2.250793 1_545
In5 O87 2.283761 1_555
In5 O88 2.306393 1_545
In6 O22 2.000911 1_545
In6 O20 2.144954 1_555
In6 O19 2.198112 1_445
In6 O91 2.217072 1_445
In6 O94 2.253632 1_555
In6 O93 2.271119 1_455
In7 O23 1.988855 1_555
In7 O21 2.134513 1_565
In7 O18 2.178146 1_555
In7 O90 2.224907 1_555
In7 O92 2.302310 1_565
In7 O95 2.307778 1_565
In8 O24 2.026261 1_555
In8 O98 2.031631 1_555
In8 O28 2.183873 1_555
In8 O26 2.198662 1_555
In8 O96 2.332789 1_555
In8 O100 2.354999 1_555
In9 O99 2.021291 1_555
In9 O27 2.152367 1_555
In9 O29 2.164079 1_555
In9 O25 2.186837 1_555
In9 O97 2.223078 1_555
In9 O101 2.237569 1_555
In10 O106 2.014386 1_555
In10 O30 2.187342 1_555
In10 O32 2.194774 1_555
In10 O102 2.196931 1_555
In10 O104 2.203992 1_555
In10 O34 2.205303 1_555
In11 O107 1.995277 1_555
In11 O35 2.156614 1_555
In11 O33 2.167392 1_555
In11 O31 2.241831 1_555
In11 O103 2.241904 1_555
In11 O105 2.273224 1_555
In12 O110 2.008279 1_555
In12 O38 2.164370 1_556
In12 O40 2.167024 1_556
In12 O36 2.219348 1_556
In12 O108 2.239556 1_555
In12 O112 2.249363 1_555
In13 O111 2.003853 1_555
In13 O39 2.163273 1_556
In13 O41 2.169345 1_556
In13 O37 2.205126 1_556
In13 O109 2.238579 1_555
In13 O113 2.251366 1_555
In14 O46 1.975287 1_555
In14 O118 2.032166 1_555
In14 O44 2.167011 1_555
In14 O114 2.308951 1_555
In14 O42 2.313971 1_555
In14 O116 2.397697 1_555
In15 O119 2.021119 1_555
In15 O45 2.149469 1_555
In15 O47 2.158781 1_555
In15 O43 2.167842 1_555
In15 O115 2.268906 1_555
In15 O117 2.275033 1_555
In16 O50 2.004986 1_554
In16 O52 2.145152 1_554
In16 O48 2.189191 1_554
In16 O120 2.238914 1_555
In16 O122 2.275037 1_555
In16 O124 2.282840 1_555
In17 O51 2.003654 1_554
In17 O53 2.143131 1_554
In17 O49 2.200419 1_554
In17 O121 2.212236 1_555
In17 O123 2.247237 1_555
In17 O125 2.278184 1_555
In18 O58 2.015893 1_555
In18 O56 2.158626 1_555
In18 O126 2.180908 1_555
In18 O128 2.190768 1_555
In18 O54 2.208707 1_555
In18 O130 2.249764 1_555
In19 O59 2.015722 1_555
In19 O131 2.037766 1_555
In19 O57 2.187241 1_555
In19 O127 2.239291 1_555
In19 O129 2.369033 1_555
In19 O55 2.369975 1_555
In20 O60 2.044528 1_555
In20 O132 2.098895 1_555
In20 O62 2.138155 1_555
In20 O64 2.215140 1_555
In20 O134 2.238610 1_555
In20 O136 2.301359 1_555
In21 O61 1.988514 1_555
In21 O133 2.062796 1_555
In21 O63 2.219863 1_555
In21 O137 2.262803 1_555
In21 O65 2.274264 1_555
In21 O135 2.317297 1_555
In22 O66 1.997026 1_555
In22 O138 2.042021 1_555
In22 O140 2.216236 1_555
In22 O142 2.223394 1_555
In22 O70 2.260698 1_555
In22 O68 2.327609 1_555
In23 O67 2.037850 1_555
In23 O139 2.061959 1_555
In23 O143 2.213576 1_555
In23 O71 2.217332 1_555
In23 O69 2.248456 1_555
In23 O141 2.253450 1_555
O0 Si0 1.633441 1_555
O1 Si1 1.630094 1_555
O2 S0 1.464047 1_555
O3 S1 1.482111 1_555
O4 S3 1.473629 1_555
O5 S2 1.467525 1_655
O6 Si2 1.654104 1_555
O7 Si3 1.646345 1_555
O8 S5 1.486154 1_555
O9 S4 1.484980 1_555
O10 S6 1.494153 1_545
O11 S7 1.481239 1_545
O12 S6 1.467783 1_555
O13 S7 1.478783 1_555
O14 Si2 1.625571 1_555
O15 Si3 1.621954 1_555
O16 S4 1.478223 1_455
O17 S5 1.468564 1_555
O18 S0 1.492042 1_555
O19 S1 1.487248 1_555
O20 S2 1.484000 1_555
O21 S3 1.492358 1_555
O22 Si0 1.648007 1_565
O23 Si1 1.636750 1_565
O24 Si4 1.650822 1_555
O25 S8 1.481895 1_555
O26 S9 1.464125 1_555
O27 S10 1.477197 1_555
O28 S11 1.472649 1_555
O29 S12 1.480015 1_555
O30 S13 1.481814 1_555
O31 S14 1.494077 1_555
O32 S15 1.473913 1_555
O33 S16 1.478474 1_555
O34 S17 1.470284 1_555
O35 S18 1.476174 1_555
O36 S17 1.497644 1_555
O37 S18 1.498419 1_555
O38 S13 1.481641 1_555
O39 S14 1.475979 1_555
O40 S15 1.485404 1_555
O41 S16 1.481118 1_555
O42 S9 1.491962 1_555
O43 S10 1.507613 1_555
O44 S11 1.477559 1_555
O45 S12 1.488699 1_555
O46 Si4 1.618684 1_555
O47 S8 1.481153 1_555
O48 S19 1.491284 1_555
O49 S20 1.488412 1_555
O50 Si5 1.650913 1_555
O51 Si6 1.647646 1_555
O52 S21 1.492261 1_555
O53 S22 1.485907 1_555
O54 S23 1.477164 1_555
O55 S24 1.468598 1_555
O56 S25 1.475151 1_555
O57 S26 1.467449 1_555
O58 Si7 1.635840 1_555
O59 Si8 1.641919 1_555
O60 Si7 1.643049 1_555
O61 Si8 1.620335 1_555
O62 S23 1.490084 1_555
O63 S24 1.482038 1_555
O64 S25 1.480732 1_555
O65 S26 1.474583 1_555
O66 Si5 1.608750 1_555
O67 Si6 1.625904 1_555
O68 S21 1.458316 1_555
O69 S22 1.466985 1_555
O70 S19 1.470590 1_555
O71 S20 1.477349 1_555
O72 Si7 1.664224 1_555
O73 Si8 1.660869 1_555
O74 S23 1.471453 1_555
O75 S24 1.492521 1_555
O76 S25 1.498747 1_555
O77 S26 1.493386 1_555
O78 Si5 1.662087 1_555
O79 Si6 1.661303 1_555
O80 S21 1.490265 1_555
O81 S22 1.487317 1_555
O82 S19 1.475254 1_555
O83 S20 1.472044 1_555
O84 Si4 1.640902 1_555
O85 S8 1.489846 1_555
O86 S9 1.500244 1_555
O87 S10 1.476912 1_555
O88 S11 1.480504 1_555
O89 S12 1.502053 1_555
O90 S13 1.489922 1_555
O91 S14 1.490521 1_555
O92 S15 1.495388 1_555
O93 S16 1.498476 1_555
O94 S17 1.496404 1_555
O95 S18 1.487593 1_555
O96 S6 1.490577 1_545
O97 S7 1.487957 1_545
O98 Si2 1.644942 1_555
O99 Si3 1.633824 1_555
O100 S5 1.491440 1_555
O101 S4 1.490007 1_555
O102 S0 1.487759 1_555
O103 S1 1.506907 1_555
O104 S3 1.494055 1_555
O105 S2 1.501474 1_655
O106 Si0 1.628976 1_555
O107 Si1 1.658609 1_555
O108 S19 1.508709 1_555
O109 S20 1.507458 1_555
O110 Si6 1.636954 1_555
O111 Si5 1.638158 1_655
O112 S21 1.512233 1_545
O113 S22 1.504404 1_545
O114 S23 1.496975 1_545
O115 S24 1.510435 1_545
O116 S25 1.489875 1_555
O117 S26 1.514517 1_555
O118 Si8 1.633699 1_555
O119 Si7 1.634657 1_655
O120 S17 1.491329 1_555
O121 S18 1.488414 1_555
O122 S14 1.491916 1_455
O123 S13 1.493528 1_555
O124 S15 1.500780 1_565
O125 S16 1.492585 1_565
O126 S9 1.495191 1_565
O127 S10 1.478628 1_565
O128 S11 1.510406 1_555
O129 S12 1.473912 1_555
O130 S8 1.490511 1_455
O131 Si4 1.651375 1_555
O132 Si0 1.661965 1_565
O133 Si1 1.641570 1_565
O134 S0 1.489748 1_555
O135 S1 1.464234 1_555
O136 S2 1.490442 1_555
O137 S3 1.479627 1_555
O138 Si2 1.645027 1_555
O139 Si3 1.662114 1_555
O140 S4 1.483101 1_455
O141 S5 1.498041 1_555
O142 S6 1.479308 1_555
O143 S7 1.485768 1_555
