# generated using pymatgen
data_Bi2Te2Se
_symmetry_space_group_name_H-M   'P 1'
_cell_length_a   10.87569317
_cell_length_b   10.87569317
_cell_length_c   10.87569290
_cell_angle_alpha   22.92155883
_cell_angle_beta   22.92155883
_cell_angle_gamma   22.92156024
_symmetry_Int_Tables_number   1
_chemical_formula_structural   Bi2Te2Se
_chemical_formula_sum   'Bi2 Te2 Se1'
_cell_volume   171.23868741
_cell_formula_units_Z   1
loop_
 _symmetry_equiv_pos_site_id
 _symmetry_equiv_pos_as_xyz
  1  'x, y, z'
loop_
 _atom_site_type_symbol
 _atom_site_label
 _atom_site_symmetry_multiplicity
 _atom_site_fract_x
 _atom_site_fract_y
 _atom_site_fract_z
 _atom_site_occupancy
  Bi  Bi0  1  0.60827876  0.60827876  0.60827876  1
  Bi  Bi1  1  0.39172124  0.39172124  0.39172024  1
  Te  Te0  1  0.21959513  0.21959513  0.21959513  1
  Te  Te1  1  0.78040487  0.78040487  0.78040487  1
  Se  Se0  1  -0.00000000  -0.00000000  0.00000000  1
loop_
_geom_bond_atom_site_label_1
_geom_bond_atom_site_label_2
_geom_bond_distance
_geom_bond_site_symmetry_2
Bi0 Te0 3.052219 1_556
Bi0 Te0 3.052219 1_565
Bi0 Te0 3.052219 1_655
Bi0 Se0 3.108773 1_665
Bi0 Se0 3.108773 1_656
Bi0 Se0 3.108773 1_566
Bi1 Te1 3.052223 1_554
Bi1 Te1 3.052227 1_545
Bi1 Te1 3.052227 1_455
Bi1 Se0 3.108766 1_655
Bi1 Se0 3.108766 1_565
Bi1 Se0 3.108769 1_556
