# generated using pymatgen
data_Ni11As8
_symmetry_space_group_name_H-M   'P 1'
_cell_length_a   6.81609807
_cell_length_b   6.81609807
_cell_length_c   21.81290928
_cell_angle_alpha   90.00000000
_cell_angle_beta   90.00000000
_cell_angle_gamma   90.00000000
_symmetry_Int_Tables_number   1
_chemical_formula_structural   Ni11As8
_chemical_formula_sum   'Ni44 As32'
_cell_volume   1013.41015995
_cell_formula_units_Z   4
loop_
 _symmetry_equiv_pos_site_id
 _symmetry_equiv_pos_as_xyz
  1  'x, y, z'
loop_
 _atom_site_type_symbol
 _atom_site_label
 _atom_site_symmetry_multiplicity
 _atom_site_fract_x
 _atom_site_fract_y
 _atom_site_fract_z
 _atom_site_occupancy
  Ni  Ni0  1  0.12296037  0.37327140  0.26829335  1
  Ni  Ni1  1  0.12672860  0.62296037  0.51829335  1
  Ni  Ni2  1  0.87327140  0.37703963  0.01829335  1
  Ni  Ni3  1  0.62296037  0.12672860  0.48170665  1
  Ni  Ni4  1  0.37703963  0.87327140  0.98170665  1
  Ni  Ni5  1  0.87703963  0.62672860  0.76829335  1
  Ni  Ni6  1  0.37327140  0.12296037  0.73170665  1
  Ni  Ni7  1  0.62672860  0.87703963  0.23170665  1
  Ni  Ni8  1  0.37776233  0.37776233  0.00000000  1
  Ni  Ni9  1  0.12223767  0.87776233  0.25000000  1
  Ni  Ni10  1  0.87776233  0.12223767  0.75000000  1
  Ni  Ni11  1  0.62223767  0.62223767  0.50000000  1
  Ni  Ni12  1  0.12720404  0.57064376  0.17239661  1
  Ni  Ni13  1  0.92935624  0.62720404  0.42239661  1
  Ni  Ni14  1  0.07064376  0.37279596  0.92239661  1
  Ni  Ni15  1  0.62720404  0.92935624  0.57760339  1
  Ni  Ni16  1  0.37279596  0.07064376  0.07760339  1
  Ni  Ni17  1  0.87279596  0.42935624  0.67239661  1
  Ni  Ni18  1  0.57064376  0.12720404  0.82760339  1
  Ni  Ni19  1  0.42935624  0.87279596  0.32760339  1
  Ni  Ni20  1  0.62197980  0.56399063  0.17217041  1
  Ni  Ni21  1  0.93600937  0.12197980  0.42217041  1
  Ni  Ni22  1  0.06399063  0.87802020  0.92217041  1
  Ni  Ni23  1  0.12197980  0.93600937  0.57782959  1
  Ni  Ni24  1  0.87802020  0.06399063  0.07782959  1
  Ni  Ni25  1  0.37802020  0.43600937  0.67217041  1
  Ni  Ni26  1  0.56399063  0.62197980  0.82782959  1
  Ni  Ni27  1  0.43600937  0.37802020  0.32782959  1
  Ni  Ni28  1  0.37287820  0.68213696  0.07837767  1
  Ni  Ni29  1  0.81786304  0.87287820  0.32837767  1
  Ni  Ni30  1  0.18213696  0.12712180  0.82837767  1
  Ni  Ni31  1  0.87287820  0.81786304  0.67162233  1
  Ni  Ni32  1  0.12712180  0.18213696  0.17162233  1
  Ni  Ni33  1  0.62712180  0.31786304  0.57837767  1
  Ni  Ni34  1  0.68213696  0.37287820  0.92162233  1
  Ni  Ni35  1  0.31786304  0.62712180  0.42162233  1
  Ni  Ni36  1  0.87782361  0.69059786  0.07810409  1
  Ni  Ni37  1  0.80940214  0.37782361  0.32810409  1
  Ni  Ni38  1  0.19059786  0.62217639  0.82810409  1
  Ni  Ni39  1  0.37782361  0.80940214  0.67189591  1
  Ni  Ni40  1  0.62217639  0.19059786  0.17189591  1
  Ni  Ni41  1  0.12217639  0.30940214  0.57810409  1
  Ni  Ni42  1  0.69059786  0.87782361  0.92189591  1
  Ni  Ni43  1  0.30940214  0.12217639  0.42189591  1
  As  As0  1  0.12203949  0.12203949  0.00000000  1
  As  As1  1  0.37796051  0.62203949  0.25000000  1
  As  As2  1  0.62203949  0.37796051  0.75000000  1
  As  As3  1  0.87796051  0.87796051  0.50000000  1
  As  As4  1  0.63052029  0.63052029  0.00000000  1
  As  As5  1  0.86947971  0.13052029  0.25000000  1
  As  As6  1  0.13052029  0.86947971  0.75000000  1
  As  As7  1  0.36947971  0.36947971  0.50000000  1
  As  As8  1  0.63039661  0.12181391  0.00019623  1
  As  As9  1  0.37818609  0.13039661  0.25019623  1
  As  As10  1  0.62181391  0.86960339  0.75019623  1
  As  As11  1  0.13039661  0.37818609  0.74980377  1
  As  As12  1  0.86960339  0.62181391  0.24980377  1
  As  As13  1  0.36960339  0.87818609  0.50019623  1
  As  As14  1  0.12181391  0.63039661  0.99980377  1
  As  As15  1  0.87818609  0.36960339  0.49980377  1
  As  As16  1  0.87391990  0.37719534  0.12520913  1
  As  As17  1  0.12280466  0.37391990  0.37520913  1
  As  As18  1  0.87719534  0.62608010  0.87520913  1
  As  As19  1  0.37391990  0.12280466  0.62479087  1
  As  As20  1  0.62608010  0.87719534  0.12479087  1
  As  As21  1  0.12608010  0.62280466  0.62520913  1
  As  As22  1  0.37719534  0.87391990  0.87479087  1
  As  As23  1  0.62280466  0.12608010  0.37479087  1
  As  As24  1  0.12432528  0.87631984  0.12853394  1
  As  As25  1  0.62368016  0.62432528  0.37853394  1
  As  As26  1  0.37631984  0.37567472  0.87853394  1
  As  As27  1  0.62432528  0.62368016  0.62146606  1
  As  As28  1  0.37567472  0.37631984  0.12146606  1
  As  As29  1  0.87567472  0.12368016  0.62853394  1
  As  As30  1  0.87631984  0.12432528  0.87146606  1
  As  As31  1  0.12368016  0.87567472  0.37146606  1
loop_
_geom_bond_atom_site_label_1
_geom_bond_atom_site_label_2
_geom_bond_distance
_geom_bond_site_symmetry_2
Ni0 Ni32 2.478827 1_555
Ni0 Ni12 2.487221 1_555
Ni0 Ni27 2.498109 1_555
Ni0 Ni37 2.504172 1_455
Ni1 Ni35 2.478827 1_555
Ni1 Ni13 2.487221 1_455
Ni1 Ni23 2.498109 1_555
Ni1 Ni41 2.504172 1_555
Ni2 Ni34 2.478827 1_554
Ni2 Ni24 2.498109 1_555
Ni2 Ni36 2.504172 1_555
Ni3 Ni33 2.478827 1_555
Ni3 Ni43 2.504172 1_555
Ni4 Ni42 2.504172 1_555
Ni14 Ni2 2.487221 1_456
Ni15 Ni3 2.487221 1_565
Ni16 Ni4 2.487221 1_544
Ni17 Ni5 2.487221 1_555
Ni18 Ni6 2.487221 1_555
Ni19 Ni7 2.487221 1_555
Ni20 Ni7 2.498109 1_555
Ni21 Ni3 2.498109 1_555
Ni22 Ni4 2.498109 1_555
Ni25 Ni6 2.498109 1_555
Ni26 Ni5 2.498109 1_555
Ni28 Ni4 2.478827 1_554
Ni29 Ni7 2.478827 1_555
Ni30 Ni6 2.478827 1_555
Ni31 Ni5 2.478827 1_555
Ni38 Ni5 2.504172 1_455
Ni39 Ni6 2.504172 1_565
Ni40 Ni7 2.504172 1_545
As0 Ni22 2.409385 1_544
As0 Ni24 2.409385 1_455
As0 Ni14 2.430935 1_554
As0 Ni16 2.430935 1_555
As0 Ni4 2.460771 1_544
As0 Ni2 2.460771 1_455
As0 Ni8 2.465019 1_555
As1 Ni20 2.409385 1_555
As1 Ni27 2.409385 1_555
As1 Ni19 2.430935 1_555
As1 Ni12 2.430935 1_555
As1 Ni7 2.460771 1_555
As1 Ni0 2.460771 1_555
As1 Ni9 2.465019 1_555
As2 Ni26 2.409385 1_555
As2 Ni25 2.409385 1_555
As2 Ni17 2.430935 1_555
As2 Ni18 2.430935 1_555
As2 Ni5 2.460771 1_555
As2 Ni6 2.460771 1_555
As2 Ni10 2.465019 1_555
As3 Ni23 2.409385 1_655
As3 Ni21 2.409385 1_565
As3 Ni13 2.430935 1_555
As3 Ni15 2.430935 1_555
As3 Ni3 2.460771 1_565
As3 Ni1 2.460771 1_655
As3 Ni11 2.465019 1_555
As4 Ni2 2.425303 1_555
As4 Ni4 2.425303 1_554
As4 Ni42 2.431378 1_554
As4 Ni36 2.431378 1_555
As4 Ni8 2.436440 1_555
As4 Ni34 2.476005 1_554
As4 Ni28 2.476005 1_555
As5 Ni0 2.425303 1_655
As5 Ni7 2.425303 1_545
As5 Ni40 2.431378 1_555
As5 Ni37 2.431378 1_555
As5 Ni9 2.436440 1_645
As5 Ni32 2.476005 1_655
As5 Ni29 2.476005 1_545
As6 Ni5 2.425303 1_455
As6 Ni6 2.425303 1_565
As6 Ni39 2.431378 1_555
As6 Ni38 2.431378 1_555
As6 Ni10 2.436440 1_465
As6 Ni30 2.476005 1_565
As6 Ni31 2.476005 1_455
As7 Ni3 2.425303 1_555
As7 Ni1 2.425303 1_555
As7 Ni41 2.431378 1_555
As7 Ni43 2.431378 1_555
As7 Ni11 2.436440 1_555
As7 Ni35 2.476005 1_555
As7 Ni33 2.476005 1_555
As8 Ni42 2.418940 1_544
As8 Ni24 2.423166 1_555
As8 Ni2 2.433666 1_555
As8 Ni34 2.447527 1_554
As8 Ni8 2.451276 1_555
As8 Ni4 2.452510 1_544
As8 Ni16 2.460801 1_555
As9 Ni40 2.418940 1_555
As9 Ni27 2.423166 1_555
As9 Ni0 2.433666 1_555
As9 Ni32 2.447527 1_555
As9 Ni9 2.451276 1_545
As9 Ni7 2.452510 1_545
As9 Ni19 2.460801 1_545
As10 Ni39 2.418940 1_555
As10 Ni26 2.423166 1_555
As10 Ni5 2.433666 1_555
As10 Ni31 2.447527 1_555
As10 Ni10 2.451276 1_565
As10 Ni6 2.452510 1_565
As10 Ni18 2.460801 1_565
As11 Ni38 2.418940 1_555
As11 Ni25 2.423166 1_555
As11 Ni6 2.433666 1_555
As11 Ni30 2.447527 1_555
As11 Ni10 2.451276 1_455
As11 Ni5 2.452510 1_455
As11 Ni17 2.460801 1_455
As12 Ni37 2.418940 1_555
As12 Ni20 2.423166 1_555
As12 Ni7 2.433666 1_555
As12 Ni29 2.447527 1_555
As12 Ni9 2.451276 1_655
As12 Ni0 2.452510 1_655
As12 Ni12 2.460801 1_655
As13 Ni43 2.418940 1_565
As13 Ni23 2.423166 1_555
As13 Ni1 2.433666 1_555
As13 Ni35 2.447527 1_555
As13 Ni11 2.451276 1_555
As13 Ni3 2.452510 1_565
As13 Ni15 2.460801 1_555
As14 Ni36 2.418940 1_456
As14 Ni22 2.423166 1_555
As14 Ni4 2.433666 1_555
As14 Ni28 2.447527 1_556
As14 Ni8 2.451276 1_556
As14 Ni2 2.452510 1_456
As14 Ni14 2.460801 1_555
As15 Ni41 2.418940 1_655
As15 Ni21 2.423166 1_555
As15 Ni3 2.433666 1_555
As15 Ni33 2.447527 1_555
As15 Ni11 2.451276 1_555
As15 Ni1 2.452510 1_655
As15 Ni13 2.460801 1_555
As16 Ni2 2.332149 1_555
As16 Ni40 2.366236 1_555
As16 Ni20 2.370514 1_555
As16 Ni36 2.370598 1_555
As16 Ni24 2.372001 1_555
As16 Ni32 2.402330 1_655
As16 Ni12 2.403861 1_655
As17 Ni0 2.332149 1_555
As17 Ni43 2.366236 1_555
As17 Ni21 2.370514 1_455
As17 Ni37 2.370598 1_455
As17 Ni27 2.372001 1_555
As17 Ni35 2.402330 1_555
As17 Ni13 2.403861 1_455
As18 Ni5 2.332149 1_555
As18 Ni42 2.366236 1_555
As18 Ni22 2.370514 1_655
As18 Ni38 2.370598 1_655
As18 Ni26 2.372001 1_555
As18 Ni34 2.402330 1_555
As18 Ni14 2.403861 1_655
As19 Ni6 2.332149 1_555
As19 Ni41 2.366236 1_555
As19 Ni23 2.370514 1_545
As19 Ni39 2.370598 1_545
As19 Ni25 2.372001 1_555
As19 Ni33 2.402330 1_555
As19 Ni15 2.403861 1_545
As20 Ni7 2.332149 1_555
As20 Ni36 2.366236 1_555
As20 Ni24 2.370514 1_565
As20 Ni40 2.370598 1_565
As20 Ni20 2.372001 1_555
As20 Ni28 2.402330 1_555
As20 Ni16 2.403861 1_565
As21 Ni1 2.332149 1_555
As21 Ni39 2.366236 1_555
As21 Ni25 2.370514 1_555
As21 Ni41 2.370598 1_555
As21 Ni23 2.372001 1_555
As21 Ni31 2.402330 1_455
As21 Ni17 2.403861 1_455
As22 Ni4 2.332149 1_555
As22 Ni38 2.366236 1_555
As22 Ni26 2.370514 1_555
As22 Ni42 2.370598 1_555
As22 Ni22 2.372001 1_555
As22 Ni30 2.402330 1_565
As22 Ni18 2.403861 1_565
As23 Ni3 2.332149 1_555
As23 Ni37 2.366236 1_555
As23 Ni27 2.370514 1_555
As23 Ni43 2.370598 1_555
As23 Ni21 2.372001 1_555
As23 Ni29 2.402330 1_545
As23 Ni19 2.403861 1_545
As24 Ni32 2.286657 1_565
As24 Ni12 2.292781 1_555
As24 Ni36 2.373932 1_455
As24 Ni24 2.382869 1_465
As24 Ni28 2.412255 1_555
As24 Ni16 2.420095 1_565
As24 Ni9 2.649585 1_555
As25 Ni35 2.286657 1_555
As25 Ni13 2.292781 1_555
As25 Ni37 2.373932 1_555
As25 Ni27 2.382869 1_555
As25 Ni29 2.412255 1_555
As25 Ni19 2.420095 1_555
As25 Ni11 2.649585 1_555
As26 Ni34 2.286657 1_555
As26 Ni14 2.292781 1_555
As26 Ni38 2.373932 1_555
As26 Ni26 2.382869 1_555
As26 Ni30 2.412255 1_555
As26 Ni18 2.420095 1_555
As26 Ni8 2.649585 1_556
As27 Ni33 2.286657 1_555
As27 Ni15 2.292781 1_555
As27 Ni39 2.373932 1_555
As27 Ni25 2.382869 1_555
As27 Ni31 2.412255 1_555
As27 Ni17 2.420095 1_555
As27 Ni11 2.649585 1_555
As28 Ni28 2.286657 1_555
As28 Ni16 2.292781 1_555
As28 Ni40 2.373932 1_555
As28 Ni20 2.382869 1_555
As28 Ni32 2.412255 1_555
As28 Ni12 2.420095 1_555
As28 Ni8 2.649585 1_555
As29 Ni31 2.286657 1_545
As29 Ni17 2.292781 1_555
As29 Ni41 2.373932 1_655
As29 Ni23 2.382869 1_645
As29 Ni33 2.412255 1_555
As29 Ni15 2.420095 1_545
As29 Ni10 2.649585 1_555
As30 Ni30 2.286657 1_655
As30 Ni18 2.292781 1_555
As30 Ni42 2.373932 1_545
As30 Ni22 2.382869 1_645
As30 Ni34 2.412255 1_555
As30 Ni14 2.420095 1_655
As30 Ni10 2.649585 1_555
As31 Ni29 2.286657 1_455
As31 Ni19 2.292781 1_555
As31 Ni43 2.373932 1_565
As31 Ni21 2.382869 1_465
As31 Ni35 2.412255 1_555
As31 Ni13 2.420095 1_455
As31 Ni9 2.649585 1_555
