# generated using pymatgen
data_KIO3
_symmetry_space_group_name_H-M   'P 1'
_cell_length_a   7.69342131
_cell_length_b   7.69342131
_cell_length_c   8.86093071
_cell_angle_alpha   54.86698198
_cell_angle_beta   54.86698198
_cell_angle_gamma   70.54092383
_symmetry_Int_Tables_number   1
_chemical_formula_structural   KIO3
_chemical_formula_sum   'K4 I4 O12'
_cell_volume   350.77616254
_cell_formula_units_Z   4
loop_
 _symmetry_equiv_pos_site_id
 _symmetry_equiv_pos_as_xyz
  1  'x, y, z'
loop_
 _atom_site_type_symbol
 _atom_site_label
 _atom_site_symmetry_multiplicity
 _atom_site_fract_x
 _atom_site_fract_y
 _atom_site_fract_z
 _atom_site_occupancy
  K  K0  1  0.99656836  0.00343164  0.50000000  1
  K  K1  1  0.49448675  0.50551325  0.00000000  1
  K  K2  1  0.00012647  -0.00012647  0.00000000  1
  K  K3  1  0.50091280  0.49908720  0.50000000  1
  I  I0  1  0.48019594  0.98855355  0.03195008  1
  I  I1  1  0.98176563  0.48478214  0.50272352  1
  I  I2  1  0.51521786  0.01823437  0.49727648  1
  I  I3  1  0.01144645  0.51980406  0.96804992  1
  O  O0  1  0.17293809  0.75583605  0.79510239  1
  O  O1  1  0.75381945  0.17566167  0.27392615  1
  O  O2  1  0.67208919  0.77447196  0.06633022  1
  O  O3  1  0.24416395  0.82706191  0.20489761  1
  O  O4  1  0.44580131  0.05703272  0.21234974  1
  O  O5  1  0.76470000  0.67411330  0.49763505  1
  O  O6  1  0.22552804  0.32791081  0.93366978  1
  O  O7  1  0.82433833  0.24618055  0.72607385  1
  O  O8  1  0.04367050  0.45511610  0.28754088  1
  O  O9  1  0.54488390  0.95632950  0.71245912  1
  O  O10  1  0.32588670  0.23530000  0.50236495  1
  O  O11  1  0.94296728  0.55419869  0.78765026  1
loop_
_geom_bond_atom_site_label_1
_geom_bond_atom_site_label_2
_geom_bond_distance
_geom_bond_site_symmetry_2
K0 O4 2.865739 1_655
K0 O11 2.865739 1_545
K0 O8 2.876693 1_655
K0 O9 2.876693 1_545
K0 O1 2.976336 1_555
K0 O7 2.976336 1_555
K0 O0 2.989309 1_645
K0 O3 2.989309 1_645
K1 O4 2.857152 1_555
K1 O11 2.857152 1_554
K1 O9 2.873919 1_554
K1 O8 2.873919 1_555
K1 O10 3.212402 1_555
K1 O5 3.212402 1_554
K1 O6 3.271371 1_554
K1 O2 3.271371 1_555
K1 O0 3.331036 1_554
K1 O3 3.331036 1_555
K1 O7 3.379793 1_554
K1 O1 3.379793 1_555
K2 O0 2.840927 1_544
K2 O3 2.840927 1_545
K2 O7 2.843979 1_454
K2 O1 2.843979 1_455
K2 O2 3.123677 1_445
K2 O6 3.123677 1_554
K2 O10 3.180913 1_554
K2 O5 3.180913 1_445
K3 O6 2.766510 1_555
K3 O2 2.766510 1_555
K3 O10 2.769748 1_555
K3 O5 2.769748 1_555
I0 O4 1.814490 1_565
I0 O3 1.816165 1_555
I0 O2 1.817991 1_555
I0 O6 2.711509 1_564
I1 O7 1.815070 1_555
I1 O8 1.815974 1_655
I1 O5 1.817398 1_555
I1 O10 2.702740 1_655
I2 O1 1.815070 1_555
I2 O9 1.815974 1_545
I2 O10 1.817398 1_555
I2 O5 2.702740 1_545
I3 O11 1.814490 1_455
I3 O0 1.816165 1_555
I3 O6 1.817991 1_555
I3 O2 2.711509 1_456
