# generated using pymatgen
data_Pr2MgTi4O12
_symmetry_space_group_name_H-M   'P 1'
_cell_length_a   5.45861355
_cell_length_b   6.07817840
_cell_length_c   7.43124774
_cell_angle_alpha   89.99984793
_cell_angle_beta   89.99998865
_cell_angle_gamma   95.86980283
_symmetry_Int_Tables_number   1
_chemical_formula_structural   Pr2MgTi4O12
_chemical_formula_sum   'Pr2 Mg1 Ti4 O12'
_cell_volume   245.26437592
_cell_formula_units_Z   1
loop_
 _symmetry_equiv_pos_site_id
 _symmetry_equiv_pos_as_xyz
  1  'x, y, z'
loop_
 _atom_site_type_symbol
 _atom_site_label
 _atom_site_symmetry_multiplicity
 _atom_site_fract_x
 _atom_site_fract_y
 _atom_site_fract_z
 _atom_site_occupancy
  Pr  Pr0  1  0.99141478  0.87393969  0.74999988  1
  Pr  Pr1  1  0.51399385  0.61691694  0.24999912  1
  Mg  Mg0  1  0.02725332  0.03037349  0.25000181  1
  Ti  Ti0  1  0.04835366  0.42054840  0.98586160  1
  Ti  Ti1  1  0.04835384  0.42054975  0.51413869  1
  Ti  Ti2  1  0.53056327  0.06966742  0.49659392  1
  Ti  Ti3  1  0.53056496  0.06966843  0.00340667  1
  O  O0  1  0.10156192  0.38261857  0.24999998  1
  O  O1  1  0.19480509  0.16424622  0.94624021  1
  O  O2  1  0.19480455  0.16424508  0.55375805  1
  O  O3  1  0.24931173  0.67904807  0.51245464  1
  O  O4  1  0.24931236  0.67904613  0.98754311  1
  O  O5  1  0.38804897  0.99797189  0.24999952  1
  O  O6  1  0.58243296  0.01811204  0.74999943  1
  O  O7  1  0.69294260  0.33844681  0.05014349  1
  O  O8  1  0.69294014  0.33843995  0.44985668  1
  O  O9  1  0.77783372  0.88325879  0.06000596  1
  O  O10  1  0.77783331  0.88325525  0.43999606  1
  O  O11  1  0.92854796  0.48155511  0.74999917  1
loop_
_geom_bond_atom_site_label_1
_geom_bond_atom_site_label_2
_geom_bond_distance
_geom_bond_site_symmetry_2
Mg0 O5 1.999207 1_545
Mg0 O10 2.097066 1_445
Mg0 O9 2.097068 1_445
Mg0 O0 2.137947 1_555
Mg0 O2 2.538057 1_555
Mg0 O1 2.538091 1_554
O0 Ti0 2.001022 1_554
O0 Ti1 2.001027 1_555
O0 Pr1 2.537853 1_555
O1 Ti0 1.845913 1_555
O1 Ti3 2.021269 1_556
O1 Pr0 2.464180 1_445
O2 Ti1 1.845920 1_555
O2 Ti2 2.021260 1_555
O2 Pr0 2.464175 1_445
O3 Ti1 1.821977 1_555
O3 Pr1 2.479034 1_555
O3 Pr0 2.615772 1_455
O3 Ti2 2.694884 1_565
O4 Ti0 1.821976 1_555
O4 Pr1 2.479031 1_556
O4 Pr0 2.615766 1_455
O4 Ti3 2.694903 1_566
O5 Ti3 2.020837 1_565
O5 Ti2 2.020845 1_565
O5 Pr1 2.482485 1_555
O6 Ti2 1.934592 1_555
O6 Ti3 1.934605 1_556
O6 Pr0 2.480321 1_545
O7 Ti3 1.810802 1_555
O7 Ti0 2.010721 1_654
O7 Pr1 2.522490 1_555
O8 Ti2 1.810769 1_555
O8 Ti1 2.010743 1_655
O8 Pr1 2.522517 1_555
O9 Ti3 1.896121 1_565
O9 Pr1 2.492280 1_555
O9 Pr0 2.585173 1_554
O10 Ti2 1.896135 1_565
O10 Pr1 2.492287 1_555
O10 Pr0 2.585157 1_555
O11 Ti1 1.920122 1_655
O11 Ti0 1.920135 1_655
O11 Pr0 2.374554 1_555
