# generated using pymatgen
data_MgTi3Fe2Co(PO4)6
_symmetry_space_group_name_H-M   'P 1'
_cell_length_a   8.73025991
_cell_length_b   8.73447030
_cell_length_c   8.73508641
_cell_angle_alpha   59.87904986
_cell_angle_beta   60.03349926
_cell_angle_gamma   59.87221647
_symmetry_Int_Tables_number   1
_chemical_formula_structural   MgTi3Fe2Co(PO4)6
_chemical_formula_sum   'Mg1 Ti3 Fe2 Co1 P6 O24'
_cell_volume   470.22575643
_cell_formula_units_Z   1
loop_
 _symmetry_equiv_pos_site_id
 _symmetry_equiv_pos_as_xyz
  1  'x, y, z'
loop_
 _atom_site_type_symbol
 _atom_site_label
 _atom_site_symmetry_multiplicity
 _atom_site_fract_x
 _atom_site_fract_y
 _atom_site_fract_z
 _atom_site_occupancy
  Mg  Mg0  1  0.25847700  0.24651400  0.24739400  1
  Ti  Ti0  1  0.05953400  0.64607200  0.64748400  1
  Ti  Ti1  1  0.43779300  0.85380700  0.85302000  1
  Ti  Ti2  1  0.88893900  0.37092800  0.37043200  1
  Fe  Fe0  1  0.01130500  0.99491500  0.99745400  1
  Fe  Fe1  1  0.48928500  0.50339700  0.50428900  1
  Co  Co0  1  0.61402000  0.13128400  0.12599100  1
  P  P0  1  0.24874700  0.25051400  0.54872600  1
  P  P1  1  0.24994900  0.95100100  0.25045500  1
  P  P2  1  0.24813800  0.54907200  0.95196400  1
  P  P3  1  0.75210500  0.45784200  0.03815500  1
  P  P4  1  0.75068500  0.03833000  0.75204500  1
  P  P5  1  0.75290100  0.75260100  0.45703000  1
  O  O0  1  0.07680600  0.11919900  0.30875900  1
  O  O1  1  0.07554800  0.49658300  0.12099300  1
  O  O2  1  0.07587500  0.30778700  0.49544800  1
  O  O3  1  0.23457800  0.08656100  0.73915900  1
  O  O4  1  0.42052100  0.19532200  0.38336000  1
  O  O5  1  0.25864900  0.41098600  0.57000600  1
  O  O6  1  0.23384000  0.93622600  0.08936200  1
  O  O7  1  0.26270800  0.75812700  0.41243300  1
  O  O8  1  0.57392900  0.60795500  0.99020500  1
  O  O9  1  0.25716300  0.56919100  0.76094300  1
  O  O10  1  0.79271600  0.26205900  0.04417200  1
  O  O11  1  0.57320500  0.98991700  0.82881000  1
  O  O12  1  0.42138100  0.00074700  0.19415000  1
  O  O13  1  0.23567600  0.73942900  0.93689800  1
  O  O14  1  0.71900600  0.44804200  0.23666800  1
  O  O15  1  0.42005500  0.38293000  0.00037300  1
  O  O16  1  0.71419800  0.23935500  0.59737300  1
  O  O17  1  0.79370900  0.04386700  0.90014500  1
  O  O18  1  0.71915500  0.59841700  0.44531600  1
  O  O19  1  0.57468100  0.82760400  0.60723100  1
  O  O20  1  0.79489300  0.90276900  0.26233400  1
  O  O21  1  0.92567700  0.66377900  0.51810000  1
  O  O22  1  0.92582700  0.51603500  0.89237500  1
  O  O23  1  0.92394400  0.89369800  0.66380300  1
loop_
_geom_bond_atom_site_label_1
_geom_bond_atom_site_label_2
_geom_bond_distance
_geom_bond_site_symmetry_2
Mg0 O4 2.030353 1_555
Mg0 O12 2.030653 1_555
Mg0 O15 2.032644 1_555
Mg0 O0 2.088639 1_555
Mg0 O2 2.092700 1_555
Mg0 O1 2.092779 1_555
Fe0 O6 2.197060 1_556
Fe0 O13 2.204108 1_555
Fe0 O20 2.204825 1_456
Fe0 O3 2.211574 1_565
Fe0 O17 2.224188 1_465
Fe0 O10 2.227228 1_466
Fe1 O7 2.209667 1_555
Fe1 O16 2.236613 1_555
Fe1 O5 2.246566 1_555
Fe1 O9 2.246870 1_555
Fe1 O18 2.278527 1_555
Fe1 O14 2.279943 1_555
Co0 O10 2.026079 1_555
Co0 O17 2.038026 1_554
Co0 O20 2.055406 1_545
Co0 O15 2.145205 1_555
Co0 O12 2.173986 1_555
Co0 O4 2.177227 1_555
O0 P1 1.566906 1_545
O0 Ti2 2.121473 1_455
O1 P2 1.565928 1_554
O1 Ti2 2.110660 1_455
O2 P0 1.566740 1_555
O2 Ti2 2.105349 1_455
O3 P0 1.553880 1_555
O3 Ti1 2.093419 1_545
O4 P0 1.541751 1_555
O5 P0 1.551062 1_555
O5 Ti0 2.081431 1_555
O6 P1 1.553934 1_555
O6 Ti1 2.117389 1_554
O7 P1 1.558569 1_555
O7 Ti0 2.099392 1_555
O8 P3 1.538342 1_556
O8 Ti1 1.933355 1_555
O9 P2 1.552269 1_555
O9 Ti0 2.070555 1_555
O10 P3 1.540307 1_555
O11 P4 1.537677 1_565
O11 Ti1 1.940210 1_555
O12 P1 1.540655 1_545
O13 P2 1.551361 1_555
O13 Ti1 2.095690 1_555
O14 P3 1.572570 1_555
O14 Ti2 1.989617 1_555
O15 P2 1.539166 1_554
O16 P4 1.580312 1_555
O16 Ti2 2.007500 1_555
O17 P4 1.543842 1_555
O18 P5 1.574045 1_555
O18 Ti2 1.988062 1_555
O19 P5 1.539978 1_555
O19 Ti1 1.935338 1_555
O20 P5 1.538880 1_555
O21 P5 1.541230 1_555
O21 Ti0 1.905098 1_655
O22 P3 1.541106 1_556
O22 Ti0 1.904336 1_655
O23 P4 1.540234 1_565
O23 Ti0 1.915807 1_655
