# generated using pymatgen
data_Rb4Mg(CoO3)2
_symmetry_space_group_name_H-M   'P 1'
_cell_length_a   6.48742072
_cell_length_b   6.48742145
_cell_length_c   5.91059713
_cell_angle_alpha   93.06530114
_cell_angle_beta   93.06530086
_cell_angle_gamma   108.58715685
_symmetry_Int_Tables_number   1
_chemical_formula_structural   Rb4Mg(CoO3)2
_chemical_formula_sum   'Rb4 Mg1 Co2 O6'
_cell_volume   234.79017552
_cell_formula_units_Z   1
loop_
 _symmetry_equiv_pos_site_id
 _symmetry_equiv_pos_as_xyz
  1  'x, y, z'
loop_
 _atom_site_type_symbol
 _atom_site_label
 _atom_site_symmetry_multiplicity
 _atom_site_fract_x
 _atom_site_fract_y
 _atom_site_fract_z
 _atom_site_occupancy
  Rb  Rb0  1  0.10557600  0.49044800  0.77306200  1
  Rb  Rb1  1  0.51227500  0.88688600  0.23078700  1
  Rb  Rb2  1  0.49044800  0.10557600  0.77306200  1
  Rb  Rb3  1  0.88688600  0.51227500  0.23078700  1
  Mg  Mg0  1  0.48233300  0.48233300  0.49380700  1
  Co  Co0  1  0.07548500  0.07548500  0.24332100  1
  Co  Co1  1  0.92563500  0.92563500  0.73413300  1
  O  O0  1  0.11860700  0.87526700  0.99176900  1
  O  O1  1  0.12803900  0.88453900  0.49229500  1
  O  O2  1  0.32887200  0.32887200  0.23641300  1
  O  O3  1  0.67145500  0.67145500  0.70899500  1
  O  O4  1  0.87526700  0.11860700  0.99176900  1
  O  O5  1  0.88453900  0.12803900  0.49229500  1
loop_
_geom_bond_atom_site_label_1
_geom_bond_atom_site_label_2
_geom_bond_distance
_geom_bond_site_symmetry_2
Mg0 O3 1.826177 1_555
Mg0 O2 1.827839 1_555
Mg0 Rb0 3.034032 1_555
Mg0 Rb2 3.034032 1_555
Co0 O2 1.922953 1_555
Co0 O4 2.011374 1_454
Co0 O0 2.011374 1_544
Co0 O5 2.055927 1_455
Co0 O1 2.055927 1_545
Co1 O3 1.916892 1_555
Co1 O0 2.025581 1_655
Co1 O4 2.025581 1_565
Co1 O1 2.054656 1_655
Co1 O5 2.054656 1_565
O0 Rb0 2.723830 1_555
O0 Rb2 2.822223 1_565
O0 Rb1 2.829115 1_556
O0 Rb3 2.850844 1_456
O1 Rb2 2.741686 1_565
O1 Rb3 2.757279 1_455
O1 Rb1 2.998876 1_555
O1 Rb0 3.090900 1_555
O2 Rb0 3.398284 1_554
O2 Rb2 3.398284 1_554
O3 Rb0 3.390540 1_655
O3 Rb2 3.390540 1_565
O4 Rb2 2.723830 1_555
O4 Rb0 2.822223 1_655
O4 Rb3 2.829115 1_556
O4 Rb1 2.850844 1_546
O5 Rb0 2.741686 1_655
O5 Rb1 2.757278 1_545
O5 Rb3 2.998877 1_555
O5 Rb2 3.090900 1_555
