# generated using pymatgen
data_NaMgTi2BiO6
_symmetry_space_group_name_H-M   'P 1'
_cell_length_a   6.04044769
_cell_length_b   6.03752714
_cell_length_c   6.03870080
_cell_angle_alpha   52.29640155
_cell_angle_beta   52.28951605
_cell_angle_gamma   52.28417725
_symmetry_Int_Tables_number   1
_chemical_formula_structural   NaMgTi2BiO6
_chemical_formula_sum   'Na1 Mg1 Ti2 Bi1 O6'
_cell_volume   127.52064741
_cell_formula_units_Z   1
loop_
 _symmetry_equiv_pos_site_id
 _symmetry_equiv_pos_as_xyz
  1  'x, y, z'
loop_
 _atom_site_type_symbol
 _atom_site_label
 _atom_site_symmetry_multiplicity
 _atom_site_fract_x
 _atom_site_fract_y
 _atom_site_fract_z
 _atom_site_occupancy
  Na  Na0  1  0.32677703  0.32707250  0.32707486  1
  Mg  Mg0  1  0.17148845  0.17193576  0.17197001  1
  Ti  Ti0  1  0.98620938  0.98687377  0.98703382  1
  Ti  Ti1  1  0.50851366  0.50900167  0.50902984  1
  Bi  Bi0  1  0.75207782  0.75227992  0.75243446  1
  O  O0  1  0.19627471  0.30777994  0.76158188  1
  O  O1  1  0.30773195  0.76158877  0.19616769  1
  O  O2  1  0.76154050  0.19604246  0.30737941  1
  O  O3  1  0.23562807  0.88145651  0.61671057  1
  O  O4  1  0.61670605  0.23542819  0.88144931  1
  O  O5  1  0.88142537  0.61661451  0.23524215  1
loop_
_geom_bond_atom_site_label_1
_geom_bond_atom_site_label_2
_geom_bond_distance
_geom_bond_site_symmetry_2
Na0 O1 2.173887 1_555
Na0 O0 2.174349 1_555
Na0 O2 2.174361 1_555
Na0 O3 2.340767 1_545
Na0 O4 2.342009 1_554
Na0 O5 2.342178 1_455
Mg0 O1 2.011538 1_545
Mg0 O0 2.011676 1_554
Mg0 O2 2.012278 1_455
Mg0 O5 2.259260 1_455
Mg0 O3 2.262533 1_545
Mg0 O4 2.263647 1_554
Bi0 O1 2.364024 1_556
Bi0 O0 2.365261 1_655
Bi0 O2 2.365696 1_565
O0 Ti1 2.092224 1_555
O0 Ti0 2.210335 1_445
O1 Ti1 2.093330 1_555
O1 Ti0 2.210047 1_454
O2 Ti1 2.095991 1_555
O2 Ti0 2.204174 1_544
O3 Ti0 2.030247 1_455
O3 Ti1 2.034404 1_555
O4 Ti0 2.028001 1_545
O4 Ti1 2.036356 1_555
O5 Ti0 2.028956 1_554
O5 Ti1 2.037237 1_555
