# generated using pymatgen
data_La5Ti5O17
_symmetry_space_group_name_H-M   'P 1'
_cell_length_a   3.94915591
_cell_length_b   5.50102515
_cell_length_c   31.27177004
_cell_angle_alpha   90.00000000
_cell_angle_beta   90.00244814
_cell_angle_gamma   90.00000000
_symmetry_Int_Tables_number   1
_chemical_formula_structural   La5Ti5O17
_chemical_formula_sum   'La10 Ti10 O34'
_cell_volume   679.36062763
_cell_formula_units_Z   2
loop_
 _symmetry_equiv_pos_site_id
 _symmetry_equiv_pos_as_xyz
  1  'x, y, z'
loop_
 _atom_site_type_symbol
 _atom_site_label
 _atom_site_symmetry_multiplicity
 _atom_site_fract_x
 _atom_site_fract_y
 _atom_site_fract_z
 _atom_site_occupancy
  La  La0  1  0.00490868  0.24240785  0.11276219  1
  La  La1  1  0.50490868  0.75759215  0.61276219  1
  La  La2  1  0.00377277  0.75664939  0.20534610  1
  La  La3  1  0.50377277  0.24335061  0.70534610  1
  La  La4  1  0.00546806  0.26810636  0.29763705  1
  La  La5  1  0.50546806  0.73189364  0.79763705  1
  La  La6  1  0.00672804  0.67765243  0.41831813  1
  La  La7  1  0.50672804  0.32234757  0.91831813  1
  La  La8  1  0.50631316  0.17490052  0.49185997  1
  La  La9  1  0.00631316  0.82509948  0.99185997  1
  Ti  Ti0  1  0.50583691  0.28977805  0.02780783  1
  Ti  Ti1  1  0.00583691  0.71022195  0.52780783  1
  Ti  Ti2  1  0.50470214  0.75942129  0.11386188  1
  Ti  Ti3  1  0.00470214  0.24057871  0.61386188  1
  Ti  Ti4  1  0.50245537  0.25665311  0.20523615  1
  Ti  Ti5  1  0.00245537  0.74334689  0.70523615  1
  Ti  Ti6  1  0.50490417  0.75116773  0.29682672  1
  Ti  Ti7  1  0.00490417  0.24883227  0.79682672  1
  Ti  Ti8  1  0.50674761  0.21711406  0.38271409  1
  Ti  Ti9  1  0.00674761  0.78288594  0.88271409  1
  O  O0  1  0.00588507  0.25723197  0.03387055  1
  O  O1  1  0.50588507  0.74276803  0.53387055  1
  O  O2  1  0.50579969  0.97168284  0.06869235  1
  O  O3  1  0.00579969  0.02831716  0.56869235  1
  O  O4  1  0.50513926  0.44960768  0.08484395  1
  O  O5  1  0.00513926  0.55039232  0.58484395  1
  O  O6  1  0.00471603  0.74803347  0.12196727  1
  O  O7  1  0.50471603  0.25196653  0.62196727  1
  O  O8  1  0.50416988  0.04830808  0.15402027  1
  O  O9  1  0.00416988  0.95169192  0.65402027  1
  O  O10  1  0.50414247  0.55319413  0.17094214  1
  O  O11  1  0.00414247  0.44680587  0.67094214  1
  O  O12  1  0.00339613  0.25684630  0.20528860  1
  O  O13  1  0.50339613  0.74315370  0.70528860  1
  O  O14  1  0.50425516  0.96075710  0.23983801  1
  O  O15  1  0.00425516  0.03924290  0.73983801  1
  O  O16  1  0.50454428  0.46444693  0.25665895  1
  O  O17  1  0.00454428  0.53555307  0.75665895  1
  O  O18  1  0.00501309  0.76350080  0.28877818  1
  O  O19  1  0.50501309  0.23649920  0.78877818  1
  O  O20  1  0.50627056  0.06857948  0.98117761  1
  O  O21  1  0.00627056  0.93142052  0.48117761  1
  O  O22  1  0.50629688  0.55635338  0.99349370  1
  O  O23  1  0.00629688  0.44364662  0.49349370  1
  O  O24  1  0.00663127  0.04971492  0.91699241  1
  O  O25  1  0.50663127  0.95028508  0.41699241  1
  O  O26  1  0.00659956  0.56347103  0.92956298  1
  O  O27  1  0.50659956  0.43652897  0.42956298  1
  O  O28  1  0.50638372  0.74873328  0.87664938  1
  O  O29  1  0.00638372  0.25126672  0.37664938  1
  O  O30  1  0.00619439  0.45984050  0.84224835  1
  O  O31  1  0.50619439  0.54015950  0.34224835  1
  O  O32  1  0.00572664  0.93802108  0.82560319  1
  O  O33  1  0.50572664  0.06197892  0.32560319  1
loop_
_geom_bond_atom_site_label_1
_geom_bond_atom_site_label_2
_geom_bond_distance
_geom_bond_site_symmetry_2
La0 O4 2.440616 1_455
La0 O4 2.442149 1_555
La0 O0 2.468432 1_555
La0 O8 2.586883 1_555
La0 O8 2.591417 1_455
La0 O6 2.734758 1_545
La0 O6 2.796315 1_555
La0 O2 2.828786 1_445
La0 O2 2.833776 1_545
La0 O12 2.894561 1_555
La1 O5 2.440616 1_555
La1 O5 2.442149 1_655
La1 O1 2.468432 1_555
La1 O9 2.586883 1_655
La1 O9 2.591417 1_555
La1 O7 2.734758 1_565
La1 O7 2.796315 1_555
La1 O3 2.828786 1_565
La1 O3 2.833776 1_665
La1 O13 2.894561 1_555
La2 O10 2.510608 1_455
La2 O10 2.512976 1_555
La2 O14 2.513112 1_455
La2 O14 2.516031 1_555
La2 O6 2.607837 1_555
La2 O18 2.609345 1_555
La2 O12 2.749430 1_555
La2 O12 2.751597 1_565
La2 O8 3.007133 1_465
La2 O16 3.007634 1_455
La2 O8 3.009282 1_565
La2 O16 3.011542 1_555
La3 O11 2.510608 1_555
La3 O11 2.512976 1_655
La3 O15 2.513112 1_555
La3 O15 2.516031 1_655
La3 O7 2.607837 1_555
La3 O19 2.609345 1_555
La3 O13 2.749430 1_555
La3 O13 2.751597 1_545
La3 O9 3.007133 1_545
La3 O17 3.007634 1_555
La3 O9 3.009282 1_645
La3 O17 3.011542 1_655
La4 O33 2.438374 1_455
La4 O33 2.439967 1_555
La4 O29 2.472594 1_555
La4 O16 2.587175 1_555
La4 O16 2.592654 1_455
La4 O18 2.739223 1_555
La4 O18 2.789638 1_545
La4 O31 2.841449 1_455
La4 O31 2.845350 1_555
La4 O12 2.888575 1_555
La4 O14 3.163216 1_545
La4 O14 3.169094 1_445
La5 O32 2.438374 1_555
La5 O32 2.439967 1_655
La5 O28 2.472594 1_555
La5 O17 2.587175 1_655
La5 O17 2.592654 1_555
La5 O19 2.739223 1_555
La5 O19 2.789638 1_565
La5 O30 2.841449 1_555
La5 O30 2.845350 1_655
La5 O13 2.888575 1_555
La5 O15 3.163216 1_665
La5 O15 3.169094 1_565
La6 O27 2.404154 1_555
La6 O27 2.405012 1_455
La6 O21 2.410987 1_555
La6 O25 2.479607 1_555
La6 O25 2.480213 1_455
La6 O23 2.680238 1_555
La6 O29 2.683207 1_555
La7 O26 2.404154 1_655
La7 O26 2.405012 1_555
La7 O20 2.410987 1_555
La7 O24 2.479607 1_655
La7 O24 2.480213 1_555
La7 O22 2.680238 1_555
La7 O28 2.683207 1_555
La8 O21 2.409130 1_645
La8 O21 2.409383 1_545
La8 O27 2.422108 1_555
La8 O23 2.467166 1_655
La8 O23 2.467273 1_555
La8 O25 2.647292 1_545
La8 O1 2.716040 1_545
La9 O20 2.409130 1_565
La9 O20 2.409383 1_465
La9 O26 2.422108 1_555
La9 O22 2.467166 1_555
La9 O22 2.467273 1_455
La9 O24 2.647292 1_565
La9 O0 2.716040 1_566
O0 Ti0 1.991542 1_555
O0 Ti0 1.991903 1_455
O1 Ti1 1.991542 1_655
O1 Ti1 1.991903 1_555
O2 Ti2 1.832671 1_555
O2 Ti0 2.167168 1_565
O3 Ti3 1.832671 1_555
O3 Ti1 2.167168 1_545
O4 Ti2 1.930820 1_555
O4 Ti0 1.988555 1_555
O5 Ti3 1.930820 1_555
O5 Ti1 1.988555 1_555
O6 Ti2 1.991722 1_555
O6 Ti2 1.991809 1_455
O7 Ti3 1.991722 1_655
O7 Ti3 1.991809 1_555
O8 Ti4 1.969461 1_555
O8 Ti2 2.025480 1_545
O9 Ti5 1.969461 1_555
O9 Ti3 2.025480 1_565
O10 Ti4 1.952238 1_555
O10 Ti2 2.115002 1_555
O11 Ti5 1.952238 1_555
O11 Ti3 2.115002 1_555
O12 Ti4 1.970864 1_555
O12 Ti4 1.978294 1_455
O13 Ti5 1.970864 1_655
O13 Ti5 1.978294 1_555
O14 Ti4 1.954589 1_565
O14 Ti6 2.122576 1_555
O15 Ti5 1.954589 1_545
O15 Ti7 2.122576 1_555
O16 Ti4 1.972973 1_555
O16 Ti6 2.016327 1_555
O17 Ti5 1.972973 1_555
O17 Ti7 2.016327 1_555
O18 Ti6 1.991273 1_555
O18 Ti6 1.992147 1_455
O19 Ti7 1.991273 1_655
O19 Ti7 1.992147 1_555
O20 Ti0 1.899217 1_556
O21 Ti1 1.899217 1_555
O22 Ti0 1.817115 1_556
O23 Ti1 1.817115 1_555
O24 Ti9 1.817580 1_545
O25 Ti8 1.817580 1_565
O26 Ti9 1.898218 1_555
O27 Ti8 1.898218 1_555
O28 Ti9 1.991126 1_555
O28 Ti9 1.993958 1_655
O29 Ti8 1.991126 1_455
O29 Ti8 1.993958 1_555
O30 Ti7 1.834386 1_555
O30 Ti9 2.181593 1_555
O31 Ti6 1.834386 1_555
O31 Ti8 2.181593 1_555
O32 Ti7 1.932139 1_565
O32 Ti9 1.979384 1_555
O33 Ti6 1.932139 1_545
O33 Ti8 1.979384 1_555
