# generated using pymatgen
data_NaMgTi2BiO6
_symmetry_space_group_name_H-M   'P 1'
_cell_length_a   6.20784481
_cell_length_b   6.20784302
_cell_length_c   6.20784455
_cell_angle_alpha   53.13502114
_cell_angle_beta   53.13502280
_cell_angle_gamma   53.13502487
_symmetry_Int_Tables_number   1
_chemical_formula_structural   NaMgTi2BiO6
_chemical_formula_sum   'Na1 Mg1 Ti2 Bi1 O6'
_cell_volume   141.95633215
_cell_formula_units_Z   1
loop_
 _symmetry_equiv_pos_site_id
 _symmetry_equiv_pos_as_xyz
  1  'x, y, z'
loop_
 _atom_site_type_symbol
 _atom_site_label
 _atom_site_symmetry_multiplicity
 _atom_site_fract_x
 _atom_site_fract_y
 _atom_site_fract_z
 _atom_site_occupancy
  Na  Na0  1  0.27216600  0.27216600  0.27216600  1
  Mg  Mg0  1  0.64643000  0.64643000  0.64643000  1
  Ti  Ti0  1  0.01493000  0.01493000  0.01493000  1
  Ti  Ti1  1  0.47431900  0.47431900  0.47431900  1
  Bi  Bi0  1  0.82240200  0.82240200  0.82240200  1
  O  O0  1  0.18620300  0.30507700  0.74047400  1
  O  O1  1  0.30507700  0.74047400  0.18620300  1
  O  O2  1  0.74047400  0.18620300  0.30507700  1
  O  O3  1  0.24449300  0.81688700  0.68527900  1
  O  O4  1  0.68527900  0.24449300  0.81688700  1
  O  O5  1  0.81688700  0.68527900  0.24449300  1
loop_
_geom_bond_atom_site_label_1
_geom_bond_atom_site_label_2
_geom_bond_distance
_geom_bond_site_symmetry_2
Na0 O3 2.439572 1_545
Na0 O5 2.439572 1_455
Na0 O4 2.439573 1_554
Na0 O1 2.738358 1_555
Na0 O0 2.738359 1_555
Na0 O2 2.738359 1_555
Mg0 O4 1.954455 1_555
Mg0 O5 1.954455 1_555
Mg0 O3 1.954455 1_555
Bi0 O4 2.200609 1_565
Bi0 O5 2.200610 1_556
Bi0 O3 2.200610 1_655
Bi0 O0 2.748064 1_655
Bi0 O2 2.748064 1_565
Bi0 O1 2.748064 1_556
Bi0 Mg0 2.806356 1_555
O0 Ti1 1.912802 1_555
O0 Ti0 1.928654 1_556
O1 Ti1 1.912803 1_555
O1 Ti0 1.928655 1_565
O2 Ti1 1.912802 1_555
O2 Ti0 1.928655 1_655
O3 Ti0 2.268820 1_566
O3 Ti1 2.394233 1_555
O4 Ti0 2.268820 1_656
O4 Ti1 2.394234 1_555
O5 Ti0 2.268820 1_665
O5 Ti1 2.394234 1_555
