# generated using pymatgen
data_Eu(CdP)2
_symmetry_space_group_name_H-M   'P 1'
_cell_length_a   4.33972875
_cell_length_b   4.33972835
_cell_length_c   7.13261692
_cell_angle_alpha   90.00000000
_cell_angle_beta   90.00000000
_cell_angle_gamma   120.00000311
_symmetry_Int_Tables_number   1
_chemical_formula_structural   Eu(CdP)2
_chemical_formula_sum   'Eu1 Cd2 P2'
_cell_volume   116.33346082
_cell_formula_units_Z   1
loop_
 _symmetry_equiv_pos_site_id
 _symmetry_equiv_pos_as_xyz
  1  'x, y, z'
loop_
 _atom_site_type_symbol
 _atom_site_label
 _atom_site_symmetry_multiplicity
 _atom_site_fract_x
 _atom_site_fract_y
 _atom_site_fract_z
 _atom_site_occupancy
  Eu  Eu0  1  0.00000000  0.00000000  -0.00000000  1
  Cd  Cd0  1  0.66666700  0.33333300  0.36159118  1
  Cd  Cd1  1  0.33333300  0.66666700  0.63840882  1
  P  P0  1  0.66666700  0.33333300  0.75297234  1
  P  P1  1  0.33333300  0.66666700  0.24702766  1
loop_
_geom_bond_atom_site_label_1
_geom_bond_atom_site_label_2
_geom_bond_distance
_geom_bond_site_symmetry_2
Eu0 P0 3.063040 1_454
Eu0 P1 3.063040 1_545
Eu0 P0 3.063043 1_444
Eu0 P1 3.063043 1_555
Eu0 P1 3.063043 1_445
Eu0 P0 3.063043 1_554
Cd0 P1 2.635422 1_545
Cd0 P1 2.635422 1_655
Cd0 P1 2.635429 1_555
Cd0 P0 2.791572 1_555
Cd1 P0 2.635422 1_565
Cd1 P0 2.635422 1_455
Cd1 P0 2.635429 1_555
Cd1 P1 2.791572 1_555
