# generated using pymatgen
data_MgMn5Cr(PO4)6
_symmetry_space_group_name_H-M   'P 1'
_cell_length_a   8.37194643
_cell_length_b   8.79888789
_cell_length_c   8.72959037
_cell_angle_alpha   59.27469040
_cell_angle_beta   61.83376476
_cell_angle_gamma   62.35086626
_symmetry_Int_Tables_number   1
_chemical_formula_structural   MgMn5Cr(PO4)6
_chemical_formula_sum   'Mg1 Mn5 Cr1 P6 O24'
_cell_volume   465.77368291
_cell_formula_units_Z   1
loop_
 _symmetry_equiv_pos_site_id
 _symmetry_equiv_pos_as_xyz
  1  'x, y, z'
loop_
 _atom_site_type_symbol
 _atom_site_label
 _atom_site_symmetry_multiplicity
 _atom_site_fract_x
 _atom_site_fract_y
 _atom_site_fract_z
 _atom_site_occupancy
  Mg  Mg0  1  0.25079100  0.86662500  0.63399000  1
  Mn  Mn0  1  0.99211900  0.01281700  0.01524300  1
  Mn  Mn1  1  0.05747300  0.64423800  0.64914700  1
  Mn  Mn2  1  0.50718600  0.48875800  0.49190600  1
  Mn  Mn3  1  0.44494000  0.84647900  0.85843200  1
  Mn  Mn4  1  0.93179700  0.35670300  0.35130200  1
  Cr  Cr0  1  0.57208500  0.14553300  0.13994100  1
  P  P0  1  0.25977900  0.25220600  0.52933300  1
  P  P1  1  0.24140600  0.96339200  0.24620800  1
  P  P2  1  0.25137000  0.53809300  0.96109600  1
  P  P3  1  0.75196200  0.45651100  0.04265500  1
  P  P4  1  0.77051600  0.04515200  0.74939300  1
  P  P5  1  0.72580900  0.75510000  0.45741100  1
  O  O0  1  0.06915400  0.11630800  0.29573700  1
  O  O1  1  0.06833700  0.51367500  0.11729300  1
  O  O2  1  0.06796900  0.31606500  0.49972200  1
  O  O3  1  0.24367100  0.07099100  0.71808300  1
  O  O4  1  0.42896000  0.19979500  0.37197100  1
  O  O5  1  0.27863700  0.39900200  0.56217900  1
  O  O6  1  0.22901700  0.92491300  0.09818200  1
  O  O7  1  0.25238900  0.77713800  0.43213900  1
  O  O8  1  0.56996800  0.60381800  0.00217400  1
  O  O9  1  0.25570900  0.57843600  0.75884100  1
  O  O10  1  0.76858100  0.26564100  0.05990200  1
  O  O11  1  0.60934200  0.97192500  0.80380900  1
  O  O12  1  0.43118800  0.99298300  0.18713400  1
  O  O13  1  0.24848300  0.73764500  0.92171700  1
  O  O14  1  0.73629600  0.43947800  0.23635400  1
  O  O15  1  0.42892900  0.38214200  0.98934200  1
  O  O16  1  0.73951700  0.23573200  0.58308200  1
  O  O17  1  0.76516400  0.07434400  0.91354700  1
  O  O18  1  0.71963800  0.59607300  0.43402900  1
  O  O19  1  0.52983800  0.81691000  0.59420700  1
  O  O20  1  0.76094500  0.91915600  0.26438500  1
  O  O21  1  0.88926700  0.69742000  0.52904000  1
  O  O22  1  0.93340400  0.50227000  0.89250500  1
  O  O23  1  0.96836800  0.91059800  0.69451300  1
loop_
_geom_bond_atom_site_label_1
_geom_bond_atom_site_label_2
_geom_bond_distance
_geom_bond_site_symmetry_2
Mg0 O23 2.049354 1_455
Mg0 O19 2.051942 1_555
Mg0 O13 2.158448 1_555
Mg0 O9 2.177373 1_555
Mg0 O3 2.232498 1_565
Mg0 O7 2.260704 1_555
Mn0 O6 2.101331 1_645
Mn0 O20 2.197736 1_545
Mn0 O17 2.199561 1_554
Mn0 O10 2.221836 1_555
Mn0 O3 2.431582 1_654
Mn0 O13 2.584178 1_644
Mn1 O22 1.887263 1_455
Mn1 O21 1.892699 1_455
Mn1 O9 2.012090 1_555
Mn1 O7 2.051341 1_555
Mn1 O23 2.291943 1_455
Mn1 O5 2.302089 1_555
Mn2 O5 2.111973 1_555
Mn2 O18 2.129156 1_555
Mn2 O16 2.237213 1_555
Mn2 O14 2.240703 1_555
Mn2 O7 2.436259 1_555
Mn2 O9 2.488097 1_555
Mn3 O11 1.895437 1_555
Mn3 O8 1.912335 1_556
Mn3 O13 1.997688 1_555
Mn3 O3 2.151559 1_565
Mn3 O19 2.187930 1_555
Mn3 O6 2.206968 1_556
Mn4 O2 1.910214 1_655
Mn4 O1 1.940385 1_655
Mn4 O14 1.978271 1_555
Mn4 O16 2.032944 1_555
Mn4 O0 2.072698 1_655
Mn4 O18 2.232409 1_555
Cr0 O12 1.951534 1_545
Cr0 O15 1.968237 1_554
Cr0 O4 1.983034 1_555
Cr0 O10 2.021174 1_555
Cr0 O20 2.033492 1_545
Cr0 O17 2.054374 1_554
O0 P1 1.510593 1_545
O1 P2 1.512328 1_554
O2 P0 1.538581 1_555
O3 P0 1.606449 1_555
O4 P0 1.519909 1_555
O5 P0 1.544643 1_555
O6 P1 1.549636 1_555
O7 P1 1.616050 1_555
O8 P3 1.527656 1_555
O9 P2 1.598645 1_555
O10 P3 1.551478 1_555
O11 P4 1.533147 1_565
O12 P1 1.526885 1_555
O13 P2 1.597935 1_555
O14 P3 1.564855 1_555
O15 P2 1.503525 1_555
O16 P4 1.565624 1_555
O17 P4 1.557653 1_555
O18 P5 1.539858 1_555
O19 P5 1.549020 1_555
O20 P5 1.565328 1_555
O21 P5 1.536295 1_555
O22 P3 1.528489 1_556
O23 P4 1.544415 1_565
