# generated using pymatgen
data_MgBe2(CoO2)4
_symmetry_space_group_name_H-M   'P 1'
_cell_length_a   5.71212596
_cell_length_b   5.71212596
_cell_length_c   5.87458584
_cell_angle_alpha   60.91066209
_cell_angle_beta   90.00000000
_cell_angle_gamma   120.00000000
_symmetry_Int_Tables_number   1
_chemical_formula_structural   MgBe2(CoO2)4
_chemical_formula_sum   'Mg1 Be2 Co4 O8'
_cell_volume   137.37273577
_cell_formula_units_Z   1
loop_
 _symmetry_equiv_pos_site_id
 _symmetry_equiv_pos_as_xyz
  1  'x, y, z'
loop_
 _atom_site_type_symbol
 _atom_site_label
 _atom_site_symmetry_multiplicity
 _atom_site_fract_x
 _atom_site_fract_y
 _atom_site_fract_z
 _atom_site_occupancy
  Mg  Mg0  1  0.12500000  0.25000000  0.62500000  1
  Be  Be0  1  0.97371000  0.94741900  0.07887100  1
  Be  Be1  1  0.27629000  0.55258100  0.17112900  1
  Co  Co0  1  0.62500000  0.25000000  0.12500000  1
  Co  Co1  1  0.62500000  0.25000000  0.62500000  1
  Co  Co2  1  0.62500000  0.75000000  0.62500000  1
  Co  Co3  1  0.12500000  0.75000000  0.62500000  1
  O  O0  1  0.89779800  0.27073200  0.35633500  1
  O  O1  1  0.87706600  0.22926800  0.89366500  1
  O  O2  1  0.86714100  0.73428500  0.39857400  1
  O  O3  1  0.37293400  0.27073200  0.35633500  1
  O  O4  1  0.37293400  0.74586700  0.35633500  1
  O  O5  1  0.35220200  0.22926800  0.89366500  1
  O  O6  1  0.87706600  0.75413300  0.89366500  1
  O  O7  1  0.38285900  0.76571500  0.85142600  1
loop_
_geom_bond_atom_site_label_1
_geom_bond_atom_site_label_2
_geom_bond_distance
_geom_bond_site_symmetry_2
Mg0 O4 2.039925 1_555
Mg0 O6 2.039925 1_445
Mg0 O3 2.039925 1_555
Mg0 O1 2.039925 1_455
Mg0 O0 2.039925 1_455
Mg0 O5 2.039925 1_555
Be0 O2 1.554251 1_555
Be0 O5 1.807213 1_664
Be0 O6 1.807213 1_554
Be0 O1 1.807217 1_564
Be1 O7 1.554251 1_554
Be1 O0 1.807213 1_455
Be1 O4 1.807213 1_555
Be1 O3 1.807217 1_555
Co0 O4 2.064222 1_545
Co0 O6 2.064222 1_554
Co0 O5 2.064222 1_554
Co0 O0 2.064222 1_555
Co0 O3 2.064222 1_555
Co0 O1 2.064222 1_554
Co1 O2 1.982616 1_555
Co1 O7 1.982616 1_545
Co1 O0 2.137038 1_555
Co1 O3 2.137038 1_555
Co1 O1 2.137038 1_555
Co1 O5 2.137038 1_555
Co2 O7 1.982604 1_555
Co2 O2 1.982604 1_555
Co2 O4 2.137038 1_555
Co2 O6 2.137038 1_555
Co2 O0 2.137041 1_565
Co2 O5 2.137041 1_555
Co3 O2 1.982616 1_455
Co3 O7 1.982616 1_555
Co3 O1 2.137041 1_455
Co3 O3 2.137041 1_565
Co3 O4 2.137042 1_555
Co3 O6 2.137042 1_455
