# generated using pymatgen
data_CsSbSI2
_symmetry_space_group_name_H-M   'P 1'
_cell_length_a   8.55978500
_cell_length_b   11.47537900
_cell_length_c   8.37412500
_cell_angle_alpha   90.00000000
_cell_angle_beta   90.00000000
_cell_angle_gamma   90.00000000
_symmetry_Int_Tables_number   1
_chemical_formula_structural   CsSbSI2
_chemical_formula_sum   'Cs4 Sb4 S4 I8'
_cell_volume   822.56330923
_cell_formula_units_Z   4
loop_
 _symmetry_equiv_pos_site_id
 _symmetry_equiv_pos_as_xyz
  1  'x, y, z'
loop_
 _atom_site_type_symbol
 _atom_site_label
 _atom_site_symmetry_multiplicity
 _atom_site_fract_x
 _atom_site_fract_y
 _atom_site_fract_z
 _atom_site_occupancy
  Cs  Cs0  1  0.23124500  0.00000000  0.00000000  1
  Cs  Cs1  1  0.76875500  0.00000000  0.50000000  1
  Cs  Cs2  1  0.21913200  0.50000000  0.00000000  1
  Cs  Cs3  1  0.78086800  0.50000000  0.50000000  1
  Sb  Sb0  1  0.29199300  0.29524300  0.53795800  1
  Sb  Sb1  1  0.29199300  0.70475700  0.46204200  1
  Sb  Sb2  1  0.70800700  0.29524300  0.96204200  1
  Sb  Sb3  1  0.70800700  0.70475700  0.03795800  1
  S  S0  1  0.50000000  0.66223000  0.25000000  1
  S  S1  1  0.50000000  0.33777000  0.75000000  1
  S  S2  1  0.80367400  0.50000000  0.00000000  1
  S  S3  1  0.19632600  0.50000000  0.50000000  1
  I  I0  1  0.50000000  0.27654700  0.25000000  1
  I  I1  1  0.50000000  0.72345300  0.75000000  1
  I  I2  1  0.69207600  0.00000000  0.00000000  1
  I  I3  1  0.30792400  0.00000000  0.50000000  1
  I  I4  1  0.00000000  0.75820400  0.25000000  1
  I  I5  1  0.00000000  0.24179600  0.75000000  1
  I  I6  1  0.00000000  0.24250900  0.25000000  1
  I  I7  1  0.00000000  0.75749100  0.75000000  1
loop_
_geom_bond_atom_site_label_1
_geom_bond_atom_site_label_2
_geom_bond_distance
_geom_bond_site_symmetry_2
Cs0 I2 3.944614 1_555
Cs0 I5 3.999986 1_554
Cs0 I4 3.999986 1_545
Cs0 I6 4.005666 1_555
Cs0 I7 4.005666 1_544
Cs0 I3 4.238195 1_555
Cs0 I3 4.238195 1_554
Cs0 I0 4.443657 1_555
Cs0 I1 4.443657 1_544
Cs1 I3 3.944614 1_555
Cs1 I4 3.999986 1_645
Cs1 I5 3.999986 1_655
Cs1 I7 4.005666 1_645
Cs1 I6 4.005666 1_655
Cs1 I2 4.238195 1_556
Cs1 I2 4.238195 1_555
Cs1 I1 4.443657 1_545
Cs1 I0 4.443657 1_555
Cs2 S2 3.556231 1_455
Cs2 S0 3.691700 1_555
Cs2 S1 3.691700 1_554
Cs2 I7 4.078246 1_554
Cs2 I6 4.078246 1_555
Cs2 I4 4.084178 1_555
Cs2 I5 4.084178 1_554
Cs2 I1 4.091218 1_554
Cs2 I0 4.091218 1_555
Cs2 S3 4.191611 1_555
Cs2 S3 4.191611 1_554
Cs3 S3 3.556231 1_655
Cs3 S0 3.691700 1_555
Cs3 S1 3.691700 1_555
Cs3 I7 4.078246 1_655
Cs3 I6 4.078246 1_655
Cs3 I5 4.084178 1_655
Cs3 I4 4.084178 1_655
Cs3 I1 4.091218 1_555
Cs3 I0 4.091218 1_555
Cs3 S2 4.191611 1_555
Cs3 S2 4.191611 1_556
S0 Sb1 2.561506 1_555
S0 Sb3 2.561506 1_555
S1 Sb0 2.561506 1_555
S1 Sb2 2.561506 1_555
S2 Sb3 2.508493 1_555
S2 Sb2 2.508493 1_554
S3 Sb1 2.508493 1_555
S3 Sb0 2.508493 1_555
I0 Sb0 3.005166 1_555
I0 Sb2 3.005166 1_554
I1 Sb1 3.005166 1_555
I1 Sb3 3.005166 1_556
I2 Sb2 3.405635 1_554
I2 Sb3 3.405635 1_545
I3 Sb0 3.405635 1_555
I3 Sb1 3.405635 1_545
I4 Sb3 3.126683 1_455
I4 Sb1 3.126683 1_555
I5 Sb2 3.126683 1_455
I5 Sb0 3.126683 1_555
I6 Sb2 3.525339 1_454
I6 Sb0 3.525339 1_555
I7 Sb3 3.525339 1_456
I7 Sb1 3.525339 1_555
