# generated using pymatgen
data_MgCo2(SO5)2
_symmetry_space_group_name_H-M   'P 1'
_cell_length_a   5.31098302
_cell_length_b   5.56972428
_cell_length_c   7.55653752
_cell_angle_alpha   113.85748687
_cell_angle_beta   111.71440597
_cell_angle_gamma   95.52070921
_symmetry_Int_Tables_number   1
_chemical_formula_structural   MgCo2(SO5)2
_chemical_formula_sum   'Mg1 Co2 S2 O10'
_cell_volume   181.79769035
_cell_formula_units_Z   1
loop_
 _symmetry_equiv_pos_site_id
 _symmetry_equiv_pos_as_xyz
  1  'x, y, z'
loop_
 _atom_site_type_symbol
 _atom_site_label
 _atom_site_symmetry_multiplicity
 _atom_site_fract_x
 _atom_site_fract_y
 _atom_site_fract_z
 _atom_site_occupancy
  Mg  Mg0  1  0.48362185  0.60549899  0.21548101  1
  Co  Co0  1  0.99922111  0.48176339  0.51325601  1
  Co  Co1  1  0.51015399  0.01167984  0.99323280  1
  S  S0  1  0.08987722  0.87973621  0.25951529  1
  S  S1  1  0.91360165  0.14033393  0.75695099  1
  O  O0  1  0.67166057  0.32998619  0.26054337  1
  O  O1  1  0.32453616  0.69949548  0.75143538  1
  O  O2  1  0.77092281  0.78693674  0.13773425  1
  O  O3  1  0.18452946  0.16875491  0.42438052  1
  O  O4  1  0.23254861  0.23676887  0.89711496  1
  O  O5  1  0.82664019  0.85566492  0.57414330  1
  O  O6  1  0.18774949  0.69308304  0.35149290  1
  O  O7  1  0.22458884  0.83973923  0.11069966  1
  O  O8  1  0.83606248  0.32950202  0.66744613  1
  O  O9  1  0.78178556  0.15355624  0.89907342  1
loop_
_geom_bond_atom_site_label_1
_geom_bond_atom_site_label_2
_geom_bond_distance
_geom_bond_site_symmetry_2
Mg0 O0 1.983432 1_555
Mg0 O2 2.131078 1_555
Mg0 O7 2.143968 1_555
Mg0 O6 2.168060 1_555
Mg0 O4 2.210456 1_554
Mg0 O5 2.325727 1_555
Co0 O1 1.795923 1_655
Co0 O0 1.827756 1_555
Co0 O8 2.057336 1_555
Co0 O3 2.081122 1_655
Co0 O5 2.300644 1_555
Co0 O6 2.392647 1_655
Co1 O1 1.760978 1_545
Co1 O0 1.867481 1_556
Co1 O9 2.051071 1_555
Co1 O4 2.138419 1_555
Co1 O2 2.235505 1_546
Co1 O7 2.325839 1_546
O2 S0 1.508902 1_655
O3 S0 1.467884 1_545
O4 S1 1.522117 1_455
O5 S1 1.500240 1_565
O6 S0 1.501728 1_555
O7 S0 1.499807 1_555
O8 S1 1.480192 1_555
O9 S1 1.466690 1_555
