# generated using pymatgen
data_MgTe2Mo2W(SeS)2
_symmetry_space_group_name_H-M   'P 1'
_cell_length_a   6.68398400
_cell_length_b   6.68397300
_cell_length_c   62.02199600
_cell_angle_alpha   89.99969728
_cell_angle_beta   89.99993615
_cell_angle_gamma   120.00036712
_symmetry_Int_Tables_number   1
_chemical_formula_structural   MgTe2Mo2W(SeS)2
_chemical_formula_sum   'Mg8 Te16 Mo16 W8 Se16 S16'
_cell_volume   2399.63314514
_cell_formula_units_Z   8
loop_
 _symmetry_equiv_pos_site_id
 _symmetry_equiv_pos_as_xyz
  1  'x, y, z'
loop_
 _atom_site_type_symbol
 _atom_site_label
 _atom_site_symmetry_multiplicity
 _atom_site_fract_x
 _atom_site_fract_y
 _atom_site_fract_z
 _atom_site_occupancy
  Mg  Mg0_0  1  0.29439950  0.17857300  0.43150700  1
  Mg  Mg0_1  1  0.29439950  0.17857300  0.93150700  1
  Mg  Mg0_2  1  0.29439950  0.67857300  0.43150700  1
  Mg  Mg0_3  1  0.29439950  0.67857300  0.93150700  1
  Mg  Mg0_4  1  0.79439950  0.17857300  0.43150700  1
  Mg  Mg0_5  1  0.79439950  0.17857300  0.93150700  1
  Mg  Mg0_6  1  0.79439950  0.67857300  0.43150700  1
  Mg  Mg0_7  1  0.79439950  0.67857300  0.93150700  1
  Te  Te0_0  1  0.33332400  0.16665200  0.25847200  1
  Te  Te0_1  1  0.33332400  0.16665200  0.75847200  1
  Te  Te0_2  1  0.33332400  0.66665200  0.25847200  1
  Te  Te0_3  1  0.33332400  0.66665200  0.75847200  1
  Te  Te0_4  1  0.83332400  0.16665200  0.25847200  1
  Te  Te0_5  1  0.83332400  0.16665200  0.75847200  1
  Te  Te0_6  1  0.83332400  0.66665200  0.25847200  1
  Te  Te0_7  1  0.83332400  0.66665200  0.75847200  1
  Te  Te1_0  1  0.33332200  0.16664500  0.31992150  1
  Te  Te1_1  1  0.33332200  0.16664500  0.81992150  1
  Te  Te1_2  1  0.33332200  0.66664500  0.31992150  1
  Te  Te1_3  1  0.33332200  0.66664500  0.81992150  1
  Te  Te1_4  1  0.83332200  0.16664500  0.31992150  1
  Te  Te1_5  1  0.83332200  0.16664500  0.81992150  1
  Te  Te1_6  1  0.83332200  0.66664500  0.31992150  1
  Te  Te1_7  1  0.83332200  0.66664500  0.81992150  1
  Mo  Mo0_0  1  0.16665150  0.33330250  0.05782050  1
  Mo  Mo0_1  1  0.16665150  0.33330250  0.55782050  1
  Mo  Mo0_2  1  0.16665150  0.83330250  0.05782050  1
  Mo  Mo0_3  1  0.16665150  0.83330250  0.55782050  1
  Mo  Mo0_4  1  0.66665150  0.33330250  0.05782050  1
  Mo  Mo0_5  1  0.66665150  0.33330250  0.55782050  1
  Mo  Mo0_6  1  0.66665150  0.83330250  0.05782050  1
  Mo  Mo0_7  1  0.66665150  0.83330250  0.55782050  1
  Mo  Mo1_0  1  0.33334250  0.16668550  0.17344050  1
  Mo  Mo1_1  1  0.33334250  0.16668550  0.67344050  1
  Mo  Mo1_2  1  0.33334250  0.66668550  0.17344050  1
  Mo  Mo1_3  1  0.33334250  0.66668550  0.67344050  1
  Mo  Mo1_4  1  0.83334250  0.16668550  0.17344050  1
  Mo  Mo1_5  1  0.83334250  0.16668550  0.67344050  1
  Mo  Mo1_6  1  0.83334250  0.66668550  0.17344050  1
  Mo  Mo1_7  1  0.83334250  0.66668550  0.67344050  1
  W  W0_0  1  0.16665600  0.33331300  0.28921750  1
  W  W0_1  1  0.16665600  0.33331300  0.78921750  1
  W  W0_2  1  0.16665600  0.83331300  0.28921750  1
  W  W0_3  1  0.16665600  0.83331300  0.78921750  1
  W  W0_4  1  0.66665600  0.33331300  0.28921750  1
  W  W0_5  1  0.66665600  0.33331300  0.78921750  1
  W  W0_6  1  0.66665600  0.83331300  0.28921750  1
  W  W0_7  1  0.66665600  0.83331300  0.78921750  1
  Se  Se0_0  1  0.16667550  0.33335050  0.20031200  1
  Se  Se0_1  1  0.16667550  0.33335050  0.70031200  1
  Se  Se0_2  1  0.16667550  0.83335050  0.20031200  1
  Se  Se0_3  1  0.16667550  0.83335050  0.70031200  1
  Se  Se0_4  1  0.66667550  0.33335050  0.20031200  1
  Se  Se0_5  1  0.66667550  0.33335050  0.70031200  1
  Se  Se0_6  1  0.66667550  0.83335050  0.20031200  1
  Se  Se0_7  1  0.66667550  0.83335050  0.70031200  1
  Se  Se1_0  1  0.16667550  0.33335150  0.14657500  1
  Se  Se1_1  1  0.16667550  0.33335150  0.64657500  1
  Se  Se1_2  1  0.16667550  0.83335150  0.14657500  1
  Se  Se1_3  1  0.16667550  0.83335150  0.64657500  1
  Se  Se1_4  1  0.66667550  0.33335150  0.14657500  1
  Se  Se1_5  1  0.66667550  0.33335150  0.64657500  1
  Se  Se1_6  1  0.66667550  0.83335150  0.14657500  1
  Se  Se1_7  1  0.66667550  0.83335150  0.64657500  1
  S  S0_0  1  0.33332350  0.16664800  0.03337800  1
  S  S0_1  1  0.33332350  0.16664800  0.53337800  1
  S  S0_2  1  0.33332350  0.66664800  0.03337800  1
  S  S0_3  1  0.33332350  0.66664800  0.53337800  1
  S  S0_4  1  0.83332350  0.16664800  0.03337800  1
  S  S0_5  1  0.83332350  0.16664800  0.53337800  1
  S  S0_6  1  0.83332350  0.66664800  0.03337800  1
  S  S0_7  1  0.83332350  0.66664800  0.53337800  1
  S  S1_0  1  0.33332500  0.16665050  0.08227400  1
  S  S1_1  1  0.33332500  0.16665050  0.58227400  1
  S  S1_2  1  0.33332500  0.66665050  0.08227400  1
  S  S1_3  1  0.33332500  0.66665050  0.58227400  1
  S  S1_4  1  0.83332500  0.16665050  0.08227400  1
  S  S1_5  1  0.83332500  0.16665050  0.58227400  1
  S  S1_6  1  0.83332500  0.66665050  0.08227400  1
  S  S1_7  1  0.83332500  0.66665050  0.58227400  1
loop_
_geom_bond_atom_site_label_1
_geom_bond_atom_site_label_2
_geom_bond_distance
_geom_bond_site_symmetry_2
Mg0_0 Mg0_6 3.341971 1_555
Mg0_0 Mg0_6 3.341971 1_445
Mg0_0 Mg0_2 3.341986 1_555
Mg0_0 Mg0_2 3.341986 1_545
Mg0_0 Mg0_4 3.341992 1_555
Mg0_0 Mg0_4 3.341992 1_455
Mg0_1 Mg0_7 3.341971 1_555
Mg0_1 Mg0_7 3.341971 1_445
Mg0_1 Mg0_3 3.341986 1_545
Mg0_1 Mg0_3 3.341986 1_555
Mg0_1 Mg0_5 3.341992 1_555
Mg0_1 Mg0_5 3.341992 1_455
Mg0_2 Mg0_4 3.341971 1_565
Mg0_2 Mg0_4 3.341971 1_455
Mg0_2 Mg0_6 3.341992 1_455
Mg0_2 Mg0_6 3.341992 1_555
Mg0_3 Mg0_5 3.341971 1_565
Mg0_3 Mg0_5 3.341971 1_455
Mg0_3 Mg0_7 3.341992 1_455
Mg0_3 Mg0_7 3.341992 1_555
Mg0_4 Mg0_6 3.341986 1_555
Mg0_4 Mg0_6 3.341986 1_545
Mg0_5 Mg0_7 3.341986 1_555
Mg0_5 Mg0_7 3.341986 1_545
Te0_0 W0_0 2.712776 1_555
Te0_0 W0_4 2.712785 1_555
Te0_0 W0_2 2.712796 1_545
Te0_1 W0_1 2.712776 1_555
Te0_1 W0_5 2.712785 1_555
Te0_1 W0_3 2.712796 1_545
Te0_2 W0_2 2.712776 1_555
Te0_2 W0_6 2.712785 1_555
Te0_2 W0_0 2.712796 1_555
Te0_3 W0_3 2.712776 1_555
Te0_3 W0_7 2.712785 1_555
Te0_3 W0_1 2.712796 1_555
Te0_4 W0_4 2.712776 1_555
Te0_4 W0_0 2.712785 1_655
Te0_4 W0_6 2.712796 1_545
Te0_5 W0_5 2.712776 1_555
Te0_5 W0_1 2.712785 1_655
Te0_5 W0_7 2.712796 1_545
Te0_6 W0_6 2.712776 1_555
Te0_6 W0_2 2.712785 1_655
Te0_6 W0_4 2.712796 1_555
Te0_7 W0_7 2.712776 1_555
Te0_7 W0_3 2.712785 1_655
Te0_7 W0_5 2.712796 1_555
Te1_0 W0_4 2.710973 1_555
Te1_0 W0_2 2.710977 1_545
Te1_0 W0_0 2.710982 1_555
Te1_1 W0_5 2.710973 1_555
Te1_1 W0_3 2.710977 1_545
Te1_1 W0_1 2.710982 1_555
Te1_2 W0_6 2.710973 1_555
Te1_2 W0_0 2.710977 1_555
Te1_2 W0_2 2.710982 1_555
Te1_3 W0_7 2.710973 1_555
Te1_3 W0_1 2.710977 1_555
Te1_3 W0_3 2.710982 1_555
Te1_4 W0_0 2.710973 1_655
Te1_4 W0_6 2.710977 1_545
Te1_4 W0_4 2.710982 1_555
Te1_5 W0_1 2.710973 1_655
Te1_5 W0_7 2.710977 1_545
Te1_5 W0_5 2.710982 1_555
Te1_6 W0_2 2.710973 1_655
Te1_6 W0_4 2.710977 1_555
Te1_6 W0_6 2.710982 1_555
Te1_7 W0_3 2.710973 1_655
Te1_7 W0_5 2.710977 1_555
Te1_7 W0_7 2.710982 1_555
Mo0_0 S0_0 2.453775 1_555
Mo0_0 S0_4 2.453777 1_455
Mo0_0 S0_2 2.453841 1_555
Mo0_0 S1_4 2.454181 1_455
Mo0_0 S1_0 2.454186 1_555
Mo0_0 S1_2 2.454290 1_555
Mo0_1 S0_1 2.453775 1_555
Mo0_1 S0_5 2.453777 1_455
Mo0_1 S0_3 2.453841 1_555
Mo0_1 S1_5 2.454181 1_455
Mo0_1 S1_1 2.454186 1_555
Mo0_1 S1_3 2.454290 1_555
Mo0_2 S0_2 2.453775 1_555
Mo0_2 S0_6 2.453777 1_455
Mo0_2 S0_0 2.453841 1_565
Mo0_2 S1_6 2.454181 1_455
Mo0_2 S1_2 2.454186 1_555
Mo0_2 S1_0 2.454290 1_565
Mo0_3 S0_3 2.453775 1_555
Mo0_3 S0_7 2.453777 1_455
Mo0_3 S0_1 2.453841 1_565
Mo0_3 S1_7 2.454181 1_455
Mo0_3 S1_3 2.454186 1_555
Mo0_3 S1_1 2.454290 1_565
Mo0_4 S0_4 2.453775 1_555
Mo0_4 S0_0 2.453777 1_555
Mo0_4 S0_6 2.453841 1_555
Mo0_4 S1_0 2.454181 1_555
Mo0_4 S1_4 2.454186 1_555
Mo0_4 S1_6 2.454290 1_555
Mo0_5 S0_5 2.453775 1_555
Mo0_5 S0_1 2.453777 1_555
Mo0_5 S0_7 2.453841 1_555
Mo0_5 S1_1 2.454181 1_555
Mo0_5 S1_5 2.454186 1_555
Mo0_5 S1_7 2.454290 1_555
Mo0_6 S0_6 2.453775 1_555
Mo0_6 S0_2 2.453777 1_555
Mo0_6 S0_4 2.453841 1_565
Mo0_6 S1_2 2.454181 1_555
Mo0_6 S1_6 2.454186 1_555
Mo0_6 S1_4 2.454290 1_565
Mo0_7 S0_7 2.453775 1_555
Mo0_7 S0_3 2.453777 1_555
Mo0_7 S0_5 2.453841 1_565
Mo0_7 S1_3 2.454181 1_555
Mo0_7 S1_7 2.454186 1_555
Mo0_7 S1_5 2.454290 1_565
Mo1_0 Se1_4 2.549373 1_555
Mo1_0 Se1_0 2.549382 1_555
Mo1_0 Se1_2 2.549389 1_545
Mo1_0 Se0_2 2.549620 1_545
Mo1_0 Se0_4 2.549627 1_555
Mo1_0 Se0_0 2.549627 1_555
Mo1_1 Se1_5 2.549373 1_555
Mo1_1 Se1_1 2.549382 1_555
Mo1_1 Se1_3 2.549389 1_545
Mo1_1 Se0_3 2.549620 1_545
Mo1_1 Se0_5 2.549627 1_555
Mo1_1 Se0_1 2.549627 1_555
Mo1_2 Se1_6 2.549373 1_555
Mo1_2 Se1_2 2.549382 1_555
Mo1_2 Se1_0 2.549389 1_555
Mo1_2 Se0_0 2.549620 1_555
Mo1_2 Se0_6 2.549627 1_555
Mo1_2 Se0_2 2.549627 1_555
Mo1_3 Se1_7 2.549373 1_555
Mo1_3 Se1_3 2.549382 1_555
Mo1_3 Se1_1 2.549389 1_555
Mo1_3 Se0_1 2.549620 1_555
Mo1_3 Se0_7 2.549627 1_555
Mo1_3 Se0_3 2.549627 1_555
Mo1_4 Se1_0 2.549373 1_655
Mo1_4 Se1_4 2.549382 1_555
Mo1_4 Se1_6 2.549389 1_545
Mo1_4 Se0_6 2.549620 1_545
Mo1_4 Se0_0 2.549627 1_655
Mo1_4 Se0_4 2.549627 1_555
Mo1_5 Se1_1 2.549373 1_655
Mo1_5 Se1_5 2.549382 1_555
Mo1_5 Se1_7 2.549389 1_545
Mo1_5 Se0_7 2.549620 1_545
Mo1_5 Se0_1 2.549627 1_655
Mo1_5 Se0_5 2.549627 1_555
Mo1_6 Se1_2 2.549373 1_655
Mo1_6 Se1_6 2.549382 1_555
Mo1_6 Se1_4 2.549389 1_555
Mo1_6 Se0_4 2.549620 1_555
Mo1_6 Se0_2 2.549627 1_655
Mo1_6 Se0_6 2.549627 1_555
Mo1_7 Se1_3 2.549373 1_655
Mo1_7 Se1_7 2.549382 1_555
Mo1_7 Se1_5 2.549389 1_555
Mo1_7 Se0_5 2.549620 1_555
Mo1_7 Se0_3 2.549627 1_655
Mo1_7 Se0_7 2.549627 1_555
