# generated using pymatgen
data_Na3MgCu2SbO6
_symmetry_space_group_name_H-M   'P 1'
_cell_length_a   6.43537233
_cell_length_b   6.43537157
_cell_length_c   5.66965590
_cell_angle_alpha   93.65805575
_cell_angle_beta   93.65804672
_cell_angle_gamma   128.53038619
_symmetry_Int_Tables_number   1
_chemical_formula_structural   Na3MgCu2SbO6
_chemical_formula_sum   'Na3 Mg1 Cu2 Sb1 O6'
_cell_volume   181.68760577
_cell_formula_units_Z   1
loop_
 _symmetry_equiv_pos_site_id
 _symmetry_equiv_pos_as_xyz
  1  'x, y, z'
loop_
 _atom_site_type_symbol
 _atom_site_label
 _atom_site_symmetry_multiplicity
 _atom_site_fract_x
 _atom_site_fract_y
 _atom_site_fract_z
 _atom_site_occupancy
  Na  Na0  1  0.89754936  0.18249300  0.48216845  1
  Na  Na1  1  0.18249300  0.89754936  0.48216845  1
  Na  Na2  1  0.53890902  0.53890903  0.47622060  1
  Mg  Mg0  1  0.54367135  0.54367135  0.97710413  1
  Cu  Cu0  1  0.04041503  0.54116900  0.98196340  1
  Cu  Cu1  1  0.54116900  0.04041503  0.98196340  1
  Sb  Sb0  1  0.04295335  0.04295335  0.98163352  1
  O  O0  1  0.17552543  0.40514093  0.15648268  1
  O  O1  1  0.24849150  0.24849150  0.72291679  1
  O  O2  1  0.83504391  0.83504391  0.23851682  1
  O  O3  1  0.40514093  0.17552543  0.15648268  1
  O  O4  1  0.90748252  0.67865558  0.80618955  1
  O  O5  1  0.67865558  0.90748252  0.80618955  1
loop_
_geom_bond_atom_site_label_1
_geom_bond_atom_site_label_2
_geom_bond_distance
_geom_bond_site_symmetry_2
Na0 O1 2.341301 1_655
Na0 O2 2.341811 1_545
Na0 O5 2.475986 1_545
Na0 O0 2.495699 1_655
Na1 O1 2.341300 1_565
Na1 O2 2.341811 1_455
Na1 O4 2.475986 1_455
Na1 O3 2.495699 1_565
Na2 O2 2.282690 1_555
Na2 O1 2.292950 1_555
Na2 O3 2.499565 1_555
Na2 O0 2.499565 1_555
Na2 O5 2.548763 1_555
Na2 O4 2.548763 1_555
Mg0 O1 2.024735 1_555
Mg0 O2 2.034445 1_556
Mg0 O5 2.244594 1_555
Mg0 O4 2.244594 1_555
Mg0 O3 2.287742 1_556
Mg0 O0 2.287742 1_556
Cu0 O0 1.857518 1_556
Cu0 O4 1.858641 1_455
Cu1 O3 1.857518 1_556
Cu1 O5 1.858640 1_545
O0 Sb0 2.064727 1_554
O1 Sb0 1.991528 1_555
O2 Sb0 1.992129 1_664
O3 Sb0 2.064727 1_554
O4 Sb0 2.071492 1_665
O5 Sb0 2.071492 1_665
