# generated using pymatgen
data_MgTl6WO12
_symmetry_space_group_name_H-M   'P 1'
_cell_length_a   6.76827077
_cell_length_b   6.88598715
_cell_length_c   6.61505307
_cell_angle_alpha   92.27471469
_cell_angle_beta   91.59270961
_cell_angle_gamma   90.08387856
_symmetry_Int_Tables_number   1
_chemical_formula_structural   MgTl6WO12
_chemical_formula_sum   'Mg1 Tl6 W1 O12'
_cell_volume   307.93968250
_cell_formula_units_Z   1
loop_
 _symmetry_equiv_pos_site_id
 _symmetry_equiv_pos_as_xyz
  1  'x, y, z'
loop_
 _atom_site_type_symbol
 _atom_site_label
 _atom_site_symmetry_multiplicity
 _atom_site_fract_x
 _atom_site_fract_y
 _atom_site_fract_z
 _atom_site_occupancy
  Mg  Mg0  1  0.07141289  0.62686117  0.76470203  1
  Tl  Tl0  1  0.50532293  0.87902723  0.72589015  1
  Tl  Tl1  1  0.33090109  0.64922099  0.19444429  1
  Tl  Tl2  1  0.10010607  0.22422807  0.54278312  1
  Tl  Tl3  1  0.84045498  0.61418510  0.31849008  1
  Tl  Tl4  1  0.60452445  0.37021505  0.82314405  1
  Tl  Tl5  1  0.57866406  0.11516042  0.27388676  1
  W  W0  1  0.02326515  0.03375024  0.00775077  1
  O  O0  1  0.05895542  0.92809769  0.73494978  1
  O  O1  1  0.28533657  0.99013109  0.11556565  1
  O  O2  1  0.15021352  0.55614319  0.44077843  1
  O  O3  1  0.58257828  0.80728681  0.39023535  1
  O  O4  1  0.07452712  0.28271544  0.93609928  1
  O  O5  1  0.36898047  0.61378035  0.85501355  1
  O  O6  1  0.59436046  0.41963374  0.16868925  1
  O  O7  1  0.98515380  0.73103120  0.04603829  1
  O  O8  1  0.43053335  0.17524001  0.58675689  1
  O  O9  1  0.84205480  0.46328449  0.63351005  1
  O  O10  1  0.71922742  0.05272263  0.94696472  1
  O  O11  1  0.92342616  0.08728409  0.28430650  1
loop_
_geom_bond_atom_site_label_1
_geom_bond_atom_site_label_2
_geom_bond_distance
_geom_bond_site_symmetry_2
Mg0 O9 2.067391 1_455
Mg0 O7 2.067503 1_456
Mg0 O5 2.087871 1_555
Mg0 O0 2.092990 1_555
Mg0 O2 2.257104 1_555
Mg0 O4 2.667195 1_555
O0 W0 1.940290 1_566
O0 Tl2 2.464838 1_565
O1 W0 1.921816 1_565
O1 Tl5 2.363770 1_565
O1 Tl1 2.443060 1_555
O2 Tl1 2.180157 1_555
O2 Tl3 2.267909 1_455
O2 Tl2 2.434543 1_555
O3 Tl3 2.245536 1_555
O3 Tl5 2.283874 1_565
O3 Tl0 2.329320 1_555
O3 Tl1 2.350282 1_555
O4 W0 1.831940 1_556
O4 Tl2 2.627478 1_555
O5 Tl0 2.253870 1_555
O5 Tl1 2.270781 1_556
O5 Tl4 2.323231 1_555
O6 Tl5 2.238426 1_555
O6 Tl4 2.300539 1_554
O6 Tl3 2.312438 1_555
O6 Tl1 2.389941 1_555
O7 W0 2.125999 1_665
O7 Tl3 2.250706 1_555
O7 Tl1 2.584046 1_655
O8 Tl2 2.274604 1_555
O8 Tl4 2.315362 1_555
O8 Tl0 2.321620 1_545
O8 Tl5 2.346996 1_555
O9 Tl4 2.177579 1_555
O9 Tl3 2.364962 1_555
O9 Tl2 2.471580 1_655
O10 W0 2.091003 1_656
O10 Tl0 2.324574 1_545
O10 Tl5 2.410101 1_556
O10 Tl4 2.482952 1_555
O11 W0 1.988779 1_655
O11 Tl2 2.235577 1_655
O11 Tl5 2.340935 1_555
