# generated using pymatgen
data_MgFe4(AsS)4
_symmetry_space_group_name_H-M   'P 1'
_cell_length_a   5.86675523
_cell_length_b   5.97971228
_cell_length_c   5.99376520
_cell_angle_alpha   108.05652320
_cell_angle_beta   92.05947203
_cell_angle_gamma   88.90800835
_symmetry_Int_Tables_number   1
_chemical_formula_structural   MgFe4(AsS)4
_chemical_formula_sum   'Mg1 Fe4 As4 S4'
_cell_volume   199.77869212
_cell_formula_units_Z   1
loop_
 _symmetry_equiv_pos_site_id
 _symmetry_equiv_pos_as_xyz
  1  'x, y, z'
loop_
 _atom_site_type_symbol
 _atom_site_label
 _atom_site_symmetry_multiplicity
 _atom_site_fract_x
 _atom_site_fract_y
 _atom_site_fract_z
 _atom_site_occupancy
  Mg  Mg0  1  0.72027600  0.09270600  0.42084200  1
  Fe  Fe0  1  0.48796000  0.71516200  0.21256800  1
  Fe  Fe1  1  0.00233100  0.28111900  0.25390400  1
  Fe  Fe2  1  0.49566100  0.28592500  0.79389800  1
  Fe  Fe3  1  0.01312400  0.73962600  0.71640400  1
  As  As0  1  0.61863100  0.83560700  0.65274600  1
  As  As1  1  0.13672300  0.14731100  0.86863200  1
  As  As2  1  0.31761500  0.13516500  0.37575800  1
  As  As3  1  0.89167100  0.82363600  0.09287000  1
  S  S0  1  0.63509600  0.35681900  0.16169400  1
  S  S1  1  0.13457200  0.64296400  0.32639400  1
  S  S2  1  0.36513800  0.64736300  0.83635200  1
  S  S3  1  0.88358300  0.39034600  0.70460700  1
loop_
_geom_bond_atom_site_label_1
_geom_bond_atom_site_label_2
_geom_bond_distance
_geom_bond_site_symmetry_2
Mg0 S3 2.247162 1_555
Mg0 S0 2.567387 1_555
Fe0 S0 2.230028 1_555
Fe0 S2 2.257435 1_554
Fe0 S1 2.295330 1_555
Fe0 Mg0 2.600129 1_565
Fe1 S1 2.220220 1_555
Fe1 S0 2.276944 1_455
Fe1 Mg0 2.428501 1_455
Fe1 S3 2.689552 1_455
Fe2 S2 2.220881 1_555
Fe2 S0 2.238953 1_556
Fe2 S3 2.490912 1_555
Fe2 Mg0 2.573596 1_555
Fe3 S3 2.215827 1_455
Fe3 S2 2.276393 1_555
Fe3 S1 2.360651 1_555
As0 S2 2.374705 1_555
As0 Fe3 2.419310 1_655
As0 Mg0 2.463817 1_565
As0 Fe0 2.600943 1_555
As0 Fe2 2.654208 1_565
As1 Fe1 2.357077 1_556
As1 Fe2 2.384652 1_555
As1 Fe3 2.437686 1_545
As1 S3 2.445938 1_455
As2 Fe1 2.225542 1_555
As2 Mg0 2.385749 1_555
As2 Fe2 2.575291 1_555
As2 Fe0 2.591300 1_545
As2 S0 2.862212 1_555
As3 Fe3 2.291474 1_654
As3 Mg0 2.363023 1_565
As3 S1 2.427433 1_655
As3 Fe0 2.648452 1_555
As3 Fe1 2.687475 1_665
