# generated using pymatgen
data_Na3CuO3
_symmetry_space_group_name_H-M   'P 1'
_cell_length_a   8.04333329
_cell_length_b   8.04333329
_cell_length_c   16.25436899
_cell_angle_alpha   90.00000000
_cell_angle_beta   90.00000000
_cell_angle_gamma   94.90040163
_symmetry_Int_Tables_number   1
_chemical_formula_structural   Na3CuO3
_chemical_formula_sum   'Na36 Cu12 O36'
_cell_volume   1047.73598079
_cell_formula_units_Z   12
loop_
 _symmetry_equiv_pos_site_id
 _symmetry_equiv_pos_as_xyz
  1  'x, y, z'
loop_
 _atom_site_type_symbol
 _atom_site_label
 _atom_site_symmetry_multiplicity
 _atom_site_fract_x
 _atom_site_fract_y
 _atom_site_fract_z
 _atom_site_occupancy
  Na  Na0  1  0.52411263  0.47588737  0.28013727  1
  Na  Na1  1  0.97588737  0.02411263  0.78013727  1
  Na  Na2  1  0.47588737  0.52411263  0.71986273  1
  Na  Na3  1  0.02411263  0.97588737  0.21986273  1
  Na  Na4  1  0.16684833  0.33315167  0.25000000  1
  Na  Na5  1  0.33315167  0.16684833  0.75000000  1
  Na  Na6  1  0.83315167  0.66684833  0.75000000  1
  Na  Na7  1  0.66684833  0.83315167  0.25000000  1
  Na  Na8  1  0.32881549  0.67118451  0.22065316  1
  Na  Na9  1  0.17118451  0.82881549  0.72065316  1
  Na  Na10  1  0.67118451  0.32881549  0.77934684  1
  Na  Na11  1  0.82881549  0.17118451  0.27934684  1
  Na  Na12  1  0.12640828  0.47856050  0.07106710  1
  Na  Na13  1  0.37359172  0.02143950  0.57106710  1
  Na  Na14  1  0.47856050  0.12640828  0.92893290  1
  Na  Na15  1  0.02143950  0.37359172  0.42893290  1
  Na  Na16  1  0.87359172  0.52143950  0.92893290  1
  Na  Na17  1  0.62640828  0.97856050  0.42893290  1
  Na  Na18  1  0.52143950  0.87359172  0.07106710  1
  Na  Na19  1  0.97856050  0.62640828  0.57106710  1
  Na  Na20  1  0.17885934  0.22972532  0.91339069  1
  Na  Na21  1  0.32114066  0.27027468  0.41339069  1
  Na  Na22  1  0.22972532  0.17885934  0.08660931  1
  Na  Na23  1  0.27027468  0.32114066  0.58660931  1
  Na  Na24  1  0.82114066  0.77027468  0.08660931  1
  Na  Na25  1  0.67885934  0.72972532  0.58660931  1
  Na  Na26  1  0.77027468  0.82114066  0.91339069  1
  Na  Na27  1  0.72972532  0.67885934  0.41339069  1
  Na  Na28  1  0.16118741  0.51563368  0.81414887  1
  Na  Na29  1  0.33881259  0.98436632  0.31414887  1
  Na  Na30  1  0.51563368  0.16118741  0.18585113  1
  Na  Na31  1  0.98436632  0.33881259  0.68585113  1
  Na  Na32  1  0.83881259  0.48436632  0.18585113  1
  Na  Na33  1  0.66118741  0.01563368  0.68585113  1
  Na  Na34  1  0.48436632  0.83881259  0.81414887  1
  Na  Na35  1  0.01563368  0.66118741  0.31414887  1
  Cu  Cu0  1  0.84869227  0.15130773  0.07818930  1
  Cu  Cu1  1  0.65130773  0.34869227  0.57818930  1
  Cu  Cu2  1  0.15130773  0.84869227  0.92181070  1
  Cu  Cu3  1  0.34869227  0.65130773  0.42181070  1
  Cu  Cu4  1  0.82813174  0.17186826  0.90892003  1
  Cu  Cu5  1  0.67186826  0.32813174  0.40892003  1
  Cu  Cu6  1  0.17186826  0.82813174  0.09107997  1
  Cu  Cu7  1  0.32813174  0.67186826  0.59107997  1
  Cu  Cu8  1  0.49881314  0.50118686  0.08402345  1
  Cu  Cu9  1  0.00118686  0.99881314  0.58402345  1
  Cu  Cu10  1  0.50118686  0.49881314  0.91597655  1
  Cu  Cu11  1  0.99881314  0.00118686  0.41597655  1
  O  O0  1  0.98244709  0.25720409  0.15433467  1
  O  O1  1  0.51755291  0.24279591  0.65433467  1
  O  O2  1  0.25720409  0.98244709  0.84566533  1
  O  O3  1  0.24279591  0.51755291  0.34566533  1
  O  O4  1  0.01755291  0.74279591  0.84566533  1
  O  O5  1  0.48244709  0.75720409  0.34566533  1
  O  O6  1  0.74279591  0.01755291  0.15433467  1
  O  O7  1  0.75720409  0.48244709  0.65433467  1
  O  O8  1  0.95189148  0.27574904  0.99358178  1
  O  O9  1  0.54810852  0.22425096  0.49358178  1
  O  O10  1  0.27574904  0.95189148  0.00641822  1
  O  O11  1  0.22425096  0.54810852  0.50641822  1
  O  O12  1  0.04810852  0.72425096  0.00641822  1
  O  O13  1  0.45189148  0.77574904  0.50641822  1
  O  O14  1  0.72425096  0.04810852  0.99358178  1
  O  O15  1  0.77574904  0.45189148  0.49358178  1
  O  O16  1  0.94458220  0.30239181  0.83177044  1
  O  O17  1  0.55541780  0.19760819  0.33177044  1
  O  O18  1  0.30239181  0.94458220  0.16822956  1
  O  O19  1  0.19760819  0.55541780  0.66822956  1
  O  O20  1  0.05541780  0.69760819  0.16822956  1
  O  O21  1  0.44458220  0.80239181  0.66822956  1
  O  O22  1  0.69760819  0.05541780  0.83177044  1
  O  O23  1  0.80239181  0.44458220  0.33177044  1
  O  O24  1  0.38376994  0.38376994  0.00000000  1
  O  O25  1  0.11623006  0.11623006  0.50000000  1
  O  O26  1  0.61623006  0.61623006  0.00000000  1
  O  O27  1  0.88376994  0.88376994  0.50000000  1
  O  O28  1  0.37073538  0.39049998  0.16113238  1
  O  O29  1  0.12926462  0.10950002  0.66113238  1
  O  O30  1  0.39049998  0.37073538  0.83886762  1
  O  O31  1  0.10950002  0.12926462  0.33886762  1
  O  O32  1  0.62926462  0.60950002  0.83886762  1
  O  O33  1  0.87073538  0.89049998  0.33886762  1
  O  O34  1  0.60950002  0.62926462  0.16113238  1
  O  O35  1  0.89049998  0.87073538  0.66113238  1
loop_
_geom_bond_atom_site_label_1
_geom_bond_atom_site_label_2
_geom_bond_distance
_geom_bond_site_symmetry_2
Na0 O28 2.364439 1_555
Na0 O34 2.364439 1_555
Na0 O17 2.423635 1_555
Na0 O23 2.423635 1_555
Na0 O3 2.548777 1_555
Na0 O5 2.548777 1_555
Na1 O35 2.364439 1_545
Na1 O29 2.364439 1_655
Na1 O22 2.423635 1_555
Na1 O16 2.423635 1_555
Na1 O2 2.548777 1_645
Na1 O4 2.548777 1_645
Na2 O30 2.364439 1_555
Na2 O32 2.364439 1_555
Na2 O19 2.423635 1_555
Na2 O21 2.423635 1_555
Na2 O7 2.548777 1_555
Na2 O1 2.548777 1_555
Na3 O33 2.364439 1_455
Na3 O31 2.364439 1_565
Na3 O20 2.423635 1_555
Na3 O18 2.423635 1_555
Na3 O0 2.548777 1_465
Na3 O6 2.548777 1_465
Na4 O3 2.199139 1_555
Na4 O0 2.199139 1_455
Na4 O31 2.204416 1_555
Na4 O28 2.204416 1_555
Na5 O1 2.199139 1_555
Na5 O2 2.199139 1_545
Na5 O30 2.204416 1_555
Na5 O29 2.204416 1_555
Na6 O7 2.199139 1_555
Na6 O4 2.199139 1_655
Na6 O32 2.204416 1_555
Na6 O35 2.204416 1_555
Na7 O5 2.199139 1_555
Na7 O6 2.199139 1_565
Na7 O34 2.204416 1_555
Na7 O33 2.204416 1_555
Na8 O18 2.384710 1_555
Na8 O20 2.384710 1_555
Na8 O3 2.447164 1_555
Na8 O5 2.447164 1_555
Na8 O28 2.505330 1_555
Na8 O34 2.505330 1_555
Na9 O21 2.384710 1_555
Na9 O19 2.384710 1_555
Na9 O4 2.447164 1_555
Na9 O2 2.447164 1_555
Na9 O29 2.505330 1_565
Na9 O35 2.505330 1_455
Na10 O16 2.384710 1_555
Na10 O22 2.384710 1_555
Na10 O1 2.447164 1_555
Na10 O7 2.447164 1_555
Na10 O32 2.505330 1_555
Na10 O30 2.505330 1_555
Na11 O23 2.384710 1_555
Na11 O17 2.384710 1_555
Na11 O6 2.447164 1_555
Na11 O0 2.447164 1_555
Na11 O31 2.505330 1_655
Na11 O33 2.505330 1_545
Na12 O12 2.370391 1_555
Na12 O8 2.413816 1_454
Na12 O0 2.447531 1_455
Na12 O20 2.469079 1_555
Na12 O24 2.543700 1_555
Na12 O28 2.597054 1_555
Na13 O13 2.370391 1_545
Na13 O9 2.413816 1_555
Na13 O1 2.447531 1_555
Na13 O21 2.469079 1_545
Na13 O25 2.543700 1_555
Na13 O29 2.597054 1_555
Na14 O14 2.370391 1_555
Na14 O10 2.413816 1_546
Na14 O2 2.447531 1_545
Na14 O22 2.469079 1_555
Na14 O24 2.543700 1_556
Na14 O30 2.597054 1_555
Na15 O15 2.370391 1_455
Na15 O11 2.413816 1_555
Na15 O3 2.447531 1_555
Na15 O23 2.469079 1_455
Na15 O25 2.543700 1_555
Na15 O31 2.597054 1_555
Na16 O8 2.370391 1_555
Na16 O12 2.413816 1_656
Na16 O4 2.447531 1_655
Na16 O16 2.469079 1_555
Na16 O26 2.543700 1_556
Na16 O32 2.597054 1_555
Na17 O9 2.370391 1_565
Na17 O13 2.413816 1_555
Na17 O5 2.447531 1_555
Na17 O17 2.469079 1_565
Na17 O27 2.543700 1_555
Na17 O33 2.597054 1_555
Na18 O10 2.370391 1_555
Na18 O14 2.413816 1_564
Na18 O6 2.447531 1_565
Na18 O18 2.469079 1_555
Na18 O26 2.543700 1_555
Na18 O34 2.597054 1_555
Na19 O11 2.370391 1_655
Na19 O15 2.413816 1_555
Na19 O7 2.447531 1_555
Na19 O19 2.469079 1_655
Na19 O27 2.543700 1_555
Na19 O35 2.597054 1_555
Na20 O8 2.298745 1_455
Na20 O30 2.306870 1_555
Na20 O2 2.403943 1_545
Na20 O16 2.416760 1_455
Na20 O24 2.425819 1_556
Na21 O9 2.298745 1_555
Na21 O31 2.306870 1_555
Na21 O3 2.403943 1_555
Na21 O17 2.416760 1_555
Na21 O25 2.425819 1_555
Na22 O10 2.298745 1_545
Na22 O28 2.306870 1_555
Na22 O0 2.403943 1_455
Na22 O18 2.416760 1_545
Na22 O24 2.425819 1_555
Na23 O11 2.298745 1_555
Na23 O29 2.306870 1_555
Na23 O1 2.403943 1_555
Na23 O19 2.416760 1_555
Na23 O25 2.425819 1_555
Na24 O12 2.298745 1_655
Na24 O34 2.306870 1_555
Na24 O6 2.403943 1_565
Na24 O20 2.416760 1_655
Na24 O26 2.425819 1_555
Na25 O13 2.298745 1_555
Na25 O35 2.306870 1_555
Na25 O7 2.403943 1_555
Na25 O21 2.416760 1_555
Na25 O27 2.425819 1_555
Na26 O14 2.298745 1_565
Na26 O32 2.306870 1_555
Na26 O4 2.403943 1_655
Na26 O22 2.416760 1_565
Na26 O26 2.425819 1_556
Na27 O15 2.298745 1_555
Na27 O33 2.306870 1_555
Na27 O5 2.403943 1_555
Na27 O23 2.416760 1_555
Na27 O27 2.425819 1_555
Na28 O30 2.299772 1_555
Na28 O4 2.301356 1_555
Na28 O16 2.355567 1_455
Na28 O19 2.407854 1_555
Na29 O31 2.299772 1_565
Na29 O5 2.301356 1_555
Na29 O17 2.355567 1_565
Na29 O18 2.407854 1_555
Na30 O28 2.299772 1_555
Na30 O6 2.301356 1_555
Na30 O18 2.355567 1_545
Na30 O17 2.407854 1_555
Na31 O29 2.299772 1_655
Na31 O7 2.301356 1_555
Na31 O19 2.355567 1_655
Na31 O16 2.407854 1_555
Na32 O34 2.299772 1_555
Na32 O0 2.301356 1_555
Na32 O20 2.355567 1_655
Na32 O23 2.407854 1_555
Na33 O35 2.299772 1_545
Na33 O1 2.301356 1_555
Na33 O21 2.355567 1_545
Na33 O22 2.407854 1_555
Na34 O32 2.299772 1_555
Na34 O2 2.301356 1_555
Na34 O22 2.355567 1_565
Na34 O21 2.407854 1_555
Na35 O33 2.299772 1_455
Na35 O3 2.301356 1_555
Na35 O23 2.355567 1_455
Na35 O20 2.407854 1_555
Cu0 O0 1.805061 1_555
Cu0 O6 1.805061 1_555
Cu0 O14 1.854778 1_554
Cu0 O8 1.854778 1_554
Cu1 O7 1.805061 1_555
Cu1 O1 1.805061 1_555
Cu1 O9 1.854778 1_555
Cu1 O15 1.854778 1_555
Cu2 O2 1.805061 1_555
Cu2 O4 1.805061 1_555
Cu2 O12 1.854778 1_556
Cu2 O10 1.854778 1_556
Cu3 O3 1.805061 1_555
Cu3 O5 1.805061 1_555
Cu3 O13 1.854778 1_555
Cu3 O11 1.854778 1_555
Cu4 O16 1.839578 1_555
Cu4 O22 1.839578 1_555
Cu4 O8 1.854901 1_555
Cu4 O14 1.854901 1_555
Cu5 O17 1.839578 1_555
Cu5 O23 1.839578 1_555
Cu5 O9 1.854901 1_555
Cu5 O15 1.854901 1_555
Cu6 O18 1.839578 1_555
Cu6 O20 1.839578 1_555
Cu6 O12 1.854901 1_555
Cu6 O10 1.854901 1_555
Cu7 O19 1.839578 1_555
Cu7 O21 1.839578 1_555
Cu7 O13 1.854901 1_555
Cu7 O11 1.854901 1_555
Cu8 O28 1.807784 1_555
Cu8 O34 1.807784 1_555
Cu8 O24 1.861219 1_555
Cu8 O26 1.861219 1_555
Cu9 O29 1.807784 1_565
Cu9 O35 1.807784 1_455
Cu9 O25 1.861219 1_565
Cu9 O27 1.861219 1_455
Cu10 O30 1.807784 1_555
Cu10 O32 1.807784 1_555
Cu10 O24 1.861219 1_556
Cu10 O26 1.861219 1_556
Cu11 O33 1.807784 1_545
Cu11 O31 1.807784 1_655
Cu11 O25 1.861219 1_655
Cu11 O27 1.861219 1_545
