# generated using pymatgen
data_MgFe4(NiO4)2
_symmetry_space_group_name_H-M   'P 1'
_cell_length_a   6.27454357
_cell_length_b   5.86423997
_cell_length_c   6.26981704
_cell_angle_alpha   62.11771601
_cell_angle_beta   59.62067349
_cell_angle_gamma   62.14055000
_symmetry_Int_Tables_number   1
_chemical_formula_structural   MgFe4(NiO4)2
_chemical_formula_sum   'Mg1 Fe4 Ni2 O8'
_cell_volume   167.66838896
_cell_formula_units_Z   1
loop_
 _symmetry_equiv_pos_site_id
 _symmetry_equiv_pos_as_xyz
  1  'x, y, z'
loop_
 _atom_site_type_symbol
 _atom_site_label
 _atom_site_symmetry_multiplicity
 _atom_site_fract_x
 _atom_site_fract_y
 _atom_site_fract_z
 _atom_site_occupancy
  Mg  Mg0  1  0.78241000  0.21703700  0.78351600  1
  Fe  Fe0  1  0.07101800  0.92920300  0.07057700  1
  Fe  Fe1  1  0.20513100  0.29439500  0.20607700  1
  Fe  Fe2  1  0.55911200  0.15907400  0.55824000  1
  Fe  Fe3  1  0.55911200  0.72357400  0.55824000  1
  Ni  Ni0  1  0.11988000  0.62125800  0.63760400  1
  Ni  Ni1  1  0.63757200  0.62186000  0.11870800  1
  O  O0  1  0.35250900  0.41151300  0.35288600  1
  O  O1  1  0.41061400  0.38478900  0.81980800  1
  O  O2  1  0.35250900  0.88309200  0.35288600  1
  O  O3  1  0.81923100  0.38496000  0.41084900  1
  O  O4  1  0.43596200  0.84945300  0.86513200  1
  O  O5  1  0.92497900  0.32228000  0.92523100  1
  O  O6  1  0.86581600  0.84916800  0.43585000  1
  O  O7  1  0.92497900  0.82751100  0.92523100  1
loop_
_geom_bond_atom_site_label_1
_geom_bond_atom_site_label_2
_geom_bond_distance
_geom_bond_site_symmetry_2
Mg0 O7 1.950235 1_545
Mg0 O5 1.950239 1_555
Mg0 O1 1.997329 1_555
Mg0 O3 1.999285 1_555
Fe0 O6 1.923539 1_455
Fe0 O4 1.923697 1_554
Fe0 O5 1.972143 1_464
Fe0 O7 1.972143 1_454
Fe1 O3 2.021117 1_455
Fe1 O1 2.021975 1_554
Fe1 O2 2.054226 1_545
Fe1 O0 2.054235 1_555
Fe2 O0 1.908299 1_555
Fe2 O4 2.033702 1_545
Fe2 O6 2.033992 1_545
Fe2 O3 2.150039 1_555
Fe2 O1 2.154501 1_555
Fe3 O2 1.908300 1_555
Fe3 O4 2.033702 1_555
Fe3 O6 2.033999 1_555
Fe3 O3 2.150039 1_555
Fe3 O1 2.154501 1_555
Ni0 O6 2.096360 1_455
Ni0 O2 2.137843 1_555
Ni0 O0 2.137843 1_555
Ni0 O5 2.153523 1_455
Ni0 O7 2.153527 1_455
Ni0 O1 2.194922 1_555
Ni1 O4 2.093051 1_554
Ni1 O2 2.142064 1_555
Ni1 O0 2.142064 1_555
Ni1 O5 2.151663 1_554
Ni1 O7 2.151667 1_554
Ni1 O3 2.199073 1_555
