# generated using pymatgen
data_Na4Nb2Si5Ge2SO24
_symmetry_space_group_name_H-M   'P 1'
_cell_length_a   8.82233436
_cell_length_b   8.80024200
_cell_length_c   22.34118105
_cell_angle_alpha   90.63885015
_cell_angle_beta   89.48972823
_cell_angle_gamma   119.91812708
_symmetry_Int_Tables_number   1
_chemical_formula_structural   Na4Nb2Si5Ge2SO24
_chemical_formula_sum   'Na12 Nb6 Si15 Ge6 S3 O72'
_cell_volume   1503.28859194
_cell_formula_units_Z   3
loop_
 _symmetry_equiv_pos_site_id
 _symmetry_equiv_pos_as_xyz
  1  'x, y, z'
loop_
 _atom_site_type_symbol
 _atom_site_label
 _atom_site_symmetry_multiplicity
 _atom_site_fract_x
 _atom_site_fract_y
 _atom_site_fract_z
 _atom_site_occupancy
  Na  Na0  1  0.63544976  0.99947225  0.25028437  1
  Na  Na1  1  0.99703689  0.36390777  0.75021548  1
  Na  Na2  1  0.30090625  0.33561248  0.58080612  1
  Na  Na3  1  0.66774206  0.96974672  0.58068585  1
  Na  Na4  1  0.02966702  0.33125346  0.08424417  1
  Na  Na5  1  0.96547257  0.66705066  0.91560745  1
  Na  Na6  1  0.99938768  0.99724264  0.49381056  1
  Na  Na7  1  0.99234057  0.99735437  0.00118220  1
  Na  Na8  1  0.65580674  0.32847545  0.83532834  1
  Na  Na9  1  0.66230297  0.33753179  0.33368441  1
  Na  Na10  1  0.33239682  0.67223484  0.16497533  1
  Na  Na11  1  0.33167388  0.67399382  0.66488714  1
  Nb  Nb0  1  0.99902874  0.99446886  0.64588695  1
  Nb  Nb1  1  0.66398348  0.33477338  0.68805198  1
  Nb  Nb2  1  0.67421940  0.33124921  0.18981995  1
  Nb  Nb3  1  0.65744223  0.32474579  0.47631276  1
  Nb  Nb4  1  0.34003165  0.66589830  0.30884800  1
  Nb  Nb5  1  0.33781626  0.65751693  0.81270350  1
  Si  Si0  1  0.27020723  -0.00006806  0.25008524  1
  Si  Si1  1  0.72851546  0.72015075  0.25235730  1
  Si  Si2  1  0.00772471  0.27965450  0.24766042  1
  Si  Si3  1  0.28289499  0.27382940  0.75376517  1
  Si  Si4  1  0.00184050  0.71903153  0.75479688  1
  Si  Si5  1  0.70839230  0.99734079  0.75143687  1
  Si  Si6  1  0.96441233  0.34616392  0.58085894  1
  Si  Si7  1  0.37304301  0.03183882  0.58131297  1
  Si  Si8  1  0.66648072  0.62318762  0.58089731  1
  Si  Si9  1  0.96562376  0.63615746  0.08206311  1
  Si  Si10  1  0.66268180  0.03611729  0.07964420  1
  Si  Si11  1  0.62525534  0.66375217  0.92126336  1
  Si  Si12  1  0.04559614  0.36954322  0.91962396  1
  Si  Si13  1  0.62887706  0.94742879  0.41682785  1
  Si  Si14  1  0.32214222  0.37124117  0.41681986  1
  Ge  Ge0  1  0.99863510  0.01506918  0.35121510  1
  Ge  Ge1  1  0.98313480  0.00438435  0.85231039  1
  Ge  Ge2  1  0.98341495  0.98099975  0.14965322  1
  Ge  Ge3  1  0.69516582  0.35029469  0.98239469  1
  Ge  Ge4  1  0.33939289  0.66980873  0.01950794  1
  Ge  Ge5  1  0.34120638  0.66245960  0.51945965  1
  S  S0  1  0.38058903  0.33322406  0.08116406  1
  S  S1  1  0.33857156  0.96209558  0.91848690  1
  S  S2  1  0.04842587  0.67123547  0.41783933  1
  O  O0  1  0.19080499  0.03498336  0.31085382  1
  O  O1  1  0.84275809  0.80611230  0.31147205  1
  O  O2  1  0.95273037  0.15913481  0.30688514  1
  O  O3  1  0.18884005  0.15504004  0.81129331  1
  O  O4  1  0.96895131  0.80652343  0.81425713  1
  O  O5  1  0.83771553  0.04512468  0.80821256  1
  O  O6  1  0.79316190  0.96580096  0.69033388  1
  O  O7  1  0.16695171  0.20472748  0.69197609  1
  O  O8  1  0.03246263  0.83556650  0.69419125  1
  O  O9  1  0.79163449  0.84046201  0.19225885  1
  O  O10  1  0.03509161  0.19695269  0.18561539  1
  O  O11  1  0.15692857  0.96588462  0.18941109  1
  O  O12  1  0.87479061  0.37023441  0.64277057  1
  O  O13  1  0.50168200  0.12573860  0.63939220  1
  O  O14  1  0.62744452  0.49768447  0.63977827  1
  O  O15  1  0.86696681  0.49779651  0.13775309  1
  O  O16  1  0.63153331  0.12698940  0.14059429  1
  O  O17  1  0.48721985  0.36290549  0.13564257  1
  O  O18  1  0.46313727  0.30555563  0.02686787  1
  O  O19  1  0.84316345  0.54979330  0.02217730  1
  O  O20  1  0.70296940  0.17608834  0.02422436  1
  O  O21  1  0.46314040  0.16759436  0.52566481  1
  O  O22  1  0.70118185  0.53185714  0.52401906  1
  O  O23  1  0.82865948  0.29745158  0.52589607  1
  O  O24  1  0.52899754  0.70250031  0.97662879  1
  O  O25  1  0.16853692  0.46930679  0.97800737  1
  O  O26  1  0.29881191  0.84329170  0.97167062  1
  O  O27  1  0.53379809  0.83364678  0.47758414  1
  O  O28  1  0.29622101  0.46123740  0.47829583  1
  O  O29  1  0.15604901  0.69644611  0.47240442  1
  O  O30  1  0.12695415  0.63962314  0.36327117  1
  O  O31  1  0.50295386  0.86664336  0.35797884  1
  O  O32  1  0.35624765  0.50069180  0.35998535  1
  O  O33  1  0.12790180  0.49886349  0.86046719  1
  O  O34  1  0.36560126  0.87925414  0.86377989  1
  O  O35  1  0.50183080  0.63533516  0.86151480  1
  O  O36  1  0.02845994  0.82516235  0.41328944  1
  O  O37  1  0.82189643  0.96881134  0.40967113  1
  O  O38  1  0.15304506  0.17654141  0.40961328  1
  O  O39  1  0.02780062  0.17711658  0.91047130  1
  O  O40  1  0.17540483  0.97220814  0.91293657  1
  O  O41  1  0.82276044  0.83464009  0.91052891  1
  O  O42  1  0.98052505  0.16849289  0.58896848  1
  O  O43  1  0.18820936  0.02787456  0.58830530  1
  O  O44  1  0.83407088  0.81877823  0.58750748  1
  O  O45  1  0.98164719  0.82756397  0.09051408  1
  O  O46  1  0.84679529  0.03273372  0.08880200  1
  O  O47  1  0.20319854  0.17963920  0.08566264  1
  O  O48  1  0.69753668  0.17558002  0.74447575  1
  O  O49  1  0.47866622  0.30536068  0.74596411  1
  O  O50  1  0.83214916  0.52231660  0.74582196  1
  O  O51  1  0.69237527  0.52116554  0.24259659  1
  O  O52  1  0.82927908  0.29975414  0.24254480  1
  O  O53  1  0.47420230  0.16801749  0.24208095  1
  O  O54  1  0.64351512  0.48542120  0.92717128  1
  O  O55  1  0.85228243  0.35942595  0.92423394  1
  O  O56  1  0.49381467  0.13473521  0.92467424  1
  O  O57  1  0.64733018  0.14361315  0.42302649  1
  O  O58  1  0.50316319  0.36053787  0.42228645  1
  O  O59  1  0.87281535  0.50880608  0.42243697  1
  O  O60  1  0.36009036  0.49396347  0.07752644  1
  O  O61  1  0.15299850  0.63671344  0.07331554  1
  O  O62  1  0.48573056  0.84386808  0.07319497  1
  O  O63  1  0.36064587  0.84387938  0.57300956  1
  O  O64  1  0.49134474  0.64178090  0.57690349  1
  O  O65  1  0.15957662  0.51406887  0.57446001  1
  O  O66  1  0.30788382  0.83356861  0.25686044  1
  O  O67  1  0.52989819  0.69915237  0.25658958  1
  O  O68  1  0.16978104  0.47824553  0.25511198  1
  O  O69  1  0.29966198  0.47011401  0.75768538  1
  O  O70  1  0.16981923  0.68885341  0.75877134  1
  O  O71  1  0.51560668  0.82784973  0.75774438  1
loop_
_geom_bond_atom_site_label_1
_geom_bond_atom_site_label_2
_geom_bond_distance
_geom_bond_site_symmetry_2
Na0 O67 2.328696 1_555
Na0 O52 2.331191 1_565
Na0 O66 2.508606 1_555
Na0 O53 2.524445 1_565
Na0 O31 2.677934 1_555
Na0 O16 2.714308 1_565
Na0 O9 2.718166 1_555
Na0 O2 2.740197 1_565
Na1 O48 2.319025 1_555
Na1 O69 2.354747 1_655
Na1 O50 2.469327 1_555
Na1 O70 2.486414 1_655
Na1 O12 2.652808 1_555
Na1 O33 2.725474 1_655
Na1 O5 2.764029 1_555
Na1 O7 2.814555 1_655
Na2 O64 2.361557 1_555
Na2 O43 2.381596 1_555
Na2 O65 2.450000 1_555
Na2 O42 2.456729 1_455
Na2 O28 2.563719 1_555
Na2 O7 2.746926 1_555
Na2 O21 2.791325 1_555
Na2 O14 2.827770 1_555
Na3 O63 2.367939 1_555
Na3 O44 2.427920 1_555
Na3 O42 2.428058 1_565
Na3 O64 2.505092 1_555
Na3 O27 2.590709 1_555
Na3 O6 2.704608 1_555
Na3 O13 2.771793 1_565
Na3 O23 2.791832 1_565
Na4 O46 2.299963 1_455
Na4 O61 2.358345 1_555
Na4 O47 2.482828 1_555
Na4 O60 2.530592 1_555
Na4 O10 2.578037 1_555
Na4 O25 2.671710 1_554
Na4 O15 2.768828 1_455
Na4 O20 2.841124 1_455
Na5 O41 2.373136 1_555
Na5 O55 2.382151 1_555
Na5 O40 2.384471 1_655
Na5 O54 2.481299 1_555
Na5 O4 2.580230 1_555
Na5 O19 2.606941 1_556
Na5 O33 2.793807 1_655
Na5 O26 2.845213 1_655
Na6 O37 2.387316 1_555
Na6 O38 2.398513 1_665
Na6 O36 2.431808 1_655
Na6 O44 2.590299 1_555
Na6 O43 2.628034 1_665
Na6 O42 2.644035 1_565
Na7 O46 2.432709 1_565
Na7 O45 2.479353 1_555
Na7 O41 2.498572 1_554
Na7 O39 2.504801 1_664
Na7 O47 2.571846 1_665
Na7 O40 2.614250 1_654
Na8 O49 2.489805 1_555
Na8 O54 2.492352 1_555
Na8 O48 2.546719 1_555
Na8 O56 2.555037 1_555
Na8 O55 2.569493 1_555
Na8 O50 2.588889 1_555
Na9 O58 2.481046 1_555
Na9 O51 2.541498 1_555
Na9 O53 2.586604 1_555
Na9 O57 2.600027 1_555
Na9 O52 2.616598 1_555
Na9 O59 2.619023 1_555
Na10 O62 2.509437 1_555
Na10 O61 2.519138 1_555
Na10 O66 2.551469 1_555
Na10 O68 2.570976 1_555
Na10 O60 2.577482 1_555
Na10 O67 2.631047 1_555
Na11 O63 2.488322 1_555
Na11 O65 2.495406 1_555
Na11 O64 2.503023 1_555
Na11 O71 2.564335 1_555
Na11 O70 2.565608 1_555
Na11 O69 2.676601 1_555
Nb0 O8 1.912554 1_655
Nb0 O6 1.965899 1_555
Nb0 O7 1.982167 1_665
Nb0 O44 1.988431 1_555
Nb0 O43 2.001928 1_665
Nb0 O42 2.070155 1_565
Nb1 O14 1.955534 1_555
Nb1 O49 1.990386 1_555
Nb1 O13 1.992912 1_555
Nb1 O12 1.993560 1_555
Nb1 O48 2.024601 1_555
Nb1 O50 2.033437 1_555
Nb2 O52 1.936477 1_555
Nb2 O16 1.967349 1_555
Nb2 O51 1.975239 1_555
Nb2 O15 1.977255 1_555
Nb2 O53 2.003176 1_555
Nb2 O17 2.183103 1_555
Nb3 O21 1.924134 1_555
Nb3 O57 1.945197 1_555
Nb3 O22 1.967046 1_555
Nb3 O58 1.968269 1_555
Nb3 O23 1.991026 1_555
Nb3 O59 2.148356 1_555
Nb4 O32 1.920112 1_555
Nb4 O67 1.933489 1_555
Nb4 O31 1.960512 1_555
Nb4 O68 1.984447 1_555
Nb4 O66 2.016976 1_555
Nb4 O30 2.144199 1_555
Nb5 O35 1.906750 1_555
Nb5 O69 1.937112 1_555
Nb5 O71 1.968805 1_555
Nb5 O33 1.984056 1_555
Nb5 O70 2.042420 1_555
Nb5 O34 2.155952 1_555
Ge0 O2 1.816464 1_555
Ge0 O0 1.843383 1_655
Ge0 O1 1.877175 1_545
Ge0 O38 1.906966 1_655
Ge0 O37 1.909178 1_545
Ge0 O36 2.298330 1_645
Ge1 O5 1.798415 1_555
Ge1 O3 1.867713 1_655
Ge1 O4 1.876652 1_545
Ge1 O39 1.876671 1_655
Ge1 O41 1.956344 1_545
Ge1 O40 2.306659 1_645
Ge2 O9 1.791236 1_555
Ge2 O11 1.838468 1_655
Ge2 O45 1.873159 1_555
Ge2 O10 1.890297 1_665
Ge2 O46 2.024502 1_565
Ge2 O47 2.341912 1_665
Ge3 O19 1.810045 1_556
Ge3 O20 1.834862 1_556
Ge3 O55 1.864230 1_555
Ge3 O54 1.930576 1_555
Ge3 O18 2.121582 1_556
Ge3 O56 2.245400 1_555
Ge4 O24 1.815528 1_554
Ge4 O62 1.861629 1_555
Ge4 O25 1.892199 1_554
Ge4 O61 1.931046 1_555
Ge4 O26 2.046853 1_554
Ge4 O60 2.106892 1_555
Ge5 O28 1.846117 1_555
Ge5 O27 1.865876 1_555
Ge5 O65 1.922559 1_555
Ge5 O63 1.922908 1_555
Ge5 O64 1.926280 1_555
Ge5 O29 2.094748 1_555
O0 Si0 1.618124 1_555
O1 Si1 1.604120 1_555
O2 Si2 1.617886 1_655
O3 Si3 1.605891 1_555
O4 Si4 1.623230 1_655
O5 Si5 1.619501 1_545
O6 Si5 1.637163 1_555
O7 Si3 1.645497 1_555
O8 Si4 1.645025 1_555
O9 Si1 1.632208 1_555
O10 Si2 1.629799 1_555
O11 Si0 1.625540 1_565
O12 Si6 1.650538 1_555
O13 Si7 1.649641 1_555
O14 Si8 1.647362 1_555
O15 Si9 1.656942 1_555
O16 Si10 1.660577 1_555
O17 S0 1.484171 1_555
O18 S0 1.488521 1_555
O19 Si9 1.648904 1_555
O20 Si10 1.663146 1_555
O21 Si7 1.634930 1_555
O22 Si8 1.603184 1_555
O23 Si6 1.621200 1_555
O24 Si11 1.621168 1_555
O25 Si12 1.642655 1_555
O26 S1 1.510748 1_555
O27 Si13 1.649507 1_555
O28 Si14 1.648246 1_555
O29 S2 1.497091 1_555
O30 S2 1.487705 1_555
O31 Si13 1.638754 1_555
O32 Si14 1.638321 1_555
O33 Si12 1.661702 1_555
O34 S1 1.493492 1_555
O35 Si11 1.666395 1_555
O36 S2 1.455228 1_555
O37 Si13 1.623872 1_555
O38 Si14 1.623448 1_555
O39 Si12 1.631477 1_555
O40 S1 1.492214 1_555
O41 Si11 1.655878 1_555
O42 Si6 1.651121 1_555
O43 Si7 1.619730 1_555
O44 Si8 1.621777 1_555
O45 Si9 1.627504 1_555
O46 Si10 1.653914 1_555
O47 S0 1.475242 1_555
O48 Si5 1.627654 1_545
O49 Si3 1.614960 1_555
O50 Si4 1.640322 1_655
O51 Si1 1.628313 1_555
O52 Si2 1.674582 1_655
O53 Si0 1.674393 1_555
O54 Si11 1.662358 1_555
O55 Si12 1.665171 1_655
O56 S1 1.458133 1_545
O57 Si13 1.655620 1_545
O58 Si14 1.651687 1_555
O59 S2 1.498477 1_655
O60 S0 1.516000 1_555
O61 Si9 1.660451 1_455
O62 Si10 1.638330 1_565
O63 Si7 1.611037 1_565
O64 Si8 1.636175 1_555
O65 Si6 1.621987 1_455
O66 Si0 1.663754 1_565
O67 Si1 1.669721 1_555
O68 Si2 1.622151 1_555
O69 Si3 1.659901 1_555
O70 Si4 1.634044 1_555
O71 Si5 1.614690 1_555
