# generated using pymatgen
data_SmCoGe
_symmetry_space_group_name_H-M   'P 1'
_cell_length_a   4.39762645
_cell_length_b   6.93192109
_cell_length_c   7.25942386
_cell_angle_alpha   89.99766671
_cell_angle_beta   90.00000000
_cell_angle_gamma   90.00000000
_symmetry_Int_Tables_number   1
_chemical_formula_structural   SmCoGe
_chemical_formula_sum   'Sm4 Co4 Ge4'
_cell_volume   221.29627348
_cell_formula_units_Z   4
loop_
 _symmetry_equiv_pos_site_id
 _symmetry_equiv_pos_as_xyz
  1  'x, y, z'
loop_
 _atom_site_type_symbol
 _atom_site_label
 _atom_site_symmetry_multiplicity
 _atom_site_fract_x
 _atom_site_fract_y
 _atom_site_fract_z
 _atom_site_occupancy
  Sm  Sm0  1  0.25000000  0.69206130  0.97220113  1
  Sm  Sm1  1  0.75000000  0.30793870  0.02779887  1
  Sm  Sm2  1  0.75000000  0.19199205  0.52782474  1
  Sm  Sm3  1  0.25000000  0.80800795  0.47217526  1
  Co  Co0  1  0.75000000  0.57083321  0.35135060  1
  Co  Co1  1  0.75000000  0.92922046  0.85135378  1
  Co  Co2  1  0.25000000  0.07077954  0.14864622  1
  Co  Co3  1  0.25000000  0.42916679  0.64864940  1
  Ge  Ge0  1  0.75000000  0.60726023  0.69396146  1
  Ge  Ge1  1  0.75000000  0.89288474  0.19391640  1
  Ge  Ge2  1  0.25000000  0.10711526  0.80608360  1
  Ge  Ge3  1  0.25000000  0.39273977  0.30603854  1
loop_
_geom_bond_atom_site_label_1
_geom_bond_atom_site_label_2
_geom_bond_distance
_geom_bond_site_symmetry_2
Co0 Ge0 2.499953 1_555
Co0 Ge1 2.507935 1_555
Co0 Ge3 2.543045 1_655
Co0 Ge3 2.543045 1_555
Co0 Sm3 2.882225 1_555
Co0 Sm3 2.882225 1_655
Co0 Sm2 2.921871 1_555
Co0 Sm1 2.972914 1_555
Co1 Ge1 2.499520 1_556
Co1 Ge0 2.507316 1_555
Co1 Ge2 2.542324 1_565
Co1 Ge2 2.542324 1_665
Co1 Sm0 2.882173 1_555
Co1 Sm0 2.882173 1_655
Co1 Sm1 2.921107 1_566
Co1 Sm2 2.972144 1_565
Co2 Ge2 2.499520 1_554
Co2 Ge3 2.507316 1_555
Co2 Ge1 2.542324 1_545
Co2 Ge1 2.542324 1_445
Co2 Sm1 2.882173 1_455
Co2 Sm1 2.882173 1_555
Co2 Sm0 2.921107 1_544
Co2 Sm3 2.972144 1_545
Co3 Ge3 2.499953 1_555
Co3 Ge2 2.507935 1_555
Co3 Ge0 2.543045 1_555
Co3 Ge0 2.543045 1_455
Co3 Sm2 2.882225 1_555
Co3 Sm2 2.882225 1_455
Co3 Sm3 2.921871 1_555
Co3 Sm0 2.972914 1_555
Ge0 Sm0 3.043067 1_655
Ge0 Sm0 3.043067 1_555
Ge0 Sm3 3.059949 1_555
Ge0 Sm3 3.059949 1_655
Ge0 Sm2 3.121094 1_555
Ge0 Sm1 3.190279 1_556
Ge1 Sm3 3.043229 1_555
Ge1 Sm3 3.043229 1_655
Ge1 Sm0 3.059976 1_654
Ge1 Sm0 3.059976 1_554
Ge1 Sm1 3.119580 1_565
Ge1 Sm2 3.189834 1_565
Ge2 Sm2 3.043229 1_555
Ge2 Sm2 3.043229 1_455
Ge2 Sm1 3.059976 1_456
Ge2 Sm1 3.059976 1_556
Ge2 Sm0 3.119580 1_545
Ge2 Sm3 3.189834 1_545
Ge3 Sm1 3.043067 1_555
Ge3 Sm1 3.043067 1_455
Ge3 Sm2 3.059949 1_555
Ge3 Sm2 3.059949 1_455
Ge3 Sm3 3.121094 1_555
Ge3 Sm0 3.190279 1_554
