# generated using pymatgen
data_IO3
_symmetry_space_group_name_H-M   'P 1'
_cell_length_a   5.09382412
_cell_length_b   6.73130558
_cell_length_c   6.77148179
_cell_angle_alpha   97.63443502
_cell_angle_beta   95.86153439
_cell_angle_gamma   105.23684347
_symmetry_Int_Tables_number   1
_chemical_formula_structural   IO3
_chemical_formula_sum   'I4 O12'
_cell_volume   219.74208981
_cell_formula_units_Z   4
loop_
 _symmetry_equiv_pos_site_id
 _symmetry_equiv_pos_as_xyz
  1  'x, y, z'
loop_
 _atom_site_type_symbol
 _atom_site_label
 _atom_site_symmetry_multiplicity
 _atom_site_fract_x
 _atom_site_fract_y
 _atom_site_fract_z
 _atom_site_occupancy
  I  I0  1  0.00200830  0.17073818  0.67086135  1
  I  I1  1  0.99799170  0.82926182  0.32913865  1
  I  I2  1  0.79855294  0.65808570  0.77919342  1
  I  I3  1  0.20144706  0.34191430  0.22080658  1
  O  O0  1  0.21849616  0.98367880  0.58310031  1
  O  O1  1  0.78150384  0.01632120  0.41689969  1
  O  O2  1  0.79951450  0.95519645  0.80067931  1
  O  O3  1  0.20048550  0.04480355  0.19932069  1
  O  O4  1  0.85078036  0.30283196  0.14944471  1
  O  O5  1  0.14921964  0.69716804  0.85055529  1
  O  O6  1  0.79195339  0.63501080  0.48191796  1
  O  O7  1  0.20804661  0.36498920  0.51808204  1
  O  O8  1  0.25763097  0.29083991  0.89129909  1
  O  O9  1  0.74236903  0.70916009  0.10870091  1
  O  O10  1  0.25154871  0.68700051  0.29742640  1
  O  O11  1  0.74845129  0.31299949  0.70257360  1
loop_
_geom_bond_atom_site_label_1
_geom_bond_atom_site_label_2
_geom_bond_distance
_geom_bond_site_symmetry_2
I0 O11 1.812013 1_455
I0 O8 1.818304 1_555
I0 O2 1.918121 1_445
I0 O7 1.934264 1_555
I0 O1 1.953520 1_455
I0 O0 1.954369 1_545
I1 O10 1.812013 1_655
I1 O9 1.818304 1_555
I1 O3 1.918121 1_665
I1 O6 1.934264 1_555
I1 O0 1.953520 1_655
I1 O1 1.954369 1_565
I2 O5 1.742492 1_655
I2 O2 1.984529 1_555
I2 O6 1.994433 1_555
I2 O11 2.251939 1_555
I2 O9 2.270885 1_556
I3 O4 1.742492 1_455
I3 O3 1.984529 1_555
I3 O7 1.994433 1_555
I3 O10 2.251939 1_555
I3 O8 2.270885 1_554
