# generated using pymatgen
data_BaH8O5
_symmetry_space_group_name_H-M   'P 1'
_cell_length_a   5.92136112
_cell_length_b   7.53847475
_cell_length_c   11.28055002
_cell_angle_alpha   90.00000000
_cell_angle_beta   90.00000000
_cell_angle_gamma   90.00000000
_symmetry_Int_Tables_number   1
_chemical_formula_structural   BaH8O5
_chemical_formula_sum   'Ba4 H32 O20'
_cell_volume   503.54154475
_cell_formula_units_Z   4
loop_
 _symmetry_equiv_pos_site_id
 _symmetry_equiv_pos_as_xyz
  1  'x, y, z'
loop_
 _atom_site_type_symbol
 _atom_site_label
 _atom_site_symmetry_multiplicity
 _atom_site_fract_x
 _atom_site_fract_y
 _atom_site_fract_z
 _atom_site_occupancy
  Ba  Ba0  1  0.07666606  0.46338612  0.75000000  1
  Ba  Ba1  1  0.57666606  0.03661388  0.25000000  1
  Ba  Ba2  1  0.42333394  0.96338612  0.75000000  1
  Ba  Ba3  1  0.92333394  0.53661388  0.25000000  1
  H  H0  1  0.26417036  0.46084267  0.02367416  1
  H  H1  1  0.76417036  0.03915733  0.97632584  1
  H  H2  1  0.23582964  0.96084267  0.47632584  1
  H  H3  1  0.73582964  0.53915733  0.52367416  1
  H  H4  1  0.73582964  0.53915733  0.97632584  1
  H  H5  1  0.23582964  0.96084267  0.02367416  1
  H  H6  1  0.76417036  0.03915733  0.52367416  1
  H  H7  1  0.26417036  0.46084267  0.47632584  1
  H  H8  1  0.48431751  0.67010185  0.08256901  1
  H  H9  1  0.98431751  0.82989815  0.91743099  1
  H  H10  1  0.01568249  0.17010185  0.41743099  1
  H  H11  1  0.51568249  0.32989815  0.58256901  1
  H  H12  1  0.51568249  0.32989815  0.91743099  1
  H  H13  1  0.01568249  0.17010185  0.08256901  1
  H  H14  1  0.98431751  0.82989815  0.58256901  1
  H  H15  1  0.48431751  0.67010185  0.41743099  1
  H  H16  1  0.66979991  0.80515831  0.02372239  1
  H  H17  1  0.16979991  0.69484169  0.97627761  1
  H  H18  1  0.83020009  0.30515831  0.47627761  1
  H  H19  1  0.33020009  0.19484169  0.52372239  1
  H  H20  1  0.33020009  0.19484169  0.97627761  1
  H  H21  1  0.83020009  0.30515831  0.02372239  1
  H  H22  1  0.16979991  0.69484169  0.52372239  1
  H  H23  1  0.66979991  0.80515831  0.47627761  1
  H  H24  1  0.39812252  0.45682583  0.31986346  1
  H  H25  1  0.89812252  0.04317417  0.68013654  1
  H  H26  1  0.10187748  0.95682583  0.18013654  1
  H  H27  1  0.60187748  0.54317417  0.81986346  1
  H  H28  1  0.60187748  0.54317417  0.68013654  1
  H  H29  1  0.10187748  0.95682583  0.31986346  1
  H  H30  1  0.89812252  0.04317417  0.81986346  1
  H  H31  1  0.39812252  0.45682583  0.18013654  1
  O  O0  1  0.24986401  0.55979830  0.07839819  1
  O  O1  1  0.74986401  0.94020170  0.92160181  1
  O  O2  1  0.25013599  0.05979830  0.42160181  1
  O  O3  1  0.75013599  0.44020170  0.57839819  1
  O  O4  1  0.75013599  0.44020170  0.92160181  1
  O  O5  1  0.25013599  0.05979830  0.07839819  1
  O  O6  1  0.74986401  0.94020170  0.57839819  1
  O  O7  1  0.24986401  0.55979830  0.42160181  1
  O  O8  1  0.63544563  0.72911002  0.09531808  1
  O  O9  1  0.13544563  0.77088998  0.90468192  1
  O  O10  1  0.86455437  0.22911002  0.40468192  1
  O  O11  1  0.36455437  0.27088998  0.59531808  1
  O  O12  1  0.36455437  0.27088998  0.90468192  1
  O  O13  1  0.86455437  0.22911002  0.09531808  1
  O  O14  1  0.13544563  0.77088998  0.59531808  1
  O  O15  1  0.63544563  0.72911002  0.40468192  1
  O  O16  1  0.52543957  0.60010654  0.75000000  1
  O  O17  1  0.02543957  0.89989346  0.25000000  1
  O  O18  1  0.97456043  0.10010654  0.75000000  1
  O  O19  1  0.47456043  0.39989346  0.25000000  1
loop_
_geom_bond_atom_site_label_1
_geom_bond_atom_site_label_2
_geom_bond_distance
_geom_bond_site_symmetry_2
Ba0 O3 2.741561 1_455
Ba0 O4 2.741561 1_455
Ba0 O18 2.804520 1_455
Ba0 O12 2.838381 1_555
Ba0 O11 2.838381 1_555
Ba0 O16 2.850224 1_555
Ba0 O14 2.922232 1_555
Ba0 O9 2.922232 1_555
Ba1 O5 2.741561 1_555
Ba1 O2 2.741561 1_555
Ba1 O19 2.804520 1_555
Ba1 O13 2.838381 1_555
Ba1 O10 2.838381 1_555
Ba1 O17 2.850224 1_645
Ba1 O15 2.922232 1_545
Ba1 O8 2.922232 1_545
Ba2 O6 2.741561 1_555
Ba2 O1 2.741561 1_555
Ba2 O16 2.804520 1_555
Ba2 O14 2.838381 1_555
Ba2 O9 2.838381 1_555
Ba2 O18 2.850224 1_465
Ba2 O11 2.922232 1_565
Ba2 O12 2.922232 1_565
Ba3 O7 2.741561 1_655
Ba3 O0 2.741561 1_655
Ba3 O17 2.804520 1_655
Ba3 O15 2.838381 1_555
Ba3 O8 2.838381 1_555
Ba3 O19 2.850224 1_555
Ba3 O13 2.922232 1_555
Ba3 O10 2.922232 1_555
H0 O0 0.971975 1_555
H1 O1 0.971975 1_545
H2 O2 0.971975 1_565
H3 O3 0.971975 1_555
H4 O4 0.971975 1_555
H5 O5 0.971975 1_565
H6 O6 0.971975 1_545
H7 O7 0.971975 1_555
H8 O8 1.009642 1_555
H8 O0 1.618942 1_555
H9 O9 1.009642 1_655
H9 O1 1.618942 1_555
H10 O10 1.009642 1_455
H10 O2 1.618942 1_555
H11 O11 1.009642 1_555
H11 O3 1.618942 1_555
H12 O12 1.009642 1_555
H12 O4 1.618942 1_555
H13 O13 1.009642 1_455
H13 O5 1.618942 1_555
H14 O14 1.009642 1_655
H14 O6 1.618942 1_555
H15 O15 1.009642 1_555
H15 O7 1.618942 1_555
H16 O8 1.011099 1_555
H16 O1 1.608781 1_554
H17 O9 1.011099 1_555
H17 O0 1.608781 1_556
H18 O10 1.011099 1_555
H18 O3 1.608781 1_555
H19 O11 1.011099 1_555
H19 O2 1.608781 1_555
H20 O12 1.011099 1_555
H20 O5 1.608781 1_556
H21 O13 1.011099 1_555
H21 O4 1.608781 1_554
H22 O14 1.011099 1_555
H22 O7 1.608781 1_555
H23 O15 1.011099 1_555
H23 O6 1.608781 1_555
H24 O19 1.005067 1_555
H25 O18 1.005067 1_555
H26 O17 1.005067 1_555
H27 O16 1.005067 1_555
H28 O16 1.005067 1_555
H29 O17 1.005067 1_555
H30 O18 1.005067 1_555
H31 O19 1.005067 1_555
