# generated using pymatgen
data_Ho4MgTi2O10
_symmetry_space_group_name_H-M   'P 1'
_cell_length_a   6.30248687
_cell_length_b   6.30630255
_cell_length_c   7.98866465
_cell_angle_alpha   69.29891601
_cell_angle_beta   109.08045841
_cell_angle_gamma   128.37881867
_symmetry_Int_Tables_number   1
_chemical_formula_structural   Ho4MgTi2O10
_chemical_formula_sum   'Ho4 Mg1 Ti2 O10'
_cell_volume   230.32344066
_cell_formula_units_Z   1
loop_
 _symmetry_equiv_pos_site_id
 _symmetry_equiv_pos_as_xyz
  1  'x, y, z'
loop_
 _atom_site_type_symbol
 _atom_site_label
 _atom_site_symmetry_multiplicity
 _atom_site_fract_x
 _atom_site_fract_y
 _atom_site_fract_z
 _atom_site_occupancy
  Ho  Ho0  1  0.38058100  0.63116300  0.78539600  1
  Ho  Ho1  1  0.38219900  0.61026300  0.26736900  1
  Ho  Ho2  1  0.64910900  0.37049900  0.71455200  1
  Ho  Ho3  1  0.63754600  0.35683600  0.19579700  1
  Mg  Mg0  1  0.13765900  0.81905400  0.39352800  1
  Ti  Ti0  1  0.99714100  0.04771200  0.54930600  1
  Ti  Ti1  1  0.99885600  0.99150800  0.98707500  1
  O  O0  1  0.05693000  0.70205200  0.64309100  1
  O  O1  1  0.29987000  0.93162700  0.17000900  1
  O  O2  1  0.60018300  0.76102900  0.54233100  1
  O  O3  1  0.21458200  0.19549800  0.76672500  1
  O  O4  1  0.75547700  0.59090900  0.93035800  1
  O  O5  1  0.26048200  0.38630700  0.05555400  1
  O  O6  1  0.80462900  0.77800900  0.23318400  1
  O  O7  1  0.36472100  0.21949900  0.44825900  1
  O  O8  1  0.70539000  0.03913800  0.85699700  1
  O  O9  1  0.99422700  0.38139700  0.38904000  1
loop_
_geom_bond_atom_site_label_1
_geom_bond_atom_site_label_2
_geom_bond_distance
_geom_bond_site_symmetry_2
Ho0 O8 2.207300 1_565
Ho0 O5 2.208116 1_556
Ho0 O0 2.215844 1_555
Ho0 O3 2.298635 1_555
Ho0 O2 2.362630 1_555
Ho0 O4 2.395051 1_555
Ho1 O1 2.215595 1_555
Ho1 O5 2.223069 1_555
Ho1 O6 2.248498 1_555
Ho1 O9 2.277430 1_455
Ho1 O7 2.328607 1_555
Ho1 O2 2.344772 1_555
Ho2 O0 2.178602 1_655
Ho2 O8 2.182377 1_555
Ho2 O4 2.266079 1_555
Ho2 O7 2.337696 1_555
Ho2 O3 2.357916 1_555
Ho2 O2 2.514644 1_555
Ho3 O4 2.164036 1_554
Ho3 O1 2.186282 1_545
Ho3 O9 2.220000 1_555
Ho3 O6 2.266033 1_555
Ho3 O5 2.365953 1_555
Ho3 O7 2.637706 1_555
Mg0 O6 1.978706 1_455
Mg0 O0 1.983700 1_555
Mg0 O1 2.033142 1_555
Mg0 O7 2.121435 1_565
Mg0 O9 2.320940 1_455
O0 Ti0 2.266220 1_465
O1 Ti1 2.136403 1_454
O2 Ti0 1.973441 1_565
O3 Ti0 1.940548 1_455
O3 Ti1 2.096201 1_445
O4 Ti1 2.117412 1_555
O5 Ti1 2.119532 1_444
O6 Ti1 2.198226 1_554
O7 Ti0 2.163376 1_455
O8 Ti1 1.950268 1_545
O9 Ti0 2.048306 1_555
