# generated using pymatgen
data_Na14Sc3Ta5(SiO4)12
_symmetry_space_group_name_H-M   'P 1'
_cell_length_a   18.24434469
_cell_length_b   9.12054938
_cell_length_c   22.58358380
_cell_angle_alpha   90.02895396
_cell_angle_beta   89.91768202
_cell_angle_gamma   120.02283284
_symmetry_Int_Tables_number   1
_chemical_formula_structural   Na14Sc3Ta5(SiO4)12
_chemical_formula_sum   'Na42 Sc9 Ta15 Si36 O144'
_cell_volume   3253.66122429
_cell_formula_units_Z   3
loop_
 _symmetry_equiv_pos_site_id
 _symmetry_equiv_pos_as_xyz
  1  'x, y, z'
loop_
 _atom_site_type_symbol
 _atom_site_label
 _atom_site_symmetry_multiplicity
 _atom_site_fract_x
 _atom_site_fract_y
 _atom_site_fract_z
 _atom_site_occupancy
  Na  Na0  1  0.31965982  0.01098545  0.24809915  1
  Na  Na1  1  0.81667988  0.00929709  0.24663694  1
  Na  Na2  1  0.18833587  0.36738307  0.24644991  1
  Na  Na3  1  0.68574065  0.36041529  0.24818852  1
  Na  Na4  1  0.99544864  0.62357822  0.24710569  1
  Na  Na5  1  0.49401435  0.62805027  0.24775342  1
  Na  Na6  1  0.31698508  0.62503162  0.74763016  1
  Na  Na7  1  0.81685844  0.62484146  0.74782993  1
  Na  Na8  1  0.99530077  0.36628933  0.74788471  1
  Na  Na9  1  0.49517562  0.36604428  0.74776024  1
  Na  Na10  1  0.18808396  0.00913271  0.74759953  1
  Na  Na11  1  0.68777613  0.00894488  0.74764202  1
  Na  Na12  1  0.15326412  0.34566862  0.58055776  1
  Na  Na13  1  0.65266540  0.34427687  0.58077877  1
  Na  Na14  1  0.01974379  0.69437347  0.58050971  1
  Na  Na15  1  0.51906212  0.69391104  0.58073678  1
  Na  Na16  1  0.32741920  0.96013015  0.58046197  1
  Na  Na17  1  0.82780960  0.96140171  0.58126183  1
  Na  Na18  1  0.15385617  0.96188680  0.08065131  1
  Na  Na19  1  0.65285089  0.96124184  0.08092981  1
  Na  Na20  1  0.32798606  0.69493325  0.08144488  1
  Na  Na21  1  0.82735723  0.69358069  0.08102097  1
  Na  Na22  1  0.01922831  0.34494068  0.08042910  1
  Na  Na23  1  0.51901813  0.34402064  0.08089316  1
  Na  Na24  1  0.34804778  0.02884662  0.91916205  1
  Na  Na25  1  0.84797307  0.02883698  0.91909122  1
  Na  Na26  1  0.48490649  0.29340781  0.41522355  1
  Na  Na27  1  0.66114162  0.02936217  0.41504159  1
  Na  Na28  1  0.35258596  0.67757887  0.41547113  1
  Na  Na29  1  0.84828790  0.66789267  0.41756286  1
  Na  Na30  1  0.00382482  0.00726527  0.49740407  1
  Na  Na31  1  0.49947489  0.99981582  0.49459847  1
  Na  Na32  1  0.00352040  0.99978706  0.99799706  1
  Na  Na33  1  0.50341741  0.99981895  0.99866051  1
  Na  Na34  1  0.33314615  0.33872590  0.83321774  1
  Na  Na35  1  0.83312019  0.33873625  0.83319718  1
  Na  Na36  1  0.33121356  0.32924243  0.33022996  1
  Na  Na37  1  0.83525972  0.33157798  0.33032872  1
  Na  Na38  1  0.16731710  0.66709824  0.16145551  1
  Na  Na39  1  0.66625911  0.66654902  0.16124146  1
  Na  Na40  1  0.16698428  0.66701997  0.66170615  1
  Na  Na41  1  0.66655797  0.66663818  0.66209639  1
  Sc  Sc0  1  0.49933465  0.99966050  0.35129866  1
  Sc  Sc1  1  0.33339055  0.33334738  0.68524231  1
  Sc  Sc2  1  0.83323311  0.33302752  0.68540040  1
  Sc  Sc3  1  0.33349593  0.33391143  0.18411720  1
  Sc  Sc4  1  0.83305114  0.33287730  0.18443974  1
  Sc  Sc5  1  0.16607967  0.66588951  0.01656778  1
  Sc  Sc6  1  0.66585013  0.66557209  0.01657356  1
  Sc  Sc7  1  0.16506524  0.66506366  0.51654997  1
  Sc  Sc8  1  0.66749273  0.66778317  0.51754895  1
  Ta  Ta0  1  0.00257812  0.00403795  0.35449456  1
  Ta  Ta1  1  0.00178590  0.00006012  0.85520068  1
  Ta  Ta2  1  0.50175790  -0.00000757  0.85518937  1
  Ta  Ta3  1  0.00000611  0.99966244  0.64633946  1
  Ta  Ta4  1  0.49991657  0.99983885  0.64583405  1
  Ta  Ta5  1  0.99993358  0.00028339  0.14573936  1
  Ta  Ta6  1  0.49984953  0.00002833  0.14689036  1
  Ta  Ta7  1  0.33336483  0.33754562  0.97891527  1
  Ta  Ta8  1  0.83327205  0.33762197  0.97885986  1
  Ta  Ta9  1  0.33019704  0.32830230  0.47923890  1
  Ta  Ta10  1  0.83646008  0.33432477  0.47934386  1
  Ta  Ta11  1  0.16720474  0.66808242  0.31503345  1
  Ta  Ta12  1  0.66595182  0.66582873  0.31400866  1
  Ta  Ta13  1  0.16645075  0.66575617  0.81569872  1
  Ta  Ta14  1  0.66630068  0.66556784  0.81569791  1
  Si  Si0  1  0.14453617  0.99749893  0.25020585  1
  Si  Si1  1  0.64605758  -0.00022063  0.25123154  1
  Si  Si2  1  0.35318794  0.70751852  0.25121414  1
  Si  Si3  1  0.85511687  0.71137509  0.25129535  1
  Si  Si4  1  0.00094840  0.29047891  0.25086019  1
  Si  Si5  1  0.50016833  0.29294586  0.25114497  1
  Si  Si6  1  0.14434377  0.29100412  0.75060417  1
  Si  Si7  1  0.64422578  0.29076190  0.75050572  1
  Si  Si8  1  0.00102127  0.71138256  0.75091786  1
  Si  Si9  1  0.50101891  0.71163497  0.75078578  1
  Si  Si10  1  0.35476988  0.99794381  0.75125773  1
  Si  Si11  1  0.85465258  0.99781173  0.75132214  1
  Si  Si12  1  0.47877156  0.33354336  0.58419988  1
  Si  Si13  1  0.97946716  0.33335614  0.58513950  1
  Si  Si14  1  0.18728706  0.04072390  0.58519712  1
  Si  Si15  1  0.68812467  0.04319133  0.58410907  1
  Si  Si16  1  0.33303494  0.62413741  0.58416553  1
  Si  Si17  1  0.83341399  0.62460259  0.58455760  1
  Si  Si18  1  0.47932038  0.62530262  0.08425157  1
  Si  Si19  1  0.97917534  0.62437125  0.08458754  1
  Si  Si20  1  0.33325299  0.04192135  0.08386679  1
  Si  Si21  1  0.83318903  0.04220095  0.08361658  1
  Si  Si22  1  0.18782227  0.33356604  0.08417265  1
  Si  Si23  1  0.68769681  0.33331124  0.08441906  1
  Si  Si24  1  0.31277452  0.66400481  0.91720346  1
  Si  Si25  1  0.81273100  0.66416672  0.91721324  1
  Si  Si26  1  0.02017983  0.37467754  0.91781744  1
  Si  Si27  1  0.52013946  0.37450929  0.91780188  1
  Si  Si28  1  0.16613253  0.95980911  0.91793646  1
  Si  Si29  1  0.66610429  0.95975911  0.91793059  1
  Si  Si30  1  0.31212231  0.95999451  0.41828690  1
  Si  Si31  1  0.81369744  0.96062137  0.41689242  1
  Si  Si32  1  0.16577166  0.37356092  0.41780703  1
  Si  Si33  1  0.66699889  0.37341301  0.41802748  1
  Si  Si34  1  0.02131317  0.66723754  0.41737663  1
  Si  Si35  1  0.51965092  0.66591562  0.41838399  1
  O  O0  1  0.09386759  0.02252144  0.30547498  1
  O  O1  1  0.60453775  0.03180442  0.30902541  1
  O  O2  1  0.41092847  0.79045055  0.30888502  1
  O  O3  1  0.91585396  0.80766437  0.30797242  1
  O  O4  1  0.48447504  0.17823746  0.30892829  1
  O  O5  1  0.98767812  0.16282221  0.30578521  1
  O  O6  1  0.09366980  0.16412612  0.80538730  1
  O  O7  1  0.59374672  0.16418590  0.80542134  1
  O  O8  1  0.48755852  0.81216134  0.80555152  1
  O  O9  1  0.98748812  0.81219002  0.80552577  1
  O  O10  1  0.41585706  0.02429110  0.80759219  1
  O  O11  1  0.91587830  0.02432834  0.80755944  1
  O  O12  1  0.40086454  0.96520044  0.69270380  1
  O  O13  1  0.90073267  0.96512377  0.69266816  1
  O  O14  1  0.08219153  0.19963066  0.69191655  1
  O  O15  1  0.58230876  0.19976666  0.69182154  1
  O  O16  1  0.01763177  0.83570454  0.69207515  1
  O  O17  1  0.51779162  0.83592512  0.69201469  1
  O  O18  1  0.40017284  0.83512163  0.19265528  1
  O  O19  1  0.90087014  0.83637552  0.19287366  1
  O  O20  1  0.01756156  0.19912449  0.19224630  1
  O  O21  1  0.51742251  0.19989167  0.19257944  1
  O  O22  1  0.08203634  0.96459969  0.19199411  1
  O  O23  1  0.58256435  0.96559107  0.19261871  1
  O  O24  1  0.43791966  0.36543556  0.64293946  1
  O  O25  1  0.93812748  0.36510838  0.64350949  1
  O  O26  1  0.24419113  0.12295278  0.64367292  1
  O  O27  1  0.74497343  0.12460888  0.64274817  1
  O  O28  1  0.31744416  0.51029213  0.64278914  1
  O  O29  1  0.81744402  0.51034383  0.64297667  1
  O  O30  1  0.43867552  0.51221642  0.14293650  1
  O  O31  1  0.93899865  0.51214235  0.14365250  1
  O  O32  1  0.31677181  0.12265755  0.14266820  1
  O  O33  1  0.81814658  0.12457827  0.14245773  1
  O  O34  1  0.24351059  0.36473530  0.14314070  1
  O  O35  1  0.74441738  0.36664777  0.14330433  1
  O  O36  1  0.23551945  0.29790261  0.02732596  1
  O  O37  1  0.73591015  0.29843002  0.02756112  1
  O  O38  1  0.41383978  0.52841745  0.02743848  1
  O  O39  1  0.91376327  0.52841124  0.02776542  1
  O  O40  1  0.35072957  0.16792909  0.02544944  1
  O  O41  1  0.85111087  0.16803782  0.02525652  1
  O  O42  1  0.23499912  0.17185505  0.52814789  1
  O  O43  1  0.73423528  0.16973645  0.52565179  1
  O  O44  1  0.35082724  0.53298075  0.52576208  1
  O  O45  1  0.85077979  0.53306830  0.52599998  1
  O  O46  1  0.41527814  0.29853221  0.52605578  1
  O  O47  1  0.91429339  0.29921433  0.52788078  1
  O  O48  1  0.27577528  0.70966087  0.97457741  1
  O  O49  1  0.77589639  0.70984720  0.97467142  1
  O  O50  1  0.07590694  0.45042948  0.97631387  1
  O  O51  1  0.57602028  0.45051067  0.97621961  1
  O  O52  1  0.15030457  0.84899464  0.97650126  1
  O  O53  1  0.65053280  0.84907169  0.97647922  1
  O  O54  1  0.27088808  0.84194269  0.47562894  1
  O  O55  1  0.77622634  0.84479890  0.47512710  1
  O  O56  1  0.14999715  0.45015743  0.47708272  1
  O  O57  1  0.65154050  0.45878837  0.47554649  1
  O  O58  1  0.07480058  0.70029638  0.47685690  1
  O  O59  1  0.57891586  0.69958435  0.47543478  1
  O  O60  1  0.06773676  0.63872431  0.35842288  1
  O  O61  1  0.56773683  0.63373158  0.35968921  1
  O  O62  1  0.25065432  0.86329220  0.35901427  1
  O  O63  1  0.75037302  0.86678121  0.35871233  1
  O  O64  1  0.18211212  0.49934205  0.35922990  1
  O  O65  1  0.68397171  0.50210113  0.35947349  1
  O  O66  1  0.06825442  0.49665407  0.85863727  1
  O  O67  1  0.56826530  0.49670204  0.85864450  1
  O  O68  1  0.18188354  0.86445166  0.85914473  1
  O  O69  1  0.68202241  0.86463496  0.85912178  1
  O  O70  1  0.25168040  0.63936098  0.85817257  1
  O  O71  1  0.75172010  0.63945371  0.85816776  1
  O  O72  1  0.00482274  0.82796904  0.40692990  1
  O  O73  1  0.50791580  0.82946179  0.41205493  1
  O  O74  1  0.40607131  0.98388727  0.41169319  1
  O  O75  1  0.90637140  0.97607154  0.40658990  1
  O  O76  1  0.08401355  0.18437892  0.40689261  1
  O  O77  1  0.58516907  0.18647432  0.41198675  1
  O  O78  1  0.00524640  0.18199970  0.90670908  1
  O  O79  1  0.50527807  0.18202237  0.90666253  1
  O  O80  1  0.08364786  0.98259095  0.90664321  1
  O  O81  1  0.58369216  0.98258133  0.90663927  1
  O  O82  1  0.40558810  0.83574737  0.90586333  1
  O  O83  1  0.90562123  0.83583072  0.90589210  1
  O  O84  1  0.48467645  0.15655149  0.58984018  1
  O  O85  1  0.98457981  0.15585904  0.58967285  1
  O  O86  1  0.09334820  0.03056976  0.58986535  1
  O  O87  1  0.59379695  0.03100279  0.58976750  1
  O  O88  1  0.42173608  0.81296314  0.58998433  1
  O  O89  1  0.92195682  0.81333488  0.58977076  1
  O  O90  1  0.48496060  0.81377090  0.08937610  1
  O  O91  1  0.98463684  0.81287140  0.08973229  1
  O  O92  1  0.42195158  0.03023162  0.08973831  1
  O  O93  1  0.92182350  0.02991069  0.08980566  1
  O  O94  1  0.09336125  0.15620461  0.08967392  1
  O  O95  1  0.59349671  0.15626451  0.08964235  1
  O  O96  1  0.34489651  0.16416874  0.74767524  1
  O  O97  1  0.84485362  0.16409098  0.74763942  1
  O  O98  1  0.23703442  0.31004932  0.74764877  1
  O  O99  1  0.73703026  0.30997405  0.74761885  1
  O  O100  1  0.41785450  0.52596279  0.74764444  1
  O  O101  1  0.91777962  0.52596530  0.74763150  1
  O  O102  1  0.34046486  0.51951878  0.24505776  1
  O  O103  1  0.84524675  0.52553263  0.24821592  1
  O  O104  1  0.41869251  0.31787769  0.24514939  1
  O  O105  1  0.91793734  0.30973258  0.24804761  1
  O  O106  1  0.23711191  0.16344914  0.24800138  1
  O  O107  1  0.74015943  0.16290484  0.24509864  1
  O  O108  1  0.32177000  0.49450565  0.92260169  1
  O  O109  1  0.82183959  0.49470276  0.92264041  1
  O  O110  1  0.42392880  0.34904226  0.92233450  1
  O  O111  1  0.92394070  0.34918598  0.92236490  1
  O  O112  1  0.25461711  0.14469716  0.92219194  1
  O  O113  1  0.75462090  0.14481740  0.92229160  1
  O  O114  1  0.32163002  0.15030612  0.42320962  1
  O  O115  1  0.81798123  0.14539987  0.42268070  1
  O  O116  1  0.25470023  0.36565190  0.42286004  1
  O  O117  1  0.75515526  0.36241438  0.42272998  1
  O  O118  1  0.42629168  0.48969277  0.42277271  1
  O  O119  1  0.92463329  0.49826861  0.42289174  1
  O  O120  1  0.17487681  0.49603380  0.07781155  1
  O  O121  1  0.67519881  0.49636876  0.07787006  1
  O  O122  1  0.07348202  0.65100612  0.07832265  1
  O  O123  1  0.57356336  0.65112318  0.07813144  1
  O  O124  1  0.25212020  0.85254760  0.07809350  1
  O  O125  1  0.75221336  0.85283224  0.07824987  1
  O  O126  1  0.17430788  0.85269841  0.57881076  1
  O  O127  1  0.67512635  0.85466400  0.57821251  1
  O  O128  1  0.25203814  0.65101307  0.57851572  1
  O  O129  1  0.75250916  0.65150500  0.57877879  1
  O  O130  1  0.07336753  0.49561031  0.57897166  1
  O  O131  1  0.57333973  0.49571936  0.57840768  1
  O  O132  1  0.15000068  0.82259731  0.25691036  1
  O  O133  1  0.65211801  0.82325952  0.25629918  1
  O  O134  1  0.25904243  0.69653205  0.25591187  1
  O  O135  1  0.76175001  0.69922502  0.25749014  1
  O  O136  1  0.08800562  0.47668693  0.25753925  1
  O  O137  1  0.58912408  0.48102348  0.25624415  1
  O  O138  1  0.15051844  0.47780094  0.75671658  1
  O  O139  1  0.65065775  0.47790780  0.75672707  1
  O  O140  1  0.08825953  0.69917454  0.75718163  1
  O  O141  1  0.58826306  0.69911324  0.75720055  1
  O  O142  1  0.26086641  0.82336416  0.75678257  1
  O  O143  1  0.76085412  0.82328468  0.75668478  1
loop_
_geom_bond_atom_site_label_1
_geom_bond_atom_site_label_2
_geom_bond_distance
_geom_bond_site_symmetry_2
Na0 O104 2.458164 1_555
Na0 O106 2.509472 1_555
Na0 O134 2.511083 1_545
Na0 O32 2.601126 1_555
Na0 O132 2.692460 1_545
Na0 O62 2.823321 1_545
Na0 O18 2.940856 1_545
Na0 O4 2.945424 1_555
Na1 O105 2.420059 1_555
Na1 O107 2.422886 1_555
Na1 O135 2.495204 1_545
Na1 O33 2.572113 1_555
Na1 O133 2.615590 1_545
Na1 O63 2.824938 1_545
Na1 O19 2.955963 1_545
Na1 O5 3.019354 1_555
Na2 O102 2.403258 1_555
Na2 O106 2.430877 1_555
Na2 O136 2.496323 1_555
Na2 O34 2.544547 1_555
Na2 O134 2.616630 1_555
Na2 O64 2.842765 1_555
Na2 O20 2.963997 1_555
Na2 O0 3.035349 1_555
Na3 O107 2.454598 1_555
Na3 O137 2.507882 1_555
Na3 O103 2.520122 1_555
Na3 O35 2.586842 1_555
Na3 O135 2.688512 1_555
Na3 O65 2.832917 1_555
Na3 O1 2.936016 1_555
Na3 O21 2.942956 1_555
Na4 O103 2.420198 1_555
Na4 O105 2.478531 1_555
Na4 O132 2.484793 1_655
Na4 O31 2.551316 1_555
Na4 O136 2.639555 1_655
Na4 O60 2.811620 1_655
Na5 O104 2.450440 1_555
Na5 O102 2.461084 1_555
Na5 O133 2.527757 1_555
Na5 O30 2.583755 1_555
Na5 O137 2.678733 1_555
Na5 O61 2.853417 1_555
Na5 O2 2.938771 1_555
Na5 O23 2.942616 1_555
Na6 O100 2.422207 1_555
Na6 O98 2.487446 1_555
Na6 O142 2.493080 1_555
Na6 O28 2.589856 1_555
Na6 O138 2.643203 1_555
Na6 O70 2.795673 1_555
Na6 O12 2.958636 1_555
Na6 O8 3.000493 1_555
Na7 O101 2.421776 1_555
Na7 O99 2.486531 1_555
Na7 O143 2.491864 1_555
Na7 O29 2.589686 1_555
Na7 O139 2.638720 1_555
Na7 O71 2.790860 1_555
Na7 O13 2.961686 1_555
Na7 O9 2.999143 1_555
Na8 O97 2.422728 1_555
Na8 O101 2.486448 1_555
Na8 O138 2.492553 1_655
Na8 O25 2.576855 1_555
Na8 O140 2.643099 1_655
Na8 O66 2.804305 1_655
Na9 O96 2.419840 1_555
Na9 O100 2.485221 1_555
Na9 O139 2.496786 1_555
Na9 O24 2.587716 1_555
Na9 O141 2.644904 1_555
Na9 O67 2.808111 1_555
Na10 O98 2.424304 1_555
Na10 O96 2.477143 1_555
Na10 O140 2.490564 1_545
Na10 O26 2.562470 1_555
Na10 O142 2.632386 1_545
Na10 O68 2.820114 1_545
Na10 O16 2.971865 1_545
Na10 O6 3.016116 1_555
Na11 O99 2.424185 1_555
Na11 O97 2.481335 1_555
Na11 O141 2.488708 1_545
Na11 O27 2.589830 1_555
Na11 O143 2.635709 1_545
Na11 O69 2.818877 1_545
Na11 O17 2.966160 1_545
Na11 O7 3.012090 1_555
Na12 O128 2.446043 1_555
Na12 O130 2.447704 1_555
Na12 O86 2.520821 1_555
Na12 O56 2.536149 1_555
Na12 O85 2.679117 1_455
Na12 O14 2.836510 1_555
Na12 O42 2.914845 1_555
Na12 O28 2.951469 1_555
Na13 O131 2.450688 1_555
Na13 O129 2.462527 1_555
Na13 O87 2.507513 1_555
Na13 O57 2.600608 1_555
Na13 O84 2.667224 1_555
Na13 O15 2.823951 1_555
Na13 O43 2.943156 1_555
Na13 O29 2.959442 1_555
Na14 O126 2.442034 1_555
Na14 O130 2.453425 1_555
Na14 O89 2.517846 1_455
Na14 O58 2.535853 1_555
Na14 O86 2.670167 1_565
Na14 O16 2.838540 1_555
Na14 O45 2.941645 1_455
Na14 O25 2.963682 1_455
Na15 O131 2.458019 1_555
Na15 O127 2.466189 1_555
Na15 O88 2.510702 1_555
Na15 O59 2.605108 1_555
Na15 O87 2.675498 1_565
Na15 O17 2.832001 1_555
Na15 O44 2.935553 1_555
Na15 O24 2.949633 1_555
Na16 O128 2.441700 1_555
Na16 O126 2.454776 1_555
Na16 O84 2.518668 1_565
Na16 O54 2.592812 1_555
Na16 O88 2.668606 1_555
Na16 O12 2.858426 1_555
Na16 O46 2.941505 1_565
Na16 O26 2.965964 1_565
Na17 O129 2.448183 1_555
Na17 O127 2.449258 1_555
Na17 O85 2.507430 1_565
Na17 O55 2.600803 1_555
Na17 O89 2.670842 1_555
Na17 O13 2.839994 1_555
Na17 O47 2.927325 1_565
Na17 O27 2.944650 1_565
Na18 O124 2.449590 1_555
Na18 O122 2.456006 1_555
Na18 O94 2.521317 1_565
Na18 O52 2.554969 1_554
Na18 O91 2.687048 1_455
Na18 O22 2.839584 1_555
Na18 O36 2.914028 1_565
Na18 O32 2.931676 1_565
Na19 O123 2.449981 1_555
Na19 O125 2.461876 1_555
Na19 O95 2.510310 1_565
Na19 O53 2.562662 1_554
Na19 O90 2.665259 1_555
Na19 O23 2.837187 1_555
Na19 O37 2.922621 1_565
Na19 O33 2.959533 1_565
Na20 O124 2.445305 1_555
Na20 O120 2.455641 1_555
Na20 O90 2.510739 1_555
Na20 O48 2.623950 1_554
Na20 O92 2.660854 1_565
Na20 O18 2.828120 1_555
Na20 O38 2.936088 1_555
Na20 O34 2.956295 1_555
Na21 O121 2.439357 1_555
Na21 O125 2.446637 1_555
Na21 O91 2.516654 1_555
Na21 O49 2.611156 1_554
Na21 O93 2.670076 1_565
Na21 O19 2.852068 1_555
Na21 O39 2.927470 1_555
Na21 O35 2.939789 1_555
Na22 O122 2.451411 1_555
Na22 O120 2.459692 1_555
Na22 O93 2.519608 1_455
Na22 O50 2.554069 1_554
Na22 O94 2.677117 1_555
Na22 O20 2.847653 1_555
Na22 O41 2.936012 1_455
Na22 O31 2.955030 1_455
Na23 O123 2.459720 1_555
Na23 O121 2.468213 1_555
Na23 O92 2.508886 1_555
Na23 O51 2.568538 1_554
Na23 O95 2.673474 1_555
Na23 O21 2.838235 1_555
Na23 O40 2.940843 1_555
Na23 O30 2.950789 1_555
Na24 O112 2.414261 1_555
Na24 O82 2.478439 1_545
Na24 O79 2.499574 1_555
Na24 O110 2.530719 1_555
Na24 O40 2.703394 1_556
Na24 O10 2.814823 1_555
Na24 O48 2.817331 1_545
Na24 O68 2.955802 1_545
Na25 O113 2.413981 1_555
Na25 O83 2.478921 1_545
Na25 O78 2.499963 1_655
Na25 O111 2.531968 1_555
Na25 O41 2.699661 1_556
Na25 O11 2.814734 1_555
Na25 O49 2.817736 1_545
Na25 O69 2.952306 1_545
Na26 O74 2.445682 1_545
Na26 O77 2.467267 1_555
Na26 O118 2.508487 1_555
Na26 O114 2.591863 1_555
Na26 O4 2.618244 1_555
Na26 O46 2.816206 1_555
Na26 O57 2.965546 1_555
Na26 O61 2.965750 1_555
Na27 O77 2.442786 1_555
Na27 O73 2.458372 1_545
Na27 O115 2.511661 1_555
Na27 O1 2.613323 1_555
Na27 O117 2.643066 1_555
Na27 O43 2.820497 1_555
Na27 O59 2.939442 1_545
Na27 O63 2.979118 1_545
Na28 O73 2.454981 1_555
Na28 O74 2.456879 1_555
Na28 O116 2.495255 1_555
Na28 O2 2.624022 1_555
Na28 O118 2.660601 1_555
Na28 O44 2.811575 1_555
Na28 O54 2.922800 1_555
Na28 O64 2.979749 1_555
Na29 O117 2.434273 1_555
Na29 O75 2.470644 1_555
Na29 O72 2.484193 1_655
Na29 O119 2.550491 1_555
Na29 O45 2.751467 1_555
Na29 O3 2.773427 1_555
Na29 O55 2.852634 1_555
Na29 O65 2.909918 1_555
Na30 O76 2.560829 1_555
Na30 O86 2.595184 1_555
Na30 O85 2.602552 1_455
Na30 O72 2.622132 1_545
Na30 O75 2.636676 1_445
Na30 O89 2.657401 1_445
Na31 O73 2.479603 1_555
Na31 O77 2.480860 1_565
Na31 O74 2.488308 1_555
Na31 O84 2.669123 1_565
Na31 O88 2.670663 1_555
Na31 O87 2.679872 1_565
Na32 O80 2.576525 1_555
Na32 O94 2.583634 1_566
Na32 O91 2.594362 1_456
Na32 O78 2.638935 1_565
Na32 O93 2.645048 1_466
Na32 O83 2.662284 1_455
Na33 O95 2.572697 1_566
Na33 O90 2.572854 1_556
Na33 O81 2.590324 1_555
Na33 O92 2.630566 1_566
Na33 O79 2.650690 1_565
Na33 O82 2.674267 1_555
Na34 O100 2.528474 1_555
Na34 O108 2.535254 1_555
Na34 O98 2.535315 1_555
Na34 O96 2.578742 1_555
Na34 O110 2.579919 1_555
Na34 O112 2.584571 1_555
Na35 O101 2.528074 1_555
Na35 O99 2.535031 1_555
Na35 O109 2.536714 1_555
Na35 O97 2.579409 1_555
Na35 O111 2.580903 1_555
Na35 O113 2.586159 1_555
Na36 O106 2.467994 1_555
Na36 O104 2.531077 1_555
Na36 O102 2.539555 1_555
Na36 O114 2.611526 1_555
Na36 O116 2.624846 1_555
Na36 O118 2.643007 1_555
Na37 O105 2.461747 1_555
Na37 O103 2.506207 1_555
Na37 O107 2.533272 1_555
Na37 O115 2.607424 1_555
Na37 O119 2.620263 1_555
Na37 O117 2.640347 1_555
Na38 O124 2.484949 1_555
Na38 O120 2.496619 1_555
Na38 O122 2.496926 1_555
Na38 O134 2.642550 1_555
Na38 O132 2.683584 1_555
Na38 O136 2.701557 1_555
Na39 O123 2.484643 1_555
Na39 O125 2.487408 1_555
Na39 O121 2.496047 1_555
Na39 O137 2.656858 1_555
Na39 O133 2.661248 1_555
Na39 O135 2.709122 1_555
Na40 O126 2.483240 1_555
Na40 O128 2.485347 1_555
Na40 O130 2.487273 1_555
Na40 O142 2.672226 1_555
Na40 O138 2.674993 1_555
Na40 O140 2.685141 1_555
Na41 O129 2.495268 1_555
Na41 O131 2.499559 1_555
Na41 O127 2.507634 1_555
Na41 O143 2.666808 1_555
Na41 O139 2.667688 1_555
Na41 O141 2.674903 1_555
O0 Si0 1.634650 1_545
O0 Ta0 1.934379 1_555
O1 Si1 1.606497 1_555
O1 Sc0 2.028113 1_545
O2 Si2 1.607398 1_555
O2 Sc0 2.020570 1_555
O3 Si3 1.632973 1_555
O3 Ta0 1.995540 1_665
O4 Si5 1.606232 1_555
O4 Sc0 2.021389 1_545
O5 Si4 1.634419 1_655
O5 Ta0 1.943623 1_655
O6 Si6 1.628518 1_555
O6 Ta1 1.949603 1_555
O7 Si7 1.628869 1_555
O7 Ta2 1.950316 1_555
O8 Si9 1.629085 1_555
O8 Ta2 1.952775 1_565
O9 Si8 1.628596 1_655
O9 Ta1 1.952996 1_665
O10 Si10 1.629168 1_545
O10 Ta2 2.003329 1_555
O11 Si11 1.628700 1_545
O11 Ta1 2.003828 1_655
O12 Si10 1.671156 1_555
O12 Ta4 1.977242 1_555
O13 Si11 1.672569 1_555
O13 Ta3 1.974394 1_655
O14 Si6 1.671673 1_555
O14 Ta3 1.974842 1_545
O15 Si7 1.669222 1_555
O15 Ta4 1.980620 1_545
O16 Si8 1.673308 1_555
O16 Ta3 1.972343 1_555
O17 Si9 1.671385 1_555
O17 Ta4 1.979760 1_555
O18 Si2 1.684686 1_555
O18 Ta6 1.973965 1_565
O19 Si3 1.668332 1_555
O19 Ta5 1.981604 1_565
O20 Si4 1.669956 1_555
O20 Ta5 1.977591 1_455
O21 Si5 1.683370 1_555
O21 Ta6 1.975981 1_555
O22 Si0 1.667340 1_555
O22 Ta5 1.983311 1_465
O23 Si1 1.683385 1_565
O23 Ta6 1.980295 1_565
O24 Si12 1.616648 1_555
O24 Sc1 2.017865 1_555
O25 Si13 1.614217 1_555
O25 Sc2 2.019336 1_555
O26 Si14 1.614941 1_555
O26 Sc1 2.022260 1_555
O27 Si15 1.616509 1_555
O27 Sc2 2.018340 1_555
O28 Si16 1.617588 1_555
O28 Sc1 2.020023 1_555
O29 Si17 1.614899 1_555
O29 Sc2 2.021100 1_555
O30 Si18 1.613489 1_555
O30 Sc3 2.016302 1_555
O31 Si19 1.616190 1_555
O31 Sc4 2.022824 1_555
O32 Si20 1.617254 1_555
O32 Sc3 2.022966 1_555
O33 Si21 1.615523 1_555
O33 Sc4 2.015950 1_555
O34 Si22 1.612760 1_555
O34 Sc3 2.024138 1_555
O35 Si23 1.618791 1_555
O35 Sc4 2.018859 1_555
O36 Si22 1.670574 1_555
O36 Ta7 1.965091 1_554
O37 Si23 1.673355 1_555
O37 Ta8 1.962676 1_554
O38 Si18 1.673649 1_555
O38 Ta7 1.957563 1_554
O39 Si19 1.671822 1_555
O39 Ta8 1.962120 1_554
O40 Si20 1.672296 1_555
O40 Ta7 2.022625 1_554
O41 Si21 1.669121 1_555
O41 Ta8 2.025450 1_554
O42 Si14 1.674684 1_555
O42 Ta9 1.946455 1_555
O43 Si15 1.676125 1_555
O43 Ta10 2.004948 1_555
O44 Si16 1.674508 1_555
O44 Ta9 2.006604 1_555
O45 Si17 1.675875 1_555
O45 Ta10 1.997281 1_555
O46 Si12 1.673880 1_555
O46 Ta9 2.006946 1_555
O47 Si13 1.678223 1_555
O47 Ta10 1.944320 1_555
O48 Si24 1.608149 1_555
O48 Sc5 2.063818 1_556
O49 Si25 1.608142 1_555
O49 Sc6 2.067153 1_556
O50 Si26 1.598824 1_555
O50 Sc5 2.040087 1_556
O51 Si27 1.598796 1_555
O51 Sc6 2.037034 1_556
O52 Si28 1.600735 1_555
O52 Sc5 2.042986 1_556
O53 Si29 1.600451 1_555
O53 Sc6 2.041875 1_556
O54 Si30 1.609434 1_555
O54 Sc7 2.015851 1_555
O55 Si31 1.609047 1_555
O55 Sc8 2.061763 1_555
O56 Si32 1.600630 1_555
O56 Sc7 2.042447 1_555
O57 Si33 1.609632 1_555
O57 Sc8 2.015366 1_555
O58 Si34 1.598905 1_555
O58 Sc7 2.037871 1_555
O59 Si35 1.610822 1_555
O59 Sc8 2.018409 1_555
O60 Si34 1.665652 1_555
O60 Ta11 1.958066 1_555
O61 Si35 1.693170 1_555
O61 Ta12 1.957249 1_555
O62 Si30 1.685434 1_555
O62 Ta11 1.940210 1_555
O63 Si31 1.675524 1_555
O63 Ta12 1.982014 1_555
O64 Si32 1.677232 1_555
O64 Ta11 1.964671 1_555
O65 Si33 1.690799 1_555
O65 Ta12 1.971297 1_555
O66 Si26 1.677756 1_555
O66 Ta13 1.939107 1_555
O67 Si27 1.678317 1_555
O67 Ta14 1.936938 1_555
O68 Si28 1.688098 1_555
O68 Ta13 1.953068 1_555
O69 Si29 1.688429 1_555
O69 Ta14 1.954038 1_555
O70 Si24 1.680298 1_555
O70 Ta13 1.942950 1_555
O71 Si25 1.679528 1_555
O71 Ta14 1.944551 1_555
O72 Si34 1.654423 1_555
O72 Ta0 2.012601 1_565
O73 Si35 1.615894 1_555
O73 Sc0 2.136064 1_555
O74 Si30 1.622687 1_555
O74 Sc0 2.127149 1_555
O75 Si31 1.641097 1_555
O75 Ta0 2.019008 1_665
O76 Si32 1.639509 1_555
O76 Ta0 1.967419 1_555
O77 Si33 1.614805 1_555
O77 Sc0 2.137194 1_545
O78 Si26 1.657106 1_555
O78 Ta1 2.001029 1_555
O79 Si27 1.655990 1_555
O79 Ta2 2.000821 1_555
O80 Si28 1.639189 1_555
O80 Ta1 1.961876 1_565
O81 Si29 1.638099 1_555
O81 Ta2 1.962789 1_565
O82 Si24 1.652703 1_555
O82 Ta2 1.999487 1_565
O83 Si25 1.653096 1_555
O83 Ta1 1.999621 1_665
O84 Si12 1.675694 1_555
O84 Ta4 2.029733 1_545
O85 Si13 1.670697 1_555
O85 Ta3 2.037280 1_645
O86 Si14 1.672615 1_555
O86 Ta3 2.029755 1_545
O87 Si15 1.672808 1_555
O87 Ta4 2.030914 1_545
O88 Si16 1.677361 1_555
O88 Ta4 2.024986 1_555
O89 Si17 1.674566 1_555
O89 Ta3 2.032041 1_655
O90 Si18 1.673782 1_555
O90 Ta6 2.045411 1_565
O91 Si19 1.675580 1_555
O91 Ta5 2.029996 1_565
O92 Si20 1.679571 1_555
O92 Ta6 2.039359 1_555
O93 Si21 1.681992 1_555
O93 Ta5 2.022456 1_555
O94 Si22 1.676925 1_555
O94 Ta5 2.025058 1_455
O95 Si23 1.672590 1_555
O95 Ta6 2.044587 1_555
O96 Si10 1.615824 1_545
O96 Sc1 2.177174 1_555
O97 Si11 1.615645 1_545
O97 Sc2 2.173610 1_555
O98 Si6 1.612488 1_555
O98 Sc1 2.177437 1_555
O99 Si7 1.613859 1_555
O99 Sc2 2.173259 1_555
O100 Si9 1.613657 1_555
O100 Sc1 2.177521 1_555
O101 Si8 1.613049 1_655
O101 Sc2 2.176813 1_555
O102 Si2 1.617046 1_555
O102 Sc3 2.135117 1_555
O103 Si3 1.613915 1_555
O103 Sc4 2.195123 1_555
O104 Si5 1.618177 1_555
O104 Sc3 2.137992 1_555
O105 Si4 1.610884 1_655
O105 Sc4 2.200083 1_555
O106 Si0 1.608632 1_545
O106 Sc3 2.202268 1_555
O107 Si1 1.619779 1_555
O107 Sc4 2.125659 1_555
O108 Si24 1.638846 1_555
O108 Ta7 2.004284 1_555
O109 Si25 1.639758 1_555
O109 Ta8 2.002407 1_555
O110 Si27 1.654396 1_555
O110 Ta7 2.048045 1_555
O111 Si26 1.654843 1_655
O111 Ta8 2.048113 1_555
O112 Si28 1.653799 1_545
O112 Ta7 2.067138 1_555
O113 Si29 1.655038 1_545
O113 Ta8 2.064290 1_555
O114 Si30 1.659467 1_545
O114 Ta9 2.001399 1_555
O115 Si31 1.652686 1_545
O115 Ta10 2.034194 1_555
O116 Si32 1.663792 1_555
O116 Ta9 2.027162 1_555
O117 Si33 1.664362 1_555
O117 Ta10 2.070438 1_555
O118 Si35 1.659646 1_555
O118 Ta9 2.068711 1_555
O119 Si34 1.667661 1_655
O119 Ta10 2.009464 1_555
O120 Si22 1.619464 1_555
O120 Sc5 2.142499 1_555
O121 Si23 1.620250 1_555
O121 Sc6 2.143163 1_555
O122 Si19 1.618780 1_455
O122 Sc5 2.140425 1_555
O123 Si18 1.620203 1_555
O123 Sc6 2.134555 1_555
O124 Si20 1.622706 1_565
O124 Sc5 2.150035 1_555
O125 Si21 1.620872 1_565
O125 Sc6 2.156547 1_555
O126 Si14 1.615929 1_565
O126 Sc7 2.154903 1_555
O127 Si15 1.619373 1_565
O127 Sc8 2.135910 1_555
O128 Si16 1.619601 1_555
O128 Sc7 2.168555 1_555
O129 Si17 1.618327 1_555
O129 Sc8 2.139340 1_555
O130 Si13 1.614561 1_455
O130 Sc7 2.140732 1_555
O131 Si12 1.620960 1_555
O131 Sc8 2.144826 1_555
O132 Si0 1.654375 1_555
O132 Ta11 2.062333 1_555
O133 Si1 1.672018 1_565
O133 Ta12 2.046807 1_555
O134 Si2 1.672956 1_555
O134 Ta11 2.053352 1_555
O135 Si3 1.656478 1_555
O135 Ta12 2.058622 1_555
O136 Si4 1.652534 1_555
O136 Ta11 2.073647 1_555
O137 Si5 1.674564 1_555
O137 Ta12 2.036253 1_555
O138 Si6 1.655915 1_555
O138 Ta13 2.073073 1_555
O139 Si7 1.657196 1_555
O139 Ta14 2.072317 1_555
O140 Si8 1.656386 1_555
O140 Ta13 2.077329 1_555
O141 Si9 1.658362 1_555
O141 Ta14 2.075481 1_555
O142 Si10 1.660053 1_555
O142 Ta13 2.078788 1_555
O143 Si11 1.658515 1_555
O143 Ta14 2.081674 1_555
