# generated using pymatgen
data_MgTi2Zn2O6
_symmetry_space_group_name_H-M   'P 1'
_cell_length_a   5.91381219
_cell_length_b   5.91381257
_cell_length_c   5.91381339
_cell_angle_alpha   51.67259938
_cell_angle_beta   51.67259383
_cell_angle_gamma   51.67260065
_symmetry_Int_Tables_number   1
_chemical_formula_structural   MgTi2Zn2O6
_chemical_formula_sum   'Mg1 Ti2 Zn2 O6'
_cell_volume   117.58822985
_cell_formula_units_Z   1
loop_
 _symmetry_equiv_pos_site_id
 _symmetry_equiv_pos_as_xyz
  1  'x, y, z'
loop_
 _atom_site_type_symbol
 _atom_site_label
 _atom_site_symmetry_multiplicity
 _atom_site_fract_x
 _atom_site_fract_y
 _atom_site_fract_z
 _atom_site_occupancy
  Mg  Mg0  1  0.50000000  0.50000000  0.50000000  1
  Ti  Ti0  1  0.14958800  0.14958800  0.14958800  1
  Ti  Ti1  1  0.85041200  0.85041200  0.85041200  1
  Zn  Zn0  1  0.32951300  0.32951300  0.32951300  1
  Zn  Zn1  1  0.67048700  0.67048700  0.67048700  1
  O  O0  1  0.74458000  0.44346900  0.08479700  1
  O  O1  1  0.44346900  0.08479700  0.74458000  1
  O  O2  1  0.08479700  0.74458000  0.44346900  1
  O  O3  1  0.25542000  0.55653100  0.91520300  1
  O  O4  1  0.91520300  0.25542000  0.55653100  1
  O  O5  1  0.55653100  0.91520300  0.25542000  1
loop_
_geom_bond_atom_site_label_1
_geom_bond_atom_site_label_2
_geom_bond_distance
_geom_bond_site_symmetry_2
Mg0 O5 2.060675 1_555
Mg0 O1 2.060675 1_555
Mg0 O4 2.060675 1_555
Mg0 O2 2.060675 1_555
Mg0 O3 2.060676 1_555
Mg0 O0 2.060676 1_555
O0 Ti0 2.013295 1_655
O0 Zn1 2.125959 1_554
O0 Ti1 2.181610 1_554
O0 Zn0 2.238262 1_555
O1 Ti0 2.013295 1_556
O1 Zn1 2.125958 1_545
O1 Ti1 2.181610 1_545
O1 Zn0 2.238263 1_555
O2 Ti0 2.013295 1_565
O2 Zn1 2.125958 1_455
O2 Ti1 2.181610 1_455
O2 Zn0 2.238263 1_555
O3 Ti1 2.013295 1_455
O3 Zn0 2.125959 1_556
O3 Ti0 2.181610 1_556
O3 Zn1 2.238262 1_555
O4 Ti1 2.013295 1_545
O4 Zn0 2.125958 1_655
O4 Ti0 2.181610 1_655
O4 Zn1 2.238263 1_555
O5 Ti1 2.013295 1_554
O5 Zn0 2.125958 1_565
O5 Ti0 2.181610 1_565
O5 Zn1 2.238263 1_555
