# generated using pymatgen
data_CsFeCl4
_symmetry_space_group_name_H-M   'P 1'
_cell_length_a   7.13977829
_cell_length_b   9.49628057
_cell_length_c   11.74457868
_cell_angle_alpha   90.00000000
_cell_angle_beta   90.00000000
_cell_angle_gamma   90.00000000
_symmetry_Int_Tables_number   1
_chemical_formula_structural   CsFeCl4
_chemical_formula_sum   'Cs4 Fe4 Cl16'
_cell_volume   796.29814698
_cell_formula_units_Z   4
loop_
 _symmetry_equiv_pos_site_id
 _symmetry_equiv_pos_as_xyz
  1  'x, y, z'
loop_
 _atom_site_type_symbol
 _atom_site_label
 _atom_site_symmetry_multiplicity
 _atom_site_fract_x
 _atom_site_fract_y
 _atom_site_fract_z
 _atom_site_occupancy
  Cs  Cs0  1  0.25000000  0.33540596  0.68071372  1
  Cs  Cs1  1  0.75000000  0.66459404  0.31928628  1
  Cs  Cs2  1  0.75000000  0.83540596  0.81928628  1
  Cs  Cs3  1  0.25000000  0.16459404  0.18071372  1
  Fe  Fe0  1  0.25000000  0.80496393  0.56937800  1
  Fe  Fe1  1  0.75000000  0.19503607  0.43062200  1
  Fe  Fe2  1  0.75000000  0.30496393  0.93062200  1
  Fe  Fe3  1  0.25000000  0.69503607  0.06937800  1
  Cl  Cl0  1  0.50168003  0.33144087  0.41549098  1
  Cl  Cl1  1  0.00168003  0.66855913  0.58450902  1
  Cl  Cl2  1  0.49831997  0.83144087  0.08450902  1
  Cl  Cl3  1  0.99831997  0.16855913  0.91549098  1
  Cl  Cl4  1  0.49831997  0.66855913  0.58450902  1
  Cl  Cl5  1  0.99831997  0.33144087  0.41549098  1
  Cl  Cl6  1  0.50168003  0.16855913  0.91549098  1
  Cl  Cl7  1  0.00168003  0.83144087  0.08450902  1
  Cl  Cl8  1  0.25000000  0.59144491  0.90298761  1
  Cl  Cl9  1  0.75000000  0.40855509  0.09701239  1
  Cl  Cl10  1  0.75000000  0.09144491  0.59701239  1
  Cl  Cl11  1  0.25000000  0.90855509  0.40298761  1
  Cl  Cl12  1  0.25000000  0.54741522  0.21273691  1
  Cl  Cl13  1  0.75000000  0.45258478  0.78726309  1
  Cl  Cl14  1  0.75000000  0.04741522  0.28726309  1
  Cl  Cl15  1  0.25000000  0.95258478  0.71273691  1
loop_
_geom_bond_atom_site_label_1
_geom_bond_atom_site_label_2
_geom_bond_distance
_geom_bond_site_symmetry_2
Cl0 Fe1 2.202914 1_555
Cl0 Cs0 3.596275 1_555
Cl0 Cs3 3.652729 1_555
Cl0 Cs1 3.798564 1_555
Cl1 Fe0 2.202914 1_555
Cl1 Cs1 3.596275 1_455
Cl1 Cs2 3.652729 1_455
Cl1 Cs0 3.798564 1_555
Cl2 Fe3 2.202914 1_555
Cl2 Cs2 3.596275 1_554
Cl2 Cs1 3.652729 1_555
Cl2 Cs3 3.798564 1_565
Cl3 Fe2 2.202914 1_555
Cl3 Cs3 3.596275 1_656
Cl3 Cs0 3.652729 1_655
Cl3 Cs2 3.798564 1_545
Cl4 Fe0 2.202914 1_555
Cl4 Cs1 3.596275 1_555
Cl4 Cs2 3.652729 1_555
Cl4 Cs0 3.798564 1_555
Cl5 Fe1 2.202914 1_555
Cl5 Cs0 3.596275 1_655
Cl5 Cs3 3.652729 1_655
Cl5 Cs1 3.798564 1_555
Cl6 Fe2 2.202914 1_555
Cl6 Cs3 3.596275 1_556
Cl6 Cs0 3.652729 1_555
Cl6 Cs2 3.798564 1_545
Cl7 Fe3 2.202914 1_555
Cl7 Cs2 3.596275 1_454
Cl7 Cs1 3.652729 1_455
Cl7 Cs3 3.798564 1_565
Cl8 Fe3 2.187822 1_556
Cl8 Cs0 3.567432 1_555
Cl9 Fe2 2.187822 1_554
Cl9 Cs1 3.567432 1_555
Cl10 Fe1 2.187822 1_555
Cl10 Cs2 3.567432 1_545
Cl11 Fe0 2.187822 1_555
Cl11 Cs3 3.567432 1_565
Cl12 Fe3 2.190889 1_555
Cl12 Cs3 3.654780 1_555
Cl12 Cs1 3.943133 1_555
Cl12 Cs1 3.943133 1_455
Cl13 Fe2 2.190889 1_555
Cl13 Cs2 3.654780 1_555
Cl13 Cs0 3.943133 1_555
Cl13 Cs0 3.943133 1_655
Cl14 Fe1 2.190889 1_555
Cl14 Cs1 3.654780 1_545
Cl14 Cs3 3.943133 1_555
Cl14 Cs3 3.943133 1_655
Cl15 Fe0 2.190889 1_555
Cl15 Cs0 3.654780 1_565
Cl15 Cs2 3.943133 1_455
Cl15 Cs2 3.943133 1_555
