# generated using pymatgen
data_LiCr(PO3)3
_symmetry_space_group_name_H-M   'P 1'
_cell_length_a   8.38024200
_cell_length_b   8.87023500
_cell_length_c   8.95343400
_cell_angle_alpha   90.00000000
_cell_angle_beta   90.00000000
_cell_angle_gamma   90.00000000
_symmetry_Int_Tables_number   1
_chemical_formula_structural   LiCr(PO3)3
_chemical_formula_sum   'Li4 Cr4 P12 O36'
_cell_volume   665.55097269
_cell_formula_units_Z   4
loop_
 _symmetry_equiv_pos_site_id
 _symmetry_equiv_pos_as_xyz
  1  'x, y, z'
loop_
 _atom_site_type_symbol
 _atom_site_label
 _atom_site_symmetry_multiplicity
 _atom_site_fract_x
 _atom_site_fract_y
 _atom_site_fract_z
 _atom_site_occupancy
  Li  Li0  1  0.87695900  0.41810500  0.10789400  1
  Li  Li1  1  0.37695900  0.08189500  0.89210600  1
  Li  Li2  1  0.62304100  0.58189500  0.60789400  1
  Li  Li3  1  0.12304100  0.91810500  0.39210600  1
  Cr  Cr0  1  0.59584700  0.35841200  0.88170300  1
  Cr  Cr1  1  0.40415300  0.85841200  0.61829700  1
  Cr  Cr2  1  0.90415300  0.64158800  0.38170300  1
  Cr  Cr3  1  0.09584700  0.14158800  0.11829700  1
  P  P0  1  0.77972000  0.92836300  0.56532700  1
  P  P1  1  0.93493800  0.44050400  0.73294000  1
  P  P2  1  0.06506200  0.94050400  0.76706000  1
  P  P3  1  0.22028000  0.42836300  0.93467300  1
  P  P4  1  0.95183200  0.81816300  0.04964100  1
  P  P5  1  0.72028000  0.07163700  0.06532700  1
  P  P6  1  0.56506200  0.55949600  0.23294000  1
  P  P7  1  0.43493800  0.05949600  0.26706000  1
  P  P8  1  0.45183200  0.68183700  0.95035900  1
  P  P9  1  0.04816800  0.31816300  0.45035900  1
  P  P10  1  0.54816800  0.18183700  0.54964100  1
  P  P11  1  0.27972000  0.57163700  0.43467300  1
  O  O0  1  0.58779000  0.33669700  0.60230300  1
  O  O1  1  0.41221000  0.83669700  0.89769700  1
  O  O2  1  0.61694100  0.13355200  0.94123300  1
  O  O3  1  0.28758100  0.58912000  0.98551600  1
  O  O4  1  0.78758100  0.91088000  0.01448400  1
  O  O5  1  0.11694100  0.36644800  0.05876700  1
  O  O6  1  0.91221000  0.66330300  0.10230300  1
  O  O7  1  0.52477600  0.69509000  0.11710600  1
  O  O8  1  0.85495400  0.17132400  0.11784400  1
  O  O9  1  0.33771600  0.12203900  0.13897800  1
  O  O10  1  0.62825300  0.42753400  0.14749200  1
  O  O11  1  0.05697000  0.91550000  0.14884800  1
  O  O12  1  0.61104400  0.02160300  0.20383500  1
  O  O13  1  0.38895600  0.52160300  0.29616500  1
  O  O14  1  0.94303000  0.41550000  0.35115200  1
  O  O15  1  0.37174700  0.92753400  0.35250800  1
  O  O16  1  0.66228400  0.62203900  0.36102200  1
  O  O17  1  0.14504600  0.67132400  0.38215600  1
  O  O18  1  0.47522400  0.19509000  0.38289400  1
  O  O19  1  0.08779000  0.16330300  0.39769700  1
  O  O20  1  0.88305900  0.86644800  0.44123300  1
  O  O21  1  0.35495400  0.32867600  0.88215600  1
  O  O22  1  0.71241900  0.08912000  0.51448400  1
  O  O23  1  0.38305900  0.63355200  0.55876700  1
  O  O24  1  0.21241900  0.41088000  0.48551600  1
  O  O25  1  0.97522400  0.30491000  0.61710600  1
  O  O26  1  0.64504600  0.82867600  0.61784400  1
  O  O27  1  0.16228400  0.87796100  0.63897800  1
  O  O28  1  0.87174700  0.57246600  0.64749200  1
  O  O29  1  0.44303000  0.08450000  0.64884800  1
  O  O30  1  0.88895600  0.97839700  0.70383500  1
  O  O31  1  0.11104400  0.47839700  0.79616500  1
  O  O32  1  0.55697000  0.58450000  0.85115200  1
  O  O33  1  0.12825300  0.07246600  0.85250800  1
  O  O34  1  0.83771600  0.37796100  0.86102200  1
  O  O35  1  0.02477600  0.80491000  0.88289400  1
loop_
_geom_bond_atom_site_label_1
_geom_bond_atom_site_label_2
_geom_bond_distance
_geom_bond_site_symmetry_2
Li0 O5 2.109024 1_655
Li0 O10 2.115810 1_555
Li0 O6 2.195505 1_555
Li0 O8 2.198565 1_555
Li0 O14 2.247391 1_555
Li0 O34 2.262876 1_554
Li1 O2 2.109024 1_555
Li1 O33 2.115810 1_555
Li1 O1 2.195505 1_545
Li1 O21 2.198565 1_555
Li1 O29 2.247391 1_555
Li1 O9 2.262876 1_556
Li2 O23 2.109024 1_555
Li2 O28 2.115810 1_555
Li2 O0 2.195505 1_555
Li2 O26 2.198565 1_555
Li2 O32 2.247391 1_555
Li2 O16 2.262876 1_555
Li3 O20 2.109024 1_455
Li3 O15 2.115810 1_555
Li3 O19 2.195505 1_565
Li3 O17 2.198565 1_555
Li3 O11 2.247391 1_555
Li3 O27 2.262876 1_555
Cr0 O21 2.035904 1_555
Cr0 O34 2.042734 1_555
Cr0 O32 2.050076 1_555
Cr0 O2 2.072103 1_555
Cr0 O10 2.472401 1_556
Cr0 O0 2.509902 1_555
Cr1 O26 2.035904 1_555
Cr1 O27 2.042734 1_555
Cr1 O29 2.050076 1_565
Cr1 O23 2.072103 1_555
Cr1 O15 2.472401 1_555
Cr1 O1 2.509902 1_555
Cr2 O17 2.035904 1_655
Cr2 O16 2.042734 1_555
Cr2 O14 2.050076 1_555
Cr2 O20 2.072103 1_555
Cr2 O28 2.472401 1_555
Cr2 O6 2.509902 1_555
Cr3 O8 2.035904 1_455
Cr3 O9 2.042734 1_555
Cr3 O11 2.050076 1_545
Cr3 O5 2.072103 1_555
Cr3 O33 2.472401 1_554
Cr3 O19 2.509902 1_555
O0 P10 1.489788 1_555
O1 P8 1.489788 1_555
O2 P5 1.511972 1_556
O3 P3 1.599581 1_555
O3 P8 1.634048 1_555
O4 P5 1.599581 1_565
O4 P4 1.634048 1_555
O5 P3 1.511972 1_554
O6 P4 1.489788 1_555
O7 P8 1.617534 1_554
O7 P6 1.623634 1_555
O8 P5 1.508883 1_555
O9 P7 1.512173 1_555
O10 P6 1.495288 1_555
O11 P4 1.520113 1_455
O12 P5 1.604018 1_555
O12 P7 1.615996 1_555
O13 P11 1.604018 1_555
O13 P6 1.615996 1_555
O14 P9 1.520113 1_655
O15 P7 1.495288 1_565
O16 P6 1.512173 1_555
O17 P11 1.508883 1_555
O18 P10 1.617534 1_555
O18 P7 1.623634 1_555
O19 P9 1.489788 1_555
O20 P0 1.511972 1_555
O21 P3 1.508883 1_555
O22 P0 1.599581 1_545
O22 P10 1.634048 1_555
O23 P11 1.511972 1_555
O24 P11 1.599581 1_555
O24 P9 1.634048 1_555
O25 P9 1.617534 1_655
O25 P1 1.623634 1_555
O26 P0 1.508883 1_555
O27 P2 1.512173 1_555
O28 P1 1.495288 1_555
O29 P10 1.520113 1_555
O30 P0 1.604018 1_555
O30 P2 1.615996 1_655
O31 P3 1.604018 1_555
O31 P1 1.615996 1_455
O32 P8 1.520113 1_555
O33 P2 1.495288 1_545
O34 P1 1.512173 1_555
O35 P4 1.617534 1_456
O35 P2 1.623634 1_555
