# generated using pymatgen
data_TiCu
_symmetry_space_group_name_H-M   'P 1'
_cell_length_a   3.09757650
_cell_length_b   3.09757650
_cell_length_c   5.88428530
_cell_angle_alpha   90.00000000
_cell_angle_beta   90.00000000
_cell_angle_gamma   90.00000000
_symmetry_Int_Tables_number   1
_chemical_formula_structural   TiCu
_chemical_formula_sum   'Ti2 Cu2'
_cell_volume   56.45960079
_cell_formula_units_Z   2
loop_
 _symmetry_equiv_pos_site_id
 _symmetry_equiv_pos_as_xyz
  1  'x, y, z'
loop_
 _atom_site_type_symbol
 _atom_site_label
 _atom_site_symmetry_multiplicity
 _atom_site_fract_x
 _atom_site_fract_y
 _atom_site_fract_z
 _atom_site_occupancy
  Ti  Ti0  1  0.75000000  0.75000000  0.35450097  1
  Ti  Ti1  1  0.25000000  0.25000000  0.64549903  1
  Cu  Cu0  1  0.75000000  0.75000000  0.89220649  1
  Cu  Cu1  1  0.25000000  0.25000000  0.10779351  1
loop_
_geom_bond_atom_site_label_1
_geom_bond_atom_site_label_2
_geom_bond_distance
_geom_bond_site_symmetry_2
Ti0 Ti1 2.780201 1_565
Ti0 Ti1 2.780201 1_655
Ti0 Ti1 2.780201 1_665
Ti0 Ti1 2.780201 1_555
Cu0 Cu1 2.531161 1_556
Cu0 Cu1 2.531161 1_656
Cu0 Cu1 2.531161 1_566
Cu0 Cu1 2.531161 1_666
Cu0 Ti1 2.627720 1_665
Cu0 Ti1 2.627720 1_555
Cu0 Ti1 2.627720 1_565
Cu0 Ti1 2.627720 1_655
Cu0 Ti0 2.720273 1_556
Cu1 Ti0 2.627720 1_545
Cu1 Ti0 2.627720 1_445
Cu1 Ti0 2.627720 1_455
Cu1 Ti0 2.627720 1_555
Cu1 Ti1 2.720273 1_554
