# generated using pymatgen
data_V5Ge3
_symmetry_space_group_name_H-M   'P 1'
_cell_length_a   7.26521091
_cell_length_b   7.26521242
_cell_length_c   4.94766707
_cell_angle_alpha   90.00000000
_cell_angle_beta   90.00000000
_cell_angle_gamma   119.99997551
_symmetry_Int_Tables_number   1
_chemical_formula_structural   V5Ge3
_chemical_formula_sum   'V10 Ge6'
_cell_volume   226.16622543
_cell_formula_units_Z   2
loop_
 _symmetry_equiv_pos_site_id
 _symmetry_equiv_pos_as_xyz
  1  'x, y, z'
loop_
 _atom_site_type_symbol
 _atom_site_label
 _atom_site_symmetry_multiplicity
 _atom_site_fract_x
 _atom_site_fract_y
 _atom_site_fract_z
 _atom_site_occupancy
  V  V0  1  0.74889303  0.99999900  0.74999900  1
  V  V1  1  0.74889203  0.74889303  0.25000100  1
  V  V2  1  0.00000000  0.25110597  0.25000100  1
  V  V3  1  -0.00000000  0.74889403  0.74999900  1
  V  V4  1  0.25110797  0.25110697  0.74999900  1
  V  V5  1  0.25110697  0.00000100  0.25000100  1
  V  V6  1  0.33333400  0.66666600  -0.00000000  1
  V  V7  1  0.66666700  0.33333400  0.50000000  1
  V  V8  1  0.66666600  0.33333400  -0.00000000  1
  V  V9  1  0.33333400  0.66666600  0.50000000  1
  Ge  Ge0  1  0.38917609  0.99999900  0.75000100  1
  Ge  Ge1  1  0.38917509  0.38917609  0.24999900  1
  Ge  Ge2  1  0.00000100  0.61082391  0.24999900  1
  Ge  Ge3  1  0.99999900  0.38917609  0.75000100  1
  Ge  Ge4  1  0.61082491  0.61082391  0.75000100  1
  Ge  Ge5  1  0.61082391  0.00000100  0.24999900  1
loop_
_geom_bond_atom_site_label_1
_geom_bond_atom_site_label_2
_geom_bond_distance
_geom_bond_site_symmetry_2
V6 V9 2.473834 1_554
V6 V9 2.473834 1_555
V7 V8 2.473834 1_555
V7 V8 2.473834 1_556
Ge0 V3 2.482829 1_555
Ge0 V4 2.482832 1_565
Ge0 V6 2.564535 1_556
Ge0 V9 2.564540 1_555
Ge0 V8 2.564541 1_566
Ge0 V7 2.564548 1_565
Ge0 V0 2.613419 1_555
Ge0 V5 2.669472 1_565
Ge0 V5 2.669472 1_566
Ge1 V2 2.482823 1_555
Ge1 V5 2.482826 1_555
Ge1 V6 2.564524 1_555
Ge1 V9 2.564529 1_555
Ge1 V8 2.564534 1_555
Ge1 V7 2.564545 1_555
Ge1 V1 2.613421 1_555
Ge1 V4 2.669466 1_554
Ge1 V4 2.669466 1_555
Ge2 V5 2.482837 1_565
Ge2 V1 2.482845 1_455
Ge2 V6 2.564534 1_555
Ge2 V9 2.564539 1_555
Ge2 V8 2.564541 1_455
Ge2 V7 2.564542 1_455
Ge2 V2 2.613424 1_555
Ge2 V3 2.669473 1_555
Ge2 V3 2.669473 1_554
Ge3 V0 2.482837 1_545
Ge3 V4 2.482845 1_655
Ge3 V7 2.564533 1_555
Ge3 V8 2.564534 1_556
Ge3 V6 2.564541 1_656
Ge3 V9 2.564546 1_655
Ge3 V3 2.613424 1_655
Ge3 V2 2.669473 1_655
Ge3 V2 2.669473 1_656
Ge4 V3 2.482823 1_655
Ge4 V0 2.482826 1_555
Ge4 V8 2.564524 1_556
Ge4 V7 2.564533 1_555
Ge4 V6 2.564534 1_556
Ge4 V9 2.564539 1_555
Ge4 V4 2.613421 1_555
Ge4 V1 2.669466 1_555
Ge4 V1 2.669466 1_556
Ge5 V2 2.482829 1_655
Ge5 V1 2.482832 1_545
Ge5 V8 2.564535 1_555
Ge5 V7 2.564537 1_555
Ge5 V6 2.564541 1_545
Ge5 V9 2.564546 1_545
Ge5 V5 2.613419 1_555
Ge5 V0 2.669472 1_544
Ge5 V0 2.669472 1_545
