# generated using pymatgen
data_Dy(BC)2
_symmetry_space_group_name_H-M   'P 1'
_cell_length_a   3.57203823
_cell_length_b   5.33014105
_cell_length_c   5.33014105
_cell_angle_alpha   90.00000000
_cell_angle_beta   90.00000000
_cell_angle_gamma   90.00000000
_symmetry_Int_Tables_number   1
_chemical_formula_structural   Dy(BC)2
_chemical_formula_sum   'Dy2 B4 C4'
_cell_volume   101.48304783
_cell_formula_units_Z   2
loop_
 _symmetry_equiv_pos_site_id
 _symmetry_equiv_pos_as_xyz
  1  'x, y, z'
loop_
 _atom_site_type_symbol
 _atom_site_label
 _atom_site_symmetry_multiplicity
 _atom_site_fract_x
 _atom_site_fract_y
 _atom_site_fract_z
 _atom_site_occupancy
  Dy  Dy0  1  -0.00000000  0.50000000  0.50000000  1
  Dy  Dy1  1  -0.00000000  0.00000000  -0.00000000  1
  B  B0  1  0.50000000  0.63635982  0.13635982  1
  B  B1  1  0.50000000  0.86364018  0.63635982  1
  B  B2  1  0.50000000  0.36364018  0.86364018  1
  B  B3  1  0.50000000  0.13635982  0.36364018  1
  C  C0  1  0.50000000  0.66229957  0.83770043  1
  C  C1  1  0.50000000  0.83770043  0.33770043  1
  C  C2  1  0.50000000  0.16229957  0.66229957  1
  C  C3  1  0.50000000  0.33770043  0.16229957  1
loop_
_geom_bond_atom_site_label_1
_geom_bond_atom_site_label_2
_geom_bond_distance
_geom_bond_site_symmetry_2
B0 C1 1.517697 1_555
B0 C0 1.597890 1_554
B0 C3 1.597890 1_555
B0 Dy1 2.734036 1_665
B0 Dy1 2.734036 1_565
B0 Dy0 2.734036 1_655
B0 Dy0 2.734036 1_555
B1 C0 1.517697 1_555
B1 C1 1.597890 1_555
B1 C2 1.597890 1_565
B1 Dy1 2.734036 1_666
B1 Dy0 2.734036 1_655
B1 Dy1 2.734036 1_566
B1 Dy0 2.734036 1_555
B2 C2 1.517697 1_555
B2 C3 1.597890 1_556
B2 C0 1.597890 1_555
B2 Dy0 2.734036 1_655
B2 Dy0 2.734036 1_555
B2 Dy1 2.734036 1_556
B2 Dy1 2.734036 1_656
B3 C3 1.517697 1_555
B3 C1 1.597890 1_545
B3 C2 1.597890 1_555
B3 Dy0 2.734036 1_655
B3 Dy0 2.734036 1_555
B3 Dy1 2.734036 1_655
B3 Dy1 2.734036 1_555
C0 Dy1 2.679215 1_666
C0 Dy1 2.679215 1_566
C0 Dy0 2.679215 1_655
C0 Dy0 2.679215 1_555
C1 Dy1 2.679215 1_665
C1 Dy1 2.679215 1_565
C1 Dy0 2.679215 1_655
C1 Dy0 2.679215 1_555
C2 Dy1 2.679215 1_656
C2 Dy1 2.679215 1_556
C2 Dy0 2.679215 1_655
C2 Dy0 2.679215 1_555
C3 Dy0 2.679215 1_555
C3 Dy1 2.679215 1_555
C3 Dy0 2.679215 1_655
C3 Dy1 2.679215 1_655
