# generated using pymatgen
data_Na2W2O7
_symmetry_space_group_name_H-M   'P 1'
_cell_length_a   7.09118737
_cell_length_b   7.09118737
_cell_length_c   15.04439300
_cell_angle_alpha   90.00000000
_cell_angle_beta   90.00000000
_cell_angle_gamma   117.24639593
_symmetry_Int_Tables_number   1
_chemical_formula_structural   Na2W2O7
_chemical_formula_sum   'Na8 W8 O28'
_cell_volume   672.56892126
_cell_formula_units_Z   4
loop_
 _symmetry_equiv_pos_site_id
 _symmetry_equiv_pos_as_xyz
  1  'x, y, z'
loop_
 _atom_site_type_symbol
 _atom_site_label
 _atom_site_symmetry_multiplicity
 _atom_site_fract_x
 _atom_site_fract_y
 _atom_site_fract_z
 _atom_site_occupancy
  Na  Na0  1  0.66934900  0.33065100  0.34605300  1
  Na  Na1  1  0.25029300  0.25029300  0.00000000  1
  Na  Na2  1  0.33065100  0.66934900  0.65394700  1
  Na  Na3  1  0.74970700  0.74970700  0.00000000  1
  Na  Na4  1  0.24970700  0.24970700  0.50000000  1
  Na  Na5  1  0.75029300  0.75029300  0.50000000  1
  Na  Na6  1  0.16934900  0.83065100  0.15394700  1
  Na  Na7  1  0.83065100  0.16934900  0.84605300  1
  W  W0  1  0.16231100  0.33768900  0.25000000  1
  W  W1  1  0.74608200  0.25391800  0.58633600  1
  W  W2  1  0.33768900  0.16231100  0.75000000  1
  W  W3  1  0.83768900  0.66231100  0.75000000  1
  W  W4  1  0.75391800  0.24608200  0.08633600  1
  W  W5  1  0.25391800  0.74608200  0.41366400  1
  W  W6  1  0.24608200  0.75391800  0.91366400  1
  W  W7  1  0.66231100  0.83768900  0.25000000  1
  O  O0  1  0.12367200  0.87632800  0.46918200  1
  O  O1  1  0.86028700  0.13971300  0.00226900  1
  O  O2  1  0.19682500  0.20806600  0.83884800  1
  O  O3  1  0.37632800  0.62367200  0.96918200  1
  O  O4  1  0.69682500  0.70806600  0.66115200  1
  O  O5  1  0.79193400  0.80317500  0.83884800  1
  O  O6  1  0.93511000  0.47160000  0.65661300  1
  O  O7  1  0.80317500  0.79193400  0.16115200  1
  O  O8  1  0.43511000  0.97160000  0.84338700  1
  O  O9  1  0.29193400  0.30317500  0.66115200  1
  O  O10  1  0.87666700  0.12333300  0.28151100  1
  O  O11  1  0.63971300  0.36028700  0.50226900  1
  O  O12  1  0.12333300  0.87666700  0.71848900  1
  O  O13  1  0.62367200  0.37632800  0.03081800  1
  O  O14  1  0.37666700  0.62333300  0.21848900  1
  O  O15  1  0.13971300  0.86028700  0.99773100  1
  O  O16  1  0.52840000  0.06489000  0.65661300  1
  O  O17  1  0.02840000  0.56489000  0.84338700  1
  O  O18  1  0.47160000  0.93511000  0.34338700  1
  O  O19  1  0.36028700  0.63971300  0.49773100  1
  O  O20  1  0.62333300  0.37666700  0.78151100  1
  O  O21  1  0.06489000  0.52840000  0.34338700  1
  O  O22  1  0.20806600  0.19682500  0.16115200  1
  O  O23  1  0.97160000  0.43511000  0.15661300  1
  O  O24  1  0.56489000  0.02840000  0.15661300  1
  O  O25  1  0.30317500  0.29193400  0.33884800  1
  O  O26  1  0.87632800  0.12367200  0.53081800  1
  O  O27  1  0.70806600  0.69682500  0.33884800  1
loop_
_geom_bond_atom_site_label_1
_geom_bond_atom_site_label_2
_geom_bond_distance
_geom_bond_site_symmetry_2
Na0 O11 2.377413 1_555
Na0 O27 2.485306 1_555
Na0 O25 2.485306 1_555
Na0 O18 2.496765 1_545
Na0 O21 2.496765 1_655
Na0 O10 2.691533 1_555
Na1 O13 2.420192 1_555
Na1 O3 2.420192 1_554
Na1 O22 2.450989 1_555
Na1 O2 2.450989 1_554
Na1 O1 2.505782 1_455
Na1 O15 2.505782 1_544
Na2 O19 2.377413 1_555
Na2 O4 2.485306 1_555
Na2 O9 2.485306 1_555
Na2 O6 2.496765 1_455
Na2 O16 2.496765 1_565
Na2 O12 2.691533 1_555
Na3 O13 2.420192 1_555
Na3 O3 2.420192 1_554
Na3 O7 2.450989 1_555
Na3 O5 2.450989 1_554
Na3 O1 2.505782 1_565
Na3 O15 2.505782 1_654
Na4 O0 2.420192 1_545
Na4 O26 2.420192 1_455
Na4 O9 2.450989 1_555
Na4 O25 2.450989 1_555
Na4 O11 2.505782 1_555
Na4 O19 2.505782 1_555
Na5 O0 2.420192 1_655
Na5 O26 2.420192 1_565
Na5 O4 2.450989 1_555
Na5 O27 2.450989 1_555
Na5 O11 2.505782 1_555
Na5 O19 2.505782 1_555
Na6 O15 2.377413 1_554
Na6 O7 2.485306 1_455
Na6 O22 2.485306 1_565
Na6 O23 2.496765 1_455
Na6 O24 2.496765 1_565
Na6 O14 2.691533 1_555
Na7 O1 2.377413 1_556
Na7 O5 2.485306 1_545
Na7 O2 2.485306 1_655
Na7 O8 2.496765 1_545
Na7 O17 2.496765 1_655
Na7 O20 2.691533 1_555
O0 W5 1.784588 1_555
O1 W4 1.805100 1_555
O2 W2 1.785073 1_555
O3 W6 1.784588 1_555
O4 W3 1.785073 1_555
O5 W3 1.785073 1_555
O6 W1 1.844668 1_555
O6 W3 2.266158 1_555
O7 W7 1.785073 1_555
O8 W6 1.844668 1_555
O8 W2 2.266158 1_565
O9 W2 1.785073 1_555
O10 W0 1.954215 1_655
O10 W7 1.954215 1_545
O11 W1 1.805100 1_555
O12 W2 1.954215 1_565
O12 W3 1.954215 1_455
O13 W4 1.784588 1_555
O14 W7 1.954215 1_555
O14 W0 1.954215 1_555
O15 W6 1.805100 1_555
O16 W1 1.844668 1_555
O16 W2 2.266158 1_555
O17 W6 1.844668 1_555
O17 W3 2.266158 1_455
O18 W5 1.844668 1_555
O18 W7 2.266158 1_555
O19 W5 1.805100 1_555
O20 W3 1.954215 1_555
O20 W2 1.954215 1_555
O21 W5 1.844668 1_555
O21 W0 2.266158 1_555
O22 W0 1.785073 1_555
O23 W4 1.844668 1_555
O23 W0 2.266158 1_655
O24 W4 1.844668 1_555
O24 W7 2.266158 1_545
O25 W0 1.785073 1_555
O26 W1 1.784588 1_555
O27 W7 1.785073 1_555
