# generated using pymatgen
data_Na5Mg3SnP3(SO8)3
_symmetry_space_group_name_H-M   'P 1'
_cell_length_a   8.87114604
_cell_length_b   8.85749891
_cell_length_c   22.32341631
_cell_angle_alpha   90.37272837
_cell_angle_beta   89.70801034
_cell_angle_gamma   119.93258735
_symmetry_Int_Tables_number   1
_chemical_formula_structural   Na5Mg3SnP3(SO8)3
_chemical_formula_sum   'Na15 Mg9 Sn3 P9 S9 O72'
_cell_volume   1520.08040450
_cell_formula_units_Z   3
loop_
 _symmetry_equiv_pos_site_id
 _symmetry_equiv_pos_as_xyz
  1  'x, y, z'
loop_
 _atom_site_type_symbol
 _atom_site_label
 _atom_site_symmetry_multiplicity
 _atom_site_fract_x
 _atom_site_fract_y
 _atom_site_fract_z
 _atom_site_occupancy
  Na  Na0  1  0.00152913  0.63590962  0.25635089  1
  Na  Na1  1  0.29917455  0.33955350  0.58928358  1
  Na  Na2  1  0.02687120  0.69212641  0.58167240  1
  Na  Na3  1  0.67314174  0.96402316  0.57996394  1
  Na  Na4  1  0.67090323  0.69987567  0.08207936  1
  Na  Na5  1  0.03385875  0.33909669  0.08558025  1
  Na  Na6  1  0.97582260  0.67637113  0.91179819  1
  Na  Na7  1  0.32632634  0.29711311  0.90625355  1
  Na  Na8  1  0.70198793  0.67872376  0.41679314  1
  Na  Na9  1  0.99680077  0.00367907  0.49448730  1
  Na  Na10  1  0.99991766  0.99360789  0.99449563  1
  Na  Na11  1  0.65751079  0.32139408  0.82300754  1
  Na  Na12  1  0.65791656  0.30616761  0.33384768  1
  Na  Na13  1  0.33545358  0.67853489  0.17223452  1
  Na  Na14  1  0.33114373  0.65188933  0.66725840  1
  Mg  Mg0  1  0.00193544  0.00513964  0.35325222  1
  Mg  Mg1  1  0.99968291  0.00697711  0.84848179  1
  Mg  Mg2  1  0.99937641  0.00677805  0.65340956  1
  Mg  Mg3  1  0.00446551  0.99378844  0.15322565  1
  Mg  Mg4  1  0.66668289  0.34183498  0.68645655  1
  Mg  Mg5  1  0.66613406  0.33069251  0.18719035  1
  Mg  Mg6  1  0.32811174  0.67172901  0.01533813  1
  Mg  Mg7  1  0.33113915  0.66729688  0.51304279  1
  Mg  Mg8  1  0.33584740  0.67399031  0.32069989  1
  Sn  Sn0  1  0.66824187  0.33150667  0.98102077  1
  Sn  Sn1  1  0.68049446  0.33399377  0.48119831  1
  Sn  Sn2  1  0.33597407  0.66403355  0.81506989  1
  P  P0  1  0.29895011  0.29520065  0.75088078  1
  P  P1  1  0.96236649  0.33293130  0.58671608  1
  P  P2  1  0.66505079  0.62659930  0.58396010  1
  P  P3  1  0.96274150  0.62909631  0.08577826  1
  P  P4  1  0.62945528  0.67125471  0.92094005  1
  P  P5  1  0.04048793  0.37039695  0.91957046  1
  P  P6  1  0.33324823  0.95846385  0.91745780  1
  P  P7  1  0.62764397  0.96062239  0.41765611  1
  P  P8  1  0.04002500  0.67060307  0.41598664  1
  S  S0  1  0.29542944  0.00200434  0.25007244  1
  S  S1  1  0.70107653  0.70459258  0.24914306  1
  S  S2  1  0.00229299  0.29408798  0.24851926  1
  S  S3  1  0.00144531  0.70655745  0.75079208  1
  S  S4  1  0.70398124  0.00030931  0.74991969  1
  S  S5  1  0.37467003  0.04124443  0.58474173  1
  S  S6  1  0.66452326  0.03803785  0.08563689  1
  S  S7  1  0.37128060  0.33015594  0.08475862  1
  S  S8  1  0.33260582  0.37127790  0.41734682  1
  O  O0  1  0.21126904  0.02458452  0.30325320  1
  O  O1  1  0.81379251  0.78897990  0.30152173  1
  O  O2  1  0.98244855  0.18577474  0.30009744  1
  O  O3  1  0.21204660  0.19670666  0.80879427  1
  O  O4  1  0.98418425  0.78967847  0.80603138  1
  O  O5  1  0.80528074  0.01489948  0.80343374  1
  O  O6  1  0.77765640  0.97123569  0.69442143  1
  O  O7  1  0.19159271  0.21455349  0.69386507  1
  O  O8  1  0.02295341  0.80922389  0.69651934  1
  O  O9  1  0.78073229  0.80699295  0.19342332  1
  O  O10  1  0.02051368  0.21504221  0.19150208  1
  O  O11  1  0.18748433  0.97287267  0.19572047  1
  O  O12  1  0.87096766  0.36485712  0.63857398  1
  O  O13  1  0.48774469  0.12421357  0.63603694  1
  O  O14  1  0.63054122  0.50191155  0.63490077  1
  O  O15  1  0.87024933  0.50832577  0.13848958  1
  O  O16  1  0.63969059  0.12516049  0.13651213  1
  O  O17  1  0.48704544  0.35476688  0.13423384  1
  O  O18  1  0.44251713  0.29905516  0.02653726  1
  O  O19  1  0.84413056  0.54811695  0.02680744  1
  O  O20  1  0.69960370  0.14695750  0.02908717  1
  O  O21  1  0.44870907  0.15310180  0.52918000  1
  O  O22  1  0.70006954  0.55004777  0.52364009  1
  O  O23  1  0.84377519  0.28598977  0.52837149  1
  O  O24  1  0.54817530  0.69022609  0.97861984  1
  O  O25  1  0.14645453  0.44961038  0.97647545  1
  O  O26  1  0.30527018  0.84811602  0.97208989  1
  O  O27  1  0.55143243  0.85747530  0.47592383  1
  O  O28  1  0.31205794  0.44777089  0.47366097  1
  O  O29  1  0.13678569  0.68463447  0.47402286  1
  O  O30  1  0.11681918  0.63894241  0.35895640  1
  O  O31  1  0.51707611  0.87465870  0.36270221  1
  O  O32  1  0.36457594  0.48448088  0.36527220  1
  O  O33  1  0.12076771  0.49734879  0.86503646  1
  O  O34  1  0.36995354  0.88158354  0.85988773  1
  O  O35  1  0.50642747  0.62701847  0.86579000  1
  O  O36  1  0.01004541  0.82853578  0.41094236  1
  O  O37  1  0.81241389  0.98444912  0.41114398  1
  O  O38  1  0.18122461  0.19596606  0.41016868  1
  O  O39  1  0.02093860  0.19151499  0.91020468  1
  O  O40  1  0.17337996  0.98223226  0.91008785  1
  O  O41  1  0.81387222  0.82230500  0.91128739  1
  O  O42  1  0.98409956  0.17013540  0.59075070  1
  O  O43  1  0.19853975  0.02010697  0.59040871  1
  O  O44  1  0.83292517  0.80749449  0.58973133  1
  O  O45  1  0.97282129  0.80847000  0.08975586  1
  O  O46  1  0.82568960  0.02465860  0.08974798  1
  O  O47  1  0.19352311  0.18011275  0.08980653  1
  O  O48  1  0.68351826  0.15503237  0.74516288  1
  O  O49  1  0.48273546  0.31930922  0.74653156  1
  O  O50  1  0.84963265  0.52959403  0.74680699  1
  O  O51  1  0.69069126  0.53014212  0.24331404  1
  O  O52  1  0.84509325  0.31679903  0.24514249  1
  O  O53  1  0.47080354  0.15701171  0.24324972  1
  O  O54  1  0.64153283  0.49597769  0.92245219  1
  O  O55  1  0.85700281  0.36023366  0.92242861  1
  O  O56  1  0.49708414  0.14902619  0.92221463  1
  O  O57  1  0.63964180  0.14646921  0.42129540  1
  O  O58  1  0.49774262  0.35859286  0.42145933  1
  O  O59  1  0.84523331  0.50383063  0.41846208  1
  O  O60  1  0.36073238  0.49289529  0.07941365  1
  O  O61  1  0.14015865  0.63931594  0.07794742  1
  O  O62  1  0.51327787  0.86194903  0.07856655  1
  O  O63  1  0.35702739  0.86652598  0.57665706  1
  O  O64  1  0.50371687  0.64916281  0.57682610  1
  O  O65  1  0.14312330  0.49815256  0.57764768  1
  O  O66  1  0.30909000  0.83987542  0.25445498  1
  O  O67  1  0.52553834  0.68211643  0.25518340  1
  O  O68  1  0.15775511  0.47284095  0.25294867  1
  O  O69  1  0.31334937  0.48467882  0.75379470  1
  O  O70  1  0.16656583  0.69370031  0.75399608  1
  O  O71  1  0.52360009  0.83797422  0.75391256  1
loop_
_geom_bond_atom_site_label_1
_geom_bond_atom_site_label_2
_geom_bond_distance
_geom_bond_site_symmetry_2
Na0 O66 2.406364 1_555
Na0 O51 2.447996 1_455
Na0 O68 2.451107 1_555
Na0 O52 2.461200 1_455
Na0 O30 2.507753 1_555
Na0 O1 2.801297 1_455
Na0 O15 2.869673 1_455
Na0 O11 2.928752 1_555
Na1 O42 2.424726 1_455
Na1 O65 2.430333 1_555
Na1 O64 2.435002 1_555
Na1 O43 2.506692 1_555
Na1 O7 2.558033 1_555
Na1 O28 2.741120 1_555
Na1 O14 2.745729 1_555
Na1 O21 2.902878 1_555
Na2 O44 2.405372 1_455
Na2 O65 2.406012 1_555
Na2 O43 2.525333 1_565
Na2 O63 2.541810 1_555
Na2 O29 2.601671 1_555
Na2 O8 2.765934 1_555
Na2 O12 2.821047 1_455
Na2 O22 2.836000 1_455
Na3 O64 2.420152 1_555
Na3 O44 2.438711 1_555
Na3 O42 2.444534 1_565
Na3 O63 2.489936 1_555
Na3 O27 2.535886 1_555
Na3 O6 2.712023 1_555
Na3 O23 2.732688 1_565
Na3 O13 2.927431 1_565
Na4 O45 2.357905 1_555
Na4 O60 2.429357 1_555
Na4 O62 2.455230 1_555
Na4 O46 2.498887 1_565
Na4 O24 2.541055 1_554
Na4 O9 2.664404 1_555
Na4 O19 2.776934 1_555
Na4 O17 2.900204 1_555
Na5 O61 2.343359 1_555
Na5 O47 2.447803 1_555
Na5 O46 2.458603 1_455
Na5 O60 2.517823 1_555
Na5 O10 2.591056 1_555
Na5 O25 2.630300 1_554
Na5 O15 2.806970 1_455
Na5 O20 2.872872 1_455
Na6 O41 2.364039 1_555
Na6 O40 2.382198 1_655
Na6 O55 2.463524 1_555
Na6 O4 2.557770 1_555
Na6 O54 2.583217 1_555
Na6 O33 2.693884 1_655
Na6 O19 2.815993 1_556
Na6 O26 2.871184 1_655
Na7 O3 2.376886 1_555
Na7 O39 2.385774 1_555
Na7 O40 2.419197 1_545
Na7 O56 2.477219 1_555
Na7 O54 2.477711 1_555
Na7 O35 2.695905 1_555
Na7 O18 2.877958 1_556
Na8 O36 2.371891 1_655
Na8 O37 2.380010 1_555
Na8 O59 2.445755 1_555
Na8 O58 2.491759 1_555
Na8 O22 2.646514 1_555
Na8 O1 2.756653 1_555
Na8 O27 2.845735 1_555
Na8 O32 2.848215 1_555
Na9 O37 2.432065 1_545
Na9 O36 2.457787 1_645
Na9 O38 2.519916 1_655
Na9 O42 2.631824 1_555
Na9 O44 2.673791 1_545
Na9 O43 2.753961 1_655
Na10 O41 2.443750 1_555
Na10 O40 2.459933 1_655
Na10 O39 2.522185 1_665
Na10 O45 2.629799 1_556
Na10 O47 2.714002 1_666
Na10 O46 2.714598 1_566
Na11 O49 2.305820 1_555
Na11 O48 2.355049 1_555
Na11 O50 2.464515 1_555
Na11 O56 2.665423 1_555
Na11 O54 2.740508 1_555
Na11 O55 2.756556 1_555
Na12 O57 2.375256 1_555
Na12 O53 2.530216 1_555
Na12 O59 2.545592 1_555
Na12 O52 2.549531 1_555
Na12 O58 2.584204 1_555
Na12 O51 2.752323 1_555
Na13 O66 2.400174 1_555
Na13 O68 2.489684 1_555
Na13 O67 2.500198 1_555
Na13 O62 2.636864 1_555
Na13 O61 2.641868 1_555
Na13 O60 2.714121 1_555
Na14 O69 2.398139 1_555
Na14 O65 2.523874 1_555
Na14 O64 2.534650 1_555
Na14 O70 2.553306 1_555
Na14 O71 2.560749 1_555
Na14 O63 2.714287 1_555
Mg0 O37 2.050331 1_445
Mg0 O36 2.061580 1_545
Mg0 O2 2.073797 1_455
Mg0 O38 2.076239 1_555
Mg0 O0 2.094324 1_555
Mg0 O1 2.141701 1_445
Mg1 O3 2.000267 1_655
Mg1 O5 2.032170 1_555
Mg1 O39 2.066776 1_655
Mg1 O4 2.082062 1_545
Mg1 O41 2.161923 1_545
Mg1 O40 2.162471 1_645
Mg2 O7 1.993115 1_655
Mg2 O6 2.042909 1_545
Mg2 O42 2.071831 1_555
Mg2 O8 2.102619 1_645
Mg2 O44 2.168980 1_545
Mg2 O43 2.209561 1_655
Mg3 O11 1.971906 1_555
Mg3 O9 2.050860 1_455
Mg3 O10 2.071722 1_565
Mg3 O45 2.072349 1_455
Mg3 O47 2.187414 1_565
Mg3 O46 2.249156 1_465
Mg4 O14 1.978992 1_555
Mg4 O12 2.020556 1_555
Mg4 O49 2.038973 1_555
Mg4 O13 2.106800 1_555
Mg4 O50 2.124711 1_555
Mg4 O48 2.180439 1_555
Mg5 O15 2.023674 1_555
Mg5 O16 2.049105 1_555
Mg5 O53 2.068329 1_555
Mg5 O17 2.080274 1_555
Mg5 O51 2.080390 1_555
Mg5 O52 2.104077 1_555
Mg6 O26 1.936913 1_554
Mg6 O25 2.012044 1_554
Mg6 O24 2.043552 1_554
Mg6 O61 2.078388 1_555
Mg6 O62 2.181745 1_555
Mg6 O60 2.264953 1_555
Mg7 O29 2.009044 1_555
Mg7 O27 2.014869 1_555
Mg7 O28 2.057482 1_555
Mg7 O65 2.148559 1_555
Mg7 O64 2.160469 1_555
Mg7 O63 2.179388 1_555
Mg8 O31 1.940371 1_555
Mg8 O30 1.996412 1_555
Mg8 O32 2.079388 1_555
Mg8 O66 2.186793 1_555
Mg8 O67 2.198041 1_555
Mg8 O68 2.266732 1_555
O0 S0 1.464136 1_555
O1 S1 1.476618 1_555
O2 S2 1.456328 1_655
O3 P0 1.536280 1_555
O4 S3 1.478135 1_655
O5 S4 1.464378 1_555
O6 S4 1.477819 1_565
O7 P0 1.535865 1_555
O8 S3 1.473105 1_555
O9 S1 1.495085 1_555
O10 S2 1.495209 1_555
O11 S0 1.488927 1_565
O12 P1 1.514106 1_555
O13 S5 1.456911 1_555
O14 P2 1.510628 1_555
O15 P3 1.527341 1_555
O16 S6 1.445534 1_555
O17 S7 1.451557 1_555
O18 S7 1.524850 1_555
O18 Sn0 2.129192 1_554
O19 P3 1.613466 1_555
O19 Sn0 2.040498 1_554
O20 S6 1.527557 1_555
O20 Sn0 2.092971 1_554
O21 S5 1.519773 1_555
O21 Sn1 2.157431 1_555
O22 P2 1.601103 1_555
O22 Sn1 2.058274 1_555
O23 P1 1.595755 1_555
O23 Sn1 2.005957 1_555
O24 P4 1.521422 1_555
O25 P5 1.527096 1_555
O26 P6 1.508183 1_555
O27 P7 1.540708 1_555
O28 S8 1.477321 1_555
O29 P8 1.527589 1_555
O30 P8 1.529944 1_555
O31 P7 1.517095 1_555
O32 S8 1.471465 1_555
O33 P5 1.569538 1_555
O33 Sn2 2.062896 1_555
O34 P6 1.557887 1_555
O34 Sn2 2.050193 1_555
O35 P4 1.562380 1_555
O35 Sn2 2.047683 1_555
O36 P8 1.553685 1_555
O37 P7 1.550851 1_555
O38 S8 1.469105 1_555
O39 P5 1.518584 1_555
O40 P6 1.543865 1_555
O41 P4 1.526017 1_555
O42 P1 1.550436 1_555
O43 S5 1.482818 1_555
O44 P2 1.555534 1_555
O45 P3 1.548108 1_555
O46 S6 1.495714 1_555
O47 S7 1.474549 1_555
O48 S4 1.474025 1_555
O49 P0 1.537660 1_555
O50 S3 1.473535 1_655
O51 S1 1.506149 1_555
O52 S2 1.507356 1_655
O53 S0 1.482331 1_555
O54 P4 1.609237 1_555
O54 Sn0 2.064037 1_555
O55 P5 1.585700 1_655
O55 Sn0 2.033809 1_555
O56 P6 1.588625 1_545
O56 Sn0 2.045677 1_555
O57 P7 1.597247 1_545
O57 Sn1 2.013397 1_555
O58 S8 1.527386 1_555
O58 Sn1 2.198316 1_555
O59 P8 1.619840 1_655
O59 Sn1 2.042718 1_555
O60 S7 1.495918 1_555
O61 P3 1.539843 1_455
O62 S6 1.472529 1_565
O63 S5 1.485588 1_565
O64 P2 1.549799 1_555
O65 P1 1.553254 1_455
O66 S0 1.504041 1_565
O67 S1 1.473632 1_555
O68 S2 1.496278 1_555
O69 P0 1.619249 1_555
O69 Sn2 2.022731 1_555
O70 S3 1.526891 1_555
O70 Sn2 2.146168 1_555
O71 S4 1.529730 1_565
O71 Sn2 2.110221 1_555
