# generated using pymatgen
data_Na15Nb8Zn4Si9(PO8)9
_symmetry_space_group_name_H-M   'P 1'
_cell_length_a   9.03285325
_cell_length_b   9.02040332
_cell_length_c   22.45198126
_cell_angle_alpha   89.80152827
_cell_angle_beta   89.97921899
_cell_angle_gamma   120.11072961
_symmetry_Int_Tables_number   1
_chemical_formula_structural   Na15Nb8Zn4Si9(PO8)9
_chemical_formula_sum   'Na15 Nb8 Zn4 Si9 P9 O72'
_cell_volume   1582.51074045
_cell_formula_units_Z   1
loop_
 _symmetry_equiv_pos_site_id
 _symmetry_equiv_pos_as_xyz
  1  'x, y, z'
loop_
 _atom_site_type_symbol
 _atom_site_label
 _atom_site_symmetry_multiplicity
 _atom_site_fract_x
 _atom_site_fract_y
 _atom_site_fract_z
 _atom_site_occupancy
  Na  Na0  1  0.64059924  0.01913101  0.24121556  1
  Na  Na1  1  0.98317742  0.62340217  0.24075690  1
  Na  Na2  1  0.63825582  0.62151634  0.74134573  1
  Na  Na3  1  0.37500229  0.02021806  0.74161900  1
  Na  Na4  1  0.31421204  0.33878254  0.58795534  1
  Na  Na5  1  0.96214275  0.68131988  0.91196249  1
  Na  Na6  1  0.71505757  0.03275328  0.91137331  1
  Na  Na7  1  0.96034461  0.28425313  0.41185222  1
  Na  Na8  1  0.71201146  0.68098155  0.41028802  1
  Na  Na9  1  0.00952093  0.99262287  0.49187824  1
  Na  Na10  1  0.01358182  0.00976958  0.99270982  1
  Na  Na11  1  0.66852635  0.33305879  0.82471223  1
  Na  Na12  1  0.63970219  0.32355755  0.32530199  1
  Na  Na13  1  0.33328998  0.65735955  0.16245788  1
  Na  Na14  1  0.31859049  0.66673879  0.66370606  1
  Nb  Nb0  1  0.99718796  0.99844430  0.64387934  1
  Nb  Nb1  1  0.99961087  0.99771095  0.14357558  1
  Nb  Nb2  1  0.66195789  0.33396042  0.98240811  1
  Nb  Nb3  1  0.66561465  0.33400494  0.48174806  1
  Nb  Nb4  1  0.33717149  0.67504699  0.02205958  1
  Nb  Nb5  1  0.32737317  0.66656787  0.52144486  1
  Nb  Nb6  1  0.33044168  0.66082446  0.31201203  1
  Nb  Nb7  1  0.33435986  0.66405756  0.81269863  1
  Zn  Zn0  1  0.01858990  0.00410566  0.35307060  1
  Zn  Zn1  1  0.00527997  0.00135529  0.85329134  1
  Zn  Zn2  1  0.67307976  0.33355701  0.67767831  1
  Zn  Zn3  1  0.66146225  0.33139002  0.17799551  1
  Si  Si0  1  0.95358906  0.33366123  0.58545555  1
  Si  Si1  1  0.37806444  0.04019691  0.58838549  1
  Si  Si2  1  0.66658744  0.62425406  0.58593937  1
  Si  Si3  1  0.95758762  0.62103161  0.08737567  1
  Si  Si4  1  0.66846083  0.04408112  0.08723297  1
  Si  Si5  1  0.62296625  0.66219911  0.91665964  1
  Si  Si6  1  0.33503007  0.96323214  0.91560268  1
  Si  Si7  1  0.33329900  0.37083566  0.41786256  1
  Si  Si8  1  0.03924338  0.66794200  0.41578805  1
  P  P0  1  0.29341773  0.00375639  0.25148039  1
  P  P1  1  0.70921418  0.70948064  0.25301840  1
  P  P2  1  0.00190909  0.28731413  0.25328275  1
  P  P3  1  0.28681120  0.28959574  0.75185162  1
  P  P4  1  -0.00153997  0.70696614  0.75319249  1
  P  P5  1  0.71136305  0.00244830  0.75430379  1
  P  P6  1  0.37606508  0.33509188  0.08581317  1
  P  P7  1  0.04475090  0.37950010  0.91868027  1
  P  P8  1  0.61613196  0.95728169  0.41555196  1
  O  O0  1  0.21155762  0.01763217  0.30803441  1
  O  O1  1  0.80807868  0.78963804  0.31016267  1
  O  O2  1  0.97931684  0.18657547  0.31046996  1
  O  O3  1  0.19895796  0.17812111  0.80539359  1
  O  O4  1  0.97781773  0.78422799  0.81077718  1
  O  O5  1  0.80218688  0.01153857  0.81215653  1
  O  O6  1  0.80617209  0.97792339  0.69927038  1
  O  O7  1  0.18337083  0.20695150  0.69290682  1
  O  O8  1  0.02646935  0.83156315  0.69880860  1
  O  O9  1  0.80750743  0.83175353  0.19790488  1
  O  O10  1  0.02390428  0.19598624  0.19764272  1
  O  O11  1  0.17544540  0.97506261  0.19572366  1
  O  O12  1  0.88296789  0.37617894  0.64271781  1
  O  O13  1  0.47527133  0.10977074  0.64962364  1
  O  O14  1  0.61234464  0.50700817  0.64429666  1
  O  O15  1  0.88496417  0.51935611  0.14794682  1
  O  O16  1  0.63227591  0.11100472  0.14746594  1
  O  O17  1  0.48183533  0.37008806  0.14056313  1
  O  O18  1  0.46626125  0.30722703  0.02925284  1
  O  O19  1  0.83309391  0.52748868  0.02791767  1
  O  O20  1  0.69140632  0.16482599  0.02749675  1
  O  O21  1  0.47646352  0.17299986  0.53108858  1
  O  O22  1  0.69831619  0.53098328  0.52661431  1
  O  O23  1  0.83819556  0.30313094  0.52396616  1
  O  O24  1  0.51357353  0.67749678  0.97149459  1
  O  O25  1  0.15293311  0.47209646  0.97307242  1
  O  O26  1  0.31637292  0.83630432  0.97191263  1
  O  O27  1  0.52108267  0.84145563  0.46911375  1
  O  O28  1  0.32133245  0.47591486  0.47522521  1
  O  O29  1  0.16119116  0.68109843  0.47179027  1
  O  O30  1  0.13874519  0.64213393  0.35666741  1
  O  O31  1  0.50884752  0.87025199  0.35771189  1
  O  O32  1  0.36403331  0.50437660  0.35968800  1
  O  O33  1  0.13572695  0.49630367  0.86205408  1
  O  O34  1  0.36349158  0.86387860  0.85655667  1
  O  O35  1  0.50193078  0.63580870  0.85627808  1
  O  O36  1  0.00382249  0.82378779  0.41481807  1
  O  O37  1  0.79302080  0.97516395  0.41322605  1
  O  O38  1  0.15805237  0.19299984  0.41537606  1
  O  O39  1  0.01390005  0.19898200  0.91424144  1
  O  O40  1  0.16362819  0.97202031  0.91420881  1
  O  O41  1  0.80728698  0.83310800  0.91520819  1
  O  O42  1  0.97888154  0.16278745  0.59165504  1
  O  O43  1  0.18826114  0.02999933  0.59096221  1
  O  O44  1  0.83958453  0.81399112  0.59233838  1
  O  O45  1  0.97977997  0.81650440  0.09171831  1
  O  O46  1  0.84446781  0.02840364  0.09132322  1
  O  O47  1  0.19614491  0.16879425  0.08944560  1
  O  O48  1  0.67291779  0.14785241  0.74871587  1
  O  O49  1  0.47063053  0.32213912  0.74862905  1
  O  O50  1  0.84101439  0.53052860  0.74527832  1
  O  O51  1  0.68378713  0.53074776  0.24529401  1
  O  O52  1  0.85087369  0.31922057  0.24834471  1
  O  O53  1  0.47665601  0.15186196  0.24542287  1
  O  O54  1  0.64276817  0.49098113  0.92198511  1
  O  O55  1  0.86874568  0.37563326  0.92177932  1
  O  O56  1  0.51852762  0.14364368  0.92177111  1
  O  O57  1  0.63123205  0.13574332  0.42063982  1
  O  O58  1  0.51409931  0.36839428  0.42101208  1
  O  O59  1  0.85626651  0.48335058  0.42030978  1
  O  O60  1  0.34576976  0.48653582  0.07330752  1
  O  O61  1  0.14852002  0.64716218  0.07434272  1
  O  O62  1  0.50632762  0.84833386  0.07463393  1
  O  O63  1  0.34756529  0.84961631  0.57453071  1
  O  O64  1  0.50379940  0.65152409  0.57167638  1
  O  O65  1  0.15364863  0.49063782  0.57485737  1
  O  O66  1  0.30232752  0.82875227  0.25314029  1
  O  O67  1  0.53184940  0.70803670  0.25349330  1
  O  O68  1  0.17183511  0.47329744  0.25520586  1
  O  O69  1  0.30116389  0.47354550  0.75484436  1
  O  O70  1  0.17182553  0.70136606  0.75447750  1
  O  O71  1  0.52787920  0.82443846  0.75354739  1
loop_
_geom_bond_atom_site_label_1
_geom_bond_atom_site_label_2
_geom_bond_distance
_geom_bond_site_symmetry_2
Na0 O16 2.274524 1_555
Na0 O53 2.327027 1_555
Na0 O52 2.409411 1_555
Na0 O67 2.478773 1_545
Na0 O66 2.662441 1_545
Na0 O31 2.903599 1_545
Na0 O9 2.939826 1_545
Na1 O15 2.278039 1_555
Na1 O52 2.385883 1_555
Na1 O51 2.398711 1_555
Na1 O66 2.542735 1_655
Na1 O68 2.674892 1_655
Na1 O30 2.922885 1_655
Na1 O11 2.924008 1_655
Na2 O49 2.346533 1_555
Na2 O50 2.354485 1_555
Na2 O14 2.375474 1_555
Na2 O71 2.500791 1_555
Na2 O69 2.657740 1_555
Na2 O35 2.889815 1_555
Na2 O6 2.934979 1_555
Na3 O13 2.234292 1_555
Na3 O48 2.342123 1_555
Na3 O49 2.414702 1_555
Na3 O70 2.534084 1_545
Na3 O71 2.746144 1_545
Na4 O43 2.424095 1_555
Na4 O65 2.461131 1_555
Na4 O64 2.483905 1_555
Na4 O42 2.622240 1_455
Na4 O7 2.632838 1_555
Na4 O14 2.659065 1_555
Na4 O28 2.799764 1_555
Na4 O21 2.867979 1_555
Na5 O40 2.324564 1_655
Na5 O41 2.399758 1_555
Na5 O4 2.428198 1_555
Na5 O55 2.454640 1_555
Na5 O54 2.519543 1_555
Na6 O41 2.334295 1_545
Na6 O39 2.340704 1_655
Na6 O5 2.402309 1_555
Na6 O56 2.447336 1_555
Na6 O55 2.691671 1_555
Na7 O38 2.312515 1_655
Na7 O37 2.414573 1_545
Na7 O59 2.416934 1_555
Na7 O2 2.480330 1_555
Na7 O57 2.583247 1_555
Na7 O23 2.787840 1_555
Na8 O36 2.282958 1_655
Na8 O37 2.373729 1_555
Na8 O1 2.428410 1_555
Na8 O58 2.478258 1_555
Na8 O59 2.693460 1_555
Na9 O36 2.292412 1_555
Na9 O38 2.358169 1_565
Na9 O37 2.581287 1_455
Na9 O43 2.670396 1_565
Na9 O44 2.744209 1_455
Na9 O42 2.810823 1_465
Na10 O40 2.350493 1_545
Na10 O39 2.447684 1_555
Na10 O41 2.466125 1_445
Na10 O47 2.673021 1_556
Na10 O45 2.740888 1_446
Na10 O46 2.742553 1_456
Na11 O48 2.406272 1_555
Na11 O49 2.439224 1_555
Na11 O50 2.443870 1_555
Na11 O56 2.674543 1_555
Na11 O54 2.684559 1_555
Na11 O55 2.734901 1_555
Na12 O53 2.348770 1_555
Na12 O51 2.471403 1_555
Na12 O58 2.555998 1_555
Na12 O52 2.588128 1_555
Na12 O57 2.702328 1_555
Na12 O59 2.765815 1_555
Na13 O61 2.560771 1_555
Na13 O62 2.563466 1_555
Na13 O60 2.566900 1_555
Na13 O68 2.600808 1_555
Na13 O67 2.605754 1_555
Na13 O66 2.658752 1_555
Na14 O63 2.518328 1_555
Na14 O65 2.524274 1_555
Na14 O70 2.535039 1_555
Na14 O69 2.636024 1_555
Na14 O71 2.643978 1_555
Na14 O64 2.704969 1_555
Nb0 O44 1.942186 1_555
Nb0 O42 1.958029 1_565
Nb0 O43 1.993665 1_665
Nb0 O6 2.057757 1_555
Nb0 O8 2.060051 1_655
Nb0 O7 2.102261 1_665
Nb1 O45 1.943968 1_555
Nb1 O46 1.950662 1_565
Nb1 O9 2.029645 1_555
Nb1 O47 2.060773 1_665
Nb1 O11 2.064096 1_655
Nb1 O10 2.083748 1_665
Nb2 O19 1.946032 1_556
Nb2 O20 1.954455 1_556
Nb2 O18 1.964255 1_556
Nb2 O54 2.027266 1_555
Nb2 O56 2.065197 1_555
Nb2 O55 2.184805 1_555
Nb3 O22 1.935224 1_555
Nb3 O21 1.937385 1_555
Nb3 O23 1.959858 1_555
Nb3 O58 2.062342 1_555
Nb3 O59 2.083507 1_555
Nb3 O57 2.153425 1_555
Nb4 O26 1.918807 1_554
Nb4 O62 1.946551 1_555
Nb4 O24 1.947180 1_554
Nb4 O61 1.977747 1_555
Nb4 O25 2.071023 1_554
Nb4 O60 2.083385 1_555
Nb5 O29 1.926386 1_555
Nb5 O63 1.972774 1_555
Nb5 O65 1.976324 1_555
Nb5 O28 1.988893 1_555
Nb5 O64 2.011773 1_555
Nb5 O27 2.036392 1_555
Nb6 O32 1.910190 1_555
Nb6 O30 1.933032 1_555
Nb6 O68 2.031090 1_555
Nb6 O31 2.044171 1_555
Nb6 O67 2.105805 1_555
Nb6 O66 2.116246 1_555
Nb7 O35 1.923471 1_555
Nb7 O34 1.955596 1_555
Nb7 O33 1.999951 1_555
Nb7 O69 2.056482 1_555
Nb7 O71 2.088055 1_555
Nb7 O70 2.114597 1_555
O0 P0 1.505978 1_555
O0 Zn0 1.964692 1_555
O1 P1 1.525054 1_555
O1 Zn0 2.147033 1_665
O2 P2 1.523687 1_655
O2 Zn0 2.079669 1_655
O3 P3 1.508730 1_555
O3 Zn1 1.986817 1_555
O4 P4 1.525942 1_655
O4 Zn1 2.081904 1_665
O5 P5 1.516890 1_555
O5 Zn1 2.096793 1_655
O6 P5 1.581234 1_565
O7 P3 1.577685 1_555
O8 P4 1.588415 1_555
O9 P1 1.594737 1_555
O10 P2 1.565212 1_555
O11 P0 1.579922 1_565
O12 Si0 1.566913 1_555
O12 Zn2 1.903631 1_555
O13 Si1 1.584045 1_555
O13 Zn2 2.013686 1_555
O14 Si2 1.595408 1_555
O14 Zn2 2.040607 1_555
O15 Si3 1.583665 1_555
O15 Zn3 1.990571 1_555
O16 Si4 1.582219 1_555
O16 Zn3 1.993757 1_555
O17 P6 1.491452 1_555
O17 Zn3 2.007003 1_555
O18 P6 1.595780 1_555
O19 Si3 1.677945 1_555
O20 Si4 1.670698 1_555
O21 Si1 1.673361 1_555
O22 Si2 1.677363 1_555
O23 Si0 1.668504 1_555
O24 Si5 1.627354 1_555
O25 P7 1.527388 1_555
O26 Si6 1.653447 1_555
O27 P8 1.537994 1_555
O28 Si7 1.637062 1_555
O29 Si8 1.636856 1_555
O30 Si8 1.683790 1_555
O31 P8 1.576864 1_555
O32 Si7 1.699236 1_555
O33 P7 1.588405 1_555
O34 Si6 1.692904 1_555
O35 Si5 1.682863 1_555
O36 Si8 1.590653 1_555
O36 Zn0 2.086133 1_565
O37 P8 1.524149 1_555
O37 Zn0 2.346421 1_665
O38 Si7 1.592196 1_555
O38 Zn0 2.076351 1_555
O39 P7 1.511606 1_555
O39 Zn1 2.221339 1_555
O40 Si6 1.589811 1_555
O40 Zn1 2.089306 1_565
O41 Si5 1.604391 1_555
O41 Zn1 2.166703 1_665
O42 Si0 1.673077 1_555
O43 Si1 1.671184 1_555
O44 Si2 1.646272 1_555
O45 Si3 1.674897 1_555
O46 Si4 1.667825 1_555
O47 P6 1.565603 1_555
O48 P5 1.520703 1_555
O48 Zn2 2.308443 1_555
O49 P3 1.535934 1_555
O49 Zn2 2.387489 1_555
O50 P4 1.522591 1_655
O50 Zn2 2.253364 1_555
O51 P1 1.520719 1_555
O51 Zn3 2.283150 1_555
O52 P2 1.533050 1_655
O52 Zn3 2.371344 1_555
O53 P0 1.524078 1_555
O53 Zn3 2.229303 1_555
O54 Si5 1.645462 1_555
O55 P7 1.574128 1_655
O56 Si6 1.646266 1_545
O57 P8 1.550508 1_545
O58 Si7 1.645843 1_555
O59 Si8 1.658922 1_655
O60 P6 1.546736 1_555
O61 Si3 1.645274 1_455
O62 Si4 1.658851 1_565
O63 Si1 1.629905 1_565
O64 Si2 1.639502 1_555
O65 Si0 1.660493 1_455
O66 P0 1.620782 1_565
O67 P1 1.595647 1_555
O68 P2 1.609104 1_555
O69 P3 1.599856 1_555
O70 P4 1.592196 1_555
O71 P5 1.629588 1_565
