# generated using pymatgen
data_PrCrO4
_symmetry_space_group_name_H-M   'P 1'
_cell_length_a   6.07734133
_cell_length_b   6.07730999
_cell_length_c   6.18551892
_cell_angle_alpha   106.05854473
_cell_angle_beta   106.05548811
_cell_angle_gamma   115.91135389
_symmetry_Int_Tables_number   1
_chemical_formula_structural   PrCrO4
_chemical_formula_sum   'Pr2 Cr2 O8'
_cell_volume   175.35762468
_cell_formula_units_Z   2
loop_
 _symmetry_equiv_pos_site_id
 _symmetry_equiv_pos_as_xyz
  1  'x, y, z'
loop_
 _atom_site_type_symbol
 _atom_site_label
 _atom_site_symmetry_multiplicity
 _atom_site_fract_x
 _atom_site_fract_y
 _atom_site_fract_z
 _atom_site_occupancy
  Pr  Pr0  1  0.12499300  0.87500045  0.24999953  1
  Pr  Pr1  1  0.87500433  0.12499561  0.74999419  1
  Cr  Cr0  1  0.37499157  0.62498227  0.75000427  1
  Cr  Cr1  1  0.62499660  0.37500833  0.25000086  1
  O  O0  1  0.78401132  0.72114051  0.41695520  1
  O  O1  1  0.36705952  0.80414125  0.58298288  1
  O  O2  1  0.72113889  0.78409227  0.91703032  1
  O  O3  1  0.80421115  0.36704962  0.08305298  1
  O  O4  1  0.63292818  0.19576111  0.41692482  1
  O  O5  1  0.21595918  0.27889792  0.58301013  1
  O  O6  1  0.19584539  0.63292744  0.91698960  1
  O  O7  1  0.27886187  0.21600421  0.08305721  1
loop_
_geom_bond_atom_site_label_1
_geom_bond_atom_site_label_2
_geom_bond_distance
_geom_bond_site_symmetry_2
Cr0 O5 1.701194 1_555
Cr0 O6 1.701444 1_555
Cr0 O2 1.701509 1_555
Cr0 O1 1.701700 1_555
Cr1 O0 1.701421 1_555
Cr1 O7 1.701481 1_555
Cr1 O3 1.701616 1_555
Cr1 O4 1.701672 1_555
O0 Pr1 2.441279 1_565
O0 Pr0 2.501917 1_655
O1 Pr0 2.441363 1_555
O1 Pr1 2.501933 1_565
O2 Pr0 2.441380 1_656
O2 Pr1 2.501938 1_565
O3 Pr1 2.441313 1_554
O3 Pr0 2.501928 1_655
O4 Pr1 2.441392 1_555
O4 Pr0 2.501892 1_545
O5 Pr0 2.441437 1_545
O5 Pr1 2.501954 1_455
O6 Pr0 2.441387 1_556
O6 Pr1 2.501840 1_455
O7 Pr1 2.441414 1_454
O7 Pr0 2.501984 1_545
