# generated using pymatgen
data_Ti5Sb3
_symmetry_space_group_name_H-M   'P 1'
_cell_length_a   7.19325282
_cell_length_b   8.33712834
_cell_length_c   10.20755277
_cell_angle_alpha   90.00000000
_cell_angle_beta   90.00000000
_cell_angle_gamma   90.00000000
_symmetry_Int_Tables_number   1
_chemical_formula_structural   Ti5Sb3
_chemical_formula_sum   'Ti20 Sb12'
_cell_volume   612.15788153
_cell_formula_units_Z   4
loop_
 _symmetry_equiv_pos_site_id
 _symmetry_equiv_pos_as_xyz
  1  'x, y, z'
loop_
 _atom_site_type_symbol
 _atom_site_label
 _atom_site_symmetry_multiplicity
 _atom_site_fract_x
 _atom_site_fract_y
 _atom_site_fract_z
 _atom_site_occupancy
  Ti  Ti0  1  0.79391128  0.93737628  0.94475271  1
  Ti  Ti1  1  0.29391128  0.06262372  0.55524729  1
  Ti  Ti2  1  0.20608687  0.43738033  0.05531229  1
  Ti  Ti3  1  0.70608787  0.56261967  0.44468771  1
  Ti  Ti4  1  0.20608787  0.06261967  0.05531229  1
  Ti  Ti5  1  0.70608687  0.93738033  0.44468771  1
  Ti  Ti6  1  0.79391128  0.56262372  0.94475271  1
  Ti  Ti7  1  0.29391128  0.43737628  0.55524729  1
  Ti  Ti8  1  0.18130018  0.75000000  0.76537832  1
  Ti  Ti9  1  0.68130018  0.25000000  0.73462168  1
  Ti  Ti10  1  0.81871489  0.25000000  0.23463596  1
  Ti  Ti11  1  0.31871489  0.75000000  0.26536404  1
  Ti  Ti12  1  0.47813060  0.75000000  0.99551309  1
  Ti  Ti13  1  0.97813060  0.25000000  0.50448691  1
  Ti  Ti14  1  0.52190927  0.25000000  0.00453824  1
  Ti  Ti15  1  0.02190927  0.75000000  0.49546176  1
  Ti  Ti16  1  0.67509086  0.75000000  0.71775015  1
  Ti  Ti17  1  0.17509086  0.25000000  0.78224985  1
  Ti  Ti18  1  0.32486726  0.25000000  0.28227585  1
  Ti  Ti19  1  0.82486726  0.75000000  0.21772415  1
  Sb  Sb0  1  0.93504954  0.50827430  0.67771132  1
  Sb  Sb1  1  0.43504954  0.49172570  0.82228868  1
  Sb  Sb2  1  0.06493305  0.00824589  0.32221940  1
  Sb  Sb3  1  0.56493305  0.99175411  0.17777960  1
  Sb  Sb4  1  0.06493305  0.49175411  0.32222040  1
  Sb  Sb5  1  0.56493305  0.50824589  0.17778060  1
  Sb  Sb6  1  0.93504954  0.99172570  0.67771132  1
  Sb  Sb7  1  0.43504954  0.00827430  0.82228868  1
  Sb  Sb8  1  0.41053397  0.75000000  0.52638034  1
  Sb  Sb9  1  0.91053397  0.25000000  0.97361966  1
  Sb  Sb10  1  0.58948849  0.25000000  0.47355007  1
  Sb  Sb11  1  0.08948849  0.75000000  0.02644993  1
loop_
_geom_bond_atom_site_label_1
_geom_bond_atom_site_label_2
_geom_bond_distance
_geom_bond_site_symmetry_2
Sb0 Ti16 2.779419 1_555
Sb0 Ti13 2.803410 1_555
Sb0 Ti15 2.812935 1_655
Sb0 Ti8 2.828404 1_655
Sb0 Ti9 2.881957 1_555
Sb0 Ti7 2.928407 1_655
Sb0 Ti3 2.928407 1_555
Sb0 Ti6 2.943847 1_555
Sb0 Ti17 2.959161 1_655
Sb1 Ti17 2.779419 1_555
Sb1 Ti12 2.803410 1_555
Sb1 Ti14 2.812935 1_556
Sb1 Ti9 2.828404 1_555
Sb1 Ti8 2.881957 1_555
Sb1 Ti6 2.928407 1_555
Sb1 Ti2 2.928411 1_556
Sb1 Ti7 2.943847 1_555
Sb1 Ti16 2.959161 1_555
Sb2 Ti18 2.779329 1_555
Sb2 Ti15 2.803299 1_545
Sb2 Ti13 2.813135 1_455
Sb2 Ti10 2.828156 1_455
Sb2 Ti11 2.881815 1_545
Sb2 Ti5 2.928272 1_445
Sb2 Ti1 2.928551 1_555
Sb2 Ti4 2.942650 1_555
Sb2 Ti19 2.958932 1_445
Sb3 Ti19 2.779331 1_555
Sb3 Ti14 2.803292 1_565
Sb3 Ti12 2.813128 1_554
Sb3 Ti11 2.828160 1_555
Sb3 Ti10 2.881817 1_565
Sb3 Ti4 2.928262 1_565
Sb3 Ti0 2.928543 1_554
Sb3 Ti5 2.942657 1_555
Sb3 Ti18 2.958936 1_565
Sb4 Ti18 2.779331 1_555
Sb4 Ti15 2.803292 1_555
Sb4 Ti13 2.813128 1_455
Sb4 Ti10 2.828160 1_455
Sb4 Ti11 2.881817 1_555
Sb4 Ti3 2.928262 1_455
Sb4 Ti7 2.928543 1_555
Sb4 Ti2 2.942657 1_555
Sb4 Ti19 2.958936 1_455
Sb5 Ti19 2.779329 1_555
Sb5 Ti14 2.803299 1_555
Sb5 Ti12 2.813135 1_554
Sb5 Ti11 2.828156 1_555
Sb5 Ti10 2.881815 1_555
Sb5 Ti2 2.928272 1_555
Sb5 Ti6 2.928551 1_554
Sb5 Ti3 2.942650 1_555
Sb5 Ti18 2.958932 1_555
Sb6 Ti16 2.779419 1_555
Sb6 Ti13 2.803410 1_565
Sb6 Ti15 2.812935 1_655
Sb6 Ti8 2.828404 1_655
Sb6 Ti9 2.881957 1_565
Sb6 Ti1 2.928407 1_665
Sb6 Ti5 2.928411 1_555
Sb6 Ti0 2.943847 1_555
Sb6 Ti17 2.959161 1_665
Sb7 Ti17 2.779419 1_555
Sb7 Ti12 2.803410 1_545
Sb7 Ti14 2.812935 1_556
Sb7 Ti9 2.828404 1_555
Sb7 Ti8 2.881957 1_545
Sb7 Ti0 2.928407 1_545
Sb7 Ti4 2.928407 1_556
Sb7 Ti1 2.943847 1_555
Sb7 Ti16 2.959161 1_545
Sb8 Ti16 2.727149 1_555
Sb8 Ti11 2.744982 1_555
Sb8 Ti1 2.753872 1_565
Sb8 Ti7 2.753872 1_555
Sb8 Ti5 2.766892 1_555
Sb8 Ti3 2.766897 1_555
Sb8 Ti15 2.813235 1_555
Sb8 Ti8 2.944582 1_555
Sb9 Ti17 2.727149 1_655
Sb9 Ti10 2.744982 1_556
Sb9 Ti0 2.753872 1_545
Sb9 Ti6 2.753872 1_555
Sb9 Ti2 2.766892 1_656
Sb9 Ti4 2.766897 1_656
Sb9 Ti14 2.813235 1_556
Sb9 Ti9 2.944582 1_555
Sb10 Ti18 2.726773 1_555
Sb10 Ti9 2.745517 1_555
Sb10 Ti5 2.753782 1_545
Sb10 Ti3 2.753784 1_555
Sb10 Ti7 2.767021 1_555
Sb10 Ti1 2.767021 1_555
Sb10 Ti13 2.813380 1_555
Sb10 Ti10 2.943843 1_555
Sb11 Ti19 2.726773 1_455
Sb11 Ti8 2.745517 1_554
Sb11 Ti2 2.753782 1_555
Sb11 Ti4 2.753784 1_565
Sb11 Ti6 2.767021 1_454
Sb11 Ti0 2.767021 1_454
Sb11 Ti12 2.813380 1_554
Sb11 Ti11 2.943843 1_555
