# generated using pymatgen
data_MgCoHO2
_symmetry_space_group_name_H-M   'P 1'
_cell_length_a   5.24502122
_cell_length_b   5.86918581
_cell_length_c   5.24502158
_cell_angle_alpha   32.24585825
_cell_angle_beta   42.35961435
_cell_angle_gamma   32.24585484
_symmetry_Int_Tables_number   1
_chemical_formula_structural   MgCoHO2
_chemical_formula_sum   'Mg1 Co1 H1 O2'
_cell_volume   45.80673967
_cell_formula_units_Z   1
loop_
 _symmetry_equiv_pos_site_id
 _symmetry_equiv_pos_as_xyz
  1  'x, y, z'
loop_
 _atom_site_type_symbol
 _atom_site_label
 _atom_site_symmetry_multiplicity
 _atom_site_fract_x
 _atom_site_fract_y
 _atom_site_fract_z
 _atom_site_occupancy
  Mg  Mg0  1  0.00000000  0.50000000  -0.00000000  1
  Co  Co0  1  0.00000000  -0.00000000  -0.00000000  1
  H  H0  1  0.50000000  0.50000000  0.50000000  1
  O  O0  1  0.50918734  0.27958209  0.50918734  1
  O  O1  1  0.49081266  0.72041791  0.49081266  1
loop_
_geom_bond_atom_site_label_1
_geom_bond_atom_site_label_2
_geom_bond_distance
_geom_bond_site_symmetry_2
Mg0 O0 2.033462 1_464
Mg0 O1 2.033462 1_545
Co0 O0 2.116960 1_545
Co0 O1 2.116960 1_454
Co0 O1 2.561102 1_445
Co0 O0 2.561102 1_554
Co0 O1 2.561102 1_544
Co0 O0 2.561102 1_455
H0 O1 1.212753 1_555
H0 O0 1.212753 1_555
H0 Mg0 1.895005 1_655
H0 Mg0 1.895005 1_556
