# generated using pymatgen
data_Ho6MgWO12
_symmetry_space_group_name_H-M   'P 1'
_cell_length_a   6.53279249
_cell_length_b   6.53279302
_cell_length_c   6.53279281
_cell_angle_alpha   99.55219809
_cell_angle_beta   99.55220033
_cell_angle_gamma   99.55220163
_symmetry_Int_Tables_number   1
_chemical_formula_structural   Ho6MgWO12
_chemical_formula_sum   'Ho6 Mg1 W1 O12'
_cell_volume   265.70418173
_cell_formula_units_Z   1
loop_
 _symmetry_equiv_pos_site_id
 _symmetry_equiv_pos_as_xyz
  1  'x, y, z'
loop_
 _atom_site_type_symbol
 _atom_site_label
 _atom_site_symmetry_multiplicity
 _atom_site_fract_x
 _atom_site_fract_y
 _atom_site_fract_z
 _atom_site_occupancy
  Ho  Ho0  1  0.13248500  0.30192900  0.65128800  1
  Ho  Ho1  1  0.67030000  0.39506400  0.85848600  1
  Ho  Ho2  1  0.39506300  0.85848600  0.67029900  1
  Ho  Ho3  1  0.65128900  0.13248600  0.30192900  1
  Ho  Ho4  1  0.30192900  0.65128800  0.13248600  1
  Ho  Ho5  1  0.85848700  0.67029900  0.39506400  1
  Mg  Mg0  1  0.27188700  0.27188700  0.27188700  1
  W  W0  1  0.98208300  0.98208300  0.98208300  1
  O  O0  1  0.41758000  0.18978500  0.55794100  1
  O  O1  1  0.18978400  0.55794000  0.41757900  1
  O  O2  1  0.55794100  0.41758000  0.18978500  1
  O  O3  1  0.58084700  0.82833300  0.40815700  1
  O  O4  1  0.82833400  0.40815800  0.58084700  1
  O  O5  1  0.40815700  0.58084600  0.82833300  1
  O  O6  1  0.05463100  0.91845600  0.68212500  1
  O  O7  1  0.30556200  0.98104700  0.09326600  1
  O  O8  1  0.09326600  0.30556300  0.98104700  1
  O  O9  1  0.91845700  0.68212500  0.05463000  1
  O  O10  1  0.68212600  0.05463000  0.91845600  1
  O  O11  1  0.98104600  0.09326600  0.30556300  1
loop_
_geom_bond_atom_site_label_1
_geom_bond_atom_site_label_2
_geom_bond_distance
_geom_bond_site_symmetry_2
Ho0 O8 2.207989 1_555
Ho0 O4 2.213937 1_455
Ho0 O0 2.249202 1_555
Ho0 O5 2.328352 1_555
Ho0 O11 2.393114 1_455
Ho0 O1 2.469347 1_555
Ho0 O6 2.520647 1_545
Ho1 O4 2.237533 1_555
Ho1 O5 2.258708 1_555
Ho1 O9 2.300189 1_556
Ho1 O10 2.332749 1_555
Ho1 O0 2.386317 1_555
Ho1 O2 2.387903 1_556
Ho2 O5 2.237539 1_555
Ho2 O3 2.258712 1_555
Ho2 O10 2.300197 1_565
Ho2 O6 2.332736 1_555
Ho2 O1 2.386321 1_555
Ho2 O0 2.387899 1_565
Ho3 O11 2.207978 1_555
Ho3 O3 2.213947 1_545
Ho3 O2 2.249199 1_555
Ho3 O4 2.328356 1_555
Ho3 O7 2.393124 1_545
Ho3 O0 2.469352 1_555
Ho3 O10 2.520648 1_554
Ho4 O7 2.207992 1_555
Ho4 O5 2.213947 1_554
Ho4 O1 2.249195 1_555
Ho4 O3 2.328352 1_555
Ho4 O8 2.393114 1_554
Ho4 O2 2.469347 1_555
Ho4 O9 2.520641 1_455
Ho5 O3 2.237538 1_555
Ho5 O4 2.258702 1_555
Ho5 O6 2.300189 1_655
Ho5 O9 2.332749 1_555
Ho5 O2 2.386317 1_555
Ho5 O1 2.387890 1_655
Mg0 O7 2.123233 1_545
Mg0 O8 2.123235 1_554
Mg0 O11 2.123240 1_455
Mg0 O1 2.144173 1_555
Mg0 O2 2.144178 1_555
Mg0 O0 2.144178 1_555
O6 W0 2.083403 1_455
O7 W0 2.119025 1_454
O8 W0 2.119031 1_445
O9 W0 2.083400 1_554
O10 W0 2.083394 1_545
O11 W0 2.119033 1_544
