# generated using pymatgen
data_MgNi2(SbO3)4
_symmetry_space_group_name_H-M   'P 1'
_cell_length_a   5.02931688
_cell_length_b   4.89657594
_cell_length_c   9.66075100
_cell_angle_alpha   89.99997632
_cell_angle_beta   90.00002337
_cell_angle_gamma   91.14546225
_symmetry_Int_Tables_number   1
_chemical_formula_structural   MgNi2(SbO3)4
_chemical_formula_sum   'Mg1 Ni2 Sb4 O12'
_cell_volume   237.86228531
_cell_formula_units_Z   1
loop_
 _symmetry_equiv_pos_site_id
 _symmetry_equiv_pos_as_xyz
  1  'x, y, z'
loop_
 _atom_site_type_symbol
 _atom_site_label
 _atom_site_symmetry_multiplicity
 _atom_site_fract_x
 _atom_site_fract_y
 _atom_site_fract_z
 _atom_site_occupancy
  Mg  Mg0  1  0.50000000  0.00000000  0.73661700  1
  Ni  Ni0  1  0.00000000  0.00000000  0.00397000  1
  Ni  Ni1  1  0.50000000  0.50000000  0.49758600  1
  Sb  Sb0  1  0.49999900  0.50000000  0.86663800  1
  Sb  Sb1  1  0.00000000  0.00000000  0.32548400  1
  Sb  Sb2  1  0.50000000  0.50000000  0.18639500  1
  Sb  Sb3  1  0.00000000  0.00000000  0.64552000  1
  O  O0  1  0.70440000  0.72224700  0.64920300  1
  O  O1  1  0.29560000  0.27775200  0.64920300  1
  O  O2  1  0.69444000  0.70111000  0.33412900  1
  O  O3  1  0.19425300  0.80007200  0.17647000  1
  O  O4  1  0.80574600  0.19992800  0.17646900  1
  O  O5  1  0.81149000  0.17083900  0.81982000  1
  O  O6  1  0.31264700  0.30558900  0.02674700  1
  O  O7  1  0.18272500  0.80772400  0.48752600  1
  O  O8  1  0.81727500  0.19227600  0.48752600  1
  O  O9  1  0.68735200  0.69441100  0.02674700  1
  O  O10  1  0.30556000  0.29889000  0.33412900  1
  O  O11  1  0.18851200  0.82916000  0.81982100  1
loop_
_geom_bond_atom_site_label_1
_geom_bond_atom_site_label_2
_geom_bond_distance
_geom_bond_site_symmetry_2
Mg0 O1 1.917162 1_555
Mg0 O0 1.917167 1_545
Mg0 O11 1.935885 1_545
Mg0 O5 1.935887 1_555
Ni0 O6 2.160052 1_555
Ni0 O9 2.160056 1_445
Ni0 O4 2.174441 1_455
Ni0 O3 2.174444 1_545
Ni0 O11 2.189810 1_544
Ni0 O5 2.189810 1_454
Ni1 O0 2.083692 1_555
Ni1 O1 2.083695 1_555
Ni1 O2 2.093115 1_555
Ni1 O10 2.093115 1_555
Ni1 O7 2.218600 1_555
Ni1 O8 2.218600 1_555
O0 Sb3 1.995071 1_665
O0 Sb0 2.570758 1_555
O1 Sb3 1.995068 1_555
O1 Sb0 2.570756 1_555
O2 Sb2 1.981030 1_555
O2 Sb1 2.102527 1_665
O3 Sb1 2.005859 1_565
O3 Sb2 2.150107 1_555
O4 Sb1 2.005867 1_655
O4 Sb2 2.150104 1_555
O5 Sb3 2.113232 1_655
O5 Sb0 2.314627 1_555
O6 Sb2 2.033947 1_555
O6 Sb0 2.037324 1_554
O7 Sb3 2.023672 1_565
O7 Sb1 2.053328 1_565
O8 Sb3 2.023671 1_655
O8 Sb1 2.053329 1_655
O9 Sb2 2.033945 1_555
O9 Sb0 2.037327 1_554
O10 Sb2 1.981030 1_555
O10 Sb1 2.102527 1_555
O11 Sb3 2.113245 1_565
O11 Sb0 2.314607 1_555
