# generated using pymatgen
data_MgCo4(AsS)4
_symmetry_space_group_name_H-M   'P 1'
_cell_length_a   5.85442099
_cell_length_b   5.85442099
_cell_length_c   5.85442099
_cell_angle_alpha   93.05051388
_cell_angle_beta   93.05051388
_cell_angle_gamma   86.94948612
_symmetry_Int_Tables_number   1
_chemical_formula_structural   MgCo4(AsS)4
_chemical_formula_sum   'Mg1 Co4 As4 S4'
_cell_volume   199.83202899
_cell_formula_units_Z   1
loop_
 _symmetry_equiv_pos_site_id
 _symmetry_equiv_pos_as_xyz
  1  'x, y, z'
loop_
 _atom_site_type_symbol
 _atom_site_label
 _atom_site_symmetry_multiplicity
 _atom_site_fract_x
 _atom_site_fract_y
 _atom_site_fract_z
 _atom_site_occupancy
  Mg  Mg0  1  0.29382600  0.79382600  0.70617400  1
  Co  Co0  1  0.49279700  0.49410500  0.01227300  1
  Co  Co1  1  0.52051300  0.02051300  0.47948700  1
  Co  Co2  1  0.98772700  0.99279700  0.00589500  1
  Co  Co3  1  0.99410500  0.48772700  0.50720300  1
  As  As0  1  0.62438000  0.88070300  0.11369000  1
  As  As1  1  0.07598100  0.57598100  0.92401900  1
  As  As2  1  0.38070300  0.38631000  0.37562000  1
  As  As3  1  0.88631000  0.12438000  0.61929700  1
  S  S0  1  0.41070200  0.14461900  0.87401100  1
  S  S1  1  0.86393500  0.36393500  0.13606500  1
  S  S2  1  0.12598900  0.91070200  0.35538100  1
  S  S3  1  0.64461900  0.62598900  0.58929800  1
loop_
_geom_bond_atom_site_label_1
_geom_bond_atom_site_label_2
_geom_bond_distance
_geom_bond_site_symmetry_2
Mg0 S2 2.348305 1_555
Mg0 S0 2.348305 1_565
Mg0 S3 2.348305 1_555
Co0 S0 2.226983 1_554
Co0 S1 2.354142 1_555
Co0 Mg0 2.746303 1_554
Co0 S3 2.833529 1_554
Co1 Mg0 2.417874 1_545
Co1 S0 2.491118 1_555
Co1 S3 2.491118 1_545
Co1 S2 2.491118 1_545
Co2 S2 2.226983 1_655
Co2 S1 2.354142 1_565
Co2 Mg0 2.746303 1_654
Co2 S0 2.833529 1_664
Co3 S3 2.226983 1_555
Co3 S1 2.354142 1_555
Co3 Mg0 2.746303 1_655
Co3 S2 2.833529 1_655
As0 Co1 2.350517 1_565
As0 Co2 2.385240 1_555
As0 S0 2.399852 1_564
As0 Co0 2.462189 1_555
As0 Mg0 3.029820 1_554
As1 S1 2.261711 1_456
As1 Mg0 2.323564 1_555
As1 Co0 2.493802 1_556
As1 Co2 2.493802 1_456
As1 Co3 2.493802 1_455
As2 Co1 2.350517 1_555
As2 Co0 2.385240 1_555
As2 S3 2.399852 1_555
As2 Co3 2.462189 1_455
As2 Mg0 3.029820 1_555
As3 Co1 2.350517 1_555
As3 Co3 2.385240 1_555
As3 S2 2.399852 1_645
As3 Co2 2.462189 1_546
As3 Mg0 3.029820 1_645
