# generated using pymatgen
data_Na3NbZnSi(PO6)2
_symmetry_space_group_name_H-M   'P 1'
_cell_length_a   15.78823188
_cell_length_b   9.04738663
_cell_length_c   8.86795416
_cell_angle_alpha   89.99999381
_cell_angle_beta   124.65607792
_cell_angle_gamma   90.00000228
_symmetry_Int_Tables_number   1
_chemical_formula_structural   Na3NbZnSi(PO6)2
_chemical_formula_sum   'Na12 Nb4 Zn4 Si4 P8 O48'
_cell_volume   1041.97749136
_cell_formula_units_Z   4
loop_
 _symmetry_equiv_pos_site_id
 _symmetry_equiv_pos_as_xyz
  1  'x, y, z'
loop_
 _atom_site_type_symbol
 _atom_site_label
 _atom_site_symmetry_multiplicity
 _atom_site_fract_x
 _atom_site_fract_y
 _atom_site_fract_z
 _atom_site_occupancy
  Na  Na0  1  0.24945348  0.72771008  0.97743580  1
  Na  Na1  1  0.74945337  0.77228998  0.47743557  1
  Na  Na2  1  0.74945347  0.22771004  0.97743562  1
  Na  Na3  1  0.24945350  0.27229004  0.47743557  1
  Na  Na4  1  0.50748783  0.10438091  0.74988713  1
  Na  Na5  1  0.50748785  0.89561911  0.24988715  1
  Na  Na6  1  0.00748788  0.60438097  0.74988722  1
  Na  Na7  1  0.00748791  0.39561921  0.24988729  1
  Na  Na8  1  0.18212983  0.93250624  0.29713923  1
  Na  Na9  1  0.18212986  0.06749368  0.79713918  1
  Na  Na10  1  0.68212983  0.43250637  0.29713912  1
  Na  Na11  1  0.68212978  0.56749385  0.79713905  1
  Nb  Nb0  1  0.89520393  0.75539800  0.93577944  1
  Nb  Nb1  1  0.89520385  0.24460219  0.43577895  1
  Nb  Nb2  1  0.39520391  0.25539800  0.93577924  1
  Nb  Nb3  1  0.39520380  0.74460232  0.43577890  1
  Zn  Zn0  1  0.10111185  0.74094339  0.55501293  1
  Zn  Zn1  1  0.10111189  0.25905653  0.05501306  1
  Zn  Zn2  1  0.60111187  0.24094344  0.55501298  1
  Zn  Zn3  1  0.60111185  0.75905658  0.05501299  1
  Si  Si0  1  0.64842747  0.89282806  0.74794617  1
  Si  Si1  1  0.64842742  0.10717184  0.24794622  1
  Si  Si2  1  0.14842756  0.39282806  0.74794636  1
  Si  Si3  1  0.14842753  0.60717185  0.24794627  1
  P  P0  1  -0.00011604  0.95794756  0.76197897  1
  P  P1  1  -0.00011620  0.04205248  0.26197891  1
  P  P2  1  0.49988385  0.45794758  0.76197880  1
  P  P3  1  0.49988387  0.54205235  0.26197894  1
  P  P4  1  0.35401253  0.90127378  0.76155873  1
  P  P5  1  0.35401252  0.09872597  0.26155870  1
  P  P6  1  0.85401260  0.40127382  0.76155877  1
  P  P7  1  0.85401246  0.59872607  0.26155864  1
  O  O0  1  0.15093486  0.57014081  0.74068152  1
  O  O1  1  0.85287639  0.57757650  0.75161358  1
  O  O2  1  0.85287632  0.42242385  0.25161345  1
  O  O3  1  0.15093475  0.42985898  0.24068138  1
  O  O4  1  0.65093481  0.07014121  0.74068146  1
  O  O5  1  0.35287622  0.07757644  0.75161332  1
  O  O6  1  0.35287639  0.92242393  0.25161344  1
  O  O7  1  0.65093466  0.92985912  0.24068129  1
  O  O8  1  0.43856567  0.56832143  0.59107865  1
  O  O9  1  0.56099491  0.54656085  0.93723875  1
  O  O10  1  0.56099465  0.45343942  0.43723830  1
  O  O11  1  0.43856557  0.43167802  0.09107821  1
  O  O12  1  0.93856575  0.06832138  0.59107868  1
  O  O13  1  0.06099492  0.04656078  0.93723876  1
  O  O14  1  0.06099485  0.95343953  0.43723843  1
  O  O15  1  0.93856574  0.93167799  0.09107846  1
  O  O16  1  0.25729369  0.85569372  0.74818450  1
  O  O17  1  0.74547772  0.80848014  0.75420866  1
  O  O18  1  0.74547759  0.19151970  0.25420853  1
  O  O19  1  0.25729368  0.14430651  0.24818462  1
  O  O20  1  0.75729347  0.35569359  0.74818432  1
  O  O21  1  0.24547773  0.30848032  0.75420875  1
  O  O22  1  0.24547765  0.69151966  0.25420865  1
  O  O23  1  0.75729370  0.64430646  0.24818459  1
  O  O24  1  0.35471390  0.85599688  0.58693359  1
  O  O25  1  0.65021478  0.82927941  0.91545568  1
  O  O26  1  0.65021484  0.17072024  0.41545579  1
  O  O27  1  0.35471397  0.14400299  0.08693387  1
  O  O28  1  0.85471395  0.35599692  0.58693382  1
  O  O29  1  0.15021484  0.32927952  0.91545544  1
  O  O30  1  0.15021492  0.67072057  0.41545568  1
  O  O31  1  0.85471394  0.64400303  0.08693378  1
  O  O32  1  0.45175562  0.84681602  0.93496558  1
  O  O33  1  0.53497325  0.82521271  0.55804838  1
  O  O34  1  0.53497296  0.17478740  0.05804818  1
  O  O35  1  0.45175559  0.15318391  0.43496561  1
  O  O36  1  0.95175575  0.34681615  0.93496562  1
  O  O37  1  0.03497305  0.32521278  0.55804823  1
  O  O38  1  0.03497290  0.67478731  0.05804807  1
  O  O39  1  0.95175572  0.65318412  0.43496568  1
  O  O40  1  0.07121379  0.85608284  0.74464739  1
  O  O41  1  0.91327504  0.86175877  0.75020644  1
  O  O42  1  0.91327520  0.13824109  0.25020657  1
  O  O43  1  0.07121365  0.14391702  0.24464749  1
  O  O44  1  0.57121377  0.35608295  0.74464718  1
  O  O45  1  0.41327498  0.36175891  0.75020613  1
  O  O46  1  0.41327515  0.63824091  0.25020630  1
  O  O47  1  0.57121362  0.64391687  0.24464731  1
loop_
_geom_bond_atom_site_label_1
_geom_bond_atom_site_label_2
_geom_bond_distance
_geom_bond_site_symmetry_2
Na0 O0 2.268402 1_555
Na0 O16 2.403194 1_555
Na0 O46 2.465912 1_556
Na0 O22 2.512069 1_556
Na0 O40 2.631106 1_555
Na0 O6 2.676960 1_556
Na1 O7 2.268401 1_555
Na1 O23 2.403193 1_555
Na1 O41 2.465912 1_555
Na1 O17 2.512070 1_555
Na1 O47 2.631108 1_555
Na1 O1 2.676959 1_555
Na2 O4 2.268399 1_555
Na2 O20 2.403192 1_555
Na2 O42 2.465913 1_556
Na2 O18 2.512070 1_556
Na2 O44 2.631107 1_555
Na2 O2 2.676960 1_556
Na3 O3 2.268400 1_555
Na3 O19 2.403191 1_555
Na3 O45 2.465910 1_555
Na3 O21 2.512072 1_555
Na3 O43 2.631108 1_555
Na3 O5 2.676958 1_555
Na4 O4 2.332831 1_555
Na4 O35 2.444115 1_555
Na4 O5 2.461755 1_555
Na4 O44 2.500691 1_555
Na4 O34 2.591015 1_556
Na4 O45 2.763998 1_555
Na5 O7 2.332830 1_555
Na5 O32 2.444116 1_554
Na5 O6 2.461754 1_555
Na5 O47 2.500691 1_555
Na5 O33 2.591015 1_555
Na5 O46 2.763998 1_555
Na6 O0 2.332832 1_555
Na6 O39 2.444116 1_455
Na6 O1 2.461754 1_455
Na6 O40 2.500689 1_555
Na6 O38 2.591014 1_556
Na6 O41 2.763997 1_455
Na7 O3 2.332830 1_555
Na7 O36 2.444117 1_454
Na7 O2 2.461755 1_455
Na7 O43 2.500691 1_555
Na7 O37 2.591014 1_555
Na7 O42 2.763998 1_455
Na8 O19 2.419632 1_565
Na8 O43 2.452485 1_565
Na8 O22 2.516343 1_555
Na8 O24 2.558153 1_555
Na8 O30 2.750585 1_555
Na8 O14 2.817696 1_555
Na8 O13 2.822534 1_564
Na8 O6 2.945564 1_555
Na9 O16 2.419630 1_545
Na9 O40 2.452484 1_545
Na9 O21 2.516343 1_555
Na9 O27 2.558154 1_556
Na9 O29 2.750586 1_555
Na9 O13 2.817698 1_555
Na9 O14 2.822535 1_545
Na9 O5 2.945561 1_555
Na10 O23 2.419631 1_555
Na10 O47 2.452483 1_555
Na10 O18 2.516343 1_555
Na10 O28 2.558154 1_555
Na10 O26 2.750590 1_555
Na10 O10 2.817699 1_555
Na10 O9 2.822534 1_554
Na10 O2 2.945562 1_555
Na11 O20 2.419631 1_555
Na11 O44 2.452484 1_555
Na11 O17 2.516341 1_555
Na11 O31 2.558154 1_556
Na11 O25 2.750586 1_555
Na11 O9 2.817698 1_555
Na11 O10 2.822536 1_555
Na11 O1 2.945563 1_555
Nb0 O15 1.958741 1_556
Nb0 O38 1.963649 1_656
Nb0 O17 2.020512 1_555
Nb0 O31 2.048336 1_556
Nb0 O41 2.061446 1_555
Nb0 O1 2.112083 1_555
Nb1 O12 1.958750 1_555
Nb1 O37 1.963651 1_655
Nb1 O18 2.020513 1_555
Nb1 O28 2.048338 1_555
Nb1 O42 2.061445 1_555
Nb1 O2 2.112082 1_555
Nb2 O11 1.958741 1_556
Nb2 O34 1.963649 1_556
Nb2 O21 2.020512 1_555
Nb2 O27 2.048338 1_556
Nb2 O45 2.061447 1_555
Nb2 O5 2.112083 1_555
Nb3 O8 1.958751 1_555
Nb3 O33 1.963653 1_555
Nb3 O22 2.020512 1_555
Nb3 O24 2.048336 1_555
Nb3 O46 2.061448 1_555
Nb3 O6 2.112081 1_555
O0 Si2 1.606901 1_555
O0 Zn0 2.060278 1_555
O1 P6 1.597052 1_555
O2 P7 1.597048 1_555
O3 Si3 1.606902 1_555
O3 Zn1 2.060276 1_555
O4 Si0 1.606904 1_545
O4 Zn2 2.060275 1_555
O5 P4 1.597052 1_545
O6 P5 1.597047 1_565
O7 Si1 1.606901 1_565
O7 Zn3 2.060277 1_555
O8 P2 1.600820 1_555
O9 P2 1.511211 1_555
O9 Zn3 2.106126 1_556
O10 P3 1.511206 1_555
O10 Zn2 2.106129 1_555
O11 P3 1.600826 1_555
O12 P0 1.600820 1_645
O13 P0 1.511210 1_545
O13 Zn1 2.106126 1_556
O14 P1 1.511207 1_565
O14 Zn0 2.106129 1_555
O15 P1 1.600825 1_665
O16 P4 1.519848 1_555
O16 Zn0 2.299707 1_555
O17 Si0 1.684181 1_555
O18 Si1 1.684181 1_555
O19 P5 1.519850 1_555
O19 Zn1 2.299706 1_555
O20 P6 1.519852 1_555
O20 Zn2 2.299704 1_555
O21 Si2 1.684180 1_555
O22 Si3 1.684180 1_555
O23 P7 1.519849 1_555
O23 Zn3 2.299707 1_555
O24 P4 1.607946 1_555
O25 Si0 1.578069 1_555
O25 Zn3 1.904586 1_556
O26 Si1 1.578068 1_555
O26 Zn2 1.904587 1_555
O27 P5 1.607944 1_555
O28 P6 1.607944 1_555
O29 Si2 1.578065 1_555
O29 Zn1 1.904589 1_556
O30 Si3 1.578068 1_555
O30 Zn0 1.904588 1_555
O31 P7 1.607945 1_555
O32 P4 1.513284 1_555
O32 Zn3 2.114056 1_556
O33 Si0 1.728593 1_555
O34 Si1 1.728596 1_555
O35 P5 1.513285 1_555
O35 Zn2 2.114057 1_555
O36 P6 1.513284 1_555
O36 Zn1 2.114056 1_656
O37 Si2 1.728596 1_555
O38 Si3 1.728598 1_555
O39 P7 1.513287 1_555
O39 Zn0 2.114055 1_655
O40 P0 1.529085 1_555
O40 Zn0 2.244726 1_555
O41 P0 1.573429 1_655
O42 P1 1.573425 1_655
O43 P1 1.529084 1_555
O43 Zn1 2.244728 1_555
O44 P2 1.529086 1_555
O44 Zn2 2.244725 1_555
O45 P2 1.573427 1_555
O46 P3 1.573425 1_555
O47 P3 1.529083 1_555
O47 Zn3 2.244728 1_555
