# generated using pymatgen
data_Na2LaYSi(SO6)2
_symmetry_space_group_name_H-M   'P 1'
_cell_length_a   9.44699494
_cell_length_b   9.44441035
_cell_length_c   24.28088599
_cell_angle_alpha   90.56043810
_cell_angle_beta   89.61736190
_cell_angle_gamma   119.83937581
_symmetry_Int_Tables_number   1
_chemical_formula_structural   Na2LaYSi(SO6)2
_chemical_formula_sum   'Na12 La6 Y6 Si6 S12 O72'
_cell_volume   1879.06855820
_cell_formula_units_Z   6
loop_
 _symmetry_equiv_pos_site_id
 _symmetry_equiv_pos_as_xyz
  1  'x, y, z'
loop_
 _atom_site_type_symbol
 _atom_site_label
 _atom_site_symmetry_multiplicity
 _atom_site_fract_x
 _atom_site_fract_y
 _atom_site_fract_z
 _atom_site_occupancy
  Na  Na0  1  0.00263139  0.62555226  0.25498714  1
  Na  Na1  1  0.37681084  0.00333667  0.74859150  1
  Na  Na2  1  0.65385377  0.97194279  0.59761418  1
  Na  Na3  1  0.02836427  0.34373463  0.09901545  1
  Na  Na4  1  0.98729876  0.67949856  0.92868606  1
  Na  Na5  1  0.31660342  0.00888044  0.42543782  1
  Na  Na6  1  0.02214774  0.97345918  0.50218989  1
  Na  Na7  1  0.02363247  0.97715007  0.00176931  1
  Na  Na8  1  0.65390492  0.28569686  0.83504636  1
  Na  Na9  1  0.71199042  0.34654641  0.33653655  1
  Na  Na10  1  0.31817212  0.64855537  0.16865234  1
  Na  Na11  1  0.34718492  0.68049352  0.66691979  1
  La  La0  1  0.99088352  0.00899420  0.84675664  1
  La  La1  1  0.00119937  0.99303799  0.15390808  1
  La  La2  1  0.65307849  0.32468428  0.98377150  1
  La  La3  1  0.33235453  0.68913657  0.01879932  1
  La  La4  1  0.31297922  0.66975137  0.51637293  1
  La  La5  1  0.35685048  0.68646242  0.81425519  1
  Y  Y0  1  0.99278976  0.00941882  0.34876820  1
  Y  Y1  1  0.00387395  0.99855884  0.64712208  1
  Y  Y2  1  0.66588001  0.32592239  0.68232257  1
  Y  Y3  1  0.67627310  0.33789828  0.18626205  1
  Y  Y4  1  0.67032473  0.34245849  0.48246846  1
  Y  Y5  1  0.31252444  0.64495108  0.31878117  1
  Si  Si0  1  0.00113575  0.30640365  0.24639326  1
  Si  Si1  1  0.69691125  0.00440970  0.74196550  1
  Si  Si2  1  0.36966884  0.04178526  0.58090737  1
  Si  Si3  1  0.96369912  0.63127241  0.08281459  1
  Si  Si4  1  0.32559673  0.97468976  0.91082722  1
  Si  Si5  1  0.02321038  0.67258458  0.41201136  1
  S  S0  1  0.30539519  0.99780032  0.25550574  1
  S  S1  1  0.69596526  0.69667593  0.25307551  1
  S  S2  1  0.30158813  0.29724881  0.74528079  1
  S  S3  1  0.99675287  0.69972008  0.74792265  1
  S  S4  1  0.95546223  0.32388833  0.58327346  1
  S  S5  1  0.67166907  0.63345170  0.58468262  1
  S  S6  1  0.67033471  0.03757738  0.08685589  1
  S  S7  1  0.36357299  0.33568097  0.08766136  1
  S  S8  1  0.64193065  0.66594589  0.91775469  1
  S  S9  1  0.03542384  0.37189284  0.91787295  1
  S  S10  1  0.62942242  0.96637384  0.41635179  1
  S  S11  1  0.33547290  0.36117375  0.41567990  1
  O  O0  1  0.22274402  0.01712252  0.30451839  1
  O  O1  1  0.80991378  0.78321400  0.29919826  1
  O  O2  1  0.98975702  0.18756895  0.29661668  1
  O  O3  1  0.23163062  0.20459546  0.79677370  1
  O  O4  1  0.98037849  0.76729547  0.80137532  1
  O  O5  1  0.79502823  0.00840020  0.79787763  1
  O  O6  1  0.79132825  0.99625696  0.68617117  1
  O  O7  1  0.19938714  0.20356258  0.69803967  1
  O  O8  1  0.01715092  0.81514445  0.70295731  1
  O  O9  1  0.76300189  0.78680010  0.20135322  1
  O  O10  1  0.01429480  0.22986225  0.18678902  1
  O  O11  1  0.19860560  0.96227285  0.20623777  1
  O  O12  1  0.87737830  0.34484320  0.63322947  1
  O  O13  1  0.48346255  0.13597733  0.63511206  1
  O  O14  1  0.66509586  0.54180854  0.63420821  1
  O  O15  1  0.85894881  0.51739797  0.13595962  1
  O  O16  1  0.65586691  0.12752854  0.13495209  1
  O  O17  1  0.45630659  0.33196943  0.13589805  1
  O  O18  1  0.44079126  0.32476694  0.03592851  1
  O  O19  1  0.87219541  0.54524965  0.02436554  1
  O  O20  1  0.67147189  0.11946527  0.03539543  1
  O  O21  1  0.46075298  0.14177311  0.52426921  1
  O  O22  1  0.68487729  0.55111638  0.53448581  1
  O  O23  1  0.86135176  0.31694504  0.53387248  1
  O  O24  1  0.55217104  0.66608108  0.96753920  1
  O  O25  1  0.12407935  0.44925189  0.96961364  1
  O  O26  1  0.30965390  0.85419351  0.96260681  1
  O  O27  1  0.56454780  0.87660274  0.46866464  1
  O  O28  1  0.31771538  0.43727067  0.46631024  1
  O  O29  1  0.15046795  0.70863267  0.46411390  1
  O  O30  1  0.11082005  0.64762232  0.35632071  1
  O  O31  1  0.52034953  0.87276154  0.37001289  1
  O  O32  1  0.35486141  0.46314954  0.36732166  1
  O  O33  1  0.13080918  0.46578111  0.86952411  1
  O  O34  1  0.33819039  0.88911000  0.85256157  1
  O  O35  1  0.54965697  0.65604569  0.86759881  1
  O  O36  1  0.02075868  0.84584017  0.40821251  1
  O  O37  1  0.79631502  0.99522614  0.40806086  1
  O  O38  1  0.18903338  0.19494846  0.40927856  1
  O  O39  1  0.00505133  0.20251687  0.91635575  1
  O  O40  1  0.14990922  0.97230854  0.91329207  1
  O  O41  1  0.80513163  0.81691389  0.91749718  1
  O  O42  1  0.95610314  0.16612565  0.58573031  1
  O  O43  1  0.18395198  0.01412551  0.58572676  1
  O  O44  1  0.81835946  0.80204866  0.58643575  1
  O  O45  1  0.99295763  0.81772352  0.08621304  1
  O  O46  1  0.82677878  0.03688906  0.08880430  1
  O  O47  1  0.19387875  0.19309519  0.08778804  1
  O  O48  1  0.66808025  0.16423306  0.74467812  1
  O  O49  1  0.46690884  0.31476782  0.74013578  1
  O  O50  1  0.85279693  0.53884330  0.73907080  1
  O  O51  1  0.68493950  0.53288764  0.24839587  1
  O  O52  1  0.84080234  0.33616675  0.24813833  1
  O  O53  1  0.46470772  0.14607918  0.24714171  1
  O  O54  1  0.67143085  0.52533016  0.91666964  1
  O  O55  1  0.87697232  0.37129429  0.91695939  1
  O  O56  1  0.48802936  0.15509762  0.91518572  1
  O  O57  1  0.63269076  0.12726018  0.41975852  1
  O  O58  1  0.47993347  0.33672073  0.41898423  1
  O  O59  1  0.84542294  0.50842861  0.42110571  1
  O  O60  1  0.35146106  0.48660326  0.08877044  1
  O  O61  1  0.13995942  0.63016951  0.08554202  1
  O  O62  1  0.53086474  0.86891142  0.08814882  1
  O  O63  1  0.36888671  0.86354295  0.58103232  1
  O  O64  1  0.52521931  0.65389084  0.58251364  1
  O  O65  1  0.12455222  0.46150709  0.58095650  1
  O  O66  1  0.32664705  0.85202507  0.26156369  1
  O  O67  1  0.53341612  0.67692730  0.26279786  1
  O  O68  1  0.16225469  0.49417150  0.25185498  1
  O  O69  1  0.31439036  0.45912263  0.74743135  1
  O  O70  1  0.14856758  0.68752333  0.74790133  1
  O  O71  1  0.50827418  0.84329742  0.74222409  1
loop_
_geom_bond_atom_site_label_1
_geom_bond_atom_site_label_2
_geom_bond_distance
_geom_bond_site_symmetry_2
Na0 O52 2.381400 1_455
Na0 O68 2.382850 1_555
Na0 O30 2.636951 1_555
Na0 O51 2.681193 1_455
Na0 O66 2.730294 1_555
Na1 O71 2.389928 1_545
Na1 O48 2.393305 1_555
Na1 O49 2.633614 1_555
Na1 O70 2.673078 1_545
Na1 O34 2.705411 1_545
Na2 O63 2.391913 1_555
Na2 O6 2.468564 1_555
Na2 O42 2.527424 1_565
Na2 O64 2.643094 1_555
Na2 O44 2.744224 1_555
Na2 O13 2.873076 1_565
Na3 O10 2.369637 1_555
Na3 O61 2.389817 1_555
Na3 O46 2.566441 1_455
Na3 O47 2.596873 1_555
Na3 O60 2.664013 1_555
Na3 O15 2.936076 1_455
Na4 O40 2.435593 1_655
Na4 O55 2.570770 1_555
Na4 O54 2.605582 1_555
Na4 O19 2.615156 1_556
Na4 O41 2.637317 1_555
Na4 O26 2.771501 1_655
Na5 O36 2.465258 1_545
Na5 O38 2.611855 1_555
Na5 O57 2.619327 1_555
Na5 O29 2.643797 1_545
Na5 O58 2.691500 1_555
Na5 O21 2.733533 1_555
Na6 O43 2.457675 1_565
Na6 O36 2.567217 1_555
Na6 O44 2.724357 1_455
Na6 O38 2.951891 1_565
Na6 O42 2.975824 1_465
Na7 O40 2.461409 1_554
Na7 O45 2.484621 1_455
Na7 O41 2.761372 1_454
Na7 O47 2.793884 1_565
Na8 O56 2.417865 1_555
Na8 O48 2.499642 1_555
Na8 O55 2.716494 1_555
Na8 O54 2.936168 1_555
Na8 O49 3.009366 1_555
Na9 O52 2.485379 1_555
Na9 O59 2.489629 1_555
Na9 O57 2.729709 1_555
Na9 O51 2.875970 1_555
Na9 O58 2.926554 1_555
Na9 O53 3.056012 1_555
Na10 O68 2.501508 1_555
Na10 O60 2.571565 1_555
Na10 O61 2.585434 1_555
Na10 O62 2.838146 1_555
Na10 O66 2.924560 1_555
Na10 O67 2.989974 1_555
Na11 O71 2.382635 1_555
Na11 O63 2.663055 1_555
Na11 O64 2.730669 1_555
Na11 O70 2.731947 1_555
Na11 O69 2.777764 1_555
Na11 O65 2.950098 1_555
La0 O5 2.202467 1_555
La0 O40 2.355486 1_645
La0 O3 2.425717 1_655
La0 O39 2.431758 1_655
La0 O4 2.482252 1_545
La0 O41 2.484619 1_545
La1 O45 2.295530 1_455
La1 O10 2.312231 1_565
La1 O11 2.398919 1_555
La1 O9 2.414996 1_455
La1 O47 2.461400 1_565
La1 O46 2.472276 1_465
La2 O56 2.295007 1_555
La2 O19 2.300384 1_556
La2 O18 2.365030 1_556
La2 O20 2.396557 1_556
La2 O54 2.450570 1_555
La2 O55 2.518100 1_555
La3 O26 2.171600 1_554
La3 O61 2.282746 1_555
La3 O25 2.443948 1_554
La3 O62 2.460218 1_555
La3 O24 2.513759 1_554
La3 O60 2.643697 1_555
La4 O29 2.167502 1_555
La4 O63 2.255331 1_555
La4 O65 2.456610 1_555
La4 O27 2.488714 1_555
La4 O28 2.518983 1_555
La4 O64 2.639749 1_555
La5 O34 2.204059 1_555
La5 O71 2.282090 1_555
La5 O35 2.374297 1_555
La5 O33 2.508432 1_555
La5 O69 2.546963 1_555
La5 O70 2.555339 1_555
O0 S0 1.477958 1_545
O0 Y0 2.385785 1_455
O1 S1 1.484460 1_555
O1 Y0 2.302605 1_565
O2 Si0 1.631942 1_655
O2 Y0 2.127279 1_555
O3 S2 1.483440 1_555
O4 S3 1.481582 1_555
O5 Si1 1.638503 1_555
O6 Si1 1.639204 1_565
O6 Y1 2.205159 1_655
O7 S2 1.474996 1_555
O7 Y1 2.261319 1_545
O8 S3 1.492962 1_455
O8 Y1 2.262481 1_555
O9 S1 1.475334 1_555
O10 Si0 1.642892 1_555
O11 S0 1.494261 1_555
O12 S4 1.477582 1_555
O12 Y2 2.249890 1_555
O13 Si2 1.650320 1_555
O13 Y2 2.100394 1_555
O14 S5 1.471366 1_555
O14 Y2 2.363009 1_555
O15 Si3 1.658935 1_555
O15 Y3 2.108287 1_555
O16 S6 1.482632 1_555
O16 Y3 2.260617 1_555
O17 S7 1.478359 1_555
O17 Y3 2.394486 1_555
O18 S7 1.476705 1_555
O19 Si3 1.648138 1_555
O20 S6 1.473078 1_555
O21 Si2 1.650572 1_555
O21 Y4 2.195171 1_555
O22 S5 1.477078 1_555
O22 Y4 2.276319 1_555
O23 S4 1.479262 1_555
O23 Y4 2.311124 1_555
O24 S8 1.472283 1_555
O25 S9 1.483484 1_555
O26 Si4 1.659321 1_555
O27 S10 1.483722 1_555
O28 S11 1.468298 1_555
O29 Si5 1.663204 1_555
O30 Si5 1.655918 1_555
O30 Y5 2.118155 1_555
O31 S10 1.482841 1_555
O31 Y5 2.409935 1_555
O32 S11 1.477673 1_555
O32 Y5 2.286148 1_555
O33 S9 1.479026 1_555
O34 Si4 1.655292 1_555
O35 S8 1.477352 1_555
O36 Si5 1.651426 1_555
O36 Y0 2.234896 1_465
O37 S10 1.473042 1_555
O37 Y0 2.292647 1_565
O38 S11 1.496465 1_555
O38 Y0 2.327936 1_455
O39 S9 1.478112 1_555
O40 Si4 1.649336 1_555
O41 S8 1.490791 1_555
O42 S4 1.494772 1_555
O42 Y1 2.386646 1_645
O43 Si2 1.643731 1_555
O43 Y1 2.204425 1_545
O44 S5 1.503738 1_555
O44 Y1 2.330525 1_655
O45 Si3 1.642300 1_555
O46 S6 1.482244 1_555
O47 S7 1.495020 1_555
O48 Si1 1.662486 1_555
O48 Y2 2.168392 1_555
O49 S2 1.490905 1_555
O49 Y2 2.299003 1_555
O50 S3 1.464740 1_555
O50 Y2 2.346296 1_555
O51 S1 1.500996 1_555
O51 Y3 2.339097 1_555
O52 Si0 1.672614 1_655
O52 Y3 2.174935 1_555
O53 S0 1.473621 1_545
O53 Y3 2.423101 1_555
O54 S8 1.486458 1_555
O55 S9 1.494398 1_655
O56 Si4 1.632721 1_545
O57 S10 1.505820 1_545
O57 Y4 2.408989 1_555
O58 S11 1.495893 1_555
O58 Y4 2.356368 1_555
O59 Si5 1.638220 1_655
O59 Y4 2.201289 1_555
O60 S7 1.485601 1_555
O61 Si3 1.672094 1_455
O62 S6 1.478605 1_565
O63 Si2 1.679762 1_565
O64 S5 1.490328 1_555
O65 S4 1.475894 1_455
O66 S0 1.495605 1_555
O66 Y5 2.358746 1_555
O67 S1 1.469553 1_555
O67 Y5 2.374143 1_555
O68 Si0 1.670671 1_555
O68 Y5 2.158157 1_555
O69 S2 1.472792 1_555
O70 S3 1.494848 1_455
O71 Si1 1.671130 1_565
