# generated using pymatgen
data_BaPrMgMn2O6
_symmetry_space_group_name_H-M   'P 1'
_cell_length_a   5.45447658
_cell_length_b   3.84349960
_cell_length_c   8.00822953
_cell_angle_alpha   90.00000000
_cell_angle_beta   90.00000000
_cell_angle_gamma   90.00000000
_symmetry_Int_Tables_number   1
_chemical_formula_structural   BaPrMgMn2O6
_chemical_formula_sum   'Ba1 Pr1 Mg1 Mn2 O6'
_cell_volume   167.88675459
_cell_formula_units_Z   1
loop_
 _symmetry_equiv_pos_site_id
 _symmetry_equiv_pos_as_xyz
  1  'x, y, z'
loop_
 _atom_site_type_symbol
 _atom_site_label
 _atom_site_symmetry_multiplicity
 _atom_site_fract_x
 _atom_site_fract_y
 _atom_site_fract_z
 _atom_site_occupancy
  Ba  Ba0  1  -0.00000000  0.00000000  0.50000000  1
  Pr  Pr0  1  -0.00000000  0.00000000  0.00000000  1
  Mg  Mg0  1  0.50000000  0.00000000  0.50000000  1
  Mn  Mn0  1  0.50000000  0.50000000  0.76892851  1
  Mn  Mn1  1  0.50000000  0.50000000  0.23107049  1
  O  O0  1  0.50000000  0.50000000  0.00000000  1
  O  O1  1  -0.00000000  0.50000000  0.78821920  1
  O  O2  1  0.50000000  -0.00000000  0.73625836  1
  O  O3  1  0.00000000  0.50000000  0.21178180  1
  O  O4  1  0.50000000  0.50000000  0.50000000  1
  O  O5  1  0.50000000  0.00000000  0.26374264  1
loop_
_geom_bond_atom_site_label_1
_geom_bond_atom_site_label_2
_geom_bond_distance
_geom_bond_site_symmetry_2
Ba0 Mg0 2.727238 1_555
Ba0 Mg0 2.727238 1_455
Ba0 O3 3.003419 1_555
Ba0 O3 3.003419 1_545
Ba0 O1 3.003426 1_555
Ba0 O1 3.003426 1_545
Mg0 O5 1.892003 1_555
Mg0 O2 1.892011 1_555
Mg0 O4 1.921750 1_545
Mg0 O4 1.921750 1_555
Mn0 O0 1.850474 1_556
Mn0 O2 1.939477 1_555
Mn0 O2 1.939477 1_565
Mn0 O4 2.153641 1_555
Mn0 O1 2.731610 1_655
Mn0 O1 2.731610 1_555
Mn1 O0 1.850466 1_555
Mn1 O5 1.939480 1_555
Mn1 O5 1.939480 1_565
Mn1 O4 2.153649 1_555
Mn1 O3 2.731609 1_555
Mn1 O3 2.731609 1_655
O1 Pr0 2.563104 1_566
O1 Pr0 2.563104 1_556
O3 Pr0 2.563109 1_565
O3 Pr0 2.563109 1_555
