# generated using pymatgen
data_Gd(CuO2)2
_symmetry_space_group_name_H-M   'P 1'
_cell_length_a   5.65282571
_cell_length_b   5.73299441
_cell_length_c   6.23674795
_cell_angle_alpha   116.58184401
_cell_angle_beta   116.16393670
_cell_angle_gamma   91.51481885
_symmetry_Int_Tables_number   1
_chemical_formula_structural   Gd(CuO2)2
_chemical_formula_sum   'Gd2 Cu4 O8'
_cell_volume   155.80224174
_cell_formula_units_Z   2
loop_
 _symmetry_equiv_pos_site_id
 _symmetry_equiv_pos_as_xyz
  1  'x, y, z'
loop_
 _atom_site_type_symbol
 _atom_site_label
 _atom_site_symmetry_multiplicity
 _atom_site_fract_x
 _atom_site_fract_y
 _atom_site_fract_z
 _atom_site_occupancy
  Gd  Gd0  1  0.87463570  0.12466373  0.74930278  1
  Gd  Gd1  1  0.12536430  0.87533627  0.25069722  1
  Cu  Cu0  1  0.50000000  0.00000000  -0.00000000  1
  Cu  Cu1  1  0.50000000  0.50000000  -0.00000000  1
  Cu  Cu2  1  0.00000000  0.50000000  0.50000000  1
  Cu  Cu3  1  0.50000000  0.50000000  0.50000000  1
  O  O0  1  0.71573416  0.52665177  0.85579183  1
  O  O1  1  0.14008771  0.82915305  0.85576622  1
  O  O2  1  0.28426584  0.47334823  0.14420817  1
  O  O3  1  0.85991229  0.17084695  0.14423378  1
  O  O4  1  0.53660870  0.13853020  0.34921155  1
  O  O5  1  0.81252419  0.71065480  0.34920877  1
  O  O6  1  0.18747581  0.28934520  0.65079123  1
  O  O7  1  0.46339130  0.86146980  0.65078845  1
loop_
_geom_bond_atom_site_label_1
_geom_bond_atom_site_label_2
_geom_bond_distance
_geom_bond_site_symmetry_2
Gd0 O3 2.396274 1_556
Gd0 O2 2.396562 1_656
Gd0 O7 2.404932 1_545
Gd0 O6 2.405245 1_655
Gd0 O0 2.413469 1_555
Gd0 O1 2.413545 1_645
Gd0 O4 2.421701 1_555
Gd0 O5 2.422017 1_545
Gd1 O1 2.396274 1_554
Gd1 O0 2.396562 1_454
Gd1 O4 2.404932 1_565
Gd1 O5 2.405245 1_455
Gd1 O2 2.413469 1_555
Gd1 O3 2.413545 1_465
Gd1 O7 2.421701 1_555
Gd1 O6 2.422017 1_565
Cu0 O1 1.843898 1_544
Cu0 O3 1.843898 1_555
Cu0 O7 1.860872 1_544
Cu0 O4 1.860872 1_555
Cu1 O2 1.843866 1_555
Cu1 O0 1.843866 1_554
Cu1 O5 1.860915 1_555
Cu1 O6 1.860915 1_554
Cu2 O5 1.916046 1_455
Cu2 O6 1.916046 1_555
Cu2 O3 1.932738 1_455
Cu2 O1 1.932738 1_555
Cu3 O4 1.916207 1_555
Cu3 O7 1.916207 1_555
Cu3 O2 1.932542 1_555
Cu3 O0 1.932542 1_555
