# generated using pymatgen
data_Na10Ti2Zn6Si3(S3O16)3
_symmetry_space_group_name_H-M   'P 1'
_cell_length_a   17.87338141
_cell_length_b   8.98202141
_cell_length_c   22.12901196
_cell_angle_alpha   90.36409569
_cell_angle_beta   89.80135572
_cell_angle_gamma   120.07978881
_symmetry_Int_Tables_number   1
_chemical_formula_structural   Na10Ti2Zn6Si3(S3O16)3
_chemical_formula_sum   'Na30 Ti6 Zn18 Si9 S27 O144'
_cell_volume   3074.07837439
_cell_formula_units_Z   3
loop_
 _symmetry_equiv_pos_site_id
 _symmetry_equiv_pos_as_xyz
  1  'x, y, z'
loop_
 _atom_site_type_symbol
 _atom_site_label
 _atom_site_symmetry_multiplicity
 _atom_site_fract_x
 _atom_site_fract_y
 _atom_site_fract_z
 _atom_site_occupancy
  Na  Na0  1  0.31677032  0.00284220  0.24763624  1
  Na  Na1  1  0.18753926  0.35935063  0.25050576  1
  Na  Na2  1  0.49653623  0.63112299  0.25371544  1
  Na  Na3  1  0.31148774  0.62220974  0.74103259  1
  Na  Na4  1  0.81650185  0.63206301  0.74631851  1
  Na  Na5  1  0.99861354  0.35813950  0.75274426  1
  Na  Na6  1  0.18474856  0.01431017  0.75446798  1
  Na  Na7  1  0.68805621  0.01689537  0.75046955  1
  Na  Na8  1  0.16139635  0.34940684  0.58540719  1
  Na  Na9  1  0.82841375  0.69060486  0.08191028  1
  Na  Na10  1  0.48292527  0.66278863  0.91829286  1
  Na  Na11  1  0.35249912  0.03973889  0.91668902  1
  Na  Na12  1  0.85281659  0.03568880  0.91970487  1
  Na  Na13  1  0.66215959  0.30016989  0.91827202  1
  Na  Na14  1  0.98074208  0.29957942  0.41679577  1
  Na  Na15  1  0.16092844  0.02356957  0.41643724  1
  Na  Na16  1  0.35342040  0.66895758  0.42099910  1
  Na  Na17  1  0.85166095  0.66354845  0.41556906  1
  Na  Na18  1  0.99391159  0.97330275  0.50021428  1
  Na  Na19  1  0.50555239  0.00550975  0.49782118  1
  Na  Na20  1  0.01191368  0.02005258  0.99701498  1
  Na  Na21  1  0.50234303  0.01603614  0.00048914  1
  Na  Na22  1  0.32801120  0.32915845  0.83355368  1
  Na  Na23  1  0.83550781  0.33689378  0.83133181  1
  Na  Na24  1  0.33547949  0.33283143  0.33135107  1
  Na  Na25  1  0.82686909  0.32666132  0.33110918  1
  Na  Na26  1  0.16196097  0.66475583  0.16086786  1
  Na  Na27  1  0.67546312  0.68876296  0.16294067  1
  Na  Na28  1  0.17360276  0.67347623  0.66099792  1
  Na  Na29  1  0.66358180  0.65879718  0.66037477  1
  Ti  Ti0  1  0.99516122  0.00673273  0.65336487  1
  Ti  Ti1  1  0.50228401  0.01010140  0.64405465  1
  Ti  Ti2  1  0.00034495  0.00018300  0.14726861  1
  Ti  Ti3  1  0.49514041  0.99035653  0.15092708  1
  Ti  Ti4  1  0.15890783  0.67284719  0.30979837  1
  Ti  Ti5  1  0.66012988  0.64606565  0.81130169  1
  Zn  Zn0  1  0.00176504  0.97720797  0.34617958  1
  Zn  Zn1  1  0.50318936  0.00118065  0.34811109  1
  Zn  Zn2  1  0.00471915  0.01795122  0.84543530  1
  Zn  Zn3  1  0.50488526  0.02783132  0.84758520  1
  Zn  Zn4  1  0.33069203  0.34667885  0.67711868  1
  Zn  Zn5  1  0.82675801  0.32092385  0.68234253  1
  Zn  Zn6  1  0.32699123  0.33277955  0.18301394  1
  Zn  Zn7  1  0.83148222  0.31742424  0.17729043  1
  Zn  Zn8  1  0.33382308  0.33050581  0.98322707  1
  Zn  Zn9  1  0.84146066  0.32107556  0.99623356  1
  Zn  Zn10  1  0.34649768  0.36091144  0.49431618  1
  Zn  Zn11  1  0.83310757  0.33747266  0.48283722  1
  Zn  Zn12  1  0.16509292  0.66420881  0.01466345  1
  Zn  Zn13  1  0.66520357  0.66809501  0.01967771  1
  Zn  Zn14  1  0.17123537  0.68253660  0.51822861  1
  Zn  Zn15  1  0.66495174  0.66366451  0.51463149  1
  Zn  Zn16  1  0.67133567  0.66604060  0.31845641  1
  Zn  Zn17  1  0.16440420  0.64832187  0.81808771  1
  Si  Si0  1  0.14603648  0.00228079  0.25096334  1
  Si  Si1  1  0.35207514  0.70303199  0.25522776  1
  Si  Si2  1  0.15126706  0.29694806  0.75152986  1
  Si  Si3  1  0.64649860  0.29084368  0.75097163  1
  Si  Si4  1  0.84985606  0.00046695  0.75610935  1
  Si  Si5  1  0.33317965  0.64310849  0.58233471  1
  Si  Si6  1  0.83103563  0.02765690  0.08283754  1
  Si  Si7  1  0.51921319  0.37366429  0.92071651  1
  Si  Si8  1  0.01868509  0.66480367  0.42034209  1
  S  S0  1  0.64713948  0.00366913  0.25006793  1
  S  S1  1  0.84942470  0.69812152  0.24808212  1
  S  S2  1  0.99758522  0.28978836  0.25316764  1
  S  S3  1  0.50527520  0.29536130  0.24896074  1
  S  S4  1  0.00153921  0.71338103  0.74897973  1
  S  S5  1  0.50082211  0.71076348  0.75232969  1
  S  S6  1  0.35410116  0.00325894  0.74911496  1
  S  S7  1  0.48281438  0.33441737  0.58485570  1
  S  S8  1  0.97793763  0.32343586  0.58504459  1
  S  S9  1  0.18126676  0.03540765  0.58499640  1
  S  S10  1  0.68332415  0.03187354  0.58316045  1
  S  S11  1  0.83481918  0.63676524  0.58396617  1
  S  S12  1  0.47944117  0.63384234  0.08628178  1
  S  S13  1  0.98373666  0.63388961  0.08472070  1
  S  S14  1  0.33546428  0.03288236  0.08427500  1
  S  S15  1  0.18340598  0.33460418  0.08337244  1
  S  S16  1  0.68182511  0.32355297  0.08434174  1
  S  S17  1  0.31386897  0.66526729  0.91630398  1
  S  S18  1  0.81601693  0.66432307  0.91531172  1
  S  S19  1  0.01646607  0.37176209  0.91703003  1
  S  S20  1  0.16409720  0.95554469  0.91632399  1
  S  S21  1  0.66657234  0.95930053  0.91472691  1
  S  S22  1  0.31526986  0.96586816  0.41463901  1
  S  S23  1  0.81173391  0.95926354  0.41664634  1
  S  S24  1  0.16618324  0.37269436  0.41528535  1
  S  S25  1  0.66372096  0.36812662  0.41693733  1
  S  S26  1  0.51989109  0.66495801  0.41495596  1
  O  O0  1  0.11372451  0.05170897  0.31203454  1
  O  O1  1  0.60905147  0.02315115  0.30633290  1
  O  O2  1  0.41079215  0.78782344  0.31413619  1
  O  O3  1  0.89671159  0.77598091  0.30546076  1
  O  O4  1  0.49243472  0.19286131  0.30348128  1
  O  O5  1  0.98746473  0.19516532  0.30958355  1
  O  O6  1  0.11062653  0.16631619  0.80683572  1
  O  O7  1  0.61490097  0.17675788  0.81164450  1
  O  O8  1  0.48649019  0.78298750  0.80894748  1
  O  O9  1  0.98376960  0.78309685  0.80390541  1
  O  O10  1  0.39803170  0.01618243  0.80742125  1
  O  O11  1  0.90541181  0.03132205  0.81645675  1
  O  O12  1  0.40133519  0.97742604  0.69777364  1
  O  O13  1  0.90286286  0.96727222  0.69813330  1
  O  O14  1  0.08334579  0.19081392  0.69146686  1
  O  O15  1  0.58206479  0.18356288  0.69425546  1
  O  O16  1  0.01235429  0.82551640  0.69517070  1
  O  O17  1  0.51276479  0.82351390  0.69980614  1
  O  O18  1  0.40692646  0.84305407  0.19762959  1
  O  O19  1  0.89713412  0.81137764  0.19482038  1
  O  O20  1  0.00925454  0.19862684  0.20030724  1
  O  O21  1  0.51392920  0.20396742  0.19422567  1
  O  O22  1  0.08193006  0.98269565  0.19457606  1
  O  O23  1  0.58817756  0.98583329  0.19707334  1
  O  O24  1  0.43938937  0.35098399  0.63866354  1
  O  O25  1  0.93534797  0.34022957  0.63942892  1
  O  O26  1  0.23218469  0.11975626  0.64013288  1
  O  O27  1  0.73099165  0.10385094  0.64036887  1
  O  O28  1  0.31461254  0.52278371  0.64131031  1
  O  O29  1  0.82655843  0.53565190  0.63857261  1
  O  O30  1  0.43546555  0.52906023  0.14015014  1
  O  O31  1  0.94281881  0.53383079  0.13958876  1
  O  O32  1  0.32697948  0.11792133  0.13926274  1
  O  O33  1  0.81750201  0.11898401  0.13992482  1
  O  O34  1  0.23166770  0.35933687  0.14064708  1
  O  O35  1  0.74022023  0.35423755  0.13602848  1
  O  O36  1  0.22579448  0.30668963  0.03077058  1
  O  O37  1  0.71957911  0.30158131  0.02658164  1
  O  O38  1  0.42924370  0.56247418  0.02998840  1
  O  O39  1  0.92807282  0.55827050  0.03025686  1
  O  O40  1  0.34768141  0.13360770  0.02862842  1
  O  O41  1  0.85289465  0.13057535  0.01882331  1
  O  O42  1  0.22340640  0.14072682  0.52960040  1
  O  O43  1  0.72592920  0.14304407  0.53059006  1
  O  O44  1  0.35290729  0.56894020  0.52040182  1
  O  O45  1  0.84555835  0.55694129  0.52767506  1
  O  O46  1  0.43185184  0.30301765  0.52862470  1
  O  O47  1  0.92906188  0.30221020  0.52864046  1
  O  O48  1  0.27074245  0.69442247  0.96843333  1
  O  O49  1  0.77781204  0.69165092  0.97075571  1
  O  O50  1  0.06911605  0.46584791  0.96983866  1
  O  O51  1  0.58514508  0.46841719  0.97514309  1
  O  O52  1  0.15897896  0.85395090  0.97011639  1
  O  O53  1  0.66057738  0.85991437  0.96882362  1
  O  O54  1  0.27709757  0.85690112  0.46787613  1
  O  O55  1  0.77175011  0.84811586  0.47001843  1
  O  O56  1  0.16051946  0.45669926  0.47112757  1
  O  O57  1  0.65395241  0.45044933  0.47207433  1
  O  O58  1  0.08465968  0.70271948  0.47461814  1
  O  O59  1  0.57090530  0.67487386  0.46818617  1
  O  O60  1  0.07302390  0.64626312  0.35905378  1
  O  O61  1  0.56070909  0.65503456  0.35677702  1
  O  O62  1  0.26052737  0.87567110  0.35857133  1
  O  O63  1  0.76222354  0.88088733  0.36040013  1
  O  O64  1  0.17700782  0.48103062  0.36056262  1
  O  O65  1  0.67831351  0.47634184  0.36218979  1
  O  O66  1  0.05573747  0.46001222  0.85855584  1
  O  O67  1  0.57255245  0.50046649  0.85979437  1
  O  O68  1  0.17689620  0.87650658  0.85940157  1
  O  O69  1  0.67698281  0.87511842  0.85867006  1
  O  O70  1  0.26789628  0.64892597  0.85837504  1
  O  O71  1  0.75919633  0.64661934  0.86055599  1
  O  O72  1  0.00440297  0.83056213  0.41367182  1
  O  O73  1  0.50916382  0.81986671  0.41606042  1
  O  O74  1  0.40310454  0.98996013  0.40812544  1
  O  O75  1  0.90100837  0.98237168  0.41226668  1
  O  O76  1  0.08465778  0.20281772  0.41206557  1
  O  O77  1  0.58609672  0.19469440  0.41121911  1
  O  O78  1  0.00684696  0.19662540  0.91766953  1
  O  O79  1  0.50495147  0.17912651  0.91430052  1
  O  O80  1  0.08594577  0.97100882  0.91405895  1
  O  O81  1  0.58482203  0.96649632  0.91246606  1
  O  O82  1  0.40303938  0.81979490  0.91385819  1
  O  O83  1  0.90289572  0.81668202  0.90856314  1
  O  O84  1  0.49266390  0.17573308  0.59016934  1
  O  O85  1  0.98604701  0.16124206  0.58931803  1
  O  O86  1  0.09435156  0.02708156  0.58858827  1
  O  O87  1  0.59449030  0.01545739  0.58854705  1
  O  O88  1  0.42141898  0.83535458  0.59591193  1
  O  O89  1  0.91545694  0.81172617  0.58884534  1
  O  O90  1  0.48833171  0.81255961  0.09386820  1
  O  O91  1  0.99053182  0.80994905  0.08982821  1
  O  O92  1  0.41706275  0.01896796  0.09006048  1
  O  O93  1  0.92067835  0.00750704  0.09670625  1
  O  O94  1  0.09450398  0.17551373  0.08907886  1
  O  O95  1  0.59476832  0.16380825  0.09196427  1
  O  O96  1  0.34518871  0.15617896  0.74189020  1
  O  O97  1  0.84242385  0.17048844  0.74485523  1
  O  O98  1  0.24786173  0.32192973  0.74457984  1
  O  O99  1  0.74563508  0.33503815  0.74156467  1
  O  O100  1  0.42803528  0.53498314  0.74473134  1
  O  O101  1  0.92759334  0.53717497  0.73996660  1
  O  O102  1  0.34343580  0.51625156  0.24512355  1
  O  O103  1  0.84126677  0.52712279  0.24077504  1
  O  O104  1  0.42641355  0.31085530  0.24227803  1
  O  O105  1  0.92651723  0.32512180  0.24594582  1
  O  O106  1  0.24523652  0.15683544  0.24189837  1
  O  O107  1  0.73321893  0.15555641  0.24333142  1
  O  O108  1  0.32204731  0.50943997  0.92247679  1
  O  O109  1  0.81729089  0.50080432  0.91727249  1
  O  O110  1  0.42460123  0.36256731  0.92080372  1
  O  O111  1  0.92888708  0.35517623  0.91920743  1
  O  O112  1  0.24486592  0.12994278  0.92044679  1
  O  O113  1  0.74255131  0.13679817  0.91624860  1
  O  O114  1  0.31646939  0.13236915  0.41885175  1
  O  O115  1  0.82112770  0.13277574  0.42310506  1
  O  O116  1  0.24256703  0.34694951  0.41586889  1
  O  O117  1  0.74414854  0.35487566  0.42109562  1
  O  O118  1  0.43140930  0.50664185  0.41638002  1
  O  O119  1  0.92448351  0.48698059  0.41985302  1
  O  O120  1  0.17130018  0.48562029  0.07670382  1
  O  O121  1  0.67031753  0.47520471  0.08233910  1
  O  O122  1  0.07167059  0.65935070  0.07813698  1
  O  O123  1  0.56730549  0.66044803  0.08308373  1
  O  O124  1  0.25983713  0.85664387  0.08015902  1
  O  O125  1  0.75213146  0.82770972  0.07770055  1
  O  O126  1  0.16790285  0.86073863  0.58259451  1
  O  O127  1  0.67019503  0.85615436  0.57626922  1
  O  O128  1  0.24537012  0.65563751  0.57685626  1
  O  O129  1  0.75791453  0.65900692  0.58003790  1
  O  O130  1  0.06739068  0.47001089  0.58233716  1
  O  O131  1  0.57073703  0.48677578  0.58002805  1
  O  O132  1  0.15115956  0.82094400  0.25586540  1
  O  O133  1  0.64826032  0.83845311  0.24899663  1
  O  O134  1  0.25643065  0.68883412  0.25609725  1
  O  O135  1  0.76323465  0.68653965  0.24956628  1
  O  O136  1  0.08380577  0.46055674  0.25460876  1
  O  O137  1  0.58211683  0.47066423  0.25100834  1
  O  O138  1  0.15350428  0.48237437  0.75171207  1
  O  O139  1  0.65125885  0.48187116  0.75638010  1
  O  O140  1  0.08297554  0.70617256  0.75173597  1
  O  O141  1  0.58486022  0.70814153  0.75570588  1
  O  O142  1  0.26608682  0.84492075  0.74933126  1
  O  O143  1  0.75427018  0.82295262  0.75683024  1
loop_
_geom_bond_atom_site_label_1
_geom_bond_atom_site_label_2
_geom_bond_distance
_geom_bond_site_symmetry_2
Na0 O106 2.310855 1_555
Na0 O104 2.465008 1_555
Na0 O134 2.471678 1_545
Na0 O132 2.572257 1_545
Na0 O32 2.586982 1_555
Na0 O62 2.685002 1_545
Na0 O18 2.857752 1_545
Na0 O4 2.987721 1_555
Na1 O102 2.414088 1_555
Na1 O136 2.441192 1_555
Na1 O106 2.506607 1_555
Na1 O34 2.553225 1_555
Na1 O134 2.575516 1_555
Na1 O64 2.707501 1_555
Na1 O0 2.758798 1_555
Na2 O102 2.399927 1_555
Na2 O133 2.402310 1_555
Na2 O104 2.507764 1_555
Na2 O61 2.515562 1_555
Na2 O137 2.574612 1_555
Na2 O30 2.708163 1_555
Na2 O2 2.870800 1_555
Na3 O98 2.345497 1_555
Na3 O28 2.386319 1_555
Na3 O138 2.459815 1_555
Na3 O142 2.513017 1_555
Na3 O100 2.568620 1_555
Na3 O70 2.751872 1_555
Na3 O12 2.926953 1_555
Na4 O99 2.311495 1_555
Na4 O143 2.477076 1_555
Na4 O101 2.526180 1_555
Na4 O29 2.567870 1_555
Na4 O139 2.568597 1_555
Na4 O71 2.751154 1_555
Na4 O13 2.820560 1_555
Na4 O9 2.888111 1_555
Na5 O138 2.411032 1_655
Na5 O97 2.438772 1_555
Na5 O101 2.516288 1_555
Na5 O66 2.532827 1_655
Na5 O140 2.705906 1_655
Na5 O25 2.724803 1_555
Na5 O11 2.917937 1_555
Na5 O14 2.938120 1_655
Na6 O98 2.415865 1_555
Na6 O140 2.434060 1_545
Na6 O96 2.502092 1_555
Na6 O142 2.579755 1_545
Na6 O6 2.597028 1_555
Na6 O68 2.608430 1_545
Na6 O26 2.688500 1_555
Na7 O97 2.390694 1_555
Na7 O141 2.445698 1_545
Na7 O99 2.514254 1_555
Na7 O143 2.554565 1_545
Na7 O27 2.558411 1_555
Na7 O69 2.678929 1_545
Na7 O7 2.729294 1_555
Na7 O17 2.938447 1_545
Na8 O128 2.391757 1_555
Na8 O130 2.413996 1_555
Na8 O86 2.519338 1_555
Na8 O28 2.679356 1_555
Na8 O56 2.714897 1_555
Na8 O85 2.716010 1_455
Na8 O14 2.740702 1_555
Na8 O42 2.882753 1_555
Na9 O125 2.251567 1_555
Na9 O93 2.493069 1_565
Na9 O121 2.499560 1_555
Na9 O91 2.542325 1_555
Na9 O49 2.625382 1_554
Na9 O19 2.753099 1_555
Na9 O39 2.825451 1_555
Na9 O35 2.882001 1_555
Na10 O110 2.354798 1_555
Na10 O81 2.407844 1_555
Na10 O82 2.461352 1_555
Na10 O108 2.490688 1_555
Na10 O38 2.643305 1_556
Na10 O8 2.643446 1_555
Na11 O79 2.361179 1_555
Na11 O112 2.434072 1_555
Na11 O110 2.515687 1_555
Na11 O82 2.551388 1_545
Na11 O10 2.589633 1_555
Na11 O40 2.626615 1_556
Na12 O41 2.347853 1_556
Na12 O78 2.383611 1_655
Na12 O11 2.475153 1_555
Na12 O111 2.484513 1_555
Na12 O83 2.547318 1_545
Na12 O113 2.551625 1_555
Na12 O49 2.916115 1_545
Na13 O109 2.434615 1_555
Na13 O79 2.454220 1_555
Na13 O113 2.516381 1_555
Na13 O7 2.559641 1_555
Na13 O81 2.598684 1_545
Na13 O37 2.607991 1_556
Na13 O51 2.794878 1_555
Na14 O119 2.354503 1_555
Na14 O76 2.414869 1_655
Na14 O75 2.466968 1_545
Na14 O115 2.473520 1_555
Na14 O5 2.570110 1_555
Na14 O47 2.642868 1_555
Na15 O114 2.442036 1_555
Na15 O72 2.444188 1_545
Na15 O116 2.513538 1_555
Na15 O0 2.519526 1_555
Na15 O76 2.581244 1_555
Na15 O42 2.726404 1_555
Na15 O58 2.813915 1_545
Na16 O44 2.379592 1_555
Na16 O73 2.411539 1_555
Na16 O118 2.472503 1_555
Na16 O116 2.560636 1_555
Na16 O74 2.573908 1_555
Na16 O2 2.588699 1_555
Na16 O54 2.839546 1_555
Na17 O72 2.366409 1_655
Na17 O117 2.460994 1_555
Na17 O119 2.508043 1_555
Na17 O75 2.540525 1_555
Na17 O3 2.609159 1_555
Na17 O45 2.647028 1_555
Na17 O55 2.928518 1_555
Na17 O65 2.932578 1_555
Na18 O72 2.356660 1_655
Na18 O89 2.428257 1_555
Na18 O86 2.534493 1_665
Na18 O75 2.590667 1_555
Na18 O85 2.636456 1_565
Na18 O76 2.713482 1_665
Na19 O73 2.475238 1_545
Na19 O77 2.490521 1_555
Na19 O87 2.538328 1_555
Na19 O84 2.622409 1_555
Na19 O88 2.650388 1_545
Na19 O74 2.660349 1_545
Na20 O78 2.405611 1_555
Na20 O80 2.423224 1_545
Na20 O94 2.489553 1_556
Na20 O91 2.691958 1_446
Na20 O93 2.707875 1_456
Na20 O83 2.716213 1_445
Na21 O79 2.398366 1_554
Na21 O92 2.504290 1_555
Na21 O95 2.525745 1_555
Na21 O82 2.603241 1_544
Na21 O81 2.606145 1_544
Na21 O90 2.694163 1_545
Na22 O98 2.420262 1_555
Na22 O110 2.508932 1_555
Na22 O112 2.542834 1_555
Na22 O108 2.576180 1_555
Na22 O96 2.656418 1_555
Na22 O100 2.680679 1_555
Na23 O97 2.461405 1_555
Na23 O109 2.516136 1_555
Na23 O111 2.517483 1_555
Na23 O99 2.553714 1_555
Na23 O113 2.559236 1_555
Na23 O101 2.662334 1_555
Na24 O102 2.485681 1_555
Na24 O118 2.493858 1_555
Na24 O106 2.538783 1_555
Na24 O116 2.541342 1_555
Na24 O114 2.556015 1_555
Na24 O104 2.619202 1_555
Na25 O107 2.518471 1_555
Na25 O119 2.538410 1_555
Na25 O117 2.562079 1_555
Na25 O105 2.593271 1_555
Na25 O103 2.623345 1_555
Na25 O115 2.655590 1_555
Na26 O122 2.428819 1_555
Na26 O124 2.493151 1_555
Na26 O120 2.512869 1_555
Na26 O132 2.579885 1_555
Na26 O134 2.644136 1_555
Na26 O136 2.660533 1_555
Na27 O125 2.300234 1_555
Na27 O135 2.487740 1_555
Na27 O133 2.507378 1_555
Na27 O123 2.539626 1_555
Na27 O121 2.578770 1_555
Na27 O137 2.677481 1_555
Na28 O128 2.307307 1_555
Na28 O126 2.461658 1_555
Na28 O142 2.521360 1_555
Na28 O130 2.545279 1_555
Na28 O138 2.554557 1_555
Na28 O140 2.681173 1_555
Na29 O131 2.391174 1_555
Na29 O129 2.445263 1_555
Na29 O127 2.539813 1_555
Na29 O139 2.603121 1_555
Na29 O143 2.635443 1_555
Na29 O141 2.686845 1_555
O0 Si0 1.612769 1_555
O0 Zn0 1.917481 1_545
O1 S0 1.468015 1_555
O1 Zn1 2.022290 1_555
O2 Si1 1.605124 1_555
O2 Zn1 1.944970 1_565
O3 S1 1.489726 1_555
O3 Zn0 2.047788 1_655
O4 S3 1.468429 1_555
O4 Zn1 2.081149 1_555
O5 S2 1.473582 1_555
O5 Zn0 2.253200 1_645
O6 Si2 1.599980 1_555
O6 Zn2 1.887661 1_555
O7 Si3 1.613622 1_555
O7 Zn3 1.911663 1_555
O8 S5 1.486681 1_555
O8 Zn3 2.220101 1_565
O9 S4 1.468780 1_655
O9 Zn2 2.149563 1_665
O10 S6 1.486110 1_555
O10 Zn3 2.063647 1_555
O11 Si4 1.604618 1_555
O11 Zn2 1.949019 1_655
O12 S6 1.497906 1_565
O12 Ti1 2.052678 1_565
O13 Si4 1.703619 1_565
O13 Ti0 1.798762 1_565
O14 Si2 1.727466 1_555
O14 Ti0 1.818833 1_455
O15 Si3 1.646899 1_555
O15 Ti1 1.859259 1_555
O16 S4 1.512669 1_555
O16 Ti0 2.030309 1_465
O17 S5 1.489514 1_555
O17 Ti1 2.169909 1_565
O18 Si1 1.715581 1_555
O18 Ti3 1.794301 1_555
O19 S1 1.513233 1_555
O19 Ti2 2.063857 1_665
O20 S2 1.496529 1_455
O20 Ti2 2.066432 1_555
O21 S3 1.509382 1_555
O21 Ti3 2.011237 1_545
O22 Si0 1.644952 1_565
O22 Ti2 1.867947 1_565
O23 S0 1.532474 1_565
O23 Ti3 1.972223 1_555
O24 S7 1.466105 1_555
O24 Zn4 2.100888 1_555
O25 S8 1.468671 1_555
O25 Zn5 2.085857 1_555
O26 S9 1.481792 1_555
O26 Zn4 2.077420 1_555
O27 S10 1.480353 1_555
O27 Zn5 2.058328 1_555
O28 Si5 1.623818 1_555
O28 Zn4 1.919823 1_555
O29 S11 1.478216 1_555
O29 Zn5 2.165337 1_555
O30 S12 1.480131 1_555
O30 Zn6 2.085423 1_555
O31 S13 1.471614 1_555
O31 Zn7 2.136817 1_555
O32 S14 1.479901 1_555
O32 Zn6 2.153501 1_555
O33 Si6 1.584585 1_555
O33 Zn7 1.859926 1_555
O34 S15 1.487187 1_555
O34 Zn6 2.063967 1_555
O35 S16 1.479680 1_555
O35 Zn7 2.039256 1_555
O36 S15 1.473911 1_555
O36 Zn8 2.110811 1_554
O37 S16 1.500774 1_555
O37 Zn9 2.199146 1_554
O38 S12 1.479452 1_555
O38 Zn8 2.177942 1_554
O39 S13 1.491399 1_555
O39 Zn9 2.045470 1_554
O40 S14 1.482165 1_555
O40 Zn8 2.159147 1_554
O41 Si6 1.632370 1_555
O41 Zn9 1.892496 1_554
O42 S9 1.503001 1_555
O42 Zn10 2.237718 1_555
O43 S10 1.475363 1_555
O43 Zn11 2.119451 1_555
O44 Si5 1.633076 1_555
O44 Zn10 1.899968 1_555
O45 S11 1.492492 1_555
O45 Zn11 2.111129 1_555
O46 S7 1.484415 1_555
O46 Zn10 1.995602 1_555
O47 S8 1.481550 1_555
O47 Zn11 2.151656 1_555
O48 S17 1.478445 1_555
O48 Zn12 2.040198 1_556
O49 S18 1.479949 1_555
O49 Zn13 2.197418 1_556
O50 S19 1.470797 1_555
O50 Zn12 2.006647 1_556
O51 Si7 1.598461 1_555
O51 Zn13 1.910547 1_556
O52 S20 1.478991 1_555
O52 Zn12 2.024110 1_556
O53 S21 1.469098 1_555
O53 Zn13 2.099956 1_556
O54 S22 1.466635 1_555
O54 Zn14 2.076428 1_555
O55 S23 1.481983 1_555
O55 Zn15 2.049579 1_555
O56 S24 1.473246 1_555
O56 Zn14 2.196099 1_555
O57 S25 1.477299 1_555
O57 Zn15 2.047954 1_555
O58 Si8 1.597222 1_555
O58 Zn14 1.911130 1_555
O59 S26 1.466812 1_555
O59 Zn15 2.018650 1_555
O60 Si8 1.720621 1_555
O60 Ti4 1.796018 1_555
O61 S26 1.501638 1_555
O61 Zn16 2.105226 1_555
O62 S22 1.534315 1_555
O62 Ti4 2.110542 1_555
O63 S23 1.483210 1_555
O63 Zn16 2.017344 1_555
O64 S24 1.508433 1_555
O64 Ti4 2.218292 1_555
O65 S25 1.496395 1_555
O65 Zn16 2.022414 1_555
O66 S19 1.498128 1_555
O66 Zn17 2.036972 1_555
O67 Si7 1.716315 1_555
O67 Ti5 1.807256 1_555
O68 S20 1.514080 1_555
O68 Zn17 2.145986 1_555
O69 S21 1.507533 1_555
O69 Ti5 2.185355 1_555
O70 S17 1.491316 1_555
O70 Zn17 2.053713 1_555
O71 S18 1.539180 1_555
O71 Ti5 2.080315 1_555
O72 Si8 1.639403 1_555
O72 Zn0 2.013845 1_555
O73 S26 1.496759 1_555
O73 Zn1 2.265206 1_565
O74 S22 1.480029 1_555
O74 Zn1 2.185956 1_565
O75 S23 1.505233 1_555
O75 Zn0 2.334223 1_655
O76 S24 1.492355 1_555
O76 Zn0 2.322737 1_545
O77 S25 1.483173 1_555
O77 Zn1 2.137496 1_555
O78 S19 1.494491 1_555
O78 Zn2 2.244718 1_555
O79 Si7 1.639804 1_555
O79 Zn3 1.999801 1_555
O80 S20 1.472413 1_555
O80 Zn2 2.286609 1_565
O81 S21 1.495616 1_555
O81 Zn3 2.284615 1_565
O82 S17 1.500808 1_555
O82 Zn3 2.358533 1_565
O83 S18 1.475521 1_555
O83 Zn2 2.290905 1_665
O84 S7 1.526470 1_555
O84 Ti1 1.986230 1_555
O85 S8 1.538119 1_555
O85 Ti0 2.052921 1_555
O86 S9 1.519190 1_555
O86 Ti0 2.211812 1_455
O87 S10 1.523538 1_555
O87 Ti1 2.033316 1_555
O88 Si5 1.681105 1_555
O88 Ti1 1.844703 1_565
O89 S11 1.512296 1_555
O89 Ti0 2.148704 1_565
O90 S12 1.539903 1_555
O90 Ti3 1.984961 1_555
O91 S13 1.527598 1_555
O91 Ti2 2.059026 1_665
O92 S14 1.530775 1_555
O92 Ti3 2.050515 1_545
O93 Si6 1.728827 1_555
O93 Ti2 1.841102 1_655
O94 S15 1.519065 1_555
O94 Ti2 2.079544 1_555
O95 S16 1.507184 1_555
O95 Ti3 2.128225 1_545
O96 S6 1.469631 1_555
O96 Zn4 2.351065 1_555
O97 Si4 1.618712 1_555
O97 Zn5 2.055120 1_555
O98 Si2 1.632477 1_555
O98 Zn4 2.031937 1_555
O99 Si3 1.622954 1_555
O99 Zn5 2.001213 1_555
O100 S5 1.467214 1_555
O100 Zn4 2.272107 1_555
O101 S4 1.480697 1_655
O101 Zn5 2.263264 1_555
O102 Si1 1.619936 1_555
O102 Zn6 2.044419 1_555
O103 S1 1.476128 1_555
O103 Zn7 2.278094 1_555
O104 S3 1.492091 1_555
O104 Zn6 2.299281 1_555
O105 S2 1.464883 1_555
O105 Zn7 2.257664 1_555
O106 Si0 1.626293 1_555
O106 Zn6 2.007180 1_555
O107 S0 1.465427 1_555
O107 Zn7 2.187174 1_555
O108 S17 1.485491 1_555
O108 Zn8 2.191604 1_555
O109 S18 1.481184 1_555
O109 Zn9 2.566317 1_555
O110 Si7 1.643339 1_555
O110 Zn8 2.035877 1_555
O111 S19 1.496861 1_655
O111 Zn9 2.224705 1_555
O112 S20 1.509436 1_545
O112 Zn8 2.194460 1_555
O113 S21 1.488766 1_545
O113 Zn9 2.459485 1_555
O114 S22 1.487218 1_545
O114 Zn10 2.479702 1_555
O115 S23 1.487463 1_545
O115 Zn11 2.179428 1_555
O116 S24 1.494701 1_555
O116 Zn10 2.503201 1_555
O117 S25 1.503875 1_555
O117 Zn11 2.164756 1_555
O118 S26 1.506676 1_555
O118 Zn10 2.238364 1_555
O119 Si8 1.640197 1_655
O119 Zn11 2.054947 1_555
O120 S15 1.485080 1_555
O120 Zn12 2.162793 1_555
O121 S16 1.476943 1_555
O121 Zn13 2.263399 1_555
O122 S13 1.477238 1_455
O122 Zn12 2.162046 1_555
O123 S12 1.466841 1_555
O123 Zn13 2.213338 1_555
O124 S14 1.481679 1_565
O124 Zn12 2.237619 1_555
O125 Si6 1.639154 1_565
O125 Zn13 1.968648 1_555
O126 S9 1.464462 1_565
O126 Zn14 2.158773 1_555
O127 S10 1.481662 1_565
O127 Zn15 2.160321 1_555
O128 Si5 1.633733 1_555
O128 Zn14 1.958084 1_555
O129 S11 1.487668 1_555
O129 Zn15 2.223637 1_555
O130 S8 1.477654 1_455
O130 Zn14 2.359247 1_555
O131 S7 1.482791 1_555
O131 Zn15 2.187388 1_555
O132 Si0 1.680733 1_565
O132 Ti4 1.849060 1_555
O133 S0 1.494152 1_565
O133 Zn16 2.367656 1_555
O134 Si1 1.649322 1_555
O134 Ti4 2.051335 1_555
O135 S1 1.491346 1_555
O135 Zn16 2.176904 1_555
O136 S2 1.535847 1_455
O136 Ti4 2.084544 1_555
O137 S3 1.483030 1_555
O137 Zn16 2.242381 1_555
O138 Si2 1.645805 1_555
O138 Zn17 2.024896 1_555
O139 Si3 1.678303 1_555
O139 Ti5 1.849710 1_555
O140 S4 1.490520 1_555
O140 Zn17 2.307964 1_555
O141 S5 1.516092 1_555
O141 Ti5 2.099161 1_555
O142 S6 1.501571 1_565
O142 Zn17 2.352484 1_555
O143 Si4 1.652520 1_565
O143 Ti5 2.034440 1_555
