# generated using pymatgen
data_Sr2MgCdWO6
_symmetry_space_group_name_H-M   'P 1'
_cell_length_a   6.11032342
_cell_length_b   6.84847452
_cell_length_c   5.51400628
_cell_angle_alpha   115.78342694
_cell_angle_beta   107.70169573
_cell_angle_gamma   108.62259351
_symmetry_Int_Tables_number   1
_chemical_formula_structural   Sr2MgCdWO6
_chemical_formula_sum   'Sr2 Mg1 Cd1 W1 O6'
_cell_volume   168.28383865
_cell_formula_units_Z   1
loop_
 _symmetry_equiv_pos_site_id
 _symmetry_equiv_pos_as_xyz
  1  'x, y, z'
loop_
 _atom_site_type_symbol
 _atom_site_label
 _atom_site_symmetry_multiplicity
 _atom_site_fract_x
 _atom_site_fract_y
 _atom_site_fract_z
 _atom_site_occupancy
  Sr  Sr0  1  0.68546900  0.26252300  0.44162300  1
  Sr  Sr1  1  0.31453100  0.73747700  0.55837700  1
  Mg  Mg0  1  0.00000000  0.00000000  0.50000000  1
  Cd  Cd0  1  0.50000000  0.50000000  0.00000000  1
  W  W0  1  0.00000000  0.00000000  0.00000000  1
  O  O0  1  0.68065300  0.86710700  0.06745800  1
  O  O1  1  0.17263300  0.87170700  0.22277900  1
  O  O2  1  0.82736700  0.12829300  0.77722100  1
  O  O3  1  0.31934700  0.13289300  0.93254200  1
  O  O4  1  0.16450300  0.31792000  0.49127500  1
  O  O5  1  0.83549700  0.68208000  0.50872500  1
loop_
_geom_bond_atom_site_label_1
_geom_bond_atom_site_label_2
_geom_bond_distance
_geom_bond_site_symmetry_2
Mg0 O3 2.114617 1_555
Mg0 O0 2.114617 1_445
Mg0 O5 2.115648 1_445
Mg0 O4 2.115648 1_555
Mg0 O1 2.150666 1_545
Mg0 O2 2.150666 1_455
Cd0 O3 2.200453 1_554
Cd0 O0 2.200453 1_555
Cd0 O5 2.335276 1_555
Cd0 O4 2.335276 1_554
O0 W0 2.091879 1_665
O0 Sr1 2.533242 1_554
O0 Sr0 2.577308 1_565
O1 W0 2.033832 1_565
O1 Sr1 2.456488 1_555
O1 Sr0 2.823730 1_565
O2 W0 2.033832 1_656
O2 Sr0 2.456488 1_555
O2 Sr1 2.823730 1_545
O3 W0 2.091879 1_556
O3 Sr0 2.533242 1_556
O3 Sr1 2.577308 1_545
O4 W0 2.214605 1_555
O4 Sr1 2.533747 1_555
O4 Sr0 2.738541 1_455
O5 W0 2.214605 1_666
O5 Sr0 2.533747 1_555
O5 Sr1 2.738541 1_655
