# generated using pymatgen
data_NaSbF4
_symmetry_space_group_name_H-M   'P 1'
_cell_length_a   5.45371241
_cell_length_b   7.97903241
_cell_length_c   8.40981270
_cell_angle_alpha   94.99084624
_cell_angle_beta   89.99989221
_cell_angle_gamma   90.00597425
_symmetry_Int_Tables_number   1
_chemical_formula_structural   NaSbF4
_chemical_formula_sum   'Na4 Sb4 F16'
_cell_volume   364.56844302
_cell_formula_units_Z   4
loop_
 _symmetry_equiv_pos_site_id
 _symmetry_equiv_pos_as_xyz
  1  'x, y, z'
loop_
 _atom_site_type_symbol
 _atom_site_label
 _atom_site_symmetry_multiplicity
 _atom_site_fract_x
 _atom_site_fract_y
 _atom_site_fract_z
 _atom_site_occupancy
  Na  Na0  1  0.79132588  0.86584467  0.33684611  1
  Na  Na1  1  0.29117735  0.13429563  0.16318656  1
  Na  Na2  1  0.70877313  0.86571012  0.83681316  1
  Na  Na3  1  0.20864069  0.13414294  0.66315122  1
  Sb  Sb0  1  0.28890011  0.66498524  0.13452693  1
  Sb  Sb1  1  0.78874834  0.33508494  0.36552975  1
  Sb  Sb2  1  0.71110159  0.33497813  0.86550203  1
  Sb  Sb3  1  0.21120221  0.66495232  0.63444818  1
  F  F0  1  0.56939216  0.82563839  0.08441211  1
  F  F1  1  0.61196299  0.11817251  0.33808102  1
  F  F2  1  0.01355892  0.39296633  0.72552405  1
  F  F3  1  0.93087686  0.82575468  0.58444292  1
  F  F4  1  0.88789435  0.11805694  0.83825277  1
  F  F5  1  0.98644381  0.60700498  0.27452127  1
  F  F6  1  0.43061007  0.17431704  0.91558572  1
  F  F7  1  0.42892157  0.72327703  0.34881123  1
  F  F8  1  0.07127174  0.72311040  0.84875673  1
  F  F9  1  0.51366475  0.60681498  0.77430361  1
  F  F10  1  0.11215058  0.88193427  0.16185896  1
  F  F11  1  0.92875947  0.27700057  0.15125770  1
  F  F12  1  0.48630145  0.39318336  0.22562203  1
  F  F13  1  0.06911185  0.17433422  0.41555841  1
  F  F14  1  0.38806121  0.88183408  0.66181564  1
  F  F15  1  0.57114690  0.27660623  0.65119190  1
loop_
_geom_bond_atom_site_label_1
_geom_bond_atom_site_label_2
_geom_bond_distance
_geom_bond_site_symmetry_2
F0 Sb0 2.062625 1_555
F0 Na2 2.265312 1_554
F0 Na0 2.440518 1_555
F1 Sb1 1.976989 1_555
F1 Na0 2.237688 1_545
F1 Na1 2.296415 1_555
F2 Sb2 2.101275 1_455
F2 Na3 2.341780 1_555
F2 Sb3 2.597484 1_555
F3 Sb3 2.062674 1_655
F3 Na0 2.265664 1_555
F3 Na2 2.440436 1_555
F4 Sb2 1.977177 1_555
F4 Na2 2.236939 1_545
F4 Na3 2.297319 1_655
F5 Sb0 2.101334 1_655
F5 Na0 2.341922 1_555
F5 Sb1 2.596941 1_555
F6 Sb2 2.062596 1_555
F6 Na1 2.265333 1_556
F6 Na3 2.440603 1_555
F7 Sb0 1.975119 1_555
F7 Na0 2.286908 1_555
F8 Sb3 1.974978 1_555
F8 Na2 2.287670 1_455
F9 Sb3 2.101100 1_555
F9 Na2 2.342314 1_555
F9 Sb2 2.596560 1_555
F10 Sb0 1.977282 1_555
F10 Na1 2.236888 1_565
F10 Na0 2.297026 1_455
F11 Sb1 1.974783 1_555
F11 Na1 2.287700 1_655
F12 Sb1 2.101204 1_555
F12 Na1 2.342210 1_555
F12 Sb0 2.595920 1_555
F13 Sb1 2.062615 1_455
F13 Na3 2.265771 1_555
F13 Na1 2.440380 1_555
F14 Sb3 1.976945 1_555
F14 Na3 2.237627 1_565
F14 Na2 2.296669 1_555
F15 Sb2 1.975272 1_555
F15 Na3 2.286967 1_555
