# generated using pymatgen
data_NaHfInP2SO12
_symmetry_space_group_name_H-M   'P 1'
_cell_length_a   8.85832773
_cell_length_b   8.84466134
_cell_length_c   23.34291952
_cell_angle_alpha   90.26613303
_cell_angle_beta   90.00000000
_cell_angle_gamma   120.05112652
_symmetry_Int_Tables_number   1
_chemical_formula_structural   NaHfInP2SO12
_chemical_formula_sum   'Na6 Hf6 In6 P12 S6 O72'
_cell_volume   1583.02776125
_cell_formula_units_Z   6
loop_
 _symmetry_equiv_pos_site_id
 _symmetry_equiv_pos_as_xyz
  1  'x, y, z'
loop_
 _atom_site_type_symbol
 _atom_site_label
 _atom_site_symmetry_multiplicity
 _atom_site_fract_x
 _atom_site_fract_y
 _atom_site_fract_z
 _atom_site_occupancy
  Na  Na0  1  0.98279833  0.99074102  0.50356322  1
  Na  Na1  1  0.00794269  0.99074102  0.00356322  1
  Na  Na2  1  0.64946533  0.32407402  0.83689622  1
  Na  Na3  1  0.67460969  0.32407402  0.33689622  1
  Na  Na4  1  0.31613133  0.65740802  0.17023022  1
  Na  Na5  1  0.34127569  0.65740802  0.67023022  1
  Hf  Hf0  1  0.00106618  0.00240131  0.35286864  1
  Hf  Hf1  1  0.00133513  0.00240131  0.85286864  1
  Hf  Hf2  1  0.66773318  0.33573431  0.68620164  1
  Hf  Hf3  1  0.66800213  0.33573431  0.18620164  1
  Hf  Hf4  1  0.33439918  0.66906831  0.01953564  1
  Hf  Hf5  1  0.33466813  0.66906831  0.51953564  1
  In  In0  1  0.99155085  0.00527461  0.64907703  1
  In  In1  1  0.01372377  0.00527461  0.14907703  1
  In  In2  1  0.65821785  0.33860761  0.98241003  1
  In  In3  1  0.68039077  0.33860761  0.48241003  1
  In  In4  1  0.32488385  0.67194161  0.31574403  1
  In  In5  1  0.34705677  0.67194161  0.81574403  1
  P  P0  1  0.29556872  0.00151337  0.24992752  1
  P  P1  1  0.00091895  0.29258636  0.24953132  1
  P  P2  1  0.29166740  0.29258636  0.74953132  1
  P  P3  1  0.70594465  0.00151337  0.74992752  1
  P  P4  1  0.96223572  0.33484637  0.58326052  1
  P  P5  1  0.66758595  0.62591936  0.58286432  1
  P  P6  1  0.95833440  0.62591936  0.08286432  1
  P  P7  1  0.37261165  0.33484637  0.08326052  1
  P  P8  1  0.62890172  0.66818037  0.91659452  1
  P  P9  1  0.33425195  0.95925336  0.91619832  1
  P  P10  1  0.62500040  0.95925336  0.41619832  1
  P  P11  1  0.03927765  0.66818037  0.41659452  1
  S  S0  1  0.70748598  0.70863107  0.24967251  1
  S  S1  1  0.00114509  0.70863107  0.74967251  1
  S  S2  1  0.37415298  0.04196407  0.58300551  1
  S  S3  1  0.66781209  0.04196407  0.08300551  1
  S  S4  1  0.04081898  0.37529807  0.91633951  1
  S  S5  1  0.33447809  0.37529807  0.41633951  1
  O  O0  1  0.20214685  0.02337986  0.30336599  1
  O  O1  1  0.81755618  0.79381794  0.30119105  1
  O  O2  1  0.97510447  0.17654398  0.30292812  1
  O  O3  1  0.20143951  0.17654398  0.80292812  1
  O  O4  1  0.97626176  0.79381794  0.80119105  1
  O  O5  1  0.82123301  0.02337986  0.80336599  1
  O  O6  1  0.78010173  0.96688939  0.69593102  1
  O  O7  1  0.18908163  0.21007425  0.69485883  1
  O  O8  1  0.02750403  0.81052694  0.69769285  1
  O  O9  1  0.78302292  0.81052694  0.19769285  1
  O  O10  1  0.02099262  0.21007425  0.19485883  1
  O  O11  1  0.18678765  0.96688939  0.19593102  1
  O  O12  1  0.86881385  0.35671286  0.63669899  1
  O  O13  1  0.48422318  0.12715094  0.63452405  1
  O  O14  1  0.64177147  0.50987698  0.63626112  1
  O  O15  1  0.86810651  0.50987698  0.13626112  1
  O  O16  1  0.64292876  0.12715094  0.13452405  1
  O  O17  1  0.48790001  0.35671286  0.13669899  1
  O  O18  1  0.44676873  0.30022239  0.02926402  1
  O  O19  1  0.85574863  0.54340725  0.02819183  1
  O  O20  1  0.69417103  0.14385994  0.03102585  1
  O  O21  1  0.44968992  0.14385994  0.53102585  1
  O  O22  1  0.68765962  0.54340725  0.52819183  1
  O  O23  1  0.85345465  0.30022239  0.52926402  1
  O  O24  1  0.53547985  0.69004686  0.97003299  1
  O  O25  1  0.15088918  0.46048494  0.96785805  1
  O  O26  1  0.30843747  0.84321098  0.96959512  1
  O  O27  1  0.53477251  0.84321098  0.46959512  1
  O  O28  1  0.30959476  0.46048494  0.46785805  1
  O  O29  1  0.15456601  0.69004686  0.47003299  1
  O  O30  1  0.11343473  0.63355639  0.36259802  1
  O  O31  1  0.52241463  0.87674125  0.36152583  1
  O  O32  1  0.36083703  0.47719394  0.36435985  1
  O  O33  1  0.11635592  0.47719394  0.86435985  1
  O  O34  1  0.35432562  0.87674125  0.86152583  1
  O  O35  1  0.52012065  0.63355639  0.86259802  1
  O  O36  1  0.03047342  0.83956778  0.41034108  1
  O  O37  1  0.80886181  0.97649329  0.41041145  1
  O  O38  1  0.17131649  0.20087971  0.41136413  1
  O  O39  1  0.02956322  0.20087971  0.91136413  1
  O  O40  1  0.16763148  0.97649329  0.91041145  1
  O  O41  1  0.80909436  0.83956778  0.91034108  1
  O  O42  1  0.99261828  0.17892403  0.58784538  1
  O  O43  1  0.19738418  0.01467329  0.59013299  1
  O  O44  1  0.83114593  0.80708180  0.58929686  1
  O  O45  1  0.97593587  0.80708180  0.08929686  1
  O  O46  1  0.81728911  0.01467329  0.09013299  1
  O  O47  1  0.18630575  0.17892403  0.08784538  1
  O  O48  1  0.69714042  0.17290078  0.74367408  1
  O  O49  1  0.47552881  0.30982629  0.74374445  1
  O  O50  1  0.83798349  0.53421271  0.74469713  1
  O  O51  1  0.69623022  0.53421271  0.24469713  1
  O  O52  1  0.83429848  0.30982629  0.24374445  1
  O  O53  1  0.47576136  0.17290078  0.24367408  1
  O  O54  1  0.65928528  0.51225703  0.92117838  1
  O  O55  1  0.86405118  0.34800629  0.92346599  1
  O  O56  1  0.49781293  0.14041480  0.92262986  1
  O  O57  1  0.64260287  0.14041480  0.42262986  1
  O  O58  1  0.48395611  0.34800629  0.42346599  1
  O  O59  1  0.85297275  0.51225703  0.42117838  1
  O  O60  1  0.36380642  0.50623478  0.07700808  1
  O  O61  1  0.14219481  0.64316029  0.07707845  1
  O  O62  1  0.50464949  0.86754671  0.07803113  1
  O  O63  1  0.36289622  0.86754671  0.57803113  1
  O  O64  1  0.50096448  0.64316029  0.57707845  1
  O  O65  1  0.14242736  0.50623478  0.57700808  1
  O  O66  1  0.32595128  0.84559103  0.25451238  1
  O  O67  1  0.53071718  0.68134029  0.25679999  1
  O  O68  1  0.16447893  0.47374880  0.25596386  1
  O  O69  1  0.30926887  0.47374880  0.75596386  1
  O  O70  1  0.15062211  0.68134029  0.75679999  1
  O  O71  1  0.51963875  0.84559103  0.75451238  1
loop_
_geom_bond_atom_site_label_1
_geom_bond_atom_site_label_2
_geom_bond_distance
_geom_bond_site_symmetry_2
Na0 O44 2.508604 1_555
Na0 O42 2.544218 1_565
Na0 O37 2.630790 1_555
Na0 O36 2.690717 1_655
Na0 O43 2.708276 1_665
Na0 O38 2.793508 1_665
Na1 O45 2.508604 1_455
Na1 O47 2.544218 1_565
Na1 O40 2.630790 1_554
Na1 O41 2.690717 1_454
Na1 O46 2.708276 1_465
Na1 O39 2.793508 1_564
Na2 O56 2.508604 1_555
Na2 O54 2.544218 1_555
Na2 O49 2.630790 1_555
Na2 O48 2.690717 1_555
Na2 O55 2.708276 1_555
Na2 O50 2.793508 1_555
Na3 O57 2.508604 1_555
Na3 O59 2.544218 1_555
Na3 O52 2.630790 1_555
Na3 O53 2.690717 1_555
Na3 O58 2.708276 1_555
Na3 O51 2.793508 1_555
Na4 O68 2.508604 1_555
Na4 O66 2.544218 1_555
Na4 O61 2.630790 1_555
Na4 O60 2.690717 1_555
Na4 O67 2.708276 1_555
Na4 O62 2.793508 1_555
Na5 O69 2.508604 1_555
Na5 O71 2.544218 1_555
Na5 O64 2.630790 1_555
Na5 O65 2.690717 1_555
Na5 O70 2.708276 1_555
Na5 O63 2.793508 1_555
Hf0 O2 2.038540 1_455
Hf0 O0 2.052676 1_555
Hf0 O36 2.082206 1_545
Hf0 O37 2.089911 1_445
Hf0 O1 2.115871 1_445
Hf0 O38 2.132317 1_555
Hf1 O3 2.038540 1_555
Hf1 O5 2.052676 1_455
Hf1 O41 2.082206 1_445
Hf1 O40 2.089911 1_545
Hf1 O4 2.115871 1_445
Hf1 O39 2.132317 1_555
Hf2 O14 2.038540 1_555
Hf2 O12 2.052676 1_555
Hf2 O48 2.082206 1_555
Hf2 O49 2.089911 1_555
Hf2 O13 2.115871 1_555
Hf2 O50 2.132317 1_555
Hf3 O15 2.038540 1_555
Hf3 O17 2.052676 1_555
Hf3 O53 2.082206 1_555
Hf3 O52 2.089911 1_555
Hf3 O16 2.115871 1_555
Hf3 O51 2.132317 1_555
Hf4 O26 2.038540 1_554
Hf4 O24 2.052676 1_554
Hf4 O60 2.082206 1_555
Hf4 O61 2.089911 1_555
Hf4 O25 2.115871 1_554
Hf4 O62 2.132317 1_555
Hf5 O27 2.038540 1_555
Hf5 O29 2.052676 1_555
Hf5 O65 2.082206 1_555
Hf5 O64 2.089911 1_555
Hf5 O28 2.115871 1_555
Hf5 O63 2.132317 1_555
In0 O6 2.046084 1_545
In0 O7 2.071844 1_655
In0 O42 2.099478 1_555
In0 O44 2.126436 1_545
In0 O8 2.218964 1_645
In0 O43 2.252533 1_655
In1 O11 2.046084 1_545
In1 O10 2.071844 1_555
In1 O47 2.099478 1_555
In1 O45 2.126436 1_445
In1 O9 2.218964 1_445
In1 O46 2.252533 1_455
In2 O18 2.046084 1_556
In2 O19 2.071844 1_556
In2 O54 2.099478 1_555
In2 O56 2.126436 1_555
In2 O20 2.218964 1_556
In2 O55 2.252533 1_555
In3 O23 2.046084 1_555
In3 O22 2.071844 1_555
In3 O59 2.099478 1_555
In3 O57 2.126436 1_555
In3 O21 2.218964 1_555
In3 O58 2.252533 1_555
In4 O30 2.046084 1_555
In4 O31 2.071844 1_555
In4 O66 2.099478 1_555
In4 O68 2.126436 1_555
In4 O32 2.218964 1_555
In4 O67 2.252533 1_555
In5 O35 2.046084 1_555
In5 O34 2.071844 1_555
In5 O71 2.099478 1_555
In5 O69 2.126436 1_555
In5 O33 2.218964 1_555
In5 O70 2.252533 1_555
O0 P0 1.560882 1_555
O1 S0 1.490108 1_555
O2 P1 1.560809 1_655
O3 P2 1.560809 1_555
O4 S1 1.490108 1_655
O5 P3 1.560882 1_555
O6 P3 1.520494 1_565
O7 P2 1.521269 1_555
O8 S1 1.462319 1_555
O9 S0 1.462319 1_555
O10 P1 1.521269 1_555
O11 P0 1.520494 1_565
O12 P4 1.560882 1_555
O13 S2 1.490108 1_555
O14 P5 1.560809 1_555
O15 P6 1.560809 1_555
O16 S3 1.490108 1_555
O17 P7 1.560882 1_555
O18 P7 1.520494 1_555
O19 P6 1.521269 1_555
O20 S3 1.462319 1_555
O21 S2 1.462319 1_555
O22 P5 1.521269 1_555
O23 P4 1.520494 1_555
O24 P8 1.560882 1_555
O25 S4 1.490108 1_555
O26 P9 1.560809 1_555
O27 P10 1.560809 1_555
O28 S5 1.490108 1_555
O29 P11 1.560882 1_555
O30 P11 1.520494 1_555
O31 P10 1.521269 1_555
O32 S5 1.462319 1_555
O33 S4 1.462319 1_555
O34 P9 1.521269 1_555
O35 P8 1.520494 1_555
O36 P11 1.563872 1_555
O37 P10 1.563853 1_555
O38 S5 1.499178 1_555
O39 S4 1.499182 1_555
O40 P9 1.563844 1_555
O41 P8 1.563877 1_555
O42 P4 1.535858 1_555
O43 S2 1.469603 1_555
O44 P5 1.536822 1_555
O45 P6 1.536826 1_555
O46 S3 1.469594 1_555
O47 P7 1.535864 1_555
O48 P3 1.563872 1_555
O49 P2 1.563853 1_555
O50 S1 1.499178 1_655
O51 S0 1.499182 1_555
O52 P1 1.563844 1_655
O53 P0 1.563877 1_555
O54 P8 1.535871 1_555
O55 S4 1.469588 1_655
O56 P9 1.536819 1_545
O57 P10 1.536811 1_545
O58 S5 1.469606 1_555
O59 P11 1.535860 1_655
O60 P7 1.563883 1_555
O61 P6 1.563839 1_455
O62 S3 1.499176 1_565
O63 S2 1.499168 1_565
O64 P5 1.563856 1_555
O65 P4 1.563874 1_455
O66 P0 1.535858 1_565
O67 S0 1.469603 1_555
O68 P1 1.536822 1_555
O69 P2 1.536826 1_555
O70 S1 1.469594 1_555
O71 P3 1.535864 1_565
