# generated using pymatgen
data_LuNiSb
_symmetry_space_group_name_H-M   'P 1'
_cell_length_a   4.39377752
_cell_length_b   4.39377768
_cell_length_c   4.39377719
_cell_angle_alpha   59.99998822
_cell_angle_beta   59.99998707
_cell_angle_gamma   59.99999256
_symmetry_Int_Tables_number   1
_chemical_formula_structural   LuNiSb
_chemical_formula_sum   'Lu1 Ni1 Sb1'
_cell_volume   59.97897880
_cell_formula_units_Z   1
loop_
 _symmetry_equiv_pos_site_id
 _symmetry_equiv_pos_as_xyz
  1  'x, y, z'
loop_
 _atom_site_type_symbol
 _atom_site_label
 _atom_site_symmetry_multiplicity
 _atom_site_fract_x
 _atom_site_fract_y
 _atom_site_fract_z
 _atom_site_occupancy
  Lu  Lu0  1  0.50000000  0.50000000  0.50000000  1
  Ni  Ni0  1  0.25000000  0.25000000  0.25000000  1
  Sb  Sb0  1  0.00000000  0.00000000  -0.00000000  1
loop_
_geom_bond_atom_site_label_1
_geom_bond_atom_site_label_2
_geom_bond_distance
_geom_bond_site_symmetry_2
Lu0 Ni0 2.690628 1_556
Lu0 Ni0 2.690628 1_655
Lu0 Ni0 2.690628 1_565
Lu0 Ni0 2.690628 1_555
Lu0 Sb0 3.106870 1_556
Lu0 Sb0 3.106870 1_665
Lu0 Sb0 3.106870 1_565
Lu0 Sb0 3.106870 1_656
Lu0 Sb0 3.106870 1_655
Lu0 Sb0 3.106870 1_566
Ni0 Sb0 2.690628 1_556
Ni0 Sb0 2.690628 1_655
Ni0 Sb0 2.690628 1_565
Ni0 Sb0 2.690628 1_555
