# generated using pymatgen
data_Nb2P5
_symmetry_space_group_name_H-M   'P 1'
_cell_length_a   3.39205627
_cell_length_b   7.93228258
_cell_length_c   16.75446008
_cell_angle_alpha   90.00000000
_cell_angle_beta   90.00000000
_cell_angle_gamma   90.00000000
_symmetry_Int_Tables_number   1
_chemical_formula_structural   Nb2P5
_chemical_formula_sum   'Nb8 P20'
_cell_volume   450.80804967
_cell_formula_units_Z   4
loop_
 _symmetry_equiv_pos_site_id
 _symmetry_equiv_pos_as_xyz
  1  'x, y, z'
loop_
 _atom_site_type_symbol
 _atom_site_label
 _atom_site_symmetry_multiplicity
 _atom_site_fract_x
 _atom_site_fract_y
 _atom_site_fract_z
 _atom_site_occupancy
  Nb  Nb0  1  0.25000000  0.32690554  0.77388289  1
  Nb  Nb1  1  0.75000000  0.67309446  0.22611711  1
  Nb  Nb2  1  0.75000000  0.82690554  0.72611711  1
  Nb  Nb3  1  0.25000000  0.17309446  0.27388289  1
  Nb  Nb4  1  0.25000000  0.33529654  0.59487219  1
  Nb  Nb5  1  0.75000000  0.66470346  0.40512781  1
  Nb  Nb6  1  0.75000000  0.83529654  0.90512781  1
  Nb  Nb7  1  0.25000000  0.16470346  0.09487219  1
  P  P0  1  0.75000000  0.15350928  0.68528916  1
  P  P1  1  0.25000000  0.84649072  0.31471084  1
  P  P2  1  0.25000000  0.65350928  0.81471084  1
  P  P3  1  0.75000000  0.34649072  0.18528916  1
  P  P4  1  0.25000000  0.00296439  0.81496455  1
  P  P5  1  0.75000000  0.99703561  0.18503545  1
  P  P6  1  0.75000000  0.50296439  0.68503545  1
  P  P7  1  0.25000000  0.49703561  0.31496455  1
  P  P8  1  0.25000000  0.46306256  0.04001689  1
  P  P9  1  0.75000000  0.53693744  0.95998311  1
  P  P10  1  0.75000000  0.96306256  0.45998311  1
  P  P11  1  0.25000000  0.03693744  0.54001689  1
  P  P12  1  0.75000000  0.18393934  0.38519008  1
  P  P13  1  0.25000000  0.81606066  0.61480992  1
  P  P14  1  0.25000000  0.68393934  0.11480992  1
  P  P15  1  0.75000000  0.31606066  0.88519008  1
  P  P16  1  0.75000000  0.12134628  0.97760149  1
  P  P17  1  0.25000000  0.87865372  0.02239851  1
  P  P18  1  0.25000000  0.62134628  0.52239851  1
  P  P19  1  0.75000000  0.37865372  0.47760149  1
loop_
_geom_bond_atom_site_label_1
_geom_bond_atom_site_label_2
_geom_bond_distance
_geom_bond_site_symmetry_2
Nb0 P15 2.522248 1_455
Nb0 P15 2.522248 1_555
Nb0 P0 2.640375 1_455
Nb0 P0 2.640375 1_555
Nb0 P6 2.653820 1_555
Nb0 P6 2.653820 1_455
Nb0 P4 2.660181 1_555
Nb0 P2 2.679500 1_555
Nb1 P14 2.522248 1_655
Nb1 P14 2.522248 1_555
Nb1 P1 2.640375 1_555
Nb1 P1 2.640375 1_655
Nb1 P7 2.653820 1_655
Nb1 P7 2.653820 1_555
Nb1 P5 2.660181 1_555
Nb1 P3 2.679500 1_555
Nb2 P13 2.522248 1_555
Nb2 P13 2.522248 1_655
Nb2 P2 2.640375 1_555
Nb2 P2 2.640375 1_655
Nb2 P4 2.653820 1_665
Nb2 P4 2.653820 1_565
Nb2 P6 2.660181 1_555
Nb2 P0 2.679500 1_565
Nb3 P12 2.522248 1_455
Nb3 P12 2.522248 1_555
Nb3 P3 2.640375 1_455
Nb3 P3 2.640375 1_555
Nb3 P5 2.653820 1_445
Nb3 P5 2.653820 1_545
Nb3 P7 2.660181 1_555
Nb3 P1 2.679500 1_545
Nb4 P11 2.538860 1_555
Nb4 P18 2.573501 1_555
Nb4 P19 2.618255 1_555
Nb4 P19 2.618255 1_455
Nb4 P6 2.631996 1_555
Nb4 P6 2.631996 1_455
Nb4 P0 2.692717 1_555
Nb4 P0 2.692717 1_455
Nb5 P10 2.538860 1_555
Nb5 P19 2.573501 1_555
Nb5 P18 2.618255 1_555
Nb5 P18 2.618255 1_655
Nb5 P7 2.631996 1_555
Nb5 P7 2.631996 1_655
Nb5 P1 2.692717 1_555
Nb5 P1 2.692717 1_655
Nb6 P9 2.538860 1_555
Nb6 P16 2.573501 1_565
Nb6 P17 2.618255 1_556
Nb6 P17 2.618255 1_656
Nb6 P4 2.631996 1_665
Nb6 P4 2.631996 1_565
Nb6 P2 2.692717 1_655
Nb6 P2 2.692717 1_555
Nb7 P8 2.538860 1_555
Nb7 P17 2.573501 1_545
Nb7 P16 2.618255 1_454
Nb7 P16 2.618255 1_554
Nb7 P5 2.631996 1_445
Nb7 P5 2.631996 1_545
Nb7 P3 2.692717 1_455
Nb7 P3 2.692717 1_555
P8 P9 2.240084 1_554
P8 P9 2.240084 1_454
P10 P12 2.154067 1_565
P10 P11 2.240084 1_565
P10 P11 2.240084 1_665
P11 P13 2.154067 1_545
P12 P19 2.186965 1_555
P13 P18 2.186965 1_555
P14 P8 2.154067 1_555
P14 P17 2.186965 1_555
P15 P9 2.154067 1_555
P15 P16 2.186965 1_555
P16 P17 2.673176 1_546
P16 P17 2.673176 1_646
P18 P19 2.673176 1_555
P18 P19 2.673176 1_455
