# generated using pymatgen
data_GdB2Rh3
_symmetry_space_group_name_H-M   'P 1'
_cell_length_a   10.79703674
_cell_length_b   10.79702820
_cell_length_c   6.28212110
_cell_angle_alpha   90.00000000
_cell_angle_beta   90.00000000
_cell_angle_gamma   119.99987421
_symmetry_Int_Tables_number   1
_chemical_formula_structural   GdB2Rh3
_chemical_formula_sum   'Gd8 B16 Rh24'
_cell_volume   634.22929928
_cell_formula_units_Z   8
loop_
 _symmetry_equiv_pos_site_id
 _symmetry_equiv_pos_as_xyz
  1  'x, y, z'
loop_
 _atom_site_type_symbol
 _atom_site_label
 _atom_site_symmetry_multiplicity
 _atom_site_fract_x
 _atom_site_fract_y
 _atom_site_fract_z
 _atom_site_occupancy
  Gd  Gd0_0  1  0.00000000  0.00000000  0.00000000  1
  Gd  Gd0_1  1  0.00000000  0.00000000  0.50000000  1
  Gd  Gd0_2  1  0.00000000  0.50000000  0.00000000  1
  Gd  Gd0_3  1  0.00000000  0.50000000  0.50000000  1
  Gd  Gd0_4  1  0.50000000  0.00000000  0.00000000  1
  Gd  Gd0_5  1  0.50000000  0.00000000  0.50000000  1
  Gd  Gd0_6  1  0.50000000  0.50000000  0.00000000  1
  Gd  Gd0_7  1  0.50000000  0.50000000  0.50000000  1
  B  B0_0  1  0.16666003  0.33333027  0.00000000  1
  B  B0_1  1  0.16666003  0.33333027  0.50000000  1
  B  B0_2  1  0.16666003  0.83333026  0.00000000  1
  B  B0_3  1  0.16666003  0.83333026  0.50000000  1
  B  B0_4  1  0.66666003  0.33333027  0.00000000  1
  B  B0_5  1  0.66666003  0.33333027  0.50000000  1
  B  B0_6  1  0.66666003  0.83333026  0.00000000  1
  B  B0_7  1  0.66666003  0.83333026  0.50000000  1
  B  B1_0  1  0.33333997  0.16666973  0.00000000  1
  B  B1_1  1  0.33333997  0.16666973  0.50000000  1
  B  B1_2  1  0.33333997  0.66666974  0.00000000  1
  B  B1_3  1  0.33333997  0.66666974  0.50000000  1
  B  B1_4  1  0.83333997  0.16666973  0.00000000  1
  B  B1_5  1  0.83333997  0.16666973  0.50000000  1
  B  B1_6  1  0.83333997  0.66666973  0.00000000  1
  B  B1_7  1  0.83333997  0.66666973  0.50000000  1
  Rh  Rh0_0  1  0.25000000  0.00000000  0.25000000  1
  Rh  Rh0_1  1  0.25000000  0.00000000  0.75000000  1
  Rh  Rh0_2  1  0.25000000  0.50000000  0.25000000  1
  Rh  Rh0_3  1  0.25000000  0.50000000  0.75000000  1
  Rh  Rh0_4  1  0.75000000  0.00000000  0.25000000  1
  Rh  Rh0_5  1  0.75000000  0.00000000  0.75000000  1
  Rh  Rh0_6  1  0.75000000  0.50000000  0.25000000  1
  Rh  Rh0_7  1  0.75000000  0.50000000  0.75000000  1
  Rh  Rh1_0  1  0.25000000  0.25000000  0.25000000  1
  Rh  Rh1_1  1  0.25000000  0.25000000  0.75000000  1
  Rh  Rh1_2  1  0.25000000  0.75000000  0.25000000  1
  Rh  Rh1_3  1  0.25000000  0.75000000  0.75000000  1
  Rh  Rh1_4  1  0.75000000  0.25000000  0.25000000  1
  Rh  Rh1_5  1  0.75000000  0.25000000  0.75000000  1
  Rh  Rh1_6  1  0.75000000  0.75000000  0.25000000  1
  Rh  Rh1_7  1  0.75000000  0.75000000  0.75000000  1
  Rh  Rh2_0  1  0.00000000  0.25000000  0.25000000  1
  Rh  Rh2_1  1  0.00000000  0.25000000  0.75000000  1
  Rh  Rh2_2  1  0.00000000  0.75000000  0.25000000  1
  Rh  Rh2_3  1  0.00000000  0.75000000  0.75000000  1
  Rh  Rh2_4  1  0.50000000  0.25000000  0.25000000  1
  Rh  Rh2_5  1  0.50000000  0.25000000  0.75000000  1
  Rh  Rh2_6  1  0.50000000  0.75000000  0.25000000  1
  Rh  Rh2_7  1  0.50000000  0.75000000  0.75000000  1
loop_
_geom_bond_atom_site_label_1
_geom_bond_atom_site_label_2
_geom_bond_distance
_geom_bond_site_symmetry_2
Gd0_0 Rh2_3 3.122908 1_544
Gd0_0 Rh2_1 3.122908 1_554
Gd0_0 Rh2_2 3.122908 1_545
Gd0_0 Rh2_0 3.122908 1_555
Gd0_0 Rh0_0 3.122910 1_555
Gd0_0 Rh0_4 3.122910 1_455
Gd0_0 Rh0_5 3.122910 1_454
Gd0_0 Rh0_1 3.122910 1_554
Gd0_0 Rh1_0 3.122913 1_555
Gd0_0 Rh1_1 3.122913 1_554
Gd0_0 Rh1_7 3.122913 1_444
Gd0_0 Rh1_6 3.122913 1_445
Gd0_0 Gd0_1 3.141061 1_555
Gd0_0 Gd0_1 3.141061 1_554
Gd0_1 Rh2_1 3.122908 1_555
Gd0_1 Rh2_2 3.122908 1_545
Gd0_1 Rh2_3 3.122908 1_545
Gd0_1 Rh2_0 3.122908 1_555
Gd0_1 Rh0_1 3.122910 1_555
Gd0_1 Rh0_0 3.122910 1_555
Gd0_1 Rh0_4 3.122910 1_455
Gd0_1 Rh0_5 3.122910 1_455
Gd0_1 Rh1_1 3.122913 1_555
Gd0_1 Rh1_0 3.122913 1_555
Gd0_1 Rh1_6 3.122913 1_445
Gd0_1 Rh1_7 3.122913 1_445
Gd0_2 Rh2_2 3.122908 1_555
Gd0_2 Rh2_1 3.122908 1_554
Gd0_2 Rh2_3 3.122908 1_554
Gd0_2 Rh2_0 3.122908 1_555
Gd0_2 Rh0_6 3.122910 1_455
Gd0_2 Rh0_7 3.122910 1_454
Gd0_2 Rh0_2 3.122910 1_555
Gd0_2 Rh0_3 3.122910 1_554
Gd0_2 Rh1_3 3.122913 1_554
Gd0_2 Rh1_2 3.122913 1_555
Gd0_2 Rh1_5 3.122913 1_454
Gd0_2 Rh1_4 3.122913 1_455
Gd0_2 Gd0_3 3.141061 1_554
Gd0_2 Gd0_3 3.141061 1_555
Gd0_3 Rh2_3 3.122908 1_555
Gd0_3 Rh2_2 3.122908 1_555
Gd0_3 Rh2_1 3.122908 1_555
Gd0_3 Rh2_0 3.122908 1_555
Gd0_3 Rh0_7 3.122910 1_455
Gd0_3 Rh0_6 3.122910 1_455
Gd0_3 Rh0_2 3.122910 1_555
Gd0_3 Rh0_3 3.122910 1_555
Gd0_3 Rh1_3 3.122913 1_555
Gd0_3 Rh1_2 3.122913 1_555
Gd0_3 Rh1_4 3.122913 1_455
Gd0_3 Rh1_5 3.122913 1_455
Gd0_4 Rh2_4 3.122908 1_555
Gd0_4 Rh2_5 3.122908 1_554
Gd0_4 Rh2_6 3.122908 1_545
Gd0_4 Rh2_7 3.122908 1_544
Gd0_4 Rh0_4 3.122910 1_555
Gd0_4 Rh0_0 3.122910 1_555
Gd0_4 Rh0_5 3.122910 1_554
Gd0_4 Rh0_1 3.122910 1_554
Gd0_4 Rh1_2 3.122913 1_545
Gd0_4 Rh1_5 3.122913 1_554
Gd0_4 Rh1_4 3.122913 1_555
Gd0_4 Rh1_3 3.122913 1_544
Gd0_4 Gd0_5 3.141061 1_554
Gd0_4 Gd0_5 3.141061 1_555
Gd0_5 Rh2_5 3.122908 1_555
Gd0_5 Rh2_4 3.122908 1_555
Gd0_5 Rh2_6 3.122908 1_545
Gd0_5 Rh2_7 3.122908 1_545
Gd0_5 Rh0_1 3.122910 1_555
Gd0_5 Rh0_4 3.122910 1_555
Gd0_5 Rh0_0 3.122910 1_555
Gd0_5 Rh0_5 3.122910 1_555
Gd0_5 Rh1_2 3.122913 1_545
Gd0_5 Rh1_4 3.122913 1_555
Gd0_5 Rh1_5 3.122913 1_555
Gd0_5 Rh1_3 3.122913 1_545
Gd0_6 Rh2_7 3.122908 1_554
Gd0_6 Rh2_4 3.122908 1_555
Gd0_6 Rh2_5 3.122908 1_554
Gd0_6 Rh2_6 3.122908 1_555
Gd0_6 Rh0_3 3.122910 1_554
Gd0_6 Rh0_6 3.122910 1_555
Gd0_6 Rh0_2 3.122910 1_555
Gd0_6 Rh0_7 3.122910 1_554
Gd0_6 Rh1_7 3.122913 1_554
Gd0_6 Rh1_6 3.122913 1_555
Gd0_6 Rh1_0 3.122913 1_555
Gd0_6 Rh1_1 3.122913 1_554
Gd0_6 Gd0_7 3.141061 1_555
Gd0_6 Gd0_7 3.141061 1_554
Gd0_7 Rh2_4 3.122908 1_555
Gd0_7 Rh2_7 3.122908 1_555
Gd0_7 Rh2_6 3.122908 1_555
Gd0_7 Rh2_5 3.122908 1_555
Gd0_7 Rh0_3 3.122910 1_555
Gd0_7 Rh0_6 3.122910 1_555
Gd0_7 Rh0_2 3.122910 1_555
Gd0_7 Rh0_7 3.122910 1_555
Gd0_7 Rh1_7 3.122913 1_555
Gd0_7 Rh1_6 3.122913 1_555
Gd0_7 Rh1_1 3.122913 1_555
Gd0_7 Rh1_0 3.122913 1_555
B0_0 Rh2_0 2.212475 1_555
B0_0 Rh2_1 2.212475 1_554
B0_0 Rh0_2 2.212538 1_555
B0_0 Rh0_3 2.212538 1_554
B0_0 Rh1_0 2.212540 1_555
B0_0 Rh1_1 2.212540 1_554
B0_0 Gd0_2 3.116799 1_555
B0_0 Gd0_0 3.116809 1_555
B0_0 Gd0_6 3.116902 1_555
B0_1 Rh2_0 2.212475 1_555
B0_1 Rh2_1 2.212475 1_555
B0_1 Rh0_2 2.212538 1_555
B0_1 Rh0_3 2.212538 1_555
B0_1 Rh1_0 2.212540 1_555
B0_1 Rh1_1 2.212540 1_555
B0_1 Gd0_3 3.116799 1_555
B0_1 Gd0_1 3.116809 1_555
B0_1 Gd0_7 3.116902 1_555
B0_2 Rh2_3 2.212475 1_554
B0_2 Rh2_2 2.212475 1_555
B0_2 Rh0_0 2.212538 1_565
B0_2 Rh0_1 2.212538 1_564
B0_2 Rh1_2 2.212540 1_555
B0_2 Rh1_3 2.212540 1_554
B0_2 Gd0_0 3.116799 1_565
B0_2 Gd0_2 3.116809 1_555
B0_2 Gd0_4 3.116902 1_565
B0_3 Rh2_3 2.212475 1_555
B0_3 Rh2_2 2.212475 1_555
B0_3 Rh0_0 2.212538 1_565
B0_3 Rh0_1 2.212538 1_565
B0_3 Rh1_3 2.212540 1_555
B0_3 Rh1_2 2.212540 1_555
B0_3 Gd0_1 3.116799 1_565
B0_3 Gd0_3 3.116809 1_555
B0_3 Gd0_5 3.116902 1_565
B0_4 Rh2_4 2.212475 1_555
B0_4 Rh2_5 2.212475 1_554
B0_4 Rh0_7 2.212538 1_554
B0_4 Rh0_6 2.212538 1_555
B0_4 Rh1_5 2.212540 1_554
B0_4 Rh1_4 2.212540 1_555
B0_4 Gd0_6 3.116799 1_555
B0_4 Gd0_4 3.116809 1_555
B0_4 Gd0_2 3.116902 1_655
B0_5 Rh2_4 2.212475 1_555
B0_5 Rh2_5 2.212475 1_555
B0_5 Rh0_6 2.212538 1_555
B0_5 Rh0_7 2.212538 1_555
B0_5 Rh1_5 2.212540 1_555
B0_5 Rh1_4 2.212540 1_555
B0_5 Gd0_7 3.116799 1_555
B0_5 Gd0_5 3.116809 1_555
B0_5 Gd0_3 3.116902 1_655
B0_6 Rh2_7 2.212475 1_554
B0_6 Rh2_6 2.212475 1_555
B0_6 Rh0_4 2.212538 1_565
B0_6 Rh0_5 2.212538 1_564
B0_6 Rh1_6 2.212540 1_555
B0_6 Rh1_7 2.212540 1_554
B0_6 Gd0_4 3.116799 1_565
B0_6 Gd0_6 3.116809 1_555
B0_6 Gd0_0 3.116902 1_665
B0_7 Rh2_7 2.212475 1_555
B0_7 Rh2_6 2.212475 1_555
B0_7 Rh0_4 2.212538 1_565
B0_7 Rh0_5 2.212538 1_565
B0_7 Rh1_7 2.212540 1_555
B0_7 Rh1_6 2.212540 1_555
B0_7 Gd0_5 3.116799 1_565
B0_7 Gd0_7 3.116809 1_555
B0_7 Gd0_1 3.116902 1_665
B1_0 Rh2_5 2.212475 1_554
B1_0 Rh2_4 2.212475 1_555
B1_0 Rh0_0 2.212538 1_555
B1_0 Rh0_1 2.212538 1_554
B1_0 Rh1_1 2.212540 1_554
B1_0 Rh1_0 2.212540 1_555
B1_0 Gd0_4 3.116799 1_555
B1_0 Gd0_6 3.116809 1_555
B1_0 Gd0_0 3.116902 1_555
B1_1 Rh2_5 2.212475 1_555
B1_1 Rh2_4 2.212475 1_555
B1_1 Rh0_0 2.212538 1_555
B1_1 Rh0_1 2.212538 1_555
B1_1 Rh1_1 2.212540 1_555
B1_1 Rh1_0 2.212540 1_555
B1_1 Gd0_5 3.116799 1_555
B1_1 Gd0_7 3.116809 1_555
B1_1 Gd0_1 3.116902 1_555
B1_2 Rh2_7 2.212475 1_554
B1_2 Rh2_6 2.212475 1_555
B1_2 Rh0_3 2.212538 1_554
B1_2 Rh0_2 2.212538 1_555
B1_2 Rh1_2 2.212540 1_555
B1_2 Rh1_3 2.212540 1_554
B1_2 Gd0_6 3.116799 1_555
B1_2 Gd0_4 3.116809 1_565
B1_2 Gd0_2 3.116902 1_555
B1_3 Rh2_6 2.212475 1_555
B1_3 Rh2_7 2.212475 1_555
B1_3 Rh0_2 2.212538 1_555
B1_3 Rh0_3 2.212538 1_555
B1_3 Rh1_3 2.212540 1_555
B1_3 Rh1_2 2.212540 1_555
B1_3 Gd0_7 3.116799 1_555
B1_3 Gd0_5 3.116809 1_565
B1_3 Gd0_3 3.116902 1_555
B1_4 Rh2_1 2.212475 1_654
B1_4 Rh2_0 2.212475 1_655
B1_4 Rh0_4 2.212538 1_555
B1_4 Rh0_5 2.212538 1_554
B1_4 Rh1_4 2.212540 1_555
B1_4 Rh1_5 2.212540 1_554
B1_4 Gd0_0 3.116799 1_655
B1_4 Gd0_2 3.116809 1_655
B1_4 Gd0_4 3.116902 1_555
B1_5 Rh2_1 2.212475 1_655
B1_5 Rh2_0 2.212475 1_655
B1_5 Rh0_4 2.212538 1_555
B1_5 Rh0_5 2.212538 1_555
B1_5 Rh1_4 2.212540 1_555
B1_5 Rh1_5 2.212540 1_555
B1_5 Gd0_1 3.116799 1_655
B1_5 Gd0_3 3.116809 1_655
B1_5 Gd0_5 3.116902 1_555
B1_6 Rh2_3 2.212475 1_654
B1_6 Rh2_2 2.212475 1_655
B1_6 Rh0_6 2.212538 1_555
B1_6 Rh0_7 2.212538 1_554
B1_6 Rh1_6 2.212540 1_555
B1_6 Rh1_7 2.212540 1_554
B1_6 Gd0_2 3.116799 1_655
B1_6 Gd0_0 3.116809 1_665
B1_6 Gd0_6 3.116902 1_555
B1_7 Rh2_3 2.212475 1_655
B1_7 Rh2_2 2.212475 1_655
B1_7 Rh0_7 2.212538 1_555
B1_7 Rh0_6 2.212538 1_555
B1_7 Rh1_7 2.212540 1_555
B1_7 Rh1_6 2.212540 1_555
B1_7 Gd0_3 3.116799 1_655
B1_7 Gd0_1 3.116809 1_665
B1_7 Gd0_7 3.116902 1_555
