# generated using pymatgen
data_Tb3PO7
_symmetry_space_group_name_H-M   'P 1'
_cell_length_a   8.94802054
_cell_length_b   8.94802054
_cell_length_c   11.98389022
_cell_angle_alpha   77.28521710
_cell_angle_beta   77.28521710
_cell_angle_gamma   90.20526583
_symmetry_Int_Tables_number   1
_chemical_formula_structural   Tb3PO7
_chemical_formula_sum   'Tb18 P6 O42'
_cell_volume   911.66745896
_cell_formula_units_Z   6
loop_
 _symmetry_equiv_pos_site_id
 _symmetry_equiv_pos_as_xyz
  1  'x, y, z'
loop_
 _atom_site_type_symbol
 _atom_site_label
 _atom_site_symmetry_multiplicity
 _atom_site_fract_x
 _atom_site_fract_y
 _atom_site_fract_z
 _atom_site_occupancy
  Tb  Tb0  1  0.67599458  0.98519188  0.91433486  1
  Tb  Tb1  1  0.98519188  0.67599458  0.91433486  1
  Tb  Tb2  1  0.31092840  0.70997002  0.68555580  1
  Tb  Tb3  1  0.70997002  0.31092840  0.68555580  1
  Tb  Tb4  1  0.32645267  0.67798485  0.99691004  1
  Tb  Tb5  1  0.67798485  0.32645267  0.99691004  1
  Tb  Tb6  1  0.34983059  0.03336841  0.79969856  1
  Tb  Tb7  1  0.03336841  0.34983059  0.79969856  1
  Tb  Tb8  1  0.33668312  0.98253049  0.13232951  1
  Tb  Tb9  1  0.98253049  0.33668312  0.13232951  1
  Tb  Tb10  1  0.68420223  0.03814958  0.23880986  1
  Tb  Tb11  1  0.03814958  0.68420223  0.23880986  1
  Tb  Tb12  1  0.67100813  0.98745224  0.57149749  1
  Tb  Tb13  1  0.98745224  0.67100813  0.57149749  1
  Tb  Tb14  1  0.34274278  0.69430688  0.37425308  1
  Tb  Tb15  1  0.69430688  0.34274278  0.37425308  1
  Tb  Tb16  1  0.34488260  0.03561279  0.45678713  1
  Tb  Tb17  1  0.03561279  0.34488260  0.45678713  1
  P  P0  1  0.33962018  0.33962018  0.95659273  1
  P  P1  1  0.01496728  0.01496728  0.36517726  1
  P  P2  1  0.68111727  0.68111727  0.41481184  1
  P  P3  1  0.66882559  0.66882559  0.79344318  1
  P  P4  1  0.00583211  0.00583211  0.00604373  1
  P  P5  1  0.35211450  0.35211450  0.57773024  1
  O  O0  1  0.61759945  0.06229469  0.74086937  1
  O  O1  1  0.06229469  0.61759945  0.74086937  1
  O  O2  1  0.58132630  0.58132630  0.36342350  1
  O  O3  1  0.30439316  0.30439316  0.47312155  1
  O  O4  1  0.49946990  0.69740724  0.79881759  1
  O  O5  1  0.69740724  0.49946990  0.79881759  1
  O  O6  1  0.30233210  0.71844692  0.18556121  1
  O  O7  1  0.71844692  0.30233210  0.18556121  1
  O  O8  1  0.43945280  0.43945280  0.00792999  1
  O  O9  1  0.57408313  0.77481459  0.48806088  1
  O  O10  1  0.77481459  0.57408313  0.48806088  1
  O  O11  1  0.91368224  0.91368224  0.47623995  1
  O  O12  1  0.40323230  0.95862371  0.63027319  1
  O  O13  1  0.95862371  0.40323230  0.63027319  1
  O  O14  1  0.78815981  0.78815981  0.30577333  1
  O  O15  1  0.10702085  0.10702085  0.89492645  1
  O  O16  1  0.21598156  0.79905964  0.84967239  1
  O  O17  1  0.79905964  0.21598156  0.84967239  1
  O  O18  1  0.58832773  0.08194689  0.07446455  1
  O  O19  1  0.08194689  0.58832773  0.07446455  1
  O  O20  1  0.71648201  0.71648201  0.89808176  1
  O  O21  1  0.43256366  0.93872887  0.29667409  1
  O  O22  1  0.93872887  0.43256366  0.29667409  1
  O  O23  1  0.12453903  0.12453903  0.39818308  1
  O  O24  1  0.25408991  0.25408991  0.69219988  1
  O  O25  1  0.76697378  0.76697378  0.67909785  1
  O  O26  1  0.89618417  0.89618417  0.97319817  1
  O  O27  1  0.23253787  0.23253787  0.06562032  1
  O  O28  1  0.44666933  0.24591426  0.88335843  1
  O  O29  1  0.24591426  0.44666933  0.88335843  1
  O  O30  1  0.52147428  0.32348852  0.57229553  1
  O  O31  1  0.32348852  0.52147428  0.57229553  1
  O  O32  1  0.42818244  0.91238765  0.96334746  1
  O  O33  1  0.91238765  0.42818244  0.96334746  1
  O  O34  1  0.59274781  0.10828496  0.40775937  1
  O  O35  1  0.10828496  0.59274781  0.40775937  1
  O  O36  1  0.22173951  0.80487109  0.52147007  1
  O  O37  1  0.80487109  0.22173951  0.52147007  1
  O  O38  1  0.11461802  0.91488437  0.29426176  1
  O  O39  1  0.91488437  0.11461802  0.29426176  1
  O  O40  1  0.10596273  0.90624851  0.07693989  1
  O  O41  1  0.90624851  0.10596273  0.07693989  1
loop_
_geom_bond_atom_site_label_1
_geom_bond_atom_site_label_2
_geom_bond_distance
_geom_bond_site_symmetry_2
O0 Tb0 2.218060 1_545
O0 Tb12 2.229428 1_545
O0 Tb3 2.273471 1_555
O0 Tb6 2.340193 1_555
O1 Tb1 2.218060 1_455
O1 Tb13 2.229428 1_455
O1 Tb2 2.273471 1_555
O1 Tb7 2.340193 1_555
O2 P2 1.565987 1_555
O2 Tb14 2.355358 1_555
O2 Tb15 2.355358 1_555
O3 P5 1.551198 1_555
O3 Tb17 2.477119 1_555
O3 Tb16 2.477119 1_555
O4 P3 1.527433 1_555
O4 Tb2 2.375575 1_555
O4 Tb4 2.502228 1_555
O5 P3 1.527433 1_555
O5 Tb3 2.375575 1_555
O5 Tb5 2.502228 1_555
O6 Tb8 2.308729 1_555
O6 Tb11 2.309521 1_555
O6 Tb4 2.331277 1_554
O6 Tb14 2.331566 1_555
O7 Tb9 2.308729 1_555
O7 Tb10 2.309521 1_555
O7 Tb5 2.331277 1_554
O7 Tb15 2.331566 1_555
O8 P0 1.566080 1_554
O8 Tb4 2.354910 1_554
O8 Tb5 2.354910 1_554
O9 P2 1.533096 1_555
O9 Tb12 2.565067 1_555
O9 Tb2 2.900925 1_555
O10 P2 1.533096 1_555
O10 Tb13 2.565067 1_555
O10 Tb3 2.900925 1_555
O11 P1 1.531785 1_665
O11 Tb12 2.388490 1_555
O11 Tb13 2.388490 1_555
O12 Tb16 2.218000 1_565
O12 Tb6 2.229585 1_565
O12 Tb2 2.273460 1_555
O12 Tb12 2.340184 1_555
O13 Tb17 2.218000 1_655
O13 Tb7 2.229585 1_655
O13 Tb3 2.273460 1_555
O13 Tb13 2.340184 1_555
O14 P2 1.560081 1_555
O14 Tb10 2.463002 1_565
O14 Tb11 2.463002 1_655
O15 P4 1.531497 1_556
O15 Tb7 2.388942 1_555
O15 Tb6 2.388942 1_555
O16 Tb1 2.231911 1_455
O16 Tb2 2.277035 1_555
O16 Tb4 2.279957 1_555
O16 Tb6 2.302692 1_565
O17 Tb0 2.231911 1_545
O17 Tb3 2.277035 1_555
O17 Tb5 2.279957 1_555
O17 Tb7 2.302692 1_655
O18 Tb5 2.249039 1_554
O18 Tb0 2.262948 1_544
O18 Tb10 2.274835 1_555
O18 Tb8 2.317159 1_545
O19 Tb4 2.249039 1_554
O19 Tb1 2.262948 1_454
O19 Tb11 2.274835 1_555
O19 Tb9 2.317159 1_455
O20 P3 1.551005 1_555
O20 Tb0 2.476239 1_555
O20 Tb1 2.476239 1_555
O21 Tb14 2.248799 1_555
O21 Tb16 2.263456 1_565
O21 Tb8 2.274857 1_555
O21 Tb10 2.317123 1_565
O22 Tb15 2.248799 1_555
O22 Tb17 2.263456 1_655
O22 Tb9 2.274857 1_555
O22 Tb11 2.317123 1_655
O23 P1 1.553560 1_555
O23 Tb17 2.321321 1_555
O23 Tb16 2.321321 1_555
O24 P5 1.534823 1_555
O24 Tb6 2.381628 1_555
O24 Tb7 2.381628 1_555
O25 P3 1.534693 1_555
O25 Tb13 2.381587 1_555
O25 Tb12 2.381587 1_555
O26 P4 1.553472 1_666
O26 Tb0 2.321549 1_555
O26 Tb1 2.321549 1_555
O27 P0 1.560311 1_554
O27 Tb8 2.463259 1_545
O27 Tb9 2.463259 1_455
O28 P0 1.533118 1_555
O28 Tb6 2.565743 1_555
O28 Tb3 2.903964 1_555
O29 P0 1.533118 1_555
O29 Tb7 2.565743 1_555
O29 Tb2 2.903964 1_555
O30 P5 1.527440 1_555
O30 Tb3 2.375222 1_555
O30 Tb15 2.501287 1_555
O31 P5 1.527440 1_555
O31 Tb2 2.375222 1_555
O31 Tb14 2.501287 1_555
O32 Tb4 2.200782 1_555
O32 Tb0 2.221320 1_555
O32 Tb8 2.235726 1_556
O32 Tb6 2.277207 1_565
O33 Tb5 2.200782 1_555
O33 Tb1 2.221320 1_555
O33 Tb9 2.235726 1_556
O33 Tb7 2.277207 1_655
O34 Tb15 2.200746 1_555
O34 Tb16 2.221489 1_555
O34 Tb10 2.235281 1_555
O34 Tb12 2.277301 1_545
O35 Tb14 2.200746 1_555
O35 Tb17 2.221489 1_555
O35 Tb11 2.235281 1_555
O35 Tb13 2.277301 1_455
O36 Tb16 2.231845 1_565
O36 Tb2 2.277124 1_555
O36 Tb14 2.280077 1_555
O36 Tb13 2.302550 1_455
O37 Tb17 2.231845 1_655
O37 Tb3 2.277124 1_555
O37 Tb15 2.280077 1_555
O37 Tb12 2.302550 1_545
O38 P1 1.525283 1_565
O38 Tb8 2.420224 1_555
O38 Tb11 2.442200 1_555
O39 P1 1.525283 1_655
O39 Tb9 2.420224 1_555
O39 Tb10 2.442200 1_555
O40 P4 1.525179 1_565
O40 Tb11 2.419800 1_555
O40 Tb8 2.441560 1_555
O41 P4 1.525179 1_655
O41 Tb10 2.419800 1_555
O41 Tb9 2.441560 1_555
