# generated using pymatgen
data_Yb4MgTi4Cd4(SbO7)4
_symmetry_space_group_name_H-M   'P 1'
_cell_length_a   7.33902007
_cell_length_b   14.75827280
_cell_length_c   12.74575998
_cell_angle_alpha   30.03754899
_cell_angle_beta   54.49131823
_cell_angle_gamma   59.99390566
_symmetry_Int_Tables_number   1
_chemical_formula_structural   Yb4MgTi4Cd4(SbO7)4
_chemical_formula_sum   'Yb4 Mg1 Ti4 Cd4 Sb4 O28'
_cell_volume   562.51136526
_cell_formula_units_Z   1
loop_
 _symmetry_equiv_pos_site_id
 _symmetry_equiv_pos_as_xyz
  1  'x, y, z'
loop_
 _atom_site_type_symbol
 _atom_site_label
 _atom_site_symmetry_multiplicity
 _atom_site_fract_x
 _atom_site_fract_y
 _atom_site_fract_z
 _atom_site_occupancy
  Yb  Yb0  1  0.98613900  0.03446400  0.96230700  1
  Yb  Yb1  1  0.99582100  0.24408000  0.49701900  1
  Yb  Yb2  1  0.50646900  0.49948300  0.99756900  1
  Yb  Yb3  1  0.01817100  0.24354600  0.00208300  1
  Mg  Mg0  1  0.19583200  0.74480600  0.28386000  1
  Ti  Ti0  1  0.50638900  0.25068300  0.00410700  1
  Ti  Ti1  1  0.49716000  0.02027200  0.48191800  1
  Ti  Ti2  1  0.99477500  0.46522400  0.52413500  1
  Ti  Ti3  1  0.50018200  0.24231700  0.50316100  1
  Cd  Cd0  1  0.99530500  0.49451600  0.00885800  1
  Cd  Cd1  1  0.51250200  0.01482600  0.99100300  1
  Cd  Cd2  1  0.01162600  0.74961700  0.99497900  1
  Cd  Cd3  1  0.96070800  0.76852600  0.52443300  1
  Sb  Sb0  1  0.50173700  0.74698600  0.99325000  1
  Sb  Sb1  1  0.00742300  0.00410300  0.49444300  1
  Sb  Sb2  1  0.50706900  0.47897700  0.51801300  1
  Sb  Sb3  1  0.52084700  0.74604900  0.49536300  1
  O  O0  1  0.13527700  0.97320600  0.14460600  1
  O  O1  1  0.18879600  0.19406200  0.17292300  1
  O  O2  1  0.18428800  0.01069900  0.55931800  1
  O  O3  1  0.12676400  0.50129600  0.12016800  1
  O  O4  1  0.59149900  0.99599200  0.17304500  1
  O  O5  1  0.58260300  0.19169400  0.17655000  1
  O  O6  1  0.17992800  0.29431600  0.57438700  1
  O  O7  1  0.43589900  0.20002300  0.41860100  1
  O  O8  1  0.17826000  0.69440900  0.18408400  1
  O  O9  1  0.18139300  0.48176600  0.58539800  1
  O  O10  1  0.82611400  0.01021400  0.41771600  1
  O  O11  1  0.42097400  0.99701800  0.81678500  1
  O  O12  1  0.57128000  0.49624200  0.17733100  1
  O  O13  1  0.58133100  0.29389900  0.57244200  1
  O  O14  1  0.82474300  0.19573000  0.42998000  1
  O  O15  1  0.53930400  0.69957600  0.18742600  1
  O  O16  1  0.18577900  0.79844800  0.57476900  1
  O  O17  1  0.42590700  0.28932300  0.83667500  1
  O  O18  1  0.43334000  0.68577500  0.43523400  1
  O  O19  1  0.45089600  0.49580100  0.81929200  1
  O  O20  1  0.83258700  0.48715300  0.42752400  1
  O  O21  1  0.82459100  0.29531900  0.82121800  1
  O  O22  1  0.57924000  0.79797900  0.57542300  1
  O  O23  1  0.84737400  0.69280000  0.41894300  1
  O  O24  1  0.43409000  0.79684600  0.81656100  1
  O  O25  1  0.88437900  0.49453600  0.88140800  1
  O  O26  1  0.83193600  0.79841400  0.82599200  1
  O  O27  1  0.87817500  0.99301100  0.87258600  1
loop_
_geom_bond_atom_site_label_1
_geom_bond_atom_site_label_2
_geom_bond_distance
_geom_bond_site_symmetry_2
Mg0 O0 1.941490 1_555
Mg0 O9 1.989627 1_555
Mg0 O8 2.027617 1_555
Mg0 O15 2.109247 1_555
Mg0 O23 2.157269 1_455
Cd0 O25 2.199254 1_554
Cd0 O3 2.210425 1_655
Cd0 O12 2.559029 1_555
Cd0 O14 2.560821 1_555
Cd0 O26 2.598852 1_554
Cd0 O16 2.646486 1_654
Cd0 O1 2.673698 1_655
Cd0 O19 2.759945 1_654
Cd1 O27 2.203563 1_545
Cd1 O0 2.279715 1_546
Cd1 O17 2.400999 1_555
Cd1 O4 2.466139 1_546
Cd1 O13 2.566456 1_555
Cd1 O18 2.715350 1_546
Cd1 O15 2.728049 1_546
Cd2 O27 2.202239 1_455
Cd2 O3 2.243903 1_556
Cd2 O24 2.548883 1_555
Cd2 O26 2.561434 1_455
Cd2 O20 2.612743 1_456
Cd2 O2 2.636543 1_565
Cd2 O8 2.645037 1_556
Cd3 O25 2.194710 1_555
Cd3 O10 2.277114 1_565
Cd3 O0 2.355691 1_655
Cd3 O22 2.368008 1_555
Cd3 O16 2.405456 1_655
O0 Yb0 2.396190 1_464
O0 Yb3 2.406689 1_565
O1 Ti0 1.941606 1_555
O1 Sb1 1.982250 1_555
O1 Yb3 2.518403 1_555
O2 Ti1 1.928041 1_555
O2 Sb1 1.972462 1_555
O2 Yb1 2.486469 1_455
O3 Yb1 2.263213 1_455
O3 Yb2 2.268786 1_554
O4 Sb3 1.988404 1_555
O4 Ti0 2.087119 1_565
O4 Yb0 2.427489 1_564
O5 Ti0 1.878757 1_555
O5 Ti1 1.909282 1_555
O5 Yb3 2.644218 1_655
O5 Yb2 2.674080 1_554
O6 Ti2 1.845148 1_455
O6 Ti3 1.964891 1_555
O6 Yb0 2.373401 1_455
O6 Yb1 2.676431 1_455
O7 Ti1 1.847351 1_555
O7 Ti3 1.955444 1_555
O7 Yb2 2.568260 1_554
O7 Yb1 2.669804 1_455
O8 Sb0 2.005265 1_554
O8 Ti2 2.105390 1_455
O8 Yb0 2.855771 1_464
O9 Sb2 2.007554 1_555
O9 Ti2 2.109951 1_455
O9 Yb3 2.548540 1_556
O10 Sb1 1.993486 1_655
O10 Ti1 2.019158 1_555
O10 Yb3 2.550419 1_655
O11 Ti3 1.942352 1_565
O11 Sb0 2.004439 1_555
O11 Yb0 2.657939 1_465
O12 Sb0 1.982112 1_554
O12 Ti3 2.013828 1_555
O12 Yb2 2.555703 1_554
O13 Sb2 1.976990 1_555
O13 Ti3 1.985500 1_555
O13 Yb1 2.511562 1_555
O14 Ti3 1.976839 1_555
O14 Sb1 1.983629 1_655
O14 Yb1 2.452272 1_555
O15 Sb2 2.066564 1_555
O15 Sb0 2.071787 1_554
O16 Sb1 2.043661 1_565
O16 Sb3 2.057029 1_555
O17 Sb2 1.964619 1_555
O17 Ti0 2.061204 1_556
O17 Yb3 2.466361 1_556
O18 Sb3 2.028438 1_555
O18 Sb2 2.038821 1_555
O19 Ti0 1.920434 1_556
O19 Sb3 1.995776 1_555
O19 Yb2 2.577799 1_555
O20 Ti2 1.914477 1_555
O20 Sb2 1.974497 1_555
O20 Yb1 2.553715 1_555
O21 Ti2 1.839789 1_555
O21 Ti0 1.969171 1_556
O21 Yb0 2.320636 1_555
O21 Yb3 2.754174 1_656
O22 Sb3 2.000704 1_555
O22 Ti1 2.152634 1_565
O22 Yb2 2.572583 1_555
O23 Sb3 2.009786 1_555
O23 Ti2 2.121914 1_555
O23 Yb0 2.788488 1_564
O24 Sb0 1.980864 1_555
O24 Ti1 2.040080 1_565
O24 Yb2 2.535015 1_555
O25 Yb2 2.259235 1_555
O25 Yb3 2.302820 1_656
O26 Sb0 2.007543 1_555
O26 Sb1 2.027077 1_665
O27 Yb0 2.249114 1_565
O27 Yb1 2.253471 1_565
