# generated using pymatgen
data_MgMn4(FeO4)2
_symmetry_space_group_name_H-M   'P 1'
_cell_length_a   6.14106956
_cell_length_b   6.36011463
_cell_length_c   6.13238639
_cell_angle_alpha   63.15372994
_cell_angle_beta   58.68833044
_cell_angle_gamma   63.55137937
_symmetry_Int_Tables_number   1
_chemical_formula_structural   MgMn4(FeO4)2
_chemical_formula_sum   'Mg1 Mn4 Fe2 O8'
_cell_volume   175.46452592
_cell_formula_units_Z   1
loop_
 _symmetry_equiv_pos_site_id
 _symmetry_equiv_pos_as_xyz
  1  'x, y, z'
loop_
 _atom_site_type_symbol
 _atom_site_label
 _atom_site_symmetry_multiplicity
 _atom_site_fract_x
 _atom_site_fract_y
 _atom_site_fract_z
 _atom_site_occupancy
  Mg  Mg0  1  0.12500000  0.62500000  0.12500000  1
  Mn  Mn0  1  0.97779900  0.08867300  0.95748700  1
  Mn  Mn1  1  0.27220100  0.16132700  0.29251300  1
  Mn  Mn2  1  0.12500000  0.62500000  0.62500000  1
  Mn  Mn3  1  0.62500000  0.12500000  0.62500000  1
  Fe  Fe0  1  0.62500000  0.62500000  0.12500000  1
  Fe  Fe1  1  0.62500000  0.62500000  0.62500000  1
  O  O0  1  0.34897400  0.40844000  0.38086800  1
  O  O1  1  0.38157400  0.38671500  0.88153900  1
  O  O2  1  0.39175700  0.79944400  0.42230300  1
  O  O3  1  0.38149400  0.85600300  0.87287300  1
  O  O4  1  0.86850600  0.39399700  0.37712700  1
  O  O5  1  0.85824300  0.45055600  0.82769700  1
  O  O6  1  0.86842500  0.86328500  0.36846100  1
  O  O7  1  0.90102600  0.84156000  0.86913200  1
loop_
_geom_bond_atom_site_label_1
_geom_bond_atom_site_label_2
_geom_bond_distance
_geom_bond_site_symmetry_2
Mg0 O1 2.116579 1_554
Mg0 O6 2.116579 1_455
Mg0 O4 2.123362 1_455
Mg0 O3 2.123362 1_554
Mg0 O7 2.203314 1_454
Mg0 O0 2.203314 1_555
Mn0 O5 1.979266 1_555
Mn0 O7 2.163496 1_545
Mn0 O6 2.166313 1_546
Mn0 O3 2.166474 1_645
Mn1 O2 1.979266 1_545
Mn1 O0 2.163496 1_555
Mn1 O1 2.166313 1_554
Mn1 O4 2.166474 1_455
Mn2 O2 1.927851 1_555
Mn2 O5 1.927851 1_455
Mn2 O0 2.016144 1_555
Mn2 O7 2.016144 1_455
Mn2 O1 2.355900 1_555
Mn2 O6 2.355905 1_455
Mn3 O4 2.245286 1_555
Mn3 O3 2.245286 1_545
Mn3 O1 2.276959 1_555
Mn3 O6 2.276959 1_545
Mn3 O7 2.417128 1_545
Mn3 O0 2.417128 1_555
Fe0 O2 2.074519 1_555
Fe0 O5 2.074519 1_554
Fe0 O0 2.143769 1_555
Fe0 O7 2.143769 1_554
Fe0 O3 2.275884 1_554
Fe0 O4 2.275884 1_555
Fe1 O5 2.004257 1_555
Fe1 O2 2.004257 1_555
Fe1 O3 2.098262 1_555
Fe1 O4 2.098262 1_555
Fe1 O6 2.103988 1_555
Fe1 O1 2.103992 1_555
