# generated using pymatgen
data_NaGaSiGe(SO6)2
_symmetry_space_group_name_H-M   'P 1'
_cell_length_a   8.50238553
_cell_length_b   8.51192994
_cell_length_c   22.18624851
_cell_angle_alpha   90.16004894
_cell_angle_beta   90.00000000
_cell_angle_gamma   119.96291466
_symmetry_Int_Tables_number   1
_chemical_formula_structural   NaGaSiGe(SO6)2
_chemical_formula_sum   'Na6 Ga6 Si6 Ge6 S12 O72'
_cell_volume   1391.05164563
_cell_formula_units_Z   6
loop_
 _symmetry_equiv_pos_site_id
 _symmetry_equiv_pos_as_xyz
  1  'x, y, z'
loop_
 _atom_site_type_symbol
 _atom_site_label
 _atom_site_symmetry_multiplicity
 _atom_site_fract_x
 _atom_site_fract_y
 _atom_site_fract_z
 _atom_site_occupancy
  Na  Na0  1  0.01617635  0.00859610  0.50227594  1
  Na  Na1  1  0.99241976  0.00859610  0.00227594  1
  Na  Na2  1  0.68148419  0.33176806  0.83478132  1
  Na  Na3  1  0.65028487  0.33176806  0.33478132  1
  Na  Na4  1  0.33684522  0.68150359  0.16854023  1
  Na  Na5  1  0.34465736  0.68150359  0.66854023  1
  Ga  Ga0  1  0.99532522  0.99268749  0.64759009  1
  Ga  Ga1  1  0.99736227  0.99268749  0.14759009  1
  Ga  Ga2  1  0.69146985  0.32385249  0.97947474  1
  Ga  Ga3  1  0.63238364  0.32385249  0.47947474  1
  Ga  Ga4  1  0.33746808  0.67284923  0.31312589  1
  Ga  Ga5  1  0.33538015  0.67284923  0.81312589  1
  Si  Si0  1  0.28567829  0.99424709  0.24816452  1
  Si  Si1  1  0.70856879  0.99424709  0.74816452  1
  Si  Si2  1  0.36593718  0.03306355  0.58191884  1
  Si  Si3  1  0.66712737  0.03306355  0.08191884  1
  Si  Si4  1  0.05622836  0.39008506  0.91525164  1
  Si  Si5  1  0.33385570  0.39008506  0.41525164  1
  Ge  Ge0  1  0.02868150  0.02401771  0.35380866  1
  Ge  Ge1  1  0.99533621  0.02401771  0.85380866  1
  Ge  Ge2  1  0.65834395  0.30008718  0.68494976  1
  Ge  Ge3  1  0.64174423  0.30008718  0.18494976  1
  Ge  Ge4  1  0.33719881  0.66655523  0.01853735  1
  Ge  Ge5  1  0.32935542  0.66655523  0.51853735  1
  S  S0  1  0.71530713  0.70866261  0.25007959  1
  S  S1  1  0.99602119  0.28927157  0.24919504  1
  S  S2  1  0.29325038  0.28927157  0.74919504  1
  S  S3  1  0.99335548  0.70866261  0.75007959  1
  S  S4  1  0.95282878  0.33641314  0.58168922  1
  S  S5  1  0.66428308  0.61598046  0.58423653  1
  S  S6  1  0.95169838  0.61598046  0.08423653  1
  S  S7  1  0.38358536  0.33641314  0.08168922  1
  S  S8  1  0.62790980  0.66621143  0.91675784  1
  S  S9  1  0.32735158  0.95865419  0.91551521  1
  S  S10  1  0.63130161  0.95865419  0.41551521  1
  S  S11  1  0.03830063  0.66621143  0.41675784  1
  O  O0  1  0.20681124  0.04073225  0.31000329  1
  O  O1  1  0.82529557  0.79170731  0.30587574  1
  O  O2  1  0.95409055  0.17351670  0.30516864  1
  O  O3  1  0.21942615  0.17351670  0.80516864  1
  O  O4  1  0.96641174  0.79170731  0.80587574  1
  O  O5  1  0.83392101  0.04073225  0.81000329  1
  O  O6  1  0.79714928  0.96503907  0.68877708  1
  O  O7  1  0.18465506  0.20683076  0.69533570  1
  O  O8  1  0.02881564  0.81872497  0.69566471  1
  O  O9  1  0.78990932  0.81872497  0.19566471  1
  O  O10  1  0.02217570  0.20683076  0.19533570  1
  O  O11  1  0.16788979  0.96503907  0.18877708  1
  O  O12  1  0.87805852  0.37514889  0.63862535  1
  O  O13  1  0.49506452  0.11382127  0.64288198  1
  O  O14  1  0.63614040  0.50487157  0.63961312  1
  O  O15  1  0.86873217  0.50487157  0.13961312  1
  O  O16  1  0.61875775  0.11382127  0.14288198  1
  O  O17  1  0.49709137  0.37514889  0.13862535  1
  O  O18  1  0.47020619  0.31566503  0.02776601  1
  O  O19  1  0.84148665  0.54039629  0.02924878  1
  O  O20  1  0.70277666  0.15337487  0.02322371  1
  O  O21  1  0.45059921  0.15337487  0.52322371  1
  O  O22  1  0.69891064  0.54039629  0.52924878  1
  O  O23  1  0.84545984  0.31566503  0.52776601  1
  O  O24  1  0.55475074  0.71212447  0.97190201  1
  O  O25  1  0.17912312  0.47502803  0.97773387  1
  O  O26  1  0.29571768  0.84779817  0.97119185  1
  O  O27  1  0.55207948  0.84779817  0.47119185  1
  O  O28  1  0.29590391  0.47502803  0.47773387  1
  O  O29  1  0.15737273  0.71212447  0.47190201  1
  O  O30  1  0.11782350  0.63994864  0.36221771  1
  O  O31  1  0.51699743  0.88590388  0.36194012  1
  O  O32  1  0.35937798  0.50564109  0.35626735  1
  O  O33  1  0.14626211  0.50564109  0.85626735  1
  O  O34  1  0.36890544  0.88590388  0.86194012  1
  O  O35  1  0.52212414  0.63994864  0.86221771  1
  O  O36  1  0.01269275  0.82847424  0.41139132  1
  O  O37  1  0.80822730  0.96189323  0.40811225  1
  O  O38  1  0.14587412  0.18605373  0.41251719  1
  O  O39  1  0.04017961  0.18605373  0.91251719  1
  O  O40  1  0.15366593  0.96189323  0.90811225  1
  O  O41  1  0.81578149  0.82847424  0.91139132  1
  O  O42  1  0.96905504  0.17353083  0.58777185  1
  O  O43  1  0.16860811  0.01185135  0.59239247  1
  O  O44  1  0.82323266  0.79903293  0.58865159  1
  O  O45  1  0.97580027  0.79903293  0.08865159  1
  O  O46  1  0.84324324  0.01185135  0.09239247  1
  O  O47  1  0.20447580  0.17353083  0.08777185  1
  O  O48  1  0.70010042  0.18577799  0.74438639  1
  O  O49  1  0.48031270  0.31364003  0.74413217  1
  O  O50  1  0.82324995  0.52897954  0.74337401  1
  O  O51  1  0.70573059  0.52897954  0.24337401  1
  O  O52  1  0.83332833  0.31364003  0.24413217  1
  O  O53  1  0.48567857  0.18577799  0.24438639  1
  O  O54  1  0.63675094  0.50016657  0.92628484  1
  O  O55  1  0.85567271  0.36728173  0.91899093  1
  O  O56  1  0.48103557  0.14509514  0.92331285  1
  O  O57  1  0.66406057  0.14509514  0.42331285  1
  O  O58  1  0.51161002  0.36728173  0.41899093  1
  O  O59  1  0.86341662  0.50016657  0.42628484  1
  O  O60  1  0.36498716  0.50217272  0.07912087  1
  O  O61  1  0.13335113  0.62900909  0.07925282  1
  O  O62  1  0.47808529  0.83316922  0.07217115  1
  O  O63  1  0.35508292  0.83316922  0.57217115  1
  O  O64  1  0.49565696  0.62900909  0.57925282  1
  O  O65  1  0.13718456  0.50217272  0.57912087  1
  O  O66  1  0.31303550  0.82094023  0.25761926  1
  O  O67  1  0.53176773  0.68503566  0.25524690  1
  O  O68  1  0.15961993  0.46711638  0.25594170  1
  O  O69  1  0.30749545  0.46711638  0.75594170  1
  O  O70  1  0.15326693  0.68503566  0.75524690  1
  O  O71  1  0.50790372  0.82094023  0.75761926  1
loop_
_geom_bond_atom_site_label_1
_geom_bond_atom_site_label_2
_geom_bond_distance
_geom_bond_site_symmetry_2
Na0 O43 2.375222 1_555
Na0 O38 2.411712 1_555
Na0 O42 2.505279 1_455
Na0 O36 2.520858 1_545
Na0 O44 2.577128 1_445
Na0 O37 2.634742 1_445
Na1 O46 2.375223 1_555
Na1 O39 2.411712 1_654
Na1 O47 2.505279 1_655
Na1 O41 2.520858 1_544
Na1 O45 2.577128 1_545
Na1 O40 2.634742 1_644
Na2 O55 2.307590 1_555
Na2 O48 2.402899 1_555
Na2 O50 2.526140 1_555
Na2 O56 2.569011 1_555
Na2 O49 2.593998 1_555
Na2 O54 2.617055 1_555
Na3 O58 2.307590 1_555
Na3 O53 2.402899 1_555
Na3 O51 2.526140 1_555
Na3 O57 2.569011 1_555
Na3 O52 2.593998 1_555
Na3 O59 2.617055 1_555
Na4 O66 2.362716 1_555
Na4 O62 2.479295 1_555
Na4 O61 2.517974 1_555
Na4 O67 2.529443 1_555
Na4 O68 2.575633 1_555
Na4 O60 2.582828 1_555
Na5 O71 2.362716 1_555
Na5 O63 2.479295 1_555
Na5 O64 2.517974 1_555
Na5 O70 2.529443 1_555
Na5 O69 2.575633 1_555
Na5 O65 2.582828 1_555
Ga0 O6 1.826091 1_555
Ga0 O43 1.859582 1_665
Ga0 O8 1.959934 1_655
Ga0 O7 2.023414 1_665
Ga0 O44 2.036352 1_555
Ga0 O42 2.129688 1_565
Ga1 O11 1.826091 1_655
Ga1 O46 1.859582 1_565
Ga1 O9 1.959934 1_555
Ga1 O10 2.023414 1_665
Ga1 O45 2.036352 1_555
Ga1 O47 2.129688 1_665
Ga2 O20 1.790039 1_556
Ga2 O55 1.836781 1_555
Ga2 O19 1.970797 1_556
Ga2 O56 2.083035 1_555
Ga2 O18 2.135741 1_556
Ga2 O54 2.137452 1_555
Ga3 O21 1.790039 1_555
Ga3 O58 1.836781 1_555
Ga3 O22 1.970797 1_555
Ga3 O57 2.083035 1_555
Ga3 O23 2.135741 1_555
Ga3 O59 2.137452 1_555
Ga4 O32 1.802488 1_555
Ga4 O66 1.849028 1_555
Ga4 O31 2.003904 1_555
Ga4 O67 2.053882 1_555
Ga4 O30 2.057078 1_555
Ga4 O68 2.074929 1_555
Ga5 O33 1.802488 1_555
Ga5 O71 1.849028 1_555
Ga5 O34 2.003904 1_555
Ga5 O70 2.053882 1_555
Ga5 O35 2.057078 1_555
Ga5 O69 2.074929 1_555
Ge0 O0 1.744740 1_555
Ge0 O38 1.791345 1_555
Ge0 O2 1.999969 1_455
Ge0 O36 2.051064 1_545
Ge0 O37 2.063486 1_445
Ge0 O1 2.145707 1_445
Ge1 O5 1.744740 1_555
Ge1 O39 1.791345 1_655
Ge1 O3 1.999969 1_655
Ge1 O41 2.051064 1_545
Ge1 O40 2.063486 1_645
Ge1 O4 2.145707 1_545
Ge2 O13 1.762176 1_555
Ge2 O48 1.778732 1_555
Ge2 O12 1.940554 1_555
Ge2 O49 2.049929 1_555
Ge2 O14 2.103403 1_555
Ge2 O50 2.167766 1_555
Ge3 O16 1.762176 1_555
Ge3 O53 1.778732 1_555
Ge3 O17 1.940554 1_555
Ge3 O52 2.049929 1_555
Ge3 O15 2.103403 1_555
Ge3 O51 2.167766 1_555
Ge4 O25 1.756925 1_554
Ge4 O62 1.776455 1_555
Ge4 O24 1.981915 1_554
Ge4 O26 2.039687 1_554
Ge4 O60 2.039854 1_555
Ge4 O61 2.090394 1_555
Ge5 O28 1.756925 1_555
Ge5 O63 1.776455 1_555
Ge5 O29 1.981915 1_555
Ge5 O27 2.039687 1_555
Ge5 O65 2.039854 1_555
Ge5 O64 2.090394 1_555
O0 Si0 1.658465 1_545
O1 S0 1.497139 1_555
O2 S1 1.515272 1_555
O3 S2 1.515272 1_555
O4 S3 1.497139 1_555
O5 Si1 1.658465 1_545
O6 Si1 1.596957 1_555
O7 S2 1.456344 1_555
O8 S3 1.466369 1_455
O9 S0 1.466369 1_555
O10 S1 1.456344 1_455
O11 Si0 1.596957 1_555
O12 S4 1.521703 1_555
O13 Si2 1.657775 1_555
O14 S5 1.497198 1_555
O15 S6 1.497198 1_555
O16 Si3 1.657775 1_555
O17 S7 1.521703 1_555
O18 S7 1.460685 1_555
O19 S6 1.474366 1_555
O20 Si3 1.591791 1_555
O21 Si2 1.591791 1_555
O22 S5 1.474366 1_555
O23 S4 1.460685 1_555
O24 S8 1.508844 1_555
O25 Si4 1.666139 1_555
O26 S9 1.497191 1_555
O27 S10 1.497191 1_555
O28 Si5 1.666139 1_555
O29 S11 1.508844 1_555
O30 S11 1.456296 1_555
O31 S10 1.461355 1_555
O32 Si5 1.587795 1_555
O33 Si4 1.587795 1_555
O34 S9 1.461355 1_555
O35 S8 1.456296 1_555
O36 S11 1.506822 1_555
O37 S10 1.499741 1_555
O38 Si5 1.673653 1_555
O39 Si4 1.673657 1_555
O40 S9 1.499733 1_555
O41 S8 1.506827 1_555
O42 S4 1.466825 1_555
O43 Si2 1.612186 1_555
O44 S5 1.469542 1_555
O45 S6 1.469546 1_555
O46 Si3 1.612178 1_555
O47 S7 1.466830 1_555
O48 Si1 1.669759 1_545
O49 S2 1.501950 1_555
O50 S3 1.497432 1_555
O51 S0 1.497436 1_555
O52 S1 1.501942 1_555
O53 Si0 1.669764 1_545
O54 S8 1.468235 1_555
O55 Si4 1.619182 1_655
O56 S9 1.477481 1_545
O57 S10 1.477475 1_545
O58 Si5 1.619199 1_555
O59 S11 1.468226 1_655
O60 S7 1.497429 1_555
O61 S6 1.496305 1_455
O62 Si3 1.670768 1_565
O63 Si2 1.670760 1_565
O64 S5 1.496322 1_555
O65 S4 1.497420 1_455
O66 Si0 1.618246 1_555
O67 S0 1.474945 1_555
O68 S1 1.464327 1_455
O69 S2 1.464331 1_555
O70 S3 1.474936 1_455
O71 Si1 1.618251 1_555
