# generated using pymatgen
data_MgTi4Bi2O11
_symmetry_space_group_name_H-M   'P 1'
_cell_length_a   3.91534803
_cell_length_b   7.65813412
_cell_length_c   8.20133175
_cell_angle_alpha   88.50481585
_cell_angle_beta   76.19980549
_cell_angle_gamma   75.19343753
_symmetry_Int_Tables_number   1
_chemical_formula_structural   MgTi4Bi2O11
_chemical_formula_sum   'Mg1 Ti4 Bi2 O11'
_cell_volume   230.72304221
_cell_formula_units_Z   1
loop_
 _symmetry_equiv_pos_site_id
 _symmetry_equiv_pos_as_xyz
  1  'x, y, z'
loop_
 _atom_site_type_symbol
 _atom_site_label
 _atom_site_symmetry_multiplicity
 _atom_site_fract_x
 _atom_site_fract_y
 _atom_site_fract_z
 _atom_site_occupancy
  Mg  Mg0  1  0.73238011  0.40323065  0.13225244  1
  Ti  Ti0  1  0.63194331  0.27060930  0.46583375  1
  Ti  Ti1  1  0.38779747  0.69614806  0.52842335  1
  Ti  Ti2  1  0.65596069  0.90699072  0.78142909  1
  Ti  Ti3  1  0.33405018  0.08554633  0.24670200  1
  Bi  Bi0  1  0.11094755  0.72057012  0.05788714  1
  Bi  Bi1  1  0.93525353  0.36000464  0.77005580  1
  O  O0  1  0.71758475  0.61873991  0.94655533  1
  O  O1  1  0.25539819  0.41217332  0.07727523  1
  O  O2  1  0.61155633  0.11195629  0.66524388  1
  O  O3  1  0.38099182  0.88020878  0.35797039  1
  O  O4  1  0.43256563  0.46552300  0.66978077  1
  O  O5  1  0.56364374  0.51199716  0.36085686  1
  O  O6  1  0.80760322  0.15235265  0.23275137  1
  O  O7  1  0.18829274  0.84025398  0.78358800  1
  O  O8  1  0.13766660  0.25919863  0.46585035  1
  O  O9  1  0.84533898  0.72472670  0.58500120  1
  O  O10  1  0.50316817  0.97976975  0.01421005  1
loop_
_geom_bond_atom_site_label_1
_geom_bond_atom_site_label_2
_geom_bond_distance
_geom_bond_site_symmetry_2
Mg0 O5 1.963335 1_555
Mg0 O1 2.007604 1_555
Mg0 O1 2.007745 1_655
Mg0 O6 2.049702 1_555
Mg0 O0 2.215546 1_554
Bi0 O0 2.266236 1_454
Bi0 O0 2.266980 1_554
Bi0 O1 2.294250 1_555
Bi0 O7 2.387848 1_554
Bi0 O10 2.772234 1_555
Bi0 O10 2.772466 1_455
Bi1 O4 2.264129 1_655
Bi1 O4 2.264450 1_555
Bi1 O0 2.333617 1_555
Bi1 O8 2.508593 1_655
O0 Ti2 2.548091 1_555
O1 Ti3 2.812727 1_555
O2 Ti2 1.806518 1_545
O2 Ti0 2.010170 1_555
O3 Ti3 1.787932 1_565
O3 Ti1 1.958968 1_555
O4 Ti1 2.079885 1_555
O4 Ti0 2.132367 1_555
O5 Ti1 1.872145 1_555
O5 Ti0 2.001029 1_555
O6 Ti0 2.022897 1_555
O6 Ti3 2.023164 1_555
O6 Ti3 2.023349 1_655
O7 Ti2 2.019097 1_555
O7 Ti2 2.019495 1_455
O7 Ti1 2.259972 1_555
O8 Ti0 1.959387 1_555
O8 Ti0 1.959606 1_455
O8 Ti3 2.129049 1_555
O9 Ti1 2.017861 1_655
O9 Ti1 2.018590 1_555
O9 Ti2 2.027753 1_555
O10 Ti2 1.911409 1_554
O10 Ti3 1.983538 1_565
