# generated using pymatgen
data_Na3ZrZn(PO4)3
_symmetry_space_group_name_H-M   'P 1'
_cell_length_a   9.09543083
_cell_length_b   9.08149388
_cell_length_c   22.33817424
_cell_angle_alpha   90.00000000
_cell_angle_beta   90.15863743
_cell_angle_gamma   119.94932705
_symmetry_Int_Tables_number   1
_chemical_formula_structural   Na3ZrZn(PO4)3
_chemical_formula_sum   'Na18 Zr6 Zn6 P18 O72'
_cell_volume   1598.74128078
_cell_formula_units_Z   6
loop_
 _symmetry_equiv_pos_site_id
 _symmetry_equiv_pos_as_xyz
  1  'x, y, z'
loop_
 _atom_site_type_symbol
 _atom_site_label
 _atom_site_symmetry_multiplicity
 _atom_site_fract_x
 _atom_site_fract_y
 _atom_site_fract_z
 _atom_site_occupancy
  Na  Na0  1  0.98168982  0.96602847  0.49024653  1
  Na  Na1  1  0.98168982  0.01566135  0.99024653  1
  Na  Na2  1  0.66630047  0.33863965  0.82341254  1
  Na  Na3  1  0.66630047  0.32765982  0.32341254  1
  Na  Na4  1  0.32741453  0.66062493  0.15676656  1
  Na  Na5  1  0.32741453  0.66679060  0.65676656  1
  Na  Na6  1  0.37383792  0.36107791  0.24416734  1
  Na  Na7  1  0.98678767  0.63137133  0.24452724  1
  Na  Na8  1  0.98678767  0.35541634  0.74452724  1
  Na  Na9  1  0.37383792  0.01276000  0.74416734  1
  Na  Na10  1  0.30868832  0.34611016  0.57746338  1
  Na  Na11  1  0.65531775  0.96248246  0.57787955  1
  Na  Na12  1  0.30868832  0.96257717  0.07746338  1
  Na  Na13  1  0.65531775  0.69283428  0.07787955  1
  Na  Na14  1  0.97776939  0.68288696  0.91048381  1
  Na  Na15  1  0.32107448  0.29368528  0.91155643  1
  Na  Na16  1  0.97776939  0.29488343  0.41048381  1
  Na  Na17  1  0.32107448  0.02739020  0.41155643  1
  Zr  Zr0  1  0.99722210  0.99233863  0.64825373  1
  Zr  Zr1  1  0.99722210  0.00488346  0.14825373  1
  Zr  Zr2  1  0.67168271  0.32762542  0.98140570  1
  Zr  Zr3  1  0.67168271  0.34405629  0.48140570  1
  Zr  Zr4  1  0.34262235  0.67295351  0.31488749  1
  Zr  Zr5  1  0.34262235  0.66966984  0.81488749  1
  Zn  Zn0  1  0.99003346  0.99376503  0.34754163  1
  Zn  Zn1  1  0.99003346  0.99626842  0.84754163  1
  Zn  Zn2  1  0.67062155  0.34334614  0.68089802  1
  Zn  Zn3  1  0.67062155  0.32727441  0.18089802  1
  Zn  Zn4  1  0.33049227  0.66149659  0.01454963  1
  Zn  Zn5  1  0.33049227  0.66899668  0.51454963  1
  P  P0  1  0.29697925  0.00323992  0.25249621  1
  P  P1  1  0.70574107  0.70228676  0.24979943  1
  P  P2  1  0.99826211  0.29763802  0.25543299  1
  P  P3  1  0.29697925  0.29373932  0.75249621  1
  P  P4  1  0.99826211  0.70062410  0.75543299  1
  P  P5  1  0.70574107  0.00345431  0.74979943  1
  P  P6  1  0.96602139  0.33593314  0.58651990  1
  P  P7  1  0.37287443  0.03750155  0.58576446  1
  P  P8  1  0.66178643  0.62813382  0.58575238  1
  P  P9  1  0.96602139  0.63008725  0.08651990  1
  P  P10  1  0.66178643  0.03365162  0.08575238  1
  P  P11  1  0.37287443  0.33537188  0.08576446  1
  P  P12  1  0.63417942  0.67062845  0.92230394  1
  P  P13  1  0.04154664  0.37105897  0.91606472  1
  P  P14  1  0.33242621  0.96347533  0.91925468  1
  P  P15  1  0.63417942  0.96355197  0.42230394  1
  P  P16  1  0.33242621  0.36895188  0.41925468  1
  P  P17  1  0.04154664  0.67048867  0.41606472  1
  O  O0  1  0.21386712  0.02426789  0.30892347  1
  O  O1  1  0.81802317  0.79023329  0.30320772  1
  O  O2  1  0.98469298  0.20505921  0.31386765  1
  O  O3  1  0.21386712  0.18959922  0.80892347  1
  O  O4  1  0.98469298  0.77963376  0.81386765  1
  O  O5  1  0.81802317  0.02778989  0.80320772  1
  O  O6  1  0.78793646  0.98247035  0.69104042  1
  O  O7  1  0.17928970  0.20201115  0.69666401  1
  O  O8  1  0.01758412  0.82054543  0.70171258  1
  O  O9  1  0.78793646  0.80546611  0.19104042  1
  O  O10  1  0.01758412  0.19703869  0.20171258  1
  O  O11  1  0.17928970  0.97727855  0.19666401  1
  O  O12  1  0.88308847  0.34932899  0.64394771  1
  O  O13  1  0.47604560  0.12007342  0.64264393  1
  O  O14  1  0.63761462  0.51964560  0.64046115  1
  O  O15  1  0.88308847  0.53375848  0.14394771  1
  O  O16  1  0.63761462  0.11796802  0.14046115  1
  O  O17  1  0.47604560  0.35597118  0.14264393  1
  O  O18  1  0.46586374  0.31001840  0.03054300  1
  O  O19  1  0.85136813  0.53580761  0.03065872  1
  O  O20  1  0.68257979  0.14191294  0.02848324  1
  O  O21  1  0.46586374  0.15584434  0.53054300  1
  O  O22  1  0.68257979  0.54066585  0.52848324  1
  O  O23  1  0.85136813  0.31555952  0.53065872  1
  O  O24  1  0.55601240  0.68541337  0.98065981  1
  O  O25  1  0.15411410  0.45837740  0.97005631  1
  O  O26  1  0.31517070  0.86084623  0.97577774  1
  O  O27  1  0.55601240  0.87060003  0.48065981  1
  O  O28  1  0.31517070  0.45432547  0.47577774  1
  O  O29  1  0.15411410  0.69573770  0.47005631  1
  O  O30  1  0.12563270  0.64386600  0.35835301  1
  O  O31  1  0.51252225  0.86534242  0.36845289  1
  O  O32  1  0.34886360  0.47776447  0.36252618  1
  O  O33  1  0.12563270  0.48176770  0.85835301  1
  O  O34  1  0.34886360  0.87110013  0.86252618  1
  O  O35  1  0.51252225  0.64718084  0.86845289  1
  O  O36  1  0.01707665  0.82446102  0.40985265  1
  O  O37  1  0.81403290  0.99452384  0.41415087  1
  O  O38  1  0.17624612  0.18884838  0.41469431  1
  O  O39  1  0.01707665  0.19261564  0.90985265  1
  O  O40  1  0.17624612  0.98739773  0.91469431  1
  O  O41  1  0.81403290  0.81950907  0.91415087  1
  O  O42  1  0.97371014  0.16480297  0.58682014  1
  O  O43  1  0.19603092  0.02937759  0.58819660  1
  O  O44  1  0.82507449  0.80842986  0.58796137  1
  O  O45  1  0.97371014  0.80890717  0.08682014  1
  O  O46  1  0.82507449  0.01664463  0.08796137  1
  O  O47  1  0.19603092  0.16665333  0.08819660  1
  O  O48  1  0.67868604  0.15820675  0.74540123  1
  O  O49  1  0.47303999  0.31310481  0.74557347  1
  O  O50  1  0.85062536  0.51899352  0.74780497  1
  O  O51  1  0.67868604  0.52047829  0.24540123  1
  O  O52  1  0.85062536  0.33163084  0.24780497  1
  O  O53  1  0.47303999  0.15993418  0.24557347  1
  O  O54  1  0.64190877  0.49976167  0.92164649  1
  O  O55  1  0.86663136  0.36675938  0.92067653  1
  O  O56  1  0.49372242  0.14585591  0.92021876  1
  O  O57  1  0.64190877  0.14214610  0.42164649  1
  O  O58  1  0.49372242  0.34786551  0.42021876  1
  O  O59  1  0.86663136  0.49987098  0.42067653  1
  O  O60  1  0.35184872  0.49145584  0.07884346  1
  O  O61  1  0.14751513  0.66377627  0.08030604  1
  O  O62  1  0.50700447  0.85306393  0.07983423  1
  O  O63  1  0.35184872  0.86039388  0.57884346  1
  O  O64  1  0.50700447  0.65394154  0.57983423  1
  O  O65  1  0.14751513  0.48373986  0.58030604  1
  O  O66  1  0.30542941  0.83464197  0.25466845  1
  O  O67  1  0.52428844  0.68342372  0.25401079  1
  O  O68  1  0.17018725  0.47481513  0.25393181  1
  O  O69  1  0.30542941  0.47078844  0.75466845  1
  O  O70  1  0.17018725  0.69537312  0.75393181  1
  O  O71  1  0.52428844  0.84086573  0.75401079  1
loop_
_geom_bond_atom_site_label_1
_geom_bond_atom_site_label_2
_geom_bond_distance
_geom_bond_site_symmetry_2
Na0 O36 2.323343 1_655
Na0 O37 2.379376 1_555
Na0 O38 2.552577 1_665
Na0 O44 2.612210 1_555
Na0 O43 2.788477 1_665
Na0 O42 2.837153 1_565
Na1 O39 2.323343 1_655
Na1 O41 2.379376 1_545
Na1 O40 2.552577 1_645
Na1 O46 2.612210 1_556
Na1 O47 2.788477 1_656
Na1 O45 2.837153 1_546
Na2 O50 2.370615 1_555
Na2 O49 2.396463 1_555
Na2 O48 2.433076 1_555
Na2 O54 2.707826 1_555
Na2 O56 2.734999 1_555
Na2 O55 2.760318 1_555
Na3 O52 2.370615 1_555
Na3 O53 2.396463 1_555
Na3 O51 2.433076 1_555
Na3 O57 2.707826 1_555
Na3 O58 2.734999 1_555
Na3 O59 2.760318 1_555
Na4 O61 2.372062 1_555
Na4 O60 2.404699 1_555
Na4 O62 2.416808 1_555
Na4 O68 2.685384 1_555
Na4 O67 2.752507 1_555
Na4 O66 2.763718 1_555
Na5 O65 2.372062 1_555
Na5 O63 2.404699 1_555
Na5 O64 2.416808 1_555
Na5 O70 2.685384 1_555
Na5 O71 2.752507 1_555
Na5 O69 2.763718 1_555
Na6 O51 2.403381 1_555
Na6 O53 2.407778 1_555
Na6 O17 2.462560 1_555
Na6 O68 2.541258 1_555
Na6 O67 2.547365 1_555
Na7 O52 2.362921 1_555
Na7 O15 2.424215 1_555
Na7 O51 2.459684 1_555
Na7 O66 2.552062 1_655
Na7 O68 2.685920 1_655
Na7 O30 2.812817 1_655
Na7 O1 2.894493 1_555
Na7 O11 2.931807 1_655
Na8 O50 2.362912 1_555
Na8 O12 2.424213 1_555
Na8 O48 2.459686 1_555
Na8 O69 2.552060 1_655
Na8 O70 2.685928 1_655
Na8 O33 2.812819 1_655
Na8 O5 2.894493 1_555
Na8 O7 2.931807 1_655
Na9 O48 2.403381 1_555
Na9 O49 2.407770 1_555
Na9 O13 2.462558 1_555
Na9 O70 2.541251 1_545
Na9 O71 2.547357 1_545
Na10 O65 2.354821 1_555
Na10 O64 2.456874 1_555
Na10 O28 2.464094 1_555
Na10 O43 2.537647 1_555
Na10 O42 2.651825 1_455
Na10 O21 2.933010 1_555
Na10 O7 2.944034 1_555
Na10 O14 2.946780 1_555
Na11 O27 2.337741 1_555
Na11 O64 2.428824 1_555
Na11 O63 2.433896 1_555
Na11 O42 2.546807 1_565
Na11 O44 2.558680 1_555
Na11 O6 2.764459 1_555
Na12 O61 2.354805 1_555
Na12 O62 2.456860 1_555
Na12 O26 2.464087 1_554
Na12 O47 2.537655 1_565
Na12 O45 2.651825 1_455
Na12 O18 2.933010 1_565
Na12 O11 2.944037 1_555
Na12 O16 2.946780 1_565
Na13 O24 2.337744 1_554
Na13 O62 2.428840 1_555
Na13 O60 2.433893 1_555
Na13 O45 2.546806 1_555
Na13 O46 2.558688 1_565
Na13 O9 2.764460 1_555
Na14 O4 2.319348 1_555
Na14 O41 2.368463 1_555
Na14 O40 2.435100 1_655
Na14 O55 2.533663 1_555
Na14 O54 2.662972 1_555
Na15 O40 2.412302 1_545
Na15 O39 2.440189 1_555
Na15 O3 2.483507 1_555
Na15 O56 2.531578 1_555
Na15 O54 2.571422 1_555
Na15 O25 2.920529 1_555
Na15 O18 2.933687 1_556
Na15 O35 2.948363 1_555
Na16 O2 2.319351 1_555
Na16 O37 2.368470 1_545
Na16 O38 2.435107 1_655
Na16 O59 2.533646 1_555
Na16 O57 2.662971 1_555
Na17 O38 2.412294 1_555
Na17 O36 2.440190 1_545
Na17 O0 2.483505 1_555
Na17 O58 2.531563 1_555
Na17 O57 2.571425 1_555
Na17 O29 2.920529 1_545
Na17 O21 2.933684 1_555
Na17 O31 2.948363 1_545
O0 P0 1.531712 1_555
O0 Zn0 2.100545 1_445
O1 P1 1.510978 1_555
O1 Zn0 1.987207 1_555
O2 P2 1.524223 1_555
O2 Zn0 2.084010 1_545
O3 P3 1.531712 1_555
O3 Zn1 2.100545 1_445
O4 P4 1.524223 1_555
O4 Zn1 2.084010 1_555
O5 P5 1.510978 1_555
O5 Zn1 1.987208 1_545
O6 P5 1.570269 1_565
O6 Zr0 2.093982 1_555
O7 P3 1.580355 1_555
O7 Zr0 2.092640 1_445
O8 P4 1.570685 1_455
O8 Zr0 2.044909 1_455
O9 P1 1.570269 1_555
O9 Zr1 2.093982 1_565
O10 P2 1.570685 1_455
O10 Zr1 2.044910 1_455
O11 P0 1.580355 1_565
O11 Zr1 2.092640 1_465
O12 P6 1.525263 1_555
O12 Zn2 2.079113 1_555
O13 P7 1.532341 1_555
O13 Zn2 2.093392 1_555
O14 P8 1.515833 1_555
O14 Zn2 1.986926 1_555
O15 P9 1.525263 1_555
O15 Zn3 2.079113 1_555
O16 P10 1.515833 1_555
O16 Zn3 1.986926 1_555
O17 P11 1.532341 1_555
O17 Zn3 2.093392 1_555
O18 P11 1.578039 1_555
O18 Zr2 2.108865 1_554
O19 P9 1.574468 1_555
O19 Zr2 2.088252 1_554
O20 P10 1.566736 1_555
O20 Zr2 2.031381 1_554
O21 P7 1.578039 1_555
O21 Zr3 2.108865 1_555
O22 P8 1.566736 1_555
O22 Zr3 2.031381 1_555
O23 P6 1.574468 1_555
O23 Zr3 2.088252 1_555
O24 P12 1.524211 1_555
O24 Zn4 2.095584 1_556
O25 P13 1.521254 1_555
O25 Zn4 2.000136 1_556
O26 P14 1.530543 1_555
O26 Zn4 2.073233 1_556
O27 P15 1.524211 1_555
O27 Zn5 2.095584 1_555
O28 P16 1.530543 1_555
O28 Zn5 2.073233 1_555
O29 P17 1.521254 1_555
O29 Zn5 2.000136 1_555
O30 P17 1.579692 1_555
O30 Zr4 2.097075 1_555
O31 P15 1.572945 1_555
O31 Zr4 2.041158 1_555
O32 P16 1.567869 1_555
O32 Zr4 2.092352 1_555
O33 P13 1.579692 1_555
O33 Zr5 2.097075 1_555
O34 P14 1.567869 1_555
O34 Zr5 2.092352 1_555
O35 P12 1.572946 1_555
O35 Zr5 2.041158 1_555
O36 P17 1.527938 1_555
O36 Zn0 2.176614 1_455
O37 P15 1.526601 1_555
O37 Zn0 2.191061 1_555
O38 P16 1.543639 1_555
O38 Zn0 2.290726 1_445
O39 P13 1.527947 1_555
O39 Zn1 2.176614 1_445
O40 P14 1.543633 1_555
O40 Zn1 2.290726 1_455
O41 P12 1.526598 1_555
O41 Zn1 2.191061 1_555
O42 P6 1.590198 1_555
O42 Zr0 2.171375 1_545
O43 P7 1.574027 1_555
O43 Zr0 2.142159 1_445
O44 P8 1.568655 1_555
O44 Zr0 2.105287 1_555
O45 P9 1.590208 1_555
O45 Zr1 2.171375 1_565
O46 P10 1.568650 1_555
O46 Zr1 2.105287 1_555
O47 P11 1.574023 1_555
O47 Zr1 2.142159 1_455
O48 P5 1.546117 1_555
O48 Zn2 2.242987 1_555
O49 P3 1.529489 1_555
O49 Zn2 2.216707 1_555
O50 P4 1.529755 1_555
O50 Zn2 2.199448 1_555
O51 P1 1.546126 1_555
O51 Zn3 2.242987 1_555
O52 P2 1.529749 1_555
O52 Zn3 2.199448 1_555
O53 P0 1.529485 1_555
O53 Zn3 2.216707 1_555
O54 P12 1.588061 1_555
O54 Zr2 2.172505 1_555
O55 P13 1.575461 1_655
O55 Zr2 2.120086 1_555
O56 P14 1.571525 1_545
O56 Zr2 2.129074 1_555
O57 P15 1.588043 1_545
O57 Zr3 2.172505 1_555
O58 P16 1.571536 1_555
O58 Zr3 2.129074 1_555
O59 P17 1.575470 1_655
O59 Zr3 2.120086 1_555
O60 P11 1.529773 1_555
O60 Zn4 2.187008 1_555
O61 P9 1.528034 1_455
O61 Zn4 2.230632 1_555
O62 P10 1.543604 1_565
O62 Zn4 2.220165 1_555
O63 P7 1.529755 1_565
O63 Zn5 2.187008 1_555
O64 P8 1.543615 1_555
O64 Zn5 2.220165 1_555
O65 P6 1.528040 1_455
O65 Zn5 2.230632 1_555
O66 P0 1.571646 1_565
O66 Zr4 2.138580 1_555
O67 P1 1.574978 1_555
O67 Zr4 2.108096 1_555
O68 P2 1.588528 1_455
O68 Zr4 2.173027 1_555
O69 P3 1.571655 1_555
O69 Zr5 2.138580 1_555
O70 P4 1.588523 1_455
O70 Zr5 2.173027 1_555
O71 P5 1.574974 1_565
O71 Zr5 2.108096 1_555
