# generated using pymatgen
data_Na6Ta20Zn4Si21(S5O48)3
_symmetry_space_group_name_H-M   'P 1'
_cell_length_a   17.72039730
_cell_length_b   8.85627260
_cell_length_c   22.89059935
_cell_angle_alpha   89.99427827
_cell_angle_beta   90.04636703
_cell_angle_gamma   119.90545791
_symmetry_Int_Tables_number   1
_chemical_formula_structural   Na6Ta20Zn4Si21(S5O48)3
_chemical_formula_sum   'Na6 Ta20 Zn4 Si21 S15 O144'
_cell_volume   3114.04589121
_cell_formula_units_Z   1
loop_
 _symmetry_equiv_pos_site_id
 _symmetry_equiv_pos_as_xyz
  1  'x, y, z'
loop_
 _atom_site_type_symbol
 _atom_site_label
 _atom_site_symmetry_multiplicity
 _atom_site_fract_x
 _atom_site_fract_y
 _atom_site_fract_z
 _atom_site_occupancy
  Na  Na0  1  0.99858912  0.99751935  0.49891618  1
  Na  Na1  1  0.50001000  0.00193370  0.00204670  1
  Na  Na2  1  0.33577313  0.31999051  0.83687148  1
  Na  Na3  1  0.83315405  0.33235613  0.83457853  1
  Na  Na4  1  0.33575492  0.33568753  0.33287535  1
  Na  Na5  1  0.83082344  0.34591354  0.33358005  1
  Ta  Ta0  1  0.50239098  0.99169858  0.35967175  1
  Ta  Ta1  1  0.99476231  0.00122635  0.86146251  1
  Ta  Ta2  1  0.49321470  0.99147306  0.63881418  1
  Ta  Ta3  1  0.99315315  0.99500142  0.13900882  1
  Ta  Ta4  1  0.33541219  0.33564578  0.68667072  1
  Ta  Ta5  1  0.83787732  0.32261502  0.68505236  1
  Ta  Ta6  1  0.33941435  0.35643485  0.18638986  1
  Ta  Ta7  1  0.83145456  0.32587924  0.19072262  1
  Ta  Ta8  1  0.33369184  0.33410388  0.97893876  1
  Ta  Ta9  1  0.84066475  0.34244072  0.97847812  1
  Ta  Ta10  1  0.34035713  0.33930438  0.47623150  1
  Ta  Ta11  1  0.83278537  0.32994506  0.47693301  1
  Ta  Ta12  1  0.16026030  0.66152589  0.02540907  1
  Ta  Ta13  1  0.66527163  0.65774464  0.02543923  1
  Ta  Ta14  1  0.16596316  0.67328497  0.52358778  1
  Ta  Ta15  1  0.66056388  0.66010111  0.52363926  1
  Ta  Ta16  1  0.16660695  0.67687211  0.31193705  1
  Ta  Ta17  1  0.66610163  0.65903648  0.30655556  1
  Ta  Ta18  1  0.16799037  0.67847434  0.81077639  1
  Ta  Ta19  1  0.66652211  0.65880394  0.81265911  1
  Zn  Zn0  1  0.99605182  0.96883741  0.35434092  1
  Zn  Zn1  1  0.49610702  0.02581879  0.85459938  1
  Zn  Zn2  1  0.98970291  0.01261432  0.64653992  1
  Zn  Zn3  1  0.49401778  0.95506878  0.15210123  1
  Si  Si0  1  0.64201398  0.00030999  0.24983131  1
  Si  Si1  1  0.35587497  0.71852340  0.25037068  1
  Si  Si2  1  0.85880720  0.71538881  0.25073764  1
  Si  Si3  1  0.35733920  0.00041070  0.75059784  1
  Si  Si4  1  0.85559561  0.99670487  0.74998032  1
  Si  Si5  1  0.47678454  0.33341931  0.58291330  1
  Si  Si6  1  0.97979706  0.32611619  0.58035254  1
  Si  Si7  1  0.69076713  0.04580733  0.58240526  1
  Si  Si8  1  0.32829139  0.61170245  0.58255363  1
  Si  Si9  1  0.47920207  0.63587376  0.08090665  1
  Si  Si10  1  0.97491813  0.61723495  0.08574102  1
  Si  Si11  1  0.82878151  0.04543949  0.08299546  1
  Si  Si12  1  0.19103499  0.33458004  0.08309712  1
  Si  Si13  1  0.80582316  0.65768715  0.91815880  1
  Si  Si14  1  0.02612778  0.38709412  0.91605451  1
  Si  Si15  1  0.52271975  0.37290356  0.91756764  1
  Si  Si16  1  0.16835826  0.95658485  0.91723116  1
  Si  Si17  1  0.30925683  0.95427890  0.41710774  1
  Si  Si18  1  0.66748373  0.38338847  0.41590287  1
  Si  Si19  1  0.02248118  0.67330192  0.41687578  1
  Si  Si20  1  0.52659011  0.66585333  0.41528840  1
  S  S0  1  0.14643143  0.00455014  0.24926104  1
  S  S1  1  0.00116237  0.28709013  0.25158273  1
  S  S2  1  0.49808157  0.28308376  0.24845068  1
  S  S3  1  0.14500318  0.28907976  0.75120220  1
  S  S4  1  0.64618081  0.28915720  0.74949373  1
  S  S5  1  0.99968031  0.71473808  0.74918989  1
  S  S6  1  0.49962661  0.71260552  0.75133004  1
  S  S7  1  0.18896815  0.04916918  0.58296619  1
  S  S8  1  0.83478046  0.61957994  0.58236180  1
  S  S9  1  0.33492952  0.04818127  0.08266437  1
  S  S10  1  0.68932768  0.32899542  0.08261075  1
  S  S11  1  0.30970809  0.66690146  0.91722008  1
  S  S12  1  0.66477347  0.94957657  0.91741834  1
  S  S13  1  0.80990425  0.95186250  0.41717809  1
  S  S14  1  0.16486255  0.38016679  0.41743490  1
  O  O0  1  0.11458699  0.04326882  0.30262807  1
  O  O1  1  0.59719309  0.03489124  0.30775713  1
  O  O2  1  0.41801575  0.80675363  0.30760538  1
  O  O3  1  0.91443515  0.78225681  0.30850764  1
  O  O4  1  0.48370140  0.17994076  0.30208009  1
  O  O5  1  0.98590142  0.18347180  0.30396637  1
  O  O6  1  0.10513946  0.17698819  0.80328036  1
  O  O7  1  0.61415659  0.18549853  0.80259359  1
  O  O8  1  0.48340653  0.78355257  0.80364052  1
  O  O9  1  0.98732320  0.79564167  0.80229111  1
  O  O10  1  0.41233881  0.04454846  0.80849354  1
  O  O11  1  0.91916759  0.03005264  0.80731578  1
  O  O12  1  0.40587837  0.97492470  0.69305480  1
  O  O13  1  0.89054824  0.95406171  0.69299873  1
  O  O14  1  0.09649068  0.21978508  0.69764114  1
  O  O15  1  0.59180800  0.20717815  0.69764410  1
  O  O16  1  0.01697412  0.81522926  0.69652963  1
  O  O17  1  0.51236315  0.81676276  0.69789788  1
  O  O18  1  0.38429854  0.82213014  0.19111346  1
  O  O19  1  0.90709676  0.84103526  0.19320280  1
  O  O20  1  0.01399528  0.20858233  0.19797537  1
  O  O21  1  0.51315490  0.21605550  0.19551353  1
  O  O22  1  0.09204536  0.97781092  0.19745700  1
  O  O23  1  0.59332360  0.97045508  0.18980997  1
  O  O24  1  0.42777653  0.35991916  0.63953793  1
  O  O25  1  0.93249307  0.35940351  0.63966187  1
  O  O26  1  0.24506112  0.13246459  0.63620945  1
  O  O27  1  0.75309403  0.14374272  0.64035149  1
  O  O28  1  0.31556278  0.49356638  0.64088983  1
  O  O29  1  0.81979200  0.50970166  0.63573545  1
  O  O30  1  0.43283270  0.50689375  0.13948133  1
  O  O31  1  0.92753262  0.49239555  0.14018898  1
  O  O32  1  0.31815495  0.12631974  0.13517228  1
  O  O33  1  0.81607818  0.13798436  0.14008951  1
  O  O34  1  0.25354379  0.36120851  0.14008592  1
  O  O35  1  0.74392766  0.35787103  0.13555323  1
  O  O36  1  0.23497776  0.29921736  0.02595483  1
  O  O37  1  0.73450282  0.31061024  0.02959792  1
  O  O38  1  0.41403598  0.51572191  0.02715370  1
  O  O39  1  0.91641231  0.53115121  0.02579765  1
  O  O40  1  0.34268915  0.15585451  0.02881732  1
  O  O41  1  0.84395795  0.16990475  0.02580900  1
  O  O42  1  0.23150118  0.15702890  0.53050054  1
  O  O43  1  0.73507182  0.17126922  0.52646239  1
  O  O44  1  0.34325306  0.51517894  0.52679352  1
  O  O45  1  0.84371415  0.52962702  0.52951951  1
  O  O46  1  0.41526664  0.30043544  0.52572974  1
  O  O47  1  0.91343686  0.30829953  0.52717310  1
  O  O48  1  0.26716941  0.68850419  0.96943047  1
  O  O49  1  0.76362508  0.69400677  0.97426072  1
  O  O50  1  0.08350428  0.47599743  0.97438233  1
  O  O51  1  0.58563097  0.48525091  0.97235088  1
  O  O52  1  0.15642383  0.83413432  0.97330379  1
  O  O53  1  0.65596281  0.84648811  0.97028771  1
  O  O54  1  0.26339760  0.83372364  0.47399336  1
  O  O55  1  0.76737844  0.84710636  0.47032682  1
  O  O56  1  0.15623606  0.46618357  0.47080869  1
  O  O57  1  0.65856087  0.48268570  0.47416905  1
  O  O58  1  0.08499727  0.68594011  0.47246467  1
  O  O59  1  0.58271223  0.69010606  0.47492282  1
  O  O60  1  0.06729703  0.63626264  0.35900013  1
  O  O61  1  0.57054769  0.63199343  0.35975368  1
  O  O62  1  0.24552697  0.85954192  0.35994957  1
  O  O63  1  0.75711148  0.87414896  0.36434955  1
  O  O64  1  0.18140825  0.49133053  0.36452710  1
  O  O65  1  0.68442326  0.50729816  0.35928914  1
  O  O66  1  0.07200832  0.50418866  0.85873785  1
  O  O67  1  0.56823159  0.49890898  0.85900297  1
  O  O68  1  0.18334171  0.86158474  0.85914215  1
  O  O69  1  0.68086593  0.86937918  0.86410207  1
  O  O70  1  0.25526607  0.64010424  0.86368933  1
  O  O71  1  0.74677313  0.63314057  0.85940647  1
  O  O72  1  0.01789171  0.84879053  0.41812934  1
  O  O73  1  0.51385544  0.83396727  0.41035735  1
  O  O74  1  0.40438324  0.98397413  0.40346253  1
  O  O75  1  0.89849513  0.98223549  0.41371607  1
  O  O76  1  0.08787326  0.20985462  0.41093848  1
  O  O77  1  0.58057051  0.19719558  0.40548169  1
  O  O78  1  0.01560311  0.19452050  0.90750847  1
  O  O79  1  0.51735595  0.18750772  0.91799299  1
  O  O80  1  0.08303269  0.97125839  0.90081315  1
  O  O81  1  0.58737088  0.96500274  0.90976495  1
  O  O82  1  0.39738345  0.81387032  0.91178605  1
  O  O83  1  0.90290411  0.82423897  0.90496290  1
  O  O84  1  0.48815043  0.16534435  0.59397811  1
  O  O85  1  0.99101736  0.15905714  0.58255061  1
  O  O86  1  0.10277953  0.02465183  0.59062742  1
  O  O87  1  0.59661768  0.02184378  0.60035680  1
  O  O88  1  0.41745934  0.79880661  0.59345857  1
  O  O89  1  0.91409274  0.78742015  0.58662822  1
  O  O90  1  0.48561660  0.82007455  0.07962535  1
  O  O91  1  0.98870488  0.81151961  0.09379525  1
  O  O92  1  0.41338559  0.03846223  0.08607649  1
  O  O93  1  0.91776010  0.03501386  0.09231616  1
  O  O94  1  0.09680715  0.17127540  0.09956107  1
  O  O95  1  0.60281888  0.18352641  0.08625580  1
  O  O96  1  0.33730291  0.16309898  0.73725133  1
  O  O97  1  0.84576864  0.17777968  0.74426653  1
  O  O98  1  0.23563123  0.31124775  0.74588749  1
  O  O99  1  0.73811466  0.32646991  0.73968853  1
  O  O100  1  0.42006802  0.52954781  0.74202427  1
  O  O101  1  0.91962341  0.53595027  0.74459629  1
  O  O102  1  0.34544936  0.51550267  0.24398450  1
  O  O103  1  0.84297630  0.51851239  0.23638339  1
  O  O104  1  0.41745376  0.30411800  0.24360229  1
  O  O105  1  0.92258027  0.31121928  0.24297186  1
  O  O106  1  0.23819825  0.15049960  0.23949961  1
  O  O107  1  0.74309050  0.17300477  0.24491690  1
  O  O108  1  0.31314296  0.49974681  0.92193359  1
  O  O109  1  0.81355906  0.48182147  0.92338009  1
  O  O110  1  0.42672804  0.36160141  0.92485334  1
  O  O111  1  0.92732034  0.35965090  0.92291584  1
  O  O112  1  0.25350907  0.14871704  0.92337604  1
  O  O113  1  0.74515682  0.12680078  0.92289074  1
  O  O114  1  0.31245671  0.14276751  0.42483300  1
  O  O115  1  0.81424430  0.12778351  0.42313190  1
  O  O116  1  0.24524296  0.36303958  0.42394703  1
  O  O117  1  0.75273371  0.35873568  0.42512872  1
  O  O118  1  0.42715522  0.49402367  0.42332097  1
  O  O119  1  0.92682499  0.49319239  0.42561989  1
  O  O120  1  0.18602476  0.51068728  0.07136313  1
  O  O121  1  0.68737127  0.49682185  0.07591298  1
  O  O122  1  0.07090235  0.63929702  0.07497742  1
  O  O123  1  0.57101684  0.63706511  0.07181840  1
  O  O124  1  0.25565639  0.87397149  0.07317547  1
  O  O125  1  0.74721630  0.85565349  0.07112398  1
  O  O126  1  0.18638683  0.87802228  0.57710766  1
  O  O127  1  0.68624604  0.86079418  0.57203661  1
  O  O128  1  0.24672773  0.63910499  0.57215212  1
  O  O129  1  0.75634608  0.63716797  0.57468857  1
  O  O130  1  0.07171020  0.50760038  0.57179062  1
  O  O131  1  0.57155349  0.50426111  0.57558175  1
  O  O132  1  0.15261573  0.83988707  0.25596834  1
  O  O133  1  0.65752707  0.83725023  0.26683840  1
  O  O134  1  0.25555107  0.67305027  0.26692670  1
  O  O135  1  0.76088513  0.69070297  0.25791748  1
  O  O136  1  0.07845899  0.46514045  0.25755913  1
  O  O137  1  0.57371645  0.46582400  0.25787119  1
  O  O138  1  0.15788525  0.46656924  0.76261957  1
  O  O139  1  0.65255977  0.46586327  0.75657709  1
  O  O140  1  0.07574359  0.68378583  0.75988830  1
  O  O141  1  0.57638125  0.68735679  0.75704336  1
  O  O142  1  0.25972597  0.82457212  0.75864310  1
  O  O143  1  0.75653792  0.83929021  0.76642497  1
loop_
_geom_bond_atom_site_label_1
_geom_bond_atom_site_label_2
_geom_bond_distance
_geom_bond_site_symmetry_2
Na0 O72 2.392173 1_655
Na0 O85 2.433545 1_565
Na0 O75 2.592876 1_555
Na0 O89 2.638439 1_555
Na0 O76 2.670729 1_665
Na0 O86 2.724914 1_665
Na1 O90 2.324469 1_545
Na1 O79 2.448281 1_554
Na1 O92 2.580859 1_555
Na1 O95 2.587366 1_555
Na1 O82 2.706375 1_544
Na1 O81 2.734223 1_544
Na2 O112 2.479119 1_555
Na2 O110 2.488418 1_555
Na2 O108 2.669257 1_555
Na2 O96 2.677635 1_555
Na2 O98 2.711020 1_555
Na2 O100 2.762150 1_555
Na3 O109 2.542581 1_555
Na3 O97 2.550336 1_555
Na3 O111 2.554244 1_555
Na3 O113 2.646870 1_555
Na3 O101 2.662890 1_555
Na3 O99 2.731952 1_555
Na4 O102 2.536324 1_555
Na4 O118 2.570302 1_555
Na4 O104 2.599726 1_555
Na4 O114 2.611092 1_555
Na4 O116 2.714782 1_555
Na4 O106 2.722967 1_555
Na5 O117 2.545728 1_555
Na5 O107 2.550029 1_555
Na5 O119 2.610806 1_555
Na5 O103 2.646682 1_555
Na5 O115 2.730305 1_555
Na5 O105 2.746584 1_555
O0 S0 1.456871 1_555
O0 Zn0 2.207042 1_445
O1 Si0 1.651398 1_555
O1 Ta0 1.934696 1_545
O2 Si1 1.636910 1_555
O2 Ta0 1.973400 1_555
O3 Si2 1.577046 1_555
O3 Zn0 1.880898 1_555
O4 S2 1.474636 1_555
O4 Ta0 2.275154 1_545
O5 S1 1.451181 1_655
O5 Zn0 2.305521 1_545
O6 S3 1.485754 1_555
O6 Ta1 2.233901 1_455
O7 S4 1.457272 1_555
O7 Zn1 2.201565 1_555
O8 S6 1.446377 1_555
O8 Zn1 2.352317 1_565
O9 S5 1.481845 1_555
O9 Ta1 2.219874 1_565
O10 Si3 1.573892 1_555
O10 Zn1 1.894142 1_555
O11 Si4 1.656717 1_545
O11 Ta1 1.932385 1_555
O12 Si3 1.649623 1_565
O12 Ta2 1.932648 1_555
O13 Si4 1.569143 1_555
O13 Zn2 1.892489 1_565
O14 S3 1.446100 1_555
O14 Zn2 2.202347 1_455
O15 S4 1.471363 1_555
O15 Ta2 2.276829 1_545
O16 S5 1.437863 1_455
O16 Zn2 2.332350 1_465
O17 S6 1.480009 1_555
O17 Ta2 2.204706 1_555
O18 Si1 1.573390 1_555
O18 Zn3 1.919339 1_555
O19 Si2 1.660432 1_555
O19 Ta3 1.911285 1_555
O20 S1 1.482971 1_555
O20 Ta3 2.199841 1_445
O21 S2 1.432087 1_555
O21 Zn3 2.379762 1_545
O22 S0 1.470271 1_565
O22 Ta3 2.268551 1_455
O23 Si0 1.572482 1_565
O23 Zn3 1.902309 1_555
O24 Si5 1.641477 1_555
O24 Ta4 1.881780 1_555
O25 Si6 1.697364 1_555
O25 Ta5 1.858720 1_555
O26 S7 1.511509 1_555
O26 Ta4 2.064032 1_555
O27 Si7 1.665582 1_555
O27 Ta5 1.854273 1_555
O28 Si8 1.641208 1_555
O28 Ta4 1.915102 1_555
O29 S8 1.500914 1_555
O29 Ta5 2.156598 1_555
O30 Si9 1.686211 1_555
O30 Ta6 1.863325 1_555
O31 Si10 1.598918 1_555
O31 Ta7 1.977562 1_555
O32 S9 1.489214 1_555
O32 Ta6 2.214485 1_555
O33 Si11 1.617132 1_555
O33 Ta7 1.932457 1_555
O34 Si12 1.649715 1_555
O34 Ta6 1.871418 1_555
O35 S10 1.490513 1_555
O35 Ta7 2.125012 1_555
O36 Si12 1.631028 1_555
O36 Ta8 1.943624 1_554
O37 S10 1.507150 1_555
O37 Ta9 2.112457 1_554
O38 Si9 1.659054 1_555
O38 Ta8 1.883237 1_554
O39 Si10 1.657892 1_555
O39 Ta9 1.878625 1_554
O40 S9 1.522105 1_555
O40 Ta8 2.017767 1_554
O41 Si11 1.644882 1_555
O41 Ta9 1.897518 1_554
O42 S7 1.485329 1_555
O42 Ta10 2.183689 1_555
O43 Si7 1.619358 1_555
O43 Ta11 1.958297 1_555
O44 Si8 1.630016 1_555
O44 Ta10 1.920639 1_555
O45 S8 1.499693 1_555
O45 Ta11 2.066980 1_555
O46 Si5 1.633195 1_555
O46 Ta10 1.901966 1_555
O47 Si6 1.643853 1_555
O47 Ta11 1.916334 1_555
O48 S11 1.475960 1_555
O48 Ta12 2.200131 1_556
O49 Si13 1.597898 1_555
O49 Ta13 1.989534 1_556
O50 Si14 1.623606 1_555
O50 Ta12 1.919220 1_556
O51 Si15 1.642346 1_555
O51 Ta13 1.910496 1_556
O52 Si16 1.624717 1_555
O52 Ta12 1.966510 1_556
O53 S12 1.476642 1_555
O53 Ta13 2.165481 1_556
O54 Si17 1.622398 1_555
O54 Ta14 1.960961 1_555
O55 S13 1.487566 1_555
O55 Ta15 2.166182 1_555
O56 S14 1.487611 1_555
O56 Ta14 2.130324 1_555
O57 Si18 1.648169 1_555
O57 Ta15 1.922776 1_555
O58 Si19 1.653191 1_555
O58 Ta14 1.896871 1_555
O59 Si20 1.638124 1_555
O59 Ta15 1.892183 1_555
O60 Si19 1.659805 1_555
O60 Ta16 1.938750 1_555
O61 Si20 1.596021 1_555
O61 Ta17 2.001563 1_555
O62 Si17 1.656563 1_555
O62 Ta16 1.876898 1_555
O63 S13 1.472253 1_555
O63 Ta17 2.216728 1_555
O64 S14 1.494808 1_555
O64 Ta16 2.155678 1_555
O65 Si18 1.626542 1_555
O65 Ta17 1.949999 1_555
O66 Si14 1.618190 1_555
O66 Ta18 1.966096 1_555
O67 Si15 1.672403 1_555
O67 Ta19 1.925520 1_555
O68 Si16 1.664328 1_555
O68 Ta18 1.868030 1_555
O69 S12 1.509287 1_555
O69 Ta19 2.111028 1_555
O70 S11 1.502786 1_555
O70 Ta18 2.120207 1_555
O71 Si13 1.649799 1_555
O71 Ta19 1.881172 1_555
O72 Si19 1.596542 1_555
O72 Zn0 1.954793 1_455
O73 Si20 1.617196 1_555
O73 Ta0 1.902899 1_555
O74 Si17 1.602193 1_555
O74 Ta0 1.977389 1_555
O75 S13 1.456791 1_555
O75 Zn0 2.249056 1_555
O76 S14 1.451293 1_555
O76 Zn0 2.327247 1_445
O77 Si18 1.617140 1_555
O77 Ta0 1.953196 1_545
O78 Si14 1.632351 1_555
O78 Ta1 1.883391 1_455
O79 Si15 1.596684 1_555
O79 Zn1 1.939051 1_555
O80 Si16 1.624585 1_555
O80 Ta1 1.933937 1_465
O81 S12 1.455030 1_555
O81 Zn1 2.316299 1_565
O82 S11 1.451646 1_555
O82 Zn1 2.241934 1_565
O83 Si13 1.642231 1_555
O83 Ta1 1.885789 1_565
O84 Si5 1.618390 1_555
O84 Ta2 1.889409 1_545
O85 Si6 1.588818 1_555
O85 Zn2 1.948755 1_555
O86 S7 1.442319 1_555
O86 Zn2 2.335726 1_455
O87 Si7 1.626460 1_555
O87 Ta2 1.927666 1_545
O88 Si8 1.641172 1_555
O88 Ta2 1.872306 1_555
O89 S8 1.452923 1_555
O89 Zn2 2.233062 1_565
O90 Si9 1.578012 1_555
O90 Zn3 2.006577 1_555
O91 Si10 1.623299 1_555
O91 Ta3 1.894825 1_555
O92 S9 1.437190 1_555
O92 Zn3 2.433051 1_545
O93 Si11 1.638524 1_555
O93 Ta3 1.876838 1_545
O94 Si12 1.617006 1_555
O94 Ta3 1.941504 1_445
O95 S10 1.430943 1_555
O95 Zn3 2.489376 1_545
O96 Si3 1.674865 1_555
O96 Ta4 1.930664 1_555
O97 Si4 1.702203 1_545
O97 Ta5 1.918416 1_555
O98 S3 1.522626 1_555
O98 Ta4 2.152517 1_555
O99 S4 1.509083 1_555
O99 Ta5 2.180438 1_555
O100 S6 1.543301 1_555
O100 Ta4 2.057535 1_555
O101 S5 1.513499 1_555
O101 Ta5 2.189534 1_555
O102 Si1 1.719626 1_555
O102 Ta6 1.893156 1_555
O103 Si2 1.654994 1_555
O103 Ta7 1.922836 1_555
O104 S2 1.534112 1_555
O104 Ta6 2.116137 1_555
O105 S1 1.523108 1_655
O105 Ta7 2.064154 1_555
O106 S0 1.506534 1_555
O106 Ta6 2.182314 1_555
O107 Si0 1.681859 1_555
O107 Ta7 1.926844 1_555
O108 S11 1.515467 1_555
O108 Ta8 2.125756 1_555
O109 Si13 1.634553 1_555
O109 Ta9 1.983697 1_555
O110 Si15 1.661912 1_555
O110 Ta8 1.978126 1_555
O111 Si14 1.650915 1_655
O111 Ta9 1.941279 1_555
O112 Si16 1.622180 1_545
O112 Ta8 2.000866 1_555
O113 S12 1.509502 1_545
O113 Ta9 2.214658 1_555
O114 Si17 1.651281 1_545
O114 Ta10 1.949281 1_555
O115 S13 1.527224 1_545
O115 Ta11 2.059948 1_555
O116 S14 1.512995 1_555
O116 Ta10 2.160397 1_555
O117 Si18 1.643998 1_555
O117 Ta11 1.959940 1_555
O118 Si20 1.667653 1_555
O118 Ta10 1.900352 1_555
O119 Si19 1.661948 1_655
O119 Ta11 1.961456 1_555
O120 Si12 1.628036 1_555
O120 Ta12 1.925256 1_555
O121 S10 1.511678 1_555
O121 Ta13 2.018624 1_555
O122 Si10 1.631306 1_455
O122 Ta12 1.877645 1_555
O123 Si9 1.635216 1_555
O123 Ta13 1.910007 1_555
O124 S9 1.496442 1_565
O124 Ta12 2.102161 1_555
O125 Si11 1.601575 1_565
O125 Ta13 1.932434 1_555
O126 S7 1.499464 1_565
O126 Ta14 2.065178 1_555
O127 Si7 1.617613 1_565
O127 Ta15 1.945908 1_555
O128 Si8 1.598057 1_555
O128 Ta14 1.950656 1_555
O129 S8 1.484041 1_555
O129 Ta15 2.151293 1_555
O130 Si6 1.632372 1_455
O130 Ta14 1.928485 1_555
O131 Si5 1.613810 1_555
O131 Ta15 1.907467 1_555
O132 S0 1.523650 1_565
O132 Ta16 2.035472 1_555
O133 Si0 1.645635 1_565
O133 Ta17 1.891909 1_555
O134 Si1 1.659357 1_555
O134 Ta16 1.898076 1_555
O135 Si2 1.645590 1_555
O135 Ta17 1.916388 1_555
O136 S1 1.492450 1_555
O136 Ta16 2.140597 1_555
O137 S2 1.516166 1_555
O137 Ta17 2.013493 1_555
O138 S3 1.494475 1_555
O138 Ta18 2.105749 1_555
O139 S4 1.520456 1_555
O139 Ta19 2.051187 1_555
O140 S5 1.523072 1_455
O140 Ta18 2.026023 1_555
O141 S6 1.489970 1_555
O141 Ta19 2.153033 1_555
O142 Si3 1.662982 1_565
O142 Ta18 1.909532 1_555
O143 Si4 1.651449 1_555
O143 Ta19 1.918187 1_555
