# generated using pymatgen
data_MgFe6(O5F)2
_symmetry_space_group_name_H-M   'P 1'
_cell_length_a   8.02027402
_cell_length_b   5.76923434
_cell_length_c   5.91548508
_cell_angle_alpha   67.04456823
_cell_angle_beta   63.48815251
_cell_angle_gamma   65.95690216
_symmetry_Int_Tables_number   1
_chemical_formula_structural   MgFe6(O5F)2
_chemical_formula_sum   'Mg1 Fe6 O10 F2'
_cell_volume   216.30341053
_cell_formula_units_Z   1
loop_
 _symmetry_equiv_pos_site_id
 _symmetry_equiv_pos_as_xyz
  1  'x, y, z'
loop_
 _atom_site_type_symbol
 _atom_site_label
 _atom_site_symmetry_multiplicity
 _atom_site_fract_x
 _atom_site_fract_y
 _atom_site_fract_z
 _atom_site_occupancy
  Mg  Mg0  1  0.00489199  0.99495072  0.49471865  1
  Fe  Fe0  1  0.78978475  0.62536365  0.64056671  1
  Fe  Fe1  1  0.66269893  0.33821938  0.32159209  1
  Fe  Fe2  1  0.34683650  0.65090338  0.66834339  1
  Fe  Fe3  1  0.21913306  0.36542314  0.34901923  1
  Fe  Fe4  1  0.50573296  0.99486147  0.99587622  1
  Fe  Fe5  1  0.00584793  0.99565644  0.99420633  1
  O  O0  1  0.69898876  0.01794214  0.63079500  1
  O  O1  1  0.36305242  0.36530300  0.98056857  1
  O  O2  1  0.93662369  0.24265120  0.18245073  1
  O  O3  1  0.62337070  0.57850886  0.52251060  1
  O  O4  1  0.07311150  0.74793772  0.80731129  1
  O  O5  1  0.38601518  0.41069308  0.46752784  1
  O  O6  1  0.31084751  0.97188230  0.35973107  1
  O  O7  1  0.64642294  0.62430659  0.00947736  1
  O  O8  1  0.98667278  0.27361091  0.65936006  1
  O  O9  1  0.02262967  0.71704615  0.33012291  1
  F  F0  1  0.30610327  0.92588265  0.87757151  1
  F  F1  1  0.70382846  0.06361926  0.11301245  1
loop_
_geom_bond_atom_site_label_1
_geom_bond_atom_site_label_2
_geom_bond_distance
_geom_bond_site_symmetry_2
Mg0 O2 1.990088 1_465
Mg0 O4 1.990452 1_555
Mg0 O9 2.108788 1_555
Mg0 O8 2.111235 1_465
Mg0 O0 2.177117 1_465
Mg0 O6 2.178112 1_555
Fe0 O3 1.901458 1_555
Fe0 O7 1.959505 1_556
Fe0 O8 1.998421 1_555
Fe0 O9 2.031057 1_655
Fe0 O0 2.062723 1_565
Fe1 O2 1.886969 1_555
Fe1 O5 1.913018 1_555
Fe1 O7 1.952602 1_555
Fe1 O3 2.007013 1_555
Fe1 O0 2.060400 1_555
Fe2 O4 1.885493 1_555
Fe2 O3 1.911999 1_555
Fe2 O1 1.951694 1_555
Fe2 O5 2.006606 1_555
Fe2 O6 2.059895 1_555
Fe3 O5 1.901689 1_555
Fe3 O1 1.958914 1_554
Fe3 O9 1.996688 1_555
Fe3 O8 2.029111 1_455
Fe3 O6 2.066028 1_545
Fe4 O7 1.957352 1_556
Fe4 O1 1.958038 1_565
Fe4 O6 2.009023 1_556
Fe4 O0 2.009874 1_565
Fe5 O2 1.902611 1_466
Fe5 O4 1.904614 1_555
Fe5 O8 2.027801 1_465
Fe5 O9 2.030126 1_556
F0 Fe5 2.092986 1_555
F0 Fe2 2.214409 1_555
F0 Fe4 2.224491 1_555
F1 Fe5 2.106256 1_644
F1 Fe4 2.207375 1_544
F1 Fe1 2.208285 1_555
