# generated using pymatgen
data_NaMgV2Bi3O10
_symmetry_space_group_name_H-M   'P 1'
_cell_length_a   5.71116051
_cell_length_b   7.34091211
_cell_length_c   8.15003557
_cell_angle_alpha   113.53267112
_cell_angle_beta   118.44881378
_cell_angle_gamma   82.46810754
_symmetry_Int_Tables_number   1
_chemical_formula_structural   NaMgV2Bi3O10
_chemical_formula_sum   'Na1 Mg1 V2 Bi3 O10'
_cell_volume   274.70184349
_cell_formula_units_Z   1
loop_
 _symmetry_equiv_pos_site_id
 _symmetry_equiv_pos_as_xyz
  1  'x, y, z'
loop_
 _atom_site_type_symbol
 _atom_site_label
 _atom_site_symmetry_multiplicity
 _atom_site_fract_x
 _atom_site_fract_y
 _atom_site_fract_z
 _atom_site_occupancy
  Na  Na0  1  0.92036528  0.59552208  0.18093971  1
  Mg  Mg0  1  0.87013641  0.34872324  0.77274805  1
  V  V0  1  0.28519682  0.60257538  0.67788139  1
  V  V1  1  0.65404830  0.92454012  0.38039492  1
  Bi  Bi0  1  0.03154230  0.01432620  0.98714148  1
  Bi  Bi1  1  0.56519120  0.38251703  0.29930609  1
  Bi  Bi2  1  0.38474809  0.16875402  0.75525362  1
  O  O0  1  0.39332678  0.10133009  0.28448588  1
  O  O1  1  0.28065795  0.53769286  0.44483653  1
  O  O2  1  0.93629999  0.96109630  0.37144210  1
  O  O3  1  0.72456383  0.22946232  0.05486143  1
  O  O4  1  0.01562713  0.45655023  0.65584209  1
  O  O5  1  0.71742853  0.06307807  0.66098824  1
  O  O6  1  0.28897630  0.86506929  0.81583775  1
  O  O7  1  0.52651595  0.67199588  0.25457945  1
  O  O8  1  0.57026741  0.47018372  0.81817783  1
  O  O9  1  0.17565073  0.28672116  -0.00089656  1
loop_
_geom_bond_atom_site_label_1
_geom_bond_atom_site_label_2
_geom_bond_distance
_geom_bond_site_symmetry_2
Na0 O1 2.307319 1_655
Na0 O2 2.494591 1_555
Na0 O8 2.502670 1_554
Na0 O7 2.533963 1_555
Na0 O3 2.648680 1_555
Na0 O9 2.823146 1_655
Mg0 O4 1.937455 1_655
Mg0 O8 1.950715 1_555
Mg0 O9 2.012576 1_656
Mg0 O5 2.045640 1_555
Bi0 O9 2.210138 1_556
Bi0 O0 2.211168 1_556
Bi0 O3 2.317866 1_456
Bi0 O6 2.371315 1_545
Bi0 O5 2.541699 1_455
Bi1 O7 2.261917 1_555
Bi1 O9 2.297900 1_555
Bi1 O0 2.336218 1_555
Bi1 O1 2.370065 1_555
Bi1 O3 2.394148 1_555
Bi1 O4 2.709291 1_655
Bi2 O3 2.184102 1_556
Bi2 O5 2.308766 1_555
Bi2 O8 2.339383 1_555
Bi2 O9 2.596429 1_556
Bi2 O6 2.639855 1_545
O0 V1 1.925363 1_545
O1 V0 1.751826 1_555
O2 V1 1.707904 1_555
O4 V0 1.888653 1_555
O5 V1 1.961027 1_545
O6 V0 1.798731 1_555
O7 V1 1.772939 1_555
O8 V0 1.897782 1_555
