# generated using pymatgen
data_Na4YScSi(PO6)2
_symmetry_space_group_name_H-M   'P 1'
_cell_length_a   9.30189807
_cell_length_b   9.30213223
_cell_length_c   22.80796361
_cell_angle_alpha   90.03722474
_cell_angle_beta   89.93373892
_cell_angle_gamma   120.00664552
_symmetry_Int_Tables_number   1
_chemical_formula_structural   Na4YScSi(PO6)2
_chemical_formula_sum   'Na24 Y6 Sc6 Si6 P12 O72'
_cell_volume   1708.99916415
_cell_formula_units_Z   6
loop_
 _symmetry_equiv_pos_site_id
 _symmetry_equiv_pos_as_xyz
  1  'x, y, z'
loop_
 _atom_site_type_symbol
 _atom_site_label
 _atom_site_symmetry_multiplicity
 _atom_site_fract_x
 _atom_site_fract_y
 _atom_site_fract_z
 _atom_site_occupancy
  Na  Na0  1  0.63788738  0.00089784  0.25438389  1
  Na  Na1  1  0.35925944  0.36655641  0.25023361  1
  Na  Na2  1  0.00283351  0.62789975  0.25064168  1
  Na  Na3  1  0.63804388  0.63767765  0.74443572  1
  Na  Na4  1  0.98876713  0.35606588  0.74902018  1
  Na  Na5  1  0.37668271  0.00579892  0.74768290  1
  Na  Na6  1  0.30031641  0.32511855  0.58277467  1
  Na  Na7  1  0.03939970  0.70913926  0.58145530  1
  Na  Na8  1  0.66422153  0.96841378  0.58855094  1
  Na  Na9  1  0.29190827  0.96365233  0.08221061  1
  Na  Na10  1  0.67918122  0.69956652  0.08349771  1
  Na  Na11  1  0.02979603  0.33630883  0.09047582  1
  Na  Na12  1  0.97686117  0.67546683  0.92230317  1
  Na  Na13  1  0.69039273  0.03144681  0.91065730  1
  Na  Na14  1  0.33310407  0.29431904  0.91658158  1
  Na  Na15  1  0.96681816  0.30494534  0.41171706  1
  Na  Na16  1  0.32564237  0.02524071  0.41954039  1
  Na  Na17  1  0.70575773  0.66786393  0.41562135  1
  Na  Na18  1  0.00688028  0.99424741  0.49946776  1
  Na  Na19  1  0.00663452  0.99196057  0.00168825  1
  Na  Na20  1  0.66093664  0.31932519  0.83215059  1
  Na  Na21  1  0.67833331  0.33693285  0.33668391  1
  Na  Na22  1  0.32078921  0.65979561  0.16854800  1
  Na  Na23  1  0.34132264  0.67952783  0.66573624  1
  Y  Y0  1  0.99927607  0.99987713  0.84529191  1
  Y  Y1  1  0.67183888  0.33470303  0.18553198  1
  Y  Y2  1  0.66928565  0.33551780  0.98759013  1
  Y  Y3  1  0.33019964  0.67034346  0.01573340  1
  Y  Y4  1  0.33027940  0.67040898  0.51507269  1
  Y  Y5  1  0.33701806  0.67435903  0.81482106  1
  Sc  Sc0  1  0.99929596  0.00009574  0.34966019  1
  Sc  Sc1  1  0.99922293  0.99869191  0.64831668  1
  Sc  Sc2  1  0.00167591  0.00190808  0.15343422  1
  Sc  Sc3  1  0.66315325  0.32523013  0.68130000  1
  Sc  Sc4  1  0.66440122  0.33138416  0.48354223  1
  Sc  Sc5  1  0.32158559  0.65999221  0.31770145  1
  Si  Si0  1  0.00555029  0.29703099  0.25219793  1
  Si  Si1  1  0.70154437  0.00511337  0.74615250  1
  Si  Si2  1  0.36890712  0.04021340  0.58338941  1
  Si  Si3  1  0.97494769  0.64761894  0.08575022  1
  Si  Si4  1  0.33409270  0.97813716  0.91622980  1
  Si  Si5  1  0.02645829  0.66599795  0.41572229  1
  P  P0  1  0.29024145  0.99448241  0.25200435  1
  P  P1  1  0.70234052  0.71018458  0.25175214  1
  P  P2  1  0.30236206  0.29877906  0.74573258  1
  P  P3  1  0.99372880  0.69580213  0.74584513  1
  P  P4  1  0.95710611  0.32821720  0.58370961  1
  P  P5  1  0.67124047  0.62647670  0.58409360  1
  P  P6  1  0.67316543  0.02752300  0.08562144  1
  P  P7  1  0.35695232  0.32782003  0.08596465  1
  P  P8  1  0.63660291  0.66471455  0.91638975  1
  P  P9  1  0.02999095  0.36204674  0.91593901  1
  P  P10  1  0.63420137  0.96711323  0.41445802  1
  P  P11  1  0.33450031  0.36560626  0.41505439  1
  O  O0  1  0.20203676  0.01362653  0.30626334  1
  O  O1  1  0.81231540  0.79451416  0.30592440  1
  O  O2  1  0.98450873  0.18191083  0.30906247  1
  O  O3  1  0.23033150  0.19807450  0.80316797  1
  O  O4  1  0.97088094  0.77147907  0.80336273  1
  O  O5  1  0.80350005  0.03317886  0.80738441  1
  O  O6  1  0.80454362  0.98401755  0.69143936  1
  O  O7  1  0.18851023  0.20206124  0.69352087  1
  O  O8  1  0.01864200  0.81280766  0.69368426  1
  O  O9  1  0.78846038  0.81316974  0.19602949  1
  O  O10  1  0.02742359  0.20900488  0.19313903  1
  O  O11  1  0.18609116  0.97219237  0.19629491  1
  O  O12  1  0.87509263  0.35389749  0.63862468  1
  O  O13  1  0.48325282  0.13269982  0.64078214  1
  O  O14  1  0.65235267  0.52257406  0.63909557  1
  O  O15  1  0.88239984  0.52705601  0.14195874  1
  O  O16  1  0.64133855  0.11053550  0.13927775  1
  O  O17  1  0.46631317  0.34999840  0.14016517  1
  O  O18  1  0.43838135  0.30287627  0.03033965  1
  O  O19  1  0.86459070  0.56735346  0.02606436  1
  O  O20  1  0.69623057  0.13292122  0.03010683  1
  O  O21  1  0.46030025  0.15355803  0.52493110  1
  O  O22  1  0.69160027  0.54118994  0.52866837  1
  O  O23  1  0.85169920  0.30984199  0.52862681  1
  O  O24  1  0.55240378  0.68243812  0.97198016  1
  O  O25  1  0.13546282  0.44596633  0.97083907  1
  O  O26  1  0.31145813  0.86719749  0.97472536  1
  O  O27  1  0.55981496  0.86043753  0.47085868  1
  O  O28  1  0.30527966  0.44146965  0.47166235  1
  O  O29  1  0.14040659  0.70358413  0.47483406  1
  O  O30  1  0.12311850  0.63681201  0.36003929  1
  O  O31  1  0.52026909  0.87711016  0.36157531  1
  O  O32  1  0.35918623  0.48115297  0.36230964  1
  O  O33  1  0.11616453  0.46555809  0.86036730  1
  O  O34  1  0.35588278  0.88750581  0.85782983  1
  O  O35  1  0.52963972  0.64391877  0.86149599  1
  O  O36  1  0.00456072  0.83030511  0.40920874  1
  O  O37  1  0.81081357  0.98988989  0.40843706  1
  O  O38  1  0.17941013  0.18978530  0.40877710  1
  O  O39  1  0.00937704  0.18649003  0.91313031  1
  O  O40  1  0.16668804  0.99484854  0.91465887  1
  O  O41  1  0.80987477  0.82353602  0.91251526  1
  O  O42  1  0.97137823  0.16855792  0.58777831  1
  O  O43  1  0.18255762  0.02115234  0.58682982  1
  O  O44  1  0.82886035  0.80259367  0.58754930  1
  O  O45  1  0.99224945  0.83162346  0.09130651  1
  O  O46  1  0.83334504  0.01744491  0.09190765  1
  O  O47  1  0.18318354  0.17097243  0.09069601  1
  O  O48  1  0.68202826  0.17162206  0.74195500  1
  O  O49  1  0.48013133  0.32437242  0.74032034  1
  O  O50  1  0.83514967  0.52335181  0.74008394  1
  O  O51  1  0.67751746  0.53156172  0.24868650  1
  O  O52  1  0.83758828  0.31497788  0.25186954  1
  O  O53  1  0.46445894  0.15376248  0.24896042  1
  O  O54  1  0.65630168  0.50942740  0.91896410  1
  O  O55  1  0.85718716  0.34817341  0.91970050  1
  O  O56  1  0.50155932  0.16203114  0.91806992  1
  O  O57  1  0.64814084  0.14053298  0.42012703  1
  O  O58  1  0.49312687  0.35065761  0.41960900  1
  O  O59  1  0.84276220  0.49627956  0.42063837  1
  O  O60  1  0.34066464  0.48481166  0.08188352  1
  O  O61  1  0.15917088  0.66397418  0.08457035  1
  O  O62  1  0.52265147  0.84981174  0.08123694  1
  O  O63  1  0.35269974  0.85501591  0.58280726  1
  O  O64  1  0.51249608  0.64313441  0.58055159  1
  O  O65  1  0.13565705  0.48222277  0.58003882  1
  O  O66  1  0.31157349  0.83898391  0.25651752  1
  O  O67  1  0.52988709  0.69821082  0.25654299  1
  O  O68  1  0.17504496  0.48322714  0.25547468  1
  O  O69  1  0.31282570  0.46998614  0.74823666  1
  O  O70  1  0.14834899  0.67400382  0.74824775  1
  O  O71  1  0.51791042  0.83541962  0.74561943  1
loop_
_geom_bond_atom_site_label_1
_geom_bond_atom_site_label_2
_geom_bond_distance
_geom_bond_site_symmetry_2
Na0 O67 2.471912 1_545
Na0 O52 2.561539 1_555
Na0 O66 2.628934 1_545
Na0 O53 2.633408 1_555
Na0 O31 2.690253 1_545
Na0 O16 2.811420 1_555
Na1 O68 2.446996 1_555
Na1 O51 2.564400 1_555
Na1 O53 2.610330 1_555
Na1 O67 2.675821 1_555
Na1 O17 2.732172 1_555
Na1 O32 2.769082 1_555
Na2 O52 2.522163 1_455
Na2 O66 2.545870 1_555
Na2 O68 2.558534 1_555
Na2 O15 2.689218 1_455
Na2 O51 2.692584 1_455
Na2 O30 2.719905 1_555
Na3 O49 2.525544 1_555
Na3 O50 2.540092 1_555
Na3 O71 2.586255 1_555
Na3 O69 2.621452 1_555
Na3 O14 2.659896 1_555
Na3 O35 2.863685 1_555
Na4 O48 2.493001 1_555
Na4 O70 2.561167 1_655
Na4 O50 2.594226 1_555
Na4 O69 2.648507 1_655
Na4 O12 2.728194 1_555
Na4 O33 2.772659 1_655
Na4 O5 2.930168 1_555
Na5 O48 2.465971 1_555
Na5 O71 2.514377 1_545
Na5 O49 2.623752 1_555
Na5 O13 2.673694 1_555
Na5 O34 2.710918 1_545
Na5 O70 2.735050 1_545
Na6 O43 2.470955 1_555
Na6 O65 2.593197 1_555
Na6 O64 2.609459 1_555
Na6 O42 2.653016 1_455
Na6 O28 2.747590 1_555
Na6 O7 2.753006 1_555
Na7 O44 2.512467 1_455
Na7 O43 2.519195 1_565
Na7 O63 2.525894 1_555
Na7 O29 2.615772 1_555
Na7 O65 2.673657 1_555
Na7 O8 2.775113 1_555
Na8 O42 2.511825 1_565
Na8 O63 2.543658 1_555
Na8 O64 2.628533 1_555
Na8 O6 2.654959 1_555
Na8 O44 2.662274 1_555
Na8 O27 2.860852 1_555
Na9 O61 2.419874 1_555
Na9 O45 2.428154 1_455
Na9 O47 2.594093 1_565
Na9 O26 2.647141 1_554
Na9 O11 2.796022 1_555
Na9 O62 2.828767 1_555
Na9 O18 2.985661 1_565
Na10 O62 2.472159 1_555
Na10 O45 2.538526 1_555
Na10 O46 2.568164 1_565
Na10 O60 2.759680 1_555
Na10 O9 2.768691 1_555
Na10 O24 2.775586 1_554
Na10 O19 2.883948 1_555
Na11 O60 2.512390 1_555
Na11 O47 2.568269 1_555
Na11 O46 2.591696 1_455
Na11 O10 2.619725 1_555
Na11 O61 2.662328 1_555
Na11 O25 2.906345 1_554
Na11 O15 2.972165 1_455
Na11 O20 3.039344 1_455
Na12 O41 2.549654 1_555
Na12 O19 2.578688 1_556
Na12 O54 2.583897 1_555
Na12 O40 2.593779 1_655
Na12 O55 2.668699 1_555
Na12 O4 2.865863 1_555
Na12 O26 2.958237 1_655
Na13 O55 2.560846 1_555
Na13 O39 2.570475 1_655
Na13 O5 2.575399 1_555
Na13 O56 2.592791 1_555
Na13 O41 2.669750 1_545
Na13 O20 2.874376 1_556
Na13 O34 2.960733 1_545
Na14 O40 2.417700 1_545
Na14 O56 2.428902 1_555
Na14 O54 2.651111 1_555
Na14 O39 2.656968 1_555
Na14 O3 2.748324 1_555
Na14 O18 2.761315 1_556
Na15 O37 2.539017 1_545
Na15 O59 2.567877 1_555
Na15 O57 2.574394 1_555
Na15 O2 2.646280 1_555
Na15 O38 2.679735 1_655
Na15 O23 2.881118 1_555
Na15 O30 2.923121 1_655
Na16 O38 2.517335 1_555
Na16 O36 2.616877 1_545
Na16 O58 2.621716 1_555
Na16 O57 2.632802 1_555
Na16 O21 2.698058 1_555
Na16 O0 2.809090 1_555
Na16 O29 2.890553 1_545
Na17 O36 2.414241 1_655
Na17 O59 2.493950 1_555
Na17 O58 2.605669 1_555
Na17 O37 2.650922 1_555
Na17 O1 2.731366 1_555
Na17 O22 2.811011 1_555
Na18 O43 2.510200 1_565
Na18 O36 2.554834 1_555
Na18 O44 2.645854 1_455
Na18 O38 2.690746 1_565
Na18 O42 2.706458 1_465
Na18 O37 2.751959 1_455
Na19 O40 2.471955 1_554
Na19 O45 2.494815 1_455
Na19 O47 2.619006 1_565
Na19 O41 2.660330 1_454
Na19 O46 2.694920 1_465
Na19 O39 2.704300 1_564
Na20 O56 2.450779 1_555
Na20 O48 2.534409 1_555
Na20 O55 2.628609 1_555
Na20 O54 2.668521 1_555
Na20 O49 2.702737 1_555
Na20 O50 2.749281 1_555
Na21 O59 2.436916 1_555
Na21 O52 2.504736 1_555
Na21 O57 2.555134 1_555
Na21 O58 2.602613 1_555
Na21 O51 2.706391 1_555
Na21 O53 2.734698 1_555
Na22 O61 2.448550 1_555
Na22 O68 2.497453 1_555
Na22 O60 2.624260 1_555
Na22 O66 2.636194 1_555
Na22 O67 2.692891 1_555
Na22 O62 2.700362 1_555
Na23 O71 2.396168 1_555
Na23 O63 2.466634 1_555
Na23 O70 2.581941 1_555
Na23 O69 2.626230 1_555
Na23 O64 2.637380 1_555
Na23 O65 2.709411 1_555
O0 P0 1.542689 1_545
O0 Sc0 2.076171 1_455
O1 P1 1.545145 1_555
O1 Sc0 2.086138 1_565
O2 Si0 1.630568 1_655
O2 Sc0 1.992913 1_555
O3 P2 1.553803 1_555
O3 Y0 2.230621 1_445
O4 P3 1.552255 1_555
O4 Y0 2.221453 1_555
O5 Si1 1.634917 1_555
O5 Y0 2.174415 1_545
O6 Si1 1.642757 1_565
O6 Sc1 2.003525 1_555
O7 P2 1.548429 1_555
O7 Sc1 2.100489 1_445
O8 P3 1.549979 1_455
O8 Sc1 2.099603 1_455
O9 P1 1.551241 1_555
O9 Sc2 2.115360 1_665
O10 Si0 1.640394 1_555
O10 Sc2 2.031103 1_555
O11 P0 1.548425 1_555
O11 Sc2 2.110255 1_565
O12 P4 1.545149 1_555
O12 Sc3 2.091684 1_555
O13 Si2 1.634468 1_555
O13 Sc3 1.966124 1_555
O14 P5 1.539471 1_555
O14 Sc3 2.119796 1_555
O15 Si3 1.635859 1_555
O15 Y1 2.125555 1_555
O16 P6 1.551832 1_555
O16 Y1 2.224357 1_555
O17 P7 1.548630 1_555
O17 Y1 2.241122 1_555
O18 P7 1.552521 1_555
O18 Y2 2.235928 1_554
O19 Si3 1.643081 1_555
O19 Y2 2.191765 1_554
O20 P6 1.549536 1_555
O20 Y2 2.242810 1_554
O21 Si2 1.647662 1_555
O21 Sc4 2.022020 1_555
O22 P5 1.552975 1_555
O22 Sc4 2.106267 1_555
O23 P4 1.550441 1_555
O23 Sc4 2.118133 1_555
O24 P8 1.541027 1_555
O24 Y3 2.245763 1_556
O25 P9 1.541224 1_555
O25 Y3 2.214959 1_556
O26 Si4 1.634967 1_555
O26 Y3 2.140151 1_556
O27 P10 1.559194 1_555
O27 Y4 2.218718 1_555
O28 P11 1.558430 1_555
O28 Y4 2.252140 1_555
O29 Si5 1.641777 1_555
O29 Y4 2.146199 1_555
O30 Si5 1.654127 1_555
O30 Sc5 1.996275 1_555
O31 P10 1.546954 1_555
O31 Sc5 2.182721 1_555
O32 P11 1.552218 1_555
O32 Sc5 2.123673 1_555
O33 P9 1.550296 1_555
O33 Y5 2.253608 1_555
O34 Si4 1.641601 1_555
O34 Y5 2.138713 1_555
O35 P8 1.550795 1_555
O35 Y5 2.221729 1_555
O36 Si5 1.646613 1_555
O36 Sc0 2.102834 1_465
O37 P10 1.553709 1_555
O37 Sc0 2.169858 1_565
O38 P11 1.554619 1_555
O38 Sc0 2.187183 1_455
O39 P9 1.547393 1_555
O39 Y0 2.291262 1_445
O40 Si4 1.640888 1_555
O40 Y0 2.238072 1_455
O41 P8 1.551259 1_555
O41 Y0 2.291708 1_555
O42 P4 1.558649 1_555
O42 Sc1 2.209830 1_545
O43 Si2 1.653656 1_555
O43 Sc1 2.134732 1_445
O44 P5 1.561221 1_555
O44 Sc1 2.206848 1_555
O45 Si3 1.641918 1_555
O45 Sc2 2.093594 1_665
O46 P6 1.545830 1_555
O46 Sc2 2.161836 1_655
O47 P7 1.547275 1_555
O47 Sc2 2.170939 1_555
O48 Si1 1.650042 1_555
O48 Sc3 2.059230 1_555
O49 P2 1.553092 1_555
O49 Sc3 2.166012 1_555
O50 P3 1.549159 1_555
O50 Sc3 2.192340 1_555
O51 P1 1.560506 1_555
O51 Y1 2.308881 1_555
O52 Si0 1.652217 1_655
O52 Y1 2.233544 1_555
O53 P0 1.557110 1_545
O53 Y1 2.322971 1_555
O54 P8 1.545471 1_555
O54 Y2 2.297977 1_555
O55 P9 1.549185 1_655
O55 Y2 2.292291 1_555
O56 Si4 1.639926 1_545
O56 Y2 2.244268 1_555
O57 P10 1.557696 1_545
O57 Sc4 2.235002 1_555
O58 P11 1.553352 1_555
O58 Sc4 2.233398 1_555
O59 Si5 1.651165 1_655
O59 Sc4 2.148433 1_555
O60 P7 1.544593 1_555
O60 Y3 2.331542 1_555
O61 Si3 1.643022 1_455
O61 Y3 2.213484 1_555
O62 P6 1.545350 1_565
O62 Y3 2.288566 1_555
O63 Si2 1.652548 1_565
O63 Y4 2.240128 1_555
O64 P5 1.562082 1_555
O64 Y4 2.367296 1_555
O65 P4 1.561345 1_455
O65 Y4 2.316197 1_555
O66 P0 1.558704 1_555
O66 Sc5 2.210587 1_555
O67 P1 1.555161 1_555
O67 Sc5 2.265356 1_555
O68 Si0 1.661335 1_555
O68 Sc5 2.082239 1_555
O69 P2 1.547235 1_555
O69 Y5 2.353781 1_555
O70 P3 1.550680 1_455
O70 Y5 2.320747 1_555
O71 Si1 1.647047 1_565
O71 Y5 2.245567 1_555
