# generated using pymatgen
data_Na8NbAl3Si5SO24
_symmetry_space_group_name_H-M   'P 1'
_cell_length_a   8.90092739
_cell_length_b   8.89954309
_cell_length_c   21.80983180
_cell_angle_alpha   89.74522611
_cell_angle_beta   89.94191454
_cell_angle_gamma   120.08208079
_symmetry_Int_Tables_number   1
_chemical_formula_structural   Na8NbAl3Si5SO24
_chemical_formula_sum   'Na24 Nb3 Al9 Si15 S3 O72'
_cell_volume   1494.92282821
_cell_formula_units_Z   3
loop_
 _symmetry_equiv_pos_site_id
 _symmetry_equiv_pos_as_xyz
  1  'x, y, z'
loop_
 _atom_site_type_symbol
 _atom_site_label
 _atom_site_symmetry_multiplicity
 _atom_site_fract_x
 _atom_site_fract_y
 _atom_site_fract_z
 _atom_site_occupancy
  Na  Na0  1  0.62231858  0.99883140  0.25150837  1
  Na  Na1  1  0.36651163  0.36081290  0.25310541  1
  Na  Na2  1  0.00769832  0.63973123  0.25021270  1
  Na  Na3  1  0.63594725  0.62275218  0.74686832  1
  Na  Na4  1  0.99695289  0.36591555  0.74268490  1
  Na  Na5  1  0.36034703  0.00535204  0.74518797  1
  Na  Na6  1  0.29889629  0.33702725  0.58256684  1
  Na  Na7  1  0.03717837  0.70161393  0.58285935  1
  Na  Na8  1  0.66495615  0.96359596  0.58034965  1
  Na  Na9  1  0.29966268  0.96138149  0.08383140  1
  Na  Na10  1  0.66288992  0.70019201  0.08173732  1
  Na  Na11  1  0.03668199  0.33591357  0.08207259  1
  Na  Na12  1  0.96887426  0.67243704  0.91516166  1
  Na  Na13  1  0.70104205  0.02846103  0.91745209  1
  Na  Na14  1  0.32743142  0.29694251  0.91460920  1
  Na  Na15  1  0.97220141  0.30185992  0.41874242  1
  Na  Na16  1  0.33127110  0.02922139  0.41681414  1
  Na  Na17  1  0.69892918  0.67141881  0.41864545  1
  Na  Na18  1  0.00011106  0.00075647  0.50170594  1
  Na  Na19  1  0.99945118  0.99895514  0.99988052  1
  Na  Na20  1  0.66503968  0.33901608  0.82992092  1
  Na  Na21  1  0.66020265  0.32787457  0.33471807  1
  Na  Na22  1  0.33231177  0.67223637  0.16375269  1
  Na  Na23  1  0.32871071  0.66259946  0.65865196  1
  Nb  Nb0  1  0.66633368  0.33307038  0.98258374  1
  Nb  Nb1  1  0.66739423  0.33426921  0.48140503  1
  Nb  Nb2  1  0.32239681  0.65712913  0.81372184  1
  Al  Al0  1  0.01901545  0.00592809  0.35996296  1
  Al  Al1  1  0.01315705  0.99513460  0.85482394  1
  Al  Al2  1  0.01755743  0.00519373  0.64223059  1
  Al  Al3  1  0.01135695  0.99404689  0.14207429  1
  Al  Al4  1  0.66460961  0.34484602  0.68065066  1
  Al  Al5  1  0.64918641  0.31848050  0.17799624  1
  Al  Al6  1  0.33416824  0.66709453  0.02096901  1
  Al  Al7  1  0.33401605  0.66669829  0.51926680  1
  Al  Al8  1  0.33099578  0.68161448  0.32395410  1
  Si  Si0  1  0.28990842  0.99959295  0.24983605  1
  Si  Si1  1  0.28746450  0.27835939  0.74840972  1
  Si  Si2  1  0.99164009  0.71303517  0.74843581  1
  Si  Si3  1  0.96143606  0.33238669  0.58805500  1
  Si  Si4  1  0.37609356  0.03785610  0.58753986  1
  Si  Si5  1  0.66633372  0.63375775  0.58617945  1
  Si  Si6  1  0.95987706  0.62394204  0.08878318  1
  Si  Si7  1  0.66849212  0.03375704  0.08736450  1
  Si  Si8  1  0.37013716  0.33722681  0.08664090  1
  Si  Si9  1  0.62846006  0.67558079  0.91858983  1
  Si  Si10  1  0.04224856  0.36729437  0.92059866  1
  Si  Si11  1  0.32969483  0.95271428  0.91918588  1
  Si  Si12  1  0.62696716  0.95145312  0.41533120  1
  Si  Si13  1  0.32994414  0.38608873  0.41458220  1
  Si  Si14  1  0.04973592  0.66989747  0.41645436  1
  S  S0  1  0.71228806  0.71155398  0.24948775  1
  S  S1  1  0.99969078  0.28792870  0.24941951  1
  S  S2  1  0.71604133  0.00219551  0.74974740  1
  O  O0  1  0.19659093  0.03500282  0.30856079  1
  O  O1  1  0.81988106  0.79316891  0.30447157  1
  O  O2  1  0.96818776  0.17734261  0.30467727  1
  O  O3  1  0.19763773  0.16678548  0.81081003  1
  O  O4  1  0.96322239  0.79822068  0.81049846  1
  O  O5  1  0.81970944  0.02751993  0.80639255  1
  O  O6  1  0.79102083  0.97026281  0.69566971  1
  O  O7  1  0.15883593  0.19945893  0.69042566  1
  O  O8  1  0.03488562  0.84051772  0.69017453  1
  O  O9  1  0.79302485  0.82340856  0.19397510  1
  O  O10  1  0.02531350  0.20481942  0.19413212  1
  O  O11  1  0.16302855  0.96506508  0.19045971  1
  O  O12  1  0.86414153  0.36641374  0.64528943  1
  O  O13  1  0.50541614  0.13320658  0.64523068  1
  O  O14  1  0.62666227  0.50333960  0.64408680  1
  O  O15  1  0.85965251  0.49183720  0.14584145  1
  O  O16  1  0.63028849  0.12778176  0.14383159  1
  O  O17  1  0.50120300  0.37564388  0.14365672  1
  O  O18  1  0.45910848  0.29361543  0.02600964  1
  O  O19  1  0.83331062  0.53662196  0.02651494  1
  O  O20  1  0.70864737  0.16470098  0.02590301  1
  O  O21  1  0.46435175  0.16628272  0.52574403  1
  O  O22  1  0.70616120  0.54188213  0.52557610  1
  O  O23  1  0.83442093  0.29640607  0.52607412  1
  O  O24  1  0.53496923  0.70436030  0.97677291  1
  O  O25  1  0.16937400  0.46303619  0.97695971  1
  O  O26  1  0.29698812  0.82798336  0.97714611  1
  O  O27  1  0.53981566  0.83148307  0.47549463  1
  O  O28  1  0.29655008  0.46891000  0.47537100  1
  O  O29  1  0.17166999  0.70627558  0.47582283  1
  O  O30  1  0.12424930  0.62454389  0.35496226  1
  O  O31  1  0.50458881  0.87453438  0.35466395  1
  O  O32  1  0.36746903  0.50786209  0.35296413  1
  O  O33  1  0.12581527  0.49659649  0.85860180  1
  O  O34  1  0.37227497  0.87088485  0.85724722  1
  O  O35  1  0.50144993  0.63277350  0.85728611  1
  O  O36  1  0.02048887  0.83679905  0.40831397  1
  O  O37  1  0.82168711  0.97823710  0.40395209  1
  O  O38  1  0.16047054  0.18956108  0.40893179  1
  O  O39  1  0.01811902  0.17790140  0.90802096  1
  O  O40  1  0.16074817  0.97545697  0.91199525  1
  O  O41  1  0.81867979  0.84530798  0.90873302  1
  O  O42  1  0.97187942  0.15514229  0.59219357  1
  O  O43  1  0.18822338  0.02744737  0.58871657  1
  O  O44  1  0.84136953  0.82210582  0.59292196  1
  O  O45  1  0.97079079  0.81246089  0.09089502  1
  O  O46  1  0.84416342  0.02145225  0.09536367  1
  O  O47  1  0.18125255  0.16127274  0.09157482  1
  O  O48  1  0.69244708  0.15575877  0.74643674  1
  O  O49  1  0.48386260  0.30449202  0.74406487  1
  O  O50  1  0.82767532  0.51265499  0.74433510  1
  O  O51  1  0.69704440  0.53661634  0.24489597  1
  O  O52  1  0.84392943  0.30981578  0.24507991  1
  O  O53  1  0.48789665  0.17771004  0.24267637  1
  O  O54  1  0.64338509  0.49747000  0.92152108  1
  O  O55  1  0.85242105  0.35711556  0.92121166  1
  O  O56  1  0.50541813  0.14708124  0.92132944  1
  O  O57  1  0.64559551  0.14706240  0.42075114  1
  O  O58  1  0.50288385  0.36003919  0.41950996  1
  O  O59  1  0.85262852  0.49591870  0.42044176  1
  O  O60  1  0.35612369  0.50956144  0.07716165  1
  O  O61  1  0.14773404  0.64068327  0.07844548  1
  O  O62  1  0.49378084  0.84876981  0.07726638  1
  O  O63  1  0.35906437  0.84972568  0.57788617  1
  O  O64  1  0.49144679  0.64443674  0.57677808  1
  O  O65  1  0.14860700  0.50639973  0.57784016  1
  O  O66  1  0.31114033  0.82324699  0.25624517  1
  O  O67  1  0.53508424  0.68914727  0.25301814  1
  O  O68  1  0.15875177  0.46239122  0.25314394  1
  O  O69  1  0.31380014  0.48095174  0.75469852  1
  O  O70  1  0.17291155  0.69550459  0.75461334  1
  O  O71  1  0.53631894  0.84272784  0.75441724  1
loop_
_geom_bond_atom_site_label_1
_geom_bond_atom_site_label_2
_geom_bond_distance
_geom_bond_site_symmetry_2
Na0 O66 2.404839 1_555
Na0 O53 2.431074 1_565
Na0 O67 2.460414 1_555
Na0 O52 2.468501 1_565
Na0 O31 2.488858 1_555
Na0 O16 2.594444 1_565
Na0 O2 2.909767 1_565
Na0 O9 2.951622 1_555
Na1 O53 2.375339 1_555
Na1 O68 2.431634 1_555
Na1 O67 2.528696 1_555
Na1 O32 2.543650 1_555
Na1 O51 2.552953 1_555
Na1 O17 2.643017 1_555
Na1 O0 2.779670 1_555
Na1 O10 2.932923 1_555
Na2 O66 2.357998 1_555
Na2 O51 2.441153 1_455
Na2 O68 2.535583 1_555
Na2 O30 2.540940 1_555
Na2 O52 2.543772 1_455
Na2 O15 2.635234 1_455
Na2 O11 2.818263 1_555
Na2 O1 2.891127 1_455
Na3 O50 2.356263 1_555
Na3 O49 2.452872 1_555
Na3 O14 2.468744 1_555
Na3 O69 2.492649 1_555
Na3 O71 2.527634 1_555
Na3 O35 2.709911 1_555
Na3 O4 2.884010 1_555
Na3 O6 2.898887 1_555
Na4 O48 2.401517 1_555
Na4 O12 2.433081 1_555
Na4 O50 2.439217 1_555
Na4 O69 2.485947 1_655
Na4 O70 2.554708 1_655
Na4 O7 2.778726 1_655
Na4 O33 2.784666 1_655
Na4 O5 2.946939 1_555
Na5 O49 2.315580 1_555
Na5 O70 2.410775 1_545
Na5 O13 2.492788 1_555
Na5 O48 2.562090 1_555
Na5 O71 2.618978 1_545
Na5 O34 2.741960 1_545
Na5 O8 2.783193 1_545
Na5 O3 2.882676 1_555
Na6 O64 2.394570 1_555
Na6 O43 2.419659 1_555
Na6 O65 2.468291 1_555
Na6 O42 2.531634 1_455
Na6 O28 2.616133 1_555
Na6 O7 2.650500 1_555
Na6 O14 2.863411 1_555
Na6 O21 2.875795 1_555
Na7 O65 2.396415 1_555
Na7 O44 2.471954 1_455
Na7 O63 2.483972 1_555
Na7 O43 2.515533 1_565
Na7 O29 2.613064 1_555
Na7 O8 2.656604 1_555
Na7 O22 2.843793 1_455
Na7 O12 2.911840 1_455
Na8 O63 2.382816 1_555
Na8 O42 2.402649 1_565
Na8 O64 2.462440 1_555
Na8 O44 2.471109 1_555
Na8 O27 2.563017 1_555
Na8 O6 2.743848 1_555
Na8 O23 2.817014 1_565
Na8 O13 2.908799 1_565
Na9 O62 2.397286 1_555
Na9 O61 2.474346 1_555
Na9 O47 2.487142 1_565
Na9 O45 2.541096 1_455
Na9 O26 2.611562 1_554
Na9 O11 2.631201 1_555
Na9 O18 2.846633 1_565
Na9 O16 2.867426 1_565
Na10 O60 2.387888 1_555
Na10 O45 2.409756 1_555
Na10 O62 2.453169 1_555
Na10 O46 2.499992 1_565
Na10 O24 2.566200 1_554
Na10 O9 2.700485 1_555
Na10 O17 2.834015 1_555
Na10 O19 2.845369 1_555
Na11 O61 2.377017 1_555
Na11 O46 2.456963 1_455
Na11 O60 2.465193 1_555
Na11 O47 2.473272 1_555
Na11 O25 2.561705 1_554
Na11 O10 2.683338 1_555
Na11 O20 2.812759 1_455
Na11 O15 2.923606 1_455
Na12 O40 2.361140 1_655
Na12 O55 2.459093 1_555
Na12 O41 2.496814 1_555
Na12 O54 2.512415 1_555
Na12 O4 2.549558 1_555
Na12 O19 2.705712 1_556
Na12 O33 2.850809 1_655
Na12 O26 2.871413 1_655
Na13 O41 2.345781 1_545
Na13 O56 2.448815 1_555
Na13 O39 2.451515 1_655
Na13 O55 2.535489 1_555
Na13 O5 2.643218 1_555
Na13 O20 2.648178 1_556
Na13 O24 2.804838 1_545
Na13 O34 2.857336 1_545
Na14 O39 2.408550 1_555
Na14 O54 2.467479 1_555
Na14 O40 2.477191 1_545
Na14 O56 2.535142 1_555
Na14 O3 2.547255 1_555
Na14 O18 2.705101 1_556
Na14 O25 2.848177 1_555
Na14 O35 2.866495 1_555
Na15 O38 2.352214 1_655
Na15 O59 2.441296 1_555
Na15 O37 2.516923 1_545
Na15 O57 2.517014 1_555
Na15 O23 2.630512 1_555
Na15 O2 2.720870 1_555
Na15 O28 2.791280 1_655
Na15 O30 2.842177 1_655
Na16 O36 2.423645 1_545
Na16 O57 2.448401 1_555
Na16 O58 2.549120 1_555
Na16 O38 2.559316 1_555
Na16 O0 2.660915 1_555
Na16 O21 2.667990 1_555
Na16 O29 2.793751 1_545
Na16 O31 2.872931 1_545
Na17 O37 2.398545 1_555
Na17 O58 2.424130 1_555
Na17 O36 2.486318 1_655
Na17 O59 2.540510 1_555
Na17 O22 2.612048 1_555
Na17 O1 2.708300 1_555
Na17 O27 2.758056 1_555
Na17 O32 2.932083 1_555
Na18 O43 2.464327 1_555
Na18 O44 2.489198 1_445
Na18 O42 2.492976 1_455
Na18 O38 2.552326 1_555
Na18 O36 2.569401 1_545
Na18 O37 2.607555 1_445
Na19 O40 2.465338 1_655
Na19 O41 2.497111 1_555
Na19 O39 2.506641 1_665
Na19 O45 2.511020 1_556
Na19 O47 2.528544 1_666
Na19 O46 2.561749 1_566
Na20 O50 2.386233 1_555
Na20 O49 2.390780 1_555
Na20 O54 2.512691 1_555
Na20 O56 2.538083 1_555
Na20 O48 2.541446 1_555
Na20 O55 2.551904 1_555
Na21 O58 2.421552 1_555
Na21 O57 2.426917 1_555
Na21 O59 2.475713 1_555
Na21 O53 2.478560 1_555
Na21 O51 2.598450 1_555
Na21 O52 2.604217 1_555
Na22 O61 2.405819 1_555
Na22 O62 2.407568 1_555
Na22 O60 2.457342 1_555
Na22 O66 2.487599 1_555
Na22 O68 2.597016 1_555
Na22 O67 2.609193 1_555
Na23 O65 2.324262 1_555
Na23 O63 2.339035 1_555
Na23 O64 2.354759 1_555
Na23 O69 2.602538 1_555
Na23 O70 2.606868 1_555
Na23 O71 2.723024 1_555
Nb0 O19 1.930758 1_556
Nb0 O18 1.940803 1_556
Nb0 O20 1.957954 1_556
Nb0 O55 2.053909 1_555
Nb0 O56 2.054964 1_555
Nb0 O54 2.058823 1_555
Nb1 O21 1.926503 1_555
Nb1 O23 1.942971 1_555
Nb1 O22 1.959171 1_555
Nb1 O59 2.038767 1_555
Nb1 O57 2.063826 1_555
Nb1 O58 2.087332 1_555
Nb2 O33 1.881199 1_555
Nb2 O35 1.958897 1_555
Nb2 O34 1.971636 1_555
Nb2 O70 2.001007 1_555
Nb2 O69 2.004782 1_555
Nb2 O71 2.202256 1_555
Al0 O38 1.830895 1_555
Al0 O36 1.839413 1_545
Al0 O0 1.845493 1_555
Al0 O37 1.904388 1_445
Al0 O2 2.159252 1_455
Al0 O1 2.202700 1_445
Al1 O3 1.849468 1_565
Al1 O4 1.854261 1_455
Al1 O40 1.882346 1_555
Al1 O41 1.955720 1_455
Al1 O39 1.984581 1_565
Al1 O5 2.159186 1_465
Al2 O43 1.844395 1_555
Al2 O8 1.865015 1_545
Al2 O7 1.874719 1_555
Al2 O42 1.915442 1_455
Al2 O44 1.930855 1_445
Al2 O6 2.210082 1_445
Al3 O11 1.830907 1_555
Al3 O45 1.849261 1_455
Al3 O47 1.854896 1_565
Al3 O46 1.917481 1_465
Al3 O9 2.094241 1_455
Al3 O10 2.146783 1_565
Al4 O14 1.791015 1_555
Al4 O12 1.854734 1_555
Al4 O13 1.868636 1_555
Al4 O49 2.010463 1_555
Al4 O50 2.028720 1_555
Al4 O48 2.312796 1_555
Al5 O16 1.785800 1_555
Al5 O17 1.795847 1_555
Al5 O15 1.863277 1_555
Al5 O53 1.948758 1_555
Al5 O51 2.297057 1_555
Al5 O52 2.299858 1_555
Al6 O26 1.880603 1_554
Al6 O24 1.906054 1_554
Al6 O25 1.928410 1_554
Al6 O60 1.940505 1_555
Al6 O62 1.964324 1_555
Al6 O61 1.995625 1_555
Al7 O28 1.885024 1_555
Al7 O29 1.902624 1_555
Al7 O27 1.925754 1_555
Al7 O64 1.963617 1_555
Al7 O63 1.998109 1_555
Al7 O65 2.002495 1_555
Al8 O31 1.771072 1_555
Al8 O30 1.777423 1_555
Al8 O32 1.841676 1_555
Al8 O66 2.001999 1_555
Al8 O67 2.359929 1_555
Al8 O68 2.361131 1_555
O0 Si0 1.641173 1_545
O1 S0 1.481727 1_555
O2 S1 1.487193 1_555
O3 Si1 1.633182 1_555
O4 Si2 1.634488 1_555
O5 S2 1.491583 1_555
O6 S2 1.452146 1_565
O7 Si1 1.614948 1_555
O8 Si2 1.611934 1_455
O9 S0 1.497861 1_555
O10 S1 1.493160 1_455
O11 Si0 1.644828 1_555
O12 Si3 1.632157 1_555
O13 Si4 1.631394 1_555
O14 Si5 1.625443 1_555
O15 Si6 1.630942 1_555
O16 Si7 1.620518 1_555
O17 Si8 1.622050 1_555
O18 Si8 1.684335 1_555
O19 Si6 1.688851 1_555
O20 Si7 1.688254 1_555
O21 Si4 1.680461 1_555
O22 Si5 1.685373 1_555
O23 Si3 1.688805 1_555
O24 Si9 1.607098 1_555
O25 Si10 1.600930 1_555
O26 Si11 1.605531 1_555
O27 Si12 1.618220 1_555
O28 Si13 1.617675 1_555
O29 Si14 1.616672 1_555
O30 Si14 1.634873 1_555
O31 Si12 1.633801 1_555
O32 Si13 1.647819 1_555
O33 Si10 1.682795 1_555
O34 Si11 1.668304 1_555
O35 Si9 1.669328 1_555
O36 Si14 1.640406 1_555
O37 Si12 1.645234 1_555
O38 Si13 1.645333 1_555
O39 Si10 1.613584 1_555
O40 Si11 1.622417 1_555
O41 Si9 1.620823 1_555
O42 Si3 1.628098 1_555
O43 Si4 1.627931 1_555
O44 Si5 1.625819 1_555
O45 Si6 1.632071 1_555
O46 Si7 1.630775 1_555
O47 Si8 1.627628 1_555
O48 S2 1.484556 1_555
O49 Si1 1.646484 1_555
O50 Si2 1.646424 1_555
O51 S0 1.497304 1_555
O52 S1 1.496625 1_555
O53 Si0 1.685100 1_545
O54 Si9 1.656655 1_555
O55 Si10 1.646140 1_655
O56 Si11 1.652070 1_545
O57 Si12 1.668674 1_545
O58 Si13 1.671129 1_555
O59 Si14 1.660798 1_655
O60 Si8 1.612310 1_555
O61 Si6 1.618069 1_455
O62 Si7 1.616955 1_565
O63 Si4 1.618423 1_565
O64 Si5 1.619579 1_555
O65 Si3 1.622716 1_455
O66 Si0 1.677407 1_555
O67 S0 1.489232 1_555
O68 S1 1.489777 1_455
O69 Si1 1.703840 1_555
O70 Si2 1.702477 1_455
O71 S2 1.518546 1_565
