# generated using pymatgen
data_MgTiFeO4
_symmetry_space_group_name_H-M   'P 1'
_cell_length_a   6.40103146
_cell_length_b   5.65062799
_cell_length_c   6.43649149
_cell_angle_alpha   130.72282522
_cell_angle_beta   148.74051104
_cell_angle_gamma   59.65535374
_symmetry_Int_Tables_number   1
_chemical_formula_structural   MgTiFeO4
_chemical_formula_sum   'Mg1 Ti1 Fe1 O4'
_cell_volume   90.73739464
_cell_formula_units_Z   1
loop_
 _symmetry_equiv_pos_site_id
 _symmetry_equiv_pos_as_xyz
  1  'x, y, z'
loop_
 _atom_site_type_symbol
 _atom_site_label
 _atom_site_symmetry_multiplicity
 _atom_site_fract_x
 _atom_site_fract_y
 _atom_site_fract_z
 _atom_site_occupancy
  Mg  Mg0  1  0.40168400  0.14451300  0.77696100  1
  Ti  Ti0  1  0.73376800  0.36289800  0.61945900  1
  Fe  Fe0  1  0.03397700  0.87497700  0.88221700  1
  O  O0  1  0.54182400  0.13824800  0.58362700  1
  O  O1  1  0.22586400  0.17161200  0.95608600  1
  O  O2  1  0.90961800  0.41289300  0.49774200  1
  O  O3  1  0.78421700  0.77581200  0.94581300  1
loop_
_geom_bond_atom_site_label_1
_geom_bond_atom_site_label_2
_geom_bond_distance
_geom_bond_site_symmetry_2
Mg0 O0 2.042869 1_555
Mg0 O2 2.099480 1_556
Mg0 O1 2.105511 1_555
Mg0 O2 2.121943 1_455
Mg0 O3 2.183486 1_545
Mg0 O3 2.491884 1_444
Fe0 O2 1.968897 1_455
Fe0 O0 2.048070 1_566
Fe0 O0 2.115478 1_465
Fe0 O1 2.141544 1_565
Fe0 O3 2.315319 1_455
O0 Ti0 1.970678 1_555
O1 Ti0 1.931920 1_455
O1 Ti0 1.940434 1_556
O2 Ti0 2.019486 1_555
O3 Ti0 1.779674 1_555
