# generated using pymatgen
data_Eu2C(NO)2
_symmetry_space_group_name_H-M   'P 1'
_cell_length_a   3.86207743
_cell_length_b   3.86207743
_cell_length_c   8.35405500
_cell_angle_alpha   90.00000000
_cell_angle_beta   90.00000000
_cell_angle_gamma   119.99999022
_symmetry_Int_Tables_number   1
_chemical_formula_structural   Eu2C(NO)2
_chemical_formula_sum   'Eu2 C1 N2 O2'
_cell_volume   107.91205367
_cell_formula_units_Z   1
loop_
 _symmetry_equiv_pos_site_id
 _symmetry_equiv_pos_as_xyz
  1  'x, y, z'
loop_
 _atom_site_type_symbol
 _atom_site_label
 _atom_site_symmetry_multiplicity
 _atom_site_fract_x
 _atom_site_fract_y
 _atom_site_fract_z
 _atom_site_occupancy
  Eu  Eu0  1  0.66666700  0.33333300  0.17924600  1
  Eu  Eu1  1  0.33333300  0.66666700  0.82075400  1
  C  C0  1  0.00000000  0.00000000  0.50000000  1
  N  N0  1  0.00000000  0.00000000  0.64809100  1
  N  N1  1  0.00000000  0.00000000  0.35190900  1
  O  O0  1  0.66666700  0.33333300  0.89659000  1
  O  O1  1  0.33333300  0.66666700  0.10341000  1
loop_
_geom_bond_atom_site_label_1
_geom_bond_atom_site_label_2
_geom_bond_distance
_geom_bond_site_symmetry_2
Eu0 O1 2.318026 1_545
Eu0 O1 2.318026 1_655
Eu0 O1 2.318032 1_555
Eu0 O0 2.361324 1_554
Eu0 N1 2.655653 1_655
Eu0 N1 2.655656 1_665
Eu0 N1 2.655656 1_555
Eu1 O0 2.318026 1_455
Eu1 O0 2.318026 1_565
Eu1 O0 2.318032 1_555
Eu1 O1 2.361324 1_556
Eu1 N0 2.655653 1_565
Eu1 N0 2.655656 1_665
Eu1 N0 2.655656 1_555
C0 N1 1.237160 1_555
C0 N0 1.237160 1_555
