# generated using pymatgen
data_KFeCl3
_symmetry_space_group_name_H-M   'P 1'
_cell_length_a   3.89084700
_cell_length_b   8.86234600
_cell_length_c   14.29641400
_cell_angle_alpha   90.00000000
_cell_angle_beta   90.00000000
_cell_angle_gamma   90.00000000
_symmetry_Int_Tables_number   1
_chemical_formula_structural   KFeCl3
_chemical_formula_sum   'K4 Fe4 Cl12'
_cell_volume   492.96940999
_cell_formula_units_Z   4
loop_
 _symmetry_equiv_pos_site_id
 _symmetry_equiv_pos_as_xyz
  1  'x, y, z'
loop_
 _atom_site_type_symbol
 _atom_site_label
 _atom_site_symmetry_multiplicity
 _atom_site_fract_x
 _atom_site_fract_y
 _atom_site_fract_z
 _atom_site_occupancy
  K  K0  1  0.75000000  0.05742900  0.67208800  1
  K  K1  1  0.25000000  0.94257100  0.32791200  1
  K  K2  1  0.75000000  0.55742900  0.82791200  1
  K  K3  1  0.25000000  0.44257100  0.17208800  1
  Fe  Fe0  1  0.75000000  0.33829100  0.44810000  1
  Fe  Fe1  1  0.25000000  0.66170900  0.55190000  1
  Fe  Fe2  1  0.75000000  0.83829100  0.05190000  1
  Fe  Fe3  1  0.25000000  0.16170900  0.94810000  1
  Cl  Cl0  1  0.25000000  0.02042100  0.09620400  1
  Cl  Cl1  1  0.75000000  0.97957900  0.90379600  1
  Cl  Cl2  1  0.25000000  0.52042100  0.40379600  1
  Cl  Cl3  1  0.75000000  0.47957900  0.59620400  1
  Cl  Cl4  1  0.25000000  0.18261100  0.50580700  1
  Cl  Cl5  1  0.75000000  0.81738900  0.49419300  1
  Cl  Cl6  1  0.25000000  0.68261100  0.99419300  1
  Cl  Cl7  1  0.75000000  0.31738900  0.00580700  1
  Cl  Cl8  1  0.75000000  0.23235900  0.29735700  1
  Cl  Cl9  1  0.25000000  0.76764100  0.70264300  1
  Cl  Cl10  1  0.75000000  0.73235900  0.20264300  1
  Cl  Cl11  1  0.25000000  0.26764100  0.79735700  1
loop_
_geom_bond_atom_site_label_1
_geom_bond_atom_site_label_2
_geom_bond_distance
_geom_bond_site_symmetry_2
Cl0 Fe3 2.459890 1_554
Cl0 Fe2 2.605987 1_445
Cl0 Fe2 2.605987 1_545
Cl0 K1 3.383679 1_545
Cl1 Fe2 2.459890 1_556
Cl1 Fe3 2.605987 1_665
Cl1 Fe3 2.605987 1_565
Cl1 K0 3.383679 1_565
Cl2 Fe1 2.459890 1_555
Cl2 Fe0 2.605987 1_555
Cl2 Fe0 2.605987 1_455
Cl2 K3 3.383679 1_555
Cl3 Fe0 2.459890 1_555
Cl3 Fe1 2.605987 1_555
Cl3 Fe1 2.605987 1_655
Cl3 K2 3.383679 1_555
Cl4 Fe0 2.523658 1_555
Cl4 Fe0 2.523658 1_455
Cl4 K0 3.265982 1_455
Cl4 K0 3.265982 1_555
Cl4 K1 3.315668 1_545
Cl5 Fe1 2.523658 1_555
Cl5 Fe1 2.523658 1_655
Cl5 K1 3.265982 1_655
Cl5 K1 3.265982 1_555
Cl5 K0 3.315668 1_565
Cl6 Fe2 2.523658 1_456
Cl6 Fe2 2.523658 1_556
Cl6 K2 3.265982 1_555
Cl6 K2 3.265982 1_455
Cl6 K3 3.315668 1_556
Cl7 Fe3 2.523658 1_654
Cl7 Fe3 2.523658 1_554
Cl7 K3 3.265982 1_555
Cl7 K3 3.265982 1_655
Cl7 K2 3.315668 1_554
Cl8 Fe0 2.350690 1_555
Cl8 K3 3.234602 1_555
Cl8 K3 3.234602 1_655
Cl8 K1 3.251330 1_645
Cl8 K1 3.251330 1_545
Cl9 Fe1 2.350690 1_555
Cl9 K2 3.234602 1_555
Cl9 K2 3.234602 1_455
Cl9 K0 3.251330 1_465
Cl9 K0 3.251330 1_565
Cl10 Fe2 2.350690 1_555
Cl10 K1 3.234602 1_555
Cl10 K1 3.234602 1_655
Cl10 K3 3.251330 1_555
Cl10 K3 3.251330 1_655
Cl11 Fe3 2.350690 1_555
Cl11 K0 3.234602 1_555
Cl11 K0 3.234602 1_455
Cl11 K2 3.251330 1_455
Cl11 K2 3.251330 1_555
