# generated using pymatgen
data_MgCo6(O3F)3
_symmetry_space_group_name_H-M   'P 1'
_cell_length_a   6.82629589
_cell_length_b   5.58755041
_cell_length_c   5.76999317
_cell_angle_alpha   83.19443687
_cell_angle_beta   74.02375141
_cell_angle_gamma   74.26377924
_symmetry_Int_Tables_number   1
_chemical_formula_structural   MgCo6(O3F)3
_chemical_formula_sum   'Mg1 Co6 O9 F3'
_cell_volume   203.42148500
_cell_formula_units_Z   1
loop_
 _symmetry_equiv_pos_site_id
 _symmetry_equiv_pos_as_xyz
  1  'x, y, z'
loop_
 _atom_site_type_symbol
 _atom_site_label
 _atom_site_symmetry_multiplicity
 _atom_site_fract_x
 _atom_site_fract_y
 _atom_site_fract_z
 _atom_site_occupancy
  Mg  Mg0  1  0.65889664  0.32496139  0.82730585  1
  Co  Co0  1  0.83405252  0.70157346  0.65431789  1
  Co  Co1  1  0.32192938  0.74870249  0.61029746  1
  Co  Co2  1  0.66838284  0.34910023  0.31654191  1
  Co  Co3  1  0.16335022  0.34460772  0.33458455  1
  Co  Co4  1  0.48969736  0.92151891  0.07315605  1
  Co  Co5  1  0.00259528  0.92675444  0.07371026  1
  O  O0  1  0.62451283  0.58983450  0.55433323  1
  O  O1  1  0.29029047  0.88008996  0.91935865  1
  O  O2  1  0.96572214  0.22589812  0.22570772  1
  O  O3  1  0.36652107  0.46687397  0.42233665  1
  O  O4  1  0.03410517  0.78036403  0.77677044  1
  O  O5  1  0.70846139  0.08097941  0.10652528  1
  O  O6  1  0.31757042  0.00737999  0.37620211  1
  O  O7  1  0.67543397  0.62446901  0.99332302  1
  O  O8  1  0.00150660  0.68656521  0.32063231  1
  F  F0  1  0.36284694  0.32601806  0.98603087  1
  F  F1  1  0.66674138  0.06819450  0.62144339  1
  F  F2  1  0.96738337  0.32111459  0.68241936  1
loop_
_geom_bond_atom_site_label_1
_geom_bond_atom_site_label_2
_geom_bond_distance
_geom_bond_site_symmetry_2
Mg0 O5 2.024333 1_556
Mg0 O0 2.046672 1_555
Mg0 O7 2.067108 1_555
Co0 O4 1.867864 1_655
Co0 O0 1.947473 1_555
Co0 O8 1.948193 1_655
Co0 O7 2.017817 1_555
Co0 F1 2.072419 1_565
Co0 F2 2.079398 1_555
Co1 O6 1.857567 1_565
Co1 O4 1.904501 1_555
Co1 O3 1.926571 1_555
Co1 O1 1.943694 1_555
Co1 O0 1.965929 1_555
Co2 O2 1.900101 1_555
Co2 O3 1.928471 1_555
Co2 O0 1.942748 1_555
Co2 O5 1.952729 1_555
Co2 F1 2.214274 1_555
Co2 O7 2.271237 1_554
Co3 O3 1.905012 1_555
Co3 O6 1.916349 1_555
Co3 O2 1.924907 1_455
Co3 O8 1.935287 1_555
Co3 F0 2.091698 1_554
Co3 F2 2.095158 1_455
Co4 O7 1.814617 1_554
Co4 O6 1.852117 1_565
Co4 O1 1.891700 1_554
Co4 O5 1.995417 1_565
Co4 F0 2.240452 1_564
Co5 O8 1.837797 1_555
Co5 O1 1.879496 1_554
Co5 O2 1.903700 1_465
Co5 O4 1.919560 1_554
Co5 O5 1.923738 1_465
F0 Mg0 1.974561 1_555
F1 Mg0 1.949193 1_555
F2 Mg0 2.035792 1_555
