# generated using pymatgen
data_NaCa2Zr2PS5O24
_symmetry_space_group_name_H-M   'P 1'
_cell_length_a   9.09656301
_cell_length_b   9.11227217
_cell_length_c   23.72695439
_cell_angle_alpha   89.79879410
_cell_angle_beta   90.02180229
_cell_angle_gamma   120.08199985
_symmetry_Int_Tables_number   1
_chemical_formula_structural   NaCa2Zr2PS5O24
_chemical_formula_sum   'Na3 Ca6 Zr6 P3 S15 O72'
_cell_volume   1701.82134919
_cell_formula_units_Z   3
loop_
 _symmetry_equiv_pos_site_id
 _symmetry_equiv_pos_as_xyz
  1  'x, y, z'
loop_
 _atom_site_type_symbol
 _atom_site_label
 _atom_site_symmetry_multiplicity
 _atom_site_fract_x
 _atom_site_fract_y
 _atom_site_fract_z
 _atom_site_occupancy
  Na  Na0  1  0.67018159  0.33265691  0.82751760  1
  Na  Na1  1  0.65894474  0.33473051  0.33191509  1
  Na  Na2  1  0.33782668  0.67024811  0.16242408  1
  Ca  Ca0  1  0.99932655  0.00296036  0.85582939  1
  Ca  Ca1  1  0.66658135  0.33205612  0.68318363  1
  Ca  Ca2  1  0.66142285  0.33318514  0.19005690  1
  Ca  Ca3  1  0.66582905  0.33388819  0.48575510  1
  Ca  Ca4  1  0.33214958  0.66354909  0.01695487  1
  Ca  Ca5  1  0.33382902  0.66687391  0.52204012  1
  Zr  Zr0  1  0.00159140  0.99459279  0.35365492  1
  Zr  Zr1  1  0.99804045  0.99969136  0.64660923  1
  Zr  Zr2  1  0.99916231  0.99095845  0.14572415  1
  Zr  Zr3  1  0.67213160  0.33232109  0.97783877  1
  Zr  Zr4  1  0.33993769  0.67347896  0.31193722  1
  Zr  Zr5  1  0.32309542  0.65817394  0.81191914  1
  P  P0  1  0.28247476  0.99398246  0.25156793  1
  P  P1  1  0.71358554  0.71774548  0.25173104  1
  P  P2  1  0.04010384  0.37936811  0.91691862  1
  S  S0  1  0.00658751  0.28827897  0.25140918  1
  S  S1  1  0.29092313  0.29310570  0.75125305  1
  S  S2  1  0.00236229  0.71036151  0.75155953  1
  S  S3  1  0.70405913  0.99442688  0.75163670  1
  S  S4  1  0.96203239  0.32734763  0.58495985  1
  S  S5  1  0.36436147  0.03735979  0.58517208  1
  S  S6  1  0.67277694  0.63460400  0.58511252  1
  S  S7  1  0.95625614  0.62478136  0.08468395  1
  S  S8  1  0.67149128  0.04434525  0.08508081  1
  S  S9  1  0.37238001  0.32931160  0.08475296  1
  S  S10  1  0.62015455  0.65752907  0.91625864  1
  S  S11  1  0.34140547  0.96135734  0.91617803  1
  S  S12  1  0.62778273  0.95966985  0.41327296  1
  S  S13  1  0.33064871  0.37456811  0.41258152  1
  S  S14  1  0.04280341  0.66610502  0.41318332  1
  O  O0  1  0.18576586  0.00762823  0.30299679  1
  O  O1  1  0.82148386  0.81707597  0.30309447  1
  O  O2  1  0.99103402  0.18519678  0.30202137  1
  O  O3  1  0.21370605  0.19121409  0.80128663  1
  O  O4  1  0.97967161  0.78792026  0.80161424  1
  O  O5  1  0.80767479  0.01931039  0.80116628  1
  O  O6  1  0.78785685  0.97221309  0.70023454  1
  O  O7  1  0.18472949  0.21196613  0.70015749  1
  O  O8  1  0.02586253  0.81617148  0.70031511  1
  O  O9  1  0.79999959  0.82746399  0.19767746  1
  O  O10  1  0.02900383  0.20834286  0.19984170  1
  O  O11  1  0.17298236  0.97343666  0.19783689  1
  O  O12  1  0.88196662  0.35179460  0.63444954  1
  O  O13  1  0.47009760  0.11747948  0.63444353  1
  O  O14  1  0.64778288  0.52942825  0.63462160  1
  O  O15  1  0.87786115  0.52378245  0.13502180  1
  O  O16  1  0.64762912  0.12300802  0.13494947  1
  O  O17  1  0.47440882  0.35275976  0.13498788  1
  O  O18  1  0.45568756  0.30666721  0.03351337  1
  O  O19  1  0.85000602  0.54141197  0.03333820  1
  O  O20  1  0.69314771  0.15148323  0.03329090  1
  O  O21  1  0.43148733  0.14238289  0.53395078  1
  O  O22  1  0.71065281  0.56803930  0.53403418  1
  O  O23  1  0.85712314  0.28988879  0.53392980  1
  O  O24  1  0.54657643  0.68049725  0.96750498  1
  O  O25  1  0.13809620  0.46061582  0.96955709  1
  O  O26  1  0.32315545  0.86712303  0.96778026  1
  O  O27  1  0.55808958  0.86088206  0.46411960  1
  O  O28  1  0.30284393  0.44275608  0.46382588  1
  O  O29  1  0.13958462  0.69405430  0.46432261  1
  O  O30  1  0.13834423  0.65224280  0.36313169  1
  O  O31  1  0.51467924  0.86362175  0.36307052  1
  O  O32  1  0.34742242  0.48742127  0.36263147  1
  O  O33  1  0.13166704  0.50030623  0.86386824  1
  O  O34  1  0.37157391  0.87933837  0.86586053  1
  O  O35  1  0.50815651  0.63002424  0.86595947  1
  O  O36  1  0.02496679  0.81985448  0.40263149  1
  O  O37  1  0.79728328  0.97765048  0.40132463  1
  O  O38  1  0.17734475  0.20525563  0.40073751  1
  O  O39  1  0.00657644  0.20470862  0.90578641  1
  O  O40  1  0.19972132  0.98760861  0.90724337  1
  O  O41  1  0.79001420  0.79619667  0.90702276  1
  O  O42  1  0.97849737  0.17050991  0.59682975  1
  O  O43  1  0.19100335  0.02082294  0.59733544  1
  O  O44  1  0.82975968  0.80820936  0.59680717  1
  O  O45  1  0.96621142  0.79585573  0.09109852  1
  O  O46  1  0.83092811  0.03383076  0.09215530  1
  O  O47  1  0.20065512  0.17072945  0.09279379  1
  O  O48  1  0.67699139  0.13975949  0.74430011  1
  O  O49  1  0.46443888  0.32336948  0.74421860  1
  O  O50  1  0.85885238  0.53696545  0.74470235  1
  O  O51  1  0.69517534  0.54347323  0.24991502  1
  O  O52  1  0.85747772  0.30784548  0.24820477  1
  O  O53  1  0.45893102  0.14745097  0.24965496  1
  O  O54  1  0.63040161  0.49460904  0.92342354  1
  O  O55  1  0.85716150  0.36875826  0.92413298  1
  O  O56  1  0.50297935  0.13713469  0.92271686  1
  O  O57  1  0.64410132  0.12819792  0.41392387  1
  O  O58  1  0.48212268  0.35585288  0.41338010  1
  O  O59  1  0.87231225  0.51549202  0.41405421  1
  O  O60  1  0.34531188  0.47462662  0.07864016  1
  O  O61  1  0.12997976  0.65655218  0.07836559  1
  O  O62  1  0.52661911  0.87221949  0.07792037  1
  O  O63  1  0.33654063  0.86701106  0.57724969  1
  O  O64  1  0.53007585  0.66253831  0.57722525  1
  O  O65  1  0.13304090  0.46983785  0.57714843  1
  O  O66  1  0.29262354  0.82739274  0.25846832  1
  O  O67  1  0.53439094  0.70371588  0.25838554  1
  O  O68  1  0.16414913  0.45993938  0.25760231  1
  O  O69  1  0.30273095  0.46488719  0.75876608  1
  O  O70  1  0.16374204  0.70016496  0.75849101  1
  O  O71  1  0.53350427  0.83574369  0.75959747  1
loop_
_geom_bond_atom_site_label_1
_geom_bond_atom_site_label_2
_geom_bond_distance
_geom_bond_site_symmetry_2
Na0 O50 2.654494 1_555
Na0 O48 2.669406 1_555
Na0 O49 2.693646 1_555
Na0 O55 2.774464 1_555
Na0 O56 2.801348 1_555
Na0 O54 2.836634 1_555
Na1 O58 2.583744 1_555
Na1 O51 2.618805 1_555
Na1 O53 2.634415 1_555
Na1 O57 2.658201 1_555
Na1 O59 2.663318 1_555
Na1 O52 2.777799 1_555
Na2 O62 2.676708 1_555
Na2 O60 2.698278 1_555
Na2 O61 2.707483 1_555
Na2 O67 2.815926 1_555
Na2 O66 2.833115 1_555
Na2 O68 2.864539 1_555
Ca0 O39 2.163958 1_655
Ca0 O5 2.236298 1_555
Ca0 O41 2.244982 1_545
Ca0 O3 2.247926 1_655
Ca0 O40 2.254649 1_645
Ca0 O4 2.278741 1_545
Ca1 O12 2.203434 1_555
Ca1 O13 2.205894 1_555
Ca1 O14 2.210229 1_555
Ca1 O48 2.308806 1_555
Ca1 O49 2.310839 1_555
Ca1 O50 2.327957 1_555
Ca2 O17 2.221253 1_555
Ca2 O53 2.262058 1_555
Ca2 O15 2.270684 1_555
Ca2 O16 2.273741 1_555
Ca2 O51 2.283025 1_555
Ca2 O52 2.355021 1_555
Ca3 O21 2.270623 1_555
Ca3 O22 2.274993 1_555
Ca3 O23 2.278150 1_555
Ca3 O59 2.455068 1_555
Ca3 O57 2.471368 1_555
Ca3 O58 2.472292 1_555
Ca4 O25 2.130964 1_554
Ca4 O24 2.214406 1_554
Ca4 O26 2.223962 1_554
Ca4 O60 2.304101 1_555
Ca4 O61 2.322310 1_555
Ca4 O62 2.341519 1_555
Ca5 O65 2.228724 1_555
Ca5 O64 2.229668 1_555
Ca5 O63 2.239229 1_555
Ca5 O29 2.343799 1_555
Ca5 O27 2.354838 1_555
Ca5 O28 2.366523 1_555
O0 P0 1.545936 1_545
O0 Zr0 2.016599 1_545
O1 P1 1.544046 1_555
O1 Zr0 2.023692 1_655
O2 S0 1.484386 1_655
O2 Zr0 2.163073 1_645
O3 S1 1.450466 1_555
O4 S2 1.450828 1_655
O5 S3 1.451775 1_545
O6 S3 1.505529 1_555
O6 Zr1 2.203826 1_555
O7 S1 1.496327 1_555
O7 Zr1 2.227638 1_445
O8 S2 1.496333 1_555
O8 Zr1 2.212110 1_455
O9 P1 1.570435 1_555
O9 Zr2 2.074690 1_555
O10 S0 1.491489 1_555
O10 Zr2 2.263811 1_445
O11 P0 1.570400 1_555
O11 Zr2 2.074766 1_455
O12 S4 1.457414 1_555
O13 S5 1.458090 1_555
O14 S6 1.457388 1_555
O15 S7 1.455009 1_555
O16 S8 1.457079 1_555
O17 S9 1.459408 1_555
O18 S9 1.501382 1_555
O18 Zr3 2.283555 1_554
O19 S7 1.504994 1_555
O19 Zr3 2.215349 1_554
O20 S8 1.516859 1_555
O20 Zr3 2.187103 1_554
O21 S5 1.473874 1_555
O22 S6 1.473222 1_555
O23 S4 1.472653 1_555
O24 S10 1.453641 1_555
O25 P2 1.498882 1_555
O26 S11 1.453904 1_555
O27 S12 1.445193 1_555
O28 S13 1.446194 1_555
O29 S14 1.445269 1_555
O30 S14 1.514430 1_555
O30 Zr4 2.126046 1_555
O31 S12 1.532016 1_555
O31 Zr4 2.062279 1_555
O32 S13 1.523047 1_555
O32 Zr4 2.104081 1_555
O33 P2 1.601085 1_555
O33 Zr5 2.024581 1_555
O34 S11 1.507105 1_555
O34 Zr5 2.240705 1_555
O35 S10 1.506744 1_555
O35 Zr5 2.229954 1_555
O36 S14 1.509044 1_555
O36 Zr0 2.063283 1_555
O37 S12 1.493767 1_555
O37 Zr0 2.114212 1_655
O38 S13 1.499967 1_555
O38 Zr0 2.103810 1_545
O39 P2 1.487309 1_555
O40 S11 1.439364 1_555
O41 S10 1.439853 1_555
O42 S4 1.534906 1_555
O42 Zr1 2.028250 1_545
O43 S5 1.534481 1_555
O43 Zr1 2.036206 1_445
O44 S6 1.535216 1_555
O44 Zr1 2.029670 1_555
O45 S7 1.523679 1_555
O45 Zr2 2.100494 1_555
O46 S8 1.509903 1_555
O46 Zr2 2.168980 1_545
O47 S9 1.516612 1_555
O47 Zr2 2.144184 1_445
O48 S3 1.473078 1_545
O49 S1 1.469274 1_555
O50 S2 1.470051 1_655
O51 P1 1.511810 1_555
O52 S0 1.455891 1_655
O53 P0 1.511140 1_545
O54 S10 1.542233 1_555
O54 Zr3 2.132347 1_555
O55 P2 1.626912 1_655
O55 Zr3 2.001349 1_555
O56 S11 1.546414 1_545
O56 Zr3 2.124343 1_555
O57 S12 1.467040 1_545
O58 S13 1.470902 1_555
O59 S14 1.468094 1_655
O60 S9 1.469867 1_555
O61 S7 1.464527 1_455
O62 S8 1.468069 1_565
O63 S5 1.455028 1_565
O64 S6 1.454501 1_555
O65 S4 1.453895 1_455
O66 P0 1.574299 1_555
O66 Zr4 2.086614 1_555
O67 P1 1.577815 1_555
O67 Zr4 2.080845 1_555
O68 S0 1.508835 1_555
O68 Zr4 2.214079 1_555
O69 S1 1.525430 1_555
O69 Zr5 2.101261 1_555
O70 S2 1.525501 1_555
O70 Zr5 2.099026 1_555
O71 S3 1.510931 1_555
O71 Zr5 2.169270 1_555
