# generated using pymatgen
data_Na6ZrZn7(SO4)12
_symmetry_space_group_name_H-M   'P 1'
_cell_length_a   17.61950721
_cell_length_b   8.80595367
_cell_length_c   22.53682347
_cell_angle_alpha   89.97675028
_cell_angle_beta   90.03345783
_cell_angle_gamma   120.07928727
_symmetry_Int_Tables_number   1
_chemical_formula_structural   Na6ZrZn7(SO4)12
_chemical_formula_sum   'Na18 Zr3 Zn21 S36 O144'
_cell_volume   3025.83941653
_cell_formula_units_Z   3
loop_
 _symmetry_equiv_pos_site_id
 _symmetry_equiv_pos_as_xyz
  1  'x, y, z'
loop_
 _atom_site_type_symbol
 _atom_site_label
 _atom_site_symmetry_multiplicity
 _atom_site_fract_x
 _atom_site_fract_y
 _atom_site_fract_z
 _atom_site_occupancy
  Na  Na0  1  0.32031117  0.63988909  0.74938205  1
  Na  Na1  1  0.64976810  0.33000954  0.58438631  1
  Na  Na2  1  0.98548141  0.66646007  0.91682618  1
  Na  Na3  1  0.66690745  0.30480411  0.91417570  1
  Na  Na4  1  0.16749085  0.02932256  0.41677982  1
  Na  Na5  1  0.66601840  0.02993587  0.41698448  1
  Na  Na6  1  0.99182922  0.00213320  0.49198399  1
  Na  Na7  1  0.48022988  0.97621556  0.50116067  1
  Na  Na8  1  0.00363331  0.02361077  0.99376514  1
  Na  Na9  1  0.48764798  0.97898542  0.99150838  1
  Na  Na10  1  0.33819870  0.32095717  0.83653556  1
  Na  Na11  1  0.83052543  0.31226726  0.82835116  1
  Na  Na12  1  0.34234218  0.34991919  0.33275697  1
  Na  Na13  1  0.84302224  0.35125499  0.33237883  1
  Na  Na14  1  0.16782515  0.66724001  0.16674394  1
  Na  Na15  1  0.66582341  0.66625302  0.16691151  1
  Na  Na16  1  0.16438233  0.67401408  0.66313907  1
  Na  Na17  1  0.66119055  0.67788011  0.66997635  1
  Zr  Zr0  1  0.00107352  0.00170729  0.64812842  1
  Zr  Zr1  1  0.00088957  0.00005787  0.14823858  1
  Zr  Zr2  1  0.49958320  0.99984686  0.14769374  1
  Zn  Zn0  1  0.99629599  0.99921028  0.34876058  1
  Zn  Zn1  1  0.49535083  0.99975579  0.34960854  1
  Zn  Zn2  1  0.00106949  0.00781974  0.84883279  1
  Zn  Zn3  1  0.49694155  0.99725949  0.84687866  1
  Zn  Zn4  1  0.49791917  0.99419562  0.65183737  1
  Zn  Zn5  1  0.33842484  0.33256042  0.67977378  1
  Zn  Zn6  1  0.83015547  0.32732756  0.68366215  1
  Zn  Zn7  1  0.33319293  0.33280161  0.18257029  1
  Zn  Zn8  1  0.83313831  0.33255961  0.18299779  1
  Zn  Zn9  1  0.33349452  0.33666203  0.98340830  1
  Zn  Zn10  1  0.83278735  0.32279277  0.98559984  1
  Zn  Zn11  1  0.33837900  0.34419844  0.48543926  1
  Zn  Zn12  1  0.83861635  0.33867116  0.48366841  1
  Zn  Zn13  1  0.17005657  0.66791113  0.01484089  1
  Zn  Zn14  1  0.66538746  0.66988475  0.01459075  1
  Zn  Zn15  1  0.16922776  0.66114671  0.51520894  1
  Zn  Zn16  1  0.66495048  0.66897222  0.51370383  1
  Zn  Zn17  1  0.16658903  0.66198090  0.31811838  1
  Zn  Zn18  1  0.66632093  0.66124832  0.31732986  1
  Zn  Zn19  1  0.16812584  0.67387515  0.81970974  1
  Zn  Zn20  1  0.66456954  0.66462916  0.81719887  1
  S  S0  1  0.15109080  0.00080911  0.25361563  1
  S  S1  1  0.65054371  0.00135453  0.25336722  1
  S  S2  1  0.34990601  0.69845231  0.25195570  1
  S  S3  1  0.85009319  0.69906381  0.25196752  1
  S  S4  1  0.99962831  0.30026935  0.25192859  1
  S  S5  1  0.49974177  0.30018433  0.25196218  1
  S  S6  1  0.15053599  0.29985176  0.75213123  1
  S  S7  1  0.64981603  0.29963956  0.74992870  1
  S  S8  1  0.99951873  0.69864416  0.75356385  1
  S  S9  1  0.50094098  0.70243437  0.74953759  1
  S  S10  1  0.35025913  0.00192697  0.75007972  1
  S  S11  1  0.85038419  0.00011878  0.75223643  1
  S  S12  1  0.48323359  0.33376237  0.58259070  1
  S  S13  1  0.98143654  0.34128368  0.58398294  1
  S  S14  1  0.18800096  0.03565274  0.58167185  1
  S  S15  1  0.68521652  0.03437234  0.58178202  1
  S  S16  1  0.33241761  0.63132062  0.58577233  1
  S  S17  1  0.83154772  0.62392658  0.58275480  1
  S  S18  1  0.48176252  0.62225957  0.08332634  1
  S  S19  1  0.98227103  0.62333771  0.08162004  1
  S  S20  1  0.32942879  0.03781071  0.08292027  1
  S  S21  1  0.82957805  0.03392804  0.08395258  1
  S  S22  1  0.18915171  0.34136454  0.08310827  1
  S  S23  1  0.68813203  0.34100026  0.08183853  1
  S  S24  1  0.31644697  0.66516325  0.91454909  1
  S  S25  1  0.81499711  0.67015409  0.91736404  1
  S  S26  1  0.01896045  0.37058845  0.91704920  1
  S  S27  1  0.51763322  0.36980232  0.91673891  1
  S  S28  1  0.16699003  0.96611182  0.91707478  1
  S  S29  1  0.66679604  0.96350507  0.91620828  1
  S  S30  1  0.31517029  0.96366363  0.41700375  1
  S  S31  1  0.81474701  0.96115177  0.41668767  1
  S  S32  1  0.16667942  0.36825546  0.41643417  1
  S  S33  1  0.66688548  0.36865421  0.41808771  1
  S  S34  1  0.01900100  0.66496441  0.41649933  1
  S  S35  1  0.51707041  0.66576898  0.41495006  1
  O  O0  1  0.11012695  0.02004990  0.30822509  1
  O  O1  1  0.60990392  0.02025485  0.30811568  1
  O  O2  1  0.40291917  0.78194989  0.30502818  1
  O  O3  1  0.90298327  0.78226712  0.30516887  1
  O  O4  1  0.48997946  0.19594145  0.30518536  1
  O  O5  1  0.98917705  0.19518140  0.30511259  1
  O  O6  1  0.10845459  0.19459756  0.80512310  1
  O  O7  1  0.60744331  0.19597116  0.80450125  1
  O  O8  1  0.48591961  0.78438265  0.80245205  1
  O  O9  1  0.99011635  0.78012310  0.80857519  1
  O  O10  1  0.40219752  0.02622169  0.80451693  1
  O  O11  1  0.90272726  0.02016224  0.80564297  1
  O  O12  1  0.39123308  0.97099104  0.69737170  1
  O  O13  1  0.89846207  0.98525273  0.69840542  1
  O  O14  1  0.09581925  0.20696392  0.69789336  1
  O  O15  1  0.59851861  0.21440351  0.69523749  1
  O  O16  1  0.00710788  0.81524983  0.70122036  1
  O  O17  1  0.51181598  0.80612560  0.69528500  1
  O  O18  1  0.39747614  0.81085566  0.19793675  1
  O  O19  1  0.89743191  0.81085255  0.19802868  1
  O  O20  1  0.00698898  0.20420998  0.19788275  1
  O  O21  1  0.50723697  0.20471667  0.19784001  1
  O  O22  1  0.09299456  0.98591841  0.20105098  1
  O  O23  1  0.59289356  0.98708757  0.20079869  1
  O  O24  1  0.44490353  0.35782588  0.63733542  1
  O  O25  1  0.93917508  0.35945170  0.63741763  1
  O  O26  1  0.24048627  0.12567655  0.63415632  1
  O  O27  1  0.73978437  0.12190143  0.63438618  1
  O  O28  1  0.32300336  0.53226383  0.64179835  1
  O  O29  1  0.82029849  0.51851642  0.63616114  1
  O  O30  1  0.44058098  0.52193280  0.13752173  1
  O  O31  1  0.93752130  0.51701675  0.13393952  1
  O  O32  1  0.32043861  0.11869485  0.13751148  1
  O  O33  1  0.82075518  0.11870700  0.13746526  1
  O  O34  1  0.23886847  0.35913625  0.13750502  1
  O  O35  1  0.74151255  0.35773945  0.13403613  1
  O  O36  1  0.22587763  0.30949346  0.02951627  1
  O  O37  1  0.72339294  0.31183347  0.02593313  1
  O  O38  1  0.42925381  0.54902868  0.02954593  1
  O  O39  1  0.93166925  0.55301884  0.02587744  1
  O  O40  1  0.34489748  0.14407641  0.02960123  1
  O  O41  1  0.84697661  0.13915194  0.02958833  1
  O  O42  1  0.22304961  0.13473603  0.52598000  1
  O  O43  1  0.72492275  0.14179648  0.52680566  1
  O  O44  1  0.34193903  0.54214335  0.53315429  1
  O  O45  1  0.84731982  0.55047301  0.52885063  1
  O  O46  1  0.43084832  0.31120265  0.52894125  1
  O  O47  1  0.92928714  0.30688745  0.52955923  1
  O  O48  1  0.27240753  0.68738807  0.96686834  1
  O  O49  1  0.77479057  0.69054632  0.97180001  1
  O  O50  1  0.06997100  0.45203493  0.97139834  1
  O  O51  1  0.57391360  0.45101123  0.96991719  1
  O  O52  1  0.15107609  0.85090635  0.96928529  1
  O  O53  1  0.65752513  0.86519821  0.97128835  1
  O  O54  1  0.27411961  0.85941291  0.47118687  1
  O  O55  1  0.77433870  0.85737662  0.47113709  1
  O  O56  1  0.15506864  0.44789201  0.47060500  1
  O  O57  1  0.65819887  0.44692689  0.47434704  1
  O  O58  1  0.07449743  0.69266346  0.46943960  1
  O  O59  1  0.57261285  0.69729087  0.46848920  1
  O  O60  1  0.05960990  0.64428735  0.36187795  1
  O  O61  1  0.55876186  0.64396459  0.36124358  1
  O  O62  1  0.25937948  0.88169508  0.36371129  1
  O  O63  1  0.75911358  0.87848763  0.36368584  1
  O  O64  1  0.17685795  0.46968623  0.36198946  1
  O  O65  1  0.67669556  0.47611073  0.36558525  1
  O  O66  1  0.06025442  0.48099668  0.86376095  1
  O  O67  1  0.55890754  0.47417566  0.86274205  1
  O  O68  1  0.17705725  0.88584077  0.86209070  1
  O  O69  1  0.67800495  0.88137983  0.86262635  1
  O  O70  1  0.26673121  0.64470217  0.85832443  1
  O  O71  1  0.76090658  0.64337217  0.86403362  1
  O  O72  1  0.01203502  0.82857853  0.41223675  1
  O  O73  1  0.50966105  0.82822746  0.41003651  1
  O  O74  1  0.40377447  0.98476700  0.41161538  1
  O  O75  1  0.90358782  0.98359634  0.41123935  1
  O  O76  1  0.08799293  0.18590740  0.41217060  1
  O  O77  1  0.58807246  0.18838506  0.41363568  1
  O  O78  1  0.00688026  0.19208688  0.91150602  1
  O  O79  1  0.51111152  0.19291143  0.91166423  1
  O  O80  1  0.08488339  0.97972419  0.91277916  1
  O  O81  1  0.58875754  0.98797423  0.91159811  1
  O  O82  1  0.40528819  0.82461706  0.91082917  1
  O  O83  1  0.90581058  0.82295909  0.91231026  1
  O  O84  1  0.49492268  0.17636717  0.58708782  1
  O  O85  1  0.99153762  0.17842207  0.59090358  1
  O  O86  1  0.09676221  0.01670529  0.58905089  1
  O  O87  1  0.59770463  0.02274842  0.58728856  1
  O  O88  1  0.41193711  0.80946285  0.58867031  1
  O  O89  1  0.91049076  0.80663970  0.58965817  1
  O  O90  1  0.49195697  0.80558022  0.08973206  1
  O  O91  1  0.99177083  0.80506711  0.08875838  1
  O  O92  1  0.41082020  0.01705534  0.08906228  1
  O  O93  1  0.91043477  0.01312555  0.09060998  1
  O  O94  1  0.09736168  0.17761841  0.08944832  1
  O  O95  1  0.59772569  0.17753155  0.08897782  1
  O  O96  1  0.33800846  0.15535473  0.74359341  1
  O  O97  1  0.84310929  0.15914432  0.74574097  1
  O  O98  1  0.23881143  0.32142746  0.74538838  1
  O  O99  1  0.73867339  0.31659456  0.74667711  1
  O  O100  1  0.41922520  0.52494338  0.74483064  1
  O  O101  1  0.92050985  0.52547606  0.74607813  1
  O  O102  1  0.34139350  0.52414307  0.24473597  1
  O  O103  1  0.84176147  0.52467453  0.24479878  1
  O  O104  1  0.42113406  0.31739256  0.24543077  1
  O  O105  1  0.92093421  0.31779536  0.24521694  1
  O  O106  1  0.23768324  0.15914498  0.24614583  1
  O  O107  1  0.73751307  0.16021716  0.24606717  1
  O  O108  1  0.32569265  0.50693349  0.91987767  1
  O  O109  1  0.82371901  0.50753351  0.92139782  1
  O  O110  1  0.42910086  0.34724403  0.92282084  1
  O  O111  1  0.93021448  0.35727689  0.92108012  1
  O  O112  1  0.24444532  0.14261849  0.92330126  1
  O  O113  1  0.74590413  0.14687214  0.91986937  1
  O  O114  1  0.32247941  0.14073281  0.42188383  1
  O  O115  1  0.82176791  0.13815370  0.42142672  1
  O  O116  1  0.24511676  0.34462429  0.42103807  1
  O  O117  1  0.74557576  0.34469903  0.42062774  1
  O  O118  1  0.42840767  0.50985211  0.42085002  1
  O  O119  1  0.92976417  0.50952315  0.42163113  1
  O  O120  1  0.17555738  0.49321744  0.07851982  1
  O  O121  1  0.67501243  0.49314832  0.07856318  1
  O  O122  1  0.07136250  0.64931439  0.07815994  1
  O  O123  1  0.57127451  0.64910164  0.07894069  1
  O  O124  1  0.25305295  0.85864239  0.07820850  1
  O  O125  1  0.75290784  0.85625908  0.07932968  1
  O  O126  1  0.17372714  0.85625162  0.57889339  1
  O  O127  1  0.67439903  0.85693415  0.57715894  1
  O  O128  1  0.25270635  0.64888134  0.58104741  1
  O  O129  1  0.75254813  0.64205613  0.57801374  1
  O  O130  1  0.07046806  0.49384196  0.57934967  1
  O  O131  1  0.57416670  0.49061944  0.57747927  1
  O  O132  1  0.15598481  0.83863336  0.25307168  1
  O  O133  1  0.65617520  0.83972292  0.25280901  1
  O  O134  1  0.26362094  0.68795386  0.25303242  1
  O  O135  1  0.76370791  0.68799976  0.25317160  1
  O  O136  1  0.08064105  0.47288478  0.25258517  1
  O  O137  1  0.58122947  0.47302341  0.25251507  1
  O  O138  1  0.15776990  0.47504914  0.75312929  1
  O  O139  1  0.65972790  0.47731145  0.75357965  1
  O  O140  1  0.08046885  0.68843362  0.75317081  1
  O  O141  1  0.57883457  0.68155551  0.75535207  1
  O  O142  1  0.26190558  0.83667578  0.75512433  1
  O  O143  1  0.76390509  0.83949887  0.75300989  1
loop_
_geom_bond_atom_site_label_1
_geom_bond_atom_site_label_2
_geom_bond_distance
_geom_bond_site_symmetry_2
Na0 O100 2.416837 1_555
Na0 O142 2.422099 1_555
Na0 O98 2.428573 1_555
Na0 O138 2.479752 1_555
Na0 O28 2.612698 1_555
Na0 O70 2.638942 1_555
Na0 O12 2.789863 1_555
Na0 O8 2.799881 1_555
Na1 O84 2.361743 1_555
Na1 O87 2.382995 1_555
Na1 O131 2.384739 1_555
Na1 O129 2.421309 1_555
Na1 O57 2.660303 1_555
Na1 O15 2.678065 1_555
Na1 O29 2.853575 1_555
Na1 O43 2.896227 1_555
Na2 O111 2.390096 1_555
Na2 O83 2.412268 1_555
Na2 O80 2.417139 1_655
Na2 O109 2.468716 1_555
Na2 O9 2.622331 1_555
Na2 O39 2.643546 1_556
Na2 O52 2.792129 1_655
Na2 O66 2.827271 1_655
Na3 O79 2.407899 1_555
Na3 O113 2.414125 1_555
Na3 O81 2.415070 1_545
Na3 O109 2.429566 1_555
Na3 O7 2.667951 1_555
Na3 O37 2.696929 1_556
Na3 O71 2.821106 1_555
Na3 O51 2.835279 1_555
Na4 O114 2.397352 1_555
Na4 O116 2.404672 1_555
Na4 O72 2.405014 1_545
Na4 O76 2.410364 1_555
Na4 O0 2.632116 1_555
Na4 O42 2.639085 1_555
Na4 O62 2.802674 1_545
Na4 O58 2.830599 1_545
Na5 O77 2.399861 1_555
Na5 O117 2.399968 1_555
Na5 O115 2.413980 1_555
Na5 O73 2.421528 1_545
Na5 O1 2.630134 1_555
Na5 O43 2.673459 1_555
Na5 O59 2.793472 1_545
Na5 O63 2.847528 1_545
Na6 O75 2.344760 1_545
Na6 O76 2.444968 1_655
Na6 O72 2.498196 1_645
Na6 O89 2.718564 1_545
Na6 O85 2.718582 1_555
Na6 O86 2.824530 1_655
Na7 O88 2.392266 1_555
Na7 O74 2.447723 1_555
Na7 O84 2.543316 1_565
Na7 O73 2.620203 1_555
Na7 O87 2.713967 1_565
Na7 O77 2.726703 1_565
Na8 O78 2.356677 1_555
Na8 O80 2.467434 1_545
Na8 O83 2.531580 1_445
Na8 O94 2.640026 1_556
Na8 O93 2.705685 1_456
Na8 O91 2.815054 1_446
Na9 O82 2.298105 1_555
Na9 O79 2.484977 1_565
Na9 O81 2.507113 1_555
Na9 O92 2.690244 1_566
Na9 O90 2.711274 1_556
Na9 O95 2.871036 1_566
Na10 O110 2.454671 1_555
Na10 O112 2.533688 1_555
Na10 O96 2.551788 1_555
Na10 O108 2.573560 1_555
Na10 O100 2.639331 1_555
Na10 O98 2.699857 1_555
Na11 O97 2.373967 1_555
Na11 O99 2.463127 1_555
Na11 O113 2.534312 1_555
Na11 O101 2.548227 1_555
Na11 O111 2.628337 1_555
Na11 O109 2.752874 1_555
Na12 O118 2.466286 1_555
Na12 O104 2.506956 1_555
Na12 O102 2.512447 1_555
Na12 O116 2.611324 1_555
Na12 O114 2.627161 1_555
Na12 O106 2.631715 1_555
Na13 O119 2.487521 1_555
Na13 O105 2.497811 1_555
Na13 O103 2.501980 1_555
Na13 O117 2.609855 1_555
Na13 O107 2.633120 1_555
Na13 O115 2.642457 1_555
Na14 O134 2.520271 1_555
Na14 O136 2.529218 1_555
Na14 O132 2.534780 1_555
Na14 O120 2.555834 1_555
Na14 O124 2.557495 1_555
Na14 O122 2.574223 1_555
Na15 O137 2.509443 1_555
Na15 O133 2.524479 1_555
Na15 O135 2.540816 1_555
Na15 O123 2.544182 1_555
Na15 O125 2.545040 1_555
Na15 O121 2.562135 1_555
Na16 O126 2.437261 1_555
Na16 O130 2.487640 1_555
Na16 O128 2.498515 1_555
Na16 O140 2.551664 1_555
Na16 O142 2.613993 1_555
Na16 O138 2.643725 1_555
Na17 O141 2.420578 1_555
Na17 O143 2.493787 1_555
Na17 O127 2.558516 1_555
Na17 O139 2.573302 1_555
Na17 O131 2.623043 1_555
Na17 O129 2.738513 1_555
O0 S0 1.479230 1_555
O0 Zn0 2.126948 1_445
O1 S1 1.477665 1_555
O1 Zn1 2.148882 1_545
O2 S2 1.467888 1_555
O2 Zn1 2.051578 1_555
O3 S3 1.468952 1_555
O3 Zn0 2.041832 1_555
O4 S5 1.466991 1_555
O4 Zn1 2.039181 1_545
O5 S4 1.468146 1_555
O5 Zn0 2.043750 1_545
O6 S6 1.465049 1_555
O6 Zn2 2.033949 1_555
O7 S7 1.490094 1_555
O7 Zn3 2.085802 1_545
O8 S9 1.485071 1_555
O8 Zn3 2.047102 1_555
O9 S8 1.483044 1_555
O9 Zn2 2.119942 1_665
O10 S10 1.480210 1_555
O10 Zn3 2.046439 1_545
O11 S11 1.471770 1_555
O11 Zn2 2.036753 1_655
O12 S10 1.484876 1_565
O12 Zn4 2.060432 1_555
O13 S11 1.522835 1_565
O13 Zr0 2.076841 1_665
O14 S6 1.517109 1_555
O14 Zr0 2.070392 1_555
O15 S7 1.489609 1_555
O15 Zn4 2.100685 1_545
O16 S8 1.524928 1_455
O16 Zr0 2.076578 1_565
O17 S9 1.479663 1_555
O17 Zn4 2.041177 1_555
O18 S2 1.527401 1_555
O18 Zr2 2.070774 1_555
O19 S3 1.523033 1_555
O19 Zr1 2.077124 1_665
O20 S4 1.525425 1_455
O20 Zr1 2.074381 1_555
O21 S5 1.524555 1_555
O21 Zr2 2.075496 1_545
O22 S0 1.527266 1_565
O22 Zr1 2.065413 1_565
O23 S1 1.523792 1_565
O23 Zr2 2.081049 1_555
O24 S12 1.472359 1_555
O24 Zn5 2.016811 1_555
O25 S13 1.466594 1_555
O25 Zn6 2.076867 1_555
O26 S14 1.465385 1_555
O26 Zn5 2.049846 1_555
O27 S15 1.476668 1_555
O27 Zn6 2.037963 1_555
O28 S16 1.495660 1_555
O28 Zn5 2.091983 1_555
O29 S17 1.471235 1_555
O29 Zn6 2.074153 1_555
O30 S18 1.468466 1_555
O30 Zn7 2.055899 1_555
O31 S19 1.465873 1_555
O31 Zn8 2.061487 1_555
O32 S20 1.469731 1_555
O32 Zn7 2.052575 1_555
O33 S21 1.467396 1_555
O33 Zn8 2.058252 1_555
O34 S22 1.468410 1_555
O34 Zn7 2.057068 1_555
O35 S23 1.466308 1_555
O35 Zn8 2.056594 1_555
O36 S22 1.462701 1_555
O36 Zn9 2.068768 1_554
O37 S23 1.483411 1_555
O37 Zn10 2.089556 1_554
O38 S18 1.463600 1_555
O38 Zn9 2.064427 1_554
O39 S19 1.484068 1_555
O39 Zn10 2.104427 1_554
O40 S20 1.462090 1_555
O40 Zn9 2.083286 1_554
O41 S21 1.472566 1_555
O41 Zn10 2.015959 1_554
O42 S14 1.475764 1_555
O42 Zn11 2.147069 1_555
O43 S15 1.502026 1_555
O43 Zn12 2.117381 1_555
O44 S16 1.477869 1_555
O44 Zn11 2.022504 1_555
O45 S17 1.467187 1_555
O45 Zn12 2.062449 1_555
O46 S12 1.472543 1_555
O46 Zn11 2.042679 1_555
O47 S13 1.469838 1_555
O47 Zn12 2.036238 1_555
O48 S24 1.477900 1_555
O48 Zn13 2.035323 1_556
O49 S25 1.472375 1_555
O49 Zn14 2.080704 1_556
O50 S26 1.475040 1_555
O50 Zn13 2.078764 1_556
O51 S27 1.489810 1_555
O51 Zn14 2.052304 1_556
O52 S28 1.485470 1_555
O52 Zn13 2.073917 1_556
O53 S29 1.474656 1_555
O53 Zn14 2.041326 1_556
O54 S30 1.480398 1_555
O54 Zn15 2.052916 1_555
O55 S31 1.481805 1_555
O55 Zn16 2.045271 1_555
O56 S32 1.472712 1_555
O56 Zn15 2.032461 1_555
O57 S33 1.487543 1_555
O57 Zn16 2.095777 1_555
O58 S34 1.482877 1_555
O58 Zn15 2.094997 1_555
O59 S35 1.489043 1_555
O59 Zn16 2.037652 1_555
O60 S34 1.480626 1_555
O60 Zn17 2.063358 1_555
O61 S35 1.477868 1_555
O61 Zn18 2.075357 1_555
O62 S30 1.489260 1_555
O62 Zn17 2.073892 1_555
O63 S31 1.483794 1_555
O63 Zn18 2.070882 1_555
O64 S32 1.474555 1_555
O64 Zn17 2.045296 1_555
O65 S33 1.469936 1_555
O65 Zn18 2.042327 1_555
O66 S26 1.485903 1_555
O66 Zn19 2.061012 1_555
O67 S27 1.478051 1_555
O67 Zn20 2.050182 1_555
O68 S28 1.480981 1_555
O68 Zn19 2.031728 1_555
O69 S29 1.471184 1_555
O69 Zn20 2.072605 1_555
O70 S24 1.498689 1_555
O70 Zn19 2.070571 1_555
O71 S25 1.477182 1_555
O71 Zn20 2.084846 1_555
O72 S34 1.509063 1_555
O72 Zn0 2.190111 1_455
O73 S35 1.504325 1_555
O73 Zn1 2.139961 1_555
O74 S30 1.481856 1_555
O74 Zn1 2.088716 1_555
O75 S31 1.481379 1_555
O75 Zn0 2.108839 1_555
O76 S32 1.509375 1_555
O76 Zn0 2.166120 1_445
O77 S33 1.499556 1_555
O77 Zn1 2.188444 1_545
O78 S26 1.482047 1_555
O78 Zn2 2.115103 1_555
O79 S27 1.507779 1_555
O79 Zn3 2.175531 1_545
O80 S28 1.513366 1_555
O80 Zn2 2.163885 1_565
O81 S29 1.498216 1_555
O81 Zn3 2.209294 1_555
O82 S24 1.491899 1_555
O82 Zn3 2.129851 1_555
O83 S25 1.491891 1_555
O83 Zn2 2.185345 1_665
O84 S12 1.503240 1_555
O84 Zn4 2.188274 1_545
O85 S13 1.538972 1_555
O85 Zr0 2.091232 1_655
O86 S14 1.539882 1_555
O86 Zr0 2.100464 1_555
O87 S15 1.498462 1_555
O87 Zn4 2.197766 1_545
O88 S16 1.491639 1_555
O88 Zn4 2.120615 1_555
O89 S17 1.517991 1_555
O89 Zr0 2.117931 1_665
O90 S18 1.539029 1_555
O90 Zr2 2.102878 1_555
O91 S19 1.531840 1_555
O91 Zr1 2.120420 1_665
O92 S20 1.540008 1_555
O92 Zr2 2.109487 1_545
O93 S21 1.532006 1_555
O93 Zr1 2.102721 1_655
O94 S22 1.541987 1_555
O94 Zr1 2.103899 1_555
O95 S23 1.528738 1_555
O95 Zr2 2.116202 1_545
O96 S10 1.478345 1_555
O96 Zn5 2.119081 1_555
O97 S11 1.476022 1_555
O97 Zn6 2.130644 1_555
O98 S6 1.477294 1_555
O98 Zn5 2.259921 1_555
O99 S7 1.498215 1_555
O99 Zn6 2.115126 1_555
O100 S9 1.507101 1_555
O100 Zn5 2.151386 1_555
O101 S8 1.470977 1_555
O101 Zn6 2.184637 1_555
O102 S2 1.474608 1_555
O102 Zn7 2.140187 1_555
O103 S3 1.476521 1_555
O103 Zn8 2.137526 1_555
O104 S5 1.474131 1_555
O104 Zn7 2.152743 1_555
O105 S4 1.477654 1_555
O105 Zn8 2.138928 1_555
O106 S0 1.472388 1_555
O106 Zn7 2.155173 1_555
O107 S1 1.477671 1_555
O107 Zn8 2.144817 1_555
O108 S24 1.486537 1_555
O108 Zn9 2.126436 1_555
O109 S25 1.517584 1_555
O109 Zn10 2.241426 1_555
O110 S27 1.476869 1_555
O110 Zn9 2.134486 1_555
O111 S26 1.511109 1_655
O111 Zn10 2.152519 1_555
O112 S28 1.473672 1_545
O112 Zn9 2.128031 1_555
O113 S29 1.516855 1_545
O113 Zn10 2.135364 1_555
O114 S30 1.502936 1_545
O114 Zn11 2.199720 1_555
O115 S31 1.504329 1_545
O115 Zn12 2.156323 1_555
O116 S32 1.500722 1_555
O116 Zn11 2.193212 1_555
O117 S33 1.504390 1_555
O117 Zn12 2.189328 1_555
O118 S35 1.480986 1_555
O118 Zn11 2.108200 1_555
O119 S34 1.483882 1_655
O119 Zn12 2.091982 1_555
O120 S22 1.475506 1_555
O120 Zn13 2.140788 1_555
O121 S23 1.471164 1_555
O121 Zn14 2.189062 1_555
O122 S19 1.470614 1_455
O122 Zn13 2.191882 1_555
O123 S18 1.476327 1_555
O123 Zn14 2.141213 1_555
O124 S20 1.477560 1_565
O124 Zn13 2.129887 1_555
O125 S21 1.471372 1_565
O125 Zn14 2.159313 1_555
O126 S14 1.471301 1_565
O126 Zn15 2.209834 1_555
O127 S15 1.479936 1_565
O127 Zn16 2.130234 1_555
O128 S16 1.491749 1_555
O128 Zn15 2.129147 1_555
O129 S17 1.482211 1_555
O129 Zn16 2.214215 1_555
O130 S13 1.471085 1_455
O130 Zn15 2.172431 1_555
O131 S12 1.506631 1_555
O131 Zn16 2.138625 1_555
O132 S0 1.473278 1_565
O132 Zn17 2.212002 1_555
O133 S1 1.475611 1_565
O133 Zn18 2.212660 1_555
O134 S2 1.476348 1_555
O134 Zn17 2.176583 1_555
O135 S3 1.475910 1_555
O135 Zn18 2.165172 1_555
O136 S4 1.474216 1_455
O136 Zn17 2.172331 1_555
O137 S5 1.479059 1_555
O137 Zn18 2.153423 1_555
O138 S6 1.483184 1_555
O138 Zn19 2.243187 1_555
O139 S7 1.487059 1_555
O139 Zn20 2.155133 1_555
O140 S8 1.473453 1_455
O140 Zn19 2.201404 1_555
O141 S9 1.478951 1_555
O141 Zn20 2.114235 1_555
O142 S10 1.511043 1_565
O142 Zn19 2.128556 1_555
O143 S11 1.470464 1_565
O143 Zn20 2.197004 1_555
