# generated using pymatgen
data_KNa22C2S9ClO42
_symmetry_space_group_name_H-M   'P 1'
_cell_length_a   10.61324047
_cell_length_b   10.61324047
_cell_length_c   21.49502200
_cell_angle_alpha   90.00000000
_cell_angle_beta   90.00000000
_cell_angle_gamma   120.00000293
_symmetry_Int_Tables_number   1
_chemical_formula_structural   KNa22C2S9ClO42
_chemical_formula_sum   'K2 Na44 C4 S18 Cl2 O84'
_cell_volume   2096.83627693
_cell_formula_units_Z   2
loop_
 _symmetry_equiv_pos_site_id
 _symmetry_equiv_pos_as_xyz
  1  'x, y, z'
loop_
 _atom_site_type_symbol
 _atom_site_label
 _atom_site_symmetry_multiplicity
 _atom_site_fract_x
 _atom_site_fract_y
 _atom_site_fract_z
 _atom_site_occupancy
  K  K0  1  0.00000000  0.00000000  0.00000000  1
  K  K1  1  0.00000000  0.00000000  0.50000000  1
  Na  Na0  1  0.50000000  0.00000000  0.00000000  1
  Na  Na1  1  0.50000000  0.50000000  0.50000000  1
  Na  Na2  1  0.00000000  0.50000000  0.50000000  1
  Na  Na3  1  0.00000000  0.50000000  0.00000000  1
  Na  Na4  1  0.50000000  0.50000000  0.00000000  1
  Na  Na5  1  0.50000000  0.00000000  0.50000000  1
  Na  Na6  1  0.66666700  0.33333300  0.37518700  1
  Na  Na7  1  0.33333300  0.66666700  0.87518700  1
  Na  Na8  1  0.33333300  0.66666700  0.62481300  1
  Na  Na9  1  0.66666700  0.33333300  0.12481300  1
  Na  Na10  1  0.00000000  0.00000000  0.32637500  1
  Na  Na11  1  0.00000000  0.00000000  0.82637500  1
  Na  Na12  1  0.00000000  0.00000000  0.67362500  1
  Na  Na13  1  0.00000000  0.00000000  0.17362500  1
  Na  Na14  1  0.34916400  0.14792400  0.25000000  1
  Na  Na15  1  0.20124100  0.34916400  0.75000000  1
  Na  Na16  1  0.14792400  0.79875900  0.75000000  1
  Na  Na17  1  0.85207600  0.20124100  0.25000000  1
  Na  Na18  1  0.79875900  0.65083600  0.25000000  1
  Na  Na19  1  0.65083600  0.85207600  0.75000000  1
  Na  Na20  1  0.17849100  0.36112300  0.42586500  1
  Na  Na21  1  0.81736800  0.17849100  0.92586500  1
  Na  Na22  1  0.36112300  0.18263200  0.92586500  1
  Na  Na23  1  0.63887700  0.81736800  0.42586500  1
  Na  Na24  1  0.18263200  0.82150900  0.42586500  1
  Na  Na25  1  0.82150900  0.63887700  0.92586500  1
  Na  Na26  1  0.82150900  0.63887700  0.57413500  1
  Na  Na27  1  0.18263200  0.82150900  0.07413500  1
  Na  Na28  1  0.63887700  0.81736800  0.07413500  1
  Na  Na29  1  0.36112300  0.18263200  0.57413500  1
  Na  Na30  1  0.81736800  0.17849100  0.57413500  1
  Na  Na31  1  0.17849100  0.36112300  0.07413500  1
  Na  Na32  1  0.52208900  0.05411500  0.66092500  1
  Na  Na33  1  0.46797400  0.52208900  0.16092500  1
  Na  Na34  1  0.05411500  0.53202600  0.16092500  1
  Na  Na35  1  0.94588500  0.46797400  0.66092500  1
  Na  Na36  1  0.53202600  0.47791100  0.66092500  1
  Na  Na37  1  0.47791100  0.94588500  0.16092500  1
  Na  Na38  1  0.47791100  0.94588500  0.33907500  1
  Na  Na39  1  0.53202600  0.47791100  0.83907500  1
  Na  Na40  1  0.94588500  0.46797400  0.83907500  1
  Na  Na41  1  0.05411500  0.53202600  0.33907500  1
  Na  Na42  1  0.46797400  0.52208900  0.33907500  1
  Na  Na43  1  0.52208900  0.05411500  0.83907500  1
  C  C0  1  0.66666700  0.33333300  0.56975400  1
  C  C1  1  0.33333300  0.66666700  0.06975400  1
  C  C2  1  0.33333300  0.66666700  0.43024600  1
  C  C3  1  0.66666700  0.33333300  0.93024600  1
  S  S0  1  0.20897100  0.35757700  0.25000000  1
  S  S1  1  0.85139400  0.20897100  0.75000000  1
  S  S2  1  0.35757700  0.14860600  0.75000000  1
  S  S3  1  0.64242300  0.85139400  0.25000000  1
  S  S4  1  0.14860600  0.79102900  0.25000000  1
  S  S5  1  0.79102900  0.64242300  0.75000000  1
  S  S6  1  0.33965100  0.16859500  0.40887200  1
  S  S7  1  0.17105600  0.33965100  0.90887200  1
  S  S8  1  0.16859500  0.82894400  0.90887200  1
  S  S9  1  0.83140500  0.17105600  0.40887200  1
  S  S10  1  0.82894400  0.66034900  0.40887200  1
  S  S11  1  0.66034900  0.83140500  0.90887200  1
  S  S12  1  0.66034900  0.83140500  0.59112800  1
  S  S13  1  0.82894400  0.66034900  0.09112800  1
  S  S14  1  0.83140500  0.17105600  0.09112800  1
  S  S15  1  0.16859500  0.82894400  0.59112800  1
  S  S16  1  0.17105600  0.33965100  0.59112800  1
  S  S17  1  0.33965100  0.16859500  0.09112800  1
  Cl  Cl0  1  0.66666700  0.33333300  0.25000000  1
  Cl  Cl1  1  0.33333300  0.66666700  0.75000000  1
  O  O0  1  0.59565100  0.40387600  0.56995300  1
  O  O1  1  0.19177500  0.59565100  0.06995300  1
  O  O2  1  0.40387600  0.80822500  0.06995300  1
  O  O3  1  0.59612400  0.19177500  0.56995300  1
  O  O4  1  0.80822500  0.40434900  0.56995300  1
  O  O5  1  0.40434900  0.59612400  0.06995300  1
  O  O6  1  0.40434900  0.59612400  0.43004700  1
  O  O7  1  0.80822500  0.40434900  0.93004700  1
  O  O8  1  0.59612400  0.19177500  0.93004700  1
  O  O9  1  0.40387600  0.80822500  0.43004700  1
  O  O10  1  0.19177500  0.59565100  0.43004700  1
  O  O11  1  0.59565100  0.40387600  0.93004700  1
  O  O12  1  0.35574800  0.36722600  0.25000000  1
  O  O13  1  0.98852200  0.35574800  0.75000000  1
  O  O14  1  0.36722600  0.01147800  0.75000000  1
  O  O15  1  0.63277400  0.98852200  0.25000000  1
  O  O16  1  0.01147800  0.64425200  0.25000000  1
  O  O17  1  0.64425200  0.63277400  0.75000000  1
  O  O18  1  0.09073400  0.20105000  0.25000000  1
  O  O19  1  0.88968400  0.09073400  0.75000000  1
  O  O20  1  0.20105000  0.11031600  0.75000000  1
  O  O21  1  0.79895000  0.88968400  0.25000000  1
  O  O22  1  0.11031600  0.90926600  0.25000000  1
  O  O23  1  0.90926600  0.79895000  0.75000000  1
  O  O24  1  0.19889600  0.43124800  0.30712900  1
  O  O25  1  0.76764800  0.19889600  0.80712900  1
  O  O26  1  0.43124800  0.23235200  0.80712900  1
  O  O27  1  0.56875200  0.76764800  0.30712900  1
  O  O28  1  0.23235200  0.80110400  0.30712900  1
  O  O29  1  0.80110400  0.56875200  0.80712900  1
  O  O30  1  0.80110400  0.56875200  0.69287100  1
  O  O31  1  0.23235200  0.80110400  0.19287100  1
  O  O32  1  0.56875200  0.76764800  0.19287100  1
  O  O33  1  0.43124800  0.23235200  0.69287100  1
  O  O34  1  0.76764800  0.19889600  0.69287100  1
  O  O35  1  0.19889600  0.43124800  0.19287100  1
  O  O36  1  0.38987300  0.11362200  0.35595000  1
  O  O37  1  0.27625200  0.38987300  0.85595000  1
  O  O38  1  0.11362200  0.72374800  0.85595000  1
  O  O39  1  0.88637800  0.27625200  0.35595000  1
  O  O40  1  0.72374800  0.61012700  0.35595000  1
  O  O41  1  0.61012700  0.88637800  0.85595000  1
  O  O42  1  0.61012700  0.88637800  0.64405000  1
  O  O43  1  0.72374800  0.61012700  0.14405000  1
  O  O44  1  0.88637800  0.27625200  0.14405000  1
  O  O45  1  0.11362200  0.72374800  0.64405000  1
  O  O46  1  0.27625200  0.38987300  0.64405000  1
  O  O47  1  0.38987300  0.11362200  0.14405000  1
  O  O48  1  0.19610000  0.15557400  0.39431500  1
  O  O49  1  0.04052500  0.19610000  0.89431500  1
  O  O50  1  0.15557400  0.95947500  0.89431500  1
  O  O51  1  0.84442600  0.04052500  0.39431500  1
  O  O52  1  0.95947500  0.80390000  0.39431500  1
  O  O53  1  0.80390000  0.84442600  0.89431500  1
  O  O54  1  0.80390000  0.84442600  0.60568500  1
  O  O55  1  0.95947500  0.80390000  0.10568500  1
  O  O56  1  0.84442600  0.04052500  0.10568500  1
  O  O57  1  0.15557400  0.95947500  0.60568500  1
  O  O58  1  0.04052500  0.19610000  0.60568500  1
  O  O59  1  0.19610000  0.15557400  0.10568500  1
  O  O60  1  0.45027500  0.32524200  0.41940900  1
  O  O61  1  0.12503400  0.45027500  0.91940900  1
  O  O62  1  0.32524200  0.87496600  0.91940900  1
  O  O63  1  0.67475800  0.12503400  0.41940900  1
  O  O64  1  0.87496600  0.54972500  0.41940900  1
  O  O65  1  0.54972500  0.67475800  0.91940900  1
  O  O66  1  0.54972500  0.67475800  0.58059100  1
  O  O67  1  0.87496600  0.54972500  0.08059100  1
  O  O68  1  0.67475800  0.12503400  0.08059100  1
  O  O69  1  0.32524200  0.87496600  0.58059100  1
  O  O70  1  0.12503400  0.45027500  0.58059100  1
  O  O71  1  0.45027500  0.32524200  0.08059100  1
  O  O72  1  0.32359700  0.07973400  0.46566300  1
  O  O73  1  0.24386300  0.32359700  0.96566300  1
  O  O74  1  0.07973400  0.75613700  0.96566300  1
  O  O75  1  0.92026600  0.24386300  0.46566300  1
  O  O76  1  0.75613700  0.67640300  0.46566300  1
  O  O77  1  0.67640300  0.92026600  0.96566300  1
  O  O78  1  0.67640300  0.92026600  0.53433700  1
  O  O79  1  0.75613700  0.67640300  0.03433700  1
  O  O80  1  0.92026600  0.24386300  0.03433700  1
  O  O81  1  0.07973400  0.75613700  0.53433700  1
  O  O82  1  0.24386300  0.32359700  0.53433700  1
  O  O83  1  0.32359700  0.07973400  0.03433700  1
loop_
_geom_bond_atom_site_label_1
_geom_bond_atom_site_label_2
_geom_bond_distance
_geom_bond_site_symmetry_2
K0 O56 2.963453 1_455
K0 O50 2.963453 1_544
K0 O59 2.963457 1_555
K0 O53 2.963457 1_444
K0 O55 2.963459 1_445
K0 O49 2.963459 1_554
K0 O73 3.185865 1_554
K0 O79 3.185865 1_445
K0 O77 3.185865 1_444
K0 O83 3.185865 1_555
K0 O80 3.185865 1_455
K0 O74 3.185865 1_544
K1 O51 2.963453 1_455
K1 O57 2.963453 1_545
K1 O48 2.963457 1_555
K1 O54 2.963457 1_445
K1 O52 2.963459 1_445
K1 O58 2.963459 1_555
K1 O82 3.185865 1_555
K1 O76 3.185865 1_445
K1 O78 3.185865 1_445
K1 O72 3.185865 1_555
K1 O75 3.185865 1_455
K1 O81 3.185865 1_545
Na0 O2 2.316882 1_545
Na0 O8 2.316882 1_554
Na0 O62 2.395968 1_544
Na0 O68 2.395968 1_555
Na0 O77 2.519992 1_544
Na0 O83 2.519992 1_555
Na1 O6 2.316882 1_555
Na1 O0 2.316882 1_555
Na1 O66 2.395967 1_555
Na1 O60 2.395967 1_555
Na1 O76 2.519992 1_555
Na1 O82 2.519992 1_555
Na2 O10 2.316882 1_555
Na2 O4 2.316882 1_455
Na2 O70 2.395974 1_555
Na2 O64 2.395974 1_455
Na2 O81 2.519992 1_555
Na2 O75 2.519992 1_455
Na3 O1 2.316882 1_555
Na3 O7 2.316882 1_454
Na3 O67 2.395974 1_455
Na3 O61 2.395974 1_554
Na3 O74 2.519992 1_554
Na3 O80 2.519992 1_455
Na4 O5 2.316882 1_555
Na4 O11 2.316882 1_554
Na4 O65 2.395967 1_554
Na4 O71 2.395967 1_555
Na4 O79 2.519992 1_555
Na4 O73 2.519992 1_554
Na5 O9 2.316882 1_545
Na5 O3 2.316882 1_555
Na5 O69 2.395968 1_545
Na5 O63 2.395968 1_555
Na5 O78 2.519992 1_545
Na5 O72 2.519992 1_555
Na6 O63 2.447055 1_555
Na6 O64 2.447065 1_555
Na6 O60 2.447075 1_555
Na6 O39 2.718118 1_555
Na6 O36 2.718131 1_555
Na6 O40 2.718138 1_555
Na7 O62 2.447055 1_555
Na7 O61 2.447065 1_555
Na7 O65 2.447075 1_555
Na7 O38 2.718118 1_555
Na7 O41 2.718131 1_555
Na7 O37 2.718138 1_555
Na8 O69 2.447055 1_555
Na8 O70 2.447065 1_555
Na8 O66 2.447075 1_555
Na8 O45 2.718118 1_555
Na8 O42 2.718131 1_555
Na8 O46 2.718138 1_555
Na9 O68 2.447055 1_555
Na9 O67 2.447065 1_555
Na9 O71 2.447075 1_555
Na9 O44 2.718118 1_555
Na9 O47 2.718131 1_555
Na9 O43 2.718138 1_555
Na10 O51 2.398773 1_455
Na10 O48 2.398778 1_555
Na10 O52 2.398781 1_445
Na10 O21 2.474009 1_445
Na10 O18 2.474009 1_555
Na10 O22 2.474009 1_545
Na11 O50 2.398773 1_545
Na11 O53 2.398778 1_445
Na11 O49 2.398781 1_555
Na11 O20 2.474009 1_555
Na11 O23 2.474009 1_445
Na11 O19 2.474009 1_455
Na12 O57 2.398773 1_545
Na12 O54 2.398778 1_445
Na12 O58 2.398781 1_555
Na12 O20 2.474009 1_555
Na12 O23 2.474009 1_445
Na12 O19 2.474009 1_455
Na13 O56 2.398773 1_455
Na13 O59 2.398778 1_555
Na13 O55 2.398781 1_445
Na13 O21 2.474009 1_445
Na13 O18 2.474009 1_555
Na13 O22 2.474009 1_545
Na14 O12 2.293365 1_555
Na14 O36 2.379714 1_555
Na14 O47 2.379714 1_555
Na14 O22 2.533943 1_545
Na15 O13 2.293375 1_455
Na15 O46 2.379714 1_555
Na15 O37 2.379714 1_555
Na15 O20 2.533938 1_555
Na16 O14 2.293370 1_565
Na16 O38 2.379714 1_555
Na16 O45 2.379714 1_555
Na16 O23 2.533949 1_455
Na17 O15 2.293370 1_545
Na17 O39 2.379714 1_555
Na17 O44 2.379714 1_555
Na17 O18 2.533949 1_655
Na18 O16 2.293375 1_655
Na18 O40 2.379714 1_555
Na18 O43 2.379714 1_555
Na18 O21 2.533938 1_555
Na19 O17 2.293365 1_555
Na19 O41 2.379714 1_555
Na19 O42 2.379714 1_555
Na19 O19 2.533943 1_565
Na20 O48 2.379425 1_555
Na20 O10 2.423357 1_555
Na20 O6 2.448698 1_555
Na20 O82 2.520459 1_555
Na20 O75 2.526028 1_455
Na20 O24 2.636954 1_555
Na21 O49 2.379415 1_655
Na21 O8 2.423357 1_555
Na21 O7 2.448698 1_555
Na21 O80 2.520459 1_556
Na21 O77 2.526028 1_545
Na21 O25 2.636954 1_555
Na22 O50 2.379420 1_545
Na22 O11 2.423357 1_555
Na22 O8 2.448698 1_555
Na22 O83 2.520459 1_556
Na22 O73 2.526028 1_555
Na22 O26 2.636954 1_555
Na23 O51 2.379420 1_565
Na23 O6 2.423357 1_555
Na23 O9 2.448698 1_555
Na23 O78 2.520459 1_555
Na23 O76 2.526028 1_555
Na23 O27 2.636954 1_555
Na24 O52 2.379415 1_455
Na24 O9 2.423357 1_555
Na24 O10 2.448698 1_555
Na24 O81 2.520459 1_555
Na24 O72 2.526028 1_565
Na24 O28 2.636954 1_555
Na25 O53 2.379425 1_555
Na25 O7 2.423357 1_555
Na25 O11 2.448698 1_555
Na25 O79 2.520459 1_556
Na25 O74 2.526028 1_655
Na25 O29 2.636954 1_555
Na26 O54 2.379425 1_555
Na26 O4 2.423357 1_555
Na26 O0 2.448698 1_555
Na26 O76 2.520459 1_555
Na26 O81 2.526028 1_655
Na26 O30 2.636954 1_555
Na27 O55 2.379415 1_455
Na27 O2 2.423357 1_555
Na27 O1 2.448698 1_555
Na27 O74 2.520459 1_554
Na27 O83 2.526028 1_565
Na27 O31 2.636954 1_555
Na28 O56 2.379420 1_565
Na28 O5 2.423357 1_555
Na28 O2 2.448698 1_555
Na28 O77 2.520459 1_554
Na28 O79 2.526028 1_555
Na28 O32 2.636954 1_555
Na29 O57 2.379420 1_545
Na29 O0 2.423357 1_555
Na29 O3 2.448698 1_555
Na29 O72 2.520459 1_555
Na29 O82 2.526028 1_555
Na29 O33 2.636954 1_555
Na30 O58 2.379415 1_655
Na30 O3 2.423357 1_555
Na30 O4 2.448698 1_555
Na30 O75 2.520459 1_555
Na30 O78 2.526028 1_545
Na30 O34 2.636954 1_555
Na31 O59 2.379425 1_555
Na31 O1 2.423357 1_555
Na31 O5 2.448698 1_555
Na31 O73 2.520459 1_554
Na31 O80 2.526028 1_455
Na31 O35 2.636954 1_555
Na32 O3 2.329753 1_555
Na32 O34 2.370690 1_555
Na32 O14 2.414206 1_555
Na32 O42 2.416038 1_545
Na32 O33 2.608308 1_555
Na32 O69 2.643734 1_545
Na33 O5 2.329753 1_555
Na33 O32 2.370690 1_555
Na33 O12 2.414206 1_555
Na33 O43 2.416028 1_555
Na33 O35 2.608308 1_555
Na33 O71 2.643730 1_555
Na34 O1 2.329753 1_555
Na34 O35 2.370690 1_555
Na34 O16 2.414206 1_555
Na34 O44 2.416030 1_455
Na34 O31 2.608308 1_555
Na34 O67 2.643738 1_455
Na35 O4 2.329753 1_555
Na35 O30 2.370690 1_555
Na35 O13 2.414206 1_555
Na35 O45 2.416030 1_655
Na35 O34 2.608308 1_555
Na35 O70 2.643738 1_655
Na36 O0 2.329753 1_555
Na36 O33 2.370690 1_555
Na36 O17 2.414206 1_555
Na36 O46 2.416028 1_555
Na36 O30 2.608308 1_555
Na36 O66 2.643730 1_555
Na37 O2 2.329753 1_555
Na37 O31 2.370690 1_555
Na37 O15 2.414206 1_555
Na37 O47 2.416038 1_565
Na37 O32 2.608308 1_555
Na37 O68 2.643734 1_565
Na38 O9 2.329753 1_555
Na38 O28 2.370690 1_555
Na38 O15 2.414206 1_555
Na38 O36 2.416038 1_565
Na38 O27 2.608308 1_555
Na38 O63 2.643734 1_565
Na39 O11 2.329753 1_555
Na39 O26 2.370690 1_555
Na39 O17 2.414206 1_555
Na39 O37 2.416028 1_555
Na39 O29 2.608308 1_555
Na39 O65 2.643730 1_555
Na40 O7 2.329753 1_555
Na40 O29 2.370690 1_555
Na40 O13 2.414206 1_555
Na40 O38 2.416030 1_655
Na40 O25 2.608308 1_555
Na40 O61 2.643738 1_655
Na41 O10 2.329753 1_555
Na41 O24 2.370690 1_555
Na41 O16 2.414206 1_555
Na41 O39 2.416030 1_455
Na41 O28 2.608308 1_555
Na41 O64 2.643738 1_455
Na42 O6 2.329753 1_555
Na42 O27 2.370690 1_555
Na42 O12 2.414206 1_555
Na42 O40 2.416028 1_555
Na42 O24 2.608308 1_555
Na42 O60 2.643730 1_555
Na43 O8 2.329753 1_555
Na43 O25 2.370690 1_555
Na43 O14 2.414206 1_555
Na43 O41 2.416038 1_545
Na43 O26 2.608308 1_555
Na43 O62 2.643734 1_545
C0 O3 1.301117 1_555
C0 O4 1.301117 1_555
C0 O0 1.301126 1_555
C1 O2 1.301117 1_555
C1 O1 1.301117 1_555
C1 O5 1.301126 1_555
C2 O9 1.301117 1_555
C2 O10 1.301117 1_555
C2 O6 1.301126 1_555
C3 O8 1.301117 1_555
C3 O7 1.301117 1_555
C3 O11 1.301126 1_555
Cl0 Na9 2.690897 1_555
Cl0 Na6 2.690897 1_555
Cl0 Na17 2.931942 1_555
Cl0 Na14 2.931959 1_555
Cl0 Na18 2.931961 1_555
Cl1 Na7 2.690897 1_555
Cl1 Na8 2.690897 1_555
Cl1 Na16 2.931942 1_555
Cl1 Na19 2.931959 1_555
Cl1 Na15 2.931961 1_555
O12 S0 1.509184 1_555
O13 S1 1.509184 1_555
O14 S2 1.509184 1_555
O15 S3 1.509184 1_555
O16 S4 1.509184 1_555
O17 S5 1.509184 1_555
O18 S0 1.499941 1_555
O19 S1 1.499941 1_555
O20 S2 1.499941 1_555
O21 S3 1.499941 1_555
O22 S4 1.499941 1_555
O23 S5 1.499941 1_555
O24 S0 1.488068 1_555
O25 S1 1.488068 1_555
O26 S2 1.488068 1_555
O27 S3 1.488068 1_555
O28 S4 1.488068 1_555
O29 S5 1.488068 1_555
O30 S5 1.488068 1_555
O31 S4 1.488068 1_555
O32 S3 1.488068 1_555
O33 S2 1.488068 1_555
O34 S1 1.488068 1_555
O35 S0 1.488068 1_555
O36 S6 1.493164 1_555
O37 S7 1.493170 1_555
O38 S8 1.493170 1_555
O39 S9 1.493170 1_555
O40 S10 1.493170 1_555
O41 S11 1.493164 1_555
O42 S12 1.493164 1_555
O43 S13 1.493170 1_555
O44 S14 1.493170 1_555
O45 S15 1.493170 1_555
O46 S16 1.493170 1_555
O47 S17 1.493164 1_555
O48 S6 1.492528 1_555
O49 S7 1.492532 1_555
O50 S8 1.492538 1_555
O51 S9 1.492538 1_555
O52 S10 1.492532 1_555
O53 S11 1.492528 1_555
O54 S12 1.492528 1_555
O55 S13 1.492532 1_555
O56 S14 1.492538 1_555
O57 S15 1.492538 1_555
O58 S16 1.492532 1_555
O59 S17 1.492528 1_555
O60 S6 1.497274 1_555
O61 S7 1.497267 1_555
O62 S8 1.497277 1_555
O63 S9 1.497277 1_555
O64 S10 1.497267 1_555
O65 S11 1.497274 1_555
O66 S12 1.497274 1_555
O67 S13 1.497267 1_555
O68 S14 1.497277 1_555
O69 S15 1.497277 1_555
O70 S16 1.497267 1_555
O71 S17 1.497274 1_555
O72 S6 1.499317 1_555
O73 S7 1.499317 1_555
O74 S8 1.499317 1_555
O75 S9 1.499317 1_555
O76 S10 1.499317 1_555
O77 S11 1.499317 1_555
O78 S12 1.499317 1_555
O79 S13 1.499317 1_555
O80 S14 1.499317 1_555
O81 S15 1.499317 1_555
O82 S16 1.499317 1_555
O83 S17 1.499317 1_555
