# generated using pymatgen
data_MgV3CoSn2(PO4)6
_symmetry_space_group_name_H-M   'P 1'
_cell_length_a   9.22353964
_cell_length_b   8.51218503
_cell_length_c   8.55627095
_cell_angle_alpha   59.58656645
_cell_angle_beta   62.99052934
_cell_angle_gamma   63.50322783
_symmetry_Int_Tables_number   1
_chemical_formula_structural   MgV3CoSn2(PO4)6
_chemical_formula_sum   'Mg1 V3 Co1 Sn2 P6 O24'
_cell_volume   495.28285131
_cell_formula_units_Z   1
loop_
 _symmetry_equiv_pos_site_id
 _symmetry_equiv_pos_as_xyz
  1  'x, y, z'
loop_
 _atom_site_type_symbol
 _atom_site_label
 _atom_site_symmetry_multiplicity
 _atom_site_fract_x
 _atom_site_fract_y
 _atom_site_fract_z
 _atom_site_occupancy
  Mg  Mg0  1  0.32776000  0.84454700  0.61444900  1
  V  V0  1  0.05398900  0.64350600  0.64736500  1
  V  V1  1  0.45450400  0.85523500  0.85865600  1
  V  V2  1  0.95745800  0.36089400  0.33403100  1
  Co  Co0  1  0.52583300  0.16663600  0.16734100  1
  Sn  Sn0  1  0.92706800  0.01299500  0.02723100  1
  Sn  Sn1  1  0.55436600  0.42746600  0.48051800  1
  P  P0  1  0.25322400  0.26167100  0.53351300  1
  P  P1  1  0.24138500  0.96607500  0.25835900  1
  P  P2  1  0.24956700  0.53972600  0.95891300  1
  P  P3  1  0.75939100  0.46068100  0.03004700  1
  P  P4  1  0.76179500  0.03026800  0.74392600  1
  P  P5  1  0.73967100  0.74269600  0.46744800  1
  O  O0  1  0.08650400  0.13882500  0.25338200  1
  O  O1  1  0.07294300  0.54257400  0.10674100  1
  O  O2  1  0.10259700  0.28925200  0.48237700  1
  O  O3  1  0.28589600  0.05507800  0.68779700  1
  O  O4  1  0.41872800  0.28344700  0.36682100  1
  O  O5  1  0.20932800  0.40403000  0.62079800  1
  O  O6  1  0.32186700  0.94546400  0.06805500  1
  O  O7  1  0.18308800  0.78139700  0.41318400  1
  O  O8  1  0.60797900  0.63371600  0.00846600  1
  O  O9  1  0.22838300  0.62030300  0.75360400  1
  O  O10  1  0.73819400  0.29480100  0.01989500  1
  O  O11  1  0.60531100  0.01932500  0.73069600  1
  O  O12  1  0.37028500  0.96550800  0.33090400  1
  O  O13  1  0.30388400  0.70141700  0.93374900  1
  O  O14  1  0.77586600  0.39241200  0.23101800  1
  O  O15  1  0.38290700  0.34881500  0.99240600  1
  O  O16  1  0.78493800  0.22712100  0.58370100  1
  O  O17  1  0.72676500  0.03045300  0.93979700  1
  O  O18  1  0.75869900  0.59009300  0.40585400  1
  O  O19  1  0.56820800  0.76347600  0.62643700  1
  O  O20  1  0.72696700  0.94005000  0.29583500  1
  O  O21  1  0.89213400  0.68859900  0.52978000  1
  O  O22  1  0.93011300  0.49948300  0.88481900  1
  O  O23  1  0.92669300  0.87571900  0.70583900  1
loop_
_geom_bond_atom_site_label_1
_geom_bond_atom_site_label_2
_geom_bond_distance
_geom_bond_site_symmetry_2
Mg0 O3 2.013867 1_565
Mg0 O12 2.016633 1_555
Mg0 O9 2.042112 1_555
Mg0 O19 2.043189 1_555
Mg0 O13 2.306441 1_555
Co0 O15 2.000260 1_554
Co0 O4 2.046483 1_555
Co0 O20 2.209810 1_545
Co0 O10 2.210697 1_555
Co0 O12 2.211377 1_545
Co0 O17 2.379040 1_554
O0 P1 1.523920 1_545
O0 V2 2.008272 1_455
O1 P2 1.542286 1_554
O1 V2 1.962557 1_455
O2 P0 1.527683 1_555
O2 V2 1.950967 1_455
O3 P0 1.569723 1_555
O3 V1 2.153141 1_545
O4 P0 1.551182 1_555
O5 P0 1.547249 1_555
O5 V0 1.956297 1_555
O6 P1 1.519322 1_555
O6 V1 1.964852 1_554
O7 P1 1.585577 1_555
O7 V0 1.873311 1_555
O8 P3 1.509081 1_555
O8 V1 2.005402 1_554
O9 P2 1.602125 1_555
O9 V0 2.077372 1_555
O10 P3 1.557386 1_555
O10 Sn0 2.238536 1_555
O11 P4 1.543940 1_555
O11 V1 1.971425 1_545
O12 P1 1.568745 1_555
O13 P2 1.552076 1_555
O13 V1 2.004433 1_555
O14 P3 1.569870 1_555
O14 V2 2.086795 1_555
O14 Sn1 2.227083 1_555
O15 P2 1.516839 1_555
O16 P4 1.568543 1_555
O16 V2 2.111555 1_555
O16 Sn1 2.270539 1_555
O17 P4 1.556765 1_555
O17 Sn0 2.211976 1_556
O18 P5 1.549709 1_555
O18 V2 2.131675 1_555
O18 Sn1 2.493079 1_555
O19 P5 1.556578 1_555
O19 V1 2.146052 1_555
O20 P5 1.573238 1_555
O20 Sn0 2.190650 1_565
O21 P5 1.526027 1_555
O21 V0 1.962174 1_655
O22 P3 1.550501 1_556
O22 V0 1.885703 1_655
O23 P4 1.532528 1_565
O23 V0 1.983146 1_655
