# generated using pymatgen
data_Na2Sc2Ga2SiS5O24
_symmetry_space_group_name_H-M   'P 1'
_cell_length_a   8.69031892
_cell_length_b   8.68201336
_cell_length_c   22.77100416
_cell_angle_alpha   89.44393884
_cell_angle_beta   90.48021172
_cell_angle_gamma   119.72616069
_symmetry_Int_Tables_number   1
_chemical_formula_structural   Na2Sc2Ga2SiS5O24
_chemical_formula_sum   'Na6 Sc6 Ga6 Si3 S15 O72'
_cell_volume   1491.88944790
_cell_formula_units_Z   3
loop_
 _symmetry_equiv_pos_site_id
 _symmetry_equiv_pos_as_xyz
  1  'x, y, z'
loop_
 _atom_site_type_symbol
 _atom_site_label
 _atom_site_symmetry_multiplicity
 _atom_site_fract_x
 _atom_site_fract_y
 _atom_site_fract_z
 _atom_site_occupancy
  Na  Na0  1  0.98951726  0.98765155  0.50401857  1
  Na  Na1  1  0.99956063  0.99985520  0.99897810  1
  Na  Na2  1  0.67052161  0.32076321  0.82879080  1
  Na  Na3  1  0.65214577  0.32009581  0.33103060  1
  Na  Na4  1  0.33011769  0.67662536  0.17147771  1
  Na  Na5  1  0.36178185  0.67743646  0.66593014  1
  Sc  Sc0  1  0.01495009  0.00333175  0.34832795  1
  Sc  Sc1  1  0.97718155  0.98699357  0.64651011  1
  Sc  Sc2  1  0.66443879  0.33163530  0.68635395  1
  Sc  Sc3  1  0.66681035  0.34400927  0.48162762  1
  Sc  Sc4  1  0.34448168  0.66876599  0.52246106  1
  Sc  Sc5  1  0.34528545  0.67446251  0.81330630  1
  Ga  Ga0  1  0.99563701  0.00311352  0.84273456  1
  Ga  Ga1  1  0.00583804  0.99410980  0.15595092  1
  Ga  Ga2  1  0.65658279  0.32485106  0.18576549  1
  Ga  Ga3  1  0.66787905  0.33179939  0.98438843  1
  Ga  Ga4  1  0.33219403  0.66558661  0.01592854  1
  Ga  Ga5  1  0.33284077  0.68178066  0.31415895  1
  Si  Si0  1  0.30019262  0.99878639  0.24693152  1
  Si  Si1  1  0.70945850  0.00685635  0.75368862  1
  Si  Si2  1  0.66942841  0.62805026  0.58404482  1
  S  S0  1  0.70569251  0.70459784  0.24674914  1
  S  S1  1  0.00041179  0.29519393  0.24621538  1
  S  S2  1  0.28888104  0.28605953  0.75312173  1
  S  S3  1  0.99896142  0.70932601  0.75384061  1
  S  S4  1  0.96098004  0.33566158  0.58231609  1
  S  S5  1  0.37176608  0.04160063  0.58280995  1
  S  S6  1  0.95454893  0.62104791  0.08291198  1
  S  S7  1  0.66801108  0.03932390  0.08289503  1
  S  S8  1  0.37522162  0.33637693  0.08152794  1
  S  S9  1  0.63009706  0.66290432  0.92195833  1
  S  S10  1  0.03668164  0.37144950  0.92153461  1
  S  S11  1  0.33278643  0.96453673  0.92043945  1
  S  S12  1  0.62638416  0.95949700  0.41338816  1
  S  S13  1  0.33233388  0.38354467  0.41176508  1
  S  S14  1  0.04172295  0.66180117  0.41402902  1
  O  O0  1  0.21013560  0.03225297  0.30407223  1
  O  O1  1  0.81479608  0.78830779  0.29910694  1
  O  O2  1  0.96346038  0.18197627  0.29881533  1
  O  O3  1  0.21395682  0.17874196  0.80907753  1
  O  O4  1  0.98144199  0.79365927  0.80922243  1
  O  O5  1  0.81960874  0.03239277  0.81581848  1
  O  O6  1  0.79936030  0.97701146  0.69662351  1
  O  O7  1  0.18516977  0.19956578  0.70104732  1
  O  O8  1  0.03041369  0.81928407  0.70152234  1
  O  O9  1  0.77992612  0.82027334  0.19291538  1
  O  O10  1  0.02377980  0.21016363  0.19245166  1
  O  O11  1  0.17704594  0.96036779  0.18774355  1
  O  O12  1  0.87441529  0.34890950  0.63550571  1
  O  O13  1  0.48085089  0.11761699  0.63582881  1
  O  O14  1  0.64679780  0.51345346  0.64269827  1
  O  O15  1  0.87238230  0.50869874  0.13554734  1
  O  O16  1  0.63671081  0.12081633  0.13478371  1
  O  O17  1  0.48730567  0.36838114  0.13441753  1
  O  O18  1  0.45688731  0.30585662  0.02859302  1
  O  O19  1  0.84634113  0.53901567  0.02887571  1
  O  O20  1  0.69829371  0.15005833  0.02878163  1
  O  O21  1  0.46013189  0.14268170  0.52877790  1
  O  O22  1  0.68436572  0.53301839  0.52416258  1
  O  O23  1  0.85225715  0.30751060  0.52870531  1
  O  O24  1  0.54492314  0.69209448  0.97479300  1
  O  O25  1  0.14694938  0.45784129  0.97564093  1
  O  O26  1  0.30341239  0.85215126  0.97469144  1
  O  O27  1  0.54114103  0.85468937  0.46650523  1
  O  O28  1  0.31690053  0.46744053  0.46518437  1
  O  O29  1  0.14527104  0.68224937  0.46704560  1
  O  O30  1  0.12725862  0.64301415  0.36010477  1
  O  O31  1  0.51980325  0.87451506  0.35934383  1
  O  O32  1  0.35182420  0.49133235  0.35780785  1
  O  O33  1  0.11600821  0.48060418  0.86911292  1
  O  O34  1  0.36333625  0.88374059  0.86877464  1
  O  O35  1  0.52093516  0.63470715  0.86923684  1
  O  O36  1  0.01950184  0.82085406  0.40922951  1
  O  O37  1  0.80287193  0.97459335  0.40861045  1
  O  O38  1  0.16855077  0.20750820  0.40836291  1
  O  O39  1  0.02125523  0.19480965  0.91803442  1
  O  O40  1  0.17428455  0.98498560  0.91353518  1
  O  O41  1  0.80925916  0.81742227  0.91706828  1
  O  O42  1  0.99479993  0.18542219  0.58588583  1
  O  O43  1  0.20077733  0.03525710  0.58729546  1
  O  O44  1  0.84576154  0.82198355  0.58355098  1
  O  O45  1  0.96852983  0.79848920  0.08771254  1
  O  O46  1  0.82845420  0.02039029  0.09032300  1
  O  O47  1  0.19578760  0.17946508  0.08764764  1
  O  O48  1  0.68622293  0.17927156  0.74941507  1
  O  O49  1  0.46937729  0.31344545  0.75069911  1
  O  O50  1  0.83688426  0.53670801  0.75014232  1
  O  O51  1  0.70216452  0.53282612  0.23858765  1
  O  O52  1  0.84557383  0.32285740  0.23827184  1
  O  O53  1  0.49535702  0.17749168  0.23997812  1
  O  O54  1  0.64109586  0.49622845  0.92932274  1
  O  O55  1  0.85607302  0.35411030  0.92851087  1
  O  O56  1  0.49565820  0.14260599  0.92849901  1
  O  O57  1  0.64264002  0.13677238  0.41650407  1
  O  O58  1  0.48912901  0.35888661  0.41403787  1
  O  O59  1  0.86474001  0.50001077  0.41587211  1
  O  O60  1  0.36029896  0.50106538  0.07400688  1
  O  O61  1  0.13539361  0.64032028  0.07650212  1
  O  O62  1  0.50572474  0.86054098  0.07514141  1
  O  O63  1  0.34368735  0.85917018  0.57781926  1
  O  O64  1  0.49251665  0.64884910  0.58009742  1
  O  O65  1  0.13217130  0.50245878  0.57725179  1
  O  O66  1  0.31974905  0.82138923  0.25529089  1
  O  O67  1  0.52420023  0.67403116  0.25365328  1
  O  O68  1  0.16383173  0.46766489  0.25321877  1
  O  O69  1  0.29517936  0.45896482  0.75972986  1
  O  O70  1  0.15393367  0.68321990  0.76053380  1
  O  O71  1  0.51364083  0.82605405  0.75841463  1
loop_
_geom_bond_atom_site_label_1
_geom_bond_atom_site_label_2
_geom_bond_distance
_geom_bond_site_symmetry_2
Na0 O44 2.261575 1_555
Na0 O43 2.518274 1_665
Na0 O42 2.531427 1_565
Na0 O37 2.669650 1_555
Na0 O36 2.695959 1_655
Na0 O38 2.799921 1_665
Na1 O39 2.434442 1_665
Na1 O41 2.475982 1_555
Na1 O40 2.521202 1_655
Na1 O45 2.585514 1_556
Na1 O47 2.604349 1_666
Na1 O46 2.625124 1_566
Na2 O48 2.237868 1_555
Na2 O49 2.462034 1_555
Na2 O50 2.470363 1_555
Na2 O55 2.707135 1_555
Na2 O56 2.741414 1_555
Na2 O54 2.844371 1_555
Na3 O53 2.453101 1_555
Na3 O57 2.477982 1_555
Na3 O58 2.494687 1_555
Na3 O59 2.592753 1_555
Na3 O51 2.678601 1_555
Na3 O52 2.702992 1_555
Na4 O66 2.322054 1_555
Na4 O68 2.494738 1_555
Na4 O67 2.516083 1_555
Na4 O61 2.657647 1_555
Na4 O62 2.694868 1_555
Na4 O60 2.791080 1_555
Na5 O64 2.344937 1_555
Na5 O71 2.481741 1_555
Na5 O63 2.592118 1_555
Na5 O69 2.710761 1_555
Na5 O65 2.711603 1_555
Na5 O70 2.839552 1_555
Ga0 O5 1.774059 1_555
Ga0 O3 1.909122 1_655
Ga0 O4 1.925441 1_545
Ga0 O40 2.286847 1_645
Ga0 O39 2.332608 1_655
Ga0 O41 2.343283 1_545
Ga1 O11 1.798250 1_555
Ga1 O9 1.976167 1_455
Ga1 O10 1.992922 1_565
Ga1 O45 2.213770 1_455
Ga1 O46 2.228273 1_465
Ga1 O47 2.256922 1_565
Ga2 O53 1.828793 1_555
Ga2 O52 2.030305 1_555
Ga2 O17 2.046450 1_555
Ga2 O51 2.046671 1_555
Ga2 O16 2.061231 1_555
Ga2 O15 2.098647 1_555
Ga3 O19 1.977398 1_556
Ga3 O54 1.988541 1_555
Ga3 O20 1.989873 1_556
Ga3 O18 2.010708 1_556
Ga3 O55 2.011758 1_555
Ga3 O56 2.031835 1_555
Ga4 O25 1.952991 1_554
Ga4 O26 1.983994 1_554
Ga4 O24 1.987689 1_554
Ga4 O60 2.037846 1_555
Ga4 O62 2.106168 1_555
Ga4 O61 2.130081 1_555
Ga5 O66 1.838927 1_555
Ga5 O31 1.951330 1_555
Ga5 O30 1.956503 1_555
Ga5 O32 1.996236 1_555
Ga5 O67 2.195322 1_555
Ga5 O68 2.201536 1_555
O0 Si0 1.624758 1_545
O0 Sc0 1.886038 1_555
O1 S0 1.470751 1_555
O1 Sc0 2.134127 1_665
O2 S1 1.474619 1_655
O2 Sc0 2.126691 1_655
O3 S2 1.518161 1_555
O4 S3 1.510409 1_555
O5 Si1 1.655273 1_555
O6 Si1 1.609460 1_565
O6 Sc1 1.895400 1_555
O7 S2 1.452750 1_555
O7 Sc1 2.216756 1_445
O8 S3 1.459445 1_455
O8 Sc1 2.127486 1_455
O9 S0 1.508089 1_555
O10 S1 1.501803 1_555
O11 Si0 1.644256 1_555
O12 S4 1.466251 1_555
O12 Sc2 2.110343 1_555
O13 S5 1.472282 1_555
O13 Sc2 2.095821 1_555
O14 Si2 1.611505 1_555
O14 Sc2 1.926266 1_555
O15 S6 1.482830 1_555
O16 S7 1.477538 1_555
O17 S8 1.481504 1_555
O18 S8 1.494613 1_555
O19 S6 1.496323 1_555
O20 S7 1.497809 1_555
O21 S5 1.483311 1_555
O21 Sc3 2.077606 1_555
O22 Si2 1.639498 1_555
O22 Sc3 1.853187 1_555
O23 S4 1.483300 1_555
O23 Sc3 2.077917 1_555
O24 S9 1.505466 1_555
O25 S10 1.511345 1_555
O26 S11 1.509384 1_555
O27 S12 1.471357 1_555
O27 Sc4 2.100156 1_555
O28 S13 1.464583 1_555
O28 Sc4 2.106473 1_555
O29 S14 1.458159 1_555
O29 Sc4 2.182790 1_555
O30 S14 1.492091 1_555
O31 S12 1.495842 1_555
O32 S13 1.496002 1_555
O33 S10 1.463622 1_555
O33 Sc5 2.256735 1_555
O34 S11 1.467156 1_555
O34 Sc5 2.163295 1_555
O35 S9 1.468817 1_555
O35 Sc5 2.133685 1_555
O36 S14 1.489056 1_555
O36 Sc0 2.110274 1_565
O37 S12 1.478013 1_555
O37 Sc0 2.218786 1_665
O38 S13 1.486895 1_555
O38 Sc0 2.112538 1_555
O39 S10 1.474627 1_555
O40 S11 1.480507 1_555
O41 S9 1.471348 1_555
O42 S4 1.473813 1_555
O42 Sc1 2.143095 1_545
O43 S5 1.463823 1_555
O43 Sc1 2.234927 1_445
O44 Si2 1.620023 1_555
O44 Sc1 1.949845 1_555
O45 S6 1.489101 1_555
O46 S7 1.490810 1_555
O47 S8 1.483277 1_555
O48 Si1 1.608598 1_555
O48 Sc2 2.013609 1_555
O49 S2 1.466739 1_555
O49 Sc2 2.194753 1_555
O50 S3 1.464263 1_555
O50 Sc2 2.212074 1_555
O51 S0 1.489788 1_555
O52 S1 1.488823 1_655
O53 Si0 1.642847 1_545
O54 S9 1.504492 1_555
O55 S10 1.510222 1_655
O56 S11 1.502747 1_545
O57 S12 1.476539 1_545
O57 Sc3 2.269849 1_555
O58 S13 1.480905 1_555
O58 Sc3 2.218972 1_555
O59 S14 1.482507 1_655
O59 Sc3 2.174505 1_555
O60 S8 1.506425 1_555
O61 S6 1.503931 1_455
O62 S7 1.503225 1_565
O63 S5 1.483520 1_565
O63 Sc4 2.091336 1_555
O64 Si2 1.636164 1_555
O64 Sc4 1.896129 1_555
O65 S4 1.478769 1_455
O65 Sc4 2.099349 1_555
O66 Si0 1.640297 1_555
O67 S0 1.473444 1_555
O68 S1 1.475270 1_555
O69 S2 1.483880 1_555
O69 Sc5 2.099028 1_555
O70 S3 1.478839 1_455
O70 Sc5 2.074898 1_555
O71 Si1 1.649900 1_565
O71 Sc5 1.877282 1_555
