# generated using pymatgen
data_BaGePt
_symmetry_space_group_name_H-M   'P 1'
_cell_length_a   6.80507174
_cell_length_b   6.80507174
_cell_length_c   6.80507174
_cell_angle_alpha   90.00000000
_cell_angle_beta   90.00000000
_cell_angle_gamma   90.00000000
_symmetry_Int_Tables_number   1
_chemical_formula_structural   BaGePt
_chemical_formula_sum   'Ba4 Ge4 Pt4'
_cell_volume   315.13607664
_cell_formula_units_Z   4
loop_
 _symmetry_equiv_pos_site_id
 _symmetry_equiv_pos_as_xyz
  1  'x, y, z'
loop_
 _atom_site_type_symbol
 _atom_site_label
 _atom_site_symmetry_multiplicity
 _atom_site_fract_x
 _atom_site_fract_y
 _atom_site_fract_z
 _atom_site_occupancy
  Ba  Ba0  1  0.13629190  0.13629190  0.13629190  1
  Ba  Ba1  1  0.63629190  0.36370810  0.86370810  1
  Ba  Ba2  1  0.36370810  0.86370810  0.63629190  1
  Ba  Ba3  1  0.86370810  0.63629190  0.36370810  1
  Ge  Ge0  1  0.34352229  0.65647771  0.15647771  1
  Ge  Ge1  1  0.15647771  0.34352229  0.65647771  1
  Ge  Ge2  1  0.65647771  0.15647771  0.34352229  1
  Ge  Ge3  1  0.84352229  0.84352229  0.84352229  1
  Pt  Pt0  1  0.40942898  0.40942898  0.40942898  1
  Pt  Pt1  1  0.09057102  0.59057102  0.90942898  1
  Pt  Pt2  1  0.90942898  0.09057102  0.59057102  1
  Pt  Pt3  1  0.59057102  0.90942898  0.09057102  1
loop_
_geom_bond_atom_site_label_1
_geom_bond_atom_site_label_2
_geom_bond_distance
_geom_bond_site_symmetry_2
Ba0 Pt0 3.219393 1_555
Ba0 Ge3 3.450796 1_444
Ba0 Pt2 3.469430 1_455
Ba0 Pt3 3.469430 1_545
Ba0 Pt1 3.469430 1_554
Ba0 Ge0 3.559342 1_545
Ba0 Ge2 3.559342 1_455
Ba0 Ge1 3.559342 1_554
Ba1 Pt2 3.219393 1_555
Ba1 Ge0 3.450796 1_556
Ba1 Pt0 3.469430 1_555
Ba1 Pt1 3.469430 1_655
Ba1 Pt3 3.469430 1_546
Ba1 Ge3 3.559342 1_555
Ba1 Ge1 3.559342 1_555
Ba1 Ge2 3.559342 1_556
Ba2 Pt1 3.219393 1_555
Ba2 Ge2 3.450796 1_565
Ba2 Pt0 3.469430 1_555
Ba2 Pt3 3.469430 1_556
Ba2 Pt2 3.469430 1_465
Ba2 Ge3 3.559342 1_555
Ba2 Ge0 3.559342 1_555
Ba2 Ge1 3.559342 1_565
Ba3 Pt3 3.219393 1_555
Ba3 Ge1 3.450796 1_655
Ba3 Pt1 3.469430 1_654
Ba3 Pt0 3.469430 1_555
Ba3 Pt2 3.469430 1_565
Ba3 Ge2 3.559342 1_555
Ba3 Ge3 3.559342 1_555
Ba3 Ge0 3.559342 1_655
Ge0 Pt3 2.447567 1_555
Ge0 Pt0 2.447567 1_555
Ge0 Pt1 2.447567 1_554
Ge1 Pt0 2.447567 1_555
Ge1 Pt2 2.447567 1_455
Ge1 Pt1 2.447567 1_555
Ge2 Pt3 2.447567 1_545
Ge2 Pt0 2.447567 1_555
Ge2 Pt2 2.447567 1_555
Ge3 Pt1 2.447567 1_655
Ge3 Pt3 2.447567 1_556
Ge3 Pt2 2.447567 1_565
