# generated using pymatgen
data_K2CrO4
_symmetry_space_group_name_H-M   'P 1'
_cell_length_a   7.62405462
_cell_length_b   5.90921142
_cell_length_c   11.67485538
_cell_angle_alpha   62.00988264
_cell_angle_beta   90.00000000
_cell_angle_gamma   90.00000000
_symmetry_Int_Tables_number   1
_chemical_formula_structural   K2CrO4
_chemical_formula_sum   'K8 Cr4 O16'
_cell_volume   464.45301401
_cell_formula_units_Z   4
loop_
 _symmetry_equiv_pos_site_id
 _symmetry_equiv_pos_as_xyz
  1  'x, y, z'
loop_
 _atom_site_type_symbol
 _atom_site_label
 _atom_site_symmetry_multiplicity
 _atom_site_fract_x
 _atom_site_fract_y
 _atom_site_fract_z
 _atom_site_occupancy
  K  K0  1  0.33611663  0.81761758  0.91759408  1
  K  K1  1  0.48868354  0.53116832  0.69922631  1
  K  K2  1  0.16388337  0.81761758  0.41759408  1
  K  K3  1  0.98868354  0.46883168  0.80077369  1
  K  K4  1  0.01131646  0.53116832  0.19922631  1
  K  K5  1  0.83611663  0.18238242  0.58240592  1
  K  K6  1  0.51131646  0.46883168  0.30077369  1
  K  K7  1  0.66388337  0.18238242  0.08240592  1
  Cr  Cr0  1  0.77219948  0.83418337  0.92129037  1
  Cr  Cr1  1  0.72780052  0.83418337  0.42129037  1
  Cr  Cr2  1  0.27219948  0.16581663  0.57870963  1
  Cr  Cr3  1  0.22780052  0.16581663  0.07870963  1
  O  O0  1  0.98641370  0.80562090  0.92096524  1
  O  O1  1  0.68123167  0.67186053  0.85413075  1
  O  O2  1  0.80140570  0.71589513  0.57163781  1
  O  O3  1  0.21544727  0.86164521  0.66028365  1
  O  O4  1  0.51358630  0.80562090  0.42096524  1
  O  O5  1  0.81876833  0.67186053  0.35413075  1
  O  O6  1  0.71544727  0.13835479  0.83971635  1
  O  O7  1  0.30140570  0.28410487  0.92836219  1
  O  O8  1  0.69859430  0.71589513  0.07163781  1
  O  O9  1  0.28455273  0.86164521  0.16028365  1
  O  O10  1  0.18123167  0.32813947  0.64586925  1
  O  O11  1  0.48641370  0.19437910  0.57903476  1
  O  O12  1  0.78455273  0.13835479  0.33971635  1
  O  O13  1  0.19859430  0.28410487  0.42836219  1
  O  O14  1  0.31876833  0.32813947  0.14586925  1
  O  O15  1  0.01358630  0.19437910  0.07903476  1
loop_
_geom_bond_atom_site_label_1
_geom_bond_atom_site_label_2
_geom_bond_distance
_geom_bond_site_symmetry_2
K0 O0 2.666896 1_455
K0 O7 2.830160 1_565
K0 O14 2.872411 1_556
K0 O1 2.968656 1_555
K0 O9 2.990337 1_556
K0 O3 3.033950 1_555
K0 O7 3.106921 1_555
K0 O8 3.196592 1_556
K1 O6 2.737448 1_555
K1 O3 2.743458 1_555
K1 O1 2.743741 1_555
K1 O2 2.751116 1_555
K1 O7 2.767765 1_555
K1 O10 2.832561 1_555
K1 O4 2.876574 1_555
K1 O11 2.924265 1_555
K2 O4 2.666896 1_555
K2 O13 2.830160 1_565
K2 O10 2.872411 1_555
K2 O5 2.968656 1_455
K2 O3 2.990337 1_555
K2 O9 3.033950 1_555
K2 O13 3.106921 1_555
K2 O2 3.196592 1_455
K3 O3 2.737448 1_655
K3 O6 2.743458 1_555
K3 O10 2.743741 1_655
K3 O7 2.751116 1_655
K3 O2 2.767765 1_555
K3 O1 2.832561 1_555
K3 O15 2.876574 1_656
K3 O0 2.924265 1_555
K4 O12 2.737448 1_455
K4 O9 2.743458 1_555
K4 O5 2.743741 1_455
K4 O8 2.751116 1_455
K4 O13 2.767765 1_555
K4 O14 2.832561 1_555
K4 O0 2.876574 1_454
K4 O15 2.924265 1_555
K5 O11 2.666896 1_555
K5 O2 2.830160 1_545
K5 O5 2.872411 1_555
K5 O10 2.968656 1_655
K5 O12 2.990337 1_555
K5 O6 3.033950 1_555
K5 O2 3.106921 1_555
K5 O13 3.196592 1_655
K6 O9 2.737448 1_555
K6 O12 2.743458 1_555
K6 O14 2.743741 1_555
K6 O13 2.751116 1_555
K6 O8 2.767765 1_555
K6 O5 2.832561 1_555
K6 O11 2.876574 1_555
K6 O4 2.924265 1_555
K7 O15 2.666896 1_655
K7 O8 2.830160 1_545
K7 O1 2.872411 1_554
K7 O14 2.968656 1_555
K7 O6 2.990337 1_554
K7 O12 3.033950 1_555
K7 O8 3.106921 1_555
K7 O7 3.196592 1_554
Cr0 O0 1.642067 1_555
Cr0 O6 1.648682 1_565
Cr0 O1 1.649784 1_555
Cr0 O8 1.653143 1_556
Cr1 O4 1.642067 1_555
Cr1 O12 1.648682 1_565
Cr1 O5 1.649784 1_555
Cr1 O2 1.653143 1_555
Cr2 O11 1.642067 1_555
Cr2 O3 1.648682 1_545
Cr2 O10 1.649784 1_555
Cr2 O13 1.653143 1_555
Cr3 O15 1.642067 1_555
Cr3 O9 1.648682 1_545
Cr3 O14 1.649784 1_555
Cr3 O7 1.653143 1_554
