# generated using pymatgen
data_NaCu2O3
_symmetry_space_group_name_H-M   'P 1'
_cell_length_a   5.23139754
_cell_length_b   5.23139754
_cell_length_c   5.88128972
_cell_angle_alpha   72.89237638
_cell_angle_beta   72.89237638
_cell_angle_gamma   108.05378153
_symmetry_Int_Tables_number   1
_chemical_formula_structural   NaCu2O3
_chemical_formula_sum   'Na2 Cu4 O6'
_cell_volume   132.45944613
_cell_formula_units_Z   2
loop_
 _symmetry_equiv_pos_site_id
 _symmetry_equiv_pos_as_xyz
  1  'x, y, z'
loop_
 _atom_site_type_symbol
 _atom_site_label
 _atom_site_symmetry_multiplicity
 _atom_site_fract_x
 _atom_site_fract_y
 _atom_site_fract_z
 _atom_site_occupancy
  Na  Na0  1  0.16454859  0.83545141  0.50000000  1
  Na  Na1  1  0.83545141  0.16454859  0.50000000  1
  Cu  Cu0  1  0.66827816  0.33172184  -0.00000000  1
  Cu  Cu1  1  0.33172184  0.66827816  -0.00000000  1
  Cu  Cu2  1  0.00000000  0.00000000  -0.00000000  1
  Cu  Cu3  1  0.50000000  0.50000000  0.50000000  1
  O  O0  1  0.33757036  0.01881352  0.76789615  1
  O  O1  1  0.66242964  0.98118648  0.23210385  1
  O  O2  1  0.01881352  0.33757036  0.76789615  1
  O  O3  1  0.36604959  0.36604959  0.25576080  1
  O  O4  1  0.98118648  0.66242964  0.23210385  1
  O  O5  1  0.63395041  0.63395041  0.74423920  1
loop_
_geom_bond_atom_site_label_1
_geom_bond_atom_site_label_2
_geom_bond_distance
_geom_bond_site_symmetry_2
Na0 O0 2.326355 1_565
Na0 O4 2.326355 1_455
Na0 O1 2.344310 1_555
Na0 O2 2.344310 1_555
Na0 O3 2.414366 1_565
Na0 O5 2.414366 1_455
Na1 O2 2.326355 1_655
Na1 O1 2.326355 1_545
Na1 O0 2.344310 1_555
Na1 O4 2.344310 1_555
Na1 O5 2.414366 1_545
Na1 O3 2.414366 1_655
Cu0 O2 1.922248 1_654
Cu0 O1 1.922248 1_545
Cu0 O5 1.931420 1_554
Cu0 O3 1.931420 1_555
Cu1 O0 1.922248 1_564
Cu1 O4 1.922248 1_455
Cu1 O3 1.931420 1_555
Cu1 O5 1.931420 1_554
Cu2 O1 1.840294 1_445
Cu2 O4 1.840294 1_445
Cu2 O2 1.840294 1_554
Cu2 O0 1.840294 1_554
Cu3 O3 1.981291 1_555
Cu3 O5 1.981291 1_555
Cu3 O1 2.257047 1_555
Cu3 O4 2.257047 1_555
Cu3 O0 2.257047 1_555
Cu3 O2 2.257047 1_555
