# generated using pymatgen
data_ThNi2
_symmetry_space_group_name_H-M   'P 1'
_cell_length_a   4.08537472
_cell_length_b   4.08537454
_cell_length_c   3.75310611
_cell_angle_alpha   90.00000000
_cell_angle_beta   90.00000000
_cell_angle_gamma   120.00000971
_symmetry_Int_Tables_number   1
_chemical_formula_structural   ThNi2
_chemical_formula_sum   'Th1 Ni2'
_cell_volume   54.24818441
_cell_formula_units_Z   1
loop_
 _symmetry_equiv_pos_site_id
 _symmetry_equiv_pos_as_xyz
  1  'x, y, z'
loop_
 _atom_site_type_symbol
 _atom_site_label
 _atom_site_symmetry_multiplicity
 _atom_site_fract_x
 _atom_site_fract_y
 _atom_site_fract_z
 _atom_site_occupancy
  Th  Th0  1  0.00000000  0.00000000  -0.00000000  1
  Ni  Ni0  1  0.33333300  0.66666700  0.50000000  1
  Ni  Ni1  1  0.66666700  0.33333300  0.50000000  1
loop_
_geom_bond_atom_site_label_1
_geom_bond_atom_site_label_2
_geom_bond_distance
_geom_bond_site_symmetry_2
Ni0 Ni1 2.358690 1_565
Ni0 Ni1 2.358690 1_455
Ni0 Ni1 2.358697 1_555
Ni0 Th0 3.014112 1_566
Ni0 Th0 3.014112 1_565
Ni0 Th0 3.014114 1_555
Ni0 Th0 3.014114 1_556
Ni0 Th0 3.014114 1_665
Ni0 Th0 3.014114 1_666
Ni1 Th0 3.014112 1_655
Ni1 Th0 3.014112 1_656
Ni1 Th0 3.014114 1_665
Ni1 Th0 3.014114 1_666
Ni1 Th0 3.014114 1_555
Ni1 Th0 3.014114 1_556
