# generated using pymatgen
data_Na9Ca8Ta4P9(SO8)9
_symmetry_space_group_name_H-M   'P 1'
_cell_length_a   9.13649180
_cell_length_b   9.12113406
_cell_length_c   23.30769105
_cell_angle_alpha   89.83060867
_cell_angle_beta   90.15964444
_cell_angle_gamma   120.02403381
_symmetry_Int_Tables_number   1
_chemical_formula_structural   Na9Ca8Ta4P9(SO8)9
_chemical_formula_sum   'Na9 Ca8 Ta4 P9 S9 O72'
_cell_volume   1681.70792438
_cell_formula_units_Z   1
loop_
 _symmetry_equiv_pos_site_id
 _symmetry_equiv_pos_as_xyz
  1  'x, y, z'
loop_
 _atom_site_type_symbol
 _atom_site_label
 _atom_site_symmetry_multiplicity
 _atom_site_fract_x
 _atom_site_fract_y
 _atom_site_fract_z
 _atom_site_occupancy
  Na  Na0  1  0.65588067  0.95981748  0.58084124  1
  Na  Na1  1  0.29624776  0.95331233  0.07893322  1
  Na  Na2  1  0.03455084  0.34338280  0.08059618  1
  Na  Na3  1  0.02455254  0.00046580  0.49464414  1
  Na  Na4  1  0.97496924  0.97693883  0.99376873  1
  Na  Na5  1  0.66290939  0.33262381  0.83140516  1
  Na  Na6  1  0.67025943  0.33631290  0.33034840  1
  Na  Na7  1  0.35160133  0.67843756  0.16480493  1
  Na  Na8  1  0.31638712  0.66225350  0.66523591  1
  Ca  Ca0  1  0.99886377  0.99950379  0.35239697  1
  Ca  Ca1  1  0.00125434  0.00024642  0.85190862  1
  Ca  Ca2  1  0.02269568  0.00367340  0.64815856  1
  Ca  Ca3  1  0.97881706  0.98205005  0.14874951  1
  Ca  Ca4  1  0.66219695  0.33359827  0.68766636  1
  Ca  Ca5  1  0.67106475  0.33799338  0.18738226  1
  Ca  Ca6  1  0.34161454  0.66994348  0.01459083  1
  Ca  Ca7  1  0.32546316  0.66282100  0.51673150  1
  Ta  Ta0  1  0.67735223  0.33806908  0.97629075  1
  Ta  Ta1  1  0.65809759  0.32842834  0.47566213  1
  Ta  Ta2  1  0.33040930  0.66626015  0.32413384  1
  Ta  Ta3  1  0.33617421  0.66905251  0.82441119  1
  P  P0  1  0.37752438  0.04657757  0.58075752  1
  P  P1  1  0.95688514  0.62610895  0.08001455  1
  P  P2  1  0.66872845  0.04957272  0.08096918  1
  P  P3  1  0.62738072  0.65595809  0.91845783  1
  P  P4  1  0.03462172  0.37383597  0.92017495  1
  P  P5  1  0.34490392  0.97200329  0.92028705  1
  P  P6  1  0.62470654  0.96622958  0.42066237  1
  P  P7  1  0.34067203  0.37544036  0.41908768  1
  P  P8  1  0.02904627  0.65493228  0.41901289  1
  S  S0  1  0.30207883  0.98662146  0.25261261  1
  S  S1  1  0.68050701  0.69628964  0.25510132  1
  S  S2  1  0.01532839  0.31687569  0.25247827  1
  S  S3  1  0.30170463  0.31770044  0.75434643  1
  S  S4  1  0.01435535  0.69735149  0.75442016  1
  S  S5  1  0.68468503  0.98592489  0.75201711  1
  S  S6  1  0.94747224  0.32854962  0.58041474  1
  S  S7  1  0.67181957  0.62471343  0.57926972  1
  S  S8  1  0.37757921  0.32886546  0.08031040  1
  O  O0  1  0.20961106  0.00436202  0.30005550  1
  O  O1  1  0.78922080  0.78230233  0.30362700  1
  O  O2  1  0.99617667  0.20556137  0.30002028  1
  O  O3  1  0.21798565  0.20990780  0.80330736  1
  O  O4  1  0.99195157  0.78178141  0.80330621  1
  O  O5  1  0.79519434  0.00467742  0.79962359  1
  O  O6  1  0.74535936  0.95690753  0.69652765  1
  O  O7  1  0.20597490  0.25173703  0.70034909  1
  O  O8  1  0.04541752  0.79357630  0.70036360  1
  O  O9  1  0.74437676  0.79046287  0.20068992  1
  O  O10  1  0.04249117  0.25513020  0.19690898  1
  O  O11  1  0.21235263  0.95774977  0.19697208  1
  O  O12  1  0.86822876  0.34294793  0.63268896  1
  O  O13  1  0.48044330  0.13599080  0.63337281  1
  O  O14  1  0.66398616  0.53380457  0.63164126  1
  O  O15  1  0.86877447  0.52471495  0.13285863  1
  O  O16  1  0.65042093  0.13495072  0.13376713  1
  O  O17  1  0.47115470  0.34563025  0.13294030  1
  O  O18  1  0.47463100  0.32260841  0.02825483  1
  O  O19  1  0.84145253  0.51970466  0.02496320  1
  O  O20  1  0.67594148  0.16552208  0.02590455  1
  O  O21  1  0.48840537  0.16429377  0.52565646  1
  O  O22  1  0.67857073  0.52588613  0.52709063  1
  O  O23  1  0.84209393  0.32447077  0.52804335  1
  O  O24  1  0.55284028  0.67924064  0.97205217  1
  O  O25  1  0.12339856  0.44248887  0.97630359  1
  O  O26  1  0.32027829  0.87854687  0.97594499  1
  O  O27  1  0.55594889  0.87490880  0.47631942  1
  O  O28  1  0.32030099  0.45150821  0.47251443  1
  O  O29  1  0.12978822  0.68030882  0.47206581  1
  O  O30  1  0.13279950  0.63127015  0.36579017  1
  O  O31  1  0.49375746  0.86082944  0.36915098  1
  O  O32  1  0.36546763  0.50071295  0.36582093  1
  O  O33  1  0.14077233  0.50381706  0.86891167  1
  O  O34  1  0.36724135  0.86206423  0.86897599  1
  O  O35  1  0.50072122  0.63409204  0.86548747  1
  O  O36  1  0.99670624  0.79782100  0.40633734  1
  O  O37  1  0.79999954  0.00180508  0.40714384  1
  O  O38  1  0.20162911  0.19788087  0.40714524  1
  O  O39  1  0.99864216  0.19787071  0.90738563  1
  O  O40  1  0.20132380  0.00171548  0.90672794  1
  O  O41  1  0.80271567  0.79861609  0.90650848  1
  O  O42  1  0.94370837  0.16281138  0.57902883  1
  O  O43  1  0.20607779  0.03713926  0.57635286  1
  O  O44  1  0.82600526  0.79559044  0.57747195  1
  O  O45  1  0.97841401  0.80443897  0.07707598  1
  O  O46  1  0.83957714  0.05344826  0.07834349  1
  O  O47  1  0.21205597  0.16568111  0.08023347  1
  O  O48  1  0.65569065  0.13117870  0.75006230  1
  O  O49  1  0.47680556  0.35018995  0.75038711  1
  O  O50  1  0.87122195  0.52262099  0.74999348  1
  O  O51  1  0.64857943  0.52131690  0.25146032  1
  O  O52  1  0.87108311  0.34705166  0.25106293  1
  O  O53  1  0.47597868  0.13151012  0.25081327  1
  O  O54  1  0.62816851  0.48212307  0.92196160  1
  O  O55  1  0.85750190  0.37158500  0.92185766  1
  O  O56  1  0.51744511  0.14696147  0.92203645  1
  O  O57  1  0.62897183  0.14470266  0.42292964  1
  O  O58  1  0.51563677  0.37277090  0.42298771  1
  O  O59  1  0.85373057  0.48210228  0.42295543  1
  O  O60  1  0.34344918  0.47047987  0.07689789  1
  O  O61  1  0.13167216  0.63877338  0.07659427  1
  O  O62  1  0.51229065  0.87385355  0.07692413  1
  O  O63  1  0.36948959  0.87487501  0.57722517  1
  O  O64  1  0.52164969  0.64536593  0.57650349  1
  O  O65  1  0.11970459  0.47090650  0.57696530  1
  O  O66  1  0.31611698  0.82642642  0.26356744  1
  O  O67  1  0.50854805  0.68549435  0.26465915  1
  O  O68  1  0.17577933  0.48983401  0.26308922  1
  O  O69  1  0.31336170  0.49048386  0.76412629  1
  O  O70  1  0.17497214  0.68442213  0.76454620  1
  O  O71  1  0.51040598  0.82634664  0.76331125  1
loop_
_geom_bond_atom_site_label_1
_geom_bond_atom_site_label_2
_geom_bond_distance
_geom_bond_site_symmetry_2
Na0 O63 2.329041 1_555
Na0 O42 2.339454 1_565
Na0 O64 2.494304 1_555
Na0 O27 2.580589 1_555
Na0 O44 2.645247 1_555
Na0 O6 2.819315 1_555
Na1 O47 2.415848 1_565
Na1 O62 2.419911 1_555
Na1 O61 2.485609 1_555
Na1 O45 2.516330 1_455
Na1 O26 2.537264 1_554
Na1 O11 2.863879 1_555
Na2 O46 2.335718 1_455
Na2 O61 2.379450 1_555
Na2 O60 2.458263 1_555
Na2 O25 2.578498 1_554
Na2 O47 2.808568 1_555
Na2 O10 2.836741 1_555
Na3 O43 2.433190 1_555
Na3 O38 2.664640 1_555
Na3 O44 2.667489 1_445
Na3 O36 2.695628 1_445
Na3 O42 2.779655 1_455
Na3 O37 2.893132 1_455
Na4 O45 2.505576 1_556
Na4 O41 2.588225 1_555
Na4 O46 2.605491 1_566
Na4 O39 2.775539 1_565
Na4 O47 2.825183 1_666
Na4 O40 2.827847 1_665
Na5 O49 2.595305 1_555
Na5 O56 2.615066 1_555
Na5 O54 2.620866 1_555
Na5 O48 2.621743 1_555
Na5 O50 2.631759 1_555
Na5 O55 2.661416 1_555
Na6 O51 2.565471 1_555
Na6 O52 2.574705 1_555
Na6 O53 2.600139 1_555
Na6 O59 2.646367 1_555
Na6 O57 2.678728 1_555
Na6 O58 2.694415 1_555
Na7 O62 2.627622 1_555
Na7 O67 2.714206 1_555
Na7 O61 2.765768 1_555
Na7 O60 2.771681 1_555
Na7 O66 2.772448 1_555
Na7 O68 2.831835 1_555
Na8 O63 2.691623 1_555
Na8 O70 2.710891 1_555
Na8 O65 2.714800 1_555
Na8 O69 2.775550 1_555
Na8 O71 2.819646 1_555
Na8 O64 2.851419 1_555
Ca0 O36 2.217029 1_555
Ca0 O38 2.231658 1_665
Ca0 O37 2.231843 1_565
Ca0 O2 2.248508 1_565
Ca0 O1 2.255995 1_555
Ca0 O0 2.263882 1_665
Ca1 O40 2.221855 1_555
Ca1 O41 2.225480 1_445
Ca1 O39 2.231310 1_455
Ca1 O3 2.252000 1_555
Ca1 O5 2.257038 1_455
Ca1 O4 2.259304 1_445
Ca2 O43 2.280832 1_555
Ca2 O8 2.361962 1_545
Ca2 O7 2.369932 1_555
Ca2 O44 2.476857 1_445
Ca2 O42 2.500363 1_455
Ca2 O6 2.608623 1_445
Ca3 O9 2.315917 1_555
Ca3 O45 2.329201 1_555
Ca3 O46 2.355105 1_565
Ca3 O11 2.514656 1_655
Ca3 O47 2.515559 1_665
Ca3 O10 2.522955 1_665
Ca4 O13 2.148057 1_555
Ca4 O14 2.235227 1_555
Ca4 O12 2.246076 1_555
Ca4 O49 2.302316 1_555
Ca4 O48 2.324246 1_555
Ca4 O50 2.331175 1_555
Ca5 O16 2.165601 1_555
Ca5 O15 2.167917 1_555
Ca5 O17 2.250533 1_555
Ca5 O52 2.320338 1_555
Ca5 O51 2.330022 1_555
Ca5 O53 2.355555 1_555
Ca6 O24 2.135645 1_554
Ca6 O26 2.197652 1_554
Ca6 O25 2.221983 1_554
Ca6 O62 2.258891 1_555
Ca6 O61 2.305611 1_555
Ca6 O60 2.331094 1_555
Ca7 O29 2.139959 1_555
Ca7 O28 2.167897 1_555
Ca7 O27 2.233287 1_555
Ca7 O63 2.263895 1_555
Ca7 O65 2.297008 1_555
Ca7 O64 2.334409 1_555
O0 S0 1.451121 1_545
O1 S1 1.449291 1_555
O2 S2 1.451203 1_655
O3 S3 1.449012 1_555
O4 S4 1.448262 1_655
O5 S5 1.449809 1_545
O6 S5 1.484219 1_555
O7 S3 1.477384 1_555
O8 S4 1.478000 1_555
O9 S1 1.477418 1_555
O10 S2 1.484004 1_555
O11 S0 1.484343 1_555
O12 S6 1.458398 1_555
O13 P0 1.511716 1_555
O14 S7 1.455268 1_555
O15 P1 1.508022 1_555
O16 P2 1.511939 1_555
O17 S8 1.457226 1_555
O18 S8 1.522711 1_555
O18 Ta0 2.160420 1_554
O19 P1 1.635884 1_555
O19 Ta0 1.948204 1_554
O20 P2 1.640953 1_555
O20 Ta0 1.945079 1_554
O21 P0 1.655019 1_555
O21 Ta1 1.918281 1_555
O22 S7 1.535571 1_555
O22 Ta1 2.095219 1_555
O23 S6 1.541499 1_555
O23 Ta1 2.089719 1_555
O24 P3 1.490085 1_555
O25 P4 1.500710 1_555
O26 P5 1.504425 1_555
O27 P6 1.498592 1_555
O28 P7 1.484022 1_555
O29 P8 1.487262 1_555
O30 P8 1.642219 1_555
O30 Ta2 1.932750 1_555
O31 P6 1.626314 1_555
O31 Ta2 1.956924 1_555
O32 P7 1.622480 1_555
O32 Ta2 1.949436 1_555
O33 P4 1.619020 1_555
O33 Ta3 1.960344 1_555
O34 P5 1.640343 1_555
O34 Ta3 1.941104 1_555
O35 P3 1.632712 1_555
O35 Ta3 1.936069 1_555
O36 P8 1.501935 1_655
O37 P6 1.500572 1_545
O38 P7 1.502004 1_555
O39 P4 1.499081 1_655
O40 P5 1.499048 1_545
O41 P3 1.500434 1_555
O42 S6 1.495254 1_555
O43 P0 1.528343 1_555
O44 S7 1.489356 1_555
O45 P1 1.538947 1_555
O46 P2 1.544954 1_555
O47 S8 1.499963 1_555
O48 S5 1.475926 1_545
O49 S3 1.477142 1_555
O50 S4 1.474904 1_655
O51 S1 1.474492 1_555
O52 S2 1.475262 1_655
O53 S0 1.473581 1_545
O54 P3 1.591041 1_555
O54 Ta0 2.027239 1_555
O55 P4 1.608666 1_655
O55 Ta0 1.979392 1_555
O56 P5 1.586164 1_545
O56 Ta0 2.055780 1_555
O57 P6 1.609754 1_545
O57 Ta1 1.988413 1_555
O58 P7 1.613193 1_555
O58 Ta1 1.969770 1_555
O59 P8 1.591307 1_655
O59 Ta1 2.040470 1_555
O60 S8 1.474565 1_555
O61 P1 1.544658 1_455
O62 P2 1.525866 1_565
O63 P0 1.533161 1_565
O64 S7 1.476541 1_555
O65 S6 1.457402 1_455
O66 S0 1.549771 1_555
O66 Ta2 2.078882 1_555
O67 S1 1.541004 1_555
O67 Ta2 2.080080 1_555
O68 S2 1.544309 1_555
O68 Ta2 2.082571 1_555
O69 S3 1.543060 1_555
O69 Ta3 2.083928 1_555
O70 S4 1.547314 1_555
O70 Ta3 2.080811 1_555
O71 S5 1.550494 1_555
O71 Ta3 2.082187 1_555
