# generated using pymatgen
data_MgTi4O8
_symmetry_space_group_name_H-M   'P 1'
_cell_length_a   2.99610100
_cell_length_b   5.24251045
_cell_length_c   9.53604998
_cell_angle_alpha   87.02550075
_cell_angle_beta   90.00000000
_cell_angle_gamma   90.00000000
_symmetry_Int_Tables_number   1
_chemical_formula_structural   MgTi4O8
_chemical_formula_sum   'Mg1 Ti4 O8'
_cell_volume   149.58180400
_cell_formula_units_Z   1
loop_
 _symmetry_equiv_pos_site_id
 _symmetry_equiv_pos_as_xyz
  1  'x, y, z'
loop_
 _atom_site_type_symbol
 _atom_site_label
 _atom_site_symmetry_multiplicity
 _atom_site_fract_x
 _atom_site_fract_y
 _atom_site_fract_z
 _atom_site_occupancy
  Mg  Mg0  1  0.25000000  0.52070700  0.04840900  1
  Ti  Ti0  1  0.25000000  0.55963300  0.64116500  1
  Ti  Ti1  1  0.75000000  0.44594400  0.37399500  1
  Ti  Ti2  1  0.75000000  0.03703500  0.85022100  1
  Ti  Ti3  1  0.25000000  0.97483500  0.15627900  1
  O  O0  1  0.25000000  0.30108400  0.47099800  1
  O  O1  1  0.75000000  0.69376500  0.53012400  1
  O  O2  1  0.75000000  0.77538000  0.03248200  1
  O  O3  1  0.25000000  0.18535700  0.97381200  1
  O  O4  1  0.25000000  0.64382400  0.26011200  1
  O  O5  1  0.75000000  0.35215500  0.73743200  1
  O  O6  1  0.75000000  0.19121300  0.22179100  1
  O  O7  1  0.25000000  0.83156900  0.77262600  1
loop_
_geom_bond_atom_site_label_1
_geom_bond_atom_site_label_2
_geom_bond_distance
_geom_bond_site_symmetry_2
Mg0 O3 1.930456 1_554
Mg0 O2 2.007172 1_555
Mg0 O2 2.007172 1_455
Mg0 O4 2.151145 1_555
O0 Ti1 1.898329 1_555
O0 Ti1 1.898329 1_455
O0 Ti0 2.167655 1_555
O1 Ti0 1.944892 1_655
O1 Ti0 1.944892 1_555
O1 Ti1 2.026171 1_555
O2 Ti2 2.157551 1_564
O2 Ti3 2.204382 1_555
O2 Ti3 2.204382 1_655
O3 Ti3 2.011572 1_546
O3 Ti2 2.081567 1_555
O3 Ti2 2.081567 1_455
O4 Ti3 1.952806 1_555
O4 Ti1 2.093512 1_455
O4 Ti1 2.093512 1_555
O5 Ti2 1.923953 1_555
O5 Ti0 2.041168 1_555
O5 Ti0 2.041168 1_655
O6 Ti3 1.998691 1_645
O6 Ti3 1.998691 1_545
O6 Ti1 2.022663 1_555
O7 Ti0 1.946652 1_555
O7 Ti2 2.008649 1_565
O7 Ti2 2.008649 1_465
