# generated using pymatgen
data_Na10Ca2Si7Ge6S5O48
_symmetry_space_group_name_H-M   'P 1'
_cell_length_a   17.68049895
_cell_length_b   8.91859101
_cell_length_c   22.10429961
_cell_angle_alpha   90.35037248
_cell_angle_beta   89.06075855
_cell_angle_gamma   120.11409660
_symmetry_Int_Tables_number   1
_chemical_formula_structural   Na10Ca2Si7Ge6S5O48
_chemical_formula_sum   'Na30 Ca6 Si21 Ge18 S15 O144'
_cell_volume   3014.65796502
_cell_formula_units_Z   3
loop_
 _symmetry_equiv_pos_site_id
 _symmetry_equiv_pos_as_xyz
  1  'x, y, z'
loop_
 _atom_site_type_symbol
 _atom_site_label
 _atom_site_symmetry_multiplicity
 _atom_site_fract_x
 _atom_site_fract_y
 _atom_site_fract_z
 _atom_site_occupancy
  Na  Na0  1  0.81516859  0.00953566  0.25111622  1
  Na  Na1  1  0.18965271  0.37664489  0.24699085  1
  Na  Na2  1  0.69034441  0.36143895  0.25716599  1
  Na  Na3  1  0.99235289  0.60916679  0.25604425  1
  Na  Na4  1  0.49486726  0.62610701  0.24740086  1
  Na  Na5  1  0.31688203  0.62233181  0.75223356  1
  Na  Na6  1  0.99485952  0.36106035  0.74620565  1
  Na  Na7  1  0.49285321  0.37982802  0.75643229  1
  Na  Na8  1  0.19118985  0.01773021  0.75167191  1
  Na  Na9  1  0.69212148  0.00262690  0.74745489  1
  Na  Na10  1  0.15640617  0.34164099  0.57517822  1
  Na  Na11  1  0.01532967  0.69006140  0.58860969  1
  Na  Na12  1  0.48809386  0.66607730  0.91408070  1
  Na  Na13  1  0.99336175  0.68310031  0.92435350  1
  Na  Na14  1  0.84433385  0.02440436  0.91589670  1
  Na  Na15  1  0.49381599  0.30611541  0.42506242  1
  Na  Na16  1  0.16131241  0.02075463  0.41747209  1
  Na  Na17  1  0.34257215  0.66237292  0.41659845  1
  Na  Na18  1  0.98518722  0.99010467  0.49712075  1
  Na  Na19  1  0.51962796  0.01113398  0.49691279  1
  Na  Na20  1  0.01740175  0.02631937  0.99637819  1
  Na  Na21  1  0.50585974  0.02806421  0.99828109  1
  Na  Na22  1  0.32723355  0.31970602  0.83296434  1
  Na  Na23  1  0.82728804  0.33768888  0.83293320  1
  Na  Na24  1  0.33476131  0.33006306  0.33134746  1
  Na  Na25  1  0.83298625  0.33485214  0.33235230  1
  Na  Na26  1  0.17666660  0.67968995  0.16531100  1
  Na  Na27  1  0.65978527  0.66534626  0.15690767  1
  Na  Na28  1  0.17615912  0.69422613  0.66135538  1
  Na  Na29  1  0.67477052  0.67151082  0.66491482  1
  Ca  Ca0  1  0.33032650  0.32597147  0.68579640  1
  Ca  Ca1  1  0.83771154  0.32992044  0.68259515  1
  Ca  Ca2  1  0.34079335  0.34999992  0.18112708  1
  Ca  Ca3  1  0.83133182  0.32834180  0.18502183  1
  Ca  Ca4  1  0.16357130  0.66747979  0.01817534  1
  Ca  Ca5  1  0.66265158  0.66123974  0.51683511  1
  Si  Si0  1  0.63569758  0.97833285  0.25325590  1
  Si  Si1  1  0.35139440  0.72498075  0.25461905  1
  Si  Si2  1  0.85593004  0.72625693  0.25451075  1
  Si  Si3  1  0.00789026  0.29033048  0.25411207  1
  Si  Si4  1  0.13826576  0.29756255  0.75318071  1
  Si  Si5  1  0.50919086  0.72711223  0.75428920  1
  Si  Si6  1  0.35689005  0.98753929  0.75541748  1
  Si  Si7  1  0.85601939  0.97716258  0.75157129  1
  Si  Si8  1  0.98057738  0.34132588  0.57768764  1
  Si  Si9  1  0.18399485  0.02988913  0.58522919  1
  Si  Si10  1  0.48714671  0.62395040  0.07856972  1
  Si  Si11  1  0.80574612  0.66752402  0.91532258  1
  Si  Si12  1  0.01969962  0.37629308  0.91872718  1
  Si  Si13  1  0.52612616  0.37281516  0.91125544  1
  Si  Si14  1  0.16696414  0.97242000  0.91588659  1
  Si  Si15  1  0.66423544  0.96382654  0.91517907  1
  Si  Si16  1  0.30708985  0.94644778  0.41495189  1
  Si  Si17  1  0.16198848  0.37046190  0.41570761  1
  Si  Si18  1  0.66650536  0.36041070  0.41529203  1
  Si  Si19  1  0.01930904  0.66733560  0.41025389  1
  Si  Si20  1  0.51762812  0.66241331  0.41887559  1
  Ge  Ge0  1  0.99847822  0.99837957  0.35508326  1
  Ge  Ge1  1  0.49932756  0.98571003  0.35780512  1
  Ge  Ge2  1  0.99947488  0.01464160  0.85703974  1
  Ge  Ge3  1  0.50203851  0.00590765  0.85523708  1
  Ge  Ge4  1  0.00455006  0.04569066  0.64269152  1
  Ge  Ge5  1  0.49584741  0.98187519  0.65126743  1
  Ge  Ge6  1  0.99244304  0.01309229  0.14926950  1
  Ge  Ge7  1  0.49032457  0.93001319  0.14514832  1
  Ge  Ge8  1  0.34558535  0.30879278  0.97931718  1
  Ge  Ge9  1  0.82604104  0.34084485  0.97211432  1
  Ge  Ge10  1  0.32309696  0.31544847  0.47372982  1
  Ge  Ge11  1  0.84096517  0.35483869  0.47405750  1
  Ge  Ge12  1  0.65605510  0.65848391  0.00470488  1
  Ge  Ge13  1  0.15844351  0.66890294  0.50843490  1
  Ge  Ge14  1  0.16840248  0.65651109  0.31700999  1
  Ge  Ge15  1  0.66399212  0.65214643  0.31594782  1
  Ge  Ge16  1  0.16572341  0.67616908  0.81676878  1
  Ge  Ge17  1  0.67271712  0.68932393  0.81654371  1
  S  S0  1  0.13904172  0.99072681  0.24978014  1
  S  S1  1  0.50371620  0.28431348  0.25347011  1
  S  S2  1  0.63838417  0.28626258  0.75020029  1
  S  S3  1  0.00312302  0.71757333  0.75348027  1
  S  S4  1  0.48286876  0.30831846  0.58711401  1
  S  S5  1  0.67407528  0.03644024  0.58756231  1
  S  S6  1  0.33860295  0.64402009  0.58082352  1
  S  S7  1  0.83854712  0.63944802  0.58301438  1
  S  S8  1  0.98066670  0.65479169  0.08672071  1
  S  S9  1  0.34624060  0.03760132  0.08557174  1
  S  S10  1  0.83578033  0.02915792  0.08105709  1
  S  S11  1  0.17526800  0.31065904  0.08783281  1
  S  S12  1  0.68351246  0.33563106  0.08019411  1
  S  S13  1  0.31795405  0.66615468  0.91336907  1
  S  S14  1  0.81900827  0.97518060  0.41481069  1
  O  O0  1  0.10477694  0.01620619  0.30941173  1
  O  O1  1  0.58579362  0.01618688  0.30683415  1
  O  O2  1  0.41094176  0.82882545  0.31098651  1
  O  O3  1  0.92094715  0.81552645  0.31163786  1
  O  O4  1  0.49622551  0.19852217  0.31193498  1
  O  O5  1  0.00127692  0.16930894  0.31079645  1
  O  O6  1  0.08337507  0.15431470  0.80395016  1
  O  O7  1  0.60260430  0.18363956  0.80706492  1
  O  O8  1  0.50199917  0.82591690  0.81478793  1
  O  O9  1  0.99591442  0.79786677  0.81008834  1
  O  O10  1  0.42138747  0.01919490  0.81163693  1
  O  O11  1  0.90924760  0.99080103  0.81194583  1
  O  O12  1  0.39978406  0.94315088  0.69413512  1
  O  O13  1  0.90634313  0.97046684  0.68734013  1
  O  O14  1  0.08637563  0.22824865  0.68626921  1
  O  O15  1  0.58302250  0.19816128  0.69620116  1
  O  O16  1  0.00915127  0.81164481  0.69758562  1
  O  O17  1  0.52815873  0.84875685  0.69276041  1
  O  O18  1  0.39285702  0.82148785  0.18765167  1
  O  O19  1  0.89918847  0.85908664  0.19453432  1
  O  O20  1  0.02682106  0.21168088  0.19038236  1
  O  O21  1  0.51138937  0.19542193  0.20025401  1
  O  O22  1  0.08137848  0.97093890  0.19821227  1
  O  O23  1  0.57721238  0.94033663  0.18883181  1
  O  O24  1  0.44040237  0.31969753  0.64277220  1
  O  O25  1  0.96155530  0.39623788  0.64256682  1
  O  O26  1  0.22651917  0.07923166  0.64980008  1
  O  O27  1  0.71701210  0.11797322  0.64474077  1
  O  O28  1  0.32762097  0.54377755  0.63648845  1
  O  O29  1  0.82998839  0.54126426  0.63764787  1
  O  O30  1  0.46319905  0.55586751  0.14643335  1
  O  O31  1  0.93598774  0.56036395  0.14180241  1
  O  O32  1  0.33415565  0.12212828  0.13783607  1
  O  O33  1  0.82698501  0.10261418  0.13848580  1
  O  O34  1  0.21727837  0.31641704  0.14557313  1
  O  O35  1  0.72546499  0.35478373  0.13866300  1
  O  O36  1  0.22252915  0.29472422  0.03471514  1
  O  O37  1  0.73482390  0.30211017  0.02915987  1
  O  O38  1  0.41421920  0.50443352  0.02435245  1
  O  O39  1  0.93210857  0.56524446  0.02998839  1
  O  O40  1  0.35269401  0.13606917  0.02674422  1
  O  O41  1  0.84504773  0.13669664  0.02699625  1
  O  O42  1  0.23552358  0.18229267  0.52949216  1
  O  O43  1  0.71868939  0.14316417  0.53353382  1
  O  O44  1  0.34700815  0.55685747  0.52508054  1
  O  O45  1  0.84629374  0.54861046  0.52645825  1
  O  O46  1  0.43340215  0.29760932  0.53096897  1
  O  O47  1  0.90676041  0.31233156  0.52569295  1
  O  O48  1  0.27886414  0.68175921  0.96904082  1
  O  O49  1  0.76251097  0.71970666  0.97259408  1
  O  O50  1  0.07068470  0.43082881  0.97929376  1
  O  O51  1  0.58480914  0.45531413  0.97095192  1
  O  O52  1  0.13605168  0.84708523  0.97234701  1
  O  O53  1  0.63643206  0.81690473  0.96741769  1
  O  O54  1  0.26440595  0.81045652  0.47182326  1
  O  O55  1  0.78112795  0.88133556  0.47035922  1
  O  O56  1  0.15246924  0.46708601  0.47518816  1
  O  O57  1  0.63669511  0.42750576  0.47176018  1
  O  O58  1  0.08300328  0.71202720  0.46838026  1
  O  O59  1  0.56872046  0.71145081  0.47986859  1
  O  O60  1  0.06416838  0.63235302  0.35015783  1
  O  O61  1  0.56416969  0.61099525  0.36074372  1
  O  O62  1  0.23838980  0.86502403  0.35836553  1
  O  O63  1  0.76737875  0.88747157  0.35924317  1
  O  O64  1  0.19001330  0.50010201  0.35662427  1
  O  O65  1  0.68635655  0.48932449  0.35370323  1
  O  O66  1  0.06505493  0.51907215  0.86087360  1
  O  O67  1  0.56607134  0.51128276  0.85376861  1
  O  O68  1  0.18697954  0.88433269  0.85387718  1
  O  O69  1  0.69459658  0.89486994  0.85468336  1
  O  O70  1  0.26556464  0.65086813  0.85812669  1
  O  O71  1  0.74186706  0.62458190  0.85719119  1
  O  O72  1  0.01088647  0.84406439  0.40763992  1
  O  O73  1  0.49118147  0.81009419  0.40529161  1
  O  O74  1  0.40817787  0.98869798  0.40889940  1
  O  O75  1  0.90893186  0.99508288  0.41042311  1
  O  O76  1  0.08142380  0.17062346  0.41011703  1
  O  O77  1  0.57926282  0.16482940  0.40500464  1
  O  O78  1  0.99312090  0.17495997  0.90522096  1
  O  O79  1  0.51161026  0.17847313  0.90654951  1
  O  O80  1  0.08079812  0.99696593  0.90390561  1
  O  O81  1  0.57895132  0.98667848  0.91018163  1
  O  O82  1  0.40826344  0.82660011  0.91044711  1
  O  O83  1  0.90739560  0.83010360  0.91015933  1
  O  O84  1  0.48365775  0.13798889  0.58835319  1
  O  O85  1  0.98860192  0.16360150  0.58042709  1
  O  O86  1  0.08505408  0.02123200  0.58995748  1
  O  O87  1  0.58463503  0.02764527  0.58848548  1
  O  O88  1  0.42102352  0.81619262  0.58387748  1
  O  O89  1  0.92445545  0.80724639  0.58278355  1
  O  O90  1  0.49037542  0.81788002  0.07719461  1
  O  O91  1  0.98300489  0.82757068  0.08718619  1
  O  O92  1  0.43267330  0.04218315  0.08731976  1
  O  O93  1  0.92198923  0.02727454  0.08288536  1
  O  O94  1  0.08618153  0.14040344  0.08778496  1
  O  O95  1  0.59630620  0.17872262  0.07960225  1
  O  O96  1  0.34582771  0.15467717  0.75368967  1
  O  O97  1  0.84413887  0.14766842  0.75125052  1
  O  O98  1  0.23475064  0.32537909  0.75235550  1
  O  O99  1  0.72663544  0.30882481  0.74532913  1
  O  O100  1  0.42320672  0.53984737  0.75172886  1
  O  O101  1  0.92932329  0.53590961  0.75400921  1
  O  O102  1  0.34131490  0.53281747  0.25464523  1
  O  O103  1  0.84193982  0.53467866  0.24989276  1
  O  O104  1  0.42985134  0.31969657  0.25193759  1
  O  O105  1  0.92160237  0.30623094  0.25207711  1
  O  O106  1  0.22711437  0.14550106  0.24469182  1
  O  O107  1  0.73159090  0.14430907  0.24942341  1
  O  O108  1  0.33119321  0.51406013  0.91220474  1
  O  O109  1  0.81679943  0.49557732  0.92542269  1
  O  O110  1  0.42821469  0.35686865  0.92103609  1
  O  O111  1  0.91949356  0.36614843  0.92497238  1
  O  O112  1  0.25839026  0.16806591  0.92828258  1
  O  O113  1  0.75336145  0.15026885  0.92800062  1
  O  O114  1  0.31304368  0.13667233  0.42598364  1
  O  O115  1  0.82914904  0.15238483  0.41540888  1
  O  O116  1  0.25113974  0.35050668  0.42261862  1
  O  O117  1  0.75521891  0.34026942  0.42560874  1
  O  O118  1  0.41836011  0.47116918  0.42563140  1
  O  O119  1  0.92361812  0.49510959  0.42029231  1
  O  O120  1  0.16276643  0.46100609  0.08595796  1
  O  O121  1  0.68119146  0.49586210  0.06894108  1
  O  O122  1  0.06939084  0.68173243  0.08704513  1
  O  O123  1  0.58578721  0.64846613  0.06704053  1
  O  O124  1  0.27379773  0.86055624  0.08105125  1
  O  O125  1  0.76061757  0.85179921  0.07621019  1
  O  O126  1  0.16823724  0.83739340  0.56687419  1
  O  O127  1  0.66229851  0.86211332  0.58622479  1
  O  O128  1  0.25931672  0.66151857  0.57769932  1
  O  O129  1  0.76600363  0.67230825  0.58008714  1
  O  O130  1  0.08037735  0.50945394  0.56456658  1
  O  O131  1  0.57207205  0.45585002  0.58627524  1
  O  O132  1  0.14264727  0.82837987  0.24978512  1
  O  O133  1  0.64144227  0.79855138  0.26155959  1
  O  O134  1  0.25518100  0.71242900  0.25728967  1
  O  O135  1  0.75730125  0.71116109  0.25997285  1
  O  O136  1  0.09627557  0.48696618  0.25764662  1
  O  O137  1  0.58910338  0.46318725  0.25264185  1
  O  O138  1  0.14252202  0.48774068  0.76192026  1
  O  O139  1  0.64058700  0.45399121  0.75273975  1
  O  O140  1  0.08887504  0.71286953  0.75325436  1
  O  O141  1  0.59810600  0.70701268  0.75745936  1
  O  O142  1  0.25811435  0.80669602  0.75919129  1
  O  O143  1  0.75802198  0.79973653  0.75406783  1
loop_
_geom_bond_atom_site_label_1
_geom_bond_atom_site_label_2
_geom_bond_distance
_geom_bond_site_symmetry_2
Na0 O107 2.326891 1_555
Na0 O135 2.331151 1_545
Na0 O105 2.355315 1_555
Na0 O63 2.579556 1_545
Na0 O33 2.600990 1_555
Na0 O133 2.685326 1_545
Na0 O19 2.736806 1_545
Na1 O136 2.315948 1_555
Na1 O102 2.328764 1_555
Na1 O34 2.401096 1_555
Na1 O106 2.461440 1_555
Na1 O134 2.623207 1_555
Na1 O64 2.654418 1_555
Na1 O20 2.804277 1_555
Na2 O103 2.330323 1_555
Na2 O137 2.382110 1_555
Na2 O107 2.391660 1_555
Na2 O65 2.430086 1_555
Na2 O35 2.689284 1_555
Na2 O135 2.725538 1_555
Na2 O1 2.892559 1_555
Na3 O105 2.341232 1_555
Na3 O132 2.383434 1_655
Na3 O103 2.402097 1_555
Na3 O60 2.408435 1_655
Na3 O136 2.564589 1_655
Na3 O31 2.682016 1_555
Na4 O133 2.280472 1_555
Na4 O30 2.314916 1_555
Na4 O104 2.376293 1_555
Na4 O102 2.410238 1_555
Na4 O137 2.708941 1_555
Na4 O23 2.745543 1_555
Na4 O61 2.840222 1_555
Na5 O98 2.294252 1_555
Na5 O100 2.337118 1_555
Na5 O142 2.347957 1_555
Na5 O70 2.553751 1_555
Na5 O28 2.677360 1_555
Na5 O138 2.694161 1_555
Na5 O12 2.785556 1_555
Na6 O138 2.297443 1_655
Na6 O101 2.367999 1_555
Na6 O97 2.374762 1_555
Na6 O25 2.435488 1_555
Na6 O140 2.720503 1_655
Na6 O14 2.758632 1_655
Na6 O66 2.873180 1_655
Na7 O100 2.309395 1_555
Na7 O139 2.350912 1_555
Na7 O96 2.357757 1_555
Na7 O67 2.493395 1_555
Na7 O141 2.555398 1_555
Na7 O24 2.649621 1_555
Na8 O26 2.320960 1_555
Na8 O96 2.370949 1_555
Na8 O140 2.393710 1_545
Na8 O98 2.449733 1_555
Na8 O68 2.542309 1_545
Na8 O142 2.686099 1_545
Na8 O6 2.948475 1_555
Na9 O141 2.315258 1_545
Na9 O97 2.328438 1_555
Na9 O27 2.438913 1_555
Na9 O99 2.482055 1_555
Na9 O69 2.572328 1_545
Na9 O143 2.603393 1_545
Na9 O17 2.802034 1_545
Na10 O130 2.476965 1_555
Na10 O86 2.498914 1_555
Na10 O128 2.499040 1_555
Na10 O56 2.501000 1_555
Na10 O85 2.569203 1_455
Na10 O42 2.631961 1_555
Na10 O14 2.694426 1_555
Na11 O89 2.320298 1_455
Na11 O126 2.380496 1_555
Na11 O130 2.455210 1_555
Na11 O86 2.567239 1_565
Na11 O25 2.587358 1_455
Na11 O16 2.658672 1_555
Na11 O58 2.863508 1_555
Na12 O108 2.400930 1_555
Na12 O110 2.412391 1_555
Na12 O82 2.465961 1_555
Na12 O81 2.480535 1_555
Na12 O8 2.564887 1_555
Na12 O53 2.572904 1_555
Na12 O67 2.722336 1_555
Na12 O38 2.788325 1_556
Na13 O111 2.447819 1_555
Na13 O52 2.448555 1_655
Na13 O80 2.465796 1_655
Na13 O83 2.479465 1_555
Na13 O39 2.556306 1_556
Na13 O109 2.702199 1_555
Na13 O9 2.722251 1_555
Na13 O66 2.737340 1_655
Na14 O78 2.284282 1_555
Na14 O113 2.390126 1_555
Na14 O83 2.488689 1_545
Na14 O11 2.633823 1_545
Na14 O41 2.644284 1_556
Na14 O111 2.651935 1_555
Na14 O49 2.661868 1_545
Na14 O69 2.683959 1_545
Na15 O118 2.432436 1_555
Na15 O57 2.438566 1_555
Na15 O77 2.438875 1_555
Na15 O74 2.477606 1_545
Na15 O46 2.542796 1_555
Na15 O4 2.680262 1_555
Na15 O61 2.749078 1_555
Na15 O114 2.766055 1_555
Na16 O72 2.326629 1_545
Na16 O114 2.352057 1_555
Na16 O76 2.390122 1_555
Na16 O116 2.549374 1_555
Na16 O0 2.596652 1_555
Na16 O58 2.631725 1_545
Na16 O62 2.704041 1_545
Na16 O42 2.845069 1_555
Na17 O73 2.282720 1_555
Na17 O116 2.419270 1_555
Na17 O74 2.541008 1_555
Na17 O44 2.597994 1_555
Na17 O54 2.626943 1_555
Na17 O118 2.655022 1_555
Na17 O2 2.695179 1_555
Na17 O64 2.702612 1_555
Na18 O89 2.368955 1_555
Na18 O75 2.374462 1_555
Na18 O85 2.379883 1_565
Na18 O72 2.519506 1_655
Na18 O76 2.523379 1_665
Na18 O86 2.650619 1_665
Na19 O87 2.311424 1_555
Na19 O77 2.373074 1_555
Na19 O84 2.534106 1_555
Na19 O88 2.578145 1_545
Na19 O73 2.579417 1_545
Na19 O74 2.726357 1_545
Na20 O94 2.325992 1_556
Na20 O80 2.390774 1_545
Na20 O93 2.531945 1_456
Na20 O91 2.542173 1_446
Na20 O78 2.575630 1_455
Na20 O83 2.672592 1_445
Na21 O95 2.345728 1_556
Na21 O92 2.375029 1_556
Na21 O79 2.410571 1_555
Na21 O81 2.446606 1_545
Na21 O90 2.478089 1_546
Na21 O82 2.632762 1_545
Na22 O96 2.404173 1_555
Na22 O108 2.433622 1_555
Na22 O98 2.455750 1_555
Na22 O112 2.459417 1_555
Na22 O100 2.560986 1_555
Na22 O110 2.568979 1_555
Na23 O101 2.481452 1_555
Na23 O109 2.532051 1_555
Na23 O111 2.558974 1_555
Na23 O99 2.574905 1_555
Na23 O97 2.583095 1_555
Na23 O113 2.584351 1_555
Na24 O104 2.444060 1_555
Na24 O102 2.445132 1_555
Na24 O118 2.512811 1_555
Na24 O116 2.541176 1_555
Na24 O114 2.617522 1_555
Na24 O106 2.634033 1_555
Na25 O115 2.438258 1_555
Na25 O105 2.444007 1_555
Na25 O117 2.472777 1_555
Na25 O119 2.481748 1_555
Na25 O103 2.504124 1_555
Na25 O107 2.544515 1_555
Na26 O134 2.413383 1_555
Na26 O124 2.484410 1_555
Na26 O132 2.517973 1_555
Na26 O120 2.536190 1_555
Na26 O136 2.576172 1_555
Na26 O122 2.594867 1_555
Na27 O123 2.358868 1_555
Na27 O125 2.466279 1_555
Na27 O121 2.592852 1_555
Na27 O137 2.643769 1_555
Na27 O133 2.682554 1_555
Na27 O135 2.782118 1_555
Na28 O128 2.449653 1_555
Na28 O126 2.496639 1_555
Na28 O142 2.529887 1_555
Na28 O140 2.585769 1_555
Na28 O130 2.726910 1_555
Na28 O138 2.755744 1_555
Na29 O143 2.395066 1_555
Na29 O129 2.450980 1_555
Na29 O127 2.527578 1_555
Na29 O141 2.540470 1_555
Na29 O131 2.564399 1_555
Na29 O139 2.593936 1_555
Ca0 O24 2.177887 1_555
Ca0 O26 2.194963 1_555
Ca0 O98 2.220300 1_555
Ca0 O28 2.254872 1_555
Ca0 O96 2.263373 1_555
Ca0 O100 2.315260 1_555
Ca1 O25 2.137867 1_555
Ca1 O27 2.195162 1_555
Ca1 O29 2.200947 1_555
Ca1 O97 2.275776 1_555
Ca1 O99 2.314796 1_555
Ca1 O101 2.356456 1_555
Ca2 O30 2.149061 1_555
Ca2 O32 2.190948 1_555
Ca2 O34 2.207579 1_555
Ca2 O102 2.291806 1_555
Ca2 O104 2.348462 1_555
Ca2 O106 2.366571 1_555
Ca3 O31 2.177754 1_555
Ca3 O107 2.207289 1_555
Ca3 O33 2.222362 1_555
Ca3 O103 2.260087 1_555
Ca3 O35 2.262302 1_555
Ca3 O105 2.275981 1_555
Ca4 O50 2.106252 1_554
Ca4 O52 2.155654 1_554
Ca4 O48 2.240453 1_554
Ca4 O122 2.287637 1_555
Ca4 O124 2.320977 1_555
Ca4 O120 2.375452 1_555
Ca5 O59 2.102745 1_555
Ca5 O57 2.139724 1_555
Ca5 O55 2.263737 1_555
Ca5 O129 2.281380 1_555
Ca5 O131 2.299197 1_555
Ca5 O127 2.353597 1_555
Ge0 O5 1.796014 1_665
Ge0 O3 1.800446 1_555
Ge0 O72 1.903354 1_655
Ge0 O76 1.940458 1_665
Ge0 O75 1.973332 1_555
Ge0 O0 2.053428 1_665
Ge1 O1 1.791846 1_565
Ge1 O2 1.819899 1_555
Ge1 O73 1.834240 1_555
Ge1 O77 1.843999 1_565
Ge1 O74 1.963792 1_555
Ge1 O4 2.182479 1_565
Ge2 O6 1.798865 1_655
Ge2 O11 1.814608 1_545
Ge2 O78 1.824794 1_555
Ge2 O80 1.855711 1_645
Ge2 O83 2.002531 1_545
Ge2 O9 2.162008 1_545
Ge3 O10 1.786675 1_555
Ge3 O8 1.832385 1_545
Ge3 O79 1.845899 1_555
Ge3 O81 1.909022 1_545
Ge3 O7 1.984523 1_555
Ge3 O82 2.023014 1_545
Ge4 O13 1.794999 1_445
Ge4 O14 1.826103 1_555
Ge4 O85 1.845960 1_455
Ge4 O86 1.919975 1_555
Ge4 O89 2.299236 1_445
Ge4 O16 2.457768 1_545
Ge5 O12 1.806794 1_555
Ge5 O17 1.813326 1_555
Ge5 O87 1.961958 1_565
Ge5 O15 2.031357 1_565
Ge5 O88 2.056367 1_555
Ge5 O84 2.062420 1_565
Ge6 O20 1.802886 1_655
Ge6 O19 1.815604 1_545
Ge6 O94 1.984897 1_655
Ge6 O93 1.985233 1_555
Ge6 O91 2.086008 1_545
Ge6 O22 2.106697 1_645
Ge7 O18 1.753144 1_555
Ge7 O23 1.790652 1_555
Ge7 O90 1.799677 1_555
Ge7 O92 2.180666 1_565
Ge7 O95 2.511984 1_565
Ge7 O21 2.514046 1_565
Ge8 O110 1.815012 1_555
Ge8 O112 1.822808 1_555
Ge8 O38 1.844370 1_556
Ge8 O40 1.925138 1_556
Ge8 O36 2.426825 1_556
Ge8 O108 2.475869 1_555
Ge9 O109 1.801527 1_555
Ge9 O113 1.822125 1_555
Ge9 O111 1.854480 1_555
Ge9 O37 1.920923 1_556
Ge9 O39 2.332369 1_556
Ge9 O41 2.356680 1_556
Ge10 O114 1.840884 1_555
Ge10 O42 1.853964 1_555
Ge10 O116 1.855629 1_555
Ge10 O118 1.873000 1_555
Ge10 O44 2.274892 1_555
Ge10 O46 2.413361 1_555
Ge11 O119 1.799929 1_555
Ge11 O47 1.814121 1_555
Ge11 O117 1.820986 1_555
Ge11 O45 2.037839 1_555
Ge11 O115 2.141541 1_555
Ge11 O43 2.409962 1_555
Ge12 O51 1.774996 1_554
Ge12 O49 1.809494 1_554
Ge12 O123 1.812192 1_555
Ge12 O53 1.819739 1_554
Ge12 O121 2.238263 1_555
Ge12 O125 2.398458 1_555
Ge13 O58 1.807912 1_555
Ge13 O54 1.829774 1_555
Ge13 O130 1.860827 1_555
Ge13 O56 1.893816 1_555
Ge13 O126 1.918129 1_555
Ge13 O128 2.395386 1_555
Ge14 O64 1.849154 1_555
Ge14 O134 1.875953 1_555
Ge14 O62 1.879446 1_555
Ge14 O60 1.881178 1_555
Ge14 O136 1.931366 1_555
Ge14 O132 2.348496 1_555
Ge15 O61 1.878096 1_555
Ge15 O65 1.887690 1_555
Ge15 O135 1.897189 1_555
Ge15 O133 1.966338 1_555
Ge15 O137 2.084271 1_555
Ge15 O63 2.201179 1_555
Ge16 O66 1.881193 1_555
Ge16 O68 1.884703 1_555
Ge16 O142 1.919672 1_555
Ge16 O138 1.939571 1_555
Ge16 O140 2.106828 1_555
Ge16 O70 2.111366 1_555
Ge17 O71 1.840155 1_555
Ge17 O69 1.871130 1_555
Ge17 O143 1.899895 1_555
Ge17 O67 1.927297 1_555
Ge17 O141 1.933543 1_555
Ge17 O139 2.347455 1_555
O0 S0 1.504785 1_545
O1 Si0 1.598382 1_545
O2 Si1 1.602834 1_555
O3 Si2 1.633026 1_555
O4 S1 1.475764 1_555
O5 Si3 1.622861 1_555
O6 Si4 1.603468 1_555
O7 S2 1.491583 1_555
O8 Si5 1.635068 1_555
O9 S3 1.473143 1_655
O10 Si6 1.625881 1_545
O11 Si7 1.614243 1_555
O12 Si6 1.681622 1_555
O13 Si7 1.679843 1_555
O14 Si4 1.695756 1_555
O15 S2 1.501757 1_555
O16 S3 1.469822 1_555
O17 Si5 1.666498 1_555
O18 Si1 1.678177 1_555
O19 Si2 1.680099 1_555
O20 Si3 1.672284 1_555
O21 S1 1.456673 1_555
O22 S0 1.491629 1_555
O23 Si0 1.703749 1_555
O24 S4 1.460237 1_555
O25 Si8 1.597027 1_555
O26 Si9 1.578481 1_555
O27 S5 1.472675 1_555
O28 S6 1.477288 1_555
O29 S7 1.456723 1_555
O30 Si10 1.590767 1_555
O31 S8 1.459149 1_555
O32 S9 1.446198 1_555
O33 S10 1.466420 1_555
O34 S11 1.474891 1_555
O35 S12 1.466725 1_555
O36 S11 1.477146 1_555
O37 S12 1.555456 1_555
O38 Si10 1.700259 1_555
O39 S8 1.510799 1_555
O40 S9 1.543919 1_555
O41 S10 1.491504 1_555
O42 Si9 1.713619 1_555
O43 S5 1.477860 1_555
O44 S6 1.497600 1_555
O45 S7 1.526849 1_555
O46 S4 1.504842 1_555
O47 Si8 1.672723 1_555
O48 S13 1.441494 1_555
O49 Si11 1.649728 1_555
O50 Si12 1.559855 1_555
O51 Si13 1.620510 1_555
O52 Si14 1.577155 1_555
O53 Si15 1.626499 1_555
O54 Si16 1.640100 1_555
O55 S14 1.442163 1_555
O56 Si17 1.619877 1_555
O57 Si18 1.574680 1_555
O58 Si19 1.633602 1_555
O59 Si20 1.568833 1_555
O60 Si19 1.643076 1_555
O61 Si20 1.695682 1_555
O62 Si16 1.649492 1_555
O63 S14 1.504105 1_555
O64 Si17 1.646311 1_555
O65 Si18 1.702048 1_555
O66 Si12 1.691618 1_555
O67 Si13 1.659259 1_555
O68 Si14 1.694424 1_555
O69 Si15 1.658974 1_555
O70 S13 1.508629 1_555
O71 Si11 1.637339 1_555
O72 Si19 1.657333 1_555
O73 Si20 1.634317 1_555
O74 Si16 1.634400 1_555
O75 S14 1.510182 1_555
O76 Si17 1.635963 1_555
O77 Si18 1.667452 1_555
O78 Si12 1.638749 1_655
O79 Si13 1.622704 1_555
O80 Si14 1.669604 1_555
O81 Si15 1.625272 1_555
O82 S13 1.518663 1_555
O83 Si11 1.651011 1_555
O84 S4 1.526563 1_555
O85 Si8 1.662317 1_555
O86 Si9 1.713356 1_555
O87 S5 1.543284 1_555
O88 S6 1.497522 1_555
O89 S7 1.505193 1_555
O90 Si10 1.702098 1_555
O91 S8 1.520600 1_555
O92 S9 1.509215 1_555
O93 S10 1.533907 1_555
O94 S11 1.544890 1_555
O95 S12 1.473476 1_555
O96 Si6 1.598499 1_545
O97 Si7 1.636252 1_545
O98 Si4 1.595727 1_555
O99 S2 1.471871 1_555
O100 Si5 1.599250 1_555
O101 S3 1.485288 1_655
O102 Si1 1.631714 1_555
O103 Si2 1.601734 1_555
O104 S1 1.490438 1_555
O105 Si3 1.602825 1_655
O106 S0 1.477201 1_545
O107 Si0 1.597299 1_545
O108 S13 1.487766 1_555
O109 Si11 1.657127 1_555
O110 Si13 1.674757 1_555
O111 Si12 1.731307 1_655
O112 Si14 1.706183 1_545
O113 Si15 1.645591 1_545
O114 Si16 1.662935 1_545
O115 S14 1.498503 1_545
O116 Si17 1.682040 1_555
O117 Si18 1.685056 1_555
O118 Si20 1.732776 1_555
O119 Si19 1.629464 1_655
O120 S11 1.465239 1_555
O121 S12 1.472828 1_555
O122 S8 1.463112 1_455
O123 Si10 1.660665 1_555
O124 S9 1.454853 1_565
O125 S10 1.474055 1_565
O126 Si9 1.644639 1_565
O127 S5 1.461600 1_565
O128 S6 1.488978 1_555
O129 S7 1.454403 1_555
O130 Si8 1.667218 1_455
O131 S4 1.461518 1_555
O132 S0 1.480918 1_555
O133 Si0 1.668088 1_555
O134 Si1 1.647867 1_555
O135 Si2 1.682639 1_555
O136 Si3 1.666131 1_555
O137 S1 1.551522 1_555
O138 Si4 1.669790 1_555
O139 S2 1.477490 1_555
O140 S3 1.537541 1_555
O141 Si5 1.671818 1_555
O142 Si6 1.681864 1_555
O143 Si7 1.660067 1_555
