# generated using pymatgen
data_Rb3Au3Cl8
_symmetry_space_group_name_H-M   'P 1'
_cell_length_a   7.09080447
_cell_length_b   7.09080447
_cell_length_c   18.17848878
_cell_angle_alpha   81.98344472
_cell_angle_beta   81.98344472
_cell_angle_gamma   64.37499406
_symmetry_Int_Tables_number   1
_chemical_formula_structural   Rb3Au3Cl8
_chemical_formula_sum   'Rb6 Au6 Cl16'
_cell_volume   812.84145173
_cell_formula_units_Z   2
loop_
 _symmetry_equiv_pos_site_id
 _symmetry_equiv_pos_as_xyz
  1  'x, y, z'
loop_
 _atom_site_type_symbol
 _atom_site_label
 _atom_site_symmetry_multiplicity
 _atom_site_fract_x
 _atom_site_fract_y
 _atom_site_fract_z
 _atom_site_occupancy
  Rb  Rb0  1  0.98343055  0.01656945  0.75000000  1
  Rb  Rb1  1  0.01656945  0.98343055  0.25000000  1
  Rb  Rb2  1  0.31556680  0.31589203  0.58126415  1
  Rb  Rb3  1  0.68410797  0.68443320  0.91873585  1
  Rb  Rb4  1  0.68443320  0.68410797  0.41873585  1
  Rb  Rb5  1  0.31589203  0.31556680  0.08126415  1
  Au  Au0  1  0.00000000  0.00000000  0.00000000  1
  Au  Au1  1  0.00000000  0.00000000  0.50000000  1
  Au  Au2  1  0.38697245  0.39021313  0.80683057  1
  Au  Au3  1  0.60978687  0.61302755  0.69316943  1
  Au  Au4  1  0.61302755  0.60978687  0.19316943  1
  Au  Au5  1  0.39021313  0.38697245  0.30683057  1
  Cl  Cl0  1  0.09062849  0.49613479  0.24708932  1
  Cl  Cl1  1  0.50386521  0.90937151  0.25291068  1
  Cl  Cl2  1  0.90937151  0.50386521  0.75291068  1
  Cl  Cl3  1  0.49613479  0.09062849  0.74708932  1
  Cl  Cl4  1  0.67191526  0.25049918  0.37751793  1
  Cl  Cl5  1  0.74950082  0.32808474  0.12248207  1
  Cl  Cl6  1  0.32808474  0.74950082  0.62248207  1
  Cl  Cl7  1  0.25049918  0.67191526  0.87751793  1
  Cl  Cl8  1  0.83967745  0.28509133  0.57256795  1
  Cl  Cl9  1  0.71490867  0.16032255  0.92743205  1
  Cl  Cl10  1  0.16032255  0.71490867  0.42743205  1
  Cl  Cl11  1  0.28509133  0.83967745  0.07256795  1
  Cl  Cl12  1  0.15660258  0.20614800  0.93130170  1
  Cl  Cl13  1  0.79385200  0.84339742  0.56869830  1
  Cl  Cl14  1  0.84339742  0.79385200  0.06869830  1
  Cl  Cl15  1  0.20614800  0.15660258  0.43130170  1
loop_
_geom_bond_atom_site_label_1
_geom_bond_atom_site_label_2
_geom_bond_distance
_geom_bond_site_symmetry_2
Au0 Cl14 2.331828 1_445
Au0 Cl12 2.331828 1_554
Au0 Cl11 2.336002 1_545
Au0 Cl9 2.336002 1_454
Au1 Cl15 2.331828 1_555
Au1 Cl13 2.331828 1_445
Au1 Cl10 2.336002 1_545
Au1 Cl8 2.336002 1_455
Au2 Cl7 2.296686 1_555
Au2 Cl3 2.297375 1_555
Au3 Cl6 2.296686 1_555
Au3 Cl2 2.297375 1_555
Au4 Cl5 2.296686 1_555
Au4 Cl1 2.297375 1_555
Au5 Cl4 2.296686 1_555
Au5 Cl0 2.297375 1_555
Cl0 Rb1 3.269795 1_555
Cl0 Rb5 3.352940 1_555
Cl1 Rb1 3.269795 1_555
Cl1 Rb4 3.352940 1_555
Cl2 Rb0 3.269795 1_555
Cl2 Rb3 3.352940 1_555
Cl3 Rb0 3.269795 1_555
Cl3 Rb2 3.352940 1_555
Cl4 Rb1 3.251690 1_645
Cl4 Rb4 3.304519 1_555
Cl5 Rb1 3.251690 1_645
Cl5 Rb5 3.304519 1_555
Cl6 Rb0 3.251690 1_465
Cl6 Rb2 3.304519 1_555
Cl7 Rb0 3.251690 1_465
Cl7 Rb3 3.304519 1_555
Cl8 Rb2 3.500771 1_655
Cl8 Rb0 3.548693 1_555
Cl8 Rb4 3.604836 1_555
Cl8 Rb2 3.609402 1_555
Cl9 Rb3 3.500771 1_545
Cl9 Rb0 3.548693 1_555
Cl9 Rb5 3.604836 1_556
Cl9 Rb3 3.609402 1_555
Cl10 Rb4 3.500771 1_455
Cl10 Rb1 3.548693 1_555
Cl10 Rb2 3.604836 1_555
Cl10 Rb4 3.609402 1_555
Cl11 Rb5 3.500771 1_565
Cl11 Rb1 3.548693 1_555
Cl11 Rb3 3.604836 1_554
Cl11 Rb5 3.609402 1_555
Cl12 Rb5 3.393528 1_556
Cl12 Rb3 3.598359 1_455
Cl13 Rb4 3.393528 1_555
Cl13 Rb2 3.598359 1_565
Cl14 Rb3 3.393528 1_554
Cl14 Rb5 3.598359 1_655
Cl15 Rb2 3.393528 1_555
Cl15 Rb4 3.598359 1_545
