# generated using pymatgen
data_Mn2NiO4
_symmetry_space_group_name_H-M   'P 1'
_cell_length_a   5.80121999
_cell_length_b   5.80121999
_cell_length_c   6.20877881
_cell_angle_alpha   63.24452930
_cell_angle_beta   63.24452930
_cell_angle_gamma   92.08695492
_symmetry_Int_Tables_number   1
_chemical_formula_structural   Mn2NiO4
_chemical_formula_sum   'Mn4 Ni2 O8'
_cell_volume   158.93791698
_cell_formula_units_Z   2
loop_
 _symmetry_equiv_pos_site_id
 _symmetry_equiv_pos_as_xyz
  1  'x, y, z'
loop_
 _atom_site_type_symbol
 _atom_site_label
 _atom_site_symmetry_multiplicity
 _atom_site_fract_x
 _atom_site_fract_y
 _atom_site_fract_z
 _atom_site_occupancy
  Mn  Mn0  1  0.49629781  0.00393722  0.00132853  1
  Mn  Mn1  1  0.00393722  0.49629781  0.50132853  1
  Mn  Mn2  1  0.50521279  0.49759092  0.49873503  1
  Mn  Mn3  1  0.49759092  0.50521279  -0.00126497  1
  Ni  Ni0  1  0.86740794  0.11741679  0.25003710  1
  Ni  Ni1  1  0.11741679  0.86740794  0.75003710  1
  O  O0  1  0.27233229  0.73463092  0.48274320  1
  O  O1  1  0.73463092  0.27233229  0.98274320  1
  O  O2  1  0.75504875  0.71736150  0.51730170  1
  O  O3  1  0.27310555  0.25099180  0.99259023  1
  O  O4  1  0.25099180  0.27310555  0.49259023  1
  O  O5  1  0.71736150  0.75504875  0.01730170  1
  O  O6  1  0.74354604  0.26564568  0.50748121  1
  O  O7  1  0.26564568  0.74354604  0.00748121  1
loop_
_geom_bond_atom_site_label_1
_geom_bond_atom_site_label_2
_geom_bond_distance
_geom_bond_site_symmetry_2
Mn0 O7 1.956669 1_545
Mn0 O5 1.964600 1_545
Mn0 O3 1.965178 1_554
Mn0 O1 1.971563 1_554
Mn0 O0 2.283442 1_545
Mn0 O6 2.335404 1_554
Mn1 O6 1.956669 1_455
Mn1 O2 1.964600 1_455
Mn1 O4 1.965178 1_555
Mn1 O0 1.971563 1_555
Mn1 O1 2.283442 1_455
Mn1 O7 2.335404 1_555
Mn2 O4 1.956511 1_555
Mn2 O0 1.964470 1_555
Mn2 O6 1.965312 1_555
Mn2 O2 1.971688 1_555
Mn2 O5 2.283519 1_555
Mn2 O3 2.335453 1_555
Mn3 O3 1.956511 1_554
Mn3 O1 1.964470 1_554
Mn3 O7 1.965312 1_555
Mn3 O5 1.971688 1_555
Mn3 O2 2.283519 1_554
Mn3 O4 2.335453 1_555
Ni0 O2 2.003280 1_545
Ni0 O1 2.003411 1_554
Ni0 O6 2.014726 1_555
Ni0 O3 2.014796 1_654
Ni1 O5 2.003280 1_456
Ni1 O0 2.003411 1_555
Ni1 O7 2.014726 1_556
Ni1 O4 2.014796 1_565
