# generated using pymatgen
data_K2PdCl6
_symmetry_space_group_name_H-M   'P 1'
_cell_length_a   6.88681302
_cell_length_b   6.88681340
_cell_length_c   6.88681317
_cell_angle_alpha   60.00000106
_cell_angle_beta   59.99999923
_cell_angle_gamma   59.99999574
_symmetry_Int_Tables_number   1
_chemical_formula_structural   K2PdCl6
_chemical_formula_sum   'K2 Pd1 Cl6'
_cell_volume   230.96166312
_cell_formula_units_Z   1
loop_
 _symmetry_equiv_pos_site_id
 _symmetry_equiv_pos_as_xyz
  1  'x, y, z'
loop_
 _atom_site_type_symbol
 _atom_site_label
 _atom_site_symmetry_multiplicity
 _atom_site_fract_x
 _atom_site_fract_y
 _atom_site_fract_z
 _atom_site_occupancy
  K  K0  1  0.75000000  0.75000000  0.75000000  1
  K  K1  1  0.25000000  0.25000000  0.25000000  1
  Pd  Pd0  1  0.00000000  -0.00000000  0.00000000  1
  Cl  Cl0  1  0.23886855  0.76113145  0.76113145  1
  Cl  Cl1  1  0.23886855  0.76113145  0.23886855  1
  Cl  Cl2  1  0.76113145  0.23886855  0.76113145  1
  Cl  Cl3  1  0.76113145  0.23886855  0.23886855  1
  Cl  Cl4  1  0.76113145  0.76113145  0.23886855  1
  Cl  Cl5  1  0.23886855  0.23886855  0.76113145  1
loop_
_geom_bond_atom_site_label_1
_geom_bond_atom_site_label_2
_geom_bond_distance
_geom_bond_site_symmetry_2
Cl0 Pd0 2.326442 1_566
Cl0 K0 3.445113 1_555
Cl0 K0 3.445113 1_455
Cl0 K1 3.445113 1_556
Cl0 K1 3.445113 1_565
Cl1 Pd0 2.326442 1_565
Cl1 K0 3.445113 1_554
Cl1 K0 3.445113 1_455
Cl1 K1 3.445113 1_555
Cl1 K1 3.445113 1_565
Cl2 Pd0 2.326442 1_656
Cl2 K1 3.445113 1_556
Cl2 K1 3.445113 1_655
Cl2 K0 3.445113 1_555
Cl2 K0 3.445113 1_545
Cl3 Pd0 2.326442 1_655
Cl3 K1 3.445113 1_555
Cl3 K1 3.445113 1_655
Cl3 K0 3.445113 1_554
Cl3 K0 3.445113 1_545
Cl4 Pd0 2.326442 1_665
Cl4 K1 3.445113 1_565
Cl4 K1 3.445113 1_655
Cl4 K0 3.445113 1_555
Cl4 K0 3.445113 1_554
Cl5 Pd0 2.326442 1_556
Cl5 K0 3.445113 1_545
Cl5 K0 3.445113 1_455
Cl5 K1 3.445113 1_555
Cl5 K1 3.445113 1_556
