# generated using pymatgen
data_Ta2InC
_symmetry_space_group_name_H-M   'P 1'
_cell_length_a   6.33502698
_cell_length_b   6.33502698
_cell_length_c   29.06696000
_cell_angle_alpha   90.00000000
_cell_angle_beta   90.00000000
_cell_angle_gamma   119.99998931
_symmetry_Int_Tables_number   1
_chemical_formula_structural   Ta2InC
_chemical_formula_sum   'Ta32 In16 C16'
_cell_volume   1010.24620720
_cell_formula_units_Z   16
loop_
 _symmetry_equiv_pos_site_id
 _symmetry_equiv_pos_as_xyz
  1  'x, y, z'
loop_
 _atom_site_type_symbol
 _atom_site_label
 _atom_site_symmetry_multiplicity
 _atom_site_fract_x
 _atom_site_fract_y
 _atom_site_fract_z
 _atom_site_occupancy
  Ta  Ta0_0  1  0.16666650  0.33333350  0.04148600  1
  Ta  Ta0_1  1  0.16666650  0.33333350  0.54148600  1
  Ta  Ta0_2  1  0.16666650  0.83333350  0.04148600  1
  Ta  Ta0_3  1  0.16666650  0.83333350  0.54148600  1
  Ta  Ta0_4  1  0.66666650  0.33333350  0.04148600  1
  Ta  Ta0_5  1  0.66666650  0.33333350  0.54148600  1
  Ta  Ta0_6  1  0.66666650  0.83333350  0.04148600  1
  Ta  Ta0_7  1  0.66666650  0.83333350  0.54148600  1
  Ta  Ta1_0  1  0.33333350  0.16666650  0.29148600  1
  Ta  Ta1_1  1  0.33333350  0.16666650  0.79148600  1
  Ta  Ta1_2  1  0.33333350  0.66666650  0.29148600  1
  Ta  Ta1_3  1  0.33333350  0.66666650  0.79148600  1
  Ta  Ta1_4  1  0.83333350  0.16666650  0.29148600  1
  Ta  Ta1_5  1  0.83333350  0.16666650  0.79148600  1
  Ta  Ta1_6  1  0.83333350  0.66666650  0.29148600  1
  Ta  Ta1_7  1  0.83333350  0.66666650  0.79148600  1
  Ta  Ta2_0  1  0.33333350  0.16666650  0.45851400  1
  Ta  Ta2_1  1  0.33333350  0.16666650  0.95851400  1
  Ta  Ta2_2  1  0.33333350  0.66666650  0.45851400  1
  Ta  Ta2_3  1  0.33333350  0.66666650  0.95851400  1
  Ta  Ta2_4  1  0.83333350  0.16666650  0.45851400  1
  Ta  Ta2_5  1  0.83333350  0.16666650  0.95851400  1
  Ta  Ta2_6  1  0.83333350  0.66666650  0.45851400  1
  Ta  Ta2_7  1  0.83333350  0.66666650  0.95851400  1
  Ta  Ta3_0  1  0.16666650  0.33333350  0.20851400  1
  Ta  Ta3_1  1  0.16666650  0.33333350  0.70851400  1
  Ta  Ta3_2  1  0.16666650  0.83333350  0.20851400  1
  Ta  Ta3_3  1  0.16666650  0.83333350  0.70851400  1
  Ta  Ta3_4  1  0.66666650  0.33333350  0.20851400  1
  Ta  Ta3_5  1  0.66666650  0.33333350  0.70851400  1
  Ta  Ta3_6  1  0.66666650  0.83333350  0.20851400  1
  Ta  Ta3_7  1  0.66666650  0.83333350  0.70851400  1
  In  In0_0  1  0.16666650  0.33333350  0.37500000  1
  In  In0_1  1  0.16666650  0.33333350  0.87500000  1
  In  In0_2  1  0.16666650  0.83333350  0.37500000  1
  In  In0_3  1  0.16666650  0.83333350  0.87500000  1
  In  In0_4  1  0.66666650  0.33333350  0.37500000  1
  In  In0_5  1  0.66666650  0.33333350  0.87500000  1
  In  In0_6  1  0.66666650  0.83333350  0.37500000  1
  In  In0_7  1  0.66666650  0.83333350  0.87500000  1
  In  In1_0  1  0.33333350  0.16666650  0.12500000  1
  In  In1_1  1  0.33333350  0.16666650  0.62500000  1
  In  In1_2  1  0.33333350  0.66666650  0.12500000  1
  In  In1_3  1  0.33333350  0.66666650  0.62500000  1
  In  In1_4  1  0.83333350  0.16666650  0.12500000  1
  In  In1_5  1  0.83333350  0.16666650  0.62500000  1
  In  In1_6  1  0.83333350  0.66666650  0.12500000  1
  In  In1_7  1  0.83333350  0.66666650  0.62500000  1
  C  C0_0  1  0.00000000  0.00000000  0.00000000  1
  C  C0_1  1  0.00000000  0.00000000  0.50000000  1
  C  C0_2  1  0.00000000  0.50000000  0.00000000  1
  C  C0_3  1  0.00000000  0.50000000  0.50000000  1
  C  C0_4  1  0.50000000  0.00000000  0.00000000  1
  C  C0_5  1  0.50000000  0.00000000  0.50000000  1
  C  C0_6  1  0.50000000  0.50000000  0.00000000  1
  C  C0_7  1  0.50000000  0.50000000  0.50000000  1
  C  C1_0  1  0.00000000  0.00000000  0.25000000  1
  C  C1_1  1  0.00000000  0.00000000  0.75000000  1
  C  C1_2  1  0.00000000  0.50000000  0.25000000  1
  C  C1_3  1  0.00000000  0.50000000  0.75000000  1
  C  C1_4  1  0.50000000  0.00000000  0.25000000  1
  C  C1_5  1  0.50000000  0.00000000  0.75000000  1
  C  C1_6  1  0.50000000  0.50000000  0.25000000  1
  C  C1_7  1  0.50000000  0.50000000  0.75000000  1
loop_
_geom_bond_atom_site_label_1
_geom_bond_atom_site_label_2
_geom_bond_distance
_geom_bond_site_symmetry_2
In0_0 Ta2_2 3.039263 1_555
In0_0 Ta2_4 3.039263 1_455
In0_0 Ta1_4 3.039263 1_455
In0_0 Ta1_2 3.039263 1_555
In0_0 Ta2_0 3.039266 1_555
In0_0 Ta1_0 3.039266 1_555
In0_0 In0_2 3.167513 1_555
In0_0 In0_4 3.167513 1_455
In0_0 In0_4 3.167513 1_555
In0_0 In0_2 3.167513 1_545
In0_0 In0_6 3.167514 1_445
In0_0 In0_6 3.167514 1_555
In0_1 Ta2_5 3.039263 1_455
In0_1 Ta2_3 3.039263 1_555
In0_1 Ta1_5 3.039263 1_455
In0_1 Ta1_3 3.039263 1_555
In0_1 Ta2_1 3.039266 1_555
In0_1 Ta1_1 3.039266 1_555
In0_1 In0_5 3.167513 1_455
In0_1 In0_3 3.167513 1_555
In0_1 In0_3 3.167513 1_545
In0_1 In0_5 3.167513 1_555
In0_1 In0_7 3.167514 1_445
In0_1 In0_7 3.167514 1_555
In0_2 Ta2_6 3.039263 1_455
In0_2 Ta2_0 3.039263 1_565
In0_2 Ta1_6 3.039263 1_455
In0_2 Ta1_0 3.039263 1_565
In0_2 Ta2_2 3.039266 1_555
In0_2 Ta1_2 3.039266 1_555
In0_2 In0_6 3.167513 1_455
In0_2 In0_6 3.167513 1_555
In0_2 In0_4 3.167514 1_455
In0_2 In0_4 3.167514 1_565
In0_3 Ta2_7 3.039263 1_455
In0_3 Ta2_1 3.039263 1_565
In0_3 Ta1_7 3.039263 1_455
In0_3 Ta1_1 3.039263 1_565
In0_3 Ta2_3 3.039266 1_555
In0_3 Ta1_3 3.039266 1_555
In0_3 In0_7 3.167513 1_455
In0_3 In0_7 3.167513 1_555
In0_3 In0_5 3.167514 1_455
In0_3 In0_5 3.167514 1_565
In0_4 Ta2_0 3.039263 1_555
In0_4 Ta2_6 3.039263 1_555
In0_4 Ta1_0 3.039263 1_555
In0_4 Ta1_6 3.039263 1_555
In0_4 Ta2_4 3.039266 1_555
In0_4 Ta1_4 3.039266 1_555
In0_4 In0_6 3.167513 1_555
In0_4 In0_6 3.167513 1_545
In0_5 Ta2_1 3.039263 1_555
In0_5 Ta2_7 3.039263 1_555
In0_5 Ta1_1 3.039263 1_555
In0_5 Ta1_7 3.039263 1_555
In0_5 Ta2_5 3.039266 1_555
In0_5 Ta1_5 3.039266 1_555
In0_5 In0_7 3.167513 1_545
In0_5 In0_7 3.167513 1_555
In0_6 Ta2_4 3.039263 1_565
In0_6 Ta2_2 3.039263 1_555
In0_6 Ta1_4 3.039263 1_565
In0_6 Ta1_2 3.039263 1_555
In0_6 Ta2_6 3.039266 1_555
In0_6 Ta1_6 3.039266 1_555
In0_7 Ta2_5 3.039263 1_565
In0_7 Ta2_3 3.039263 1_555
In0_7 Ta1_5 3.039263 1_565
In0_7 Ta1_3 3.039263 1_555
In0_7 Ta2_7 3.039266 1_555
In0_7 Ta1_7 3.039266 1_555
In1_0 Ta3_4 3.039263 1_555
In1_0 Ta3_2 3.039263 1_545
In1_0 Ta0_2 3.039263 1_545
In1_0 Ta0_4 3.039263 1_555
In1_0 Ta3_0 3.039266 1_555
In1_0 Ta0_0 3.039266 1_555
In1_0 In1_2 3.167513 1_545
In1_0 In1_4 3.167513 1_555
In1_0 In1_2 3.167513 1_555
In1_0 In1_4 3.167513 1_455
In1_0 In1_6 3.167514 1_445
In1_0 In1_6 3.167514 1_555
In1_1 Ta3_5 3.039263 1_555
In1_1 Ta3_3 3.039263 1_545
In1_1 Ta0_3 3.039263 1_545
In1_1 Ta0_5 3.039263 1_555
In1_1 Ta3_1 3.039266 1_555
In1_1 Ta0_1 3.039266 1_555
In1_1 In1_3 3.167513 1_545
In1_1 In1_5 3.167513 1_555
In1_1 In1_3 3.167513 1_555
In1_1 In1_5 3.167513 1_455
In1_1 In1_7 3.167514 1_445
In1_1 In1_7 3.167514 1_555
In1_2 Ta3_0 3.039263 1_555
In1_2 Ta3_6 3.039263 1_555
In1_2 Ta0_0 3.039263 1_555
In1_2 Ta0_6 3.039263 1_555
In1_2 Ta3_2 3.039266 1_555
In1_2 Ta0_2 3.039266 1_555
In1_2 In1_6 3.167513 1_455
In1_2 In1_6 3.167513 1_555
In1_2 In1_4 3.167514 1_455
In1_2 In1_4 3.167514 1_565
In1_3 Ta3_1 3.039263 1_555
In1_3 Ta3_7 3.039263 1_555
In1_3 Ta0_1 3.039263 1_555
In1_3 Ta0_7 3.039263 1_555
In1_3 Ta3_3 3.039266 1_555
In1_3 Ta0_3 3.039266 1_555
In1_3 In1_7 3.167513 1_455
In1_3 In1_7 3.167513 1_555
In1_3 In1_5 3.167514 1_455
In1_3 In1_5 3.167514 1_565
In1_4 Ta3_6 3.039263 1_545
In1_4 Ta3_0 3.039263 1_655
In1_4 Ta0_6 3.039263 1_545
In1_4 Ta0_0 3.039263 1_655
In1_4 Ta3_4 3.039266 1_555
In1_4 Ta0_4 3.039266 1_555
In1_4 In1_6 3.167513 1_545
In1_4 In1_6 3.167513 1_555
In1_5 Ta3_7 3.039263 1_545
In1_5 Ta3_1 3.039263 1_655
In1_5 Ta0_7 3.039263 1_545
In1_5 Ta0_1 3.039263 1_655
In1_5 Ta3_5 3.039266 1_555
In1_5 Ta0_5 3.039266 1_555
In1_5 In1_7 3.167513 1_545
In1_5 In1_7 3.167513 1_555
In1_6 Ta3_2 3.039263 1_655
In1_6 Ta3_4 3.039263 1_555
In1_6 Ta0_2 3.039263 1_655
In1_6 Ta0_4 3.039263 1_555
In1_6 Ta3_6 3.039266 1_555
In1_6 Ta0_6 3.039266 1_555
In1_7 Ta3_3 3.039263 1_655
In1_7 Ta3_5 3.039263 1_555
In1_7 Ta0_3 3.039263 1_655
In1_7 Ta0_5 3.039263 1_555
In1_7 Ta3_7 3.039266 1_555
In1_7 Ta0_7 3.039266 1_555
C0_0 Ta0_2 2.190548 1_545
C0_0 Ta2_5 2.190548 1_454
C0_0 Ta0_6 2.190551 1_445
C0_0 Ta0_0 2.190551 1_555
C0_0 Ta2_7 2.190551 1_444
C0_0 Ta2_1 2.190551 1_554
C0_1 Ta0_3 2.190548 1_545
C0_1 Ta2_4 2.190548 1_455
C0_1 Ta0_7 2.190551 1_445
C0_1 Ta0_1 2.190551 1_555
C0_1 Ta2_6 2.190551 1_445
C0_1 Ta2_0 2.190551 1_555
C0_2 Ta0_0 2.190548 1_555
C0_2 Ta2_7 2.190548 1_454
C0_2 Ta0_2 2.190551 1_555
C0_2 Ta0_4 2.190551 1_455
C0_2 Ta2_3 2.190551 1_554
C0_2 Ta2_5 2.190551 1_454
C0_3 Ta0_1 2.190548 1_555
C0_3 Ta2_6 2.190548 1_455
C0_3 Ta0_5 2.190551 1_455
C0_3 Ta0_3 2.190551 1_555
C0_3 Ta2_2 2.190551 1_555
C0_3 Ta2_4 2.190551 1_455
C0_4 Ta0_6 2.190548 1_545
C0_4 Ta2_1 2.190548 1_554
C0_4 Ta0_2 2.190551 1_545
C0_4 Ta0_4 2.190551 1_555
C0_4 Ta2_3 2.190551 1_544
C0_4 Ta2_5 2.190551 1_554
C0_5 Ta0_7 2.190548 1_545
C0_5 Ta2_0 2.190548 1_555
C0_5 Ta0_3 2.190551 1_545
C0_5 Ta0_5 2.190551 1_555
C0_5 Ta2_4 2.190551 1_555
C0_5 Ta2_2 2.190551 1_545
C0_6 Ta0_4 2.190548 1_555
C0_6 Ta2_3 2.190548 1_554
C0_6 Ta0_0 2.190551 1_555
C0_6 Ta0_6 2.190551 1_555
C0_6 Ta2_1 2.190551 1_554
C0_6 Ta2_7 2.190551 1_554
C0_7 Ta0_5 2.190548 1_555
C0_7 Ta2_2 2.190548 1_555
C0_7 Ta0_1 2.190551 1_555
C0_7 Ta0_7 2.190551 1_555
C0_7 Ta2_0 2.190551 1_555
C0_7 Ta2_6 2.190551 1_555
C1_0 Ta1_4 2.190548 1_455
C1_0 Ta3_2 2.190548 1_545
C1_0 Ta1_6 2.190551 1_445
C1_0 Ta1_0 2.190551 1_555
C1_0 Ta3_6 2.190551 1_445
C1_0 Ta3_0 2.190551 1_555
C1_1 Ta1_5 2.190548 1_455
C1_1 Ta3_3 2.190548 1_545
C1_1 Ta1_7 2.190551 1_445
C1_1 Ta1_1 2.190551 1_555
C1_1 Ta3_7 2.190551 1_445
C1_1 Ta3_1 2.190551 1_555
C1_2 Ta1_6 2.190548 1_455
C1_2 Ta3_0 2.190548 1_555
C1_2 Ta1_4 2.190551 1_455
C1_2 Ta1_2 2.190551 1_555
C1_2 Ta3_2 2.190551 1_555
C1_2 Ta3_4 2.190551 1_455
C1_3 Ta1_7 2.190548 1_455
C1_3 Ta3_1 2.190548 1_555
C1_3 Ta1_3 2.190551 1_555
C1_3 Ta1_5 2.190551 1_455
C1_3 Ta3_3 2.190551 1_555
C1_3 Ta3_5 2.190551 1_455
C1_4 Ta1_0 2.190548 1_555
C1_4 Ta3_6 2.190548 1_545
C1_4 Ta1_4 2.190551 1_555
C1_4 Ta1_2 2.190551 1_545
C1_4 Ta3_2 2.190551 1_545
C1_4 Ta3_4 2.190551 1_555
C1_5 Ta1_1 2.190548 1_555
C1_5 Ta3_7 2.190548 1_545
C1_5 Ta1_5 2.190551 1_555
C1_5 Ta1_3 2.190551 1_545
C1_5 Ta3_5 2.190551 1_555
C1_5 Ta3_3 2.190551 1_545
C1_6 Ta1_2 2.190548 1_555
C1_6 Ta3_4 2.190548 1_555
C1_6 Ta1_0 2.190551 1_555
C1_6 Ta1_6 2.190551 1_555
C1_6 Ta3_0 2.190551 1_555
C1_6 Ta3_6 2.190551 1_555
C1_7 Ta1_3 2.190548 1_555
C1_7 Ta3_5 2.190548 1_555
C1_7 Ta1_1 2.190551 1_555
C1_7 Ta1_7 2.190551 1_555
C1_7 Ta3_1 2.190551 1_555
C1_7 Ta3_7 2.190551 1_555
