# generated using pymatgen
data_Sc2SiB2Ir5
_symmetry_space_group_name_H-M   'P 1'
_cell_length_a   9.24687700
_cell_length_b   9.24687700
_cell_length_c   3.13392900
_cell_angle_alpha   90.00000000
_cell_angle_beta   90.00000000
_cell_angle_gamma   90.00000000
_symmetry_Int_Tables_number   1
_chemical_formula_structural   Sc2SiB2Ir5
_chemical_formula_sum   'Sc4 Si2 B4 Ir10'
_cell_volume   267.96576631
_cell_formula_units_Z   2
loop_
 _symmetry_equiv_pos_site_id
 _symmetry_equiv_pos_as_xyz
  1  'x, y, z'
loop_
 _atom_site_type_symbol
 _atom_site_label
 _atom_site_symmetry_multiplicity
 _atom_site_fract_x
 _atom_site_fract_y
 _atom_site_fract_z
 _atom_site_occupancy
  Sc  Sc0  1  0.17536000  0.67536000  0.00000000  1
  Sc  Sc1  1  0.67536000  0.82464000  0.00000000  1
  Sc  Sc2  1  0.32464000  0.17536000  0.00000000  1
  Sc  Sc3  1  0.82464000  0.32464000  0.00000000  1
  Si  Si0  1  0.00000000  0.00000000  0.00000000  1
  Si  Si1  1  0.50000000  0.50000000  0.00000000  1
  B  B0  1  0.37648700  0.87648700  0.00000000  1
  B  B1  1  0.87648700  0.62351300  0.00000000  1
  B  B2  1  0.12351300  0.37648700  0.00000000  1
  B  B3  1  0.62351300  0.12351300  0.00000000  1
  Ir  Ir0  1  0.00000000  0.50000000  0.50000000  1
  Ir  Ir1  1  0.50000000  0.00000000  0.50000000  1
  Ir  Ir2  1  0.28772200  0.42984600  0.50000000  1
  Ir  Ir3  1  0.71227900  0.57015400  0.50000000  1
  Ir  Ir4  1  0.57015400  0.28772200  0.50000000  1
  Ir  Ir5  1  0.42984600  0.71227900  0.50000000  1
  Ir  Ir6  1  0.92984600  0.78772100  0.50000000  1
  Ir  Ir7  1  0.78772100  0.07015400  0.50000000  1
  Ir  Ir8  1  0.21227800  0.92984600  0.50000000  1
  Ir  Ir9  1  0.07015400  0.21227800  0.50000000  1
loop_
_geom_bond_atom_site_label_1
_geom_bond_atom_site_label_2
_geom_bond_distance
_geom_bond_site_symmetry_2
B0 Ir5 2.237051 1_555
B0 Ir5 2.237051 1_554
B0 Ir8 2.237057 1_555
B0 Ir8 2.237057 1_554
B0 Ir1 2.250379 1_565
B0 Ir1 2.250379 1_564
B0 Sc0 2.630150 1_555
B0 Sc2 2.804918 1_565
B0 Sc1 2.804918 1_555
B1 Ir3 2.237051 1_555
B1 Ir3 2.237051 1_554
B1 Ir6 2.237051 1_555
B1 Ir6 2.237051 1_554
B1 Ir0 2.250379 1_655
B1 Ir0 2.250379 1_654
B1 Sc1 2.630150 1_555
B1 Sc3 2.804918 1_555
B1 Sc0 2.804918 1_655
B2 Ir9 2.237057 1_555
B2 Ir9 2.237057 1_554
B2 Ir2 2.237057 1_555
B2 Ir2 2.237057 1_554
B2 Ir0 2.250379 1_555
B2 Ir0 2.250379 1_554
B2 Sc2 2.630150 1_555
B2 Sc3 2.804918 1_455
B2 Sc0 2.804918 1_555
B3 Ir7 2.237051 1_554
B3 Ir7 2.237051 1_555
B3 Ir4 2.237057 1_555
B3 Ir4 2.237057 1_554
B3 Ir1 2.250379 1_554
B3 Ir1 2.250379 1_555
B3 Sc3 2.630150 1_555
B3 Sc1 2.804918 1_545
B3 Sc2 2.804918 1_555
Ir0 Sc3 2.777429 1_456
Ir0 Sc3 2.777429 1_455
Ir0 Sc0 2.777429 1_555
Ir0 Sc0 2.777429 1_556
Ir1 Sc2 2.777429 1_556
Ir1 Sc2 2.777429 1_555
Ir1 Sc1 2.777429 1_546
Ir1 Sc1 2.777429 1_545
Ir2 Si1 2.594071 1_556
Ir2 Si1 2.594071 1_555
Ir2 Sc2 2.847713 1_556
Ir2 Sc2 2.847713 1_555
Ir2 Sc0 2.947689 1_555
Ir2 Sc0 2.947689 1_556
Ir3 Si1 2.594078 1_555
Ir3 Si1 2.594078 1_556
Ir3 Sc1 2.847714 1_556
Ir3 Sc1 2.847714 1_555
Ir3 Sc3 2.947686 1_555
Ir3 Sc3 2.947686 1_556
Ir4 Si1 2.594071 1_556
Ir4 Si1 2.594071 1_555
Ir4 Sc3 2.847713 1_555
Ir4 Sc3 2.847713 1_556
Ir4 Sc2 2.947689 1_556
Ir4 Sc2 2.947689 1_555
Ir5 Si1 2.594078 1_555
Ir5 Si1 2.594078 1_556
Ir5 Sc0 2.847714 1_555
Ir5 Sc0 2.847714 1_556
Ir5 Sc1 2.947686 1_555
Ir5 Sc1 2.947686 1_556
Ir6 Si0 2.594078 1_666
Ir6 Si0 2.594078 1_665
Ir6 Sc1 2.847714 1_555
Ir6 Sc1 2.847714 1_556
Ir6 Sc0 2.947686 1_656
Ir6 Sc0 2.947686 1_655
Ir7 Si0 2.594078 1_655
Ir7 Si0 2.594078 1_656
Ir7 Sc3 2.847714 1_555
Ir7 Sc3 2.847714 1_556
Ir7 Sc1 2.947686 1_545
Ir7 Sc1 2.947686 1_546
Ir8 Si0 2.594071 1_565
Ir8 Si0 2.594071 1_566
Ir8 Sc0 2.847713 1_555
Ir8 Sc0 2.847713 1_556
Ir8 Sc2 2.947689 1_566
Ir8 Sc2 2.947689 1_565
Ir9 Si0 2.594071 1_556
Ir9 Si0 2.594071 1_555
Ir9 Sc2 2.847713 1_555
Ir9 Sc2 2.847713 1_556
Ir9 Sc3 2.947689 1_455
Ir9 Sc3 2.947689 1_456
