# generated using pymatgen
data_Na3YHf3(PO4)6
_symmetry_space_group_name_H-M   'P 1'
_cell_length_a   8.98903146
_cell_length_b   8.99591537
_cell_length_c   23.17821279
_cell_angle_alpha   89.88261995
_cell_angle_beta   90.10217360
_cell_angle_gamma   120.33348235
_symmetry_Int_Tables_number   1
_chemical_formula_structural   Na3YHf3(PO4)6
_chemical_formula_sum   'Na9 Y3 Hf9 P18 O72'
_cell_volume   1617.70204753
_cell_formula_units_Z   3
loop_
 _symmetry_equiv_pos_site_id
 _symmetry_equiv_pos_as_xyz
  1  'x, y, z'
loop_
 _atom_site_type_symbol
 _atom_site_label
 _atom_site_symmetry_multiplicity
 _atom_site_fract_x
 _atom_site_fract_y
 _atom_site_fract_z
 _atom_site_occupancy
  Na  Na0  1  0.36143930  0.35561023  0.24681051  1
  Na  Na1  1  0.63510136  0.63088465  0.74895801  1
  Na  Na2  1  0.96998436  0.29841494  0.41505673  1
  Na  Na3  1  0.00050005  0.98781883  0.50089563  1
  Na  Na4  1  0.99979357  0.99997589  0.00252138  1
  Na  Na5  1  0.66703995  0.32054493  0.83482090  1
  Na  Na6  1  0.66796897  0.33396348  0.32859274  1
  Na  Na7  1  0.33238574  0.67925927  0.16391523  1
  Na  Na8  1  0.31977074  0.66703051  0.66502794  1
  Y  Y0  1  0.99688594  0.98716860  0.35416075  1
  Y  Y1  1  0.66755713  0.32474901  0.68539788  1
  Y  Y2  1  0.67606608  0.33331833  0.18022686  1
  Hf  Hf0  1  0.00302730  0.00258665  0.85632592  1
  Hf  Hf1  1  0.00298885  0.00404409  0.64605087  1
  Hf  Hf2  1  0.99649819  0.99701228  0.14638108  1
  Hf  Hf3  1  0.66616058  0.33418620  0.98160350  1
  Hf  Hf4  1  0.66032395  0.33406036  0.48301826  1
  Hf  Hf5  1  0.33379692  0.66542663  0.01699949  1
  Hf  Hf6  1  0.33731752  0.66845065  0.52062440  1
  Hf  Hf7  1  0.33621787  0.67518338  0.31355512  1
  Hf  Hf8  1  0.32718795  0.66707257  0.81534482  1
  P  P0  1  0.29042894  0.99595221  0.24895901  1
  P  P1  1  0.69964243  0.70520408  0.24912452  1
  P  P2  1  0.00440045  0.29548243  0.25280714  1
  P  P3  1  0.28467287  0.29224048  0.75189702  1
  P  P4  1  0.00726148  0.72009618  0.75154988  1
  P  P5  1  0.71220953  0.99440886  0.75250153  1
  P  P6  1  0.96337449  0.33131133  0.58085813  1
  P  P7  1  0.36649961  0.03478425  0.58252774  1
  P  P8  1  0.66873461  0.63144508  0.58493877  1
  P  P9  1  0.96784294  0.63543037  0.08039564  1
  P  P10  1  0.66777929  0.03453306  0.08072300  1
  P  P11  1  0.36720880  0.33257171  0.08289601  1
  P  P12  1  0.62279573  0.66342770  0.91523247  1
  P  P13  1  0.03906720  0.37560631  0.91696988  1
  P  P14  1  0.33621437  0.95904618  0.91681058  1
  P  P15  1  0.61940408  0.96256936  0.41879027  1
  P  P16  1  0.34215295  0.38484477  0.41684345  1
  P  P17  1  0.04251719  0.65902437  0.41937681  1
  O  O0  1  0.21199616  0.02448901  0.30330208  1
  O  O1  1  0.80150899  0.78255527  0.30417523  1
  O  O2  1  0.98684716  0.20023623  0.30965119  1
  O  O3  1  0.19329991  0.18327613  0.80549247  1
  O  O4  1  0.98816821  0.81201204  0.80475548  1
  O  O5  1  0.82031178  0.00805672  0.80591166  1
  O  O6  1  0.79827593  0.97070136  0.69763226  1
  O  O7  1  0.17908250  0.20425014  0.69662845  1
  O  O8  1  0.02652199  0.82621069  0.69631866  1
  O  O9  1  0.79441707  0.81775900  0.19547377  1
  O  O10  1  0.02761498  0.19804828  0.20057600  1
  O  O11  1  0.17615749  0.97426549  0.19539045  1
  O  O12  1  0.88698791  0.36365594  0.63455517  1
  O  O13  1  0.47248640  0.10816975  0.63709371  1
  O  O14  1  0.63741644  0.53071777  0.64124175  1
  O  O15  1  0.89977894  0.53161151  0.13562544  1
  O  O16  1  0.63180785  0.10201809  0.13581048  1
  O  O17  1  0.46637774  0.36503356  0.13957738  1
  O  O18  1  0.46742183  0.30948820  0.03203346  1
  O  O19  1  0.84637448  0.53834918  0.02866995  1
  O  O20  1  0.69272388  0.15595524  0.02899951  1
  O  O21  1  0.46084679  0.15343723  0.52997415  1
  O  O22  1  0.69089343  0.53329185  0.53326103  1
  O  O23  1  0.84888194  0.30671403  0.52685127  1
  O  O24  1  0.53267333  0.68903478  0.96699800  1
  O  O25  1  0.15275417  0.46240909  0.96958305  1
  O  O26  1  0.30937616  0.84509747  0.96926106  1
  O  O27  1  0.52754940  0.85288683  0.47175393  1
  O  O28  1  0.32432699  0.48157100  0.46851979  1
  O  O29  1  0.15151079  0.67196972  0.47199533  1
  O  O30  1  0.12926477  0.63686569  0.36415421  1
  O  O31  1  0.51417429  0.87367712  0.36338675  1
  O  O32  1  0.36065937  0.48717642  0.36024257  1
  O  O33  1  0.12769065  0.48807055  0.86270267  1
  O  O34  1  0.35985097  0.87172539  0.86242104  1
  O  O35  1  0.51482146  0.63996560  0.85956674  1
  O  O36  1  0.02034550  0.81514653  0.41830862  1
  O  O37  1  0.80294915  0.99142503  0.41698275  1
  O  O38  1  0.17614728  0.20800627  0.41589043  1
  O  O39  1  0.02073331  0.19594132  0.90994227  1
  O  O40  1  0.17498332  0.97777061  0.90979204  1
  O  O41  1  0.80465028  0.82522065  0.90953587  1
  O  O42  1  0.97707499  0.16686778  0.58801652  1
  O  O43  1  0.18795733  0.02096860  0.58786949  1
  O  O44  1  0.83355048  0.81165394  0.58883924  1
  O  O45  1  0.98100607  0.81391704  0.08672502  1
  O  O46  1  0.83319920  0.02143999  0.08742913  1
  O  O47  1  0.18623938  0.16775768  0.08788793  1
  O  O48  1  0.69041457  0.15125148  0.75010765  1
  O  O49  1  0.46849761  0.32116585  0.74921450  1
  O  O50  1  0.84101454  0.54313561  0.74853207  1
  O  O51  1  0.66307251  0.51932791  0.24410857  1
  O  O52  1  0.85231490  0.32410770  0.24655111  1
  O  O53  1  0.46979922  0.15657080  0.24314914  1
  O  O54  1  0.64005192  0.50162596  0.92310160  1
  O  O55  1  0.85903802  0.35694533  0.92325259  1
  O  O56  1  0.49780608  0.14019900  0.92337187  1
  O  O57  1  0.63738396  0.14412472  0.42347818  1
  O  O58  1  0.50391074  0.36699933  0.42379467  1
  O  O59  1  0.86348311  0.48935523  0.42400857  1
  O  O60  1  0.34427618  0.48912445  0.07094726  1
  O  O61  1  0.14887037  0.66069500  0.06989447  1
  O  O62  1  0.51248886  0.85250358  0.06988781  1
  O  O63  1  0.34016121  0.85326093  0.57324391  1
  O  O64  1  0.51256287  0.65562244  0.57411830  1
  O  O65  1  0.14719049  0.48686799  0.57283730  1
  O  O66  1  0.30390631  0.83093898  0.25514551  1
  O  O67  1  0.51940587  0.69270640  0.25421820  1
  O  O68  1  0.17783124  0.47382871  0.25589025  1
  O  O69  1  0.30322466  0.47449248  0.75691557  1
  O  O70  1  0.16859866  0.70052662  0.75718939  1
  O  O71  1  0.53282145  0.82438251  0.75741319  1
loop_
_geom_bond_atom_site_label_1
_geom_bond_atom_site_label_2
_geom_bond_distance
_geom_bond_site_symmetry_2
Na0 O51 2.343374 1_555
Na0 O68 2.382091 1_555
Na0 O53 2.434043 1_555
Na0 O67 2.625579 1_555
Na0 O17 2.645996 1_555
Na0 O10 2.803683 1_555
Na0 O32 2.886953 1_555
Na0 O0 2.887986 1_555
Na1 O50 2.350573 1_555
Na1 O71 2.352070 1_555
Na1 O49 2.406476 1_555
Na1 O69 2.583543 1_555
Na1 O14 2.659720 1_555
Na1 O35 2.801472 1_555
Na1 O6 2.893788 1_555
Na2 O59 2.360746 1_555
Na2 O38 2.370320 1_655
Na2 O37 2.386338 1_545
Na2 O57 2.590890 1_555
Na2 O2 2.630060 1_555
Na2 O23 2.828048 1_555
Na2 O30 2.881000 1_655
Na3 O36 2.530264 1_555
Na3 O43 2.544600 1_565
Na3 O44 2.552265 1_455
Na3 O37 2.642524 1_455
Na3 O42 2.659651 1_465
Na3 O38 2.671061 1_565
Na4 O45 2.518213 1_555
Na4 O47 2.539167 1_665
Na4 O46 2.541073 1_565
Na4 O39 2.720022 1_664
Na4 O41 2.721858 1_554
Na4 O40 2.733298 1_654
Na5 O48 2.560430 1_555
Na5 O56 2.581372 1_555
Na5 O55 2.589672 1_555
Na5 O49 2.668268 1_555
Na5 O50 2.699467 1_555
Na5 O54 2.704430 1_555
Na6 O52 2.555414 1_555
Na6 O51 2.584092 1_555
Na6 O53 2.602112 1_555
Na6 O57 2.709504 1_555
Na6 O59 2.729687 1_555
Na6 O58 2.754857 1_555
Na7 O66 2.601022 1_555
Na7 O67 2.646661 1_555
Na7 O61 2.684887 1_555
Na7 O62 2.692542 1_555
Na7 O68 2.700210 1_555
Na7 O60 2.789426 1_555
Na8 O70 2.631929 1_555
Na8 O63 2.653806 1_555
Na8 O65 2.657468 1_555
Na8 O69 2.698881 1_555
Na8 O71 2.741583 1_555
Na8 O64 2.765392 1_555
Hf0 O5 2.034697 1_455
Hf0 O3 2.036403 1_555
Hf0 O4 2.040168 1_445
Hf0 O40 2.077354 1_545
Hf0 O39 2.079364 1_555
Hf0 O41 2.091091 1_445
Hf1 O7 2.060603 1_555
Hf1 O8 2.072398 1_545
Hf1 O42 2.084364 1_455
Hf1 O6 2.086729 1_445
Hf1 O43 2.087518 1_555
Hf1 O44 2.100779 1_445
Hf2 O9 2.058145 1_555
Hf2 O11 2.065589 1_655
Hf2 O46 2.094637 1_565
Hf2 O45 2.102675 1_555
Hf2 O10 2.103311 1_665
Hf2 O47 2.111874 1_665
Hf3 O19 2.045547 1_556
Hf3 O18 2.052456 1_556
Hf3 O20 2.052588 1_556
Hf3 O56 2.119463 1_555
Hf3 O54 2.123713 1_555
Hf3 O55 2.127387 1_555
Hf4 O21 2.024049 1_555
Hf4 O22 2.038098 1_555
Hf4 O58 2.088351 1_555
Hf4 O23 2.092745 1_555
Hf4 O57 2.125851 1_555
Hf4 O59 2.140457 1_555
Hf5 O62 2.045986 1_555
Hf5 O25 2.047324 1_554
Hf5 O61 2.050312 1_555
Hf5 O24 2.051108 1_554
Hf5 O60 2.056734 1_555
Hf5 O26 2.057945 1_554
Hf6 O27 2.023240 1_555
Hf6 O29 2.026728 1_555
Hf6 O28 2.026810 1_555
Hf6 O64 2.051401 1_555
Hf6 O63 2.053642 1_555
Hf6 O65 2.057481 1_555
Hf7 O31 2.048937 1_555
Hf7 O66 2.069388 1_555
Hf7 O30 2.076881 1_555
Hf7 O67 2.091155 1_555
Hf7 O32 2.108729 1_555
Hf7 O68 2.119616 1_555
Hf8 O33 2.024054 1_555
Hf8 O34 2.031582 1_555
Hf8 O35 2.088795 1_555
Hf8 O70 2.089155 1_555
Hf8 O69 2.124490 1_555
Hf8 O71 2.140396 1_555
O0 P0 1.528664 1_545
O0 Y0 2.142906 1_445
O1 P1 1.518775 1_555
O1 Y0 2.133324 1_555
O2 P2 1.534447 1_655
O2 Y0 2.216440 1_545
O3 P3 1.537559 1_555
O4 P4 1.543454 1_655
O5 P5 1.538731 1_545
O6 P5 1.559713 1_555
O7 P3 1.552234 1_555
O8 P4 1.552060 1_555
O9 P1 1.557146 1_555
O10 P2 1.570803 1_555
O11 P0 1.558473 1_555
O12 P6 1.520364 1_555
O12 Y1 2.170518 1_555
O13 P7 1.518850 1_555
O13 Y1 2.162271 1_555
O14 P8 1.530414 1_555
O14 Y1 2.247740 1_555
O15 P9 1.518567 1_555
O15 Y2 2.161310 1_555
O16 P10 1.518661 1_555
O16 Y2 2.172294 1_555
O17 P11 1.529832 1_555
O17 Y2 2.248931 1_555
O18 P11 1.561455 1_555
O19 P9 1.558445 1_555
O20 P10 1.558483 1_555
O21 P7 1.557674 1_555
O22 P8 1.561050 1_555
O23 P6 1.562576 1_555
O24 P12 1.530373 1_555
O25 P13 1.527962 1_555
O26 P14 1.527441 1_555
O27 P15 1.529080 1_555
O28 P16 1.537287 1_555
O29 P17 1.530351 1_555
O30 P17 1.564511 1_555
O31 P15 1.555352 1_555
O32 P16 1.561207 1_555
O33 P13 1.557108 1_555
O34 P14 1.557254 1_555
O35 P12 1.562374 1_555
O36 P17 1.515063 1_555
O36 Y0 2.229116 1_455
O37 P15 1.535868 1_555
O37 Y0 2.288561 1_555
O38 P16 1.536301 1_555
O38 Y0 2.315254 1_445
O39 P13 1.548515 1_555
O40 P14 1.549506 1_555
O41 P12 1.550758 1_555
O42 P6 1.553713 1_555
O43 P7 1.551039 1_555
O44 P8 1.550934 1_555
O45 P9 1.556484 1_555
O46 P10 1.557274 1_555
O47 P11 1.556192 1_555
O48 P5 1.520220 1_545
O48 Y1 2.245219 1_555
O49 P3 1.538838 1_555
O49 Y1 2.311213 1_555
O50 P4 1.539322 1_655
O50 Y1 2.311214 1_555
O51 P1 1.537218 1_555
O51 Y2 2.283464 1_555
O52 P2 1.520208 1_655
O52 Y2 2.236850 1_555
O53 P0 1.533763 1_545
O53 Y2 2.261711 1_555
O54 P12 1.550107 1_555
O55 P13 1.547444 1_655
O56 P14 1.548555 1_545
O57 P15 1.561888 1_545
O58 P16 1.549456 1_555
O59 P17 1.565256 1_655
O60 P11 1.547269 1_555
O61 P9 1.544830 1_455
O62 P10 1.544251 1_565
O63 P7 1.542626 1_565
O64 P8 1.545275 1_555
O65 P6 1.545164 1_455
O66 P0 1.555484 1_555
O67 P1 1.571024 1_555
O68 P2 1.575839 1_555
O69 P3 1.566502 1_555
O70 P4 1.551921 1_555
O71 P5 1.568882 1_555
