# generated using pymatgen
data_MgTi3(SnO4)3
_symmetry_space_group_name_H-M   'P 1'
_cell_length_a   8.27701600
_cell_length_b   5.94411881
_cell_length_c   6.08930739
_cell_angle_alpha   68.00673803
_cell_angle_beta   65.75700828
_cell_angle_gamma   67.13784076
_symmetry_Int_Tables_number   1
_chemical_formula_structural   MgTi3(SnO4)3
_chemical_formula_sum   'Mg1 Ti3 Sn3 O12'
_cell_volume   243.33269955
_cell_formula_units_Z   1
loop_
 _symmetry_equiv_pos_site_id
 _symmetry_equiv_pos_as_xyz
  1  'x, y, z'
loop_
 _atom_site_type_symbol
 _atom_site_label
 _atom_site_symmetry_multiplicity
 _atom_site_fract_x
 _atom_site_fract_y
 _atom_site_fract_z
 _atom_site_occupancy
  Mg  Mg0  1  -0.00097698  0.01047402  0.49845996  1
  Ti  Ti0  1  0.68978085  0.30402512  0.27824411  1
  Ti  Ti1  1  0.22557346  0.36402553  0.36720691  1
  Ti  Ti2  1  0.00595122  0.98475253  0.00262326  1
  Sn  Sn0  1  0.79646804  0.62420960  0.62566336  1
  Sn  Sn1  1  0.33839639  0.67184887  0.68549187  1
  Sn  Sn2  1  0.48716044  0.99410606  0.98915516  1
  O  O0  1  0.33095562  0.41118637  0.02917533  1
  O  O1  1  0.72075102  0.00579373  0.59603490  1
  O  O2  1  0.27269246  0.93530409  0.88438242  1
  O  O3  1  0.62137179  0.56379480  0.51564824  1
  O  O4  1  0.94567347  0.24226836  0.18439905  1
  O  O5  1  0.73925187  0.06365686  0.11948656  1
  O  O6  1  0.38423459  0.41762017  0.47205853  1
  O  O7  1  0.05022039  0.76366553  0.80657028  1
  O  O8  1  0.65702122  0.57753134  0.99717220  1
  O  O9  1  0.99051919  0.28104279  0.65347885  1
  O  O10  1  0.28387637  0.00425815  0.39470693  1
  O  O11  1  0.03250559  0.70900609  0.32861210  1
loop_
_geom_bond_atom_site_label_1
_geom_bond_atom_site_label_2
_geom_bond_distance
_geom_bond_site_symmetry_2
Mg0 O7 1.990010 1_545
Mg0 O4 1.999465 1_455
Mg0 O9 2.115936 1_455
Mg0 O1 2.138313 1_455
Mg0 O10 2.164709 1_555
Mg0 O11 2.263734 1_545
O0 Ti1 1.832951 1_555
O0 Sn1 2.079390 1_554
O0 Sn2 2.362292 1_544
O1 Sn0 2.061982 1_545
O1 Ti0 2.106621 1_555
O1 Sn2 2.377475 1_545
O2 Ti2 1.956554 1_556
O2 Sn1 2.105427 1_555
O2 Sn2 2.293377 1_555
O3 Sn0 2.014958 1_555
O3 Sn1 2.075415 1_555
O3 Ti0 2.261644 1_555
O4 Ti0 1.872530 1_555
O4 Ti2 2.009797 1_645
O5 Ti0 1.843500 1_555
O5 Ti2 1.937727 1_645
O5 Sn2 2.725883 1_544
O6 Ti1 1.843835 1_555
O6 Sn1 2.176528 1_555
O6 Ti0 2.250235 1_555
O7 Ti2 1.930858 1_556
O7 Sn1 2.092003 1_555
O8 Ti0 1.897477 1_556
O8 Sn0 2.039931 1_555
O8 Sn2 2.317580 1_555
O9 Sn0 2.046506 1_555
O9 Ti1 2.093737 1_655
O9 Ti2 2.209495 1_646
O10 Ti1 1.957131 1_555
O10 Sn1 2.141477 1_545
O10 Sn2 2.356635 1_544
O11 Ti1 2.053068 1_555
O11 Ti2 2.077662 1_555
O11 Sn0 2.126744 1_455
