# generated using pymatgen
data_Na6Ti4In4Si5S7O48
_symmetry_space_group_name_H-M   'P 1'
_cell_length_a   17.82603785
_cell_length_b   8.89146321
_cell_length_c   22.80905236
_cell_angle_alpha   90.07159025
_cell_angle_beta   89.83895881
_cell_angle_gamma   120.00458862
_symmetry_Int_Tables_number   1
_chemical_formula_structural   Na6Ti4In4Si5S7O48
_chemical_formula_sum   'Na18 Ti12 In12 Si15 S21 O144'
_cell_volume   3130.71928710
_cell_formula_units_Z   3
loop_
 _symmetry_equiv_pos_site_id
 _symmetry_equiv_pos_as_xyz
  1  'x, y, z'
loop_
 _atom_site_type_symbol
 _atom_site_label
 _atom_site_symmetry_multiplicity
 _atom_site_fract_x
 _atom_site_fract_y
 _atom_site_fract_z
 _atom_site_occupancy
  Na  Na0  1  0.99869874  0.62929445  0.25508404  1
  Na  Na1  1  0.49955331  0.63157814  0.24982430  1
  Na  Na2  1  0.00054890  0.37406800  0.74813596  1
  Na  Na3  1  0.49860753  0.36239988  0.75323469  1
  Na  Na4  1  0.66472227  0.30182969  0.91665528  1
  Na  Na5  1  0.16606922  0.02151089  0.42723255  1
  Na  Na6  1  0.00066075  0.99736570  0.50575875  1
  Na  Na7  1  0.49954833  0.98739156  0.50092306  1
  Na  Na8  1  0.00148661  0.00896476  0.99494526  1
  Na  Na9  1  0.50190504  0.00567149  0.00248087  1
  Na  Na10  1  0.33010280  0.32376650  0.83705272  1
  Na  Na11  1  0.82739151  0.32651914  0.82384881  1
  Na  Na12  1  0.33781975  0.34397639  0.32987700  1
  Na  Na13  1  0.82683397  0.33338421  0.34062859  1
  Na  Na14  1  0.18262569  0.66330678  0.16497268  1
  Na  Na15  1  0.67252714  0.66089359  0.16263696  1
  Na  Na16  1  0.17463209  0.68672376  0.66433938  1
  Na  Na17  1  0.67984916  0.68546883  0.67078937  1
  Ti  Ti0  1  0.49820684  0.01617765  0.35123901  1
  Ti  Ti1  1  0.99833687  0.98046091  0.85035745  1
  Ti  Ti2  1  0.99840917  0.98279379  0.64969947  1
  Ti  Ti3  1  0.51091209  0.00297193  0.64143477  1
  Ti  Ti4  1  0.00320073  0.01677038  0.13771144  1
  Ti  Ti5  1  0.49754937  0.01328760  0.14891189  1
  Ti  Ti6  1  0.32578637  0.31784055  0.97822348  1
  Ti  Ti7  1  0.82599960  0.33564268  0.47915146  1
  Ti  Ti8  1  0.16418335  0.66616686  0.01660159  1
  Ti  Ti9  1  0.66377564  0.65112753  0.02324878  1
  Ti  Ti10  1  0.16310943  0.67510854  0.52585030  1
  Ti  Ti11  1  0.66312753  0.65808419  0.51894093  1
  In  In0  1  0.99544703  0.99091058  0.35598429  1
  In  In1  1  0.49904093  0.00661501  0.85367142  1
  In  In2  1  0.32384630  0.33364150  0.67771508  1
  In  In3  1  0.82672503  0.31585582  0.68860879  1
  In  In4  1  0.33256887  0.34521438  0.18535449  1
  In  In5  1  0.82141515  0.31511082  0.17720409  1
  In  In6  1  0.83052682  0.31829332  0.98834310  1
  In  In7  1  0.33216934  0.34736605  0.49148537  1
  In  In8  1  0.16964396  0.66693081  0.31619999  1
  In  In9  1  0.66746674  0.65090611  0.31599617  1
  In  In10  1  0.16932705  0.68615579  0.81495134  1
  In  In11  1  0.66678559  0.65782485  0.81159614  1
  Si  Si0  1  0.35623633  0.72049364  0.25154288  1
  Si  Si1  1  0.49955931  0.29425681  0.24879351  1
  Si  Si2  1  0.64391511  0.28659297  0.75010917  1
  Si  Si3  1  0.00207508  0.70702897  0.74844211  1
  Si  Si4  1  0.85756745  0.99383847  0.75148411  1
  Si  Si5  1  0.17975292  0.03748609  0.58234357  1
  Si  Si6  1  0.69131086  0.03804648  0.58139599  1
  Si  Si7  1  0.33416643  0.64310765  0.58362120  1
  Si  Si8  1  0.82997570  0.02816280  0.08279071  1
  Si  Si9  1  0.19115378  0.34487442  0.08205862  1
  Si  Si10  1  0.67958737  0.32472925  0.08207040  1
  Si  Si11  1  0.51788651  0.37895433  0.91757807  1
  Si  Si12  1  0.16240881  0.95813054  0.91797152  1
  Si  Si13  1  0.66333144  0.36794816  0.41754445  1
  Si  Si14  1  0.01945273  0.65565642  0.41652844  1
  S  S0  1  0.14280589  0.00126999  0.24873718  1
  S  S1  1  0.64407004  0.00451111  0.25248924  1
  S  S2  1  0.85652365  0.70946641  0.24619401  1
  S  S3  1  0.99718686  0.28574712  0.24779465  1
  S  S4  1  0.14398304  0.28357826  0.75261528  1
  S  S5  1  0.49545364  0.70726207  0.74803335  1
  S  S6  1  0.35452675  0.00239439  0.74653856  1
  S  S7  1  0.48548049  0.33504882  0.58407129  1
  S  S8  1  0.97851673  0.33124542  0.58170638  1
  S  S9  1  0.83167169  0.62659810  0.58099166  1
  S  S10  1  0.48048162  0.62956487  0.08153477  1
  S  S11  1  0.98579840  0.63531589  0.08550984  1
  S  S12  1  0.33121230  0.03706663  0.08163064  1
  S  S13  1  0.31029841  0.66155886  0.91774939  1
  S  S14  1  0.81536353  0.66793467  0.91942364  1
  S  S15  1  0.01953163  0.37400903  0.91696777  1
  S  S16  1  0.66720394  0.95476252  0.91749987  1
  S  S17  1  0.31583457  0.96463094  0.41891079  1
  S  S18  1  0.80942542  0.95873787  0.41802282  1
  S  S19  1  0.16816447  0.37370827  0.41713585  1
  S  S20  1  0.51881794  0.66523762  0.41695878  1
  O  O0  1  0.10639557  0.02283011  0.30512318  1
  O  O1  1  0.60087220  0.02106299  0.30587971  1
  O  O2  1  0.41907743  0.82293622  0.30911404  1
  O  O3  1  0.90600893  0.78224552  0.30179037  1
  O  O4  1  0.49424938  0.17866235  0.30749363  1
  O  O5  1  0.98738079  0.18824856  0.30251361  1
  O  O6  1  0.10095448  0.18073095  0.80614098  1
  O  O7  1  0.60715992  0.18921101  0.81317871  1
  O  O8  1  0.48090500  0.77807380  0.80281198  1
  O  O9  1  0.99645359  0.81206870  0.80745075  1
  O  O10  1  0.40139762  0.02466674  0.80281329  1
  O  O11  1  0.92026462  0.01356000  0.80939745  1
  O  O12  1  0.40003113  0.98899387  0.69530257  1
  O  O13  1  0.91123220  0.98127127  0.69321518  1
  O  O14  1  0.09287992  0.20380480  0.69870044  1
  O  O15  1  0.57815818  0.16947569  0.69529268  1
  O  O16  1  0.01447649  0.83268779  0.69153273  1
  O  O17  1  0.50045104  0.80886862  0.69557147  1
  O  O18  1  0.40943569  0.83645409  0.19297589  1
  O  O19  1  0.90451046  0.81618201  0.19534341  1
  O  O20  1  0.00398761  0.19223218  0.19583223  1
  O  O21  1  0.51191337  0.19419720  0.19174899  1
  O  O22  1  0.08659643  0.98418619  0.19857579  1
  O  O23  1  0.59305748  0.98190561  0.19858925  1
  O  O24  1  0.44899364  0.36552297  0.63822412  1
  O  O25  1  0.94848855  0.37093840  0.63717759  1
  O  O26  1  0.24285334  0.10693956  0.63825171  1
  O  O27  1  0.74766211  0.10082637  0.63949508  1
  O  O28  1  0.30839628  0.52205869  0.64136216  1
  O  O29  1  0.81576719  0.52431019  0.63405259  1
  O  O30  1  0.45114104  0.53041468  0.13800045  1
  O  O31  1  0.94939531  0.53254738  0.14004989  1
  O  O32  1  0.31498623  0.10741419  0.13563179  1
  O  O33  1  0.81210232  0.09810606  0.14346552  1
  O  O34  1  0.24304323  0.38240912  0.14245703  1
  O  O35  1  0.74160682  0.38287207  0.13906996  1
  O  O36  1  0.23905116  0.30841224  0.02757679  1
  O  O37  1  0.71754296  0.29405915  0.02115289  1
  O  O38  1  0.42227147  0.53497354  0.03277471  1
  O  O39  1  0.93073521  0.55975226  0.03385620  1
  O  O40  1  0.34530535  0.14815120  0.02992894  1
  O  O41  1  0.86438107  0.15748463  0.02740667  1
  O  O42  1  0.21766989  0.13950785  0.52028633  1
  O  O43  1  0.74067731  0.17112809  0.52621751  1
  O  O44  1  0.36462288  0.57907603  0.52620752  1
  O  O45  1  0.84574222  0.54432937  0.52832331  1
  O  O46  1  0.43155617  0.30587080  0.53170716  1
  O  O47  1  0.92249025  0.31140209  0.53148432  1
  O  O48  1  0.26428467  0.68499384  0.96865816  1
  O  O49  1  0.77397898  0.69135570  0.97213221  1
  O  O50  1  0.07629080  0.46877598  0.96885869  1
  O  O51  1  0.58890629  0.49174450  0.96972034  1
  O  O52  1  0.15288342  0.82787123  0.97386085  1
  O  O53  1  0.66467418  0.85828093  0.97014484  1
  O  O54  1  0.27356936  0.85603640  0.47062022  1
  O  O55  1  0.76411103  0.84349991  0.46795142  1
  O  O56  1  0.16202136  0.46369740  0.46883760  1
  O  O57  1  0.65199242  0.47592325  0.47286285  1
  O  O58  1  0.09103506  0.68895074  0.46775566  1
  O  O59  1  0.57495677  0.68254607  0.46786841  1
  O  O60  1  0.05427385  0.62943169  0.35217451  1
  O  O61  1  0.55701732  0.64622529  0.36073929  1
  O  O62  1  0.26163848  0.89359391  0.36511267  1
  O  O63  1  0.76232071  0.89046356  0.36192709  1
  O  O64  1  0.17891209  0.46701418  0.36144055  1
  O  O65  1  0.69231494  0.48474546  0.35900421  1
  O  O66  1  0.05897150  0.47050093  0.86181228  1
  O  O67  1  0.55155331  0.47891571  0.85503947  1
  O  O68  1  0.19131620  0.89679900  0.86047285  1
  O  O69  1  0.67684476  0.87865072  0.86269776  1
  O  O70  1  0.26098828  0.63133310  0.86279687  1
  O  O71  1  0.76147170  0.63267513  0.86646961  1
  O  O72  1  0.01628685  0.83970791  0.41617519  1
  O  O73  1  0.51124244  0.82285670  0.41459758  1
  O  O74  1  0.40162046  0.97638745  0.41177197  1
  O  O75  1  0.89730627  0.97561729  0.41570814  1
  O  O76  1  0.08717354  0.19759214  0.41484709  1
  O  O77  1  0.57727449  0.17479219  0.41031566  1
  O  O78  1  0.01179365  0.20138120  0.91531054  1
  O  O79  1  0.51234079  0.18817340  0.91978678  1
  O  O80  1  0.07692601  0.97914290  0.91238475  1
  O  O81  1  0.58622362  0.96767522  0.91742675  1
  O  O82  1  0.39704311  0.81996228  0.91509694  1
  O  O83  1  0.90175977  0.82769933  0.91303313  1
  O  O84  1  0.49728256  0.18287810  0.58926549  1
  O  O85  1  0.98712678  0.17460213  0.58677370  1
  O  O86  1  0.08465437  0.02166682  0.59207550  1
  O  O87  1  0.59352862  0.01746176  0.58900082  1
  O  O88  1  0.41754582  0.83806437  0.59666916  1
  O  O89  1  0.91030051  0.80289425  0.58602334  1
  O  O90  1  0.48802931  0.80230156  0.08750732  1
  O  O91  1  0.99828344  0.81341680  0.09304674  1
  O  O92  1  0.40980105  0.01865196  0.08727134  1
  O  O93  1  0.91689628  0.00170367  0.09543933  1
  O  O94  1  0.09164058  0.16791590  0.09145333  1
  O  O95  1  0.58456528  0.14904037  0.09339612  1
  O  O96  1  0.34721114  0.16423701  0.74385751  1
  O  O97  1  0.85980403  0.17737673  0.75066105  1
  O  O98  1  0.23148635  0.30268806  0.75081675  1
  O  O99  1  0.73954305  0.31537141  0.74667173  1
  O  O100  1  0.42047869  0.52330783  0.74372741  1
  O  O101  1  0.91679189  0.52093699  0.74526629  1
  O  O102  1  0.35370575  0.53463326  0.25089171  1
  O  O103  1  0.84925797  0.53370695  0.24322570  1
  O  O104  1  0.41191942  0.30536784  0.24575917  1
  O  O105  1  0.92110531  0.31302011  0.24410356  1
  O  O106  1  0.23077459  0.15050472  0.24481372  1
  O  O107  1  0.73184272  0.16127455  0.25081599  1
  O  O108  1  0.32084154  0.50783728  0.92622391  1
  O  O109  1  0.82676769  0.51261401  0.92494224  1
  O  O110  1  0.42221716  0.35759889  0.93234782  1
  O  O111  1  0.93463221  0.36505814  0.92281352  1
  O  O112  1  0.24896420  0.15201117  0.93014496  1
  O  O113  1  0.74312359  0.13869714  0.91846056  1
  O  O114  1  0.32724643  0.14225341  0.42446598  1
  O  O115  1  0.82102237  0.13457022  0.42536617  1
  O  O116  1  0.24340724  0.34240220  0.41879313  1
  O  O117  1  0.74944329  0.34624309  0.42947058  1
  O  O118  1  0.43283598  0.50425929  0.42171809  1
  O  O119  1  0.92343859  0.48802725  0.42939467  1
  O  O120  1  0.17324001  0.50645264  0.06740692  1
  O  O121  1  0.66517106  0.49447304  0.07338364  1
  O  O122  1  0.07291445  0.65221376  0.07723934  1
  O  O123  1  0.56930110  0.65520592  0.07222486  1
  O  O124  1  0.25448230  0.85865184  0.07284683  1
  O  O125  1  0.74627763  0.83763632  0.07062077  1
  O  O126  1  0.16513778  0.83768531  0.57372626  1
  O  O127  1  0.67348642  0.84073533  0.56432260  1
  O  O128  1  0.24649948  0.65668669  0.56894561  1
  O  O129  1  0.75487754  0.65122873  0.57146315  1
  O  O130  1  0.06837035  0.48445592  0.57212976  1
  O  O131  1  0.57270817  0.49549930  0.57611106  1
  O  O132  1  0.14532294  0.83550601  0.24984318  1
  O  O133  1  0.65140828  0.84407974  0.25655133  1
  O  O134  1  0.26081819  0.70334177  0.25350092  1
  O  O135  1  0.77110411  0.69799577  0.24886738  1
  O  O136  1  0.07679940  0.46031402  0.24829670  1
  O  O137  1  0.58330593  0.49076235  0.25031225  1
  O  O138  1  0.15086040  0.45811190  0.75680979  1
  O  O139  1  0.64081595  0.46779556  0.74634194  1
  O  O140  1  0.08684233  0.68220303  0.74977203  1
  O  O141  1  0.57598164  0.69765408  0.74957741  1
  O  O142  1  0.26794681  0.84286615  0.74881957  1
  O  O143  1  0.76262248  0.82478045  0.75389322  1
loop_
_geom_bond_atom_site_label_1
_geom_bond_atom_site_label_2
_geom_bond_distance
_geom_bond_site_symmetry_2
Na0 O132 2.326686 1_655
Na0 O103 2.372998 1_555
Na0 O60 2.428326 1_655
Na0 O105 2.448266 1_555
Na0 O136 2.511973 1_655
Na0 O31 2.765508 1_555
Na0 O3 2.819277 1_555
Na1 O102 2.293760 1_555
Na1 O137 2.380428 1_555
Na1 O133 2.409871 1_555
Na1 O104 2.516000 1_555
Na1 O30 2.699938 1_555
Na1 O61 2.710499 1_555
Na2 O97 2.228814 1_455
Na2 O140 2.378863 1_555
Na2 O138 2.403560 1_555
Na2 O101 2.426851 1_455
Na2 O25 2.693407 1_455
Na2 O66 2.767525 1_555
Na3 O139 2.225171 1_555
Na3 O96 2.383323 1_555
Na3 O100 2.455397 1_555
Na3 O67 2.526751 1_555
Na3 O141 2.585159 1_555
Na3 O24 2.775313 1_555
Na3 O10 2.844704 1_555
Na4 O79 2.378780 1_555
Na4 O113 2.467141 1_555
Na4 O109 2.545599 1_555
Na4 O7 2.570257 1_555
Na4 O81 2.574459 1_545
Na4 O37 2.578852 1_556
Na4 O71 2.803844 1_555
Na4 O51 2.900198 1_555
Na5 O72 2.343457 1_545
Na5 O42 2.343488 1_555
Na5 O116 2.478755 1_555
Na5 O114 2.515098 1_555
Na5 O76 2.591226 1_555
Na5 O58 2.726015 1_545
Na5 O62 2.850236 1_545
Na5 O0 2.986342 1_555
Na6 O86 2.420051 1_565
Na6 O89 2.478280 1_455
Na6 O85 2.515301 1_465
Na6 O72 2.568652 1_555
Na6 O76 2.663265 1_565
Na6 O75 2.704548 1_455
Na7 O73 2.521144 1_555
Na7 O87 2.546303 1_565
Na7 O77 2.578915 1_565
Na7 O88 2.591752 1_555
Na7 O74 2.653391 1_555
Na7 O84 2.672844 1_565
Na8 O80 2.401265 1_545
Na8 O78 2.439590 1_555
Na8 O83 2.528675 1_445
Na8 O94 2.676975 1_556
Na8 O93 2.723160 1_456
Na8 O91 2.818322 1_446
Na9 O79 2.434996 1_554
Na9 O95 2.495670 1_555
Na9 O92 2.573018 1_555
Na9 O81 2.574257 1_544
Na9 O90 2.578929 1_545
Na9 O82 2.668155 1_544
Na10 O98 2.585230 1_555
Na10 O112 2.591236 1_555
Na10 O110 2.652484 1_555
Na10 O96 2.654253 1_555
Na10 O108 2.665094 1_555
Na10 O100 2.721383 1_555
Na11 O99 2.328251 1_555
Na11 O97 2.373694 1_555
Na11 O101 2.444808 1_555
Na11 O113 2.680340 1_555
Na11 O109 2.839658 1_555
Na11 O111 2.869574 1_555
Na12 O102 2.392548 1_555
Na12 O104 2.445702 1_555
Na12 O118 2.624193 1_555
Na12 O116 2.627389 1_555
Na12 O106 2.663517 1_555
Na12 O114 2.752560 1_555
Na13 O117 2.482750 1_555
Na13 O119 2.569032 1_555
Na13 O115 2.587580 1_555
Na13 O107 2.612602 1_555
Na13 O103 2.749717 1_555
Na13 O105 2.826054 1_555
Na14 O134 2.380064 1_555
Na14 O120 2.585801 1_555
Na14 O124 2.615705 1_555
Na14 O136 2.647931 1_555
Na14 O132 2.745442 1_555
Na14 O122 2.769043 1_555
Na15 O121 2.480141 1_555
Na15 O137 2.529914 1_555
Na15 O135 2.550132 1_555
Na15 O125 2.555268 1_555
Na15 O123 2.751235 1_555
Na15 O133 2.825472 1_555
Na16 O142 2.471656 1_555
Na16 O140 2.483545 1_555
Na16 O126 2.517557 1_555
Na16 O128 2.602294 1_555
Na16 O130 2.802113 1_555
Na16 O138 2.811438 1_555
Na17 O143 2.342305 1_555
Na17 O139 2.419602 1_555
Na17 O141 2.617423 1_555
Na17 O129 2.720776 1_555
Na17 O131 2.819917 1_555
Na17 O127 2.825325 1_555
In0 O72 2.082615 1_655
In0 O3 2.135194 1_555
In0 O75 2.164245 1_555
In0 O0 2.182770 1_665
In0 O5 2.201251 1_565
In0 O76 2.203236 1_665
In1 O7 2.016865 1_555
In1 O79 2.132963 1_555
In1 O10 2.166176 1_555
In1 O8 2.217817 1_545
In1 O82 2.235337 1_545
In1 O81 2.280787 1_545
In2 O28 2.009042 1_555
In2 O26 2.012447 1_555
In2 O98 2.258118 1_555
In2 O100 2.276219 1_555
In2 O24 2.285914 1_555
In2 O96 2.314075 1_555
In3 O99 2.037389 1_555
In3 O27 2.050674 1_555
In3 O97 2.145270 1_555
In3 O101 2.156516 1_555
In3 O25 2.291565 1_555
In3 O29 2.321892 1_555
In4 O34 2.037410 1_555
In4 O104 2.130260 1_555
In4 O102 2.138992 1_555
In4 O30 2.203723 1_555
In4 O106 2.231447 1_555
In4 O32 2.277792 1_555
In5 O35 2.002268 1_555
In5 O33 2.004828 1_555
In5 O107 2.246308 1_555
In5 O31 2.289669 1_555
In5 O103 2.307348 1_555
In5 O105 2.352685 1_555
In6 O41 2.017842 1_556
In6 O37 2.054453 1_556
In6 O113 2.244430 1_555
In6 O39 2.246580 1_556
In6 O111 2.250572 1_555
In6 O109 2.281139 1_555
In7 O44 2.003236 1_555
In7 O42 2.058147 1_555
In7 O46 2.186402 1_555
In7 O118 2.276922 1_555
In7 O116 2.280212 1_555
In7 O114 2.346115 1_555
In8 O134 2.062372 1_555
In8 O60 2.078322 1_555
In8 O64 2.133319 1_555
In8 O62 2.166762 1_555
In8 O132 2.320491 1_555
In8 O136 2.340807 1_555
In9 O65 2.000455 1_555
In9 O137 2.096099 1_555
In9 O61 2.196947 1_555
In9 O63 2.212660 1_555
In9 O135 2.268222 1_555
In9 O133 2.317378 1_555
In10 O68 2.000688 1_555
In10 O140 2.081808 1_555
In10 O142 2.201772 1_555
In10 O70 2.215023 1_555
In10 O66 2.215803 1_555
In10 O138 2.303596 1_555
In11 O143 2.076138 1_555
In11 O67 2.110992 1_555
In11 O139 2.121266 1_555
In11 O71 2.203528 1_555
In11 O69 2.211165 1_555
In11 O141 2.309551 1_555
O0 S0 1.493731 1_555
O1 S1 1.485011 1_555
O1 Ti0 2.081244 1_555
O2 Si0 1.671427 1_555
O2 Ti0 1.855969 1_565
O3 S2 1.496096 1_555
O4 Si1 1.662349 1_555
O4 Ti0 1.787101 1_555
O5 S3 1.479771 1_555
O6 S4 1.486980 1_555
O6 Ti1 2.066526 1_445
O7 Si2 1.636728 1_555
O8 S5 1.477947 1_555
O9 Si3 1.668398 1_655
O9 Ti1 1.773957 1_555
O10 S6 1.491571 1_555
O11 Si4 1.684188 1_545
O11 Ti1 1.820431 1_545
O12 S6 1.459074 1_565
O12 Ti3 2.274411 1_565
O13 Si4 1.671352 1_555
O13 Ti2 1.835931 1_555
O14 S4 1.484292 1_555
O14 Ti2 2.154562 1_445
O15 Si2 1.675071 1_555
O15 Ti3 1.834835 1_555
O16 Si3 1.654425 1_555
O16 Ti2 1.777879 1_455
O17 S5 1.475669 1_555
O17 Ti3 2.054330 1_565
O18 Si0 1.662928 1_555
O18 Ti5 1.864009 1_565
O19 S2 1.470619 1_555
O19 Ti4 2.204241 1_665
O20 S3 1.486048 1_455
O20 Ti4 2.040741 1_555
O21 Si1 1.650581 1_555
O21 Ti5 1.786958 1_555
O22 S0 1.479828 1_565
O22 Ti4 2.159767 1_565
O23 S1 1.483789 1_565
O23 Ti5 2.178792 1_565
O24 S7 1.480887 1_555
O25 S8 1.481875 1_555
O26 Si5 1.607525 1_555
O27 Si6 1.587954 1_555
O28 Si7 1.615435 1_555
O29 S9 1.454385 1_555
O30 S10 1.499136 1_555
O31 S11 1.486228 1_555
O32 S12 1.472768 1_555
O33 Si8 1.611548 1_555
O34 Si9 1.600659 1_555
O35 Si10 1.616966 1_555
O36 Si9 1.627343 1_555
O36 Ti6 1.877662 1_554
O37 Si10 1.625141 1_555
O38 S10 1.467082 1_555
O38 Ti6 2.217819 1_554
O39 S11 1.465573 1_555
O40 S12 1.477302 1_555
O40 Ti6 2.078504 1_554
O41 Si8 1.608758 1_555
O42 Si5 1.633366 1_555
O43 Si6 1.647614 1_555
O43 Ti7 1.837148 1_555
O44 Si7 1.623919 1_555
O45 S9 1.490220 1_555
O45 Ti7 2.041729 1_555
O46 S7 1.474489 1_555
O47 S8 1.473259 1_555
O47 Ti7 2.193812 1_555
O48 S13 1.493164 1_555
O48 Ti8 2.024529 1_556
O49 S14 1.476822 1_555
O49 Ti9 2.152191 1_556
O50 S15 1.512006 1_555
O50 Ti8 1.993889 1_556
O51 Si11 1.660919 1_555
O51 Ti9 1.842124 1_556
O52 Si12 1.673650 1_555
O52 Ti8 1.830972 1_556
O53 S16 1.464041 1_555
O53 Ti9 2.199074 1_556
O54 S17 1.470142 1_555
O54 Ti10 2.207974 1_555
O55 S18 1.472838 1_555
O55 Ti11 2.082288 1_555
O56 S19 1.458571 1_555
O56 Ti10 2.276505 1_555
O57 Si13 1.656571 1_555
O57 Ti11 1.855459 1_555
O58 Si14 1.646470 1_555
O58 Ti10 1.894686 1_555
O59 S20 1.491842 1_555
O59 Ti11 2.056092 1_555
O60 Si14 1.653190 1_555
O61 S20 1.498755 1_555
O62 S17 1.494144 1_555
O63 S18 1.484918 1_555
O64 S19 1.476851 1_555
O65 Si13 1.609741 1_555
O66 S15 1.485766 1_555
O67 Si11 1.627810 1_555
O68 Si12 1.599496 1_555
O69 S16 1.470707 1_555
O70 S13 1.478178 1_555
O71 S14 1.477971 1_555
O72 Si14 1.665456 1_555
O73 S20 1.474703 1_555
O73 Ti0 2.346203 1_565
O74 S17 1.488197 1_555
O74 Ti0 2.091545 1_565
O75 S18 1.497950 1_555
O76 S19 1.509426 1_555
O77 Si13 1.641892 1_555
O77 Ti0 1.951704 1_555
O78 S15 1.471241 1_555
O78 Ti1 2.373688 1_445
O79 Si11 1.649935 1_555
O80 Si12 1.630661 1_555
O80 Ti1 1.997991 1_455
O81 S16 1.504268 1_555
O82 S13 1.483221 1_555
O83 S14 1.490729 1_555
O83 Ti1 2.122441 1_555
O84 S7 1.474516 1_555
O84 Ti3 2.104486 1_555
O85 S8 1.480228 1_555
O85 Ti2 2.315133 1_545
O86 Si5 1.643882 1_555
O86 Ti2 1.915443 1_445
O87 Si6 1.667688 1_555
O87 Ti3 1.848399 1_555
O88 Si7 1.651349 1_555
O88 Ti3 1.878207 1_565
O89 S9 1.495980 1_555
O89 Ti2 2.151576 1_555
O90 S10 1.479358 1_555
O90 Ti5 2.277294 1_565
O91 S11 1.494607 1_555
O91 Ti4 2.037696 1_665
O92 S12 1.495470 1_555
O92 Ti5 2.124357 1_555
O93 Si8 1.704885 1_555
O93 Ti4 1.765324 1_655
O94 Si9 1.695751 1_555
O94 Ti4 1.811068 1_555
O95 Si10 1.651761 1_555
O95 Ti5 1.893845 1_555
O96 S6 1.509791 1_555
O97 Si4 1.612488 1_545
O98 S4 1.482642 1_555
O99 Si2 1.593913 1_555
O100 S5 1.511678 1_555
O101 Si3 1.593343 1_655
O102 Si0 1.630531 1_555
O103 S2 1.503637 1_555
O104 Si1 1.615621 1_555
O105 S3 1.494952 1_555
O106 S0 1.464989 1_555
O107 S1 1.486943 1_555
O108 S13 1.482780 1_555
O108 Ti6 2.103078 1_555
O109 S14 1.498592 1_555
O110 Si11 1.652578 1_555
O110 Ti6 1.886219 1_555
O111 S15 1.480872 1_655
O112 Si12 1.664490 1_545
O112 Ti6 1.799146 1_555
O113 S16 1.514318 1_545
O114 S17 1.493326 1_545
O115 S18 1.480313 1_545
O115 Ti7 2.132066 1_555
O116 S19 1.500554 1_555
O117 Si13 1.663230 1_555
O117 Ti7 1.814653 1_555
O118 S20 1.488301 1_555
O119 Si14 1.638270 1_655
O119 Ti7 1.944177 1_555
O120 Si9 1.654782 1_555
O120 Ti8 1.902645 1_555
O121 Si10 1.664976 1_555
O121 Ti9 1.813065 1_555
O122 S11 1.494936 1_455
O122 Ti8 2.088359 1_555
O123 S10 1.497036 1_555
O123 Ti9 2.033677 1_555
O124 S12 1.502725 1_565
O124 Ti8 2.101630 1_555
O125 Si8 1.626723 1_565
O125 Ti9 1.909377 1_555
O126 Si5 1.673036 1_565
O126 Ti10 1.796493 1_555
O127 Si6 1.664918 1_565
O127 Ti11 1.854721 1_555
O128 Si7 1.661499 1_555
O128 Ti10 1.858738 1_555
O129 S9 1.506922 1_555
O129 Ti11 2.055424 1_555
O130 S8 1.511794 1_455
O130 Ti10 1.992793 1_555
O131 S7 1.505487 1_555
O131 Ti11 2.012629 1_555
O132 S0 1.497072 1_565
O133 S1 1.499178 1_565
O134 Si0 1.630509 1_555
O135 S2 1.475426 1_555
O136 S3 1.490080 1_455
O137 Si1 1.635252 1_555
O138 S4 1.497287 1_555
O139 Si2 1.641845 1_555
O140 Si3 1.633044 1_555
O141 S5 1.480583 1_555
O142 S6 1.485575 1_565
O143 Si4 1.606954 1_555
