# generated using pymatgen
data_MgFe6O11F
_symmetry_space_group_name_H-M   'P 1'
_cell_length_a   7.18569822
_cell_length_b   5.81212123
_cell_length_c   5.91856565
_cell_angle_alpha   81.72865258
_cell_angle_beta   68.37579093
_cell_angle_gamma   73.18843272
_symmetry_Int_Tables_number   1
_chemical_formula_structural   MgFe6O11F
_chemical_formula_sum   'Mg1 Fe6 O11 F1'
_cell_volume   219.77334827
_cell_formula_units_Z   1
loop_
 _symmetry_equiv_pos_site_id
 _symmetry_equiv_pos_as_xyz
  1  'x, y, z'
loop_
 _atom_site_type_symbol
 _atom_site_label
 _atom_site_symmetry_multiplicity
 _atom_site_fract_x
 _atom_site_fract_y
 _atom_site_fract_z
 _atom_site_occupancy
  Mg  Mg0  1  0.84482091  0.66033783  0.15985357  1
  Fe  Fe0  1  0.82554136  0.67774574  0.66642109  1
  Fe  Fe1  1  0.66187152  0.26085216  0.42184352  1
  Fe  Fe2  1  0.32339621  0.71362013  0.58900725  1
  Fe  Fe3  1  0.17029231  0.32237973  0.35194801  1
  Fe  Fe4  1  0.50193074  0.00638736  0.01718385  1
  Fe  Fe5  1  0.98158594  0.09094889  0.93698154  1
  O  O0  1  0.67383900  0.03070484  0.68522290  1
  O  O1  1  0.35147051  0.32186588  0.03201117  1
  O  O2  1  0.94489484  0.28800740  0.19960862  1
  O  O3  1  0.62942104  0.59863194  0.52135951  1
  O  O4  1  0.02809111  0.76412138  0.80338314  1
  O  O5  1  0.37085420  0.40508467  0.47134766  1
  O  O6  1  0.71600116  0.03909134  0.16074023  1
  O  O7  1  0.30809439  0.97734392  0.34339497  1
  O  O8  1  0.63897701  0.67628524  0.99440863  1
  O  O9  1  0.97518207  0.31878506  0.67344852  1
  O  O10  1  0.02474209  0.66152071  0.34961637  1
  F  F0  1  0.28825161  0.93628377  0.86031247  1
loop_
_geom_bond_atom_site_label_1
_geom_bond_atom_site_label_2
_geom_bond_distance
_geom_bond_site_symmetry_2
Mg0 O10 2.002625 1_655
Mg0 O8 2.029119 1_554
Mg0 O2 2.081715 1_555
Mg0 O6 2.126945 1_565
Mg0 O4 2.143573 1_654
Mg0 O3 2.182128 1_555
Fe0 O10 1.888963 1_655
Fe0 O8 1.910335 1_555
Fe0 O0 2.022820 1_565
Fe0 O9 2.054508 1_555
Fe0 O3 2.077199 1_555
Fe0 O4 2.106377 1_655
Fe1 O0 1.912837 1_555
Fe1 O5 1.940775 1_555
Fe1 O6 2.010164 1_555
Fe1 O2 2.011309 1_555
Fe1 O3 2.054793 1_555
Fe2 O5 1.909841 1_555
Fe2 O7 1.963143 1_555
Fe2 O4 1.990297 1_555
Fe2 O3 2.005127 1_555
Fe3 O1 1.860901 1_555
Fe3 O9 1.904220 1_455
Fe3 O10 1.946716 1_555
Fe3 O7 1.961700 1_545
Fe3 O5 2.014085 1_555
Fe3 O2 2.188920 1_455
Fe4 O1 1.835303 1_555
Fe4 O8 1.884837 1_544
Fe4 O0 1.907455 1_554
Fe4 O7 1.938131 1_545
Fe4 O6 2.074394 1_555
Fe5 O9 1.900478 1_555
Fe5 O2 1.957773 1_556
Fe5 O6 1.960064 1_556
Fe5 O4 2.053156 1_645
F0 Fe5 2.025933 1_465
F0 Fe2 2.104036 1_555
F0 Fe4 2.215182 1_566
