# generated using pymatgen
data_LiCrP2O7
_symmetry_space_group_name_H-M   'P 1'
_cell_length_a   8.07913200
_cell_length_b   6.75252600
_cell_length_c   9.35655471
_cell_angle_alpha   72.30732744
_cell_angle_beta   90.00000000
_cell_angle_gamma   90.00000000
_symmetry_Int_Tables_number   1
_chemical_formula_structural   LiCrP2O7
_chemical_formula_sum   'Li4 Cr4 P8 O28'
_cell_volume   486.29886690
_cell_formula_units_Z   4
loop_
 _symmetry_equiv_pos_site_id
 _symmetry_equiv_pos_as_xyz
  1  'x, y, z'
loop_
 _atom_site_type_symbol
 _atom_site_label
 _atom_site_symmetry_multiplicity
 _atom_site_fract_x
 _atom_site_fract_y
 _atom_site_fract_z
 _atom_site_occupancy
  Li  Li0  1  0.88600500  0.78459000  0.54479700  1
  Li  Li1  1  0.11399500  0.21541000  0.45520300  1
  Li  Li2  1  0.38600500  0.21541000  0.95520300  1
  Li  Li3  1  0.61399500  0.78459000  0.04479700  1
  Cr  Cr0  1  0.77436700  0.28059200  0.00436700  1
  Cr  Cr1  1  0.72563300  0.28059200  0.50436700  1
  Cr  Cr2  1  0.27436700  0.71940800  0.49563300  1
  Cr  Cr3  1  0.22563300  0.71940800  0.99563300  1
  P  P0  1  0.08505500  0.46364000  0.79681700  1
  P  P1  1  0.91494500  0.53636000  0.20318300  1
  P  P2  1  0.41494500  0.46364000  0.29681700  1
  P  P3  1  0.96301400  0.05365400  0.79335300  1
  P  P4  1  0.46301400  0.94634600  0.70664700  1
  P  P5  1  0.03698600  0.94634600  0.20664700  1
  P  P6  1  0.53698600  0.05365400  0.29335300  1
  P  P7  1  0.58505500  0.53636000  0.70318300  1
  O  O0  1  0.41410600  0.60526900  0.13313900  1
  O  O1  1  0.68076200  0.07146100  0.39612400  1
  O  O2  1  0.94539100  0.15111100  0.15138800  1
  O  O3  1  0.59020500  0.09077000  0.12780400  1
  O  O4  1  0.40979500  0.90923000  0.87219600  1
  O  O5  1  0.05460900  0.84888900  0.84861200  1
  O  O6  1  0.31923800  0.92853900  0.60387600  1
  O  O7  1  0.60585600  0.77351300  0.70955100  1
  O  O8  1  0.09020500  0.90923000  0.37219600  1
  O  O9  1  0.44539100  0.84888900  0.34861200  1
  O  O10  1  0.18076200  0.92853900  0.10387600  1
  O  O11  1  0.08589400  0.60526900  0.63313900  1
  O  O12  1  0.23416500  0.48987900  0.89225100  1
  O  O13  1  0.89414400  0.77351300  0.20955100  1
  O  O14  1  0.91653200  0.47451800  0.86533900  1
  O  O15  1  0.90979500  0.09077000  0.62780400  1
  O  O16  1  0.73416500  0.51012100  0.60774900  1
  O  O17  1  0.58589400  0.39473100  0.86686100  1
  O  O18  1  0.41653200  0.52548200  0.63466100  1
  O  O19  1  0.26583500  0.48987900  0.39225100  1
  O  O20  1  0.58346800  0.47451800  0.36533900  1
  O  O21  1  0.08346800  0.52548200  0.13466100  1
  O  O22  1  0.10585600  0.22648700  0.79044900  1
  O  O23  1  0.76583500  0.51012100  0.10774900  1
  O  O24  1  0.91410600  0.39473100  0.36686100  1
  O  O25  1  0.81923800  0.07146100  0.89612400  1
  O  O26  1  0.55460900  0.15111100  0.65138800  1
  O  O27  1  0.39414400  0.22648700  0.29044900  1
loop_
_geom_bond_atom_site_label_1
_geom_bond_atom_site_label_2
_geom_bond_distance
_geom_bond_site_symmetry_2
Li0 O11 2.036928 1_655
Li0 O16 2.150169 1_555
Li0 O8 2.282973 1_655
Li0 O15 2.427066 1_565
Li0 O1 2.607519 1_565
Li1 O24 2.036928 1_455
Li1 O19 2.150169 1_555
Li1 O15 2.282973 1_455
Li1 O8 2.427066 1_545
Li1 O6 2.607519 1_545
Li2 O17 2.036928 1_555
Li2 O12 2.150169 1_555
Li2 O3 2.282973 1_556
Li2 O4 2.427066 1_545
Li2 O10 2.607519 1_546
Li3 O0 2.036928 1_555
Li3 O23 2.150169 1_555
Li3 O4 2.282973 1_554
Li3 O3 2.427066 1_565
Li3 O25 2.607519 1_564
Cr0 O14 1.921131 1_554
Cr0 O2 1.958281 1_555
Cr0 O17 1.991282 1_554
Cr0 O25 2.005159 1_554
Cr0 O23 2.062491 1_555
Cr0 O3 2.071424 1_555
Cr1 O20 1.921131 1_555
Cr1 O26 1.958281 1_555
Cr1 O24 1.991282 1_555
Cr1 O1 2.005159 1_555
Cr1 O16 2.062491 1_555
Cr1 O15 2.071424 1_555
Cr2 O18 1.921131 1_555
Cr2 O9 1.958281 1_555
Cr2 O11 1.991282 1_555
Cr2 O6 2.005159 1_555
Cr2 O19 2.062491 1_555
Cr2 O8 2.071424 1_555
Cr3 O21 1.921131 1_556
Cr3 O5 1.958281 1_555
Cr3 O0 1.991282 1_556
Cr3 O10 2.005159 1_556
Cr3 O12 2.062491 1_555
Cr3 O4 2.071424 1_555
O0 P2 1.539417 1_555
O1 P6 1.535792 1_555
O2 P5 1.514006 1_645
O3 P6 1.552746 1_555
O4 P4 1.552746 1_555
O5 P3 1.514006 1_465
O6 P4 1.535792 1_555
O7 P7 1.629175 1_555
O7 P4 1.635634 1_555
O8 P5 1.552746 1_555
O9 P6 1.514006 1_565
O10 P5 1.535792 1_555
O11 P0 1.539417 1_555
O12 P0 1.541473 1_555
O13 P1 1.629175 1_555
O13 P5 1.635634 1_655
O14 P0 1.516180 1_655
O15 P3 1.552746 1_555
O16 P7 1.541473 1_555
O17 P7 1.539417 1_555
O18 P7 1.516180 1_555
O19 P2 1.541473 1_555
O20 P2 1.516180 1_555
O21 P1 1.516180 1_455
O22 P0 1.629175 1_555
O22 P3 1.635634 1_455
O23 P1 1.541473 1_555
O24 P1 1.539417 1_555
O25 P3 1.535792 1_555
O26 P4 1.514006 1_545
O27 P2 1.629175 1_555
O27 P6 1.635634 1_555
