# generated using pymatgen
data_MgMn6(O2F)4
_symmetry_space_group_name_H-M   'P 1'
_cell_length_a   5.17566866
_cell_length_b   7.71743775
_cell_length_c   5.77183822
_cell_angle_alpha   98.57426983
_cell_angle_beta   99.78840448
_cell_angle_gamma   82.66723282
_symmetry_Int_Tables_number   1
_chemical_formula_structural   MgMn6(O2F)4
_chemical_formula_sum   'Mg1 Mn6 O8 F4'
_cell_volume   223.40752425
_cell_formula_units_Z   1
loop_
 _symmetry_equiv_pos_site_id
 _symmetry_equiv_pos_as_xyz
  1  'x, y, z'
loop_
 _atom_site_type_symbol
 _atom_site_label
 _atom_site_symmetry_multiplicity
 _atom_site_fract_x
 _atom_site_fract_y
 _atom_site_fract_z
 _atom_site_occupancy
  Mg  Mg0  1  0.51086294  0.49578810  0.49774917  1
  Mn  Mn0  1  0.45893509  0.98477923  0.51026497  1
  Mn  Mn1  1  0.53010913  0.68218277  0.12297897  1
  Mn  Mn2  1  0.46314489  0.31081511  0.86685331  1
  Mn  Mn3  1  0.00390322  0.66974772  0.65526300  1
  Mn  Mn4  1  0.99684216  0.32718348  0.33816936  1
  Mn  Mn5  1  0.99818953  0.99012749  0.98158754  1
  O  O0  1  0.88458543  0.43747406  0.61987844  1
  O  O1  1  0.64758517  0.07724042  0.81695821  1
  O  O2  1  0.64419865  0.74270398  0.46815455  1
  O  O3  1  0.64867218  0.42502634  0.16829982  1
  O  O4  1  0.36171549  0.56256769  0.81618930  1
  O  O5  1  0.34459595  0.24778724  0.52120439  1
  O  O6  1  0.32979277  0.90935559  0.17669103  1
  O  O7  1  0.13272241  0.89305526  0.70069051  1
  F  F0  1  0.84199272  0.74174887  0.97370123  1
  F  F1  1  0.86210634  0.07943819  0.27971415  1
  F  F2  1  0.16786662  0.57338658  0.33136056  1
  F  F3  1  0.14440031  0.24959387  0.03524148  1
loop_
_geom_bond_atom_site_label_1
_geom_bond_atom_site_label_2
_geom_bond_distance
_geom_bond_site_symmetry_2
Mg0 O0 1.962036 1_555
Mg0 O4 2.082811 1_555
Mg0 O3 2.115387 1_555
Mg0 O2 2.146948 1_555
Mg0 O5 2.226947 1_555
Mn0 O1 1.951813 1_565
Mn0 O6 1.954497 1_555
Mn0 O2 1.988780 1_555
Mn0 O5 2.035177 1_565
Mn0 O7 2.393273 1_555
Mn1 O6 1.930784 1_555
Mn1 O2 1.982171 1_555
Mn1 O4 1.985065 1_554
Mn1 O3 2.042774 1_555
Mn2 O1 1.934682 1_555
Mn2 O3 1.979110 1_556
Mn2 O5 1.990934 1_555
Mn2 O4 1.998189 1_555
Mn3 O7 1.892715 1_555
Mn3 O0 1.940842 1_455
Mn3 O2 2.044358 1_455
Mn3 O4 2.056629 1_555
Mn4 O0 1.867660 1_555
Mn4 O5 1.998998 1_655
Mn4 O3 2.012807 1_555
Mn5 O7 1.887636 1_655
Mn5 O6 1.970108 1_656
Mn5 O1 1.985066 1_565
F0 Mn1 2.083213 1_556
F0 Mn3 2.118834 1_655
F0 Mn5 2.164937 1_555
F1 Mn5 1.966366 1_544
F1 Mn4 2.079352 1_555
F2 Mg0 1.937221 1_555
F2 Mn3 2.175329 1_555
F2 Mn4 2.204244 1_455
F3 Mn4 2.005992 1_455
F3 Mn2 2.184140 1_554
F3 Mn5 2.190990 1_444
