# generated using pymatgen
data_Na6Mg2Si3Ge2(SO8)3
_symmetry_space_group_name_H-M   'P 1'
_cell_length_a   8.83255666
_cell_length_b   8.87658098
_cell_length_c   21.98153220
_cell_angle_alpha   90.07652773
_cell_angle_beta   91.39193296
_cell_angle_gamma   118.96245681
_symmetry_Int_Tables_number   1
_chemical_formula_structural   Na6Mg2Si3Ge2(SO8)3
_chemical_formula_sum   'Na18 Mg6 Si9 Ge6 S9 O72'
_cell_volume   1507.26674907
_cell_formula_units_Z   3
loop_
 _symmetry_equiv_pos_site_id
 _symmetry_equiv_pos_as_xyz
  1  'x, y, z'
loop_
 _atom_site_type_symbol
 _atom_site_label
 _atom_site_symmetry_multiplicity
 _atom_site_fract_x
 _atom_site_fract_y
 _atom_site_fract_z
 _atom_site_occupancy
  Na  Na0  1  0.37224323  0.35211162  0.24616700  1
  Na  Na1  1  0.00126353  0.63610606  0.23815889  1
  Na  Na2  1  0.99118627  0.35931031  0.74549122  1
  Na  Na3  1  0.38176227  0.02875711  0.74498066  1
  Na  Na4  1  0.29933408  0.34077044  0.58002936  1
  Na  Na5  1  0.64927752  0.97618821  0.59576578  1
  Na  Na6  1  0.30535200  0.96068058  0.06710106  1
  Na  Na7  1  0.65356261  0.68070870  0.08375564  1
  Na  Na8  1  0.98831060  0.67966765  0.91785733  1
  Na  Na9  1  0.32647976  0.29174278  0.90899285  1
  Na  Na10  1  0.98192720  0.30284447  0.43227881  1
  Na  Na11  1  0.32667738  0.03549539  0.41489198  1
  Na  Na12  1  -0.00156690  -0.01796469  0.50337895  1
  Na  Na13  1  -0.00079551  0.01625900  0.99437702  1
  Na  Na14  1  0.66028362  0.32028237  0.82845714  1
  Na  Na15  1  0.65892778  0.32385112  0.33380854  1
  Na  Na16  1  0.31524283  0.64672625  0.15891609  1
  Na  Na17  1  0.30781714  0.66320357  0.66134616  1
  Mg  Mg0  1  0.01430822  0.00941665  0.35151902  1
  Mg  Mg1  1  0.01935586  0.01057020  0.84917452  1
  Mg  Mg2  1  0.66355796  0.33059377  0.68875559  1
  Mg  Mg3  1  0.66114050  0.32426565  0.18529706  1
  Mg  Mg4  1  0.31395766  0.65206793  0.01979000  1
  Mg  Mg5  1  0.31690325  0.66102370  0.52261343  1
  Si  Si0  1  0.30552277  -0.00971689  0.25522747  1
  Si  Si1  1  0.30686145  0.31751683  0.75617694  1
  Si  Si2  1  0.71947230  0.00121096  0.74995126  1
  Si  Si3  1  0.94676130  0.33708797  0.58483796  1
  Si  Si4  1  0.35211928  0.03167889  0.59030194  1
  Si  Si5  1  0.94909571  0.61137233  0.08676940  1
  Si  Si6  1  0.37023153  0.33071013  0.08770904  1
  Si  Si7  1  0.34707957  0.96199414  0.91874146  1
  Si  Si8  1  0.34434432  0.38245179  0.41847239  1
  Ge  Ge0  1  0.01196479  0.05098429  0.64961684  1
  Ge  Ge1  1  0.03102416  0.98819701  0.14118580  1
  Ge  Ge2  1  0.64954465  0.31658988  0.98691499  1
  Ge  Ge3  1  0.62357589  0.32523010  0.49639678  1
  Ge  Ge4  1  0.34648440  0.66932325  0.31626043  1
  Ge  Ge5  1  0.37576320  0.70489753  0.80571696  1
  S  S0  1  0.70572466  0.71643091  0.25074033  1
  S  S1  1  0.00328873  0.28687164  0.25091796  1
  S  S2  1  0.00870475  0.71967383  0.75248531  1
  S  S3  1  0.67528810  0.63117982  0.58360353  1
  S  S4  1  0.68218018  0.04637523  0.08475234  1
  S  S5  1  0.62454476  0.66356241  0.91881840  1
  S  S6  1  0.02406980  0.36839010  0.91735505  1
  S  S7  1  0.62639113  0.95555541  0.41685326  1
  S  S8  1  0.04146092  0.66270672  0.41105009  1
  O  O0  1  0.21132175  0.01411168  0.31237386  1
  O  O1  1  0.80867878  0.82170474  0.30242250  1
  O  O2  1  0.99219898  0.20157349  0.30903460  1
  O  O3  1  0.22608501  0.19278558  0.81258779  1
  O  O4  1  0.99826398  0.78811579  0.81208679  1
  O  O5  1  0.82940632  0.00444143  0.80733188  1
  O  O6  1  0.80326160  0.97302059  0.68404450  1
  O  O7  1  0.16952897  0.23695420  0.69310967  1
  O  O8  1  0.03271639  0.83822809  0.70140207  1
  O  O9  1  0.77429982  0.80161076  0.19157810  1
  O  O10  1  0.02239067  0.19121326  0.19818496  1
  O  O11  1  0.16639963  0.94298208  0.19202567  1
  O  O12  1  0.86531389  0.35449194  0.64534134  1
  O  O13  1  0.47899548  0.12559696  0.64628065  1
  O  O14  1  0.65318974  0.51941571  0.63399940  1
  O  O15  1  0.86398992  0.51646440  0.14806777  1
  O  O16  1  0.65617558  0.13097607  0.13698858  1
  O  O17  1  0.47402377  0.35461513  0.15052677  1
  O  O18  1  0.45581669  0.27707909  0.02807444  1
  O  O19  1  0.81351806  0.51720648  0.02520384  1
  O  O20  1  0.70466065  0.14708946  0.02703390  1
  O  O21  1  0.42520006  0.16350929  0.52702518  1
  O  O22  1  0.68895504  0.54590083  0.52341830  1
  O  O23  1  0.80625915  0.29960932  0.52088660  1
  O  O24  1  0.54260021  0.67880132  0.97376590  1
  O  O25  1  0.13841754  0.45496530  0.97040212  1
  O  O26  1  0.32681194  0.84675728  0.97636667  1
  O  O27  1  0.54593709  0.86074452  0.47131829  1
  O  O28  1  0.31910754  0.47900197  0.47426409  1
  O  O29  1  0.15576266  0.69712248  0.46429055  1
  O  O30  1  0.12978517  0.64053175  0.35411878  1
  O  O31  1  0.51092093  0.86853326  0.35966679  1
  O  O32  1  0.37280855  0.49866403  0.35236462  1
  O  O33  1  0.09320530  0.46725421  0.86126984  1
  O  O34  1  0.37053104  0.86826628  0.85400327  1
  O  O35  1  0.51221356  0.63890330  0.86245646  1
  O  O36  1  0.01157510  0.81188106  0.40536813  1
  O  O37  1  0.80210302  0.97810662  0.41054712  1
  O  O38  1  0.17546793  0.19091768  0.41259214  1
  O  O39  1  0.00378085  0.19316927  0.91456372  1
  O  O40  1  0.17476465  0.98597347  0.91459484  1
  O  O41  1  0.80136852  0.80745653  0.91489868  1
  O  O42  1  0.95383472  0.14902922  0.58265633  1
  O  O43  1  0.15990392  0.02539755  0.59663375  1
  O  O44  1  0.83311691  0.79804471  0.58356529  1
  O  O45  1  0.95313642  0.81026614  0.08645837  1
  O  O46  1  0.84422168  0.03169046  0.08961671  1
  O  O47  1  0.17769512  0.14465500  0.08900500  1
  O  O48  1  0.69319838  0.16935471  0.74889757  1
  O  O49  1  0.49552060  0.34521221  0.74459484  1
  O  O50  1  0.86147316  0.54636667  0.74459735  1
  O  O51  1  0.69647919  0.54431837  0.25426502  1
  O  O52  1  0.85525336  0.31870697  0.24543414  1
  O  O53  1  0.49051069  0.15760685  0.24728264  1
  O  O54  1  0.63144286  0.49518521  0.91896819  1
  O  O55  1  0.85044968  0.36370809  0.92448118  1
  O  O56  1  0.52125731  0.16385203  0.92411435  1
  O  O57  1  0.63568609  0.12782422  0.41554084  1
  O  O58  1  0.52326322  0.35249756  0.42521904  1
  O  O59  1  0.87774229  0.50019361  0.41285173  1
  O  O60  1  0.35677884  0.50141079  0.07560355  1
  O  O61  1  0.14816396  0.66252789  0.07946279  1
  O  O62  1  0.53192583  0.87121704  0.07887707  1
  O  O63  1  0.34743867  0.85325419  0.57529809  1
  O  O64  1  0.52010738  0.65499711  0.57831250  1
  O  O65  1  0.14149475  0.48522188  0.57534721  1
  O  O66  1  0.30564182  0.79783964  0.25831257  1
  O  O67  1  0.51990737  0.68577328  0.25154691  1
  O  O68  1  0.16888011  0.46220917  0.25058086  1
  O  O69  1  0.29608179  0.50178289  0.76443047  1
  O  O70  1  0.17541904  0.70486693  0.75161240  1
  O  O71  1  0.51755613  0.82898983  0.74679207  1
loop_
_geom_bond_atom_site_label_1
_geom_bond_atom_site_label_2
_geom_bond_distance
_geom_bond_site_symmetry_2
Na0 O17 2.302391 1_555
Na0 O53 2.412112 1_555
Na0 O68 2.428826 1_555
Na0 O51 2.527153 1_555
Na0 O67 2.595693 1_555
Na0 O32 2.669591 1_555
Na0 O10 2.874780 1_555
Na1 O15 2.269444 1_455
Na1 O66 2.384851 1_555
Na1 O51 2.441115 1_455
Na1 O52 2.473644 1_455
Na1 O11 2.609091 1_555
Na1 O68 2.616074 1_555
Na1 O30 2.757428 1_555
Na2 O48 2.342648 1_555
Na2 O69 2.381329 1_655
Na2 O50 2.431331 1_555
Na2 O12 2.432907 1_555
Na2 O7 2.593920 1_655
Na2 O70 2.688682 1_655
Na2 O33 2.693127 1_655
Na3 O13 2.358833 1_555
Na3 O48 2.407313 1_555
Na3 O49 2.483416 1_555
Na3 O70 2.558925 1_545
Na3 O71 2.577255 1_545
Na3 O34 2.768807 1_545
Na3 O8 2.843439 1_545
Na3 O3 2.872564 1_555
Na4 O65 2.307146 1_555
Na4 O43 2.484428 1_555
Na4 O64 2.513993 1_555
Na4 O28 2.600187 1_555
Na4 O21 2.611774 1_555
Na4 O42 2.681668 1_455
Na4 O7 2.731967 1_555
Na4 O14 2.950485 1_555
Na5 O6 2.350552 1_555
Na5 O63 2.371436 1_555
Na5 O42 2.390597 1_565
Na5 O64 2.530426 1_555
Na5 O13 2.694994 1_565
Na5 O44 2.777739 1_555
Na5 O27 2.886485 1_555
Na6 O26 2.288039 1_554
Na6 O61 2.338256 1_555
Na6 O47 2.444918 1_565
Na6 O62 2.493405 1_555
Na6 O18 2.614768 1_565
Na6 O45 2.772174 1_455
Na7 O45 2.317879 1_555
Na7 O60 2.317886 1_555
Na7 O62 2.404137 1_555
Na7 O9 2.582325 1_555
Na7 O24 2.583607 1_554
Na7 O46 2.732430 1_565
Na7 O19 2.797881 1_555
Na7 O17 2.954077 1_555
Na8 O40 2.404096 1_655
Na8 O41 2.413757 1_555
Na8 O55 2.464179 1_555
Na8 O4 2.504793 1_555
Na8 O54 2.760897 1_555
Na8 O33 2.775301 1_655
Na8 O19 2.839179 1_556
Na8 O26 2.882095 1_655
Na9 O3 2.279911 1_555
Na9 O40 2.379945 1_545
Na9 O54 2.413309 1_555
Na9 O56 2.494724 1_555
Na9 O39 2.550781 1_555
Na9 O18 2.858918 1_556
Na9 O35 2.903079 1_555
Na9 O25 3.019103 1_555
Na10 O59 2.375295 1_555
Na10 O38 2.403384 1_655
Na10 O23 2.511130 1_555
Na10 O37 2.566220 1_545
Na10 O57 2.691465 1_555
Na10 O28 2.742050 1_655
Na10 O2 2.870531 1_555
Na11 O38 2.339023 1_555
Na11 O0 2.419184 1_555
Na11 O57 2.439857 1_555
Na11 O58 2.496343 1_555
Na11 O36 2.519945 1_545
Na11 O21 2.656064 1_555
Na11 O29 2.859481 1_545
Na11 O31 2.957245 1_545
Na12 O43 2.389233 1_555
Na12 O44 2.393623 1_445
Na12 O42 2.445656 1_455
Na12 O37 2.634697 1_445
Na12 O36 2.666375 1_545
Na12 O38 2.686844 1_555
Na13 O39 2.344136 1_555
Na13 O40 2.467171 1_545
Na13 O47 2.491040 1_556
Na13 O41 2.499462 1_445
Na13 O46 2.568170 1_456
Na13 O45 2.633495 1_446
Na14 O48 2.309430 1_555
Na14 O49 2.397427 1_555
Na14 O56 2.517778 1_555
Na14 O55 2.573645 1_555
Na14 O54 2.614012 1_555
Na14 O50 2.701574 1_555
Na15 O53 2.395213 1_555
Na15 O58 2.438987 1_555
Na15 O57 2.444998 1_555
Na15 O59 2.470644 1_555
Na15 O51 2.530957 1_555
Na15 O52 2.650067 1_555
Na16 O61 2.307304 1_555
Na16 O60 2.374211 1_555
Na16 O68 2.549228 1_555
Na16 O66 2.586800 1_555
Na16 O67 2.597386 1_555
Na16 O62 2.684885 1_555
Na17 O65 2.415996 1_555
Na17 O70 2.443548 1_555
Na17 O63 2.452551 1_555
Na17 O71 2.511690 1_555
Na17 O69 2.659816 1_555
Na17 O64 2.674090 1_555
Mg0 O0 1.942374 1_555
Mg0 O38 2.025954 1_555
Mg0 O2 2.034118 1_455
Mg0 O1 2.051552 1_445
Mg0 O36 2.107650 1_545
Mg0 O37 2.210994 1_445
Mg1 O5 1.870893 1_455
Mg1 O3 1.952324 1_555
Mg1 O40 2.048171 1_545
Mg1 O4 2.056834 1_445
Mg1 O39 2.220679 1_555
Mg1 O41 2.413529 1_445
Mg2 O12 1.961724 1_555
Mg2 O13 1.972063 1_555
Mg2 O49 2.000219 1_555
Mg2 O48 2.053258 1_555
Mg2 O14 2.101208 1_555
Mg2 O50 2.208596 1_555
Mg3 O17 1.938712 1_555
Mg3 O15 1.976132 1_555
Mg3 O16 1.998336 1_555
Mg3 O53 2.064524 1_555
Mg3 O52 2.159032 1_555
Mg3 O51 2.364280 1_555
Mg4 O26 1.931378 1_554
Mg4 O60 1.976961 1_555
Mg4 O25 1.982321 1_554
Mg4 O61 2.024417 1_555
Mg4 O24 2.189512 1_554
Mg4 O62 2.328584 1_555
Mg5 O28 1.940973 1_555
Mg5 O63 1.964532 1_555
Mg5 O65 1.982379 1_555
Mg5 O29 2.031291 1_555
Mg5 O64 2.170173 1_555
Mg5 O27 2.269254 1_555
Ge0 O7 1.811653 1_555
Ge0 O6 1.812009 1_445
Ge0 O43 1.864418 1_555
Ge0 O42 1.893934 1_455
Ge0 O8 2.286224 1_545
Ge0 O44 2.467685 1_445
Ge1 O11 1.800210 1_555
Ge1 O47 1.804633 1_565
Ge1 O45 1.821384 1_455
Ge1 O46 2.164154 1_465
Ge1 O10 2.225954 1_565
Ge1 O9 2.366769 1_455
Ge2 O18 1.834214 1_556
Ge2 O19 1.848278 1_556
Ge2 O56 1.859821 1_555
Ge2 O20 1.992615 1_556
Ge2 O55 2.146700 1_555
Ge2 O54 2.238248 1_555
Ge3 O21 1.791093 1_555
Ge3 O23 1.805163 1_555
Ge3 O22 1.846057 1_555
Ge3 O58 1.852816 1_555
Ge4 O32 1.820467 1_555
Ge4 O66 1.853151 1_555
Ge4 O31 1.894094 1_555
Ge4 O30 2.006361 1_555
Ge4 O67 2.069045 1_555
Ge4 O68 2.239410 1_555
Ge5 O71 1.790560 1_555
Ge5 O34 1.815172 1_555
Ge5 O69 1.818055 1_555
Ge5 O35 1.990961 1_555
Ge5 O70 2.107852 1_555
O0 Si0 1.592320 1_555
O1 S0 1.454226 1_555
O2 S1 1.466869 1_655
O3 Si1 1.598155 1_555
O4 S2 1.466985 1_655
O5 Si2 1.564612 1_555
O6 Si2 1.714533 1_565
O7 Si1 1.726323 1_555
O8 S2 1.487241 1_555
O9 S0 1.492369 1_555
O10 S1 1.496236 1_555
O11 Si0 1.741315 1_565
O12 Si3 1.569630 1_555
O13 Si4 1.578114 1_555
O14 S3 1.440627 1_555
O15 Si5 1.590375 1_555
O16 S4 1.453514 1_555
O17 Si6 1.594199 1_555
O18 Si6 1.706290 1_555
O19 Si5 1.706741 1_555
O20 S4 1.513840 1_555
O21 Si4 1.742733 1_555
O22 S3 1.559299 1_555
O23 Si3 1.772295 1_555
O24 S5 1.462143 1_555
O25 S6 1.469363 1_555
O26 Si7 1.587460 1_555
O27 S7 1.453077 1_555
O28 Si8 1.575979 1_555
O29 S8 1.457785 1_555
O30 S8 1.552074 1_555
O31 S7 1.545697 1_555
O32 Si8 1.734810 1_555
O33 S6 1.477630 1_555
O34 Si7 1.714122 1_555
O35 S5 1.515412 1_555
O36 S8 1.475137 1_555
O37 S7 1.475667 1_555
O38 Si8 1.632847 1_555
O39 S6 1.477938 1_555
O40 Si7 1.636185 1_555
O41 S5 1.467302 1_555
O42 Si3 1.701107 1_555
O43 Si4 1.680675 1_555
O44 S3 1.462047 1_555
O45 Si5 1.748520 1_555
O46 S4 1.500053 1_555
O47 Si6 1.703767 1_555
O48 Si2 1.617823 1_555
O49 Si1 1.589337 1_555
O50 S2 1.462408 1_655
O51 S0 1.492164 1_555
O52 S1 1.467754 1_655
O53 Si0 1.603265 1_555
O54 S5 1.525054 1_555
O55 S6 1.525739 1_655
O56 Si7 1.706529 1_545
O57 S7 1.491491 1_545
O58 Si8 1.727929 1_555
O59 S8 1.468435 1_655
O60 Si6 1.598368 1_555
O61 Si5 1.601318 1_455
O62 S4 1.479235 1_565
O63 Si4 1.597948 1_565
O64 S3 1.486555 1_555
O65 Si3 1.599604 1_455
O66 Si0 1.710184 1_565
O67 S0 1.528697 1_555
O68 S1 1.535434 1_555
O69 Si1 1.693579 1_555
O70 S2 1.541020 1_555
O71 Si2 1.695804 1_565
