# generated using pymatgen
data_Na10Ta2Al6Si7S5O48
_symmetry_space_group_name_H-M   'P 1'
_cell_length_a   17.52789712
_cell_length_b   8.73449014
_cell_length_c   21.88472179
_cell_angle_alpha   90.10210455
_cell_angle_beta   90.35301634
_cell_angle_gamma   119.93165819
_symmetry_Int_Tables_number   1
_chemical_formula_structural   Na10Ta2Al6Si7S5O48
_chemical_formula_sum   'Na30 Ta6 Al18 Si21 S15 O144'
_cell_volume   2903.50542601
_cell_formula_units_Z   3
loop_
 _symmetry_equiv_pos_site_id
 _symmetry_equiv_pos_as_xyz
  1  'x, y, z'
loop_
 _atom_site_type_symbol
 _atom_site_label
 _atom_site_symmetry_multiplicity
 _atom_site_fract_x
 _atom_site_fract_y
 _atom_site_fract_z
 _atom_site_occupancy
  Na  Na0  1  0.31943316  0.00137630  0.24545214  1
  Na  Na1  1  0.81461049  0.00241991  0.24775860  1
  Na  Na2  1  0.18549777  0.36658502  0.24530246  1
  Na  Na3  1  0.31474671  0.62683521  0.74840584  1
  Na  Na4  1  0.81866967  0.63633711  0.74521981  1
  Na  Na5  1  0.68434745  0.00310060  0.74585654  1
  Na  Na6  1  0.15839179  0.33487865  0.58377054  1
  Na  Na7  1  0.65438258  0.33310800  0.57803654  1
  Na  Na8  1  0.01793000  0.69944181  0.57395100  1
  Na  Na9  1  0.15621699  0.97816899  0.08106220  1
  Na  Na10  1  0.65737935  0.98027516  0.08350671  1
  Na  Na11  1  0.51728544  0.33511512  0.07314047  1
  Na  Na12  1  0.85131816  0.02892864  0.92083975  1
  Na  Na13  1  0.66570060  0.31174830  0.91985814  1
  Na  Na14  1  0.48591481  0.29822994  0.42021198  1
  Na  Na15  1  0.16734980  0.02139992  0.42037563  1
  Na  Na16  1  0.66729372  0.05002557  0.41624869  1
  Na  Na17  1  0.84810868  0.65943498  0.41663802  1
  Na  Na18  1  0.99622859  0.99641413  0.49697913  1
  Na  Na19  1  0.48692058  0.97626789  0.49475023  1
  Na  Na20  1  0.99902104  0.99925580  0.99495343  1
  Na  Na21  1  0.48742695  0.99489861  0.99443578  1
  Na  Na22  1  0.33461772  0.32814708  0.83336528  1
  Na  Na23  1  0.84230854  0.34486274  0.83260083  1
  Na  Na24  1  0.33727079  0.35127413  0.33291373  1
  Na  Na25  1  0.83606308  0.34214348  0.33144462  1
  Na  Na26  1  0.16594952  0.65168017  0.16034110  1
  Na  Na27  1  0.67401119  0.66915567  0.16469858  1
  Na  Na28  1  0.17522835  0.67976747  0.66519858  1
  Na  Na29  1  0.66581943  0.68019488  0.66070148  1
  Ta  Ta0  1  0.00052411  0.00638830  0.64793204  1
  Ta  Ta1  1  0.50257897  0.98766144  0.64098205  1
  Ta  Ta2  1  0.00295980  0.01698290  0.14053121  1
  Ta  Ta3  1  0.49937872  0.99286494  0.14737480  1
  Ta  Ta4  1  0.16394692  0.67539744  0.31177469  1
  Ta  Ta5  1  0.66232858  0.64838612  0.81241438  1
  Al  Al0  1  0.00320682  0.00098357  0.34960585  1
  Al  Al1  1  0.50074704  0.99493470  0.35505883  1
  Al  Al2  1  0.99933060  0.00610160  0.85132414  1
  Al  Al3  1  0.49797445  0.00590323  0.84985533  1
  Al  Al4  1  0.32131800  0.33998117  0.68867759  1
  Al  Al5  1  0.82061463  0.31215454  0.68488355  1
  Al  Al6  1  0.32145715  0.32786415  0.18531978  1
  Al  Al7  1  0.82095582  0.30261328  0.18852402  1
  Al  Al8  1  0.33171452  0.31204424  0.97995650  1
  Al  Al9  1  0.83067192  0.34007116  0.98655441  1
  Al  Al10  1  0.32744134  0.32426659  0.48559710  1
  Al  Al11  1  0.82939997  0.35057329  0.47869531  1
  Al  Al12  1  0.17515788  0.66908790  0.02083871  1
  Al  Al13  1  0.68279681  0.65422079  0.01911600  1
  Al  Al14  1  0.18236733  0.70895572  0.52081493  1
  Al  Al15  1  0.67077859  0.66432228  0.52200829  1
  Al  Al16  1  0.66434541  0.66549882  0.31543546  1
  Al  Al17  1  0.16497837  0.65723628  0.81641041  1
  Si  Si0  1  0.14423481  0.00374067  0.25000337  1
  Si  Si1  1  0.64483201  0.99250030  0.25730923  1
  Si  Si2  1  0.36070921  0.70257220  0.25448831  1
  Si  Si3  1  0.99310557  0.28624731  0.25412524  1
  Si  Si4  1  0.14528000  0.29450454  0.75753989  1
  Si  Si5  1  0.64329576  0.28196681  0.75046763  1
  Si  Si6  1  0.49292623  0.70031095  0.75484390  1
  Si  Si7  1  0.85855769  0.01791967  0.75441298  1
  Si  Si8  1  0.19584396  0.04653430  0.58534662  1
  Si  Si9  1  0.69489915  0.03815885  0.57785308  1
  Si  Si10  1  0.32790237  0.61382819  0.57927793  1
  Si  Si11  1  0.83120764  0.61679863  0.58492581  1
  Si  Si12  1  0.33089901  0.04582478  0.08399248  1
  Si  Si13  1  0.82824020  0.04155740  0.07813731  1
  Si  Si14  1  0.19632165  0.34824455  0.07799703  1
  Si  Si15  1  0.69599463  0.34443036  0.08550100  1
  Si  Si16  1  0.82377505  0.66940857  0.91753371  1
  Si  Si17  1  0.51364503  0.36792048  0.92169491  1
  Si  Si18  1  0.31914210  0.96967842  0.41815557  1
  Si  Si19  1  0.66485656  0.38234716  0.41589146  1
  Si  Si20  1  0.01784307  0.66123927  0.42161335  1
  S  S0  1  0.85532821  0.70665418  0.25175100  1
  S  S1  1  0.50406142  0.29982735  0.25164504  1
  S  S2  1  0.00500722  0.71226971  0.75298404  1
  S  S3  1  0.35418663  0.00348117  0.75242685  1
  S  S4  1  0.47480042  0.33828252  0.58365299  1
  S  S5  1  0.97174724  0.33101196  0.58264700  1
  S  S6  1  0.47192071  0.61240794  0.08258367  1
  S  S7  1  0.97629629  0.61312860  0.08306281  1
  S  S8  1  0.31023697  0.66770149  0.91638992  1
  S  S9  1  0.02682676  0.38767373  0.91773653  1
  S  S10  1  0.16534137  0.94544853  0.91591503  1
  S  S11  1  0.66317425  0.95428124  0.91849136  1
  S  S12  1  0.81222732  0.95597353  0.41657620  1
  S  S13  1  0.16520665  0.37401547  0.41845816  1
  S  S14  1  0.52353809  0.66547250  0.41742823  1
  O  O0  1  0.09983646  0.03524833  0.30956889  1
  O  O1  1  0.59779072  0.02181579  0.31527693  1
  O  O2  1  0.42022093  0.80935634  0.31131848  1
  O  O3  1  0.90787582  0.79027096  0.30859551  1
  O  O4  1  0.48796044  0.18564103  0.30515972  1
  O  O5  1  0.97579552  0.15050070  0.30954029  1
  O  O6  1  0.09364228  0.15966407  0.81163503  1
  O  O7  1  0.59840523  0.16111491  0.80958389  1
  O  O8  1  0.47552544  0.80227784  0.80985356  1
  O  O9  1  0.98607901  0.79652483  0.80464473  1
  O  O10  1  0.40928480  0.02818992  0.80728901  1
  O  O11  1  0.91425587  0.03468624  0.81498176  1
  O  O12  1  0.39254343  0.96225582  0.69742421  1
  O  O13  1  0.90114094  0.96342753  0.69625692  1
  O  O14  1  0.08512927  0.20760641  0.69285444  1
  O  O15  1  0.58383208  0.19823581  0.68844031  1
  O  O16  1  0.01969456  0.81962883  0.69522250  1
  O  O17  1  0.51365665  0.83091936  0.69303833  1
  O  O18  1  0.39951078  0.83571918  0.19416903  1
  O  O19  1  0.89752887  0.82475813  0.19775675  1
  O  O20  1  0.01308150  0.19560579  0.19260945  1
  O  O21  1  0.51774255  0.21643711  0.19503483  1
  O  O22  1  0.08453081  0.97042649  0.18829121  1
  O  O23  1  0.58373290  0.96148979  0.19380573  1
  O  O24  1  0.43358022  0.35890437  0.63777999  1
  O  O25  1  0.93204272  0.35642422  0.63789054  1
  O  O26  1  0.25582062  0.14625045  0.64340928  1
  O  O27  1  0.74397337  0.11846353  0.64293725  1
  O  O28  1  0.31265026  0.50577041  0.64306384  1
  O  O29  1  0.82039011  0.49871458  0.64561078  1
  O  O30  1  0.43174117  0.50678774  0.13761568  1
  O  O31  1  0.93866051  0.51214081  0.13825493  1
  O  O32  1  0.31735025  0.13471143  0.14610105  1
  O  O33  1  0.81353899  0.12376094  0.14089123  1
  O  O34  1  0.24376658  0.36596823  0.14383297  1
  O  O35  1  0.75637173  0.36751266  0.14372382  1
  O  O36  1  0.24005816  0.29881440  0.02230615  1
  O  O37  1  0.73026047  0.29665189  0.02298937  1
  O  O38  1  0.41988946  0.53986973  0.02684791  1
  O  O39  1  0.92218945  0.53546783  0.02731436  1
  O  O40  1  0.35772536  0.17727144  0.02659466  1
  O  O41  1  0.84850600  0.16755948  0.01825988  1
  O  O42  1  0.22859661  0.15965609  0.52218947  1
  O  O43  1  0.73797858  0.17091805  0.52053897  1
  O  O44  1  0.34904081  0.52430953  0.52200203  1
  O  O45  1  0.85503711  0.54210242  0.52437485  1
  O  O46  1  0.42403442  0.31027411  0.52586349  1
  O  O47  1  0.91921101  0.30126925  0.52708809  1
  O  O48  1  0.26727911  0.69672879  0.97004110  1
  O  O49  1  0.77538309  0.71317004  0.97221433  1
  O  O50  1  0.08061787  0.47878464  0.97195563  1
  O  O51  1  0.58423632  0.46731638  0.97848816  1
  O  O52  1  0.15412338  0.84085341  0.97265484  1
  O  O53  1  0.65269147  0.84785996  0.97274469  1
  O  O54  1  0.27146848  0.84406890  0.47488508  1
  O  O55  1  0.76956863  0.83890790  0.46952416  1
  O  O56  1  0.15278981  0.45709774  0.47265620  1
  O  O57  1  0.64693259  0.46987384  0.47710288  1
  O  O58  1  0.08556553  0.70334442  0.47903027  1
  O  O59  1  0.58039019  0.69475526  0.47130392  1
  O  O60  1  0.06781524  0.63915019  0.36055374  1
  O  O61  1  0.56415983  0.63862517  0.36147798  1
  O  O62  1  0.25247687  0.88026401  0.35708467  1
  O  O63  1  0.75776706  0.87925295  0.35983033  1
  O  O64  1  0.17719002  0.48001731  0.36206099  1
  O  O65  1  0.68279294  0.51714888  0.35924156  1
  O  O66  1  0.06777142  0.49271204  0.86173468  1
  O  O67  1  0.56691477  0.49439928  0.86106419  1
  O  O68  1  0.17614087  0.85347351  0.86197725  1
  O  O69  1  0.67791047  0.87202296  0.86277362  1
  O  O70  1  0.25682240  0.64665254  0.85986776  1
  O  O71  1  0.75588416  0.63009345  0.85664288  1
  O  O72  1  0.00779853  0.84032025  0.40959859  1
  O  O73  1  0.51480895  0.82555512  0.41335549  1
  O  O74  1  0.41532794  0.99379329  0.40690655  1
  O  O75  1  0.89969865  0.96676400  0.41124164  1
  O  O76  1  0.08537525  0.19320141  0.41242449  1
  O  O77  1  0.57883010  0.18336815  0.40968694  1
  O  O78  1  0.01858651  0.20889739  0.91474265  1
  O  O79  1  0.50973699  0.17669789  0.90924464  1
  O  O80  1  0.08594485  0.96220335  0.91003569  1
  O  O81  1  0.58503108  0.97626073  0.91253253  1
  O  O82  1  0.39823977  0.82919088  0.91167905  1
  O  O83  1  0.91861936  0.84902553  0.90767445  1
  O  O84  1  0.48582892  0.17664160  0.58714973  1
  O  O85  1  0.98308464  0.16793667  0.58741023  1
  O  O86  1  0.09390526  0.02675438  0.59194616  1
  O  O87  1  0.59421130  0.02732263  0.58459934  1
  O  O88  1  0.41316418  0.81834665  0.58728857  1
  O  O89  1  0.92106407  0.81441194  0.59162710  1
  O  O90  1  0.48402159  0.79862981  0.08761609  1
  O  O91  1  0.98596810  0.79586822  0.08687122  1
  O  O92  1  0.42003620  0.02557332  0.09155271  1
  O  O93  1  0.91373395  0.00923506  0.08657303  1
  O  O94  1  0.09463611  0.15877778  0.08431620  1
  O  O95  1  0.59422828  0.16170620  0.09219590  1
  O  O96  1  0.34729176  0.16057732  0.74501074  1
  O  O97  1  0.84811374  0.18821458  0.74199074  1
  O  O98  1  0.24167992  0.31497191  0.74805590  1
  O  O99  1  0.74297860  0.31318453  0.74513680  1
  O  O100  1  0.41045565  0.50784835  0.74154839  1
  O  O101  1  0.92648744  0.53688850  0.74458518  1
  O  O102  1  0.34856578  0.50947981  0.24237854  1
  O  O103  1  0.84810862  0.53477988  0.24503077  1
  O  O104  1  0.42474303  0.31527361  0.24322763  1
  O  O105  1  0.91015147  0.31259098  0.24136073  1
  O  O106  1  0.24343534  0.17285791  0.24548479  1
  O  O107  1  0.74147660  0.16573821  0.24736096  1
  O  O108  1  0.31697937  0.50777762  0.92187780  1
  O  O109  1  0.82522595  0.48467276  0.92554814  1
  O  O110  1  0.41885727  0.35799913  0.92447239  1
  O  O111  1  0.93667024  0.36300756  0.92033945  1
  O  O112  1  0.24592166  0.12191314  0.91973422  1
  O  O113  1  0.74471106  0.13312089  0.92000928  1
  O  O114  1  0.32715792  0.16737200  0.42506963  1
  O  O115  1  0.82190192  0.13218324  0.42324295  1
  O  O116  1  0.24440069  0.35283824  0.42072979  1
  O  O117  1  0.75286596  0.36036951  0.42105598  1
  O  O118  1  0.43605055  0.50422412  0.42176103  1
  O  O119  1  0.92131103  0.48666931  0.42495655  1
  O  O120  1  0.17578360  0.50771970  0.07073538  1
  O  O121  1  0.67492066  0.50536949  0.08010890  1
  O  O122  1  0.06740090  0.64493037  0.07464873  1
  O  O123  1  0.56261259  0.64246273  0.07881839  1
  O  O124  1  0.24184337  0.85380537  0.07400876  1
  O  O125  1  0.73831798  0.84849931  0.07083067  1
  O  O126  1  0.17331054  0.84230034  0.58170071  1
  O  O127  1  0.67503591  0.83880943  0.56910177  1
  O  O128  1  0.23810452  0.62749078  0.57189615  1
  O  O129  1  0.74258232  0.63165156  0.57781053  1
  O  O130  1  0.06240064  0.48202435  0.57846336  1
  O  O131  1  0.56532122  0.49305199  0.57835683  1
  O  O132  1  0.15582680  0.82735902  0.25160587  1
  O  O133  1  0.65945261  0.81964596  0.26189996  1
  O  O134  1  0.26035695  0.67929165  0.25993397  1
  O  O135  1  0.76766930  0.69588721  0.25623010  1
  O  O136  1  0.08727515  0.47058844  0.25818030  1
  O  O137  1  0.58388561  0.47475793  0.25694559  1
  O  O138  1  0.15852301  0.49554133  0.76195117  1
  O  O139  1  0.65554018  0.48216690  0.75225843  1
  O  O140  1  0.08525758  0.69948416  0.76064450  1
  O  O141  1  0.58701691  0.70298681  0.75918955  1
  O  O142  1  0.26534044  0.84059653  0.75981898  1
  O  O143  1  0.75911780  0.83996586  0.75931816  1
loop_
_geom_bond_atom_site_label_1
_geom_bond_atom_site_label_2
_geom_bond_distance
_geom_bond_site_symmetry_2
Na0 O104 2.424429 1_555
Na0 O106 2.451315 1_555
Na0 O32 2.477013 1_555
Na0 O134 2.487407 1_545
Na0 O132 2.491530 1_545
Na0 O62 2.696384 1_545
Na0 O18 2.713595 1_545
Na0 O4 2.867754 1_555
Na1 O107 2.345836 1_555
Na1 O105 2.374956 1_555
Na1 O135 2.384351 1_545
Na1 O133 2.391655 1_545
Na1 O33 2.573248 1_555
Na1 O63 2.671226 1_545
Na1 O5 2.789808 1_555
Na1 O19 2.825249 1_545
Na2 O136 2.331196 1_555
Na2 O106 2.368403 1_555
Na2 O134 2.387393 1_555
Na2 O34 2.451070 1_555
Na2 O102 2.484737 1_555
Na2 O64 2.769759 1_555
Na2 O20 2.853095 1_555
Na2 O0 2.883099 1_555
Na3 O98 2.361922 1_555
Na3 O100 2.378936 1_555
Na3 O138 2.403876 1_555
Na3 O142 2.431649 1_555
Na3 O28 2.527014 1_555
Na3 O70 2.686153 1_555
Na3 O12 2.780506 1_555
Na3 O8 2.781153 1_555
Na4 O101 2.442248 1_555
Na4 O99 2.447455 1_555
Na4 O139 2.485261 1_555
Na4 O143 2.490553 1_555
Na4 O29 2.495104 1_555
Na4 O71 2.670921 1_555
Na4 O13 2.703465 1_555
Na4 O9 2.847566 1_555
Na5 O141 2.326607 1_545
Na5 O99 2.369525 1_555
Na5 O143 2.386424 1_545
Na5 O27 2.483325 1_555
Na5 O97 2.496589 1_555
Na5 O69 2.784877 1_545
Na5 O17 2.830205 1_545
Na5 O7 2.865825 1_555
Na6 O128 2.234980 1_555
Na6 O86 2.349731 1_555
Na6 O130 2.579211 1_555
Na6 O85 2.665815 1_455
Na6 O28 2.672982 1_555
Na6 O56 2.678312 1_555
Na6 O14 2.684496 1_555
Na6 O42 2.750522 1_555
Na7 O129 2.273085 1_555
Na7 O87 2.336388 1_555
Na7 O57 2.546538 1_555
Na7 O131 2.562241 1_555
Na7 O84 2.571943 1_555
Na7 O15 2.710715 1_555
Na7 O43 2.797335 1_555
Na7 O29 2.912926 1_555
Na8 O126 2.367571 1_555
Na8 O130 2.387585 1_555
Na8 O58 2.389999 1_555
Na8 O89 2.397701 1_455
Na8 O86 2.508398 1_565
Na8 O45 2.694179 1_455
Na8 O16 2.846632 1_555
Na8 O25 2.956468 1_455
Na9 O124 2.255109 1_555
Na9 O94 2.314845 1_565
Na9 O122 2.527687 1_555
Na9 O91 2.592314 1_455
Na9 O52 2.648267 1_554
Na9 O22 2.653748 1_555
Na9 O36 2.754212 1_565
Na9 O32 2.821716 1_565
Na10 O125 2.246697 1_555
Na10 O95 2.350471 1_565
Na10 O123 2.565462 1_555
Na10 O90 2.636524 1_555
Na10 O53 2.667002 1_554
Na10 O33 2.677416 1_565
Na10 O23 2.710800 1_555
Na10 O37 2.744694 1_565
Na11 O51 2.384860 1_554
Na11 O123 2.392175 1_555
Na11 O121 2.400537 1_555
Na11 O92 2.406472 1_555
Na11 O95 2.514099 1_555
Na11 O40 2.621497 1_555
Na11 O21 2.865080 1_555
Na11 O30 2.958014 1_555
Na12 O83 2.407522 1_545
Na12 O113 2.452934 1_555
Na12 O41 2.462878 1_556
Na12 O111 2.529212 1_555
Na12 O78 2.547744 1_655
Na12 O11 2.561839 1_555
Na12 O49 2.647330 1_545
Na12 O69 2.919025 1_545
Na13 O79 2.385744 1_555
Na13 O109 2.428108 1_555
Na13 O81 2.544105 1_545
Na13 O113 2.551163 1_555
Na13 O37 2.551556 1_556
Na13 O7 2.711348 1_555
Na13 O51 2.735725 1_555
Na13 O71 2.792609 1_555
Na14 O77 2.312205 1_555
Na14 O74 2.322933 1_545
Na14 O118 2.360475 1_555
Na14 O114 2.427157 1_555
Na14 O46 2.584077 1_555
Na14 O4 2.708432 1_555
Na14 O57 2.736918 1_555
Na14 O61 2.887743 1_555
Na15 O114 2.431935 1_555
Na15 O72 2.440214 1_545
Na15 O42 2.498541 1_555
Na15 O116 2.510549 1_555
Na15 O76 2.548746 1_555
Na15 O0 2.721032 1_555
Na15 O58 2.735235 1_545
Na15 O62 2.742173 1_545
Na16 O117 2.355485 1_555
Na16 O77 2.362510 1_555
Na16 O73 2.399930 1_545
Na16 O115 2.436409 1_555
Na16 O1 2.468422 1_555
Na16 O43 2.551511 1_555
Na17 O117 2.295839 1_555
Na17 O75 2.370133 1_555
Na17 O119 2.426290 1_555
Na17 O72 2.438754 1_655
Na17 O45 2.598751 1_555
Na17 O3 2.615269 1_555
Na17 O55 2.803361 1_555
Na17 O65 2.806154 1_555
Na18 O72 2.414184 1_655
Na18 O75 2.443839 1_555
Na18 O76 2.487348 1_665
Na18 O89 2.551206 1_555
Na18 O85 2.560027 1_565
Na18 O86 2.611946 1_665
Na19 O74 2.336000 1_555
Na19 O73 2.406122 1_555
Na19 O88 2.436794 1_555
Na19 O77 2.544364 1_565
Na19 O87 2.591581 1_565
Na19 O84 2.678387 1_565
Na20 O83 2.338538 1_555
Na20 O78 2.438070 1_665
Na20 O94 2.488857 1_666
Na20 O80 2.530719 1_655
Na20 O93 2.535544 1_566
Na20 O91 2.620605 1_556
Na21 O82 2.348747 1_555
Na21 O79 2.355889 1_565
Na21 O92 2.515755 1_566
Na21 O81 2.545742 1_555
Na21 O90 2.648150 1_556
Na21 O95 2.724362 1_566
Na22 O110 2.408586 1_555
Na22 O98 2.434577 1_555
Na22 O100 2.496055 1_555
Na22 O96 2.500025 1_555
Na22 O112 2.547189 1_555
Na22 O108 2.605791 1_555
Na23 O97 2.438521 1_555
Na23 O109 2.466195 1_555
Na23 O111 2.479077 1_555
Na23 O99 2.499596 1_555
Na23 O101 2.505463 1_555
Na23 O113 2.627124 1_555
Na24 O102 2.369805 1_555
Na24 O106 2.487450 1_555
Na24 O118 2.490815 1_555
Na24 O116 2.530624 1_555
Na24 O114 2.531978 1_555
Na24 O104 2.611129 1_555
Na25 O107 2.431449 1_555
Na25 O105 2.450292 1_555
Na25 O119 2.466799 1_555
Na25 O103 2.472615 1_555
Na25 O117 2.502735 1_555
Na25 O115 2.650623 1_555
Na26 O120 2.380756 1_555
Na26 O124 2.480990 1_555
Na26 O122 2.522345 1_555
Na26 O132 2.576903 1_555
Na26 O136 2.619152 1_555
Na26 O134 2.665019 1_555
Na27 O121 2.342550 1_555
Na27 O125 2.494465 1_555
Na27 O135 2.517409 1_555
Na27 O133 2.578653 1_555
Na27 O137 2.613215 1_555
Na27 O123 2.626450 1_555
Na28 O126 2.326317 1_555
Na28 O128 2.473667 1_555
Na28 O142 2.547782 1_555
Na28 O138 2.589980 1_555
Na28 O130 2.651538 1_555
Na28 O140 2.681423 1_555
Na29 O127 2.398870 1_555
Na29 O129 2.424362 1_555
Na29 O131 2.469687 1_555
Na29 O139 2.597084 1_555
Na29 O141 2.627299 1_555
Na29 O143 2.635895 1_555
Al0 O0 1.799813 1_555
Al0 O5 1.824895 1_455
Al0 O72 1.953844 1_545
Al0 O3 1.972704 1_445
Al0 O76 2.082639 1_555
Al0 O75 2.165843 1_445
Al1 O2 1.797392 1_555
Al1 O1 1.823960 1_565
Al1 O74 1.880245 1_555
Al1 O77 1.932926 1_565
Al1 O73 2.060081 1_555
Al1 O4 2.096046 1_565
Al2 O6 1.759361 1_655
Al2 O11 1.810016 1_555
Al2 O83 1.869521 1_545
Al2 O9 2.003634 1_545
Al2 O78 2.136959 1_655
Al2 O80 2.159028 1_645
Al3 O7 1.831740 1_555
Al3 O8 1.837473 1_545
Al3 O10 1.899230 1_555
Al3 O79 1.907907 1_555
Al3 O82 2.147762 1_545
Al3 O81 2.155618 1_545
Al4 O26 1.790017 1_555
Al4 O28 1.827390 1_555
Al4 O98 1.844976 1_555
Al4 O100 1.901392 1_555
Al4 O24 2.200699 1_555
Al4 O96 2.212360 1_555
Al5 O27 1.794645 1_555
Al5 O29 1.845360 1_555
Al5 O97 1.866627 1_555
Al5 O99 1.903919 1_555
Al5 O25 2.072269 1_555
Al5 O101 2.308628 1_555
Al6 O34 1.796550 1_555
Al6 O32 1.860377 1_555
Al6 O102 1.880136 1_555
Al6 O106 1.902046 1_555
Al6 O30 2.070000 1_555
Al6 O104 2.250896 1_555
Al7 O35 1.786828 1_555
Al7 O33 1.825881 1_555
Al7 O107 1.842162 1_555
Al7 O105 1.905339 1_555
Al7 O103 2.211032 1_555
Al7 O31 2.254607 1_555
Al8 O40 1.780302 1_556
Al8 O36 1.812948 1_556
Al8 O110 1.838839 1_555
Al8 O112 2.057148 1_555
Al8 O38 2.075002 1_556
Al8 O108 2.247092 1_555
Al9 O37 1.797083 1_556
Al9 O41 1.822282 1_556
Al9 O109 1.873925 1_555
Al9 O39 1.877909 1_556
Al9 O113 2.214533 1_555
Al9 O111 2.292308 1_555
Al10 O44 1.778266 1_555
Al10 O42 1.801543 1_555
Al10 O114 1.902445 1_555
Al10 O46 1.961243 1_555
Al10 O116 2.129414 1_555
Al10 O118 2.258519 1_555
Al11 O45 1.799509 1_555
Al11 O43 1.839184 1_555
Al11 O117 1.868730 1_555
Al11 O119 1.873171 1_555
Al11 O47 2.107789 1_555
Al11 O115 2.206413 1_555
Al12 O120 1.788825 1_555
Al12 O124 1.848761 1_555
Al12 O48 1.880272 1_554
Al12 O50 1.968859 1_554
Al12 O52 2.012854 1_554
Al12 O122 2.151576 1_555
Al13 O49 1.772241 1_554
Al13 O121 1.822220 1_555
Al13 O125 1.854479 1_555
Al13 O51 1.897782 1_554
Al13 O53 2.249247 1_554
Al13 O123 2.444143 1_555
Al14 O54 1.739671 1_555
Al14 O126 1.827232 1_555
Al14 O128 1.842158 1_555
Al14 O58 1.901380 1_555
Al14 O56 2.250732 1_555
Al14 O130 2.413380 1_555
Al15 O127 1.808444 1_555
Al15 O57 1.818143 1_555
Al15 O129 1.870161 1_555
Al15 O55 2.009656 1_555
Al15 O59 2.052244 1_555
Al15 O131 2.109630 1_555
Al16 O65 1.766733 1_555
Al16 O133 1.820006 1_555
Al16 O61 1.940465 1_555
Al16 O137 2.007107 1_555
Al16 O63 2.008514 1_555
Al16 O135 2.140002 1_555
Al17 O138 1.805761 1_555
Al17 O66 1.880027 1_555
Al17 O68 1.904591 1_555
Al17 O70 1.906454 1_555
Al17 O140 2.018245 1_555
Al17 O142 2.101376 1_555
O0 Si0 1.614187 1_555
O1 Si1 1.605369 1_545
O2 Si2 1.585503 1_555
O3 S0 1.496893 1_555
O4 S1 1.474218 1_555
O5 Si3 1.618422 1_555
O6 Si4 1.600697 1_555
O7 Si5 1.611115 1_555
O8 Si6 1.614724 1_555
O9 S2 1.474849 1_655
O10 S3 1.482429 1_555
O11 Si7 1.603830 1_555
O12 S3 1.510171 1_565
O12 Ta1 2.213164 1_555
O13 Si7 1.663596 1_565
O13 Ta0 1.914567 1_665
O14 Si4 1.694362 1_555
O14 Ta0 1.905129 1_555
O15 Si5 1.637747 1_555
O15 Ta1 1.962354 1_545
O16 S2 1.520155 1_555
O16 Ta0 2.096117 1_565
O17 Si6 1.691409 1_555
O17 Ta1 1.864941 1_555
O18 Si2 1.668790 1_555
O18 Ta3 1.904280 1_555
O19 S0 1.503739 1_555
O19 Ta2 2.177645 1_665
O20 Si3 1.685361 1_455
O20 Ta2 1.865353 1_555
O21 S1 1.515799 1_555
O21 Ta3 2.089554 1_545
O22 Si0 1.637407 1_565
O22 Ta2 1.966057 1_565
O23 Si1 1.685984 1_555
O23 Ta3 1.918480 1_555
O24 S4 1.448199 1_555
O25 S5 1.469291 1_555
O26 Si8 1.595072 1_555
O27 Si9 1.624777 1_555
O28 Si10 1.633529 1_555
O29 Si11 1.635956 1_555
O30 S6 1.470915 1_555
O31 S7 1.450897 1_555
O32 Si12 1.640389 1_555
O33 Si13 1.628959 1_555
O34 Si14 1.627088 1_555
O35 Si15 1.598036 1_555
O36 Si14 1.612282 1_555
O37 Si15 1.632380 1_555
O38 S6 1.458730 1_555
O39 S7 1.479479 1_555
O40 Si12 1.609605 1_555
O41 Si13 1.635639 1_555
O42 Si8 1.632433 1_555
O43 Si9 1.622081 1_555
O44 Si10 1.615909 1_555
O45 Si11 1.622285 1_555
O46 S4 1.489600 1_555
O47 S5 1.462939 1_555
O48 S8 1.486668 1_555
O49 Si16 1.622345 1_555
O50 S9 1.471153 1_555
O51 Si17 1.653695 1_555
O52 S10 1.497662 1_555
O53 S11 1.464140 1_555
O54 Si18 1.595637 1_555
O55 S12 1.482984 1_555
O56 S13 1.462382 1_555
O57 Si19 1.648909 1_555
O58 Si20 1.633263 1_555
O59 S14 1.476040 1_555
O60 Si20 1.664996 1_555
O60 Ta4 1.889447 1_555
O61 S14 1.495856 1_555
O62 Si18 1.681654 1_555
O62 Ta4 1.948563 1_555
O63 S12 1.498858 1_555
O64 S13 1.495959 1_555
O64 Ta4 2.139192 1_555
O65 Si19 1.631807 1_555
O66 S9 1.488829 1_555
O67 Si17 1.686413 1_555
O67 Ta5 1.876653 1_555
O68 S10 1.491883 1_555
O69 S11 1.501915 1_555
O69 Ta5 2.135657 1_555
O70 S8 1.501199 1_555
O71 Si16 1.697288 1_555
O71 Ta5 1.973303 1_555
O72 Si20 1.680033 1_555
O73 S14 1.483307 1_555
O74 Si18 1.611916 1_555
O75 S12 1.493727 1_555
O76 S13 1.503763 1_555
O77 Si19 1.641365 1_555
O78 S9 1.495977 1_555
O79 Si17 1.659090 1_555
O80 S10 1.475051 1_555
O81 S11 1.479931 1_555
O82 S8 1.486864 1_555
O83 Si16 1.635370 1_555
O84 S4 1.519574 1_555
O84 Ta1 2.164496 1_545
O85 S5 1.536866 1_555
O85 Ta0 2.066614 1_655
O86 Si8 1.714197 1_555
O86 Ta0 1.986657 1_555
O87 Si9 1.726848 1_555
O87 Ta1 1.921691 1_545
O88 Si10 1.669361 1_555
O88 Ta1 1.918925 1_555
O89 Si11 1.662744 1_555
O89 Ta0 1.977567 1_665
O90 S6 1.535442 1_555
O90 Ta3 2.047705 1_555
O91 S7 1.520744 1_555
O91 Ta2 2.147409 1_665
O92 Si12 1.665062 1_555
O92 Ta3 1.971019 1_545
O93 Si13 1.666832 1_555
O93 Ta2 1.927761 1_655
O94 Si14 1.730575 1_555
O94 Ta2 1.916579 1_555
O95 Si15 1.706905 1_555
O95 Ta3 1.995351 1_545
O96 S3 1.445612 1_555
O97 Si7 1.610109 1_555
O98 Si4 1.622681 1_555
O99 Si5 1.633391 1_555
O100 Si6 1.602582 1_555
O101 S2 1.471908 1_655
O102 Si2 1.612299 1_555
O103 S0 1.449397 1_555
O104 S1 1.472801 1_555
O105 Si3 1.604440 1_555
O106 Si0 1.629298 1_555
O107 Si1 1.629217 1_545
O108 S8 1.464497 1_555
O109 Si16 1.636133 1_555
O110 Si17 1.621462 1_555
O111 S9 1.486022 1_655
O112 S10 1.484308 1_545
O113 S11 1.501691 1_545
O114 Si18 1.667636 1_545
O115 S12 1.468781 1_545
O116 S13 1.489609 1_555
O117 Si19 1.650074 1_555
O118 S14 1.480249 1_555
O119 Si20 1.618797 1_655
O120 Si14 1.611087 1_555
O121 Si15 1.626238 1_555
O122 S7 1.490712 1_455
O123 S6 1.479157 1_555
O124 Si12 1.636819 1_565
O125 Si13 1.642231 1_565
O126 Si8 1.624987 1_565
O127 Si9 1.607093 1_565
O128 Si10 1.643804 1_555
O129 Si11 1.628613 1_555
O130 S5 1.477727 1_455
O131 S4 1.490200 1_555
O132 Si0 1.651804 1_565
O132 Ta4 1.925707 1_555
O133 Si1 1.655773 1_555
O134 Si2 1.671897 1_555
O134 Ta4 2.027397 1_555
O135 S0 1.495628 1_555
O136 Si3 1.634123 1_455
O136 Ta4 1.988941 1_555
O137 S1 1.472966 1_555
O138 Si4 1.654975 1_555
O139 Si5 1.652421 1_555
O139 Ta5 1.916775 1_555
O140 S2 1.474136 1_555
O141 Si6 1.639843 1_555
O141 Ta5 1.984452 1_555
O142 S3 1.506107 1_565
O143 Si7 1.662760 1_565
O143 Ta5 2.055899 1_555
