# generated using pymatgen
data_Th5Fe19P12
_symmetry_space_group_name_H-M   'P 1'
_cell_length_a   14.54240870
_cell_length_b   14.54240870
_cell_length_c   9.22213185
_cell_angle_alpha   77.11355443
_cell_angle_beta   77.11355443
_cell_angle_gamma   14.86186811
_symmetry_Int_Tables_number   1
_chemical_formula_structural   Th5Fe19P12
_chemical_formula_sum   'Th5 Fe19 P12'
_cell_volume   487.41857729
_cell_formula_units_Z   1
loop_
 _symmetry_equiv_pos_site_id
 _symmetry_equiv_pos_as_xyz
  1  'x, y, z'
loop_
 _atom_site_type_symbol
 _atom_site_label
 _atom_site_symmetry_multiplicity
 _atom_site_fract_x
 _atom_site_fract_y
 _atom_site_fract_z
 _atom_site_occupancy
  Th  Th0  1  0.50000000  0.50000000  0.50000000  1
  Th  Th1  1  0.58193100  0.58193100  0.80862200  1
  Th  Th2  1  0.41806900  0.41806900  0.19137800  1
  Th  Th3  1  0.17705400  0.17705400  0.22490600  1
  Th  Th4  1  0.82294600  0.82294600  0.77509400  1
  Fe  Fe0  1  0.77992000  0.77992000  0.50565300  1
  Fe  Fe1  1  0.75843600  0.75843600  0.10038800  1
  Fe  Fe2  1  0.24156400  0.24156400  0.89961200  1
  Fe  Fe3  1  0.22008000  0.22008000  0.49434700  1
  Fe  Fe4  1  0.34276600  0.34276600  0.49320900  1
  Fe  Fe5  1  0.61600100  0.61600100  0.10994200  1
  Fe  Fe6  1  0.38399900  0.38399900  0.89005800  1
  Fe  Fe7  1  0.52713700  0.52713700  0.14320400  1
  Fe  Fe8  1  0.47286300  0.47286300  0.85679600  1
  Fe  Fe9  1  0.29425700  0.29425700  0.27991600  1
  Fe  Fe10  1  0.70574300  0.70574300  0.72008400  1
  Fe  Fe11  1  0.00000000  0.00000000  0.00000000  1
  Fe  Fe12  1  0.84655500  0.84655500  0.09779000  1
  Fe  Fe13  1  0.08829100  0.08829100  0.54428700  1
  Fe  Fe14  1  0.91170900  0.91170900  0.45571300  1
  Fe  Fe15  1  0.06622600  0.06622600  0.29256700  1
  Fe  Fe16  1  0.93377400  0.93377400  0.70743300  1
  Fe  Fe17  1  0.65723400  0.65723400  0.50679100  1
  Fe  Fe18  1  0.15344500  0.15344500  0.90221000  1
  P  P0  1  0.91899600  0.91899600  0.94970300  1
  P  P1  1  0.08100400  0.08100400  0.05029700  1
  P  P2  1  0.69505400  0.69505400  0.96985500  1
  P  P3  1  0.30494600  0.30494600  0.03014500  1
  P  P4  1  0.39858800  0.39858800  0.62714000  1
  P  P5  1  0.73343500  0.73343500  0.35246900  1
  P  P6  1  0.15332600  0.15332600  0.65498600  1
  P  P7  1  0.84667400  0.84667400  0.34501400  1
  P  P8  1  0.01314600  0.01314600  0.73058900  1
  P  P9  1  0.98685400  0.98685400  0.26941100  1
  P  P10  1  0.60141200  0.60141200  0.37286000  1
  P  P11  1  0.26656500  0.26656500  0.64753100  1
loop_
_geom_bond_atom_site_label_1
_geom_bond_atom_site_label_2
_geom_bond_distance
_geom_bond_site_symmetry_2
Fe0 P7 2.149002 1_555
Fe0 P5 2.155212 1_555
Fe0 P11 2.273976 1_565
Fe0 P11 2.273976 1_655
Fe0 Th4 3.016805 1_555
Fe1 P5 2.273819 1_555
Fe1 P3 2.316335 1_655
Fe1 P3 2.316335 1_565
Fe1 P2 2.404250 1_554
Fe1 Th3 3.025313 1_565
Fe1 Th3 3.025313 1_655
Fe1 Th4 3.154413 1_554
Fe2 P11 2.273819 1_555
Fe2 P2 2.316335 1_545
Fe2 P2 2.316335 1_455
Fe2 P3 2.404250 1_556
Fe2 Th4 3.025313 1_545
Fe2 Th4 3.025313 1_455
Fe2 Th3 3.154413 1_556
Fe3 P6 2.149002 1_555
Fe3 P11 2.155212 1_555
Fe3 P5 2.273976 1_455
Fe3 P5 2.273976 1_545
Fe3 Th3 3.016805 1_555
Fe4 P4 2.238726 1_555
Fe4 P7 2.312696 1_455
Fe4 P7 2.312696 1_545
Fe4 P11 2.334168 1_555
Fe4 Th2 3.121763 1_555
Fe4 Th4 3.154917 1_545
Fe4 Th4 3.154917 1_455
Fe5 P1 2.260175 1_655
Fe5 P1 2.260175 1_565
Fe5 P2 2.354185 1_554
Fe5 P10 2.365826 1_555
Fe5 Th3 2.932841 1_565
Fe5 Th3 2.932841 1_655
Fe5 Th1 3.148889 1_554
Fe6 P0 2.260175 1_455
Fe6 P0 2.260175 1_545
Fe6 P3 2.354185 1_556
Fe6 P4 2.365826 1_555
Fe6 Th4 2.932841 1_545
Fe6 Th4 2.932841 1_455
Fe6 Th2 3.148889 1_556
Fe7 P9 2.373501 1_455
Fe7 P9 2.373501 1_545
Fe7 P1 2.467031 1_655
Fe7 P1 2.467031 1_565
Fe7 Th2 3.076271 1_555
Fe7 Th1 3.134430 1_554
Fe7 Th0 3.206402 1_555
Fe8 P8 2.373501 1_565
Fe8 P8 2.373501 1_655
Fe8 P0 2.467031 1_545
Fe8 P0 2.467031 1_455
Fe8 Th1 3.076271 1_555
Fe8 Th2 3.134430 1_556
Fe8 Th0 3.206402 1_555
Fe9 P3 2.254190 1_555
Fe9 P5 2.556188 1_455
Fe9 P5 2.556188 1_545
Fe9 P7 2.567360 1_455
Fe9 P7 2.567360 1_545
Fe10 P2 2.254190 1_555
Fe10 P11 2.556188 1_565
Fe10 P11 2.556188 1_655
Fe10 P6 2.567360 1_565
Fe10 P6 2.567360 1_655
Fe11 P9 2.427547 1_445
Fe11 P8 2.427547 1_554
Fe11 P1 2.482019 1_555
Fe11 P0 2.482019 1_444
Fe11 Th1 3.218668 1_544
Fe11 Th1 3.218668 1_454
Fe11 Th2 3.218668 1_545
Fe11 Th2 3.218668 1_455
Fe12 P0 2.224087 1_554
Fe12 P7 2.280707 1_555
Fe12 P3 2.388162 1_655
Fe12 P3 2.388162 1_565
Fe12 Th2 3.055634 1_655
Fe12 Th2 3.055634 1_565
Fe12 Th4 3.198646 1_554
Fe13 P6 2.328423 1_555
Fe13 P10 2.431206 1_545
Fe13 P10 2.431206 1_455
Fe13 P8 2.444142 1_555
Fe13 Th1 3.051622 1_455
Fe13 Th1 3.051622 1_545
Fe13 Th0 3.264340 1_545
Fe13 Th0 3.264340 1_455
Fe14 P7 2.328423 1_555
Fe14 P4 2.431206 1_565
Fe14 P4 2.431206 1_655
Fe14 P9 2.444142 1_555
Fe14 Th2 3.051622 1_655
Fe14 Th2 3.051622 1_565
Fe14 Th0 3.264340 1_655
Fe14 Th0 3.264340 1_565
Fe15 P1 2.178341 1_555
Fe15 P10 2.335259 1_545
Fe15 P10 2.335259 1_455
Fe15 P9 2.346405 1_445
Fe15 Th0 3.033376 1_455
Fe15 Th0 3.033376 1_545
Fe15 Th3 3.115895 1_555
Fe16 P0 2.178341 1_555
Fe16 P4 2.335259 1_655
Fe16 P4 2.335259 1_565
Fe16 P8 2.346405 1_665
Fe16 Th0 3.033376 1_655
Fe16 Th0 3.033376 1_565
Fe16 Th4 3.115895 1_555
Fe17 P10 2.238726 1_555
Fe17 P6 2.312696 1_565
Fe17 P6 2.312696 1_655
Fe17 P5 2.334168 1_555
Fe17 Th1 3.121763 1_555
Fe17 Th3 3.154917 1_655
Fe17 Th3 3.154917 1_565
Fe18 P1 2.224087 1_556
Fe18 P6 2.280707 1_555
Fe18 P2 2.388162 1_455
Fe18 P2 2.388162 1_545
Fe18 Th1 3.055634 1_545
Fe18 Th1 3.055634 1_455
Fe18 Th3 3.198646 1_556
P0 Th2 2.911808 1_566
P0 Th2 2.911808 1_656
P1 Th1 2.911808 1_454
P1 Th1 2.911808 1_544
P2 Th3 2.964799 1_566
P2 Th3 2.964799 1_656
P3 Th4 2.964799 1_454
P3 Th4 2.964799 1_544
P4 Th0 2.895950 1_555
P4 Th4 2.969735 1_455
P4 Th4 2.969735 1_545
P5 Th3 2.902722 1_565
P5 Th3 2.902722 1_655
P6 Th1 2.910721 1_455
P6 Th1 2.910721 1_545
P7 Th2 2.910721 1_655
P7 Th2 2.910721 1_565
P8 Th0 2.926748 1_545
P8 Th0 2.926748 1_455
P8 Th1 2.938167 1_545
P8 Th1 2.938167 1_455
P9 Th0 2.926748 1_565
P9 Th0 2.926748 1_655
P9 Th2 2.938167 1_655
P9 Th2 2.938167 1_565
P10 Th0 2.895950 1_555
P10 Th3 2.969735 1_565
P10 Th3 2.969735 1_655
P11 Th4 2.902722 1_545
P11 Th4 2.902722 1_455
