# generated using pymatgen
data_BiO2
_symmetry_space_group_name_H-M   'P 1'
_cell_length_a   7.57712681
_cell_length_b   7.57712681
_cell_length_c   7.57712681
_cell_angle_alpha   146.23452470
_cell_angle_beta   129.23578936
_cell_angle_gamma   62.36529310
_symmetry_Int_Tables_number   1
_chemical_formula_structural   BiO2
_chemical_formula_sum   'Bi4 O8'
_cell_volume   185.32228694
_cell_formula_units_Z   4
loop_
 _symmetry_equiv_pos_site_id
 _symmetry_equiv_pos_as_xyz
  1  'x, y, z'
loop_
 _atom_site_type_symbol
 _atom_site_label
 _atom_site_symmetry_multiplicity
 _atom_site_fract_x
 _atom_site_fract_y
 _atom_site_fract_z
 _atom_site_occupancy
  Bi  Bi0  1  0.66125000  0.37643500  0.28481500  1
  Bi  Bi1  1  0.90837900  0.12356500  0.78481500  1
  Bi  Bi2  1  0.09162100  0.87643500  0.21518500  1
  Bi  Bi3  1  0.33875000  0.62356500  0.71518500  1
  O  O0  1  0.65087200  0.22381500  0.42705700  1
  O  O1  1  0.94792100  0.57672000  0.37120100  1
  O  O2  1  0.20551900  0.07672000  0.12879900  1
  O  O3  1  0.20324100  0.27618500  0.92705700  1
  O  O4  1  0.34912800  0.77618500  0.57294300  1
  O  O5  1  0.05207900  0.42328000  0.62879900  1
  O  O6  1  0.79448100  0.92328000  0.87120100  1
  O  O7  1  0.79675900  0.72381500  0.07294300  1
loop_
_geom_bond_atom_site_label_1
_geom_bond_atom_site_label_2
_geom_bond_distance
_geom_bond_site_symmetry_2
Bi0 O0 2.183794 1_555
Bi0 O5 2.315558 1_655
Bi0 O6 2.350737 1_555
Bi0 O6 2.350737 1_544
Bi0 O1 2.656595 1_555
Bi0 O3 2.662728 1_554
Bi1 O3 2.183794 1_655
Bi1 O2 2.315559 1_656
Bi1 O1 2.350734 1_556
Bi1 O1 2.350738 1_545
Bi1 O6 2.656589 1_545
Bi1 O0 2.662722 1_555
Bi2 O7 2.183794 1_455
Bi2 O6 2.315559 1_454
Bi2 O5 2.350734 1_554
Bi2 O5 2.350738 1_565
Bi2 O2 2.656589 1_565
Bi2 O4 2.662722 1_555
Bi3 O4 2.183794 1_555
Bi3 O1 2.315558 1_455
Bi3 O2 2.350737 1_566
Bi3 O2 2.350737 1_555
Bi3 O5 2.656595 1_555
Bi3 O7 2.662728 1_556
