# generated using pymatgen
data_Ba2MgMnO4
_symmetry_space_group_name_H-M   'P 1'
_cell_length_a   8.98782968
_cell_length_b   10.57247185
_cell_length_c   9.81433976
_cell_angle_alpha   157.52902813
_cell_angle_beta   155.68602676
_cell_angle_gamma   32.67107338
_symmetry_Int_Tables_number   1
_chemical_formula_structural   Ba2MgMnO4
_chemical_formula_sum   'Ba2 Mg1 Mn1 O4'
_cell_volume   146.76385003
_cell_formula_units_Z   1
loop_
 _symmetry_equiv_pos_site_id
 _symmetry_equiv_pos_as_xyz
  1  'x, y, z'
loop_
 _atom_site_type_symbol
 _atom_site_label
 _atom_site_symmetry_multiplicity
 _atom_site_fract_x
 _atom_site_fract_y
 _atom_site_fract_z
 _atom_site_occupancy
  Ba  Ba0  1  0.29170183  0.49768063  -0.00000017  1
  Ba  Ba1  1  0.70829817  0.50231937  0.00000017  1
  Mg  Mg0  1  0.50000000  0.00000000  -0.00000000  1
  Mn  Mn0  1  -0.00000000  0.00000000  -0.00000000  1
  O  O0  1  0.50000000  0.00000000  0.50000000  1
  O  O1  1  0.28329444  0.00719112  0.00004477  1
  O  O2  1  0.71670556  0.99280888  -0.00004477  1
  O  O3  1  -0.00000000  0.50000000  0.50000000  1
loop_
_geom_bond_atom_site_label_1
_geom_bond_atom_site_label_2
_geom_bond_distance
_geom_bond_site_symmetry_2
Ba0 O0 2.760427 1_565
Ba0 O3 2.760448 1_554
Ba0 O3 2.776882 1_655
Ba0 O0 2.776935 1_554
Ba0 O2 2.926604 1_455
Ba0 O2 2.949656 1_556
Ba0 O2 2.949877 1_444
Ba0 O2 2.958815 1_545
Ba1 O0 2.760427 1_554
Ba1 O3 2.760448 1_655
Ba1 O3 2.776882 1_554
Ba1 O0 2.776935 1_565
Ba1 O1 2.926604 1_655
Ba1 O1 2.949656 1_554
Ba1 O1 2.949877 1_666
Ba1 O1 2.958815 1_565
Mg0 O2 1.884558 1_545
Mg0 O1 1.884558 1_555
Mn0 O0 2.020581 1_555
Mn0 O0 2.020581 1_454
Mn0 O3 2.020603 1_544
Mn0 O3 2.020603 1_555
Mn0 O1 2.610121 1_555
Mn0 O2 2.610121 1_445
