# generated using pymatgen
data_Ca4(PPd)5
_symmetry_space_group_name_H-M   'P 1'
_cell_length_a   15.73042335
_cell_length_b   15.73042335
_cell_length_c   8.26349500
_cell_angle_alpha   90.00000000
_cell_angle_beta   90.00000000
_cell_angle_gamma   164.89491799
_symmetry_Int_Tables_number   1
_chemical_formula_structural   Ca4(PPd)5
_chemical_formula_sum   'Ca8 P10 Pd10'
_cell_volume   532.84706084
_cell_formula_units_Z   2
loop_
 _symmetry_equiv_pos_site_id
 _symmetry_equiv_pos_as_xyz
  1  'x, y, z'
loop_
 _atom_site_type_symbol
 _atom_site_label
 _atom_site_symmetry_multiplicity
 _atom_site_fract_x
 _atom_site_fract_y
 _atom_site_fract_z
 _atom_site_occupancy
  Ca  Ca0  1  0.80605100  0.19394900  0.49470300  1
  Ca  Ca1  1  0.19394900  0.80605100  0.50529700  1
  Ca  Ca2  1  0.19394900  0.80605100  0.99470300  1
  Ca  Ca3  1  0.80605100  0.19394900  0.00529700  1
  Ca  Ca4  1  0.57961600  0.42038400  0.99864100  1
  Ca  Ca5  1  0.42038400  0.57961600  0.49864100  1
  Ca  Ca6  1  0.42038400  0.57961600  0.00135900  1
  Ca  Ca7  1  0.57961600  0.42038400  0.50135900  1
  P  P0  1  0.27085400  0.72914600  0.75000000  1
  P  P1  1  0.04445400  0.95554600  0.75000000  1
  P  P2  1  0.04554800  0.95445200  0.25000000  1
  P  P3  1  0.95554600  0.04445400  0.25000000  1
  P  P4  1  0.95445200  0.04554800  0.75000000  1
  P  P5  1  0.65774600  0.34225400  0.25000000  1
  P  P6  1  0.34225400  0.65774600  0.75000000  1
  P  P7  1  0.34279300  0.65720700  0.25000000  1
  P  P8  1  0.72914600  0.27085400  0.25000000  1
  P  P9  1  0.65720700  0.34279300  0.75000000  1
  Pd  Pd0  1  0.73438000  0.26562000  0.75000000  1
  Pd  Pd1  1  0.26562000  0.73438000  0.25000000  1
  Pd  Pd2  1  0.00000000  0.00000000  0.50000000  1
  Pd  Pd3  1  0.87881700  0.12118300  0.75000000  1
  Pd  Pd4  1  0.12118300  0.87881700  0.25000000  1
  Pd  Pd5  1  0.11959300  0.88040700  0.75000000  1
  Pd  Pd6  1  0.88040700  0.11959300  0.25000000  1
  Pd  Pd7  1  0.49986900  0.50013100  0.75000000  1
  Pd  Pd8  1  0.50013100  0.49986900  0.25000000  1
  Pd  Pd9  1  0.00000000  0.00000000  0.00000000  1
loop_
_geom_bond_atom_site_label_1
_geom_bond_atom_site_label_2
_geom_bond_distance
_geom_bond_site_symmetry_2
Ca0 Pd0 3.073602 1_555
Ca0 Pd6 3.076800 1_555
Ca0 Pd3 3.098527 1_555
Ca0 P7 3.110738 1_655
Ca0 P7 3.110738 1_545
Ca0 P8 3.137153 1_555
Ca0 P0 3.151236 1_545
Ca0 P0 3.151236 1_655
Ca0 Pd1 3.154934 1_545
Ca0 Pd1 3.154934 1_655
Ca0 P6 3.162302 1_545
Ca0 P6 3.162302 1_655
Ca1 Pd1 3.073602 1_555
Ca1 Pd5 3.076800 1_555
Ca1 Pd4 3.098527 1_555
Ca1 P9 3.110738 1_455
Ca1 P9 3.110738 1_565
Ca1 P0 3.137153 1_555
Ca1 P8 3.151236 1_455
Ca1 P8 3.151236 1_565
Ca1 Pd0 3.154934 1_455
Ca1 Pd0 3.154934 1_565
Ca1 P5 3.162302 1_455
Ca1 P5 3.162302 1_565
Ca2 Pd1 3.073602 1_556
Ca2 Pd5 3.076800 1_555
Ca2 Pd4 3.098527 1_556
Ca2 P9 3.110738 1_455
Ca2 P9 3.110738 1_565
Ca2 P0 3.137153 1_555
Ca2 P8 3.151236 1_456
Ca2 P8 3.151236 1_566
Ca2 Pd0 3.154934 1_455
Ca2 Pd0 3.154934 1_565
Ca2 P5 3.162302 1_456
Ca2 P5 3.162302 1_566
Ca3 Pd0 3.073602 1_554
Ca3 Pd6 3.076800 1_555
Ca3 Pd3 3.098527 1_554
Ca3 P7 3.110738 1_655
Ca3 P7 3.110738 1_545
Ca3 P8 3.137153 1_555
Ca3 P0 3.151236 1_544
Ca3 P0 3.151236 1_654
Ca3 Pd1 3.154934 1_545
Ca3 Pd1 3.154934 1_655
Ca3 P6 3.162302 1_544
Ca3 P6 3.162302 1_654
Ca4 P1 3.114298 1_655
Ca4 P1 3.114298 1_545
Ca4 P2 3.117368 1_546
Ca4 P2 3.117368 1_656
Ca4 Pd5 3.170294 1_655
Ca4 Pd5 3.170294 1_545
Ca4 P9 3.174505 1_555
Ca4 P5 3.201863 1_556
Ca4 Pd4 3.204633 1_546
Ca4 Pd4 3.204633 1_656
Ca4 Pd7 3.226056 1_555
Ca4 Pd9 3.231159 1_556
Ca4 Pd9 3.231159 1_666
Ca4 Pd8 3.234140 1_556
Ca5 P3 3.114298 1_455
Ca5 P3 3.114298 1_565
Ca5 P4 3.117368 1_455
Ca5 P4 3.117368 1_565
Ca5 Pd6 3.170294 1_565
Ca5 Pd6 3.170294 1_455
Ca5 P7 3.174505 1_555
Ca5 P6 3.201863 1_555
Ca5 Pd3 3.204633 1_455
Ca5 Pd3 3.204633 1_565
Ca5 Pd8 3.226056 1_555
Ca5 Pd2 3.231159 1_665
Ca5 Pd2 3.231159 1_555
Ca5 Pd7 3.234140 1_555
Ca6 P3 3.114298 1_455
Ca6 P3 3.114298 1_565
Ca6 P4 3.117368 1_454
Ca6 P4 3.117368 1_564
Ca6 Pd6 3.170294 1_565
Ca6 Pd6 3.170294 1_455
Ca6 P7 3.174505 1_555
Ca6 P6 3.201863 1_554
Ca6 Pd3 3.204633 1_454
Ca6 Pd3 3.204633 1_564
Ca6 Pd8 3.226056 1_555
Ca6 Pd9 3.231159 1_665
Ca6 Pd9 3.231159 1_555
Ca6 Pd7 3.234140 1_554
Ca7 P1 3.114298 1_655
Ca7 P1 3.114298 1_545
Ca7 P2 3.117368 1_545
Ca7 P2 3.117368 1_655
Ca7 Pd5 3.170294 1_655
Ca7 Pd5 3.170294 1_545
Ca7 P9 3.174505 1_555
Ca7 P5 3.201863 1_555
Ca7 Pd4 3.204633 1_655
Ca7 Pd4 3.204633 1_545
Ca7 Pd7 3.226056 1_555
Ca7 Pd2 3.231159 1_555
Ca7 Pd2 3.231159 1_665
Ca7 Pd8 3.234140 1_555
P0 P6 2.226817 1_555
P0 Pd0 2.359811 1_565
P0 Pd0 2.359811 1_455
P1 Pd5 2.343429 1_555
P1 Pd9 2.487974 1_566
P1 Pd2 2.487974 1_565
P1 Pd7 2.491630 1_565
P1 Pd7 2.491630 1_455
P2 Pd4 2.358898 1_555
P2 Pd8 2.506204 1_565
P2 Pd8 2.506204 1_455
P2 Pd9 2.507148 1_565
P2 Pd2 2.507148 1_565
P3 Pd6 2.343429 1_555
P3 Pd9 2.487974 1_655
P3 Pd2 2.487974 1_655
P3 Pd8 2.491630 1_655
P3 Pd8 2.491630 1_545
P4 Pd3 2.358898 1_555
P4 Pd7 2.506204 1_655
P4 Pd7 2.506204 1_545
P4 Pd2 2.507148 1_655
P4 Pd9 2.507148 1_656
P5 P8 2.226817 1_555
P5 Pd4 2.361150 1_545
P5 Pd4 2.361150 1_655
P6 Pd3 2.361150 1_455
P6 Pd3 2.361150 1_565
P7 Pd6 2.377154 1_565
P7 Pd6 2.377154 1_455
P7 Pd1 2.406865 1_555
P8 Pd1 2.359811 1_545
P8 Pd1 2.359811 1_655
P9 Pd5 2.377154 1_655
P9 Pd5 2.377154 1_545
P9 Pd0 2.406865 1_555
Pd2 Pd8 2.922763 1_555
Pd2 Pd7 2.922763 1_555
Pd2 Pd8 2.922763 1_445
Pd2 Pd7 2.922763 1_445
Pd7 Pd9 2.922763 1_556
Pd7 Pd9 2.922763 1_666
Pd8 Pd9 2.922763 1_555
Pd8 Pd9 2.922763 1_665
