# generated using pymatgen
data_Sr2Co(BrO)2
_symmetry_space_group_name_H-M   'P 1'
_cell_length_a   5.80191709
_cell_length_b   17.83705208
_cell_length_c   5.80191989
_cell_angle_alpha   99.35997899
_cell_angle_beta   90.00951753
_cell_angle_gamma   80.64464641
_symmetry_Int_Tables_number   1
_chemical_formula_structural   Sr2Co(BrO)2
_chemical_formula_sum   'Sr8 Co4 Br8 O8'
_cell_volume   584.34839701
_cell_formula_units_Z   4
loop_
 _symmetry_equiv_pos_site_id
 _symmetry_equiv_pos_as_xyz
  1  'x, y, z'
loop_
 _atom_site_type_symbol
 _atom_site_label
 _atom_site_symmetry_multiplicity
 _atom_site_fract_x
 _atom_site_fract_y
 _atom_site_fract_z
 _atom_site_occupancy
  Sr  Sr0  1  0.29738800  0.40525000  0.70265300  1
  Sr  Sr1  1  0.79735600  0.40525000  0.20262100  1
  Sr  Sr2  1  0.54738900  0.90525000  0.95265300  1
  Sr  Sr3  1  0.04735900  0.90525000  0.45262200  1
  Sr  Sr4  1  0.45261300  0.09474900  0.04734600  1
  Sr  Sr5  1  0.95264100  0.09474900  0.54737900  1
  Sr  Sr6  1  0.70264400  0.59475000  0.29737800  1
  Sr  Sr7  1  0.20261200  0.59475000  0.79734900  1
  Co  Co0  1  0.49999700  0.00000000  0.49999800  1
  Co  Co1  1  0.25000200  0.50000100  0.25000300  1
  Co  Co2  1  0.99999900  0.00000000  0.99999900  1
  Co  Co3  1  0.75000200  0.50000100  0.75000200  1
  Br  Br0  1  0.41377200  0.17256600  0.58623800  1
  Br  Br1  1  0.91378700  0.17256400  0.08622000  1
  Br  Br2  1  0.66378100  0.67256400  0.83621400  1
  Br  Br3  1  0.16376300  0.67256600  0.33623200  1
  Br  Br4  1  0.33623200  0.32743300  0.16376300  1
  Br  Br5  1  0.83621100  0.32743600  0.66377900  1
  Br  Br6  1  0.58623400  0.82743300  0.41376800  1
  Br  Br7  1  0.08621900  0.82743600  0.91378700  1
  O  O0  1  0.25000100  0.00000200  0.25000200  1
  O  O1  1  0.74999900  0.00000300  0.74999900  1
  O  O2  1  0.50000100  0.49999800  0.50000100  1
  O  O3  1  0.00000200  0.50000000  0.00000300  1
  O  O4  1  0.75001000  0.99997500  0.24998600  1
  O  O5  1  0.24998700  0.00002800  0.75001200  1
  O  O6  1  0.99998700  0.50002400  0.50001300  1
  O  O7  1  0.50001400  0.49997300  0.99998600  1
loop_
_geom_bond_atom_site_label_1
_geom_bond_atom_site_label_2
_geom_bond_distance
_geom_bond_site_symmetry_2
Co0 O0 2.051085 1_555
Co0 O1 2.051130 1_555
Co0 O5 2.051442 1_555
Co0 O4 2.051458 1_545
Co1 O2 2.051105 1_555
Co1 O3 2.051118 1_555
Co1 O7 2.051463 1_554
Co1 O6 2.051467 1_455
Co2 O1 2.051118 1_555
Co2 O0 2.051138 1_656
Co2 O4 2.051462 1_546
Co2 O5 2.051471 1_655
Co3 O3 2.051122 1_656
Co3 O2 2.051126 1_555
Co3 O6 2.051446 1_555
Co3 O7 2.051458 1_555
Br0 Co0 2.995600 1_555
Br0 Sr5 3.199977 1_555
Br0 Sr4 3.199999 1_555
Br0 Sr4 3.200105 1_556
Br0 Sr5 3.200124 1_455
Br1 Co2 2.995565 1_554
Br1 Sr5 3.199721 1_554
Br1 Sr4 3.199741 1_655
Br1 Sr4 3.200330 1_555
Br1 Sr5 3.200353 1_555
Br2 Co3 2.995548 1_555
Br2 Sr6 3.199690 1_555
Br2 Sr7 3.199763 1_655
Br2 Sr7 3.200294 1_555
Br2 Sr6 3.200369 1_556
Br3 Co1 2.995583 1_555
Br3 Sr7 3.199947 1_554
Br3 Sr6 3.200035 1_555
Br3 Sr6 3.200051 1_455
Br3 Sr7 3.200142 1_555
Br4 Co1 2.995635 1_555
Br4 Sr0 3.199988 1_555
Br4 Sr1 3.200013 1_455
Br4 Sr1 3.200087 1_555
Br4 Sr0 3.200115 1_554
Br5 Co3 2.995583 1_555
Br5 Sr0 3.199721 1_555
Br5 Sr1 3.199722 1_556
Br5 Sr0 3.200336 1_655
Br5 Sr1 3.200338 1_555
Br6 Co0 2.995618 1_565
Br6 Sr2 3.199962 1_555
Br6 Sr3 3.200008 1_555
Br6 Sr3 3.200093 1_655
Br6 Sr2 3.200141 1_554
Br7 Co2 2.995565 1_465
Br7 Sr3 3.199685 1_556
Br7 Sr2 3.199757 1_455
Br7 Sr2 3.200299 1_555
Br7 Sr3 3.200374 1_555
O0 Sr4 2.629298 1_555
O0 Sr3 2.629349 1_545
O0 Sr5 2.629467 1_455
O0 Sr2 2.629505 1_544
O1 Sr5 2.629265 1_555
O1 Sr2 2.629370 1_545
O1 Sr4 2.629447 1_556
O1 Sr3 2.629513 1_645
O2 Sr0 2.629303 1_555
O2 Sr6 2.629362 1_555
O2 Sr1 2.629468 1_555
O2 Sr7 2.629505 1_555
O3 Sr1 2.629328 1_455
O3 Sr7 2.629328 1_554
O3 Sr6 2.629477 1_455
O3 Sr0 2.629487 1_554
O4 Sr2 2.628649 1_554
O4 Sr3 2.628896 1_655
O4 Sr5 2.629405 1_565
O4 Sr4 2.629595 1_565
O5 Sr4 2.628624 1_556
O5 Sr5 2.628834 1_455
O5 Sr3 2.629429 1_545
O5 Sr2 2.629657 1_545
O6 Sr7 2.628682 1_655
O6 Sr6 2.628885 1_555
O6 Sr1 2.629402 1_555
O6 Sr0 2.629608 1_655
O7 Sr0 2.628643 1_555
O7 Sr1 2.628849 1_556
O7 Sr6 2.629431 1_556
O7 Sr7 2.629634 1_555
