# generated using pymatgen
data_BaLaMgMn2O6
_symmetry_space_group_name_H-M   'P 1'
_cell_length_a   3.96362031
_cell_length_b   3.96362031
_cell_length_c   10.23049000
_cell_angle_alpha   100.26248089
_cell_angle_beta   100.26248089
_cell_angle_gamma   89.79014079
_symmetry_Int_Tables_number   1
_chemical_formula_structural   BaLaMgMn2O6
_chemical_formula_sum   'Ba1 La1 Mg1 Mn2 O6'
_cell_volume   155.55706425
_cell_formula_units_Z   1
loop_
 _symmetry_equiv_pos_site_id
 _symmetry_equiv_pos_as_xyz
  1  'x, y, z'
loop_
 _atom_site_type_symbol
 _atom_site_label
 _atom_site_symmetry_multiplicity
 _atom_site_fract_x
 _atom_site_fract_y
 _atom_site_fract_z
 _atom_site_occupancy
  Ba  Ba0  1  0.82684884  0.82684884  0.04592059  1
  La  La0  1  0.97371337  0.97371337  0.43437825  1
  Mg  Mg0  1  0.22357258  0.22357258  0.82467807  1
  Mn  Mn0  1  0.66420404  0.66420404  0.70241865  1
  Mn  Mn1  1  0.41511112  0.41511112  0.24905881  1
  O  O0  1  0.19408760  0.69608997  0.76416133  1
  O  O1  1  0.69608997  0.19408760  0.76416133  1
  O  O2  1  0.92992457  0.42316777  0.27591826  1
  O  O3  1  0.42316777  0.92992457  0.27591826  1
  O  O4  1  0.31840056  0.31840056  0.02859331  1
  O  O5  1  0.58488557  0.58488557  0.49312815  1
loop_
_geom_bond_atom_site_label_1
_geom_bond_atom_site_label_2
_geom_bond_distance
_geom_bond_site_symmetry_2
Ba0 O4 2.802823 1_565
Ba0 O4 2.802823 1_655
Ba0 O4 2.810212 1_665
Ba0 O4 2.815924 1_555
Ba0 O2 2.995478 1_565
Ba0 O3 2.995478 1_655
Ba0 O3 3.042656 1_555
Ba0 O2 3.042656 1_555
La0 O5 2.406064 1_555
La0 O3 2.462112 1_555
La0 O2 2.462112 1_555
La0 O2 2.599673 1_565
La0 O3 2.599673 1_655
La0 O5 2.896315 1_565
La0 O5 2.896315 1_655
La0 O5 3.332150 1_665
Mg0 O4 2.019117 1_556
Mg0 O1 2.069529 1_455
Mg0 O0 2.069529 1_545
Mg0 O1 2.071332 1_555
Mg0 O0 2.071332 1_555
Mn0 O0 2.067922 1_555
Mn0 O1 2.067922 1_555
Mn0 O5 2.074414 1_555
Mn0 O1 2.080106 1_565
Mn0 O0 2.080106 1_655
Mn1 O2 1.989858 1_455
Mn1 O3 1.989858 1_545
Mn1 O2 2.009436 1_555
Mn1 O3 2.009436 1_555
Mn1 O4 2.183111 1_555
Mn1 O5 2.438507 1_555
