# generated using pymatgen
data_Na6TaZn5P3(SO6)6
_symmetry_space_group_name_H-M   'P 1'
_cell_length_a   8.89850950
_cell_length_b   8.87629473
_cell_length_c   22.39410167
_cell_angle_alpha   90.24729552
_cell_angle_beta   90.00000000
_cell_angle_gamma   120.08282348
_symmetry_Int_Tables_number   1
_chemical_formula_structural   Na6TaZn5P3(SO6)6
_chemical_formula_sum   'Na12 Ta2 Zn10 P6 S12 O72'
_cell_volume   1530.54039666
_cell_formula_units_Z   2
loop_
 _symmetry_equiv_pos_site_id
 _symmetry_equiv_pos_as_xyz
  1  'x, y, z'
loop_
 _atom_site_type_symbol
 _atom_site_label
 _atom_site_symmetry_multiplicity
 _atom_site_fract_x
 _atom_site_fract_y
 _atom_site_fract_z
 _atom_site_occupancy
  Na  Na0  1  0.30206132  0.33374363  0.58154262  1
  Na  Na1  1  0.67013466  0.97127478  0.58916306  1
  Na  Na2  1  0.30114112  0.97127478  0.08916306  1
  Na  Na3  1  0.03168330  0.33374363  0.08154262  1
  Na  Na4  1  0.96238081  0.66548928  0.91150016  1
  Na  Na5  1  0.70310747  0.66548928  0.41150016  1
  Na  Na6  1  0.02141784  0.00920893  0.49586079  1
  Na  Na7  1  0.98779109  0.00920893  0.99586079  1
  Na  Na8  1  0.67134276  0.32148287  0.82799666  1
  Na  Na9  1  0.65014111  0.32148287  0.32799666  1
  Na  Na10  1  0.35558223  0.67581800  0.16409418  1
  Na  Na11  1  0.32023477  0.67581800  0.66409418  1
  Ta  Ta0  1  0.33532965  0.66463130  0.31231934  1
  Ta  Ta1  1  0.32930064  0.66463130  0.81231934  1
  Zn  Zn0  1  0.01811445  0.00885207  0.34490414  1
  Zn  Zn1  1  0.99073761  0.00885207  0.84490414  1
  Zn  Zn2  1  0.98581333  0.97950606  0.66171429  1
  Zn  Zn3  1  0.99369273  0.97950606  0.16171429  1
  Zn  Zn4  1  0.68278168  0.33741051  0.68830005  1
  Zn  Zn5  1  0.65462983  0.33741051  0.18830005  1
  Zn  Zn6  1  0.67176706  0.32826304  0.98115231  1
  Zn  Zn7  1  0.65649698  0.32826304  0.48115231  1
  Zn  Zn8  1  0.33601879  0.65626704  0.01215700  1
  Zn  Zn9  1  0.32024724  0.65626704  0.51215700  1
  P  P0  1  0.30156403  0.00340361  0.24911364  1
  P  P1  1  0.71143692  0.70562036  0.25400115  1
  P  P2  1  0.99418344  0.70562036  0.75400115  1
  P  P3  1  0.70183959  0.00340361  0.74911364  1
  P  P4  1  0.03789020  0.36551695  0.91917152  1
  P  P5  1  0.32762574  0.36551695  0.41917152  1
  S  S0  1  0.99714820  0.29476221  0.24981551  1
  S  S1  1  0.29761402  0.29476221  0.74981551  1
  S  S2  1  0.96161242  0.33489995  0.58218509  1
  S  S3  1  0.37028756  0.03797063  0.58308887  1
  S  S4  1  0.67009964  0.63009631  0.58205267  1
  S  S5  1  0.95999766  0.63009631  0.08205267  1
  S  S6  1  0.66768407  0.03797063  0.08308887  1
  S  S7  1  0.37328853  0.33489995  0.08218509  1
  S  S8  1  0.62668813  0.66624873  0.91739407  1
  S  S9  1  0.33495638  0.96195864  0.91818017  1
  S  S10  1  0.62700126  0.96195864  0.41818017  1
  S  S11  1  0.03955960  0.66624873  0.41739407  1
  O  O0  1  0.21538711  0.02943001  0.30292606  1
  O  O1  1  0.80856087  0.78874212  0.31201762  1
  O  O2  1  0.97515926  0.19057388  0.30225471  1
  O  O3  1  0.21541461  0.19057388  0.80225471  1
  O  O4  1  0.98018125  0.78874212  0.81201762  1
  O  O5  1  0.81404290  0.02943001  0.80292606  1
  O  O6  1  0.76369295  0.96232771  0.68973742  1
  O  O7  1  0.19432289  0.23098832  0.69384353  1
  O  O8  1  0.04333220  0.81843882  0.69807457  1
  O  O9  1  0.77510661  0.81843882  0.19807457  1
  O  O10  1  0.03666542  0.23098832  0.19384353  1
  O  O11  1  0.19863476  0.96232771  0.18973742  1
  O  O12  1  0.88123608  0.35521265  0.63665213  1
  O  O13  1  0.48104513  0.12034710  0.63612975  1
  O  O14  1  0.64323516  0.51665458  0.63356206  1
  O  O15  1  0.87342042  0.51665458  0.13356206  1
  O  O16  1  0.63930296  0.12034710  0.13612975  1
  O  O17  1  0.47397756  0.35521265  0.13665213  1
  O  O18  1  0.45422725  0.30890636  0.02820152  1
  O  O19  1  0.86546169  0.55376667  0.02498263  1
  O  O20  1  0.69571669  0.14462749  0.02835327  1
  O  O21  1  0.44891181  0.14462749  0.52835327  1
  O  O22  1  0.68830598  0.55376667  0.52498263  1
  O  O23  1  0.85468011  0.30890636  0.52820152  1
  O  O24  1  0.55038893  0.69244859  0.97197880  1
  O  O25  1  0.13460625  0.44582469  0.97834321  1
  O  O26  1  0.31137598  0.85911635  0.97320318  1
  O  O27  1  0.54773937  0.85911635  0.47320318  1
  O  O28  1  0.31121744  0.44582469  0.47834321  1
  O  O29  1  0.14205867  0.69244859  0.47197880  1
  O  O30  1  0.13690298  0.65396568  0.36393609  1
  O  O31  1  0.50981399  0.86213917  0.36522377  1
  O  O32  1  0.34565361  0.49678688  0.36649614  1
  O  O33  1  0.15113227  0.49678688  0.86649614  1
  O  O34  1  0.35232418  0.86213917  0.86522377  1
  O  O35  1  0.51706170  0.65396568  0.86393609  1
  O  O36  1  0.01338711  0.81722781  0.41192567  1
  O  O37  1  0.79549216  0.97157057  0.41070580  1
  O  O38  1  0.16623449  0.18819589  0.41037354  1
  O  O39  1  0.02196140  0.18819589  0.91037354  1
  O  O40  1  0.17607841  0.97157057  0.91070580  1
  O  O41  1  0.80384070  0.81722781  0.91192567  1
  O  O42  1  0.98240973  0.17654536  0.58621983  1
  O  O43  1  0.19660003  0.02358665  0.58878151  1
  O  O44  1  0.82425997  0.80877442  0.58704843  1
  O  O45  1  0.98451445  0.80877442  0.08704843  1
  O  O46  1  0.82698662  0.02358665  0.08878151  1
  O  O47  1  0.19413563  0.17654536  0.08621983  1
  O  O48  1  0.66256735  0.15167094  0.74455436  1
  O  O49  1  0.47519298  0.32789516  0.74376718  1
  O  O50  1  0.83930258  0.52190449  0.74775850  1
  O  O51  1  0.68260291  0.52190449  0.24775850  1
  O  O52  1  0.85270318  0.32789516  0.24376718  1
  O  O53  1  0.48910459  0.15167094  0.24455436  1
  O  O54  1  0.63507573  0.50369662  0.91766298  1
  O  O55  1  0.86466903  0.36882316  0.91664849  1
  O  O56  1  0.49422004  0.13284342  0.91836826  1
  O  O57  1  0.63862439  0.13284342  0.41836826  1
  O  O58  1  0.50415514  0.36882316  0.41664849  1
  O  O59  1  0.86862189  0.50369662  0.41766298  1
  O  O60  1  0.34938301  0.49064533  0.07870188  1
  O  O61  1  0.13992298  0.65020853  0.07968787  1
  O  O62  1  0.50662531  0.86261649  0.07682345  1
  O  O63  1  0.35599018  0.86261649  0.57682345  1
  O  O64  1  0.51028455  0.65020853  0.57968787  1
  O  O65  1  0.14126132  0.49064533  0.57870188  1
  O  O66  1  0.31343450  0.82941991  0.26126082  1
  O  O67  1  0.51786188  0.68245720  0.26240001  1
  O  O68  1  0.16277802  0.47722909  0.25902068  1
  O  O69  1  0.31445006  0.47722909  0.75902068  1
  O  O70  1  0.16459432  0.68245720  0.76240001  1
  O  O71  1  0.51598441  0.82941991  0.76126082  1
loop_
_geom_bond_atom_site_label_1
_geom_bond_atom_site_label_2
_geom_bond_distance
_geom_bond_site_symmetry_2
Na0 O43 2.428995 1_555
Na0 O65 2.447375 1_555
Na0 O42 2.463956 1_455
Na0 O64 2.471587 1_555
Na0 O28 2.505189 1_555
Na0 O7 2.686787 1_555
Na0 O21 2.850624 1_555
Na0 O14 2.872671 1_555
Na1 O6 2.416603 1_555
Na1 O44 2.438510 1_555
Na1 O42 2.443588 1_565
Na1 O63 2.473008 1_555
Na1 O64 2.474070 1_555
Na1 O27 2.794902 1_555
Na1 O13 2.812174 1_565
Na1 O23 2.939984 1_565
Na2 O11 2.416606 1_555
Na2 O45 2.438517 1_455
Na2 O47 2.443595 1_565
Na2 O62 2.472991 1_555
Na2 O61 2.474070 1_555
Na2 O26 2.794898 1_554
Na2 O16 2.812174 1_565
Na2 O18 2.939984 1_565
Na3 O46 2.428996 1_455
Na3 O60 2.447359 1_555
Na3 O47 2.463948 1_555
Na3 O61 2.471590 1_555
Na3 O25 2.505186 1_554
Na3 O10 2.686785 1_555
Na3 O20 2.850624 1_455
Na3 O15 2.872671 1_455
Na4 O55 2.326117 1_555
Na4 O41 2.389397 1_555
Na4 O40 2.412229 1_655
Na4 O4 2.456114 1_555
Na4 O54 2.524442 1_555
Na4 O19 2.711085 1_556
Na5 O58 2.326113 1_555
Na5 O36 2.389405 1_655
Na5 O37 2.412227 1_555
Na5 O1 2.456115 1_555
Na5 O59 2.524457 1_555
Na5 O22 2.711087 1_555
Na6 O38 2.413190 1_555
Na6 O36 2.508457 1_545
Na6 O43 2.564107 1_555
Na6 O42 2.629106 1_455
Na6 O37 2.666651 1_445
Na6 O44 2.704716 1_445
Na7 O39 2.413190 1_655
Na7 O41 2.508457 1_545
Na7 O46 2.564107 1_556
Na7 O47 2.629106 1_656
Na7 O40 2.666651 1_645
Na7 O45 2.704716 1_546
Na8 O48 2.372228 1_555
Na8 O50 2.447329 1_555
Na8 O55 2.519026 1_555
Na8 O49 2.590027 1_555
Na8 O56 2.601372 1_555
Na8 O54 2.692093 1_555
Na9 O53 2.372228 1_555
Na9 O51 2.447329 1_555
Na9 O58 2.519026 1_555
Na9 O52 2.590027 1_555
Na9 O57 2.601372 1_555
Na9 O59 2.692093 1_555
Na10 O62 2.483755 1_555
Na10 O60 2.498684 1_555
Na10 O67 2.617018 1_555
Na10 O61 2.620352 1_555
Na10 O66 2.687264 1_555
Na10 O68 2.751411 1_555
Na11 O63 2.483755 1_555
Na11 O65 2.498684 1_555
Na11 O70 2.617018 1_555
Na11 O64 2.620352 1_555
Na11 O71 2.687264 1_555
Na11 O69 2.751411 1_555
O0 P0 1.506266 1_555
O0 Zn0 1.917984 1_555
O1 P1 1.527013 1_555
O1 Zn0 2.042542 1_665
O2 S0 1.449333 1_555
O2 Zn0 2.071601 1_655
O3 S1 1.449333 1_555
O3 Zn1 2.071601 1_455
O4 P2 1.527013 1_555
O4 Zn1 2.042542 1_565
O5 P3 1.506266 1_555
O5 Zn1 1.917984 1_555
O6 P3 1.549488 1_565
O6 Zn2 2.005610 1_555
O7 S1 1.486151 1_555
O7 Zn2 2.185675 1_445
O8 P2 1.527884 1_455
O8 Zn2 1.926813 1_455
O9 P1 1.527884 1_555
O9 Zn3 1.926813 1_555
O10 S0 1.486151 1_455
O10 Zn3 2.185675 1_445
O11 P0 1.549488 1_565
O11 Zn3 2.005610 1_455
O12 S2 1.469425 1_555
O12 Zn4 2.050150 1_555
O13 S3 1.478829 1_555
O13 Zn4 2.193837 1_555
O14 S4 1.473217 1_555
O14 Zn4 2.176218 1_555
O15 S5 1.473217 1_555
O15 Zn5 2.176218 1_555
O16 S6 1.478829 1_555
O16 Zn5 2.193837 1_555
O17 S7 1.469425 1_555
O17 Zn5 2.050150 1_555
O18 S7 1.482440 1_555
O18 Zn6 2.134250 1_554
O19 S5 1.490375 1_555
O19 Zn6 2.113089 1_554
O20 S6 1.494738 1_555
O20 Zn6 2.045177 1_554
O21 S3 1.494738 1_555
O21 Zn7 2.045177 1_555
O22 S4 1.490375 1_555
O22 Zn7 2.113089 1_555
O23 S2 1.482440 1_555
O23 Zn7 2.134250 1_555
O24 S8 1.471426 1_555
O24 Zn8 1.984911 1_556
O25 P4 1.543218 1_555
O25 Zn8 1.976463 1_556
O26 S9 1.487723 1_555
O26 Zn8 2.111970 1_556
O27 S10 1.487723 1_555
O27 Zn9 2.111970 1_555
O28 P5 1.543218 1_555
O28 Zn9 1.976463 1_555
O29 S11 1.471426 1_555
O29 Zn9 1.984911 1_555
O30 S11 1.512915 1_555
O30 Ta0 2.072718 1_555
O31 S10 1.530856 1_555
O31 Ta0 2.034967 1_555
O32 P5 1.612259 1_555
O32 Ta0 1.962860 1_555
O33 P4 1.612259 1_555
O33 Ta1 1.962860 1_555
O34 S9 1.530856 1_555
O34 Ta1 2.034967 1_555
O35 S8 1.512915 1_555
O35 Ta1 2.072718 1_555
O36 S11 1.476316 1_555
O36 Zn0 2.257841 1_565
O37 S10 1.468037 1_555
O37 Zn0 2.356335 1_665
O38 P5 1.519835 1_555
O38 Zn0 2.073004 1_555
O39 P4 1.519838 1_555
O39 Zn1 2.073004 1_455
O40 S9 1.468029 1_555
O40 Zn1 2.356335 1_465
O41 S8 1.476321 1_555
O41 Zn1 2.257841 1_565
O42 S2 1.509969 1_555
O42 Zn2 2.448817 1_545
O43 S3 1.491182 1_555
O43 Zn2 2.368253 1_445
O44 S4 1.492344 1_555
O44 Zn2 2.225574 1_555
O45 S5 1.492348 1_555
O45 Zn3 2.225574 1_555
O46 S6 1.491173 1_555
O46 Zn3 2.368253 1_545
O47 S7 1.509974 1_555
O47 Zn3 2.448817 1_445
O48 P3 1.525387 1_555
O48 Zn4 2.014481 1_555
O49 S1 1.461603 1_555
O49 Zn4 2.192440 1_555
O50 P2 1.524198 1_555
O50 Zn4 2.022185 1_555
O51 P1 1.524201 1_555
O51 Zn5 2.022185 1_555
O52 S0 1.461595 1_555
O52 Zn5 2.192440 1_555
O53 P0 1.525392 1_555
O53 Zn5 2.014481 1_555
O54 S8 1.481718 1_555
O54 Zn6 2.254275 1_555
O55 P4 1.557357 1_655
O55 Zn6 2.132527 1_555
O56 S9 1.467706 1_545
O56 Zn6 2.171023 1_555
O57 S10 1.467698 1_545
O57 Zn7 2.171023 1_555
O58 P5 1.557375 1_555
O58 Zn7 2.132526 1_555
O59 S11 1.481709 1_655
O59 Zn7 2.254275 1_555
O60 S7 1.502740 1_555
O60 Zn8 2.142491 1_555
O61 S5 1.520405 1_455
O61 Zn8 2.289419 1_555
O62 S6 1.502720 1_565
O62 Zn8 2.224006 1_555
O63 S3 1.502712 1_565
O63 Zn9 2.224006 1_555
O64 S4 1.520423 1_555
O64 Zn9 2.289419 1_555
O65 S2 1.502729 1_455
O65 Zn9 2.142491 1_555
O66 P0 1.623969 1_565
O66 Ta0 1.945510 1_555
O67 P1 1.640136 1_555
O67 Ta0 1.912289 1_555
O68 S0 1.562688 1_455
O68 Ta0 1.992887 1_555
O69 S1 1.562691 1_555
O69 Ta1 1.992887 1_555
O70 P2 1.640127 1_455
O70 Ta1 1.912289 1_555
O71 P3 1.623973 1_565
O71 Ta1 1.945510 1_555
