# generated using pymatgen
data_Na10Zr8Si9(SO16)3
_symmetry_space_group_name_H-M   'P 1'
_cell_length_a   18.36580797
_cell_length_b   9.18986695
_cell_length_c   23.18195645
_cell_angle_alpha   90.04292994
_cell_angle_beta   89.93594154
_cell_angle_gamma   119.95926144
_symmetry_Int_Tables_number   1
_chemical_formula_structural   Na10Zr8Si9(SO16)3
_chemical_formula_sum   'Na30 Zr24 Si27 S9 O144'
_cell_volume   3389.82933260
_cell_formula_units_Z   3
loop_
 _symmetry_equiv_pos_site_id
 _symmetry_equiv_pos_as_xyz
  1  'x, y, z'
loop_
 _atom_site_type_symbol
 _atom_site_label
 _atom_site_symmetry_multiplicity
 _atom_site_fract_x
 _atom_site_fract_y
 _atom_site_fract_z
 _atom_site_occupancy
  Na  Na0  1  0.32152157  0.99953220  0.24945261  1
  Na  Na1  1  0.82158660  0.00010506  0.24964532  1
  Na  Na2  1  0.18375448  0.98875851  0.74704513  1
  Na  Na3  1  0.68360827  0.99491396  0.74617732  1
  Na  Na4  1  0.01838787  0.70624416  0.57977377  1
  Na  Na5  1  0.51818745  0.70649960  0.57951480  1
  Na  Na6  1  0.01848417  0.33130909  0.07944501  1
  Na  Na7  1  0.51611865  0.32634267  0.08019278  1
  Na  Na8  1  0.48408181  0.66491346  0.91373333  1
  Na  Na9  1  0.34868898  0.03041133  0.91587778  1
  Na  Na10  1  0.85212603  0.04360502  0.91302364  1
  Na  Na11  1  0.16435820  0.30619728  0.92002080  1
  Na  Na12  1  0.48510140  0.30623562  0.41436086  1
  Na  Na13  1  0.98529609  0.30662953  0.41437536  1
  Na  Na14  1  0.16537127  0.02718586  0.41899652  1
  Na  Na15  1  0.66537441  0.02739942  0.41896658  1
  Na  Na16  1  0.34927783  0.66671721  0.41618879  1
  Na  Na17  1  0.84946201  0.66665723  0.41618044  1
  Na  Na18  1  0.00269380  0.00302762  0.50114534  1
  Na  Na19  1  0.50263476  0.00287146  0.50109573  1
  Na  Na20  1  0.00782602  0.00080875  0.00180706  1
  Na  Na21  1  0.50765413  0.01269727  0.99838814  1
  Na  Na22  1  0.34386687  0.34339507  0.83174998  1
  Na  Na23  1  0.84726746  0.34810565  0.83209544  1
  Na  Na24  1  0.34086799  0.35343062  0.33116127  1
  Na  Na25  1  0.84079790  0.35325907  0.33110662  1
  Na  Na26  1  0.17352274  0.65861118  0.16574594  1
  Na  Na27  1  0.67356302  0.65708293  0.16819431  1
  Na  Na28  1  0.17826514  0.67795165  0.66698734  1
  Na  Na29  1  0.67910372  0.67664720  0.66449996  1
  Zr  Zr0  1  0.99517077  0.99643213  0.35172011  1
  Zr  Zr1  1  0.49517539  0.99640695  0.35167858  1
  Zr  Zr2  1  0.99728881  0.99419603  0.85113055  1
  Zr  Zr3  1  0.49578507  0.99737060  0.85366897  1
  Zr  Zr4  1  0.99369242  0.98231688  0.64746579  1
  Zr  Zr5  1  0.49386190  0.98437880  0.64751181  1
  Zr  Zr6  1  0.99602785  0.00757952  0.14716987  1
  Zr  Zr7  1  0.49586981  0.00817643  0.14711883  1
  Zr  Zr8  1  0.33300112  0.33303261  0.68622472  1
  Zr  Zr9  1  0.83340475  0.33426732  0.68626154  1
  Zr  Zr10  1  0.32989679  0.33669857  0.18595985  1
  Zr  Zr11  1  0.83058080  0.33826335  0.18593830  1
  Zr  Zr12  1  0.32704354  0.31993700  0.98010855  1
  Zr  Zr13  1  0.82819537  0.31932035  0.98146887  1
  Zr  Zr14  1  0.32796157  0.33280060  0.48143905  1
  Zr  Zr15  1  0.82807576  0.33270540  0.48143557  1
  Zr  Zr16  1  0.17328579  0.67324401  0.01804120  1
  Zr  Zr17  1  0.66787319  0.66829191  0.02062967  1
  Zr  Zr18  1  0.17420299  0.67643596  0.51873856  1
  Zr  Zr19  1  0.67411228  0.67641640  0.51852972  1
  Zr  Zr20  1  0.16502840  0.65235970  0.31435445  1
  Zr  Zr21  1  0.66506987  0.65264617  0.31458195  1
  Zr  Zr22  1  0.16582224  0.66964097  0.81611003  1
  Zr  Zr23  1  0.66208740  0.67169894  0.81248935  1
  Si  Si0  1  0.35244138  0.70419621  0.25032141  1
  Si  Si1  1  0.85229722  0.70417176  0.25037841  1
  Si  Si2  1  0.99967994  0.29865166  0.24983027  1
  Si  Si3  1  0.49975411  0.29911726  0.24987836  1
  Si  Si4  1  0.99905579  0.70109147  0.74962797  1
  Si  Si5  1  0.49708441  0.70341520  0.75062143  1
  Si  Si6  1  0.35176280  0.99918773  0.75089727  1
  Si  Si7  1  0.85232470  -0.00014921  0.75129603  1
  Si  Si8  1  0.18451020  0.03771418  0.58471314  1
  Si  Si9  1  0.68465643  0.03773901  0.58490589  1
  Si  Si10  1  0.33065178  0.62312746  0.58345744  1
  Si  Si11  1  0.83047960  0.62289084  0.58323834  1
  Si  Si12  1  0.32991353  0.03709645  0.08482900  1
  Si  Si13  1  0.83081622  0.03824052  0.08500880  1
  Si  Si14  1  0.18460255  0.33293721  0.08267712  1
  Si  Si15  1  0.68548646  0.33189596  0.08312560  1
  Si  Si16  1  0.31283139  0.66433318  0.91534044  1
  Si  Si17  1  0.01966045  0.37668240  0.91796628  1
  Si  Si18  1  0.52175596  0.37457658  0.91868268  1
  Si  Si19  1  0.16273293  0.95401058  0.91691779  1
  Si  Si20  1  0.66602847  0.95893167  0.91639801  1
  Si  Si21  1  0.31241120  0.96077757  0.41369720  1
  Si  Si22  1  0.81248017  0.96086980  0.41369146  1
  Si  Si23  1  0.16514900  0.37380592  0.41802150  1
  Si  Si24  1  0.66516415  0.37370763  0.41803147  1
  Si  Si25  1  0.02178775  0.66622516  0.41838045  1
  Si  Si26  1  0.52170079  0.66623328  0.41839130  1
  S  S0  1  0.14534277  0.99889822  0.24978160  1
  S  S1  1  0.64557351  0.99918944  0.24965540  1
  S  S2  1  0.14422671  0.29043471  0.74946427  1
  S  S3  1  0.64478301  0.29145774  0.74959240  1
  S  S4  1  0.47951768  0.33218383  0.58290099  1
  S  S5  1  0.97927213  0.33219277  0.58297721  1
  S  S6  1  0.47901379  0.62650806  0.08297266  1
  S  S7  1  0.97774126  0.62440964  0.08298319  1
  S  S8  1  0.81155016  0.66454139  0.91622268  1
  O  O0  1  0.10731332  0.02099325  0.30343473  1
  O  O1  1  0.60732687  0.02091504  0.30338829  1
  O  O2  1  0.40785494  0.79021232  0.30936807  1
  O  O3  1  0.90770471  0.79026558  0.30935686  1
  O  O4  1  0.48725457  0.17866245  0.30636897  1
  O  O5  1  0.98698436  0.17826065  0.30637069  1
  O  O6  1  0.10561787  0.18885743  0.80266442  1
  O  O7  1  0.60514010  0.18482749  0.80129816  1
  O  O8  1  0.48980780  0.79878420  0.80787149  1
  O  O9  1  0.98958457  0.80487201  0.80453725  1
  O  O10  1  0.40856869  0.02665426  0.80895174  1
  O  O11  1  0.90734073  0.02457863  0.81031406  1
  O  O12  1  0.40377343  0.98532684  0.69549414  1
  O  O13  1  0.90361748  0.98452372  0.69615681  1
  O  O14  1  0.09290762  0.20611748  0.69826451  1
  O  O15  1  0.59427096  0.21401889  0.69743562  1
  O  O16  1  0.01529092  0.82182097  0.69242486  1
  O  O17  1  0.51608176  0.82578047  0.69385728  1
  O  O18  1  0.40421654  0.82943481  0.19636246  1
  O  O19  1  0.90379415  0.82916832  0.19629002  1
  O  O20  1  0.01186529  0.20552490  0.19253116  1
  O  O21  1  0.51212061  0.20674777  0.19246335  1
  O  O22  1  0.09399915  0.98116630  0.19884663  1
  O  O23  1  0.59415512  0.98127373  0.19874995  1
  O  O24  1  0.43628120  0.35449772  0.63385622  1
  O  O25  1  0.93617927  0.35438474  0.63380052  1
  O  O26  1  0.24225843  0.12891489  0.64170907  1
  O  O27  1  0.74220011  0.12836949  0.64207255  1
  O  O28  1  0.32460978  0.50608820  0.63829833  1
  O  O29  1  0.82450630  0.50588437  0.63810820  1
  O  O30  1  0.43755267  0.51640143  0.13380052  1
  O  O31  1  0.93679353  0.51704363  0.13486638  1
  O  O32  1  0.32404821  0.13581614  0.14195073  1
  O  O33  1  0.82184838  0.13196206  0.14209061  1
  O  O34  1  0.24622915  0.35787844  0.13743317  1
  O  O35  1  0.74523513  0.35908828  0.13916040  1
  O  O36  1  0.23016911  0.31419311  0.02406824  1
  O  O37  1  0.73484505  0.31612432  0.02673655  1
  O  O38  1  0.42976408  0.55068657  0.02967712  1
  O  O39  1  0.92647108  0.54614440  0.03115050  1
  O  O40  1  0.34909426  0.15918277  0.02774333  1
  O  O41  1  0.84875172  0.15921562  0.02786207  1
  O  O42  1  0.23176732  0.14886079  0.52659089  1
  O  O43  1  0.73196281  0.14879177  0.52674160  1
  O  O44  1  0.34938304  0.54277637  0.52546187  1
  O  O45  1  0.84909795  0.54257433  0.52529050  1
  O  O46  1  0.42948455  0.30838162  0.52968725  1
  O  O47  1  0.92935197  0.30811827  0.52972066  1
  O  O48  1  0.27046690  0.70179245  0.97145825  1
  O  O49  1  0.77193187  0.69186528  0.96808832  1
  O  O50  1  0.07767166  0.45579922  0.97570804  1
  O  O51  1  0.57641314  0.46188199  0.97703836  1
  O  O52  1  0.15071304  0.83785822  0.97234163  1
  O  O53  1  0.65365247  0.83420397  0.97051408  1
  O  O54  1  0.26926890  0.83645194  0.46912210  1
  O  O55  1  0.76926597  0.83655097  0.46909490  1
  O  O56  1  0.14626847  0.46050744  0.47272234  1
  O  O57  1  0.64635116  0.46061475  0.47271494  1
  O  O58  1  0.07800630  0.69903733  0.47663919  1
  O  O59  1  0.57800814  0.69910299  0.47664142  1
  O  O60  1  0.06756306  0.63387298  0.36361376  1
  O  O61  1  0.56754858  0.63387682  0.36365689  1
  O  O62  1  0.25420238  0.88072472  0.35663113  1
  O  O63  1  0.75426309  0.88072938  0.35665759  1
  O  O64  1  0.18594818  0.49590853  0.36166724  1
  O  O65  1  0.68594482  0.49592338  0.36170776  1
  O  O66  1  0.06714143  0.49022903  0.86169088  1
  O  O67  1  0.57025829  0.49929299  0.86370622  1
  O  O68  1  0.18226370  0.87674401  0.85885852  1
  O  O69  1  0.68454079  0.87600451  0.85870661  1
  O  O70  1  0.25142555  0.62815196  0.86029752  1
  O  O71  1  0.76078500  0.64148580  0.86413001  1
  O  O72  1  0.01294885  0.83497186  0.41017001  1
  O  O73  1  0.51303557  0.83514204  0.41020165  1
  O  O74  1  0.40652680  0.97943551  0.41041746  1
  O  O75  1  0.90651862  0.97941479  0.41048388  1
  O  O76  1  0.08413659  0.18476319  0.40956148  1
  O  O77  1  0.58412542  0.18474856  0.40959767  1
  O  O78  1  0.00852542  0.18544023  0.91058943  1
  O  O79  1  0.50705337  0.18548370  0.91170007  1
  O  O80  1  0.08477413  0.99253139  0.91010367  1
  O  O81  1  0.58088431  0.97005953  0.91029430  1
  O  O82  1  0.40604889  0.83309654  0.91055152  1
  O  O83  1  0.89542061  0.82345357  0.91181899  1
  O  O84  1  0.49044477  0.18479839  0.58940101  1
  O  O85  1  0.99028909  0.18426109  0.58960337  1
  O  O86  1  0.09099924  0.02122418  0.58875744  1
  O  O87  1  0.59118050  0.02103942  0.58888895  1
  O  O88  1  0.41763692  0.80874787  0.58890884  1
  O  O89  1  0.91724216  0.80868905  0.58852950  1
  O  O90  1  0.49097008  0.79550360  0.09018983  1
  O  O91  1  0.98906108  0.79395436  0.08997522  1
  O  O92  1  0.41751539  0.02565396  0.08886583  1
  O  O93  1  0.91803967  0.02685054  0.08837330  1
  O  O94  1  0.09191336  0.16167352  0.08855790  1
  O  O95  1  0.59218714  0.16332513  0.08843139  1
  O  O96  1  0.33684986  0.16172545  0.74507925  1
  O  O97  1  0.83597220  0.15977232  0.74555624  1
  O  O98  1  0.22828852  0.30010361  0.74537018  1
  O  O99  1  0.72901253  0.30200544  0.74488061  1
  O  O100  1  0.41542911  0.51723640  0.74383453  1
  O  O101  1  0.91528125  0.51704119  0.74394052  1
  O  O102  1  0.34166626  0.51780219  0.24424017  1
  O  O103  1  0.84149959  0.51758110  0.24457583  1
  O  O104  1  0.41085155  0.30042662  0.24469540  1
  O  O105  1  0.91072630  0.29971537  0.24446997  1
  O  O106  1  0.23155447  0.15168007  0.24546643  1
  O  O107  1  0.73166365  0.15164581  0.24550550  1
  O  O108  1  0.32582589  0.50157321  0.92323868  1
  O  O109  1  0.82436282  0.51971782  0.92284815  1
  O  O110  1  0.42920809  0.36270816  0.92298393  1
  O  O111  1  0.92467602  0.35156321  0.92296971  1
  O  O112  1  0.24947516  0.14137759  0.92236510  1
  O  O113  1  0.75212944  0.14198565  0.92258238  1
  O  O114  1  0.32553366  0.14911072  0.42333917  1
  O  O115  1  0.82543285  0.14902964  0.42328416  1
  O  O116  1  0.24977071  0.35555843  0.42353273  1
  O  O117  1  0.74976669  0.35542911  0.42355648  1
  O  O118  1  0.42805936  0.49796241  0.42359835  1
  O  O119  1  0.92806108  0.49793391  0.42360531  1
  O  O120  1  0.16828242  0.49257391  0.07945398  1
  O  O121  1  0.66996146  0.49339862  0.07827196  1
  O  O122  1  0.06083578  0.63269865  0.07868586  1
  O  O123  1  0.56268813  0.63492329  0.07894598  1
  O  O124  1  0.24676612  0.85329555  0.07982623  1
  O  O125  1  0.74888042  0.85209543  0.07698841  1
  O  O126  1  0.16918380  0.84569406  0.57963480  1
  O  O127  1  0.66922934  0.84538966  0.57985533  1
  O  O128  1  0.24713175  0.64035734  0.57934426  1
  O  O129  1  0.74699763  0.64021705  0.57939886  1
  O  O130  1  0.06171226  0.48945734  0.57920595  1
  O  O131  1  0.56177236  0.48954974  0.57926962  1
  O  O132  1  0.15674373  0.85059537  0.25368539  1
  O  O133  1  0.65683383  0.85061221  0.25356899  1
  O  O134  1  0.26343356  0.70522987  0.25402710  1
  O  O135  1  0.76327889  0.70518301  0.25395051  1
  O  O136  1  0.08233195  0.48410718  0.25433533  1
  O  O137  1  0.58248686  0.48475558  0.25423759  1
  O  O138  1  0.15510236  0.46004446  0.75405681  1
  O  O139  1  0.65703158  0.46175941  0.75666944  1
  O  O140  1  0.08568370  0.69257790  0.75487918  1
  O  O141  1  0.58486811  0.69338166  0.75507496  1
  O  O142  1  0.25832428  0.83155431  0.75412388  1
  O  O143  1  0.75913220  0.82926990  0.75533430  1
loop_
_geom_bond_atom_site_label_1
_geom_bond_atom_site_label_2
_geom_bond_distance
_geom_bond_site_symmetry_2
Na0 O134 2.362755 1_555
Na0 O104 2.412270 1_565
Na0 O132 2.627527 1_555
Na0 O106 2.646073 1_565
Na0 O62 2.746439 1_555
Na0 O32 2.779873 1_565
Na0 O18 2.937506 1_555
Na0 O4 2.952436 1_565
Na1 O135 2.367232 1_545
Na1 O105 2.402842 1_555
Na1 O133 2.626593 1_545
Na1 O107 2.640797 1_555
Na1 O63 2.743885 1_545
Na1 O33 2.771954 1_555
Na1 O19 2.939184 1_545
Na1 O5 2.945443 1_555
Na2 O140 2.406079 1_555
Na2 O142 2.442670 1_555
Na2 O96 2.443455 1_565
Na2 O98 2.553396 1_565
Na2 O26 2.718998 1_565
Na2 O68 2.784751 1_555
Na2 O16 2.965572 1_555
Na3 O97 2.427263 1_565
Na3 O141 2.447627 1_555
Na3 O99 2.512035 1_565
Na3 O143 2.529074 1_555
Na3 O27 2.677103 1_565
Na3 O69 2.832408 1_555
Na3 O17 2.929604 1_555
Na4 O126 2.401578 1_555
Na4 O89 2.474648 1_455
Na4 O130 2.487068 1_555
Na4 O86 2.518913 1_565
Na4 O58 2.643073 1_555
Na4 O16 2.829665 1_555
Na5 O127 2.405832 1_555
Na5 O88 2.464250 1_555
Na5 O131 2.491933 1_555
Na5 O87 2.515802 1_565
Na5 O59 2.639593 1_555
Na5 O17 2.875234 1_555
Na5 O44 2.965196 1_555
Na6 O120 2.386008 1_555
Na6 O93 2.473712 1_455
Na6 O122 2.474886 1_555
Na6 O94 2.528727 1_555
Na6 O50 2.651388 1_554
Na6 O20 2.843770 1_555
Na6 O41 2.954668 1_455
Na7 O92 2.440844 1_555
Na7 O121 2.451432 1_555
Na7 O95 2.514752 1_555
Na7 O123 2.520281 1_555
Na7 O51 2.667785 1_554
Na7 O21 2.812540 1_555
Na7 O40 2.923535 1_555
Na7 O30 3.031000 1_555
Na8 O110 2.445323 1_555
Na8 O81 2.459992 1_555
Na8 O108 2.528058 1_555
Na8 O82 2.580862 1_555
Na8 O8 2.724306 1_555
Na8 O38 2.876409 1_556
Na8 O67 2.926719 1_555
Na8 O53 3.003139 1_555
Na9 O112 2.497552 1_555
Na9 O82 2.514026 1_545
Na9 O79 2.521785 1_555
Na9 O110 2.651209 1_555
Na9 O10 2.717820 1_555
Na9 O40 2.848180 1_556
Na9 O48 2.917652 1_545
Na9 O68 2.962944 1_545
Na10 O113 2.428262 1_555
Na10 O111 2.464025 1_555
Na10 O78 2.492626 1_655
Na10 O83 2.516505 1_545
Na10 O11 2.626627 1_555
Na10 O41 2.877670 1_556
Na10 O69 2.949905 1_545
Na11 O80 2.507993 1_545
Na11 O78 2.509824 1_555
Na11 O108 2.589555 1_555
Na11 O112 2.665727 1_555
Na11 O36 2.683596 1_556
Na11 O50 2.875796 1_555
Na11 O70 2.916113 1_555
Na11 O6 2.927169 1_555
Na12 O118 2.467859 1_555
Na12 O114 2.547419 1_555
Na12 O77 2.567775 1_555
Na12 O74 2.604158 1_545
Na12 O4 2.772193 1_555
Na12 O61 2.861489 1_555
Na12 O46 2.864478 1_555
Na12 O57 2.902215 1_555
Na13 O119 2.467020 1_555
Na13 O115 2.551964 1_555
Na13 O76 2.567456 1_655
Na13 O75 2.607375 1_545
Na13 O5 2.773695 1_555
Na13 O60 2.859147 1_655
Na13 O47 2.865938 1_555
Na13 O56 2.898279 1_655
Na14 O72 2.461811 1_545
Na14 O76 2.555349 1_555
Na14 O114 2.574248 1_555
Na14 O116 2.616924 1_555
Na14 O42 2.756691 1_555
Na14 O0 2.874458 1_555
Na14 O58 2.936451 1_545
Na14 O62 2.957773 1_545
Na15 O73 2.460556 1_545
Na15 O77 2.553644 1_555
Na15 O115 2.572826 1_555
Na15 O117 2.614271 1_555
Na15 O43 2.760859 1_555
Na15 O1 2.874302 1_555
Na15 O59 2.937817 1_545
Na15 O63 2.959361 1_545
Na16 O116 2.515207 1_555
Na16 O74 2.522837 1_555
Na16 O118 2.601950 1_555
Na16 O73 2.609657 1_555
Na16 O2 2.712255 1_555
Na16 O44 2.778628 1_555
Na16 O64 2.891753 1_555
Na16 O54 2.894899 1_555
Na17 O117 2.516302 1_555
Na17 O75 2.523621 1_555
Na17 O119 2.598860 1_555
Na17 O72 2.605408 1_655
Na17 O3 2.711407 1_555
Na17 O45 2.773950 1_555
Na17 O65 2.893883 1_555
Na17 O55 2.898540 1_555
Na18 O86 2.553278 1_555
Na18 O89 2.637254 1_445
Na18 O76 2.652796 1_555
Na18 O72 2.674556 1_545
Na18 O75 2.684960 1_445
Na18 O85 2.720979 1_455
Na19 O87 2.559350 1_555
Na19 O88 2.642030 1_545
Na19 O77 2.651877 1_555
Na19 O73 2.672195 1_545
Na19 O74 2.684906 1_545
Na19 O84 2.720952 1_555
Na20 O94 2.517344 1_555
Na20 O80 2.573454 1_544
Na20 O93 2.681352 1_455
Na20 O91 2.694425 1_445
Na20 O78 2.708169 1_554
Na20 O83 2.813192 1_444
Na21 O95 2.557362 1_556
Na21 O79 2.565603 1_555
Na21 O81 2.579129 1_545
Na21 O82 2.698125 1_545
Na21 O92 2.709759 1_556
Na21 O90 2.828583 1_546
Na22 O100 2.516958 1_555
Na22 O96 2.573216 1_555
Na22 O110 2.586557 1_555
Na22 O108 2.682511 1_555
Na22 O112 2.765477 1_555
Na22 O98 2.799779 1_555
Na23 O101 2.491796 1_555
Na23 O111 2.534084 1_555
Na23 O97 2.588497 1_555
Na23 O113 2.780891 1_555
Na23 O109 2.783148 1_555
Na23 O99 2.841422 1_555
Na24 O102 2.514874 1_555
Na24 O104 2.554440 1_555
Na24 O118 2.607578 1_555
Na24 O116 2.722049 1_555
Na24 O114 2.765442 1_555
Na24 O106 2.774944 1_555
Na25 O103 2.507878 1_555
Na25 O105 2.559130 1_555
Na25 O119 2.609494 1_555
Na25 O117 2.722851 1_555
Na25 O115 2.764779 1_555
Na25 O107 2.771716 1_555
Na26 O120 2.487642 1_555
Na26 O134 2.529475 1_555
Na26 O124 2.563845 1_555
Na26 O136 2.628499 1_555
Na26 O132 2.810676 1_555
Na26 O122 2.815939 1_555
Na27 O135 2.478108 1_555
Na27 O121 2.551234 1_555
Na27 O137 2.576058 1_555
Na27 O125 2.668102 1_555
Na27 O133 2.777349 1_555
Na27 O123 2.839576 1_555
Na28 O142 2.482799 1_555
Na28 O128 2.505324 1_555
Na28 O126 2.601344 1_555
Na28 O140 2.698283 1_555
Na28 O138 2.723698 1_555
Na28 O130 2.832804 1_555
Na29 O129 2.443223 1_555
Na29 O143 2.550509 1_555
Na29 O127 2.564020 1_555
Na29 O141 2.772185 1_555
Na29 O131 2.794201 1_555
Na29 O139 2.798986 1_555
O0 S0 1.488413 1_545
O0 Zr0 2.253157 1_445
O1 S1 1.490844 1_545
O1 Zr1 2.253528 1_545
O2 Si0 1.652955 1_555
O2 Zr1 2.022421 1_555
O3 Si1 1.651725 1_555
O3 Zr0 2.023748 1_555
O4 Si3 1.655511 1_555
O4 Zr1 2.043542 1_545
O5 Si2 1.655372 1_555
O5 Zr0 2.043011 1_545
O6 S2 1.494605 1_555
O6 Zr2 2.205477 1_445
O7 S3 1.488054 1_555
O7 Zr3 2.239948 1_545
O8 Si5 1.631627 1_555
O8 Zr3 2.065679 1_555
O9 Si4 1.650310 1_555
O9 Zr2 1.991346 1_555
O10 Si6 1.644079 1_545
O10 Zr3 2.036530 1_545
O11 Si7 1.648550 1_555
O11 Zr2 2.041284 1_545
O12 Si6 1.642183 1_555
O12 Zr5 1.996281 1_555
O13 Si7 1.634232 1_565
O13 Zr4 2.010099 1_555
O14 S2 1.472824 1_555
O14 Zr4 2.279301 1_445
O15 S3 1.473369 1_555
O15 Zr5 2.303894 1_545
O16 Si4 1.658092 1_455
O16 Zr4 2.001656 1_455
O17 Si5 1.651426 1_555
O17 Zr5 2.010597 1_555
O18 Si0 1.643153 1_555
O18 Zr7 2.017852 1_565
O19 Si1 1.643364 1_555
O19 Zr6 2.019617 1_565
O20 Si2 1.654036 1_455
O20 Zr6 1.992194 1_455
O21 Si3 1.653445 1_555
O21 Zr7 1.994482 1_555
O22 S0 1.469250 1_555
O22 Zr6 2.274441 1_465
O23 S1 1.469152 1_555
O23 Zr7 2.281023 1_565
O24 S4 1.492685 1_555
O24 Zr8 2.175351 1_555
O25 S5 1.488234 1_555
O25 Zr9 2.173170 1_555
O26 Si8 1.639128 1_555
O26 Zr8 2.059050 1_555
O27 Si9 1.639874 1_555
O27 Zr9 2.066598 1_555
O28 Si10 1.633388 1_555
O28 Zr8 2.008780 1_555
O29 Si11 1.634053 1_555
O29 Zr9 2.005155 1_555
O30 S6 1.490737 1_555
O30 Zr10 2.198875 1_555
O31 S7 1.498120 1_555
O31 Zr11 2.168646 1_555
O32 Si12 1.638179 1_555
O32 Zr10 2.063922 1_555
O33 Si13 1.630788 1_555
O33 Zr11 2.084971 1_555
O34 Si14 1.639661 1_555
O34 Zr10 1.991861 1_555
O35 Si15 1.637925 1_555
O35 Zr11 1.993276 1_555
O36 Si14 1.648357 1_555
O36 Zr12 2.027065 1_554
O37 Si15 1.637027 1_555
O37 Zr13 1.996790 1_554
O38 S6 1.483858 1_555
O38 Zr12 2.319879 1_554
O39 S7 1.473966 1_555
O39 Zr13 2.274337 1_554
O40 Si12 1.655474 1_555
O40 Zr12 2.041286 1_554
O41 Si13 1.653777 1_555
O41 Zr13 2.005523 1_554
O42 Si8 1.651080 1_555
O42 Zr14 2.022372 1_555
O43 Si9 1.651764 1_555
O43 Zr15 2.023448 1_555
O44 Si10 1.649952 1_555
O44 Zr14 2.039494 1_555
O45 Si11 1.647983 1_555
O45 Zr15 2.038775 1_555
O46 S4 1.488411 1_555
O46 Zr14 2.280541 1_555
O47 S5 1.487703 1_555
O47 Zr15 2.277816 1_555
O48 Si16 1.637331 1_555
O48 Zr16 1.987199 1_556
O49 S8 1.489362 1_555
O49 Zr17 2.182785 1_556
O50 Si17 1.638160 1_555
O50 Zr16 2.129803 1_556
O51 Si18 1.636600 1_555
O51 Zr17 2.063839 1_556
O52 Si19 1.614000 1_555
O52 Zr16 2.052432 1_556
O53 Si20 1.637261 1_555
O53 Zr17 2.035617 1_556
O54 Si21 1.637014 1_555
O54 Zr18 1.991866 1_555
O55 Si22 1.636773 1_555
O55 Zr19 1.990586 1_555
O56 Si23 1.623745 1_555
O56 Zr18 2.078478 1_555
O57 Si24 1.623991 1_555
O57 Zr19 2.075851 1_555
O58 Si25 1.634785 1_555
O58 Zr18 2.118398 1_555
O59 Si26 1.635432 1_555
O59 Zr19 2.115044 1_555
O60 Si25 1.629032 1_555
O60 Zr20 2.056466 1_555
O61 Si26 1.629274 1_555
O61 Zr21 2.054039 1_555
O62 Si21 1.627993 1_555
O62 Zr20 2.148193 1_555
O63 Si22 1.627551 1_555
O63 Zr21 2.144624 1_555
O64 Si23 1.638505 1_555
O64 Zr20 1.993186 1_555
O65 Si24 1.638570 1_555
O65 Zr21 1.992389 1_555
O66 Si17 1.625382 1_555
O66 Zr22 2.033086 1_555
O67 Si18 1.646607 1_555
O67 Zr23 2.023328 1_555
O68 Si19 1.642029 1_555
O68 Zr22 2.029643 1_555
O69 Si20 1.655674 1_555
O69 Zr23 2.016879 1_555
O70 Si16 1.624395 1_555
O70 Zr22 2.066225 1_555
O71 S8 1.475572 1_555
O71 Zr23 2.303037 1_555
O72 Si25 1.649053 1_555
O72 Zr0 2.152237 1_455
O73 Si26 1.648661 1_555
O73 Zr1 2.152681 1_555
O74 Si21 1.651253 1_555
O74 Zr1 2.066632 1_555
O75 Si22 1.650204 1_555
O75 Zr0 2.066927 1_555
O76 Si23 1.639763 1_555
O76 Zr0 2.154096 1_445
O77 Si24 1.639407 1_555
O77 Zr1 2.155155 1_545
O78 Si17 1.673468 1_555
O78 Zr2 2.160114 1_445
O79 Si18 1.627843 1_555
O79 Zr3 2.116820 1_545
O80 Si19 1.645317 1_555
O80 Zr2 2.116679 1_455
O81 Si20 1.623576 1_555
O81 Zr3 2.150747 1_555
O82 Si16 1.642123 1_555
O82 Zr3 2.060877 1_555
O83 S8 1.506305 1_555
O83 Zr2 2.237641 1_555
O84 S4 1.472881 1_555
O84 Zr5 2.308759 1_545
O85 S5 1.479126 1_555
O85 Zr4 2.316696 1_545
O86 Si8 1.649532 1_555
O86 Zr4 2.128609 1_445
O87 Si9 1.647990 1_555
O87 Zr5 2.132783 1_545
O88 Si10 1.660219 1_555
O88 Zr5 2.038313 1_555
O89 Si11 1.659004 1_555
O89 Zr4 2.036540 1_555
O90 S6 1.465349 1_555
O90 Zr7 2.321709 1_565
O91 S7 1.474219 1_555
O91 Zr6 2.318197 1_565
O92 Si12 1.666623 1_555
O92 Zr7 2.038575 1_555
O93 Si13 1.658608 1_555
O93 Zr6 2.049095 1_555
O94 Si14 1.648464 1_555
O94 Zr6 2.111758 1_455
O95 Si15 1.643081 1_555
O95 Zr7 2.119309 1_555
O96 Si6 1.653279 1_545
O96 Zr8 2.111741 1_555
O97 Si7 1.645907 1_555
O97 Zr9 2.131224 1_555
O98 S2 1.504357 1_555
O98 Zr8 2.254645 1_555
O99 S3 1.504737 1_555
O99 Zr9 2.244417 1_555
O100 Si5 1.624361 1_555
O100 Zr8 2.093458 1_555
O101 Si4 1.626783 1_555
O101 Zr9 2.085384 1_555
O102 Si0 1.629210 1_555
O102 Zr10 2.068815 1_555
O103 Si1 1.630292 1_555
O103 Zr11 2.066590 1_555
O104 Si3 1.643342 1_555
O104 Zr10 2.162372 1_555
O105 Si2 1.643453 1_555
O105 Zr11 2.158516 1_555
O106 S0 1.505936 1_545
O106 Zr10 2.233127 1_555
O107 S1 1.503162 1_545
O107 Zr11 2.243786 1_555
O108 Si16 1.638524 1_555
O108 Zr12 2.136698 1_555
O109 S8 1.470873 1_555
O109 Zr13 2.318771 1_555
O110 Si18 1.650864 1_555
O110 Zr12 2.165043 1_555
O111 Si17 1.645385 1_655
O111 Zr13 2.130140 1_555
O112 Si19 1.667076 1_545
O112 Zr12 2.044555 1_555
O113 Si20 1.641437 1_545
O113 Zr13 2.048918 1_555
O114 Si21 1.639054 1_545
O114 Zr14 2.141781 1_555
O115 Si22 1.638522 1_545
O115 Zr15 2.140965 1_555
O116 Si23 1.649420 1_555
O116 Zr14 2.052470 1_555
O117 Si24 1.649259 1_555
O117 Zr15 2.053546 1_555
O118 Si26 1.645361 1_555
O118 Zr14 2.166093 1_555
O119 Si25 1.646371 1_655
O119 Zr15 2.165085 1_555
O120 Si14 1.639214 1_555
O120 Zr16 2.154728 1_555
O121 Si15 1.649169 1_555
O121 Zr17 2.105992 1_555
O122 S7 1.492738 1_455
O122 Zr16 2.367742 1_555
O123 S6 1.502424 1_555
O123 Zr17 2.248696 1_555
O124 Si12 1.619372 1_565
O124 Zr16 2.093106 1_555
O125 Si13 1.629254 1_565
O125 Zr17 2.065107 1_555
O126 Si8 1.646422 1_565
O126 Zr18 2.135523 1_555
O127 Si9 1.648688 1_565
O127 Zr19 2.139143 1_555
O128 Si10 1.621722 1_555
O128 Zr18 2.079968 1_555
O129 Si11 1.621164 1_555
O129 Zr19 2.084060 1_555
O130 S5 1.484311 1_455
O130 Zr18 2.374298 1_555
O131 S4 1.482744 1_555
O131 Zr19 2.376328 1_555
O132 S0 1.481463 1_555
O132 Zr20 2.366678 1_555
O133 S1 1.482424 1_555
O133 Zr21 2.369045 1_555
O134 Si0 1.641618 1_555
O134 Zr20 2.139282 1_555
O135 Si1 1.641552 1_555
O135 Zr21 2.141861 1_555
O136 Si2 1.623576 1_455
O136 Zr20 2.071088 1_555
O137 Si3 1.624950 1_555
O137 Zr21 2.074153 1_555
O138 S2 1.472955 1_555
O138 Zr22 2.331506 1_555
O139 S3 1.474777 1_555
O139 Zr23 2.285380 1_555
O140 Si4 1.636143 1_455
O140 Zr22 2.130838 1_555
O141 Si5 1.663512 1_555
O141 Zr23 2.027152 1_555
O142 Si6 1.638052 1_555
O142 Zr22 2.153615 1_555
O143 Si7 1.647941 1_565
O143 Zr23 2.109244 1_555
