# generated using pymatgen
data_Na3NbSi3SnO12
_symmetry_space_group_name_H-M   'P 1'
_cell_length_a   9.07615898
_cell_length_b   9.07409125
_cell_length_c   22.59820320
_cell_angle_alpha   90.00000000
_cell_angle_beta   90.10849212
_cell_angle_gamma   119.99246635
_symmetry_Int_Tables_number   1
_chemical_formula_structural   Na3NbSi3SnO12
_chemical_formula_sum   'Na18 Nb6 Si18 Sn6 O72'
_cell_volume   1611.91339289
_cell_formula_units_Z   6
loop_
 _symmetry_equiv_pos_site_id
 _symmetry_equiv_pos_as_xyz
  1  'x, y, z'
loop_
 _atom_site_type_symbol
 _atom_site_label
 _atom_site_symmetry_multiplicity
 _atom_site_fract_x
 _atom_site_fract_y
 _atom_site_fract_z
 _atom_site_occupancy
  Na  Na0  1  0.99265876  0.98349211  0.49762198  1
  Na  Na1  1  0.99265876  0.00916665  0.99762198  1
  Na  Na2  1  0.66678422  0.33457897  0.83092766  1
  Na  Na3  1  0.66678422  0.33220425  0.33092766  1
  Na  Na4  1  0.33160209  0.66534338  0.16429474  1
  Na  Na5  1  0.33160209  0.66625971  0.66429474  1
  Na  Na6  1  0.36823970  0.36535627  0.24946884  1
  Na  Na7  1  0.99341462  0.63100679  0.24898728  1
  Na  Na8  1  0.99341462  0.36240783  0.74898728  1
  Na  Na9  1  0.36823970  0.00288343  0.74946884  1
  Na  Na10  1  0.30302724  0.33936829  0.58282249  1
  Na  Na11  1  0.66393417  0.96644902  0.58218555  1
  Na  Na12  1  0.30302724  0.96365795  0.08282249  1
  Na  Na13  1  0.66393417  0.69748415  0.08218555  1
  Na  Na14  1  0.96970755  0.67322566  0.91548587  1
  Na  Na15  1  0.33017522  0.29890016  0.91630078  1
  Na  Na16  1  0.96970755  0.29648289  0.41548587  1
  Na  Na17  1  0.33017522  0.03127606  0.41630078  1
  Nb  Nb0  1  0.99946085  0.99656021  0.64558419  1
  Nb  Nb1  1  0.99946085  0.00290065  0.14558419  1
  Nb  Nb2  1  0.66768938  0.32831563  0.97880400  1
  Nb  Nb3  1  0.66768938  0.33937276  0.47880400  1
  Nb  Nb4  1  0.33769739  0.67075232  0.31224693  1
  Nb  Nb5  1  0.33769739  0.66694607  0.81224693  1
  Si  Si0  1  0.29272906  0.00202259  0.25033131  1
  Si  Si1  1  0.70884234  0.70944899  0.24905724  1
  Si  Si2  1  0.99605621  0.28971668  0.25148703  1
  Si  Si3  1  0.29272906  0.29070647  0.75033131  1
  Si  Si4  1  0.99605621  0.70633953  0.75148703  1
  Si  Si5  1  0.70884234  0.99939335  0.74905724  1
  Si  Si6  1  0.95949384  0.33752692  0.58389282  1
  Si  Si7  1  0.37583471  0.04076997  0.58367814  1
  Si  Si8  1  0.66713068  0.62530501  0.58338175  1
  Si  Si9  1  0.95949384  0.62196592  0.08389282  1
  Si  Si10  1  0.66713068  0.04182467  0.08338175  1
  Si  Si11  1  0.37583471  0.33506374  0.08367814  1
  Si  Si12  1  0.62719183  0.67099975  0.91849969  1
  Si  Si13  1  0.04204698  0.37370766  0.91563754  1
  Si  Si14  1  0.33388296  0.95749597  0.91663632  1
  Si  Si15  1  0.62719183  0.95619308  0.41849969  1
  Si  Si16  1  0.33388296  0.37638798  0.41663632  1
  Si  Si17  1  0.04204698  0.66834032  0.41563754  1
  Sn  Sn0  1  0.99548735  0.99622302  0.35218283  1
  Sn  Sn1  1  0.99548735  0.99926433  0.85218283  1
  Sn  Sn2  1  0.66703212  0.33778469  0.68559002  1
  Sn  Sn3  1  0.66703212  0.32924643  0.18559002  1
  Sn  Sn4  1  0.32987736  0.66217607  0.01898064  1
  Sn  Sn5  1  0.32987736  0.66770229  0.51898064  1
  O  O0  1  0.21316050  0.03937249  0.30937592  1
  O  O1  1  0.83455496  0.78899435  0.30573174  1
  O  O2  1  0.96927944  0.18220767  0.31181059  1
  O  O3  1  0.21316050  0.17378800  0.80937592  1
  O  O4  1  0.96927944  0.78707177  0.81181059  1
  O  O5  1  0.83455496  0.04556060  0.80573174  1
  O  O6  1  0.80046665  0.97124536  0.69018173  1
  O  O7  1  0.16630173  0.19944690  0.69216608  1
  O  O8  1  0.02982112  0.83798991  0.69518424  1
  O  O9  1  0.80046665  0.82922129  0.19018173  1
  O  O10  1  0.02982112  0.19183121  0.19518424  1
  O  O11  1  0.16630173  0.96685483  0.19216608  1
  O  O12  1  0.87801208  0.36404954  0.64403714  1
  O  O13  1  0.49245130  0.12045898  0.64290595  1
  O  O14  1  0.62041549  0.49977363  0.64001401  1
  O  O15  1  0.87801208  0.51396154  0.14403714  1
  O  O16  1  0.62041549  0.12064086  0.14001401  1
  O  O17  1  0.49245130  0.37199131  0.14290595  1
  O  O18  1  0.46807838  0.30098924  0.02575206  1
  O  O19  1  0.83324781  0.53099933  0.02590667  1
  O  O20  1  0.69548117  0.16694339  0.02586463  1
  O  O21  1  0.46807838  0.16708813  0.52575206  1
  O  O22  1  0.69548117  0.52853678  0.52586463  1
  O  O23  1  0.83324781  0.30224748  0.52590667  1
  O  O24  1  0.54646353  0.69922765  0.97850110  1
  O  O25  1  0.16586170  0.45633933  0.97284169  1
  O  O26  1  0.29382815  0.84018167  0.97571867  1
  O  O27  1  0.54646353  0.84723688  0.47850110  1
  O  O28  1  0.29382815  0.45364747  0.47571867  1
  O  O29  1  0.16586170  0.70952337  0.47284169  1
  O  O30  1  0.13170513  0.63290232  0.35721393  1
  O  O31  1  0.49536106  0.85905928  0.36194024  1
  O  O32  1  0.36074014  0.49726572  0.35831254  1
  O  O33  1  0.13170513  0.49880381  0.85721393  1
  O  O34  1  0.36074014  0.86347542  0.85831254  1
  O  O35  1  0.49536106  0.63630278  0.86194024  1
  O  O36  1  0.03043799  0.84083559  0.41074156  1
  O  O37  1  0.81952609  0.98989331  0.41245234  1
  O  O38  1  0.16643286  0.18634623  0.41138745  1
  O  O39  1  0.03043799  0.18960241  0.91074156  1
  O  O40  1  0.16643286  0.98008663  0.91138745  1
  O  O41  1  0.81952609  0.82963278  0.91245234  1
  O  O42  1  0.97169288  0.16056668  0.58850390  1
  O  O43  1  0.19198969  0.03517807  0.58924951  1
  O  O44  1  0.83606080  0.81503977  0.58858980  1
  O  O45  1  0.97169288  0.81112620  0.08850390  1
  O  O46  1  0.83606080  0.02102103  0.08858980  1
  O  O47  1  0.19198969  0.15681162  0.08924951  1
  O  O48  1  0.68519458  0.16623176  0.74414339  1
  O  O49  1  0.47621182  0.30156749  0.74463096  1
  O  O50  1  0.83719185  0.51352193  0.74580071  1
  O  O51  1  0.68519458  0.51896182  0.24414339  1
  O  O52  1  0.83719185  0.32366892  0.24580071  1
  O  O53  1  0.47621182  0.17464333  0.24463096  1
  O  O54  1  0.63704561  0.49343611  0.92222005  1
  O  O55  1  0.85895452  0.36899028  0.92214418  1
  O  O56  1  0.50210373  0.14930655  0.92177029  1
  O  O57  1  0.63704561  0.14360849  0.42222005  1
  O  O58  1  0.50210373  0.35279618  0.42177029  1
  O  O59  1  0.85895452  0.48996324  0.42214418  1
  O  O60  1  0.36381960  0.50735486  0.07855511  1
  O  O61  1  0.15335880  0.65732442  0.07884002  1
  O  O62  1  0.49946906  0.85305040  0.07723199  1
  O  O63  1  0.36381960  0.85646574  0.57855511  1
  O  O64  1  0.49946906  0.64641966  0.57723199  1
  O  O65  1  0.15335880  0.49603539  0.57884002  1
  O  O66  1  0.29852168  0.82383794  0.25582578  1
  O  O67  1  0.51799939  0.68740523  0.25546247  1
  O  O68  1  0.17346208  0.47736999  0.25490593  1
  O  O69  1  0.29852168  0.47468474  0.75582578  1
  O  O70  1  0.17346208  0.69609309  0.75490593  1
  O  O71  1  0.51799939  0.83059515  0.75546247  1
loop_
_geom_bond_atom_site_label_1
_geom_bond_atom_site_label_2
_geom_bond_distance
_geom_bond_site_symmetry_2
Na0 O36 2.468657 1_655
Na0 O37 2.501360 1_555
Na0 O44 2.534077 1_555
Na0 O38 2.604329 1_665
Na0 O43 2.630206 1_665
Na0 O42 2.672661 1_565
Na1 O39 2.468657 1_655
Na1 O41 2.501360 1_545
Na1 O46 2.534077 1_556
Na1 O40 2.604329 1_645
Na1 O47 2.630206 1_656
Na1 O45 2.672661 1_546
Na2 O50 2.495962 1_555
Na2 O49 2.520671 1_555
Na2 O48 2.542459 1_555
Na2 O56 2.602710 1_555
Na2 O54 2.607293 1_555
Na2 O55 2.613540 1_555
Na3 O52 2.495962 1_555
Na3 O53 2.520671 1_555
Na3 O51 2.542459 1_555
Na3 O58 2.602710 1_555
Na3 O57 2.607293 1_555
Na3 O59 2.613540 1_555
Na4 O61 2.494428 1_555
Na4 O60 2.513188 1_555
Na4 O62 2.551513 1_555
Na4 O68 2.593424 1_555
Na4 O67 2.606703 1_555
Na4 O66 2.621267 1_555
Na5 O65 2.494428 1_555
Na5 O63 2.513188 1_555
Na5 O64 2.551513 1_555
Na5 O70 2.593424 1_555
Na5 O71 2.606703 1_555
Na5 O69 2.621267 1_555
Na6 O53 2.379705 1_555
Na6 O68 2.443506 1_555
Na6 O51 2.495072 1_555
Na6 O67 2.536498 1_555
Na6 O17 2.648790 1_555
Na6 O32 2.751258 1_555
Na6 O0 2.899721 1_555
Na6 O10 2.927283 1_555
Na7 O52 2.416476 1_555
Na7 O66 2.430651 1_655
Na7 O51 2.454938 1_555
Na7 O15 2.593913 1_555
Na7 O68 2.628438 1_655
Na7 O30 2.743003 1_655
Na7 O1 2.802137 1_555
Na7 O11 2.936852 1_655
Na8 O50 2.416468 1_555
Na8 O69 2.430650 1_655
Na8 O48 2.454940 1_555
Na8 O12 2.593911 1_555
Na8 O70 2.628445 1_655
Na8 O33 2.743005 1_655
Na8 O5 2.802137 1_555
Na8 O7 2.936852 1_655
Na9 O49 2.379697 1_555
Na9 O70 2.443499 1_545
Na9 O48 2.495072 1_555
Na9 O71 2.536490 1_545
Na9 O13 2.648788 1_555
Na9 O34 2.751254 1_545
Na9 O3 2.899721 1_555
Na9 O8 2.927283 1_545
Na10 O65 2.409275 1_555
Na10 O43 2.423870 1_555
Na10 O64 2.447886 1_555
Na10 O42 2.610712 1_455
Na10 O28 2.650699 1_555
Na10 O7 2.773816 1_555
Na10 O14 2.807335 1_555
Na10 O21 2.949557 1_555
Na11 O63 2.388228 1_555
Na11 O42 2.450477 1_565
Na11 O64 2.517806 1_555
Na11 O44 2.548372 1_555
Na11 O27 2.575735 1_555
Na11 O6 2.725482 1_555
Na11 O13 2.905328 1_565
Na11 O23 2.930798 1_565
Na12 O61 2.409259 1_555
Na12 O47 2.423879 1_565
Na12 O62 2.447872 1_555
Na12 O45 2.610712 1_455
Na12 O26 2.650692 1_554
Na12 O11 2.773818 1_555
Na12 O16 2.807335 1_565
Na12 O18 2.949557 1_565
Na13 O60 2.388225 1_555
Na13 O45 2.450476 1_555
Na13 O62 2.517822 1_555
Na13 O46 2.548380 1_565
Na13 O24 2.575739 1_554
Na13 O9 2.725483 1_555
Na13 O17 2.905328 1_555
Na13 O19 2.930798 1_555
Na14 O41 2.410536 1_555
Na14 O55 2.424972 1_555
Na14 O40 2.445406 1_655
Na14 O4 2.561298 1_555
Na14 O54 2.622584 1_555
Na14 O19 2.799959 1_556
Na14 O26 2.886354 1_655
Na14 O33 2.955470 1_655
Na15 O39 2.387792 1_555
Na15 O54 2.444275 1_555
Na15 O40 2.508206 1_545
Na15 O56 2.531772 1_555
Na15 O3 2.653335 1_555
Na15 O18 2.765721 1_556
Na15 O25 2.834587 1_555
Na15 O35 2.923740 1_555
Na16 O37 2.410544 1_545
Na16 O59 2.424955 1_555
Na16 O38 2.445413 1_655
Na16 O2 2.561302 1_555
Na16 O57 2.622583 1_555
Na16 O23 2.799955 1_555
Na16 O28 2.886354 1_655
Na16 O30 2.955470 1_655
Na17 O36 2.387793 1_545
Na17 O57 2.444278 1_555
Na17 O38 2.508198 1_555
Na17 O58 2.531757 1_555
Na17 O0 2.653333 1_555
Na17 O21 2.765717 1_555
Na17 O29 2.834587 1_545
Na17 O31 2.923740 1_545
Nb0 O8 1.948819 1_655
Nb0 O6 1.980554 1_555
Nb0 O7 1.999315 1_665
Nb0 O44 2.030243 1_555
Nb0 O43 2.047730 1_665
Nb0 O42 2.077477 1_565
Nb1 O10 1.948819 1_655
Nb1 O9 1.980554 1_545
Nb1 O11 1.999315 1_645
Nb1 O46 2.030243 1_555
Nb1 O47 2.047730 1_655
Nb1 O45 2.077477 1_545
Nb2 O20 1.925378 1_556
Nb2 O19 2.001113 1_556
Nb2 O18 2.006861 1_556
Nb2 O56 2.027395 1_555
Nb2 O55 2.038886 1_555
Nb2 O54 2.091090 1_555
Nb3 O22 1.925378 1_555
Nb3 O23 2.001113 1_555
Nb3 O21 2.006861 1_555
Nb3 O58 2.027395 1_555
Nb3 O59 2.038886 1_555
Nb3 O57 2.091090 1_555
Nb4 O31 1.943663 1_555
Nb4 O32 1.983423 1_555
Nb4 O30 2.002812 1_555
Nb4 O67 2.026869 1_555
Nb4 O66 2.042993 1_555
Nb4 O68 2.087550 1_555
Nb5 O35 1.943663 1_555
Nb5 O34 1.983423 1_555
Nb5 O33 2.002812 1_555
Nb5 O71 2.026869 1_555
Nb5 O69 2.042993 1_555
Nb5 O70 2.087550 1_555
O0 Si0 1.632519 1_555
O0 Sn0 2.055747 1_445
O1 Si1 1.623033 1_555
O1 Sn0 2.004878 1_555
O2 Si2 1.622745 1_555
O2 Sn0 2.034109 1_545
O3 Si3 1.632519 1_555
O3 Sn1 2.055747 1_445
O4 Si4 1.622745 1_555
O4 Sn1 2.034109 1_555
O5 Si5 1.623033 1_545
O5 Sn1 2.004878 1_545
O6 Si5 1.656356 1_555
O7 Si3 1.665669 1_555
O8 Si4 1.665930 1_455
O9 Si1 1.656356 1_555
O10 Si2 1.665930 1_455
O11 Si0 1.665669 1_565
O12 Si6 1.622927 1_555
O12 Sn2 2.038601 1_555
O13 Si7 1.632188 1_555
O13 Sn2 2.049449 1_555
O14 Si8 1.623064 1_555
O14 Sn2 2.005123 1_555
O15 Si9 1.622927 1_555
O15 Sn3 2.038601 1_555
O16 Si10 1.623064 1_555
O16 Sn3 2.005123 1_555
O17 Si11 1.632188 1_555
O17 Sn3 2.049449 1_555
O18 Si11 1.665244 1_555
O19 Si9 1.661353 1_555
O20 Si10 1.659469 1_555
O21 Si7 1.665244 1_555
O22 Si8 1.659469 1_555
O23 Si6 1.661353 1_555
O24 Si12 1.622464 1_555
O24 Sn4 2.039641 1_556
O25 Si13 1.627341 1_555
O25 Sn4 2.001520 1_556
O26 Si14 1.631850 1_555
O26 Sn4 2.049144 1_556
O27 Si15 1.622464 1_555
O27 Sn5 2.039641 1_555
O28 Si16 1.631850 1_555
O28 Sn5 2.049144 1_555
O29 Si17 1.627341 1_555
O29 Sn5 2.001520 1_555
O30 Si17 1.665651 1_555
O31 Si15 1.667934 1_555
O32 Si16 1.653353 1_555
O33 Si13 1.665651 1_555
O34 Si14 1.653353 1_555
O35 Si12 1.667934 1_555
O36 Si17 1.624239 1_555
O36 Sn0 2.070143 1_455
O37 Si15 1.620713 1_555
O37 Sn0 2.079760 1_555
O38 Si16 1.636063 1_555
O38 Sn0 2.118873 1_445
O39 Si13 1.624248 1_555
O39 Sn1 2.070143 1_445
O40 Si14 1.636058 1_555
O40 Sn1 2.118873 1_455
O41 Si12 1.620710 1_555
O41 Sn1 2.079760 1_555
O42 Si6 1.667113 1_555
O43 Si7 1.648885 1_555
O44 Si8 1.639819 1_555
O45 Si9 1.667122 1_555
O46 Si10 1.639813 1_555
O47 Si11 1.648881 1_555
O48 Si5 1.635567 1_545
O48 Sn2 2.111170 1_555
O49 Si3 1.623675 1_555
O49 Sn2 2.080236 1_555
O50 Si4 1.622923 1_555
O50 Sn2 2.075882 1_555
O51 Si1 1.635576 1_555
O51 Sn3 2.111170 1_555
O52 Si2 1.622917 1_555
O52 Sn3 2.075882 1_555
O53 Si0 1.623671 1_555
O53 Sn3 2.080236 1_555
O54 Si12 1.659868 1_555
O55 Si13 1.647653 1_655
O56 Si14 1.648171 1_545
O57 Si15 1.659850 1_545
O58 Si16 1.648182 1_555
O59 Si17 1.647662 1_655
O60 Si11 1.624768 1_555
O60 Sn4 2.076564 1_555
O61 Si9 1.627372 1_455
O61 Sn4 2.082360 1_555
O62 Si10 1.631662 1_565
O62 Sn4 2.104500 1_555
O63 Si7 1.624750 1_565
O63 Sn5 2.076564 1_555
O64 Si8 1.631672 1_555
O64 Sn5 2.104501 1_555
O65 Si6 1.627378 1_455
O65 Sn5 2.082360 1_555
O66 Si0 1.648451 1_565
O67 Si1 1.647957 1_555
O68 Si2 1.660259 1_455
O69 Si3 1.648460 1_555
O70 Si4 1.660254 1_455
O71 Si5 1.647953 1_555
