# generated using pymatgen
data_MgCo4(OF)4
_symmetry_space_group_name_H-M   'P 1'
_cell_length_a   5.07428335
_cell_length_b   5.12772425
_cell_length_c   5.81365551
_cell_angle_alpha   90.96478383
_cell_angle_beta   90.25249076
_cell_angle_gamma   88.43260710
_symmetry_Int_Tables_number   1
_chemical_formula_structural   MgCo4(OF)4
_chemical_formula_sum   'Mg1 Co4 O4 F4'
_cell_volume   151.18934611
_cell_formula_units_Z   1
loop_
 _symmetry_equiv_pos_site_id
 _symmetry_equiv_pos_as_xyz
  1  'x, y, z'
loop_
 _atom_site_type_symbol
 _atom_site_label
 _atom_site_symmetry_multiplicity
 _atom_site_fract_x
 _atom_site_fract_y
 _atom_site_fract_z
 _atom_site_occupancy
  Mg  Mg0  1  0.01788400  0.50826600  0.24736800  1
  Co  Co0  1  0.91793500  0.95305400  0.97880900  1
  Co  Co1  1  0.04997200  0.04565700  0.51291500  1
  Co  Co2  1  0.53616300  0.41928200  0.23012300  1
  Co  Co3  1  0.47658800  0.55088100  0.73209000  1
  O  O0  1  0.19250000  0.84795900  0.73447000  1
  O  O1  1  0.30063000  0.34964300  0.46738900  1
  O  O2  1  0.71095100  0.62300200  0.01730600  1
  O  O3  1  0.82369100  0.17011600  0.25756300  1
  F  F0  1  0.20976000  0.83012500  0.23740500  1
  F  F1  1  0.25624800  0.36115700  0.99713600  1
  F  F2  1  0.75447900  0.65449600  0.48075900  1
  F  F3  1  0.76708900  0.18636100  0.73166700  1
loop_
_geom_bond_atom_site_label_1
_geom_bond_atom_site_label_2
_geom_bond_distance
_geom_bond_site_symmetry_2
Mg0 O3 2.019530 1_455
Mg0 O1 2.076349 1_555
Mg0 O2 2.125737 1_455
Co0 O3 2.002695 1_566
Co0 F3 2.019800 1_565
Co0 O2 2.032129 1_556
Co0 O0 2.049364 1_655
Co0 F0 2.193517 1_656
Co1 O0 1.790374 1_545
Co1 O3 1.976437 1_455
Co1 F3 2.031473 1_455
Co1 O1 2.059817 1_555
Co1 F0 2.084988 1_545
Co1 F2 2.540810 1_445
Co2 O2 1.874172 1_555
Co2 O1 1.874322 1_555
Co2 O3 1.920771 1_555
Co2 F1 1.983324 1_554
Co2 F2 2.191981 1_555
Co3 O1 2.053040 1_555
Co3 O0 2.068362 1_555
Co3 O2 2.070387 1_556
Co3 F2 2.119178 1_555
Co3 F1 2.167029 1_555
Co3 F3 2.348580 1_555
F0 Mg0 1.940817 1_555
F1 Mg0 2.019146 1_556
F2 Mg0 2.028957 1_655
