# generated using pymatgen
data_AlGeP(SO6)2
_symmetry_space_group_name_H-M   'P 1'
_cell_length_a   8.28282321
_cell_length_b   8.29965231
_cell_length_c   21.54223420
_cell_angle_alpha   89.79102181
_cell_angle_beta   90.00000000
_cell_angle_gamma   119.93294725
_symmetry_Int_Tables_number   1
_chemical_formula_structural   AlGeP(SO6)2
_chemical_formula_sum   'Al6 Ge6 P6 S12 O72'
_cell_volume   1283.36107153
_cell_formula_units_Z   6
loop_
 _symmetry_equiv_pos_site_id
 _symmetry_equiv_pos_as_xyz
  1  'x, y, z'
loop_
 _atom_site_type_symbol
 _atom_site_label
 _atom_site_symmetry_multiplicity
 _atom_site_fract_x
 _atom_site_fract_y
 _atom_site_fract_z
 _atom_site_occupancy
  Al  Al0  1  0.00015413  0.99912734  0.35548957  1
  Al  Al1  1  0.99897321  0.99912734  0.85548957  1
  Al  Al2  1  0.67923280  0.34130996  0.68910300  1
  Al  Al3  1  0.66207816  0.34130996  0.18910300  1
  Al  Al4  1  0.32869937  0.65383507  0.02205446  1
  Al  Al5  1  0.32513469  0.65383507  0.52205446  1
  Ge  Ge0  1  0.00130283  0.00074411  0.64626890  1
  Ge  Ge1  1  0.99944129  0.00074411  0.14626890  1
  Ge  Ge2  1  0.66490536  0.33169970  0.97983318  1
  Ge  Ge3  1  0.66679535  0.33169970  0.47983318  1
  Ge  Ge4  1  0.34413178  0.66134562  0.31299136  1
  Ge  Ge5  1  0.31721284  0.66134562  0.81299136  1
  P  P0  1  0.71649678  0.71329757  0.25115009  1
  P  P1  1  0.99680078  0.71329757  0.75115009  1
  P  P2  1  0.95525656  0.33334639  0.58427527  1
  P  P3  1  0.37809083  0.33334639  0.08427527  1
  P  P4  1  0.04187484  0.37292666  0.91830474  1
  P  P5  1  0.33105083  0.37292666  0.41830474  1
  S  S0  1  0.29116325  0.99952897  0.25125718  1
  S  S1  1  0.99672878  0.28951868  0.25064063  1
  S  S2  1  0.29278990  0.28951868  0.75064063  1
  S  S3  1  0.70836572  0.99952897  0.75125718  1
  S  S4  1  0.37908126  0.04214133  0.58466740  1
  S  S5  1  0.66475065  0.62220089  0.58424005  1
  S  S6  1  0.95745125  0.62220089  0.08424005  1
  S  S7  1  0.66306107  0.04214133  0.08466740  1
  S  S8  1  0.62155864  0.66861872  0.91700370  1
  S  S9  1  0.33203514  0.95420947  0.91812823  1
  S  S10  1  0.62217333  0.95420947  0.41812823  1
  S  S11  1  0.04705908  0.66861872  0.41700370  1
  O  O0  1  0.20774908  0.03524963  0.30561396  1
  O  O1  1  0.83713330  0.80493625  0.30769356  1
  O  O2  1  0.96506465  0.17309446  0.30556379  1
  O  O3  1  0.20802981  0.17309446  0.80556379  1
  O  O4  1  0.96780294  0.80493625  0.80769356  1
  O  O5  1  0.82750055  0.03524963  0.80561396  1
  O  O6  1  0.78467262  0.95849177  0.69409136  1
  O  O7  1  0.17294872  0.21568526  0.69387771  1
  O  O8  1  0.04130375  0.83780188  0.69127827  1
  O  O9  1  0.79649814  0.83780188  0.19127827  1
  O  O10  1  0.04273655  0.21568526  0.19387771  1
  O  O11  1  0.17381915  0.95849177  0.19409136  1
  O  O12  1  0.86401287  0.36402142  0.64022058  1
  O  O13  1  0.49369075  0.12779976  0.63942717  1
  O  O14  1  0.62834039  0.50361919  0.63877974  1
  O  O15  1  0.87527980  0.50361919  0.13877974  1
  O  O16  1  0.63411001  0.12779976  0.13942717  1
  O  O17  1  0.50000955  0.36402142  0.14022058  1
  O  O18  1  0.45982959  0.29039572  0.02458388  1
  O  O19  1  0.83936265  0.54710384  0.02723631  1
  O  O20  1  0.70825005  0.16107888  0.02724980  1
  O  O21  1  0.45282983  0.16107888  0.52724980  1
  O  O22  1  0.70774219  0.54710384  0.52723631  1
  O  O23  1  0.83056712  0.29039572  0.52458388  1
  O  O24  1  0.54011811  0.70358854  0.97188261  1
  O  O25  1  0.16522190  0.46561319  0.97365911  1
  O  O26  1  0.30164796  0.83866108  0.97292273  1
  O  O27  1  0.53701212  0.83866108  0.47292273  1
  O  O28  1  0.30039029  0.46561319  0.47365911  1
  O  O29  1  0.16346944  0.70358854  0.47188261  1
  O  O30  1  0.12404067  0.62846500  0.35970243  1
  O  O31  1  0.50368777  0.88103514  0.36075503  1
  O  O32  1  0.37656796  0.49811300  0.35889020  1
  O  O33  1  0.12154404  0.49811300  0.85889020  1
  O  O34  1  0.37734637  0.88103514  0.86075503  1
  O  O35  1  0.50442333  0.62846500  0.85970243  1
  O  O36  1  0.02706815  0.83238046  0.40839962  1
  O  O37  1  0.80511180  0.97260694  0.40880111  1
  O  O38  1  0.16174695  0.18493800  0.40572801  1
  O  O39  1  0.02319105  0.18493800  0.90572801  1
  O  O40  1  0.16749514  0.97260694  0.90880111  1
  O  O41  1  0.80531231  0.83238046  0.90839962  1
  O  O42  1  0.97499283  0.15739030  0.59285947  1
  O  O43  1  0.19196317  0.02539306  0.59032701  1
  O  O44  1  0.83430748  0.80797240  0.59075538  1
  O  O45  1  0.97366492  0.80797240  0.09075538  1
  O  O46  1  0.83342989  0.02539306  0.09032701  1
  O  O47  1  0.18239747  0.15739030  0.09285947  1
  O  O48  1  0.68772827  0.16207762  0.74184620  1
  O  O49  1  0.47361110  0.30506764  0.74045042  1
  O  O50  1  0.82819298  0.52434832  0.74104141  1
  O  O51  1  0.69615634  0.52434832  0.24104141  1
  O  O52  1  0.83145754  0.30506764  0.24045042  1
  O  O53  1  0.47435035  0.16207762  0.24184620  1
  O  O54  1  0.63995515  0.50006741  0.92374660  1
  O  O55  1  0.84742861  0.35642428  0.92671624  1
  O  O56  1  0.50087143  0.14108065  0.92359780  1
  O  O57  1  0.64021023  0.14108065  0.42359780  1
  O  O58  1  0.50899667  0.35642428  0.42671624  1
  O  O59  1  0.86011326  0.50006741  0.42374660  1
  O  O60  1  0.36051241  0.50385392  0.07405345  1
  O  O61  1  0.14157009  0.64424992  0.07499567  1
  O  O62  1  0.49882536  0.86088019  0.07430689  1
  O  O63  1  0.36205383  0.86088019  0.57430689  1
  O  O64  1  0.50267883  0.64424992  0.57499567  1
  O  O65  1  0.14334051  0.50385392  0.57405345  1
  O  O66  1  0.30587023  0.82922202  0.25891358  1
  O  O67  1  0.52136522  0.69629404  0.25718095  1
  O  O68  1  0.16434762  0.47714834  0.25744418  1
  O  O69  1  0.31279973  0.47714834  0.75744418  1
  O  O70  1  0.17492782  0.69629404  0.75718095  1
  O  O71  1  0.52335079  0.82922202  0.75891358  1
loop_
_geom_bond_atom_site_label_1
_geom_bond_atom_site_label_2
_geom_bond_distance
_geom_bond_site_symmetry_2
Al0 O38 1.814724 1_565
Al0 O1 1.822437 1_455
Al0 O36 1.886933 1_555
Al0 O37 1.902766 1_455
Al0 O0 1.919392 1_565
Al0 O2 1.932205 1_465
Al1 O39 1.814724 1_665
Al1 O4 1.822437 1_555
Al1 O41 1.886933 1_555
Al1 O40 1.902766 1_655
Al1 O5 1.919392 1_565
Al1 O3 1.932205 1_665
Al2 O12 1.788153 1_555
Al2 O50 1.795505 1_555
Al2 O48 1.897604 1_555
Al2 O49 1.923793 1_555
Al2 O14 1.929679 1_555
Al2 O13 1.985748 1_555
Al3 O17 1.788153 1_555
Al3 O51 1.795505 1_555
Al3 O53 1.897604 1_555
Al3 O52 1.923793 1_555
Al3 O15 1.929679 1_555
Al3 O16 1.985748 1_555
Al4 O60 1.786308 1_555
Al4 O25 1.806005 1_554
Al4 O61 1.893584 1_555
Al4 O24 1.918405 1_554
Al4 O62 1.950171 1_555
Al4 O26 1.963346 1_554
Al5 O65 1.786308 1_555
Al5 O28 1.806005 1_555
Al5 O64 1.893584 1_555
Al5 O29 1.918405 1_555
Al5 O63 1.950171 1_555
Al5 O27 1.963346 1_555
Ge0 O8 1.821094 1_545
Ge0 O42 1.825758 1_455
Ge0 O43 1.914113 1_555
Ge0 O44 1.925769 1_445
Ge0 O7 1.933338 1_555
Ge0 O6 1.942486 1_445
Ge1 O9 1.821094 1_545
Ge1 O47 1.825758 1_655
Ge1 O46 1.914113 1_555
Ge1 O45 1.925769 1_545
Ge1 O10 1.933338 1_655
Ge1 O11 1.942486 1_645
Ge2 O55 1.823645 1_555
Ge2 O18 1.829920 1_556
Ge2 O20 1.916876 1_556
Ge2 O56 1.919722 1_555
Ge2 O54 1.931610 1_555
Ge2 O19 1.939634 1_556
Ge3 O58 1.823645 1_555
Ge3 O23 1.829920 1_555
Ge3 O21 1.916876 1_555
Ge3 O57 1.919722 1_555
Ge3 O59 1.931610 1_555
Ge3 O22 1.939634 1_555
Ge4 O32 1.799643 1_555
Ge4 O67 1.804753 1_555
Ge4 O68 1.930787 1_555
Ge4 O31 1.933583 1_555
Ge4 O66 1.956454 1_555
Ge4 O30 1.977826 1_555
Ge5 O33 1.799643 1_555
Ge5 O70 1.804753 1_555
Ge5 O69 1.930787 1_555
Ge5 O34 1.933583 1_555
Ge5 O71 1.956454 1_555
Ge5 O35 1.977826 1_555
O0 S0 1.464020 1_545
O1 P0 1.519513 1_555
O2 S1 1.463256 1_555
O3 S2 1.463256 1_555
O4 P1 1.519513 1_555
O5 S3 1.464020 1_545
O6 S3 1.499969 1_555
O7 S2 1.501494 1_555
O8 P1 1.573955 1_455
O9 P0 1.573955 1_555
O10 S1 1.501494 1_455
O11 S0 1.499969 1_555
O12 P2 1.510866 1_555
O13 S4 1.459710 1_555
O14 S5 1.461279 1_555
O15 S6 1.461279 1_555
O16 S7 1.459710 1_555
O17 P3 1.510866 1_555
O18 P3 1.575799 1_555
O19 S6 1.500103 1_555
O20 S7 1.505601 1_555
O21 S4 1.505601 1_555
O22 S5 1.500103 1_555
O23 P2 1.575799 1_555
O24 S8 1.461090 1_555
O25 P4 1.509924 1_555
O26 S9 1.458507 1_555
O27 S10 1.458507 1_555
O28 P5 1.509924 1_555
O29 S11 1.461090 1_555
O30 S11 1.502142 1_555
O31 S10 1.506719 1_555
O32 P5 1.568197 1_555
O33 P4 1.568197 1_555
O34 S9 1.506719 1_555
O35 S8 1.502142 1_555
O36 S11 1.460090 1_555
O37 S10 1.458951 1_555
O38 P5 1.514533 1_555
O39 P4 1.514537 1_555
O40 S9 1.458943 1_555
O41 S8 1.460094 1_555
O42 P2 1.558810 1_555
O43 S4 1.490351 1_555
O44 S5 1.486583 1_555
O45 S6 1.486586 1_555
O46 S7 1.490343 1_555
O47 P3 1.558815 1_555
O48 S3 1.455517 1_545
O49 S2 1.454264 1_555
O50 P1 1.507948 1_555
O51 P0 1.507951 1_555
O52 S1 1.454256 1_555
O53 S0 1.455522 1_545
O54 S8 1.487459 1_555
O55 P4 1.557301 1_655
O56 S9 1.487216 1_545
O57 S10 1.487209 1_545
O58 P5 1.557317 1_555
O59 S11 1.487449 1_655
O60 P3 1.508542 1_555
O61 S6 1.456045 1_455
O62 S7 1.457279 1_565
O63 S4 1.457272 1_565
O64 S5 1.456061 1_555
O65 P2 1.508533 1_455
O66 S0 1.486650 1_555
O67 P0 1.556042 1_555
O68 S1 1.489326 1_455
O69 S2 1.489330 1_555
O70 P1 1.556034 1_455
O71 S3 1.486654 1_555
