# generated using pymatgen
data_MgHg2(SbO3)4
_symmetry_space_group_name_H-M   'P 1'
_cell_length_a   5.04243298
_cell_length_b   5.04243085
_cell_length_c   10.25007513
_cell_angle_alpha   89.99999718
_cell_angle_beta   89.99993199
_cell_angle_gamma   93.03151693
_symmetry_Int_Tables_number   1
_chemical_formula_structural   MgHg2(SbO3)4
_chemical_formula_sum   'Mg1 Hg2 Sb4 O12'
_cell_volume   260.25492390
_cell_formula_units_Z   1
loop_
 _symmetry_equiv_pos_site_id
 _symmetry_equiv_pos_as_xyz
  1  'x, y, z'
loop_
 _atom_site_type_symbol
 _atom_site_label
 _atom_site_symmetry_multiplicity
 _atom_site_fract_x
 _atom_site_fract_y
 _atom_site_fract_z
 _atom_site_occupancy
  Mg  Mg0  1  0.23502874  0.76497126  1.00000000  1
  Hg  Hg0  1  0.86550188  0.13449712  1.00000000  1
  Hg  Hg1  1  0.52623524  0.47376476  0.50000000  1
  Sb  Sb0  1  0.02040376  0.97959625  0.34065799  1
  Sb  Sb1  1  0.02040375  0.97959625  0.65934201  1
  Sb  Sb2  1  0.51485781  0.48514119  0.19019045  1
  Sb  Sb3  1  0.51485880  0.48514220  0.80980855  1
  O  O0  1  0.19143043  0.80857057  0.50000000  1
  O  O1  1  0.21521952  0.78478248  0.80643957  1
  O  O2  1  0.21521852  0.78478148  0.19356043  1
  O  O3  1  0.30047501  0.27909353  0.32629916  1
  O  O4  1  0.30047201  0.27909253  0.67370084  1
  O  O5  1  0.30921276  0.33866099  1.00000000  1
  O  O6  1  0.66133801  0.69078724  0.00000000  1
  O  O7  1  0.72090847  0.69952499  0.32629916  1
  O  O8  1  0.72090747  0.69952699  0.67370184  1
  O  O9  1  0.80255435  0.19744365  0.20796077  1
  O  O10  1  0.80255235  0.19744765  0.79203923  1
  O  O11  1  0.84992013  0.15007887  0.50000000  1
loop_
_geom_bond_atom_site_label_1
_geom_bond_atom_site_label_2
_geom_bond_distance
_geom_bond_site_symmetry_2
Mg0 O2 1.989297 1_556
Mg0 O1 1.989297 1_555
Mg0 O6 2.201343 1_556
Mg0 O5 2.201347 1_555
Hg0 O9 2.180808 1_556
Hg0 O10 2.180813 1_555
Hg0 O6 2.412895 1_546
Hg0 O5 2.412900 1_655
Hg0 Mg0 2.703902 1_645
Hg1 O3 2.304622 1_555
Hg1 O7 2.304624 1_555
Hg1 O4 2.304629 1_555
Hg1 O8 2.304637 1_555
Hg1 O11 2.368474 1_555
Hg1 O0 2.449841 1_555
O0 Sb1 2.057583 1_555
O0 Sb0 2.057585 1_555
O1 Sb1 2.074946 1_555
O1 Sb3 2.192799 1_555
O2 Sb0 2.074944 1_555
O2 Sb2 2.192800 1_555
O3 Sb0 2.017719 1_545
O3 Sb2 2.018821 1_555
O4 Sb1 2.017705 1_545
O4 Sb3 2.018831 1_555
O5 Sb2 2.310895 1_556
O5 Sb3 2.310905 1_555
O6 Sb2 2.310895 1_555
O6 Sb3 2.310902 1_554
O7 Sb0 2.017712 1_655
O7 Sb2 2.018833 1_555
O8 Sb1 2.017709 1_655
O8 Sb3 2.018815 1_555
O9 Sb0 2.095472 1_645
O9 Sb2 2.113005 1_555
O10 Sb1 2.095487 1_645
O10 Sb3 2.112982 1_555
O11 Sb0 2.055169 1_645
O11 Sb1 2.055170 1_645
