# generated using pymatgen
data_Nb5Sb4
_symmetry_space_group_name_H-M   'P 1'
_cell_length_a   3.58451998
_cell_length_b   7.57746548
_cell_length_c   7.57786472
_cell_angle_alpha   86.94301672
_cell_angle_beta   76.33546890
_cell_angle_gamma   76.33839818
_symmetry_Int_Tables_number   1
_chemical_formula_structural   Nb5Sb4
_chemical_formula_sum   'Nb5 Sb4'
_cell_volume   194.34177364
_cell_formula_units_Z   1
loop_
 _symmetry_equiv_pos_site_id
 _symmetry_equiv_pos_as_xyz
  1  'x, y, z'
loop_
 _atom_site_type_symbol
 _atom_site_label
 _atom_site_symmetry_multiplicity
 _atom_site_fract_x
 _atom_site_fract_y
 _atom_site_fract_z
 _atom_site_occupancy
  Nb  Nb0  1  0.00000000  -0.00000000  -0.00000000  1
  Nb  Nb1  1  0.31199670  0.06248937  0.31562907  1
  Nb  Nb2  1  0.62735081  0.68326757  0.06155520  1
  Nb  Nb3  1  0.37264919  0.31673243  0.93844480  1
  Nb  Nb4  1  0.68800330  0.93751063  0.68437093  1
  Sb  Sb0  1  0.05397406  0.23681441  0.65507615  1
  Sb  Sb1  1  0.70874639  0.34589448  0.23792418  1
  Sb  Sb2  1  0.29125361  0.65410552  0.76207582  1
  Sb  Sb3  1  0.94602594  0.76318559  0.34492385  1
loop_
_geom_bond_atom_site_label_1
_geom_bond_atom_site_label_2
_geom_bond_distance
_geom_bond_site_symmetry_2
Nb0 Nb4 2.968015 1_544
Nb0 Nb1 2.968015 1_455
Nb0 Nb1 2.971594 1_555
Nb0 Nb4 2.971594 1_444
Nb0 Nb2 2.976804 1_545
Nb0 Nb3 2.976804 1_454
Nb0 Nb2 2.977009 1_445
Nb0 Nb3 2.977009 1_554
Nb0 Sb0 3.084507 1_554
Nb0 Sb3 3.084507 1_445
Nb0 Sb2 3.087454 1_544
Nb0 Sb1 3.087454 1_455
Nb1 Sb0 2.806813 1_555
Nb1 Sb1 2.809469 1_555
Nb1 Sb1 2.812017 1_455
Nb1 Sb3 2.847445 1_545
Nb1 Sb3 2.850955 1_445
Nb2 Sb1 2.806100 1_555
Nb2 Sb3 2.811495 1_455
Nb2 Sb3 2.811934 1_555
Nb2 Sb2 2.848822 1_654
Nb2 Sb2 2.849825 1_554
Nb3 Sb2 2.806100 1_555
Nb3 Sb0 2.811495 1_655
Nb3 Sb0 2.811934 1_555
Nb3 Sb1 2.848822 1_456
Nb3 Sb1 2.849825 1_556
Nb4 Sb3 2.806813 1_555
Nb4 Sb2 2.809469 1_555
Nb4 Sb2 2.812017 1_655
Nb4 Sb0 2.847445 1_565
Nb4 Sb0 2.850955 1_665
