# generated using pymatgen
data_MgCo2(NiO2)4
_symmetry_space_group_name_H-M   'P 1'
_cell_length_a   5.85642700
_cell_length_b   5.84042777
_cell_length_c   6.16602412
_cell_angle_alpha   61.69242017
_cell_angle_beta   61.58905859
_cell_angle_gamma   59.99061501
_symmetry_Int_Tables_number   1
_chemical_formula_structural   MgCo2(NiO2)4
_chemical_formula_sum   'Mg1 Co2 Ni4 O8'
_cell_volume   152.71130512
_cell_formula_units_Z   1
loop_
 _symmetry_equiv_pos_site_id
 _symmetry_equiv_pos_as_xyz
  1  'x, y, z'
loop_
 _atom_site_type_symbol
 _atom_site_label
 _atom_site_symmetry_multiplicity
 _atom_site_fract_x
 _atom_site_fract_y
 _atom_site_fract_z
 _atom_site_occupancy
  Mg  Mg0  1  0.02065900  0.99607100  0.50000900  1
  Co  Co0  1  0.12440200  0.16367500  0.03736000  1
  Co  Co1  1  0.81966200  0.84613800  0.96311800  1
  Ni  Ni0  1  0.50226400  0.99831400  0.50101300  1
  Ni  Ni1  1  0.48810200  0.50184400  0.99992700  1
  Ni  Ni2  1  0.00866700  0.49819800  0.49590900  1
  Ni  Ni3  1  0.50348300  0.50004400  0.50362500  1
  O  O0  1  0.75690300  0.24620800  0.25275100  1
  O  O1  1  0.25096900  0.24493000  0.24791100  1
  O  O2  1  0.75802800  0.24405300  0.74764600  1
  O  O3  1  0.73969400  0.73108200  0.30430100  1
  O  O4  1  0.27521400  0.26643000  0.69569200  1
  O  O5  1  0.25118600  0.75642700  0.25033000  1
  O  O6  1  0.24412500  0.75306300  0.75277000  1
  O  O7  1  0.75664500  0.75352400  0.74763600  1
loop_
_geom_bond_atom_site_label_1
_geom_bond_atom_site_label_2
_geom_bond_distance
_geom_bond_site_symmetry_2
Mg0 O6 2.034991 1_555
Mg0 O1 2.042336 1_565
Mg0 O5 2.080242 1_555
Mg0 O2 2.104554 1_465
Mg0 O7 2.149824 1_455
Mg0 O0 2.171632 1_465
Co0 O4 1.771736 1_554
Co0 O0 1.864870 1_455
Co0 O5 2.032744 1_545
Co0 O1 2.076541 1_555
Co1 O3 1.770067 1_556
Co1 O7 1.882029 1_555
Co1 O2 1.996323 1_565
Co1 O6 2.099062 1_655
Ni0 O4 1.960153 1_565
Ni0 O3 1.964761 1_555
Ni0 O7 2.130544 1_555
Ni0 O0 2.132792 1_565
Ni0 O6 2.137980 1_555
Ni0 O1 2.146948 1_565
Ni1 O6 2.090748 1_555
Ni1 O1 2.099018 1_556
Ni1 O5 2.143584 1_556
Ni1 O2 2.164742 1_555
Ni1 O7 2.206732 1_555
Ni1 O0 2.216827 1_556
Ni2 O3 1.957276 1_455
Ni2 O4 1.980235 1_555
Ni2 O5 2.124837 1_555
Ni2 O1 2.126204 1_555
Ni2 O2 2.143197 1_455
Ni2 O7 2.150568 1_455
Ni3 O4 1.958764 1_555
Ni3 O3 1.980255 1_555
Ni3 O2 2.119666 1_555
Ni3 O6 2.130313 1_555
Ni3 O0 2.140756 1_555
Ni3 O5 2.151625 1_555
