# generated using pymatgen
data_Na6CaSi6Ge7(SO8)6
_symmetry_space_group_name_H-M   'P 1'
_cell_length_a   17.30505638
_cell_length_b   8.59583269
_cell_length_c   22.12469709
_cell_angle_alpha   89.76929631
_cell_angle_beta   90.48874977
_cell_angle_gamma   119.83273024
_symmetry_Int_Tables_number   1
_chemical_formula_structural   Na6CaSi6Ge7(SO8)6
_chemical_formula_sum   'Na18 Ca3 Si18 Ge21 S18 O144'
_cell_volume   2854.84589813
_cell_formula_units_Z   3
loop_
 _symmetry_equiv_pos_site_id
 _symmetry_equiv_pos_as_xyz
  1  'x, y, z'
loop_
 _atom_site_type_symbol
 _atom_site_label
 _atom_site_symmetry_multiplicity
 _atom_site_fract_x
 _atom_site_fract_y
 _atom_site_fract_z
 _atom_site_occupancy
  Na  Na0  1  0.68843022  0.38007776  0.25238489  1
  Na  Na1  1  0.99759376  0.64703815  0.25371229  1
  Na  Na2  1  0.99639413  0.36294814  0.75349390  1
  Na  Na3  1  0.49390751  0.36112561  0.75107192  1
  Na  Na4  1  0.19270218  0.01297898  0.75575093  1
  Na  Na5  1  0.68916797  0.01000828  0.75081676  1
  Na  Na6  1  0.99770186  0.99848784  0.49451642  1
  Na  Na7  1  0.50530072  0.00217208  0.49850567  1
  Na  Na8  1  0.00740643  0.01181209  0.99988010  1
  Na  Na9  1  0.50041161  0.99282855  0.99850812  1
  Na  Na10  1  0.33233785  0.33865567  0.83046253  1
  Na  Na11  1  0.82874302  0.33023306  0.83256837  1
  Na  Na12  1  0.33360597  0.33268527  0.33093893  1
  Na  Na13  1  0.83405829  0.33399287  0.33594116  1
  Na  Na14  1  0.17273008  0.66972174  0.16560390  1
  Na  Na15  1  0.66299819  0.66832753  0.16889153  1
  Na  Na16  1  0.17667278  0.66639965  0.66749724  1
  Na  Na17  1  0.67151535  0.66536172  0.66519670  1
  Ca  Ca0  1  0.33307031  0.33799400  0.68440671  1
  Ca  Ca1  1  0.83046544  0.33116522  0.68273745  1
  Ca  Ca2  1  0.83272248  0.33101129  0.18384863  1
  Si  Si0  1  0.14932781  0.00566541  0.25381541  1
  Si  Si1  1  0.85746687  0.73346759  0.25218701  1
  Si  Si2  1  0.49674972  0.28182909  0.24960465  1
  Si  Si3  1  0.14222472  0.29254706  0.75283079  1
  Si  Si4  1  0.64465012  0.29618694  0.75530478  1
  Si  Si5  1  0.50051878  0.71567791  0.75332084  1
  Si  Si6  1  0.35609733  0.98227044  0.75627154  1
  Si  Si7  1  0.86021512  0.98877837  0.75541312  1
  Si  Si8  1  0.47197764  0.61485635  0.08458162  1
  Si  Si9  1  0.18659053  0.33519368  0.08690978  1
  Si  Si10  1  0.02264831  0.38225845  0.91636390  1
  Si  Si11  1  0.16873228  0.95423406  0.91813696  1
  Si  Si12  1  0.66234833  0.95318055  0.91558417  1
  Si  Si13  1  0.81159769  0.94877529  0.41360876  1
  Si  Si14  1  0.16646850  0.37926430  0.41458604  1
  Si  Si15  1  0.66460744  0.37852491  0.41689645  1
  Si  Si16  1  0.02259209  0.66548371  0.41770345  1
  Si  Si17  1  0.52397193  0.67017403  0.41256545  1
  Ge  Ge0  1  0.00467650  0.99210246  0.35987124  1
  Ge  Ge1  1  0.50339507  0.01222994  0.35735998  1
  Ge  Ge2  1  0.01218931  0.02918600  0.85932582  1
  Ge  Ge3  1  0.50699539  0.99718452  0.85013723  1
  Ge  Ge4  1  0.99460009  0.00892558  0.65175796  1
  Ge  Ge5  1  0.50061980  0.00662048  0.66000273  1
  Ge  Ge6  1  0.00989896  0.99842297  0.15344726  1
  Ge  Ge7  1  0.49502715  0.99078417  0.14832097  1
  Ge  Ge8  1  0.33326647  0.33413930  0.18764509  1
  Ge  Ge9  1  0.31984860  0.32903366  0.98525700  1
  Ge  Ge10  1  0.83351823  0.32118443  0.97280472  1
  Ge  Ge11  1  0.33740170  0.35577734  0.47397491  1
  Ge  Ge12  1  0.83112760  0.32761103  0.46855276  1
  Ge  Ge13  1  0.16092301  0.64986315  0.01633728  1
  Ge  Ge14  1  0.65232164  0.66744432  0.01878138  1
  Ge  Ge15  1  0.16161590  0.65617806  0.51243595  1
  Ge  Ge16  1  0.66692374  0.67429491  0.50599492  1
  Ge  Ge17  1  0.16102483  0.66281588  0.31795452  1
  Ge  Ge18  1  0.66755801  0.65833972  0.31633495  1
  Ge  Ge19  1  0.17054875  0.66747767  0.81659559  1
  Ge  Ge20  1  0.67108177  0.68268299  0.80830294  1
  S  S0  1  0.63714153  0.98628110  0.25137195  1
  S  S1  1  0.35522998  0.71308642  0.25154170  1
  S  S2  1  0.00670607  0.28962733  0.25297938  1
  S  S3  1  0.00251828  0.72463682  0.75222555  1
  S  S4  1  0.48541416  0.33613907  0.57971990  1
  S  S5  1  0.98600485  0.33530927  0.58144077  1
  S  S6  1  0.18184812  0.02641986  0.58006150  1
  S  S7  1  0.68067752  0.02599531  0.57993997  1
  S  S8  1  0.33227887  0.64074264  0.57881259  1
  S  S9  1  0.83333536  0.63995294  0.58018741  1
  S  S10  1  0.98271059  0.63135989  0.07964846  1
  S  S11  1  0.33295825  0.04267909  0.08340563  1
  S  S12  1  0.83147586  0.02703126  0.07825967  1
  S  S13  1  0.68300089  0.33639672  0.07808159  1
  S  S14  1  0.31198977  0.66649528  0.91885555  1
  S  S15  1  0.80804286  0.66469962  0.91927633  1
  S  S16  1  0.52015450  0.37742632  0.91730826  1
  S  S17  1  0.31055154  0.95683510  0.41784389  1
  O  O0  1  0.10380658  0.03842014  0.31166409  1
  O  O1  1  0.59582343  0.02002307  0.30469329  1
  O  O2  1  0.41055238  0.79399726  0.30580320  1
  O  O3  1  0.92733199  0.82262336  0.30770986  1
  O  O4  1  0.47923191  0.15048146  0.30871458  1
  O  O5  1  0.99473820  0.18425406  0.30681998  1
  O  O6  1  0.10011952  0.16044709  0.81053410  1
  O  O7  1  0.60077251  0.16519292  0.81264063  1
  O  O8  1  0.48331176  0.79887913  0.81312414  1
  O  O9  1  0.99025982  0.80262396  0.80663058  1
  O  O10  1  0.42201092  0.02878761  0.81500270  1
  O  O11  1  0.92316103  0.01622953  0.81334233  1
  O  O12  1  0.39607982  0.94954353  0.69167992  1
  O  O13  1  0.89561265  0.95435372  0.68970800  1
  O  O14  1  0.07759844  0.20591299  0.69031241  1
  O  O15  1  0.58067244  0.21711946  0.69237140  1
  O  O16  1  0.01768195  0.83277549  0.69426477  1
  O  O17  1  0.52549780  0.84533735  0.69126969  1
  O  O18  1  0.39409923  0.82176637  0.19460334  1
  O  O19  1  0.90415333  0.84821282  0.18733034  1
  O  O20  1  0.01806743  0.21318623  0.19532310  1
  O  O21  1  0.52047984  0.18953176  0.18978166  1
  O  O22  1  0.08269734  0.94119941  0.19328073  1
  O  O23  1  0.58623013  0.96449740  0.19339265  1
  O  O24  1  0.45218628  0.36430587  0.63657333  1
  O  O25  1  0.95532616  0.36459516  0.63930905  1
  O  O26  1  0.22869964  0.08879186  0.63774547  1
  O  O27  1  0.72741688  0.08722656  0.63817798  1
  O  O28  1  0.31273170  0.53846195  0.63394010  1
  O  O29  1  0.82046141  0.54583117  0.63738339  1
  O  O30  1  0.43036726  0.49320827  0.14430352  1
  O  O31  1  0.95111092  0.53541138  0.13705359  1
  O  O32  1  0.31725261  0.11880397  0.13856846  1
  O  O33  1  0.81284851  0.09292319  0.13381078  1
  O  O34  1  0.25247525  0.37173198  0.14432492  1
  O  O35  1  0.72939181  0.36840228  0.13645717  1
  O  O36  1  0.22295122  0.28677576  0.02556593  1
  O  O37  1  0.73068174  0.30673261  0.02753843  1
  O  O38  1  0.41101030  0.52579298  0.02302491  1
  O  O39  1  0.92192458  0.53636880  0.02754210  1
  O  O40  1  0.35113303  0.15629949  0.02857245  1
  O  O41  1  0.84546623  0.15062994  0.02518338  1
  O  O42  1  0.22763990  0.14838384  0.52796168  1
  O  O43  1  0.72877421  0.15087247  0.52899708  1
  O  O44  1  0.34696420  0.54846424  0.52546298  1
  O  O45  1  0.84817688  0.55000421  0.52791389  1
  O  O46  1  0.42204695  0.30370190  0.52705150  1
  O  O47  1  0.92696251  0.31000115  0.52969736  1
  O  O48  1  0.27072119  0.69295145  0.97366970  1
  O  O49  1  0.76544410  0.69168712  0.97310989  1
  O  O50  1  0.08369131  0.45902416  0.97638035  1
  O  O51  1  0.57966996  0.45823817  0.97283008  1
  O  O52  1  0.15554791  0.82870616  0.97733994  1
  O  O53  1  0.64647473  0.83224420  0.97573660  1
  O  O54  1  0.27130352  0.84487965  0.47250916  1
  O  O55  1  0.77066935  0.83184537  0.47535535  1
  O  O56  1  0.15239050  0.46707400  0.47582566  1
  O  O57  1  0.64529756  0.46427142  0.47584300  1
  O  O58  1  0.08746059  0.70705877  0.47597680  1
  O  O59  1  0.58237840  0.71331298  0.47471257  1
  O  O60  1  0.06090543  0.62217796  0.35585701  1
  O  O61  1  0.56633978  0.62670013  0.35475860  1
  O  O62  1  0.25566150  0.88324819  0.36221754  1
  O  O63  1  0.74423662  0.86539987  0.35591987  1
  O  O64  1  0.19179086  0.51760414  0.35641139  1
  O  O65  1  0.68652716  0.49060476  0.35398102  1
  O  O66  1  0.06602692  0.50351321  0.85546671  1
  O  O67  1  0.56182219  0.48730088  0.86254623  1
  O  O68  1  0.18633452  0.87087210  0.85592529  1
  O  O69  1  0.68492509  0.86879027  0.85644264  1
  O  O70  1  0.25633841  0.63093768  0.86308620  1
  O  O71  1  0.75333357  0.62805802  0.86322202  1
  O  O72  1  0.01494851  0.84310901  0.41335607  1
  O  O73  1  0.50387705  0.83803329  0.40407998  1
  O  O74  1  0.39891697  0.97060842  0.41233175  1
  O  O75  1  0.91093910  0.97952495  0.40652574  1
  O  O76  1  0.07806954  0.18788680  0.40804913  1
  O  O77  1  0.57615943  0.17888386  0.41085468  1
  O  O78  1  0.00810938  0.17979960  0.91379296  1
  O  O79  1  0.51166276  0.19782640  0.91488378  1
  O  O80  1  0.07587503  0.96505520  0.91148701  1
  O  O81  1  0.57331803  0.97469205  0.91198255  1
  O  O82  1  0.39952047  0.82830699  0.91456334  1
  O  O83  1  0.89802466  0.81945200  0.91449628  1
  O  O84  1  0.49175981  0.16773533  0.58270448  1
  O  O85  1  0.99319160  0.16648657  0.58366688  1
  O  O86  1  0.09080863  0.00667578  0.58371036  1
  O  O87  1  0.59162150  0.01425306  0.58315326  1
  O  O88  1  0.41442655  0.81754998  0.58207448  1
  O  O89  1  0.91916563  0.82258559  0.58415591  1
  O  O90  1  0.48730071  0.82448872  0.09394127  1
  O  O91  1  0.98887877  0.81035268  0.08247592  1
  O  O92  1  0.41519358  0.02464919  0.08940959  1
  O  O93  1  0.91295414  0.01572729  0.08148927  1
  O  O94  1  0.08451739  0.15739541  0.09709278  1
  O  O95  1  0.59325267  0.17267546  0.08115285  1
  O  O96  1  0.34460732  0.15412492  0.75058198  1
  O  O97  1  0.85094476  0.16563284  0.75274332  1
  O  O98  1  0.23604598  0.30777764  0.74922918  1
  O  O99  1  0.73912293  0.31137780  0.75107800  1
  O  O100  1  0.42202267  0.51716966  0.75107689  1
  O  O101  1  0.92661373  0.54247028  0.74679206  1
  O  O102  1  0.34817159  0.53479142  0.24596784  1
  O  O103  1  0.84419528  0.53164019  0.24974207  1
  O  O104  1  0.40893970  0.30199024  0.24097093  1
  O  O105  1  0.92997225  0.31985812  0.24891886  1
  O  O106  1  0.24535653  0.18081341  0.24100472  1
  O  O107  1  0.72554128  0.14880688  0.24852925  1
  O  O108  1  0.32019274  0.50138993  0.92315989  1
  O  O109  1  0.81593062  0.49706426  0.92604052  1
  O  O110  1  0.43313076  0.36652067  0.92453529  1
  O  O111  1  0.92457659  0.36924767  0.92383011  1
  O  O112  1  0.25951793  0.15783198  0.92659194  1
  O  O113  1  0.75138043  0.15332038  0.92440945  1
  O  O114  1  0.32035502  0.13775114  0.42537464  1
  O  O115  1  0.81931308  0.14620237  0.42446106  1
  O  O116  1  0.25451593  0.35268953  0.42447734  1
  O  O117  1  0.75243512  0.35664812  0.42603423  1
  O  O118  1  0.42559750  0.48699485  0.42357873  1
  O  O119  1  0.92534935  0.48795301  0.42689437  1
  O  O120  1  0.17969826  0.52052346  0.07646238  1
  O  O121  1  0.67551699  0.50155566  0.06877998  1
  O  O122  1  0.07344936  0.65263863  0.07323747  1
  O  O123  1  0.57344245  0.64009529  0.07700384  1
  O  O124  1  0.25418915  0.86210584  0.07660222  1
  O  O125  1  0.75097091  0.84355662  0.06967656  1
  O  O126  1  0.17573986  0.84516589  0.57232663  1
  O  O127  1  0.67228280  0.84432574  0.57223803  1
  O  O128  1  0.25186504  0.66378827  0.56910458  1
  O  O129  1  0.75275362  0.66003240  0.57319733  1
  O  O130  1  0.07787770  0.49692047  0.57496557  1
  O  O131  1  0.57459390  0.49841934  0.57157051  1
  O  O132  1  0.15728049  0.81653350  0.26109957  1
  O  O133  1  0.64313106  0.82336960  0.25487631  1
  O  O134  1  0.26671299  0.69900144  0.25508867  1
  O  O135  1  0.75667272  0.70839748  0.25516057  1
  O  O136  1  0.08986878  0.47418492  0.25445196  1
  O  O137  1  0.58867435  0.47633278  0.25599022  1
  O  O138  1  0.14299393  0.48341852  0.75905472  1
  O  O139  1  0.64445187  0.48409116  0.76282965  1
  O  O140  1  0.08610763  0.71138011  0.75331789  1
  O  O141  1  0.59454051  0.70958717  0.75656043  1
  O  O142  1  0.25523630  0.80546811  0.75992087  1
  O  O143  1  0.76097364  0.81346263  0.75717634  1
loop_
_geom_bond_atom_site_label_1
_geom_bond_atom_site_label_2
_geom_bond_distance
_geom_bond_site_symmetry_2
Na0 O137 2.257200 1_555
Na0 O103 2.339802 1_555
Na0 O107 2.375762 1_555
Na0 O65 2.450682 1_555
Na0 O135 2.459125 1_555
Na0 O35 2.682338 1_555
Na0 O21 2.874295 1_555
Na0 O1 2.924794 1_555
Na1 O103 2.327074 1_555
Na1 O132 2.402956 1_655
Na1 O105 2.452756 1_555
Na1 O60 2.557359 1_655
Na1 O22 2.579055 1_655
Na1 O3 2.654953 1_555
Na1 O136 2.667904 1_655
Na1 O31 2.728752 1_555
Na2 O138 2.214802 1_655
Na2 O97 2.228088 1_555
Na2 O101 2.389678 1_555
Na2 O66 2.555188 1_655
Na2 O140 2.598919 1_655
Na2 O25 2.620416 1_555
Na2 O14 2.772512 1_655
Na2 O11 2.912172 1_555
Na3 O100 2.237579 1_555
Na3 O139 2.285343 1_555
Na3 O96 2.295030 1_555
Na3 O141 2.613207 1_555
Na3 O24 2.631963 1_555
Na3 O67 2.710027 1_555
Na3 O15 2.714555 1_555
Na3 O10 2.858445 1_555
Na4 O98 2.261106 1_555
Na4 O96 2.286068 1_555
Na4 O140 2.316898 1_545
Na4 O68 2.502962 1_545
Na4 O142 2.505741 1_545
Na4 O26 2.690602 1_555
Na4 O6 2.776497 1_555
Na4 O16 2.949938 1_545
Na5 O141 2.271539 1_545
Na5 O99 2.286938 1_555
Na5 O97 2.429235 1_555
Na5 O143 2.549901 1_545
Na5 O27 2.582043 1_555
Na5 O69 2.613735 1_545
Na5 O17 2.779188 1_545
Na5 O7 2.840932 1_555
Na6 O72 2.349966 1_655
Na6 O75 2.404156 1_555
Na6 O76 2.451959 1_665
Na6 O89 2.458425 1_555
Na6 O85 2.473794 1_565
Na6 O86 2.515808 1_665
Na7 O87 2.355646 1_555
Na7 O77 2.394846 1_555
Na7 O84 2.431289 1_555
Na7 O88 2.439883 1_545
Na7 O73 2.518740 1_545
Na7 O74 2.558349 1_545
Na8 O78 2.381960 1_555
Na8 O91 2.423456 1_446
Na8 O80 2.430991 1_545
Na8 O93 2.457318 1_456
Na8 O94 2.506769 1_556
Na8 O83 2.595338 1_445
Na9 O81 2.349491 1_555
Na9 O95 2.411639 1_566
Na9 O82 2.450887 1_555
Na9 O79 2.490912 1_565
Na9 O90 2.502080 1_556
Na9 O92 2.598214 1_566
Na10 O100 2.345965 1_555
Na10 O98 2.364315 1_555
Na10 O96 2.459395 1_555
Na10 O108 2.555401 1_555
Na10 O112 2.568593 1_555
Na10 O110 2.637812 1_555
Na11 O99 2.320924 1_555
Na11 O97 2.416849 1_555
Na11 O113 2.495927 1_555
Na11 O111 2.516877 1_555
Na11 O109 2.594325 1_555
Na11 O101 2.598280 1_555
Na12 O106 2.445638 1_555
Na12 O104 2.474269 1_555
Na12 O102 2.482337 1_555
Na12 O118 2.521890 1_555
Na12 O116 2.543816 1_555
Na12 O114 2.612166 1_555
Na13 O115 2.465702 1_555
Na13 O119 2.486695 1_555
Na13 O103 2.497481 1_555
Na13 O117 2.516162 1_555
Na13 O105 2.594933 1_555
Na13 O107 2.605626 1_555
Na14 O120 2.393174 1_555
Na14 O134 2.483943 1_555
Na14 O124 2.510205 1_555
Na14 O136 2.523665 1_555
Na14 O132 2.548494 1_555
Na14 O122 2.615533 1_555
Na15 O135 2.405505 1_555
Na15 O137 2.448702 1_555
Na15 O133 2.449664 1_555
Na15 O123 2.483896 1_555
Na15 O125 2.674655 1_555
Na15 O121 2.711212 1_555
Na16 O142 2.411229 1_555
Na16 O138 2.449372 1_555
Na16 O128 2.551538 1_555
Na16 O130 2.592809 1_555
Na16 O126 2.606381 1_555
Na16 O140 2.621177 1_555
Na17 O143 2.482908 1_555
Na17 O129 2.497038 1_555
Na17 O127 2.559548 1_555
Na17 O141 2.561420 1_555
Na17 O139 2.564638 1_555
Na17 O131 2.594854 1_555
Ca0 O100 2.130297 1_555
Ca0 O98 2.132510 1_555
Ca0 O28 2.218375 1_555
Ca0 O96 2.229754 1_555
Ca0 O24 2.234185 1_555
Ca0 O26 2.247923 1_555
Ca1 O99 2.141237 1_555
Ca1 O29 2.177547 1_555
Ca1 O27 2.194331 1_555
Ca1 O97 2.241377 1_555
Ca1 O101 2.247131 1_555
Ca1 O25 2.256090 1_555
Ca2 O31 2.190054 1_555
Ca2 O103 2.193994 1_555
Ca2 O33 2.200858 1_555
Ca2 O35 2.221996 1_555
Ca2 O105 2.243231 1_555
Ca2 O107 2.253449 1_555
Ge0 O72 1.811862 1_555
Ge0 O3 1.814602 1_455
Ge0 O76 1.856407 1_565
Ge0 O75 1.887233 1_455
Ge0 O0 1.893970 1_565
Ge0 O5 2.097366 1_465
Ge1 O4 1.794960 1_555
Ge1 O77 1.797785 1_555
Ge1 O73 1.819465 1_545
Ge1 O1 1.960906 1_555
Ge1 O74 2.065556 1_545
Ge1 O2 2.094936 1_545
Ge2 O6 1.750373 1_555
Ge2 O11 1.795682 1_455
Ge2 O78 1.799514 1_555
Ge2 O80 1.851471 1_545
Ge2 O9 2.138082 1_445
Ge2 O83 2.263398 1_445
Ge3 O8 1.747760 1_555
Ge3 O7 1.757544 1_565
Ge3 O10 1.793651 1_565
Ge3 O81 1.848989 1_555
Ge3 O79 2.216401 1_565
Ge3 O82 2.222726 1_555
Ge4 O13 1.755343 1_545
Ge4 O14 1.796865 1_655
Ge4 O16 1.980033 1_645
Ge4 O85 2.029832 1_555
Ge4 O89 2.100559 1_545
Ge4 O86 2.261395 1_655
Ge5 O12 1.772122 1_545
Ge5 O17 1.779584 1_545
Ge5 O15 1.790400 1_555
Ge5 O84 2.248111 1_555
Ge5 O87 2.305900 1_555
Ge5 O88 2.324998 1_545
Ge6 O22 1.788795 1_555
Ge6 O19 1.800716 1_455
Ge6 O94 1.829601 1_565
Ge6 O20 2.009538 1_565
Ge6 O91 2.153367 1_455
Ge6 O93 2.360510 1_465
Ge7 O21 1.791966 1_565
Ge7 O90 1.824740 1_555
Ge7 O18 1.924494 1_555
Ge7 O23 1.965338 1_555
Ge7 O92 2.014581 1_565
Ge7 O95 2.218665 1_565
Ge8 O30 1.828559 1_555
Ge8 O34 1.844411 1_555
Ge8 O106 1.862346 1_555
Ge8 O104 1.874640 1_555
Ge8 O32 2.045146 1_555
Ge8 O102 2.067861 1_555
Ge9 O36 1.776484 1_556
Ge9 O38 1.838942 1_556
Ge9 O112 1.844980 1_555
Ge9 O108 2.014331 1_555
Ge9 O40 2.048311 1_556
Ge9 O110 2.272582 1_555
Ge10 O113 1.787391 1_555
Ge10 O111 1.790423 1_555
Ge10 O41 1.954189 1_556
Ge10 O109 1.971952 1_555
Ge10 O39 2.097490 1_556
Ge10 O37 2.112917 1_556
Ge11 O118 1.775096 1_555
Ge11 O116 1.786865 1_555
Ge11 O44 1.951330 1_555
Ge11 O114 2.053362 1_555
Ge11 O46 2.084170 1_555
Ge11 O42 2.205712 1_555
Ge12 O117 1.765249 1_555
Ge12 O115 1.765412 1_555
Ge12 O119 1.785270 1_555
Ge12 O43 2.140202 1_555
Ge12 O47 2.193907 1_555
Ge12 O45 2.217837 1_555
Ge13 O50 1.751834 1_554
Ge13 O52 1.801835 1_554
Ge13 O120 1.857768 1_555
Ge13 O122 1.986323 1_555
Ge13 O48 1.991526 1_554
Ge13 O124 2.182751 1_555
Ge14 O53 1.747583 1_554
Ge14 O123 1.812772 1_555
Ge14 O51 1.895151 1_554
Ge14 O125 1.970698 1_555
Ge14 O121 1.991818 1_555
Ge14 O49 2.126690 1_554
Ge15 O58 1.739723 1_555
Ge15 O56 1.753297 1_555
Ge15 O128 1.970014 1_555
Ge15 O130 1.983200 1_555
Ge15 O54 1.992012 1_555
Ge15 O126 2.017751 1_555
Ge16 O55 1.763831 1_555
Ge16 O57 1.782559 1_555
Ge16 O59 1.789170 1_555
Ge16 O127 2.042751 1_555
Ge16 O131 2.135871 1_555
Ge16 O129 2.138649 1_555
Ge17 O64 1.791747 1_555
Ge17 O60 1.802032 1_555
Ge17 O132 1.844676 1_555
Ge17 O136 2.030179 1_555
Ge17 O62 2.032616 1_555
Ge17 O134 2.202328 1_555
Ge18 O65 1.826720 1_555
Ge18 O63 1.827182 1_555
Ge18 O61 1.847780 1_555
Ge18 O135 1.940595 1_555
Ge18 O137 1.988592 1_555
Ge18 O133 2.147375 1_555
Ge19 O142 1.848469 1_555
Ge19 O68 1.849735 1_555
Ge19 O66 1.864955 1_555
Ge19 O138 1.899084 1_555
Ge19 O70 1.948322 1_555
Ge19 O140 2.178805 1_555
Ge20 O143 1.800835 1_555
Ge20 O139 1.833538 1_555
Ge20 O69 1.838217 1_555
Ge20 O141 1.842614 1_555
Ge20 O71 2.086555 1_555
Ge20 O67 2.167698 1_555
O0 Si0 1.605832 1_555
O1 S0 1.486802 1_545
O2 S1 1.471782 1_555
O3 Si1 1.618165 1_555
O4 Si2 1.652661 1_555
O5 S2 1.446087 1_655
O6 Si3 1.622092 1_555
O7 Si4 1.614897 1_555
O8 Si5 1.605319 1_555
O9 S3 1.447623 1_655
O10 Si6 1.635396 1_545
O11 Si7 1.614859 1_545
O12 Si6 1.677458 1_555
O13 Si7 1.665847 1_555
O14 Si3 1.694646 1_555
O15 Si4 1.690878 1_555
O16 S3 1.526703 1_555
O17 Si5 1.682930 1_555
O18 S1 1.513902 1_555
O19 Si1 1.702983 1_555
O20 S2 1.495724 1_555
O21 Si2 1.700523 1_555
O22 Si0 1.665609 1_565
O23 S0 1.508408 1_555
O24 S4 1.457666 1_555
O25 S5 1.459999 1_555
O26 S6 1.459093 1_555
O27 S7 1.468189 1_555
O28 S8 1.441361 1_555
O29 S9 1.456977 1_555
O30 Si8 1.616723 1_555
O31 S10 1.465272 1_555
O32 S11 1.476689 1_555
O33 S12 1.459211 1_555
O34 Si9 1.623092 1_555
O35 S13 1.467543 1_555
O36 Si9 1.640378 1_555
O37 S13 1.491207 1_555
O38 Si8 1.653576 1_555
O39 S10 1.494853 1_555
O40 S11 1.488594 1_555
O41 S12 1.518301 1_555
O42 S6 1.495004 1_555
O43 S7 1.494218 1_555
O44 S8 1.516638 1_555
O45 S9 1.487009 1_555
O46 S4 1.521410 1_555
O47 S5 1.470628 1_555
O48 S14 1.486967 1_555
O49 S15 1.484315 1_555
O50 Si10 1.613716 1_555
O51 S16 1.525031 1_555
O52 Si11 1.637319 1_555
O53 Si12 1.624277 1_555
O54 S17 1.484763 1_555
O55 Si13 1.635650 1_555
O56 Si14 1.631462 1_555
O57 Si15 1.617411 1_555
O58 Si16 1.621716 1_555
O59 Si17 1.630080 1_555
O60 Si16 1.647917 1_555
O61 Si17 1.614118 1_555
O62 S17 1.485114 1_555
O63 Si13 1.628592 1_555
O64 Si14 1.655764 1_555
O65 Si15 1.626129 1_555
O66 Si10 1.640933 1_555
O67 S16 1.485940 1_555
O68 Si11 1.653188 1_555
O69 Si12 1.639919 1_555
O70 S14 1.494405 1_555
O71 S15 1.489974 1_555
O72 Si16 1.599224 1_555
O73 Si17 1.653488 1_555
O74 S17 1.479927 1_555
O75 Si13 1.613049 1_555
O76 Si14 1.600500 1_555
O77 Si15 1.640290 1_555
O78 Si10 1.630982 1_555
O79 S16 1.477376 1_555
O80 Si11 1.660420 1_555
O81 Si12 1.641782 1_555
O82 S14 1.463981 1_555
O83 S15 1.464985 1_555
O84 S4 1.506367 1_555
O85 S5 1.517457 1_555
O86 S6 1.501125 1_555
O87 S7 1.495773 1_555
O88 S8 1.478322 1_555
O89 S9 1.535346 1_555
O90 Si8 1.699099 1_555
O91 S10 1.489911 1_555
O92 S11 1.510923 1_555
O93 S12 1.461898 1_555
O94 Si9 1.680688 1_555
O95 S13 1.491196 1_555
O96 Si6 1.589941 1_545
O97 Si7 1.606869 1_545
O98 Si3 1.565295 1_555
O99 Si4 1.577551 1_555
O100 Si5 1.566100 1_555
O101 S3 1.464303 1_655
O102 S1 1.481210 1_555
O103 Si1 1.633885 1_555
O104 Si2 1.622457 1_555
O105 S2 1.476470 1_655
O106 Si0 1.619843 1_555
O107 S0 1.473250 1_545
O108 S14 1.497506 1_555
O109 S15 1.520204 1_555
O110 S16 1.471656 1_555
O111 Si10 1.654043 1_655
O112 Si11 1.681687 1_545
O113 Si12 1.652868 1_545
O114 S17 1.487974 1_545
O115 Si13 1.653104 1_545
O116 Si14 1.661876 1_555
O117 Si15 1.632493 1_555
O118 Si17 1.665467 1_555
O119 Si16 1.627956 1_655
O120 Si9 1.670663 1_555
O121 S13 1.501578 1_555
O122 S10 1.495681 1_455
O123 Si8 1.668510 1_555
O124 S11 1.477590 1_565
O125 S12 1.508667 1_565
O126 S6 1.518518 1_565
O127 S7 1.504909 1_565
O128 S8 1.513492 1_555
O129 S9 1.494601 1_555
O130 S5 1.510917 1_455
O131 S4 1.490259 1_555
O132 Si0 1.705309 1_565
O133 S0 1.456421 1_555
O134 S1 1.478059 1_555
O135 Si1 1.649556 1_555
O136 S2 1.522172 1_555
O137 Si2 1.642468 1_555
O138 Si3 1.640455 1_555
O139 Si4 1.626120 1_555
O140 S3 1.506442 1_555
O141 Si5 1.654662 1_555
O142 Si6 1.650720 1_555
O143 Si7 1.627151 1_555
