# generated using pymatgen
data_Fe(BMo)2
_symmetry_space_group_name_H-M   'P 1'
_cell_length_a   6.39517200
_cell_length_b   6.39517200
_cell_length_c   2.82010900
_cell_angle_alpha   90.00000000
_cell_angle_beta   90.00000000
_cell_angle_gamma   90.00000000
_symmetry_Int_Tables_number   1
_chemical_formula_structural   Fe(BMo)2
_chemical_formula_sum   'Fe2 B4 Mo4'
_cell_volume   115.33745215
_cell_formula_units_Z   2
loop_
 _symmetry_equiv_pos_site_id
 _symmetry_equiv_pos_as_xyz
  1  'x, y, z'
loop_
 _atom_site_type_symbol
 _atom_site_label
 _atom_site_symmetry_multiplicity
 _atom_site_fract_x
 _atom_site_fract_y
 _atom_site_fract_z
 _atom_site_occupancy
  Fe  Fe0  1  0.50000000  0.50000000  0.00000000  1
  Fe  Fe1  1  0.00000000  0.00000000  0.00000000  1
  B  B0  1  0.34241600  0.84241600  0.50000000  1
  B  B1  1  0.65758400  0.15758400  0.50000000  1
  B  B2  1  0.84241600  0.65758400  0.50000000  1
  B  B3  1  0.15758400  0.34241600  0.50000000  1
  Mo  Mo0  1  0.64239400  0.85760600  0.00000000  1
  Mo  Mo1  1  0.35760600  0.14239400  0.00000000  1
  Mo  Mo2  1  0.85760600  0.35760600  0.00000000  1
  Mo  Mo3  1  0.14239400  0.64239400  0.00000000  1
loop_
_geom_bond_atom_site_label_1
_geom_bond_atom_site_label_2
_geom_bond_distance
_geom_bond_site_symmetry_2
Fe0 Mo3 2.461586 1_555
Fe0 Mo0 2.461586 1_555
Fe0 Mo1 2.461586 1_555
Fe0 Mo2 2.461586 1_555
Fe1 Mo0 2.461586 1_445
Fe1 Mo1 2.461586 1_555
Fe1 Mo2 2.461586 1_455
Fe1 Mo3 2.461586 1_545
B0 Mo3 2.293650 1_556
B0 Mo3 2.293650 1_555
B0 Mo0 2.382853 1_555
B0 Mo0 2.382853 1_556
B0 Mo1 2.382853 1_565
B0 Mo1 2.382853 1_566
B0 Fe0 2.792693 1_556
B0 Fe0 2.792693 1_555
B0 Fe1 2.792693 1_566
B0 Fe1 2.792693 1_565
B1 Mo2 2.293650 1_556
B1 Mo2 2.293650 1_555
B1 Mo0 2.382853 1_545
B1 Mo1 2.382853 1_556
B1 Mo1 2.382853 1_555
B1 Mo0 2.382853 1_546
B1 Fe0 2.792693 1_556
B1 Fe0 2.792693 1_555
B1 Fe1 2.792693 1_655
B1 Fe1 2.792693 1_656
B2 Mo0 2.293650 1_555
B2 Mo0 2.293650 1_556
B2 Mo2 2.382853 1_556
B2 Mo2 2.382853 1_555
B2 Mo3 2.382853 1_656
B2 Mo3 2.382853 1_655
B2 Fe0 2.792693 1_556
B2 Fe0 2.792693 1_555
B2 Fe1 2.792693 1_665
B2 Fe1 2.792693 1_666
B3 Mo1 2.293650 1_556
B3 Mo1 2.293650 1_555
B3 Mo2 2.382853 1_456
B3 Mo3 2.382853 1_555
B3 Mo2 2.382853 1_455
B3 Mo3 2.382853 1_556
B3 Fe0 2.792693 1_556
B3 Fe1 2.792693 1_556
B3 Fe1 2.792693 1_555
B3 Fe0 2.792693 1_555
