# generated using pymatgen
data_MgMn4(O2F3)2
_symmetry_space_group_name_H-M   'P 1'
_cell_length_a   5.03311205
_cell_length_b   6.14287919
_cell_length_c   7.91201512
_cell_angle_alpha   106.92651289
_cell_angle_beta   69.23239338
_cell_angle_gamma   69.20000625
_symmetry_Int_Tables_number   1
_chemical_formula_structural   MgMn4(O2F3)2
_chemical_formula_sum   'Mg1 Mn4 O4 F6'
_cell_volume   187.91211809
_cell_formula_units_Z   1
loop_
 _symmetry_equiv_pos_site_id
 _symmetry_equiv_pos_as_xyz
  1  'x, y, z'
loop_
 _atom_site_type_symbol
 _atom_site_label
 _atom_site_symmetry_multiplicity
 _atom_site_fract_x
 _atom_site_fract_y
 _atom_site_fract_z
 _atom_site_occupancy
  Mg  Mg0  1  0.86652721  0.98614799  0.40955968  1
  Mn  Mn0  1  0.34402950  0.97278248  0.86236212  1
  Mn  Mn1  1  0.80357781  0.47878978  0.35821092  1
  Mn  Mn2  1  0.18183880  0.49474940  0.62102722  1
  Mn  Mn3  1  0.65748060  0.01344638  0.10601130  1
  O  O0  1  0.75034554  0.75287334  0.85721154  1
  O  O1  1  0.41165087  0.69219356  0.63158191  1
  O  O2  1  0.59393771  0.26312894  0.35427573  1
  O  O3  1  0.25090458  0.22779178  0.11709909  1
  F  F0  1  0.01208858  0.68250550  0.45291020  1
  F  F1  1  0.89047824  0.18128184  0.94582075  1
  F  F2  1  0.64284387  0.78526449  0.29027404  1
  F  F3  1  0.44910200  0.18624036  0.68529970  1
  F  F4  1  0.10475299  0.82486625  0.07370372  1
  F  F5  1  0.02265770  0.24808392  0.50067709  1
loop_
_geom_bond_atom_site_label_1
_geom_bond_atom_site_label_2
_geom_bond_distance
_geom_bond_site_symmetry_2
Mg0 O2 2.041970 1_565
Mn0 O3 1.925084 1_566
Mn0 O1 1.931534 1_555
Mn0 O0 1.988846 1_555
Mn1 O1 1.942841 1_555
Mn1 O2 1.965037 1_555
Mn1 O3 1.965082 1_655
Mn2 O0 1.916690 1_455
Mn2 O1 1.954943 1_555
Mn2 O2 1.957545 1_555
Mn3 O0 1.907103 1_544
Mn3 O2 1.940343 1_555
Mn3 O3 1.954669 1_555
F0 Mg0 1.927097 1_455
F0 Mn1 2.042824 1_455
F0 Mn2 2.197467 1_555
F1 Mn0 1.910390 1_645
F1 Mn3 2.147113 1_556
F2 Mn1 2.074526 1_555
F2 Mg0 2.177845 1_555
F2 Mn3 2.298414 1_565
F3 Mg0 2.009595 1_545
F3 Mn2 2.212541 1_555
F3 Mn0 2.235701 1_545
F4 Mn3 2.010586 1_465
F4 Mg0 2.200977 1_455
F4 Mn0 2.303433 1_554
F5 Mg0 2.085800 1_445
F5 Mn2 2.099423 1_555
F5 Mn1 2.279611 1_455
