# generated using pymatgen
data_Ba2HoMgSbO6
_symmetry_space_group_name_H-M   'P 1'
_cell_length_a   7.25130585
_cell_length_b   6.31678626
_cell_length_c   6.31678640
_cell_angle_alpha   59.92663887
_cell_angle_beta   63.69228151
_cell_angle_gamma   63.69227844
_symmetry_Int_Tables_number   1
_chemical_formula_structural   Ba2HoMgSbO6
_chemical_formula_sum   'Ba2 Ho1 Mg1 Sb1 O6'
_cell_volume   215.14660555
_cell_formula_units_Z   1
loop_
 _symmetry_equiv_pos_site_id
 _symmetry_equiv_pos_as_xyz
  1  'x, y, z'
loop_
 _atom_site_type_symbol
 _atom_site_label
 _atom_site_symmetry_multiplicity
 _atom_site_fract_x
 _atom_site_fract_y
 _atom_site_fract_z
 _atom_site_occupancy
  Ba  Ba0  1  0.83510538  0.72180523  0.72180523  1
  Ba  Ba1  1  0.04871386  0.31844600  0.31844600  1
  Ho  Ho0  1  0.08160575  0.97277828  0.97277828  1
  Mg  Mg0  1  0.65047004  0.12048760  0.12048760  1
  Sb  Sb0  1  0.41150500  0.52872182  0.52872182  1
  O  O0  1  0.21905705  0.74159676  0.74159676  1
  O  O1  1  0.23277277  0.73661832  0.28305092  1
  O  O2  1  0.80642514  0.22043805  0.76481811  1
  O  O3  1  0.23277277  0.28305092  0.73661832  1
  O  O4  1  0.81056410  0.21623892  0.21623892  1
  O  O5  1  0.80642514  0.76481811  0.22043805  1
loop_
_geom_bond_atom_site_label_1
_geom_bond_atom_site_label_2
_geom_bond_distance
_geom_bond_site_symmetry_2
Ba0 O0 2.900943 1_655
Ba0 O3 2.983381 1_655
Ba0 O1 2.983381 1_655
Ba0 O2 3.133445 1_555
Ba0 O5 3.133445 1_555
Ba0 O4 3.162247 1_565
Ba0 O4 3.162247 1_556
Ba0 O2 3.203908 1_565
Ba0 O5 3.203908 1_556
Ba1 O4 2.492001 1_455
Ba1 O5 2.498794 1_455
Ba1 O2 2.498795 1_455
Ho0 O1 2.189264 1_556
Ho0 O3 2.189264 1_565
Ho0 O0 2.194426 1_555
Ho0 O4 2.367497 1_466
Ho0 O2 2.377301 1_465
Ho0 O5 2.377301 1_456
Mg0 O5 1.919454 1_545
Mg0 O2 1.919454 1_554
Mg0 O4 1.921128 1_555
O0 Sb0 2.012300 1_555
O1 Sb0 2.011022 1_555
O3 Sb0 2.011022 1_555
