# generated using pymatgen
data_Th(MnGe)2
_symmetry_space_group_name_H-M   'P 1'
_cell_length_a   6.22726168
_cell_length_b   6.22726168
_cell_length_c   6.22726168
_cell_angle_alpha   141.01193905
_cell_angle_beta   141.01193905
_cell_angle_gamma   56.31998812
_symmetry_Int_Tables_number   1
_chemical_formula_structural   Th(MnGe)2
_chemical_formula_sum   'Th1 Mn2 Ge2'
_cell_volume   94.83620914
_cell_formula_units_Z   1
loop_
 _symmetry_equiv_pos_site_id
 _symmetry_equiv_pos_as_xyz
  1  'x, y, z'
loop_
 _atom_site_type_symbol
 _atom_site_label
 _atom_site_symmetry_multiplicity
 _atom_site_fract_x
 _atom_site_fract_y
 _atom_site_fract_z
 _atom_site_occupancy
  Th  Th0  1  -0.00000000  -0.00000000  0.00000000  1
  Mn  Mn0  1  0.75000000  0.25000000  0.50000000  1
  Mn  Mn1  1  0.25000000  0.75000000  0.50000000  1
  Ge  Ge0  1  0.61660817  0.61660817  0.00000000  1
  Ge  Ge1  1  0.38339183  0.38339183  -0.00000000  1
loop_
_geom_bond_atom_site_label_1
_geom_bond_atom_site_label_2
_geom_bond_distance
_geom_bond_site_symmetry_2
Mn0 Th0 3.442953 1_555
Mn0 Th0 3.442953 1_655
Mn0 Th0 3.442953 1_666
Mn0 Th0 3.442953 1_656
Mn1 Th0 3.442953 1_566
Mn1 Th0 3.442953 1_555
Mn1 Th0 3.442953 1_565
Mn1 Th0 3.442953 1_666
Ge0 Mn1 2.542394 1_554
Ge0 Mn0 2.542394 1_554
Ge0 Mn0 2.542394 1_565
Ge0 Mn1 2.542394 1_655
Ge0 Ge1 2.560790 1_555
Ge0 Th0 3.205673 1_655
Ge0 Th0 3.205673 1_554
Ge0 Th0 3.205673 1_565
Ge0 Th0 3.205673 1_666
Ge1 Mn0 2.542394 1_555
Ge1 Mn1 2.542394 1_555
Ge1 Mn1 2.542394 1_544
Ge1 Mn0 2.542394 1_454
Ge1 Th0 3.205673 1_655
Ge1 Th0 3.205673 1_554
Ge1 Th0 3.205673 1_565
Ge1 Th0 3.205673 1_666
