# generated using pymatgen
data_Ba2YbMg(CuO2)4
_symmetry_space_group_name_H-M   'P 1'
_cell_length_a   3.73482900
_cell_length_b   3.93824180
_cell_length_c   15.20996634
_cell_angle_alpha   96.42413159
_cell_angle_beta   90.00000000
_cell_angle_gamma   90.00000000
_symmetry_Int_Tables_number   1
_chemical_formula_structural   Ba2YbMg(CuO2)4
_chemical_formula_sum   'Ba2 Yb1 Mg1 Cu4 O8'
_cell_volume   222.31346600
_cell_formula_units_Z   1
loop_
 _symmetry_equiv_pos_site_id
 _symmetry_equiv_pos_as_xyz
  1  'x, y, z'
loop_
 _atom_site_type_symbol
 _atom_site_label
 _atom_site_symmetry_multiplicity
 _atom_site_fract_x
 _atom_site_fract_y
 _atom_site_fract_z
 _atom_site_occupancy
  Ba  Ba0  1  0.50000000  0.39359700  0.76254700  1
  Ba  Ba1  1  0.50000000  0.60640300  0.23745300  1
  Yb  Yb0  1  0.50000000  0.50000000  0.00000000  1
  Mg  Mg0  1  0.50000000  0.50000000  0.50000000  1
  Cu  Cu0  1  0.00000000  0.95710100  0.90536300  1
  Cu  Cu1  1  0.00000000  0.04289900  0.09463700  1
  Cu  Cu2  1  0.00000000  0.84005900  0.59047000  1
  Cu  Cu3  1  0.00000000  0.15994100  0.40953000  1
  O  O0  1  0.00000000  0.28999000  0.54898900  1
  O  O1  1  0.00000000  0.71001000  0.45101100  1
  O  O2  1  0.00000000  0.45468700  0.89966100  1
  O  O3  1  0.00000000  0.54531300  0.10033900  1
  O  O4  1  0.50000000  0.95469900  0.90058500  1
  O  O5  1  0.50000000  0.04530100  0.09941500  1
  O  O6  1  0.00000000  0.87149100  0.71103700  1
  O  O7  1  0.00000000  0.12850900  0.28896300  1
loop_
_geom_bond_atom_site_label_1
_geom_bond_atom_site_label_2
_geom_bond_distance
_geom_bond_site_symmetry_2
Ba0 O2 2.789650 1_655
Ba0 O2 2.789650 1_555
Ba0 O6 2.822843 1_545
Ba0 O6 2.822843 1_645
Ba0 O6 2.823681 1_555
Ba0 O6 2.823681 1_655
Ba0 O4 2.864940 1_545
Ba0 O4 2.872793 1_555
Ba1 O3 2.789650 1_555
Ba1 O3 2.789650 1_655
Ba1 O7 2.822843 1_565
Ba1 O7 2.822843 1_665
Ba1 O7 2.823681 1_555
Ba1 O7 2.823681 1_655
Ba1 O5 2.864940 1_565
Ba1 O5 2.872793 1_555
Mg0 O0 2.205537 1_655
Mg0 O0 2.205537 1_555
Mg0 O1 2.205537 1_655
Mg0 O1 2.205537 1_555
Cu0 O4 1.868811 1_555
Cu0 O4 1.868811 1_455
Cu0 O2 1.970809 1_555
Cu0 O2 1.971203 1_565
Cu1 O5 1.868811 1_555
Cu1 O5 1.868811 1_455
Cu1 O3 1.970809 1_555
Cu1 O3 1.971203 1_545
Cu2 O6 1.824122 1_555
Cu2 O0 1.946278 1_565
Cu2 O1 2.125689 1_555
Cu2 O0 2.187485 1_555
Cu3 O7 1.824122 1_555
Cu3 O1 1.946278 1_545
Cu3 O0 2.125689 1_555
Cu3 O1 2.187485 1_555
O2 Yb0 2.405677 1_456
O2 Yb0 2.405677 1_556
O3 Yb0 2.405677 1_555
O3 Yb0 2.405677 1_455
O4 Yb0 2.469620 1_556
O4 Yb0 2.484282 1_566
O5 Yb0 2.469620 1_555
O5 Yb0 2.484282 1_545
