# generated using pymatgen
data_Na4Mg(BiO3)2
_symmetry_space_group_name_H-M   'P 1'
_cell_length_a   6.33245727
_cell_length_b   6.33245727
_cell_length_c   6.32935563
_cell_angle_alpha   78.09463434
_cell_angle_beta   101.90536566
_cell_angle_gamma   62.63043759
_symmetry_Int_Tables_number   1
_chemical_formula_structural   Na4Mg(BiO3)2
_chemical_formula_sum   'Na4 Mg1 Bi2 O6'
_cell_volume   206.88078061
_cell_formula_units_Z   1
loop_
 _symmetry_equiv_pos_site_id
 _symmetry_equiv_pos_as_xyz
  1  'x, y, z'
loop_
 _atom_site_type_symbol
 _atom_site_label
 _atom_site_symmetry_multiplicity
 _atom_site_fract_x
 _atom_site_fract_y
 _atom_site_fract_z
 _atom_site_occupancy
  Na  Na0  1  0.10485600  0.18666900  0.48916300  1
  Na  Na1  1  0.81333100  0.89514400  0.48916300  1
  Na  Na2  1  0.46658700  0.53341300  0.43012600  1
  Na  Na3  1  0.09269800  0.90730200  0.97233100  1
  Mg  Mg0  1  0.66161200  0.33838800  0.89203100  1
  Bi  Bi0  1  0.65657900  0.74290200  0.00878000  1
  Bi  Bi1  1  0.25709800  0.34342100  0.00878000  1
  O  O0  1  0.31977600  0.68022400  0.75755700  1
  O  O1  1  0.08171300  0.55906800  0.22204300  1
  O  O2  1  0.44093200  0.91828700  0.22204300  1
  O  O3  1  0.92229900  0.36609700  0.78380900  1
  O  O4  1  0.63390300  0.07770100  0.78380900  1
  O  O5  1  0.71528300  0.28471700  0.22161600  1
loop_
_geom_bond_atom_site_label_1
_geom_bond_atom_site_label_2
_geom_bond_distance
_geom_bond_site_symmetry_2
Na0 O5 2.402753 1_455
Na0 O1 2.525084 1_555
Na0 O3 2.580968 1_455
Na0 O0 2.794335 1_545
Na1 O5 2.402753 1_565
Na1 O2 2.525084 1_555
Na1 O4 2.580968 1_565
Na1 O0 2.794335 1_655
Na2 O2 2.433968 1_555
Na2 O1 2.433968 1_555
Na2 O5 2.477234 1_555
Na2 O0 2.611270 1_555
Na2 O3 2.829544 1_555
Na2 O4 2.829544 1_555
Na3 O0 2.386464 1_555
Na3 O1 2.472664 1_556
Na3 O2 2.472664 1_556
Na3 O4 2.486944 1_465
Na3 O3 2.486944 1_465
Mg0 O5 1.972668 1_556
Mg0 O4 1.976958 1_555
Mg0 O3 1.976958 1_555
Mg0 O0 2.065737 1_555
Bi0 O2 2.214689 1_555
Bi0 O4 2.221073 1_564
Bi0 O1 2.322847 1_655
Bi0 O0 2.621867 1_554
Bi1 O1 2.214689 1_555
Bi1 O3 2.221073 1_454
Bi1 O2 2.322847 1_545
Bi1 O0 2.621867 1_554
