# generated using pymatgen
data_Lu4Mg(CoO3)4
_symmetry_space_group_name_H-M   'P 1'
_cell_length_a   5.21037874
_cell_length_b   5.96275528
_cell_length_c   7.10510655
_cell_angle_alpha   90.01987110
_cell_angle_beta   89.84353954
_cell_angle_gamma   93.47379920
_symmetry_Int_Tables_number   1
_chemical_formula_structural   Lu4Mg(CoO3)4
_chemical_formula_sum   'Lu4 Mg1 Co4 O12'
_cell_volume   220.33655042
_cell_formula_units_Z   1
loop_
 _symmetry_equiv_pos_site_id
 _symmetry_equiv_pos_as_xyz
  1  'x, y, z'
loop_
 _atom_site_type_symbol
 _atom_site_label
 _atom_site_symmetry_multiplicity
 _atom_site_fract_x
 _atom_site_fract_y
 _atom_site_fract_z
 _atom_site_occupancy
  Lu  Lu0  1  0.53768400  0.57950500  0.25140400  1
  Lu  Lu1  1  0.91305400  0.13943900  0.25143300  1
  Lu  Lu2  1  0.46066800  0.39695700  0.75018500  1
  Lu  Lu3  1  0.99958100  0.90411800  0.75006400  1
  Mg  Mg0  1  0.06873200  0.74994100  0.24355500  1
  Co  Co0  1  0.00069500  0.47381200  0.51762600  1
  Co  Co1  1  0.99991400  0.46974400  0.98114000  1
  Co  Co2  1  0.48521800  0.99656700  0.99821100  1
  Co  Co3  1  0.48494400  0.99572400  0.50242600  1
  O  O0  1  0.31784400  0.67759500  0.54730900  1
  O  O1  1  0.86009900  0.54203600  0.75009600  1
  O  O2  1  0.80104600  0.83146300  0.06287100  1
  O  O3  1  0.31470000  0.67746000  0.95533400  1
  O  O4  1  0.80423600  0.82876700  0.43520200  1
  O  O5  1  0.13280000  0.44436300  0.25059900  1
  O  O6  1  0.66526300  0.30807200  0.05310600  1
  O  O7  1  0.18587300  0.16063200  0.55929800  1
  O  O8  1  0.66495200  0.30879900  0.44747300  1
  O  O9  1  0.61834800  0.04557000  0.74995200  1
  O  O10  1  0.36133600  0.95259400  0.25084300  1
  O  O11  1  0.18551000  0.15969800  0.94186900  1
loop_
_geom_bond_atom_site_label_1
_geom_bond_atom_site_label_2
_geom_bond_distance
_geom_bond_site_symmetry_2
Lu0 O5 2.212202 1_555
Lu0 O8 2.263235 1_555
Lu0 O6 2.273794 1_555
Lu0 O4 2.366795 1_555
Lu0 O2 2.382433 1_555
Lu0 O10 2.457852 1_555
Lu0 O0 2.478219 1_555
Lu0 O3 2.492511 1_554
Lu1 O5 2.089131 1_655
Lu1 O8 2.185957 1_555
Lu1 O6 2.198151 1_555
Lu1 O4 2.308307 1_545
Lu1 O2 2.319597 1_545
Lu1 O7 2.610824 1_655
Lu1 O11 2.613415 1_654
Lu1 O10 2.648044 1_645
Lu2 O1 2.204881 1_555
Lu2 O9 2.296429 1_555
Lu2 O0 2.364361 1_555
Lu2 O7 2.374861 1_555
Lu2 O3 2.376331 1_555
Lu2 O11 2.378362 1_555
Lu2 O8 2.467737 1_555
Lu2 O6 2.476170 1_556
Lu3 O9 2.204563 1_565
Lu3 O7 2.221060 1_665
Lu3 O11 2.223741 1_665
Lu3 O1 2.235919 1_555
Lu3 O2 2.476123 1_556
Lu3 O4 2.489758 1_555
Lu3 O0 2.628042 1_655
Lu3 O3 2.633030 1_655
Mg0 O5 1.872913 1_555
Mg0 O10 1.887939 1_555
Mg0 O2 1.980420 1_455
Mg0 O4 2.010498 1_455
Mg0 O3 2.464767 1_554
Mg0 O0 2.571470 1_555
Co0 O1 1.859936 1_455
Co0 O0 2.002501 1_555
Co0 O8 2.018074 1_455
Co0 O5 2.027678 1_555
Co0 O7 2.173966 1_555
Co0 O4 2.477311 1_455
Co1 O1 1.859142 1_555
Co1 O3 2.002522 1_655
Co1 O6 2.005714 1_556
Co1 O5 2.046433 1_656
Co1 O11 2.155367 1_655
Co1 O2 2.515855 1_556
Co2 O9 1.909717 1_565
Co2 O10 1.918545 1_556
Co2 O11 1.932032 1_565
Co2 O2 2.022119 1_556
Co2 O6 2.067012 1_566
Co2 O3 2.073372 1_555
Co3 O9 1.909393 1_565
Co3 O10 1.913654 1_555
Co3 O7 1.934001 1_565
Co3 O4 2.045216 1_555
Co3 O0 2.063206 1_555
Co3 O8 2.074453 1_565
