# generated using pymatgen
data_Na9Mg5TaSi3(SO6)6
_symmetry_space_group_name_H-M   'P 1'
_cell_length_a   9.00989162
_cell_length_b   8.98122779
_cell_length_c   22.33210847
_cell_angle_alpha   89.76128954
_cell_angle_beta   90.00000000
_cell_angle_gamma   120.10563113
_symmetry_Int_Tables_number   1
_chemical_formula_structural   Na9Mg5TaSi3(SO6)6
_chemical_formula_sum   'Na18 Mg10 Ta2 Si6 S12 O72'
_cell_volume   1563.31808004
_cell_formula_units_Z   2
loop_
 _symmetry_equiv_pos_site_id
 _symmetry_equiv_pos_as_xyz
  1  'x, y, z'
loop_
 _atom_site_type_symbol
 _atom_site_label
 _atom_site_symmetry_multiplicity
 _atom_site_fract_x
 _atom_site_fract_y
 _atom_site_fract_z
 _atom_site_occupancy
  Na  Na0  1  0.64315488  0.00339527  0.23961963  1
  Na  Na1  1  0.37881253  0.34824610  0.24972254  1
  Na  Na2  1  0.99538779  0.65677914  0.24434536  1
  Na  Na3  1  0.66139135  0.65677914  0.74434536  1
  Na  Na4  1  0.96943357  0.34824610  0.74972254  1
  Na  Na5  1  0.36024039  0.00339527  0.73961963  1
  Na  Na6  1  0.30105607  0.33568969  0.57536275  1
  Na  Na7  1  0.03463462  0.33568969  0.07536275  1
  Na  Na8  1  0.96114699  0.65650326  0.91194780  1
  Na  Na9  1  0.71893691  0.04783090  0.91074470  1
  Na  Na10  1  0.32889298  0.04783090  0.41074470  1
  Na  Na11  1  0.69535527  0.65650326  0.41194780  1
  Na  Na12  1  0.00061460  0.01649191  0.50032135  1
  Na  Na13  1  0.01587731  0.01649191  0.00032135  1
  Na  Na14  1  0.68192778  0.33455006  0.83047056  1
  Na  Na15  1  0.65262328  0.33455006  0.33047056  1
  Na  Na16  1  0.35345645  0.69220713  0.15824705  1
  Na  Na17  1  0.33874968  0.69220713  0.65824705  1
  Mg  Mg0  1  0.01322296  0.00597487  0.34908888  1
  Mg  Mg1  1  0.99275192  0.00597487  0.84908888  1
  Mg  Mg2  1  0.97929629  0.97402837  0.65146924  1
  Mg  Mg3  1  0.99473208  0.97402837  0.15146924  1
  Mg  Mg4  1  0.67813591  0.33449930  0.68308540  1
  Mg  Mg5  1  0.65636439  0.33449930  0.18308540  1
  Mg  Mg6  1  0.66907881  0.33529658  0.98307882  1
  Mg  Mg7  1  0.66621877  0.33529658  0.48307882  1
  Mg  Mg8  1  0.33208378  0.65965184  0.01819252  1
  Mg  Mg9  1  0.32756706  0.65965184  0.51819252  1
  Ta  Ta0  1  0.33992651  0.66207971  0.31473566  1
  Ta  Ta1  1  0.32215220  0.66207971  0.81473566  1
  Si  Si0  1  0.29701516  0.00087005  0.25118535  1
  Si  Si1  1  0.71435612  0.71152753  0.25270015  1
  Si  Si2  1  0.99717141  0.71152753  0.75270015  1
  Si  Si3  1  0.70385489  0.00087005  0.75118535  1
  Si  Si4  1  0.03453225  0.36063697  0.92337969  1
  Si  Si5  1  0.32610372  0.36063697  0.42337969  1
  S  S0  1  0.00233460  0.29436139  0.24933775  1
  S  S1  1  0.29202679  0.29436139  0.74933775  1
  S  S2  1  0.96404815  0.33383664  0.58360621  1
  S  S3  1  0.36966859  0.03807188  0.58207528  1
  S  S4  1  0.66753688  0.62955374  0.58266280  1
  S  S5  1  0.96201786  0.62955374  0.08266280  1
  S  S6  1  0.66840429  0.03807188  0.08207528  1
  S  S7  1  0.36978949  0.33383664  0.08360621  1
  S  S8  1  0.62040961  0.66268502  0.91880401  1
  S  S9  1  0.33284332  0.95758303  0.91861851  1
  S  S10  1  0.62473871  0.95758303  0.41861851  1
  S  S11  1  0.04227440  0.66268502  0.41880401  1
  O  O0  1  0.22727296  0.04435887  0.31154894  1
  O  O1  1  0.81573297  0.78915183  0.31473254  1
  O  O2  1  0.97299736  0.18704363  0.30211637  1
  O  O3  1  0.21404627  0.18704363  0.80211637  1
  O  O4  1  0.97341886  0.78915183  0.81473254  1
  O  O5  1  0.81708591  0.04435887  0.81154894  1
  O  O6  1  0.78091791  0.94753585  0.69574199  1
  O  O7  1  0.18789564  0.23102093  0.69488031  1
  O  O8  1  0.06394007  0.84440355  0.69733060  1
  O  O9  1  0.78046348  0.84440355  0.19733060  1
  O  O10  1  0.04312529  0.23102093  0.19488031  1
  O  O11  1  0.16661794  0.94753585  0.19574199  1
  O  O12  1  0.88319301  0.34783102  0.63980896  1
  O  O13  1  0.47116368  0.12121908  0.63725636  1
  O  O14  1  0.64440744  0.52097177  0.63678534  1
  O  O15  1  0.87656534  0.52097177  0.13678534  1
  O  O16  1  0.65005640  0.12121908  0.13725636  1
  O  O17  1  0.46463901  0.34783102  0.13980896  1
  O  O18  1  0.45965807  0.31737634  0.03097445  1
  O  O19  1  0.86185085  0.54294442  0.02792840  1
  O  O20  1  0.68498631  0.14419345  0.02812860  1
  O  O21  1  0.45920814  0.14419345  0.52812860  1
  O  O22  1  0.68109457  0.54294442  0.52792840  1
  O  O23  1  0.85771928  0.31737634  0.53097445  1
  O  O24  1  0.53576965  0.69124953  0.96925534  1
  O  O25  1  0.14380551  0.46072580  0.98091310  1
  O  O26  1  0.31240613  0.84790959  0.96999800  1
  O  O27  1  0.53550246  0.84790959  0.46999800  1
  O  O28  1  0.31691929  0.46072580  0.48091310  1
  O  O29  1  0.15547888  0.69124953  0.46925534  1
  O  O30  1  0.12656142  0.64730589  0.36185968  1
  O  O31  1  0.51238904  0.87130387  0.36208891  1
  O  O32  1  0.34632583  0.49350470  0.36353106  1
  O  O33  1  0.14717787  0.49350470  0.86353106  1
  O  O34  1  0.35891384  0.87130387  0.86208891  1
  O  O35  1  0.52074347  0.64730589  0.86185968  1
  O  O36  1  0.01895855  0.81457063  0.41369517  1
  O  O37  1  0.79163028  0.96964615  0.41085428  1
  O  O38  1  0.15901046  0.17162989  0.41597912  1
  O  O39  1  0.01261943  0.17162989  0.91597912  1
  O  O40  1  0.17801587  0.96964615  0.91085428  1
  O  O41  1  0.79561208  0.81457063  0.91369517  1
  O  O42  1  0.99048920  0.18212047  0.58644777  1
  O  O43  1  0.20086713  0.03156741  0.58537970  1
  O  O44  1  0.82388242  0.80062754  0.58569667  1
  O  O45  1  0.97674512  0.80062754  0.08569667  1
  O  O46  1  0.83070027  0.03156741  0.08537970  1
  O  O47  1  0.19163127  0.18212047  0.08644777  1
  O  O48  1  0.66041247  0.15612260  0.74251708  1
  O  O49  1  0.46816882  0.32319171  0.74194456  1
  O  O50  1  0.83207266  0.51908926  0.74345126  1
  O  O51  1  0.68701760  0.51908926  0.24345126  1
  O  O52  1  0.85502389  0.32319171  0.24194456  1
  O  O53  1  0.49571112  0.15612260  0.24251708  1
  O  O54  1  0.63310277  0.50445440  0.92274364  1
  O  O55  1  0.84796990  0.35533993  0.91904315  1
  O  O56  1  0.49112224  0.12714888  0.92058914  1
  O  O57  1  0.63602764  0.12714888  0.42058914  1
  O  O58  1  0.50737103  0.35533993  0.41904315  1
  O  O59  1  0.87135264  0.50445440  0.42274364  1
  O  O60  1  0.35412022  0.49277507  0.08045304  1
  O  O61  1  0.13610681  0.64605372  0.08025061  1
  O  O62  1  0.51553004  0.86362085  0.07710812  1
  O  O63  1  0.34808981  0.86362085  0.57710812  1
  O  O64  1  0.50994591  0.64605372  0.58025061  1
  O  O65  1  0.13865385  0.49277507  0.58045304  1
  O  O66  1  0.31093344  0.82010261  0.26258326  1
  O  O67  1  0.50850195  0.67661606  0.26116237  1
  O  O68  1  0.15977961  0.47488937  0.25908707  1
  O  O69  1  0.31510876  0.47488937  0.75908707  1
  O  O70  1  0.16811311  0.67661606  0.76116237  1
  O  O71  1  0.50916816  0.82010261  0.76258326  1
loop_
_geom_bond_atom_site_label_1
_geom_bond_atom_site_label_2
_geom_bond_distance
_geom_bond_site_symmetry_2
Na0 O53 2.340778 1_555
Na0 O9 2.498969 1_545
Na0 O16 2.502645 1_555
Na0 O52 2.529231 1_555
Na0 O67 2.594820 1_545
Na0 O66 2.642421 1_545
Na0 O2 2.932932 1_555
Na0 O31 2.974309 1_545
Na1 O51 2.410161 1_555
Na1 O53 2.436816 1_555
Na1 O17 2.574107 1_555
Na1 O67 2.584071 1_555
Na1 O0 2.729433 1_555
Na1 O68 2.736016 1_555
Na1 O10 2.927862 1_555
Na1 O32 2.942450 1_555
Na2 O51 2.408832 1_555
Na2 O66 2.494340 1_655
Na2 O11 2.512416 1_655
Na2 O52 2.603593 1_555
Na2 O15 2.667976 1_555
Na2 O68 2.719129 1_655
Na2 O30 2.896588 1_655
Na2 O1 2.906967 1_555
Na3 O50 2.408840 1_555
Na3 O71 2.494348 1_555
Na3 O6 2.512416 1_555
Na3 O49 2.603592 1_555
Na3 O14 2.667977 1_555
Na3 O69 2.719137 1_555
Na3 O35 2.896592 1_555
Na3 O4 2.906967 1_555
Na4 O50 2.410154 1_555
Na4 O48 2.436809 1_555
Na4 O12 2.574104 1_555
Na4 O70 2.584070 1_655
Na4 O5 2.729433 1_555
Na4 O69 2.736008 1_655
Na4 O7 2.927862 1_655
Na4 O33 2.942447 1_655
Na5 O48 2.340785 1_555
Na5 O8 2.498969 1_545
Na5 O13 2.502646 1_555
Na5 O49 2.529229 1_555
Na5 O70 2.594821 1_545
Na5 O71 2.642413 1_545
Na5 O3 2.932932 1_555
Na5 O34 2.974307 1_545
Na6 O28 2.355787 1_555
Na6 O43 2.418022 1_555
Na6 O42 2.432868 1_455
Na6 O64 2.462438 1_555
Na6 O65 2.493319 1_555
Na6 O7 2.839856 1_555
Na6 O21 2.928261 1_555
Na6 O14 3.012553 1_555
Na7 O25 2.355784 1_554
Na7 O46 2.418023 1_455
Na7 O47 2.432860 1_555
Na7 O61 2.462442 1_555
Na7 O60 2.493303 1_555
Na7 O10 2.839855 1_555
Na7 O20 2.928261 1_455
Na7 O15 3.012553 1_455
Na8 O55 2.368638 1_555
Na8 O4 2.447687 1_555
Na8 O40 2.492941 1_655
Na8 O41 2.523067 1_555
Na8 O54 2.570402 1_555
Na8 O19 2.758947 1_556
Na9 O39 2.302416 1_655
Na9 O5 2.391350 1_555
Na9 O55 2.407638 1_555
Na9 O56 2.497417 1_555
Na9 O41 2.514202 1_545
Na9 O20 2.828243 1_556
Na10 O38 2.302408 1_555
Na10 O0 2.391346 1_555
Na10 O58 2.407640 1_555
Na10 O57 2.497435 1_555
Na10 O36 2.514195 1_545
Na10 O21 2.828248 1_555
Na11 O58 2.368635 1_555
Na11 O1 2.447689 1_555
Na11 O37 2.492939 1_555
Na11 O36 2.523075 1_655
Na11 O59 2.570418 1_555
Na11 O22 2.758949 1_555
Na12 O38 2.347150 1_555
Na12 O42 2.465869 1_455
Na12 O43 2.576618 1_555
Na12 O44 2.607989 1_445
Na12 O37 2.631853 1_445
Na12 O36 2.718177 1_545
Na13 O39 2.347150 1_554
Na13 O47 2.465869 1_555
Na13 O46 2.576618 1_455
Na13 O45 2.607989 1_445
Na13 O40 2.631853 1_544
Na13 O41 2.718177 1_444
Na14 O55 2.430706 1_555
Na14 O50 2.465237 1_555
Na14 O48 2.485598 1_555
Na14 O56 2.689188 1_555
Na14 O49 2.726293 1_555
Na14 O54 2.732755 1_555
Na15 O58 2.430706 1_555
Na15 O51 2.465237 1_555
Na15 O53 2.485598 1_555
Na15 O57 2.689188 1_555
Na15 O52 2.726293 1_555
Na15 O59 2.732755 1_555
Na16 O62 2.346764 1_555
Na16 O61 2.496475 1_555
Na16 O60 2.502626 1_555
Na16 O66 2.712769 1_555
Na16 O67 2.728895 1_555
Na16 O68 2.910756 1_555
Na17 O63 2.346764 1_555
Na17 O64 2.496475 1_555
Na17 O65 2.502626 1_555
Na17 O71 2.712769 1_555
Na17 O70 2.728895 1_555
Na17 O69 2.910756 1_555
Mg0 O0 1.967654 1_555
Mg0 O1 2.020717 1_445
Mg0 O38 2.056292 1_555
Mg0 O2 2.110306 1_455
Mg0 O36 2.260065 1_545
Mg0 O37 2.310397 1_445
Mg1 O5 1.967654 1_555
Mg1 O4 2.020717 1_545
Mg1 O39 2.056292 1_655
Mg1 O3 2.110306 1_655
Mg1 O41 2.260065 1_545
Mg1 O40 2.310397 1_645
Mg2 O6 1.949419 1_555
Mg2 O8 1.966377 1_655
Mg2 O44 2.091643 1_555
Mg2 O43 2.321514 1_665
Mg2 O42 2.323758 1_565
Mg2 O7 2.338031 1_665
Mg3 O11 1.949419 1_655
Mg3 O9 1.966377 1_555
Mg3 O45 2.091643 1_555
Mg3 O46 2.321514 1_565
Mg3 O47 2.323758 1_665
Mg3 O10 2.338031 1_665
Mg4 O48 2.019711 1_555
Mg4 O12 2.034428 1_555
Mg4 O50 2.049728 1_555
Mg4 O14 2.112437 1_555
Mg4 O13 2.151053 1_555
Mg4 O49 2.263422 1_555
Mg5 O53 2.019711 1_555
Mg5 O17 2.034428 1_555
Mg5 O51 2.049728 1_555
Mg5 O15 2.112437 1_555
Mg5 O16 2.151053 1_555
Mg5 O52 2.263422 1_555
Mg6 O20 2.052050 1_556
Mg6 O19 2.064927 1_556
Mg6 O55 2.093347 1_555
Mg6 O18 2.103359 1_556
Mg6 O54 2.169252 1_555
Mg6 O56 2.242281 1_555
Mg7 O21 2.052050 1_555
Mg7 O22 2.064927 1_555
Mg7 O58 2.093347 1_555
Mg7 O23 2.103359 1_555
Mg7 O59 2.169252 1_555
Mg7 O57 2.242281 1_555
Mg8 O25 1.932536 1_554
Mg8 O24 2.029228 1_554
Mg8 O26 2.081859 1_554
Mg8 O60 2.121342 1_555
Mg8 O62 2.191206 1_555
Mg8 O61 2.199014 1_555
Mg9 O28 1.932536 1_555
Mg9 O29 2.029228 1_555
Mg9 O27 2.081859 1_555
Mg9 O65 2.121342 1_555
Mg9 O63 2.191206 1_555
Mg9 O64 2.199014 1_555
O0 Si0 1.617168 1_555
O1 Si1 1.615132 1_555
O2 S0 1.457070 1_655
O3 S1 1.457070 1_555
O4 Si2 1.615132 1_555
O5 Si3 1.617168 1_555
O6 Si3 1.607231 1_565
O7 S1 1.467383 1_555
O8 Si2 1.607031 1_455
O9 Si1 1.607031 1_555
O10 S0 1.467383 1_555
O11 Si0 1.607231 1_565
O12 S2 1.488292 1_555
O13 S3 1.495020 1_555
O14 S4 1.497208 1_555
O15 S5 1.497208 1_555
O16 S6 1.495020 1_555
O17 S7 1.488292 1_555
O18 S7 1.476660 1_555
O19 S5 1.489070 1_555
O20 S6 1.493222 1_555
O21 S3 1.493222 1_555
O22 S4 1.489070 1_555
O23 S2 1.476660 1_555
O24 S8 1.454462 1_555
O25 Si4 1.596864 1_555
O26 S9 1.459219 1_555
O27 S10 1.459219 1_555
O28 Si5 1.596864 1_555
O29 S11 1.454462 1_555
O30 S11 1.523047 1_555
O30 Ta0 2.136272 1_555
O31 S10 1.562082 1_555
O31 Ta0 2.037442 1_555
O32 Si5 1.735554 1_555
O32 Ta0 1.885957 1_555
O33 Si4 1.735554 1_555
O33 Ta1 1.885957 1_555
O34 S9 1.562082 1_555
O34 Ta1 2.037442 1_555
O35 S8 1.523047 1_555
O35 Ta1 2.136272 1_555
O36 S11 1.484639 1_555
O37 S10 1.462619 1_555
O38 Si5 1.616776 1_555
O39 Si4 1.616780 1_555
O40 S9 1.462610 1_555
O41 S8 1.484644 1_555
O42 S2 1.497458 1_555
O43 S3 1.494248 1_555
O44 S4 1.476217 1_555
O45 S5 1.476221 1_555
O46 S6 1.494239 1_555
O47 S7 1.497464 1_555
O48 Si3 1.637123 1_555
O49 S1 1.483355 1_555
O50 Si2 1.632897 1_555
O51 Si1 1.632900 1_555
O52 S0 1.483346 1_655
O53 Si0 1.637129 1_555
O54 S8 1.484035 1_555
O55 Si4 1.660393 1_655
O56 S9 1.475373 1_545
O57 S10 1.475365 1_545
O58 Si5 1.660411 1_555
O59 S11 1.484025 1_655
O60 S7 1.504617 1_555
O61 S5 1.500626 1_455
O62 S6 1.483509 1_565
O63 S3 1.483501 1_565
O64 S4 1.500644 1_555
O65 S2 1.504606 1_455
O66 Si0 1.707955 1_565
O66 Ta0 1.948613 1_555
O67 Si1 1.729200 1_555
O67 Ta0 1.885496 1_555
O68 S0 1.544065 1_555
O68 Ta0 2.070088 1_555
O69 S1 1.544069 1_555
O69 Ta1 2.070088 1_555
O70 Si2 1.729191 1_455
O70 Ta1 1.885496 1_555
O71 Si3 1.707960 1_565
O71 Ta1 1.948613 1_555
