# generated using pymatgen
data_MgCo6O7F5
_symmetry_space_group_name_H-M   'P 1'
_cell_length_a   5.18246907
_cell_length_b   5.22490297
_cell_length_c   8.56299699
_cell_angle_alpha   90.48023766
_cell_angle_beta   88.70909174
_cell_angle_gamma   104.50924562
_symmetry_Int_Tables_number   1
_chemical_formula_structural   MgCo6O7F5
_chemical_formula_sum   'Mg1 Co6 O7 F5'
_cell_volume   224.41517712
_cell_formula_units_Z   1
loop_
 _symmetry_equiv_pos_site_id
 _symmetry_equiv_pos_as_xyz
  1  'x, y, z'
loop_
 _atom_site_type_symbol
 _atom_site_label
 _atom_site_symmetry_multiplicity
 _atom_site_fract_x
 _atom_site_fract_y
 _atom_site_fract_z
 _atom_site_occupancy
  Mg  Mg0  1  0.48416064  0.98836361  0.66477919  1
  Co  Co0  1  0.04988112  0.95889399  0.03163528  1
  Co  Co1  1  0.01314283  0.98765412  0.32853049  1
  Co  Co2  1  0.98874706  0.02128532  0.67337829  1
  Co  Co3  1  0.45281203  0.55122943  0.16925727  1
  Co  Co4  1  0.52727883  0.48406555  0.84365481  1
  Co  Co5  1  0.50707898  0.49438712  0.49575101  1
  O  O0  1  0.21140144  0.79954699  0.17085672  1
  O  O1  1  0.30066954  0.32287682  0.33298324  1
  O  O2  1  0.30990284  0.31664820  0.00789805  1
  O  O3  1  0.32486390  0.30006274  0.66963308  1
  O  O4  1  0.67662538  0.70264954  0.66929123  1
  O  O5  1  0.69643726  0.69096577  0.00757147  1
  O  O6  1  0.68446473  0.69232182  0.33020746  1
  F  F0  1  0.19580783  0.84299792  0.82919707  1
  F  F1  1  0.19891300  0.83863979  0.51260829  1
  F  F2  1  0.84681697  0.15058142  0.15994442  1
  F  F3  1  0.75275575  0.18409026  0.81870545  1
  F  F4  1  0.77823889  0.15884660  0.50554718  1
loop_
_geom_bond_atom_site_label_1
_geom_bond_atom_site_label_2
_geom_bond_distance
_geom_bond_site_symmetry_2
Mg0 O4 1.993421 1_555
Mg0 O3 2.001649 1_565
Co0 O0 1.796082 1_555
Co0 F2 1.943024 1_465
Co0 O2 2.020674 1_565
Co0 O5 2.021054 1_455
Co0 F0 2.023947 1_554
Co1 O6 1.991229 1_455
Co1 O1 1.995822 1_565
Co1 F2 1.999004 1_465
Co1 O0 2.065394 1_555
Co1 F1 2.117123 1_555
Co1 F4 2.240416 1_465
Co2 O3 1.970751 1_655
Co2 O4 2.010378 1_545
Co2 F3 2.050110 1_555
Co2 F4 2.062278 1_555
Co2 F0 2.094228 1_645
Co2 F1 2.103205 1_645
Co3 O6 1.870367 1_555
Co3 O1 1.875537 1_555
Co3 O5 1.876255 1_555
Co3 O2 1.876910 1_555
Co3 O0 2.015209 1_555
Co4 O5 1.860766 1_556
Co4 O2 1.862185 1_556
Co4 O4 1.914749 1_555
Co4 O3 1.945847 1_555
Co4 F3 2.183690 1_555
Co5 O6 1.847586 1_555
Co5 O1 1.858994 1_555
Co5 O3 1.902938 1_555
Co5 O4 1.927962 1_555
Co5 F4 2.509521 1_555
F0 Mg0 2.036334 1_555
F1 Mg0 1.996362 1_555
F3 Mg0 2.016814 1_545
F4 Mg0 2.054705 1_545
