# generated using pymatgen
data_MgMnV2O6
_symmetry_space_group_name_H-M   'P 1'
_cell_length_a   3.94528501
_cell_length_b   5.19470858
_cell_length_c   6.71712508
_cell_angle_alpha   113.98940774
_cell_angle_beta   90.00088889
_cell_angle_gamma   112.32366226
_symmetry_Int_Tables_number   1
_chemical_formula_structural   MgMnV2O6
_chemical_formula_sum   'Mg1 Mn1 V2 O6'
_cell_volume   114.38786094
_cell_formula_units_Z   1
loop_
 _symmetry_equiv_pos_site_id
 _symmetry_equiv_pos_as_xyz
  1  'x, y, z'
loop_
 _atom_site_type_symbol
 _atom_site_label
 _atom_site_symmetry_multiplicity
 _atom_site_fract_x
 _atom_site_fract_y
 _atom_site_fract_z
 _atom_site_occupancy
  Mg  Mg0  1  0.46799900  0.93549100  0.25002600  1
  Mn  Mn0  1  0.98449500  0.96833900  0.95489700  1
  V  V0  1  0.80850000  0.61656200  0.38492900  1
  V  V1  1  0.18588000  0.37129700  0.62386300  1
  O  O0  1  0.64417600  0.28820500  0.13088800  1
  O  O1  1  0.35240600  0.70423800  0.90134300  1
  O  O2  1  0.97645500  0.95243600  0.27923200  1
  O  O3  1  0.02345000  0.04661900  0.68313400  1
  O  O4  1  0.69599300  0.39148400  0.57034300  1
  O  O5  1  0.31600300  0.63157800  0.42504900  1
loop_
_geom_bond_atom_site_label_1
_geom_bond_atom_site_label_2
_geom_bond_distance
_geom_bond_site_symmetry_2
Mg0 O2 1.980427 1_555
Mg0 O2 1.980580 1_455
Mg0 O1 2.105392 1_554
Mg0 O0 2.169216 1_565
Mg0 O5 2.241476 1_555
Mg0 O4 2.299252 1_565
Mn0 O3 2.019266 1_665
Mn0 O2 2.213251 1_556
Mn0 O1 2.286919 1_655
Mn0 O1 2.286940 1_555
Mn0 O0 2.459580 1_666
Mn0 O0 2.461463 1_566
O0 V0 1.742062 1_555
O1 V1 1.847277 1_555
O2 V0 2.028882 1_555
O2 V1 2.305301 1_665
O3 V1 1.771654 1_555
O3 V0 2.155074 1_445
O4 V0 1.976126 1_555
O4 V1 2.015028 1_655
O4 V1 2.015170 1_555
O5 V0 1.987947 1_455
O5 V0 1.988009 1_555
O5 V1 2.194558 1_555
