# generated using pymatgen
data_MgBi4(MoO6)2
_symmetry_space_group_name_H-M   'P 1'
_cell_length_a   5.57577159
_cell_length_b   5.70843344
_cell_length_c   9.14695219
_cell_angle_alpha   108.18222821
_cell_angle_beta   89.83980525
_cell_angle_gamma   89.99999601
_symmetry_Int_Tables_number   1
_chemical_formula_structural   MgBi4(MoO6)2
_chemical_formula_sum   'Mg1 Bi4 Mo2 O12'
_cell_volume   276.59959524
_cell_formula_units_Z   1
loop_
 _symmetry_equiv_pos_site_id
 _symmetry_equiv_pos_as_xyz
  1  'x, y, z'
loop_
 _atom_site_type_symbol
 _atom_site_label
 _atom_site_symmetry_multiplicity
 _atom_site_fract_x
 _atom_site_fract_y
 _atom_site_fract_z
 _atom_site_occupancy
  Mg  Mg0  1  0.00000000  0.50000000  0.00000000  1
  Bi  Bi0  1  0.53944200  0.17220500  0.34441000  1
  Bi  Bi1  1  0.46055800  0.82779500  0.65559000  1
  Bi  Bi2  1  0.02041000  0.31805000  0.63610100  1
  Bi  Bi3  1  0.97959000  0.68195000  0.36389900  1
  Mo  Mo0  1  0.00000000  0.00000000  0.00000000  1
  Mo  Mo1  1  0.50000000  0.50000000  0.00000000  1
  O  O0  1  0.12155800  0.89769700  0.79539300  1
  O  O1  1  0.63940700  0.59926300  0.19852700  1
  O  O2  1  0.25066600  0.50599600  0.50632200  1
  O  O3  1  0.23539000  0.29568200  0.06761300  1
  O  O4  1  0.74933400  0.49400400  0.49367800  1
  O  O5  1  0.76461000  0.22807000  0.93238700  1
  O  O6  1  0.36059300  0.40073700  0.80147300  1
  O  O7  1  0.76461000  0.70431800  0.93238700  1
  O  O8  1  0.23539000  0.77193000  0.06761300  1
  O  O9  1  0.87844200  0.10230300  0.20460700  1
  O  O10  1  0.74933400  0.99967400  0.49367800  1
  O  O11  1  0.25066600  0.00032600  0.50632200  1
loop_
_geom_bond_atom_site_label_1
_geom_bond_atom_site_label_2
_geom_bond_distance
_geom_bond_site_symmetry_2
Mg0 O8 1.979928 1_555
Mg0 O5 1.979928 1_454
Mg0 O3 1.979932 1_555
Mg0 O7 1.979932 1_454
Mg0 O6 2.645469 1_554
Mg0 O1 2.645469 1_455
Bi0 O9 2.243952 1_555
Bi0 O10 2.247650 1_545
Bi0 O4 2.247650 1_555
Bi0 O2 2.577234 1_555
Bi0 O11 2.577234 1_555
Bi1 O0 2.243952 1_555
Bi1 O11 2.247650 1_565
Bi1 O2 2.247650 1_555
Bi1 O4 2.577234 1_555
Bi1 O10 2.577234 1_555
Bi2 O11 2.234905 1_555
Bi2 O2 2.234909 1_555
Bi2 O6 2.383096 1_555
Bi2 O10 2.412072 1_445
Bi2 O4 2.412075 1_455
Bi3 O10 2.234905 1_555
Bi3 O4 2.234909 1_555
Bi3 O1 2.383096 1_555
Bi3 O11 2.412072 1_665
Bi3 O2 2.412075 1_655
Mo0 O0 1.901018 1_544
Mo0 O9 1.901018 1_455
Mo0 O7 2.075358 1_444
Mo0 O3 2.075358 1_555
Mo0 O5 2.075362 1_454
Mo0 O8 2.075362 1_545
Mo1 O1 1.894351 1_555
Mo1 O6 1.894351 1_554
Mo1 O8 2.089184 1_555
Mo1 O5 2.089184 1_554
Mo1 O7 2.089188 1_554
Mo1 O3 2.089188 1_555
