# generated using pymatgen
data_In4Ag9
_symmetry_space_group_name_H-M   'P 1'
_cell_length_a   9.93978737
_cell_length_b   9.93978737
_cell_length_c   9.93978737
_cell_angle_alpha   90.00000000
_cell_angle_beta   90.00000000
_cell_angle_gamma   90.00000000
_symmetry_Int_Tables_number   1
_chemical_formula_structural   In4Ag9
_chemical_formula_sum   'In16 Ag36'
_cell_volume   982.04475952
_cell_formula_units_Z   4
loop_
 _symmetry_equiv_pos_site_id
 _symmetry_equiv_pos_as_xyz
  1  'x, y, z'
loop_
 _atom_site_type_symbol
 _atom_site_label
 _atom_site_symmetry_multiplicity
 _atom_site_fract_x
 _atom_site_fract_y
 _atom_site_fract_z
 _atom_site_occupancy
  In  In0  1  0.19000689  0.19000689  0.53434047  1
  In  In1  1  0.80999311  0.46565953  0.19000689  1
  In  In2  1  0.46565953  0.80999311  0.19000689  1
  In  In3  1  0.80999311  0.53434047  0.80999311  1
  In  In4  1  0.53434047  0.80999311  0.80999311  1
  In  In5  1  0.19000689  0.80999311  0.46565953  1
  In  In6  1  0.80999311  0.19000689  0.46565953  1
  In  In7  1  0.53434047  0.19000689  0.19000689  1
  In  In8  1  0.46565953  0.19000689  0.80999311  1
  In  In9  1  0.19000689  0.46565953  0.80999311  1
  In  In10  1  0.19000689  0.53434047  0.19000689  1
  In  In11  1  0.80999311  0.80999311  0.53434047  1
  In  In12  1  0.12227538  0.87772462  0.87772462  1
  In  In13  1  0.87772462  0.87772462  0.12227538  1
  In  In14  1  0.87772462  0.12227538  0.87772462  1
  In  In15  1  0.12227538  0.12227538  0.12227538  1
  Ag  Ag0  1  0.68273669  0.68273669  0.02971219  1
  Ag  Ag1  1  0.31726331  0.97028781  0.68273669  1
  Ag  Ag2  1  0.97028781  0.31726331  0.68273669  1
  Ag  Ag3  1  0.31726331  0.02971219  0.31726331  1
  Ag  Ag4  1  0.02971219  0.31726331  0.31726331  1
  Ag  Ag5  1  0.68273669  0.31726331  0.97028781  1
  Ag  Ag6  1  0.31726331  0.68273669  0.97028781  1
  Ag  Ag7  1  0.02971219  0.68273669  0.68273669  1
  Ag  Ag8  1  0.97028781  0.68273669  0.31726331  1
  Ag  Ag9  1  0.68273669  0.97028781  0.31726331  1
  Ag  Ag10  1  0.68273669  0.02971219  0.68273669  1
  Ag  Ag11  1  0.31726331  0.31726331  0.02971219  1
  Ag  Ag12  1  0.50000000  0.50000000  0.14388377  1
  Ag  Ag13  1  0.85611623  0.50000000  0.50000000  1
  Ag  Ag14  1  0.14388377  0.50000000  0.50000000  1
  Ag  Ag15  1  0.50000000  0.14388377  0.50000000  1
  Ag  Ag16  1  0.60484466  0.60484466  0.60484466  1
  Ag  Ag17  1  0.39515534  0.60484466  0.39515534  1
  Ag  Ag18  1  0.39515534  0.39515534  0.60484466  1
  Ag  Ag19  1  0.60484466  0.39515534  0.39515534  1
  Ag  Ag20  1  0.82947562  0.82947562  0.82947562  1
  Ag  Ag21  1  0.17052438  0.82947562  0.17052438  1
  Ag  Ag22  1  0.17052438  0.17052438  0.82947562  1
  Ag  Ag23  1  0.82947562  0.17052438  0.17052438  1
  Ag  Ag24  1  0.32497906  0.32497906  0.32497906  1
  Ag  Ag25  1  0.67502094  0.32497906  0.67502094  1
  Ag  Ag26  1  0.67502094  0.67502094  0.32497906  1
  Ag  Ag27  1  0.32497906  0.67502094  0.67502094  1
  Ag  Ag28  1  0.00000000  -0.00000000  0.35681135  1
  Ag  Ag29  1  0.00000000  0.35681135  0.00000000  1
  Ag  Ag30  1  0.00000000  0.64318865  0.00000000  1
  Ag  Ag31  1  0.64318865  -0.00000000  0.00000000  1
  Ag  Ag32  1  0.35681135  -0.00000000  0.00000000  1
  Ag  Ag33  1  0.00000000  -0.00000000  0.64318865  1
  Ag  Ag34  1  0.50000000  0.50000000  0.85611623  1
  Ag  Ag35  1  0.50000000  0.85611623  0.50000000  1
loop_
_geom_bond_atom_site_label_1
_geom_bond_atom_site_label_2
_geom_bond_distance
_geom_bond_site_symmetry_2
Ag0 Ag12 2.808241 1_555
Ag0 Ag20 2.866372 1_554
Ag0 In13 2.891240 1_555
Ag0 In4 2.923246 1_554
Ag0 In3 2.923246 1_554
Ag0 Ag26 2.936893 1_555
Ag0 In1 2.965508 1_555
Ag0 In2 2.965508 1_555
Ag0 Ag34 3.094468 1_554
Ag0 Ag30 3.191629 1_655
Ag0 Ag31 3.191629 1_565
Ag1 Ag35 2.808241 1_555
Ag1 Ag22 2.866372 1_565
Ag1 In12 2.891240 1_555
Ag1 In8 2.923246 1_565
Ag1 In0 2.923246 1_565
Ag1 Ag27 2.936893 1_555
Ag1 In4 2.965508 1_555
Ag1 In5 2.965508 1_555
Ag1 Ag15 3.094468 1_565
Ag1 Ag32 3.191629 1_566
Ag1 Ag33 3.191629 1_565
Ag2 Ag22 2.866372 1_655
Ag2 In14 2.891240 1_555
Ag2 In9 2.923246 1_655
Ag2 In0 2.923246 1_655
Ag2 Ag25 2.936893 1_555
Ag2 In3 2.965508 1_555
Ag2 In6 2.965508 1_555
Ag2 Ag29 3.191629 1_656
Ag2 Ag33 3.191629 1_655
Ag3 In15 2.891240 1_555
Ag3 In2 2.923246 1_545
Ag3 In5 2.923246 1_545
Ag3 In7 2.965508 1_555
Ag3 In0 2.965508 1_555
Ag3 Ag35 3.094468 1_545
Ag3 Ag32 3.191629 1_555
Ag4 In15 2.891240 1_555
Ag4 In6 2.923246 1_455
Ag4 In1 2.923246 1_455
Ag4 In10 2.965508 1_555
Ag4 In0 2.965508 1_555
Ag5 In14 2.891240 1_555
Ag5 In1 2.923246 1_556
Ag5 In7 2.923246 1_556
Ag5 In3 2.965508 1_555
Ag5 In8 2.965508 1_555
Ag6 In12 2.891240 1_555
Ag6 In2 2.923246 1_556
Ag6 In10 2.923246 1_556
Ag6 In4 2.965508 1_555
Ag6 In9 2.965508 1_555
Ag7 In12 2.891240 1_555
Ag7 In3 2.923246 1_455
Ag7 In11 2.923246 1_455
Ag7 In5 2.965508 1_555
Ag7 In9 2.965508 1_555
Ag8 In13 2.891240 1_555
Ag8 In5 2.923246 1_655
Ag8 In10 2.923246 1_655
Ag8 In11 2.965508 1_555
Ag8 In1 2.965508 1_555
Ag9 In13 2.891240 1_555
Ag9 In6 2.923246 1_565
Ag9 In7 2.923246 1_565
Ag9 In11 2.965508 1_555
Ag9 In2 2.965508 1_555
Ag10 Ag15 2.808241 1_555
Ag10 Ag20 2.866372 1_545
Ag10 In14 2.891240 1_555
Ag10 In4 2.923246 1_545
Ag10 In11 2.923246 1_545
Ag10 Ag25 2.936893 1_555
Ag10 In6 2.965508 1_555
Ag10 In8 2.965508 1_555
Ag10 Ag35 3.094468 1_545
Ag10 Ag33 3.191629 1_655
Ag10 Ag31 3.191629 1_556
Ag11 Ag12 2.808241 1_555
Ag11 Ag22 2.866372 1_554
Ag11 In15 2.891240 1_555
Ag11 In9 2.923246 1_554
Ag11 In8 2.923246 1_554
Ag11 Ag24 2.936893 1_555
Ag11 In7 2.965508 1_555
Ag11 In10 2.965508 1_555
Ag11 Ag34 3.094468 1_554
Ag11 Ag29 3.191629 1_555
Ag11 Ag32 3.191629 1_555
Ag12 Ag34 2.860348 1_554
Ag12 Ag19 2.900004 1_555
Ag12 Ag17 2.900004 1_555
Ag12 Ag24 3.048456 1_555
Ag12 Ag26 3.048456 1_555
Ag12 Ag6 3.094468 1_554
Ag12 Ag5 3.094468 1_554
Ag12 In7 3.133830 1_555
Ag12 In10 3.133830 1_555
Ag12 In2 3.133830 1_555
Ag12 In1 3.133830 1_555
Ag13 Ag2 2.808241 1_555
Ag13 Ag8 2.808241 1_555
Ag13 Ag14 2.860348 1_655
Ag13 Ag19 2.900004 1_555
Ag13 Ag16 2.900004 1_555
Ag13 Ag26 3.048456 1_555
Ag13 Ag25 3.048456 1_555
Ag13 Ag4 3.094468 1_655
Ag13 Ag7 3.094468 1_655
Ag13 In1 3.133830 1_555
Ag13 In6 3.133830 1_555
Ag13 In11 3.133830 1_555
Ag13 In3 3.133830 1_555
Ag14 Ag4 2.808241 1_555
Ag14 Ag7 2.808241 1_555
Ag14 Ag18 2.900004 1_555
Ag14 Ag17 2.900004 1_555
Ag14 Ag24 3.048456 1_555
Ag14 Ag27 3.048456 1_555
Ag14 Ag2 3.094468 1_455
Ag14 Ag8 3.094468 1_455
Ag14 In10 3.133830 1_555
Ag14 In0 3.133830 1_555
Ag14 In5 3.133830 1_555
Ag14 In9 3.133830 1_555
Ag15 Ag3 2.808241 1_555
Ag15 Ag35 2.860348 1_545
Ag15 Ag18 2.900004 1_555
Ag15 Ag19 2.900004 1_555
Ag15 Ag24 3.048456 1_555
Ag15 Ag25 3.048456 1_555
Ag15 Ag9 3.094468 1_545
Ag15 In7 3.133830 1_555
Ag15 In0 3.133830 1_555
Ag15 In8 3.133830 1_555
Ag15 In6 3.133830 1_555
Ag16 Ag34 2.900004 1_555
Ag16 Ag35 2.900004 1_555
Ag16 Ag17 2.947599 1_555
Ag16 Ag19 2.947599 1_555
Ag16 Ag18 2.947599 1_555
Ag16 Ag26 2.951534 1_555
Ag16 Ag27 2.951534 1_555
Ag16 Ag25 2.951534 1_555
Ag16 In4 2.967698 1_555
Ag16 In11 2.967698 1_555
Ag16 In3 2.967698 1_555
Ag17 Ag35 2.900004 1_555
Ag17 Ag19 2.947599 1_555
Ag17 Ag18 2.947599 1_555
Ag17 Ag27 2.951534 1_555
Ag17 Ag26 2.951534 1_555
Ag17 Ag24 2.951534 1_555
Ag17 In10 2.967698 1_555
Ag17 In5 2.967698 1_555
Ag17 In2 2.967698 1_555
Ag18 Ag34 2.900004 1_555
Ag18 Ag19 2.947599 1_555
Ag18 Ag27 2.951534 1_555
Ag18 Ag25 2.951534 1_555
Ag18 Ag24 2.951534 1_555
Ag18 In9 2.967698 1_555
Ag18 In0 2.967698 1_555
Ag18 In8 2.967698 1_555
Ag19 Ag25 2.951534 1_555
Ag19 Ag26 2.951534 1_555
Ag19 Ag24 2.951534 1_555
Ag19 In6 2.967698 1_555
Ag19 In1 2.967698 1_555
Ag19 In7 2.967698 1_555
Ag20 Ag7 2.866372 1_655
Ag20 In3 2.946336 1_555
Ag20 In11 2.946336 1_555
Ag20 In4 2.946336 1_555
Ag20 In14 2.988351 1_565
Ag20 In12 2.988351 1_655
Ag20 In13 2.988351 1_556
Ag20 Ag33 3.028945 1_665
Ag20 Ag31 3.028945 1_566
Ag20 Ag30 3.028945 1_656
Ag21 Ag3 2.866372 1_565
Ag21 Ag6 2.866372 1_554
Ag21 Ag8 2.866372 1_455
Ag21 In10 2.946336 1_555
Ag21 In5 2.946336 1_555
Ag21 In2 2.946336 1_555
Ag21 In12 2.988351 1_554
Ag21 In13 2.988351 1_455
Ag21 In15 2.988351 1_565
Ag21 Ag30 3.028945 1_555
Ag21 Ag28 3.028945 1_565
Ag21 Ag32 3.028945 1_565
Ag22 In9 2.946336 1_555
Ag22 In0 2.946336 1_555
Ag22 In8 2.946336 1_555
Ag22 In12 2.988351 1_545
Ag22 In14 2.988351 1_455
Ag22 In15 2.988351 1_556
Ag22 Ag33 3.028945 1_555
Ag22 Ag32 3.028945 1_556
Ag22 Ag29 3.028945 1_556
Ag23 Ag4 2.866372 1_655
Ag23 Ag5 2.866372 1_554
Ag23 Ag9 2.866372 1_545
Ag23 In6 2.946336 1_555
Ag23 In1 2.946336 1_555
Ag23 In7 2.946336 1_555
Ag23 In14 2.988351 1_554
Ag23 In13 2.988351 1_545
Ag23 In15 2.988351 1_655
Ag23 Ag31 3.028945 1_555
Ag23 Ag28 3.028945 1_655
Ag23 Ag29 3.028945 1_655
Ag24 In7 2.816087 1_555
Ag24 In10 2.816087 1_555
Ag24 In0 2.816087 1_555
Ag24 Ag4 2.936893 1_555
Ag24 Ag3 2.936893 1_555
Ag25 In8 2.816087 1_555
Ag25 In6 2.816087 1_555
Ag25 In3 2.816087 1_555
Ag25 Ag5 2.936893 1_555
Ag25 Ag34 3.048456 1_555
Ag26 In2 2.816087 1_555
Ag26 In1 2.816087 1_555
Ag26 In11 2.816087 1_555
Ag26 Ag8 2.936893 1_555
Ag26 Ag9 2.936893 1_555
Ag26 Ag35 3.048456 1_555
Ag27 In4 2.816087 1_555
Ag27 In5 2.816087 1_555
Ag27 In9 2.816087 1_555
Ag27 Ag7 2.936893 1_555
Ag27 Ag6 2.936893 1_555
Ag27 Ag34 3.048456 1_555
Ag27 Ag35 3.048456 1_555
Ag28 Ag33 2.846529 1_555
Ag28 In5 2.881736 1_545
Ag28 In6 2.881736 1_455
Ag28 In13 2.896381 1_445
Ag28 In15 2.896381 1_555
Ag28 Ag8 3.191629 1_445
Ag28 Ag9 3.191629 1_445
Ag28 Ag3 3.191629 1_555
Ag28 Ag4 3.191629 1_555
Ag28 In11 3.201195 1_445
Ag28 In0 3.201195 1_555
Ag29 Ag30 2.846529 1_555
Ag29 In1 2.881736 1_455
Ag29 In9 2.881736 1_554
Ag29 In14 2.896381 1_454
Ag29 In15 2.896381 1_555
Ag29 Ag5 3.191629 1_454
Ag29 Ag4 3.191629 1_555
Ag29 In3 3.201195 1_454
Ag29 In10 3.201195 1_555
Ag30 In3 2.881736 1_454
Ag30 In10 2.881736 1_555
Ag30 In12 2.896381 1_554
Ag30 In13 2.896381 1_455
Ag30 Ag7 3.191629 1_554
Ag30 Ag8 3.191629 1_455
Ag30 Ag6 3.191629 1_554
Ag30 In9 3.201195 1_554
Ag30 In1 3.201195 1_455
Ag31 Ag32 2.846529 1_555
Ag31 In4 2.881736 1_544
Ag31 In7 2.881736 1_555
Ag31 In13 2.896381 1_545
Ag31 In14 2.896381 1_554
Ag31 Ag5 3.191629 1_554
Ag31 Ag9 3.191629 1_545
Ag31 In8 3.201195 1_554
Ag31 In2 3.201195 1_545
Ag32 In8 2.881736 1_554
Ag32 In2 2.881736 1_545
Ag32 In12 2.896381 1_544
Ag32 In15 2.896381 1_555
Ag32 Ag6 3.191629 1_544
Ag32 In4 3.201195 1_544
Ag32 In7 3.201195 1_555
Ag33 In11 2.881736 1_445
Ag33 In0 2.881736 1_555
Ag33 In12 2.896381 1_545
Ag33 In14 2.896381 1_455
Ag33 Ag7 3.191629 1_545
Ag33 In5 3.201195 1_545
Ag33 In6 3.201195 1_455
Ag34 Ag6 2.808241 1_555
Ag34 Ag5 2.808241 1_555
Ag34 In9 3.133830 1_555
Ag34 In8 3.133830 1_555
Ag34 In4 3.133830 1_555
Ag34 In3 3.133830 1_555
Ag35 Ag9 2.808241 1_555
Ag35 In5 3.133830 1_555
Ag35 In2 3.133830 1_555
Ag35 In4 3.133830 1_555
Ag35 In11 3.133830 1_555
