# generated using pymatgen
data_Na7Zr2Al2Si3(PO8)3
_symmetry_space_group_name_H-M   'P 1'
_cell_length_a   9.01079892
_cell_length_b   8.95400436
_cell_length_c   22.21551815
_cell_angle_alpha   89.59421141
_cell_angle_beta   90.34896144
_cell_angle_gamma   119.90313205
_symmetry_Int_Tables_number   1
_chemical_formula_structural   Na7Zr2Al2Si3(PO8)3
_chemical_formula_sum   'Na21 Zr6 Al6 Si9 P9 O72'
_cell_volume   1553.73870093
_cell_formula_units_Z   3
loop_
 _symmetry_equiv_pos_site_id
 _symmetry_equiv_pos_as_xyz
  1  'x, y, z'
loop_
 _atom_site_type_symbol
 _atom_site_label
 _atom_site_symmetry_multiplicity
 _atom_site_fract_x
 _atom_site_fract_y
 _atom_site_fract_z
 _atom_site_occupancy
  Na  Na0  1  0.63713222  0.00385510  0.25220482  1
  Na  Na1  1  0.36316169  0.36623425  0.24714833  1
  Na  Na2  1  0.99915679  0.63123286  0.24933979  1
  Na  Na3  1  0.63249514  0.63564733  0.75024685  1
  Na  Na4  1  0.99474985  0.36428556  0.75031215  1
  Na  Na5  1  0.37120063  0.00070346  0.74831756  1
  Na  Na6  1  0.03365058  0.69885564  0.58368946  1
  Na  Na7  1  0.66492167  0.97092870  0.58344636  1
  Na  Na8  1  0.66511044  0.69267483  0.08207649  1
  Na  Na9  1  0.03387354  0.33601637  0.08557762  1
  Na  Na10  1  0.96228267  0.66431879  0.91881102  1
  Na  Na11  1  0.70177472  0.03191943  0.91619956  1
  Na  Na12  1  0.33910092  0.30293883  0.91775938  1
  Na  Na13  1  0.96631660  0.30201862  0.41536467  1
  Na  Na14  1  0.33407020  0.02786970  0.41816019  1
  Na  Na15  1  0.00067336  0.99902341  0.50059406  1
  Na  Na16  1  0.00984452  0.99486819  0.99776823  1
  Na  Na17  1  0.66682459  0.33336873  0.83360928  1
  Na  Na18  1  0.67288037  0.34169535  0.33154547  1
  Na  Na19  1  0.32621615  0.66885401  0.16801917  1
  Na  Na20  1  0.33361055  0.66085494  0.66839547  1
  Zr  Zr0  1  0.98858331  0.99402722  0.35145515  1
  Zr  Zr1  1  0.00257427  0.00697541  0.65053872  1
  Zr  Zr2  1  0.01054576  0.00444243  0.14464098  1
  Zr  Zr3  1  0.66546238  0.33313794  0.47838159  1
  Zr  Zr4  1  0.33644413  0.67105639  0.01996149  1
  Zr  Zr5  1  0.33387530  0.66505707  0.52206767  1
  Al  Al0  1  0.99183464  0.99792657  0.84982960  1
  Al  Al1  1  0.66881826  0.32226956  0.68455206  1
  Al  Al2  1  0.67342182  0.33666018  0.18209835  1
  Al  Al3  1  0.66259253  0.34460862  0.98317562  1
  Al  Al4  1  0.32641934  0.66376083  0.31595381  1
  Al  Al5  1  0.34203637  0.66966566  0.81741210  1
  Si  Si0  1  0.99975504  0.30862179  0.24857642  1
  Si  Si1  1  0.69979799  0.99925869  0.75368702  1
  Si  Si2  1  0.95432694  0.33443827  0.58736422  1
  Si  Si3  1  0.37685835  0.04737461  0.58663499  1
  Si  Si4  1  0.94673301  0.61312738  0.08238852  1
  Si  Si5  1  0.38954172  0.33019545  0.08271111  1
  Si  Si6  1  0.63295952  0.66742231  0.91362853  1
  Si  Si7  1  0.61802455  0.94922941  0.41327624  1
  Si  Si8  1  0.04590002  0.66685443  0.41328789  1
  P  P0  1  0.30497053  0.00100433  0.25079714  1
  P  P1  1  0.69446340  0.69543195  0.24768024  1
  P  P2  1  0.29360948  0.29710187  0.75624262  1
  P  P3  1  0.00190489  0.70491128  0.75493281  1
  P  P4  1  0.66522163  0.61325011  0.59027348  1
  P  P5  1  0.66430110  0.05827080  0.08267204  1
  P  P6  1  0.04234764  0.37164858  0.91277604  1
  P  P7  1  0.33157586  0.96041393  0.91169671  1
  P  P8  1  0.33517276  0.38292112  0.41115815  1
  O  O0  1  0.22349734  0.03550940  0.30644125  1
  O  O1  1  0.81948044  0.78295517  0.30147967  1
  O  O2  1  0.96175881  0.18059844  0.30691156  1
  O  O3  1  0.20362710  0.17301239  0.80974151  1
  O  O4  1  0.97507679  0.80122104  0.80779327  1
  O  O5  1  0.83508773  0.03666604  0.80911947  1
  O  O6  1  0.77982595  0.95583979  0.69387162  1
  O  O7  1  0.17849823  0.21529365  0.69963668  1
  O  O8  1  0.04004150  0.81703459  0.69694166  1
  O  O9  1  0.77814277  0.81366743  0.19204966  1
  O  O10  1  0.03724851  0.21576756  0.19128835  1
  O  O11  1  0.17828698  0.96397333  0.19732529  1
  O  O12  1  0.86246280  0.36339786  0.64540895  1
  O  O13  1  0.49713580  0.14275442  0.64470477  1
  O  O14  1  0.64835588  0.50575856  0.64692767  1
  O  O15  1  0.86321713  0.50027639  0.14325843  1
  O  O16  1  0.64566898  0.13878099  0.14094742  1
  O  O17  1  0.50280571  0.35715363  0.14313840  1
  O  O18  1  0.47078443  0.30766506  0.02088338  1
  O  O19  1  0.83530104  0.52667283  0.02137827  1
  O  O20  1  0.68958930  0.16607437  0.02493391  1
  O  O21  1  0.45457319  0.15054507  0.52320768  1
  O  O22  1  0.69268668  0.53534150  0.53253524  1
  O  O23  1  0.84397846  0.30544896  0.52509247  1
  O  O24  1  0.55184039  0.71010227  0.97364022  1
  O  O25  1  0.15352951  0.45162579  0.97065876  1
  O  O26  1  0.29251560  0.84218626  0.96793334  1
  O  O27  1  0.54212091  0.84771355  0.47683387  1
  O  O28  1  0.30499492  0.46009452  0.46845942  1
  O  O29  1  0.15563937  0.69376783  0.47571030  1
  O  O30  1  0.13865030  0.63875545  0.35555364  1
  O  O31  1  0.49870759  0.85190729  0.35552601  1
  O  O32  1  0.35294456  0.48951821  0.35457722  1
  O  O33  1  0.13282280  0.49595501  0.85927381  1
  O  O34  1  0.35958278  0.86901078  0.85749905  1
  O  O35  1  0.49918823  0.63164851  0.85797678  1
  O  O36  1  0.03779569  0.84523184  0.41063643  1
  O  O37  1  0.81656326  0.98690541  0.41196707  1
  O  O38  1  0.17343712  0.19930700  0.40798789  1
  O  O39  1  0.02958373  0.19169068  0.90676250  1
  O  O40  1  0.17178928  0.98371841  0.90494137  1
  O  O41  1  0.82628433  0.83993640  0.90583948  1
  O  O42  1  0.96427697  0.15667885  0.58953807  1
  O  O43  1  0.17824456  0.00623152  0.58973215  1
  O  O44  1  0.82875064  0.79579173  0.59267538  1
  O  O45  1  0.95864861  0.80316034  0.08663717  1
  O  O46  1  0.82684750  0.03583338  0.08684309  1
  O  O47  1  0.18903879  0.16873300  0.08534040  1
  O  O48  1  0.68420650  0.17568789  0.74529040  1
  O  O49  1  0.47370025  0.31759301  0.74833165  1
  O  O50  1  0.83540213  0.52713153  0.74854915  1
  O  O51  1  0.67739383  0.51517232  0.24284706  1
  O  O52  1  0.82342176  0.31933402  0.24160534  1
  O  O53  1  0.48191355  0.16326492  0.24152317  1
  O  O54  1  0.64927619  0.49131151  0.92137887  1
  O  O55  1  0.86042572  0.34863853  0.91932679  1
  O  O56  1  0.49793140  0.13786061  0.91950272  1
  O  O57  1  0.63392605  0.14179843  0.41491027  1
  O  O58  1  0.49197794  0.35790294  0.41534393  1
  O  O59  1  0.85646346  0.49604237  0.41656258  1
  O  O60  1  0.36744756  0.50551609  0.07959760  1
  O  O61  1  0.13855164  0.63306086  0.07829645  1
  O  O62  1  0.50815671  0.87228353  0.07930389  1
  O  O63  1  0.36572731  0.85667225  0.58449395  1
  O  O64  1  0.50937644  0.64031048  0.58577681  1
  O  O65  1  0.14338431  0.50479841  0.58423395  1
  O  O66  1  0.32162123  0.83735746  0.25616998  1
  O  O67  1  0.51865536  0.68295592  0.25652978  1
  O  O68  1  0.17553380  0.49635487  0.25602856  1
  O  O69  1  0.30596035  0.47670326  0.76134873  1
  O  O70  1  0.16109451  0.68111318  0.76238005  1
  O  O71  1  0.50703629  0.82696185  0.76133808  1
loop_
_geom_bond_atom_site_label_1
_geom_bond_atom_site_label_2
_geom_bond_distance
_geom_bond_site_symmetry_2
Na0 O53 2.455919 1_555
Na0 O66 2.467425 1_545
Na0 O52 2.473909 1_555
Na0 O67 2.518694 1_545
Na0 O31 2.640836 1_545
Na0 O16 2.727976 1_555
Na0 O2 2.811815 1_555
Na0 O9 2.917319 1_545
Na1 O51 2.457927 1_555
Na1 O67 2.468206 1_555
Na1 O68 2.495220 1_555
Na1 O53 2.531277 1_555
Na1 O32 2.657850 1_555
Na1 O17 2.658770 1_555
Na1 O10 2.830874 1_555
Na1 O0 2.887442 1_555
Na2 O68 2.432043 1_655
Na2 O52 2.435271 1_555
Na2 O51 2.549466 1_555
Na2 O66 2.554170 1_655
Na2 O15 2.645953 1_555
Na2 O30 2.652141 1_655
Na2 O11 2.827757 1_655
Na2 O1 2.836670 1_555
Na3 O50 2.461927 1_555
Na3 O49 2.469312 1_555
Na3 O71 2.492676 1_555
Na3 O69 2.563647 1_555
Na3 O14 2.617048 1_555
Na3 O35 2.676352 1_555
Na3 O6 2.779401 1_555
Na3 O4 2.962623 1_555
Na4 O48 2.445739 1_555
Na4 O69 2.473427 1_655
Na4 O70 2.476405 1_655
Na4 O50 2.505064 1_555
Na4 O12 2.609419 1_555
Na4 O33 2.708984 1_655
Na4 O7 2.834591 1_655
Na4 O5 2.853530 1_555
Na5 O71 2.426899 1_545
Na5 O48 2.451314 1_555
Na5 O49 2.508203 1_555
Na5 O70 2.542334 1_545
Na5 O13 2.599052 1_555
Na5 O34 2.669097 1_545
Na5 O8 2.829072 1_545
Na5 O3 2.983322 1_555
Na6 O65 2.389497 1_555
Na6 O43 2.391261 1_565
Na6 O44 2.409745 1_455
Na6 O63 2.595111 1_555
Na6 O29 2.654854 1_555
Na6 O8 2.725486 1_555
Na6 O22 2.893163 1_455
Na6 O12 2.937562 1_455
Na7 O63 2.359209 1_555
Na7 O42 2.363515 1_565
Na7 O64 2.567589 1_555
Na7 O27 2.615156 1_555
Na7 O44 2.642052 1_555
Na7 O6 2.685530 1_555
Na7 O23 2.899560 1_565
Na7 O13 2.979742 1_565
Na8 O45 2.318231 1_555
Na8 O60 2.350175 1_555
Na8 O62 2.618335 1_555
Na8 O24 2.644379 1_554
Na8 O9 2.662111 1_555
Na8 O46 2.667236 1_565
Na8 O17 2.930906 1_555
Na8 O19 2.950553 1_555
Na9 O61 2.341884 1_555
Na9 O46 2.388603 1_455
Na9 O47 2.507344 1_555
Na9 O10 2.582878 1_555
Na9 O60 2.609449 1_555
Na9 O25 2.763159 1_554
Na10 O41 2.442972 1_555
Na10 O54 2.449940 1_555
Na10 O55 2.499034 1_555
Na10 O40 2.539547 1_655
Na10 O19 2.570227 1_556
Na10 O4 2.723672 1_555
Na10 O26 2.800311 1_655
Na10 O33 2.957422 1_655
Na11 O56 2.453349 1_555
Na11 O55 2.459712 1_555
Na11 O41 2.489666 1_545
Na11 O39 2.570130 1_655
Na11 O5 2.661987 1_555
Na11 O20 2.732382 1_556
Na11 O24 2.800759 1_545
Na11 O34 2.971403 1_545
Na12 O54 2.441685 1_555
Na12 O39 2.460804 1_555
Na12 O40 2.496714 1_545
Na12 O56 2.518410 1_555
Na12 O18 2.564451 1_556
Na12 O3 2.681397 1_555
Na12 O25 2.866251 1_555
Na12 O35 2.870928 1_555
Na13 O59 2.390467 1_555
Na13 O37 2.448090 1_545
Na13 O38 2.464361 1_655
Na13 O57 2.597013 1_555
Na13 O2 2.641967 1_555
Na13 O23 2.688102 1_555
Na13 O28 2.894976 1_655
Na13 O30 2.927115 1_655
Na14 O36 2.339834 1_545
Na14 O57 2.366315 1_555
Na14 O58 2.562662 1_555
Na14 O21 2.578351 1_555
Na14 O38 2.590170 1_555
Na14 O0 2.681906 1_555
Na15 O43 2.519124 1_565
Na15 O37 2.534618 1_455
Na15 O36 2.551153 1_555
Na15 O42 2.552185 1_465
Na15 O44 2.659141 1_455
Na15 O38 2.659912 1_565
Na16 O45 2.496126 1_456
Na16 O47 2.512745 1_566
Na16 O41 2.557771 1_455
Na16 O40 2.564540 1_555
Na16 O39 2.620365 1_565
Na16 O46 2.724426 1_466
Na17 O54 2.468341 1_555
Na17 O48 2.476092 1_555
Na17 O50 2.499819 1_555
Na17 O56 2.520599 1_555
Na17 O49 2.521088 1_555
Na17 O55 2.532505 1_555
Na18 O59 2.435791 1_555
Na18 O57 2.468053 1_555
Na18 O52 2.486350 1_555
Na18 O51 2.488346 1_555
Na18 O58 2.533874 1_555
Na18 O53 2.602945 1_555
Na19 O68 2.439355 1_555
Na19 O66 2.493644 1_555
Na19 O61 2.522467 1_555
Na19 O67 2.575432 1_555
Na19 O60 2.593642 1_555
Na19 O62 2.626960 1_555
Na20 O65 2.448718 1_555
Na20 O63 2.467087 1_555
Na20 O64 2.498334 1_555
Na20 O69 2.567799 1_555
Na20 O71 2.569864 1_555
Na20 O70 2.671112 1_555
Al0 O5 1.844359 1_565
Al0 O41 1.915291 1_555
Al0 O4 1.937390 1_555
Al0 O3 1.977565 1_665
Al0 O39 2.040326 1_665
Al0 O40 2.079389 1_655
Al1 O13 1.812359 1_555
Al1 O12 1.819256 1_555
Al1 O14 1.926830 1_555
Al1 O48 1.927864 1_555
Al1 O50 2.214686 1_555
Al1 O49 2.248690 1_555
Al2 O15 1.821407 1_555
Al2 O17 1.846394 1_555
Al2 O16 1.901569 1_555
Al2 O52 1.944987 1_555
Al2 O51 2.085763 1_555
Al2 O53 2.111521 1_555
Al3 O18 1.800555 1_556
Al3 O19 1.809332 1_556
Al3 O54 1.937576 1_555
Al3 O20 1.959404 1_556
Al3 O56 2.214096 1_555
Al3 O55 2.270900 1_555
Al4 O30 1.823287 1_555
Al4 O31 1.848704 1_555
Al4 O32 1.891517 1_555
Al4 O68 1.960068 1_555
Al4 O66 2.054014 1_555
Al4 O67 2.121464 1_555
Al5 O35 1.842267 1_555
Al5 O71 1.912018 1_555
Al5 O34 1.934812 1_555
Al5 O33 1.978710 1_555
Al5 O69 2.026738 1_555
Al5 O70 2.074621 1_555
O0 P0 1.550849 1_555
O0 Zr0 2.203464 1_445
O1 P1 1.558288 1_555
O1 Zr0 2.064960 1_555
O2 Si0 1.644320 1_555
O2 Zr0 2.050536 1_545
O3 P2 1.548961 1_555
O4 P3 1.551385 1_655
O5 Si1 1.641719 1_545
O6 Si1 1.653923 1_555
O6 Zr1 2.065419 1_665
O7 P2 1.559943 1_555
O7 Zr1 2.059475 1_555
O8 P3 1.558467 1_555
O8 Zr1 2.147691 1_565
O9 P1 1.553575 1_555
O9 Zr2 2.201650 1_665
O10 Si0 1.650883 1_455
O10 Zr2 2.069548 1_555
O11 P0 1.560704 1_565
O11 Zr2 2.074677 1_565
O12 Si2 1.626957 1_555
O13 Si3 1.626009 1_555
O14 P4 1.540413 1_555
O15 Si4 1.628132 1_555
O16 P5 1.536374 1_555
O17 Si5 1.626117 1_555
O18 Si5 1.620690 1_555
O19 Si4 1.633331 1_555
O20 P5 1.547793 1_555
O21 Si3 1.636405 1_555
O21 Zr3 2.044022 1_555
O22 P4 1.543322 1_555
O22 Zr3 2.090442 1_555
O23 Si2 1.643425 1_555
O23 Zr3 2.024715 1_555
O24 Si6 1.659919 1_555
O24 Zr4 2.071447 1_556
O25 P6 1.565901 1_555
O25 Zr4 2.134530 1_556
O26 P7 1.555787 1_555
O26 Zr4 2.101110 1_556
O27 Si7 1.631374 1_555
O27 Zr5 2.036052 1_555
O28 P8 1.541409 1_555
O28 Zr5 2.098840 1_555
O29 Si8 1.646018 1_555
O29 Zr5 2.023325 1_555
O30 Si8 1.622999 1_555
O31 Si7 1.620539 1_555
O32 P8 1.532874 1_555
O33 P6 1.550655 1_555
O34 P7 1.551382 1_555
O35 Si6 1.639072 1_555
O36 Si8 1.635462 1_555
O36 Zr0 2.063350 1_455
O37 Si7 1.647389 1_555
O37 Zr0 2.034564 1_555
O38 P8 1.563094 1_555
O38 Zr0 2.164451 1_445
O39 P6 1.563836 1_555
O40 P7 1.560637 1_555
O41 Si6 1.663585 1_555
O42 Si2 1.638564 1_555
O42 Zr1 2.045026 1_655
O43 Si3 1.639247 1_555
O43 Zr1 2.089783 1_555
O44 P4 1.563501 1_555
O44 Zr1 2.176731 1_665
O45 Si4 1.654002 1_555
O45 Zr2 2.076671 1_665
O46 P5 1.576609 1_555
O46 Zr2 2.213704 1_655
O47 Si5 1.659350 1_555
O47 Zr2 2.031174 1_555
O48 Si1 1.663411 1_545
O49 P2 1.550502 1_555
O50 P3 1.557037 1_655
O51 P1 1.547596 1_555
O52 Si0 1.645159 1_555
O53 P0 1.544504 1_555
O54 Si6 1.662792 1_555
O55 P6 1.554522 1_655
O56 P7 1.558061 1_545
O57 Si7 1.658137 1_545
O57 Zr3 2.132637 1_555
O58 P8 1.539130 1_555
O58 Zr3 2.183710 1_555
O59 Si8 1.629456 1_655
O59 Zr3 2.114980 1_555
O60 Si5 1.678889 1_555
O60 Zr4 2.100209 1_555
O61 Si4 1.649761 1_455
O61 Zr4 2.095692 1_555
O62 P5 1.556530 1_565
O62 Zr4 2.146525 1_555
O63 Si3 1.660836 1_565
O63 Zr5 2.118313 1_555
O64 P4 1.542053 1_555
O64 Zr5 2.206985 1_555
O65 Si2 1.625652 1_455
O65 Zr5 2.111317 1_555
O66 P0 1.549308 1_565
O67 P1 1.545238 1_555
O68 Si0 1.645559 1_455
O69 P2 1.560572 1_555
O70 P3 1.559400 1_555
O71 Si1 1.659514 1_555
