# generated using pymatgen
data_NiH4SeO5
_symmetry_space_group_name_H-M   'P 1'
_cell_length_a   8.83562500
_cell_length_b   6.50222700
_cell_length_c   9.17736335
_cell_angle_alpha   55.20183063
_cell_angle_beta   90.00000000
_cell_angle_gamma   90.00000000
_symmetry_Int_Tables_number   1
_chemical_formula_structural   NiH4SeO5
_chemical_formula_sum   'Ni4 H16 Se4 O20'
_cell_volume   432.96127298
_cell_formula_units_Z   4
loop_
 _symmetry_equiv_pos_site_id
 _symmetry_equiv_pos_as_xyz
  1  'x, y, z'
loop_
 _atom_site_type_symbol
 _atom_site_label
 _atom_site_symmetry_multiplicity
 _atom_site_fract_x
 _atom_site_fract_y
 _atom_site_fract_z
 _atom_site_occupancy
  Ni  Ni0  1  0.63795000  0.33263700  0.01822500  1
  Ni  Ni1  1  0.13795000  0.66736300  0.48177500  1
  Ni  Ni2  1  0.36205000  0.66736300  0.98177500  1
  Ni  Ni3  1  0.86205000  0.33263700  0.51822500  1
  H  H0  1  0.63474400  0.42585100  0.64169900  1
  H  H1  1  0.13474400  0.57414900  0.85830100  1
  H  H2  1  0.36525600  0.57414900  0.35830100  1
  H  H3  1  0.86525600  0.42585100  0.14169900  1
  H  H4  1  0.57730700  0.19737400  0.63128400  1
  H  H5  1  0.07730700  0.80262600  0.86871600  1
  H  H6  1  0.42269300  0.80262600  0.36871600  1
  H  H7  1  0.92269300  0.19737400  0.13128400  1
  H  H8  1  0.14666800  0.92908100  0.12781300  1
  H  H9  1  0.64666800  0.07091900  0.37218700  1
  H  H10  1  0.01709300  0.19726800  0.79368400  1
  H  H11  1  0.51709300  0.80273200  0.70631600  1
  H  H12  1  0.98290700  0.80273200  0.20631600  1
  H  H13  1  0.48290700  0.19726800  0.29368400  1
  H  H14  1  0.85333200  0.07091900  0.87218700  1
  H  H15  1  0.35333200  0.92908100  0.62781300  1
  Se  Se0  1  0.15503100  0.26094000  0.33755900  1
  Se  Se1  1  0.65503100  0.73906000  0.16244100  1
  Se  Se2  1  0.84496900  0.73906000  0.66244100  1
  Se  Se3  1  0.34496900  0.26094000  0.83755900  1
  O  O0  1  0.20409900  0.95656500  0.50264700  1
  O  O1  1  0.90847000  0.63803200  0.53326000  1
  O  O2  1  0.79590100  0.04343500  0.49735300  1
  O  O3  1  0.29590100  0.95656500  0.00264700  1
  O  O4  1  0.56312500  0.09276500  0.28953800  1
  O  O5  1  0.06312500  0.90723500  0.21046200  1
  O  O6  1  0.40847000  0.36196800  0.96674000  1
  O  O7  1  0.93687500  0.09276500  0.78953800  1
  O  O8  1  0.85811400  0.34731000  0.07485500  1
  O  O9  1  0.35811400  0.65269000  0.42514500  1
  O  O10  1  0.14188600  0.65269000  0.92514500  1
  O  O11  1  0.64188600  0.34731000  0.57485500  1
  O  O12  1  0.09153000  0.36196800  0.46674000  1
  O  O13  1  0.59153000  0.63803200  0.03326000  1
  O  O14  1  0.16921400  0.40802400  0.76604200  1
  O  O15  1  0.66921400  0.59197600  0.73395800  1
  O  O16  1  0.83078600  0.59197600  0.23395800  1
  O  O17  1  0.33078600  0.40802400  0.26604200  1
  O  O18  1  0.70409900  0.04343500  0.99735300  1
  O  O19  1  0.43687500  0.90723500  0.71046200  1
loop_
_geom_bond_atom_site_label_1
_geom_bond_atom_site_label_2
_geom_bond_distance
_geom_bond_site_symmetry_2
Ni0 O8 2.029763 1_555
Ni0 O6 2.065897 1_554
Ni0 O18 2.079793 1_554
Ni0 O13 2.107887 1_555
Ni0 O4 2.153358 1_555
Ni0 O15 2.169022 1_554
Ni1 O9 2.029763 1_555
Ni1 O1 2.065897 1_455
Ni1 O0 2.079793 1_555
Ni1 O12 2.107887 1_555
Ni1 O5 2.153358 1_555
Ni1 O14 2.169022 1_555
Ni2 O10 2.029763 1_555
Ni2 O13 2.065897 1_556
Ni2 O3 2.079793 1_556
Ni2 O6 2.107887 1_555
Ni2 O19 2.153358 1_555
Ni2 O17 2.169022 1_556
Ni3 O11 2.029763 1_555
Ni3 O12 2.065897 1_655
Ni3 O2 2.079793 1_555
Ni3 O1 2.107887 1_555
Ni3 O7 2.153358 1_555
Ni3 O16 2.169022 1_555
H0 O11 0.999343 1_555
H0 O15 1.737909 1_555
H1 O10 0.999343 1_555
H1 O14 1.737909 1_555
H2 O9 0.999343 1_555
H2 O17 1.737909 1_555
H3 O8 0.999343 1_555
H3 O16 1.737909 1_555
H4 O11 0.983858 1_555
H5 O10 0.983858 1_555
H6 O9 0.983858 1_555
H7 O8 0.983858 1_555
H8 O5 1.008661 1_555
H8 O3 1.689897 1_555
H9 O4 1.008661 1_555
H9 O2 1.689897 1_555
H10 O7 0.997519 1_455
H11 O19 0.997519 1_555
H12 O5 0.997519 1_655
H13 O4 0.997519 1_555
H14 O7 1.008661 1_555
H14 O18 1.689897 1_555
H15 O19 1.008661 1_555
H15 O0 1.689897 1_555
O0 Se0 1.725656 1_565
O1 Se2 1.743768 1_555
O2 Se2 1.725656 1_545
O3 Se3 1.725656 1_564
O6 Se3 1.743768 1_555
O12 Se0 1.743768 1_555
O13 Se1 1.743768 1_555
O14 Se3 1.743703 1_555
O15 Se2 1.743703 1_555
O16 Se1 1.743703 1_555
O17 Se0 1.743703 1_555
O18 Se1 1.725656 1_546
