# generated using pymatgen
data_Na7Zr2Ga2Si3(PO8)3
_symmetry_space_group_name_H-M   'P 1'
_cell_length_a   9.06726694
_cell_length_b   9.02616898
_cell_length_c   22.38784110
_cell_angle_alpha   89.62086787
_cell_angle_beta   90.31100570
_cell_angle_gamma   119.97949110
_symmetry_Int_Tables_number   1
_chemical_formula_structural   Na7Zr2Ga2Si3(PO8)3
_chemical_formula_sum   'Na21 Zr6 Ga6 Si9 P9 O72'
_cell_volume   1587.09021099
_cell_formula_units_Z   3
loop_
 _symmetry_equiv_pos_site_id
 _symmetry_equiv_pos_as_xyz
  1  'x, y, z'
loop_
 _atom_site_type_symbol
 _atom_site_label
 _atom_site_symmetry_multiplicity
 _atom_site_fract_x
 _atom_site_fract_y
 _atom_site_fract_z
 _atom_site_occupancy
  Na  Na0  1  0.63340252  0.00309625  0.25186173  1
  Na  Na1  1  0.36674783  0.36951030  0.24792831  1
  Na  Na2  1  0.99957954  0.62803612  0.24968432  1
  Na  Na3  1  0.63127519  0.63277944  0.75009118  1
  Na  Na4  1  0.99482565  0.36568178  0.75028737  1
  Na  Na5  1  0.37257889  0.00150614  0.74875037  1
  Na  Na6  1  0.03313919  0.69717878  0.58374085  1
  Na  Na7  1  0.66376679  0.97055053  0.58335510  1
  Na  Na8  1  0.66570706  0.69242321  0.08232671  1
  Na  Na9  1  0.03220614  0.33579557  0.08546034  1
  Na  Na10  1  0.96098592  0.66423028  0.91820835  1
  Na  Na11  1  0.70263452  0.03432648  0.91615597  1
  Na  Na12  1  0.33870696  0.30130666  0.91726812  1
  Na  Na13  1  0.96645277  0.30322797  0.41534466  1
  Na  Na14  1  0.33512659  0.02824626  0.41781920  1
  Na  Na15  1  0.00044520  0.99910811  0.50030678  1
  Na  Na16  1  0.00863519  0.99579013  0.99822023  1
  Na  Na17  1  0.66671730  0.33334845  0.83344631  1
  Na  Na18  1  0.67235906  0.34075004  0.33195045  1
  Na  Na19  1  0.32707130  0.66833899  0.16834880  1
  Na  Na20  1  0.33313322  0.66133514  0.66777837  1
  Zr  Zr0  1  0.98892118  0.99445861  0.35202307  1
  Zr  Zr1  1  0.00307465  0.00695924  0.64937096  1
  Zr  Zr2  1  0.01026257  0.00468274  0.14583320  1
  Zr  Zr3  1  0.66618341  0.33305297  0.47969770  1
  Zr  Zr4  1  0.33555940  0.67014690  0.01956149  1
  Zr  Zr5  1  0.33373724  0.66586996  0.52047603  1
  Ga  Ga0  1  0.98972671  0.99618728  0.84872917  1
  Ga  Ga1  1  0.66911490  0.32193824  0.68221387  1
  Ga  Ga2  1  0.67411402  0.33617886  0.18064047  1
  Ga  Ga3  1  0.66181987  0.34479951  0.98497411  1
  Ga  Ga4  1  0.32558893  0.66247233  0.31831807  1
  Ga  Ga5  1  0.34385294  0.67129441  0.81820157  1
  Si  Si0  1  -0.00015871  0.30576756  0.24912934  1
  Si  Si1  1  0.70045310  0.99980035  0.75250384  1
  Si  Si2  1  0.95788066  0.33457712  0.58614870  1
  Si  Si3  1  0.37375951  0.04350953  0.58538499  1
  Si  Si4  1  0.95291401  0.61918974  0.08293416  1
  Si  Si5  1  0.38401157  0.33066781  0.08327720  1
  Si  Si6  1  0.63252489  0.66673782  0.91434087  1
  Si  Si7  1  0.62096796  0.95285545  0.41392113  1
  Si  Si8  1  0.04234040  0.66702503  0.41413238  1
  P  P0  1  0.30173051  0.00133624  0.25103143  1
  P  P1  1  0.69804859  0.69911158  0.24836695  1
  P  P2  1  0.29406660  0.29564853  0.75469954  1
  P  P3  1  0.00065568  0.70399394  0.75326576  1
  P  P4  1  0.66558340  0.61798361  0.58832848  1
  P  P5  1  0.66467871  0.05081732  0.08311708  1
  P  P6  1  0.04094783  0.37239591  0.91367605  1
  P  P7  1  0.33279227  0.96197800  0.91294932  1
  P  P8  1  0.33496724  0.37887884  0.41271479  1
  O  O0  1  0.21761643  0.03129439  0.30645336  1
  O  O1  1  0.82054253  0.78870375  0.30213530  1
  O  O2  1  0.96580647  0.18010142  0.30719250  1
  O  O3  1  0.21080064  0.17633103  0.80951470  1
  O  O4  1  0.97157757  0.79184759  0.80789116  1
  O  O5  1  0.82920047  0.04029118  0.80964016  1
  O  O6  1  0.78522665  0.96067892  0.69397360  1
  O  O7  1  0.17749545  0.20852537  0.69939025  1
  O  O8  1  0.03506350  0.81817067  0.69673552  1
  O  O9  1  0.78330510  0.81473387  0.19276734  1
  O  O10  1  0.03365392  0.21263705  0.19183934  1
  O  O11  1  0.17824614  0.96839317  0.19731586  1
  O  O12  1  0.87527883  0.37305797  0.64451045  1
  O  O13  1  0.49298296  0.12852650  0.64420391  1
  O  O14  1  0.64250626  0.51145941  0.64537178  1
  O  O15  1  0.87562238  0.50338473  0.14307781  1
  O  O16  1  0.63921608  0.12679046  0.14053252  1
  O  O17  1  0.50017018  0.36587389  0.14312097  1
  O  O18  1  0.45965635  0.30014789  0.02191635  1
  O  O19  1  0.83918756  0.53810734  0.02246928  1
  O  O20  1  0.69703785  0.16182377  0.02609958  1
  O  O21  1  0.45559539  0.15268021  0.52413526  1
  O  O22  1  0.69536003  0.53725177  0.53241896  1
  O  O23  1  0.84175556  0.30241080  0.52591433  1
  O  O24  1  0.54743102  0.70534213  0.97307133  1
  O  O25  1  0.15354114  0.45682938  0.97031850  1
  O  O26  1  0.29744094  0.84236131  0.96788899  1
  O  O27  1  0.54147319  0.84563315  0.47558443  1
  O  O28  1  0.30290330  0.45948177  0.46809524  1
  O  O29  1  0.15789140  0.69663976  0.47449709  1
  O  O30  1  0.12493111  0.62936750  0.35579976  1
  O  O31  1  0.50164908  0.86493645  0.35544472  1
  O  O32  1  0.36017998  0.48427703  0.35572001  1
  O  O33  1  0.12507208  0.49206640  0.85896480  1
  O  O34  1  0.36287392  0.87797902  0.85743556  1
  O  O35  1  0.50452399  0.62725251  0.85716869  1
  O  O36  1  0.03704620  0.84521666  0.41073080  1
  O  O37  1  0.81743337  0.98825644  0.41205142  1
  O  O38  1  0.17331433  0.19772792  0.40903154  1
  O  O39  1  0.03116542  0.19548025  0.90959126  1
  O  O40  1  0.17242782  0.98181202  0.90782911  1
  O  O41  1  0.82345368  0.84006618  0.90884640  1
  O  O42  1  0.96493930  0.15695357  0.58938830  1
  O  O43  1  0.17750478  0.00542863  0.58912532  1
  O  O44  1  0.82865219  0.79845538  0.59139203  1
  O  O45  1  0.96197844  0.80561576  0.08816429  1
  O  O46  1  0.82594113  0.02919620  0.08826318  1
  O  O47  1  0.18556187  0.17045973  0.08665897  1
  O  O48  1  0.68525523  0.17462730  0.74600550  1
  O  O49  1  0.47301201  0.31680703  0.74702386  1
  O  O50  1  0.83574405  0.52782700  0.74721212  1
  O  O51  1  0.68280580  0.52151966  0.24516704  1
  O  O52  1  0.82346605  0.31502222  0.24367104  1
  O  O53  1  0.47656682  0.16381321  0.24366015  1
  O  O54  1  0.64872604  0.49247296  0.92036491  1
  O  O55  1  0.86054597  0.34930819  0.92027550  1
  O  O56  1  0.49772801  0.13767622  0.92029237  1
  O  O57  1  0.63746127  0.14378085  0.41743916  1
  O  O58  1  0.48975221  0.35264465  0.41846721  1
  O  O59  1  0.85495601  0.49638440  0.41924323  1
  O  O60  1  0.36362458  0.50443022  0.07856426  1
  O  O61  1  0.14168032  0.63609564  0.07759414  1
  O  O62  1  0.50997084  0.86672076  0.07824055  1
  O  O63  1  0.36175767  0.85441207  0.58180048  1
  O  O64  1  0.51187644  0.64598998  0.58244577  1
  O  O65  1  0.14520806  0.50424031  0.58127904  1
  O  O66  1  0.31666266  0.83838866  0.25452964  1
  O  O67  1  0.52389167  0.68802378  0.25538170  1
  O  O68  1  0.17588162  0.49196438  0.25505795  1
  O  O69  1  0.30338795  0.47215853  0.75800001  1
  O  O70  1  0.16083059  0.68404268  0.75897039  1
  O  O71  1  0.50999027  0.82667592  0.75800371  1
loop_
_geom_bond_atom_site_label_1
_geom_bond_atom_site_label_2
_geom_bond_distance
_geom_bond_site_symmetry_2
Na0 O52 2.465382 1_555
Na0 O66 2.489098 1_545
Na0 O53 2.493133 1_555
Na0 O67 2.501137 1_545
Na0 O31 2.619736 1_545
Na0 O16 2.714270 1_555
Na0 O2 2.888678 1_555
Na0 O9 2.974420 1_545
Na1 O68 2.481783 1_555
Na1 O51 2.484007 1_555
Na1 O67 2.496666 1_555
Na1 O53 2.509752 1_555
Na1 O32 2.645106 1_555
Na1 O17 2.653638 1_555
Na1 O10 2.900366 1_555
Na1 O0 2.950528 1_555
Na2 O68 2.456937 1_655
Na2 O52 2.458529 1_555
Na2 O51 2.534339 1_555
Na2 O66 2.535092 1_655
Na2 O30 2.625517 1_655
Na2 O15 2.639711 1_555
Na2 O11 2.904495 1_655
Na2 O1 2.917770 1_555
Na3 O50 2.469029 1_555
Na3 O49 2.471714 1_555
Na3 O71 2.496691 1_555
Na3 O69 2.582038 1_555
Na3 O14 2.618002 1_555
Na3 O35 2.653509 1_555
Na3 O6 2.850897 1_555
Na3 O4 2.968278 1_555
Na4 O48 2.454336 1_555
Na4 O69 2.467988 1_655
Na4 O70 2.498492 1_655
Na4 O50 2.516882 1_555
Na4 O12 2.613342 1_555
Na4 O33 2.697214 1_655
Na4 O5 2.865157 1_555
Na4 O7 2.905844 1_655
Na5 O71 2.458321 1_545
Na5 O48 2.461019 1_555
Na5 O49 2.517760 1_555
Na5 O70 2.539190 1_545
Na5 O13 2.593444 1_555
Na5 O34 2.653276 1_545
Na5 O8 2.895828 1_545
Na5 O3 2.975880 1_555
Na6 O43 2.415000 1_565
Na6 O65 2.416369 1_555
Na6 O44 2.449945 1_455
Na6 O63 2.582425 1_555
Na6 O29 2.701267 1_555
Na6 O8 2.758519 1_555
Na6 O12 2.870928 1_455
Na6 O22 2.889572 1_455
Na7 O42 2.390324 1_565
Na7 O63 2.393646 1_555
Na7 O64 2.539234 1_555
Na7 O44 2.644771 1_555
Na7 O27 2.660777 1_555
Na7 O6 2.723868 1_555
Na7 O23 2.893304 1_565
Na7 O13 2.922730 1_565
Na8 O45 2.352135 1_555
Na8 O60 2.396529 1_555
Na8 O62 2.587348 1_555
Na8 O46 2.637858 1_565
Na8 O24 2.690600 1_554
Na8 O9 2.701894 1_555
Na8 O17 2.888045 1_555
Na8 O19 2.906451 1_555
Na9 O61 2.381202 1_555
Na9 O46 2.446795 1_455
Na9 O47 2.496854 1_555
Na9 O60 2.608020 1_555
Na9 O10 2.624337 1_555
Na9 O25 2.800209 1_554
Na9 O15 2.856573 1_455
Na9 O20 2.946584 1_455
Na10 O54 2.456838 1_555
Na10 O41 2.467539 1_555
Na10 O55 2.514588 1_555
Na10 O40 2.539769 1_655
Na10 O19 2.588507 1_556
Na10 O4 2.700035 1_555
Na10 O26 2.866001 1_655
Na10 O33 2.957517 1_655
Na11 O56 2.462897 1_555
Na11 O55 2.464851 1_555
Na11 O41 2.495362 1_545
Na11 O39 2.585093 1_655
Na11 O5 2.640599 1_555
Na11 O20 2.735442 1_556
Na11 O24 2.866166 1_545
Na11 O34 2.974260 1_545
Na12 O54 2.456842 1_555
Na12 O39 2.460285 1_555
Na12 O40 2.508698 1_545
Na12 O56 2.528027 1_555
Na12 O18 2.583602 1_556
Na12 O3 2.671187 1_555
Na12 O35 2.876707 1_555
Na12 O25 2.932432 1_555
Na13 O59 2.415328 1_555
Na13 O37 2.465031 1_545
Na13 O38 2.496916 1_655
Na13 O57 2.584992 1_555
Na13 O2 2.669601 1_555
Na13 O23 2.725426 1_555
Na13 O30 2.872149 1_655
Na13 O28 2.893705 1_655
Na14 O36 2.365568 1_545
Na14 O57 2.397020 1_555
Na14 O58 2.537155 1_555
Na14 O38 2.601447 1_555
Na14 O21 2.626978 1_555
Na14 O0 2.711427 1_555
Na14 O29 2.883801 1_545
Na14 O31 2.945697 1_545
Na15 O43 2.531794 1_565
Na15 O37 2.543965 1_455
Na15 O36 2.562434 1_555
Na15 O42 2.571752 1_465
Na15 O38 2.650397 1_565
Na15 O44 2.651623 1_455
Na16 O45 2.533391 1_456
Na16 O41 2.537849 1_455
Na16 O47 2.541381 1_566
Na16 O40 2.557356 1_555
Na16 O39 2.610879 1_565
Na16 O46 2.728045 1_466
Na17 O54 2.480065 1_555
Na17 O48 2.488838 1_555
Na17 O50 2.540889 1_555
Na17 O56 2.555352 1_555
Na17 O49 2.560373 1_555
Na17 O55 2.569428 1_555
Na18 O52 2.488117 1_555
Na18 O59 2.492127 1_555
Na18 O51 2.500339 1_555
Na18 O57 2.514625 1_555
Na18 O58 2.592280 1_555
Na18 O53 2.603754 1_555
Na19 O68 2.447249 1_555
Na19 O66 2.504666 1_555
Na19 O61 2.553521 1_555
Na19 O67 2.581270 1_555
Na19 O60 2.622164 1_555
Na19 O62 2.654625 1_555
Na20 O65 2.500028 1_555
Na20 O63 2.513682 1_555
Na20 O71 2.547941 1_555
Na20 O64 2.560669 1_555
Na20 O69 2.562873 1_555
Na20 O70 2.647851 1_555
Ga0 O5 1.898295 1_565
Ga0 O41 1.985927 1_555
Ga0 O4 1.995535 1_555
Ga0 O3 2.043445 1_665
Ga0 O39 2.141273 1_665
Ga0 O40 2.168076 1_655
Ga1 O13 1.881739 1_555
Ga1 O12 1.889396 1_555
Ga1 O48 1.999025 1_555
Ga1 O14 2.014073 1_555
Ga1 O50 2.249385 1_555
Ga1 O49 2.283404 1_555
Ga2 O15 1.888757 1_555
Ga2 O17 1.915742 1_555
Ga2 O16 1.974871 1_555
Ga2 O52 2.023797 1_555
Ga2 O51 2.188778 1_555
Ga2 O53 2.198379 1_555
Ga3 O18 1.865563 1_556
Ga3 O19 1.880394 1_556
Ga3 O54 2.003449 1_555
Ga3 O20 2.044778 1_556
Ga3 O56 2.244635 1_555
Ga3 O55 2.302351 1_555
Ga4 O30 1.890410 1_555
Ga4 O31 1.915498 1_555
Ga4 O32 1.967240 1_555
Ga4 O68 2.034004 1_555
Ga4 O66 2.159727 1_555
Ga4 O67 2.209141 1_555
Ga5 O35 1.897865 1_555
Ga5 O71 1.984482 1_555
Ga5 O34 1.995021 1_555
Ga5 O33 2.044038 1_555
Ga5 O69 2.132960 1_555
Ga5 O70 2.165775 1_555
O0 P0 1.554078 1_555
O0 Zr0 2.186505 1_445
O1 P1 1.561201 1_555
O1 Zr0 2.050056 1_555
O2 Si0 1.645179 1_655
O2 Zr0 2.045843 1_545
O3 P2 1.554305 1_555
O4 P3 1.555382 1_655
O5 Si1 1.642011 1_545
O6 Si1 1.649519 1_555
O6 Zr1 2.065099 1_665
O7 P2 1.561054 1_555
O7 Zr1 2.048772 1_555
O8 P3 1.557833 1_555
O8 Zr1 2.139860 1_565
O9 P1 1.556648 1_555
O9 Zr2 2.179925 1_665
O10 Si0 1.649783 1_555
O10 Zr2 2.062628 1_555
O11 P0 1.563856 1_565
O11 Zr2 2.056767 1_565
O12 Si2 1.632606 1_555
O13 Si3 1.631076 1_555
O14 P4 1.544275 1_555
O15 Si4 1.629816 1_555
O16 P5 1.532624 1_555
O17 Si5 1.631293 1_555
O18 Si5 1.624056 1_555
O19 Si4 1.635590 1_555
O20 P5 1.553320 1_555
O21 Si3 1.632286 1_555
O21 Zr3 2.044206 1_555
O22 P4 1.543696 1_555
O22 Zr3 2.097229 1_555
O23 Si2 1.641865 1_555
O23 Zr3 2.024792 1_555
O24 Si6 1.652672 1_555
O24 Zr4 2.069359 1_556
O25 P6 1.565991 1_555
O25 Zr4 2.116388 1_556
O26 P7 1.556325 1_555
O26 Zr4 2.093511 1_556
O27 Si7 1.630326 1_555
O27 Zr5 2.033556 1_555
O28 P8 1.542173 1_555
O28 Zr5 2.104423 1_555
O29 Si8 1.644716 1_555
O29 Zr5 2.024829 1_555
O30 Si8 1.628712 1_555
O31 Si7 1.629264 1_555
O32 P8 1.534671 1_555
O33 P6 1.555026 1_555
O34 P7 1.554576 1_555
O35 Si6 1.639780 1_555
O36 Si8 1.634171 1_555
O36 Zr0 2.071310 1_455
O37 Si7 1.645910 1_555
O37 Zr0 2.040026 1_555
O38 P8 1.560155 1_555
O38 Zr0 2.175488 1_445
O39 P6 1.557728 1_555
O40 P7 1.554855 1_555
O41 Si6 1.659162 1_555
O42 Si2 1.637303 1_555
O42 Zr1 2.048079 1_655
O43 Si3 1.637595 1_555
O43 Zr1 2.089518 1_555
O44 P4 1.561334 1_555
O44 Zr1 2.182535 1_665
O45 Si4 1.648113 1_555
O45 Zr2 2.079784 1_665
O46 P5 1.572409 1_555
O46 Zr2 2.201309 1_655
O47 Si5 1.653561 1_555
O47 Zr2 2.034754 1_555
O48 Si1 1.656611 1_545
O49 P2 1.546470 1_555
O50 P3 1.551508 1_655
O51 P1 1.540702 1_555
O52 Si0 1.646431 1_655
O53 P0 1.538606 1_555
O54 Si6 1.655845 1_555
O55 P6 1.549996 1_655
O56 P7 1.552146 1_545
O57 Si7 1.656057 1_545
O57 Zr3 2.124185 1_555
O58 P8 1.540184 1_555
O58 Zr3 2.173779 1_555
O59 Si8 1.629930 1_655
O59 Zr3 2.100450 1_555
O60 Si5 1.671094 1_555
O60 Zr4 2.097054 1_555
O61 Si4 1.645629 1_455
O61 Zr4 2.086238 1_555
O62 P5 1.553098 1_565
O62 Zr4 2.139857 1_555
O63 Si3 1.657596 1_565
O63 Zr5 2.107287 1_555
O64 P4 1.540557 1_555
O64 Zr5 2.197274 1_555
O65 Si2 1.625548 1_455
O65 Zr5 2.100048 1_555
O66 P0 1.544367 1_565
O67 P1 1.540411 1_555
O68 Si0 1.646121 1_555
O69 P2 1.554939 1_555
O70 P3 1.554709 1_555
O71 Si1 1.655978 1_555
