# generated using pymatgen
data_Ba2YbMgNbO6
_symmetry_space_group_name_H-M   'P 1'
_cell_length_a   6.00642940
_cell_length_b   6.00745902
_cell_length_c   6.68691404
_cell_angle_alpha   63.30794178
_cell_angle_beta   63.30924114
_cell_angle_gamma   59.99432492
_symmetry_Int_Tables_number   1
_chemical_formula_structural   Ba2YbMgNbO6
_chemical_formula_sum   'Ba2 Yb1 Mg1 Nb1 O6'
_cell_volume   178.64677255
_cell_formula_units_Z   1
loop_
 _symmetry_equiv_pos_site_id
 _symmetry_equiv_pos_as_xyz
  1  'x, y, z'
loop_
 _atom_site_type_symbol
 _atom_site_label
 _atom_site_symmetry_multiplicity
 _atom_site_fract_x
 _atom_site_fract_y
 _atom_site_fract_z
 _atom_site_occupancy
  Ba  Ba0  1  0.80455986  0.80614941  0.58314133  1
  Ba  Ba1  1  0.26770280  0.26862914  0.19503892  1
  Yb  Yb0  1  0.47192592  0.47298706  0.58209996  1
  Mg  Mg0  1  0.62853102  0.63012066  0.11122765  1
  Nb  Nb0  1  0.00315192  0.00405364  0.98874080  1
  O  O0  1  0.22457735  0.74070702  0.81013312  1
  O  O1  1  0.24374232  0.75360941  0.24903887  1
  O  O2  1  0.74082450  0.22498064  0.80921421  1
  O  O3  1  0.22457735  0.22458251  0.81013312  1
  O  O4  1  0.75249498  0.24521357  0.24832451  1
  O  O5  1  0.75249498  0.75396694  0.24832451  1
loop_
_geom_bond_atom_site_label_1
_geom_bond_atom_site_label_2
_geom_bond_distance
_geom_bond_site_symmetry_2
Ba0 O1 2.560452 1_655
Ba0 O4 2.562475 1_565
Ba0 O5 2.562475 1_555
Ba1 O3 2.835677 1_554
Ba1 O0 2.835677 1_554
Ba1 O2 2.841963 1_554
Ba1 O5 3.017136 1_545
Ba1 O4 3.017136 1_555
Ba1 O1 3.019713 1_545
Ba1 O1 3.019713 1_555
Ba1 O5 3.020404 1_455
Ba1 O4 3.020404 1_455
Mg0 O1 1.930595 1_555
Mg0 O4 1.930911 1_555
Mg0 O5 1.930911 1_555
Nb0 O2 1.965096 1_455
Nb0 O0 1.965762 1_545
Nb0 O3 1.965762 1_555
Nb0 O4 2.260226 1_456
Nb0 O5 2.260226 1_446
Nb0 O1 2.261403 1_546
O0 Yb0 2.212984 1_555
O1 Yb0 2.595925 1_555
O2 Yb0 2.213326 1_555
O3 Yb0 2.212984 1_555
O4 Yb0 2.598506 1_555
O5 Yb0 2.598507 1_555
