# generated using pymatgen
data_Na6La4Y4Si3(S3O16)3
_symmetry_space_group_name_H-M   'P 1'
_cell_length_a   18.88665163
_cell_length_b   9.41422890
_cell_length_c   24.84644503
_cell_angle_alpha   90.07704333
_cell_angle_beta   90.03244059
_cell_angle_gamma   119.88729304
_symmetry_Int_Tables_number   1
_chemical_formula_structural   Na6La4Y4Si3(S3O16)3
_chemical_formula_sum   'Na18 La12 Y12 Si9 S27 O144'
_cell_volume   3830.23917582
_cell_formula_units_Z   3
loop_
 _symmetry_equiv_pos_site_id
 _symmetry_equiv_pos_as_xyz
  1  'x, y, z'
loop_
 _atom_site_type_symbol
 _atom_site_label
 _atom_site_symmetry_multiplicity
 _atom_site_fract_x
 _atom_site_fract_y
 _atom_site_fract_z
 _atom_site_occupancy
  Na  Na0  1  0.00626766  0.64915278  0.25466076  1
  Na  Na1  1  0.50492656  0.36331128  0.74340794  1
  Na  Na2  1  0.16002038  0.30361242  0.91191451  1
  Na  Na3  1  0.65921648  0.30308657  0.91060538  1
  Na  Na4  1  0.16188467  0.02003737  0.41579336  1
  Na  Na5  1  0.65814622  0.00994391  0.41707488  1
  Na  Na6  1  0.99414716  0.98451362  0.49878004  1
  Na  Na7  1  0.49454049  0.00033108  0.50253182  1
  Na  Na8  1  0.99604848  0.00861365  0.99358040  1
  Na  Na9  1  0.49444839  0.00532102  0.99561381  1
  Na  Na10  1  0.33078791  0.33217917  0.82636158  1
  Na  Na11  1  0.83842081  0.33467090  0.82991025  1
  Na  Na12  1  0.34256842  0.35036860  0.33782040  1
  Na  Na13  1  0.83119960  0.33068563  0.33551492  1
  Na  Na14  1  0.17338856  0.68443554  0.17212975  1
  Na  Na15  1  0.66452820  0.68273021  0.17410536  1
  Na  Na16  1  0.16800144  0.64988895  0.67130515  1
  Na  Na17  1  0.66127644  0.64583569  0.66317982  1
  La  La0  1  0.00500639  0.01454379  0.65116052  1
  La  La1  1  0.50599290  0.02025360  0.64677397  1
  La  La2  1  0.00748766  0.00384542  0.15038363  1
  La  La3  1  0.50433493  0.99515339  0.15162763  1
  La  La4  1  0.82598995  0.33267231  0.68841746  1
  La  La5  1  0.32767051  0.32185690  0.18968989  1
  La  La6  1  0.15999188  0.65715931  0.01422654  1
  La  La7  1  0.66180909  0.65624506  0.01495439  1
  La  La8  1  0.16347929  0.66829725  0.51573359  1
  La  La9  1  0.64979122  0.64645107  0.51886137  1
  La  La10  1  0.65909562  0.67230433  0.31732424  1
  La  La11  1  0.15936442  0.64540037  0.81471262  1
  Y  Y0  1  0.00086135  0.99509907  0.35042759  1
  Y  Y1  1  0.50420112  0.99417298  0.34846127  1
  Y  Y2  1  0.00462025  0.01613928  0.84655251  1
  Y  Y3  1  0.50102081  0.00741160  0.84766029  1
  Y  Y4  1  0.33083209  0.33525212  0.68279353  1
  Y  Y5  1  0.82387536  0.31590147  0.18690965  1
  Y  Y6  1  0.34304900  0.33299283  0.97962911  1
  Y  Y7  1  0.83972160  0.33257838  0.98059106  1
  Y  Y8  1  0.34654104  0.34730440  0.48405586  1
  Y  Y9  1  0.84206001  0.35136563  0.48065293  1
  Y  Y10  1  0.16414239  0.66976331  0.31894751  1
  Y  Y11  1  0.66276067  0.65761345  0.81690139  1
  Si  Si0  1  0.14752882  0.99227242  0.25408638  1
  Si  Si1  1  0.65163539  0.00254975  0.25163346  1
  Si  Si2  1  0.15503051  0.29956190  0.75163597  1
  Si  Si3  1  0.64888354  0.30212593  0.75526532  1
  Si  Si4  1  0.47900703  0.33188876  0.58774821  1
  Si  Si5  1  0.01381940  0.35581849  0.91709165  1
  Si  Si6  1  0.51707730  0.36233289  0.91397025  1
  Si  Si7  1  0.01663989  0.66865026  0.41364283  1
  Si  Si8  1  0.51230521  0.66996107  0.41606215  1
  S  S0  1  0.34905886  0.70537730  0.25244594  1
  S  S1  1  0.85348067  0.70051381  0.24903037  1
  S  S2  1  -0.00020846  0.30190168  0.25089802  1
  S  S3  1  0.50004247  0.29300576  0.25109681  1
  S  S4  1  0.99919805  0.70667344  0.75138148  1
  S  S5  1  0.49977707  0.70056384  0.75136435  1
  S  S6  1  0.35263108  0.00526366  0.75033648  1
  S  S7  1  0.84917966  0.99393897  0.75282440  1
  S  S8  1  0.97868817  0.33245786  0.58223560  1
  S  S9  1  0.18826047  0.04396150  0.58101735  1
  S  S10  1  0.68916923  0.04218010  0.57921553  1
  S  S11  1  0.33200597  0.62347827  0.58304547  1
  S  S12  1  0.83452075  0.63109771  0.58133451  1
  S  S13  1  0.47857593  0.62516834  0.08228525  1
  S  S14  1  0.97604607  0.62002272  0.08513570  1
  S  S15  1  0.33356079  0.03790522  0.08154739  1
  S  S16  1  0.83326369  0.04352592  0.08337024  1
  S  S17  1  0.18782482  0.33461841  0.07986539  1
  S  S18  1  0.69001856  0.33424567  0.08157770  1
  S  S19  1  0.31833942  0.66408880  0.91813056  1
  S  S20  1  0.81570795  0.66472428  0.91611268  1
  S  S21  1  0.16663680  0.97449946  0.91677848  1
  S  S22  1  0.66664263  0.96923959  0.91587761  1
  S  S23  1  0.31572502  0.96663041  0.41507085  1
  S  S24  1  0.81798650  0.97138078  0.41850114  1
  S  S25  1  0.16621145  0.36419918  0.41504103  1
  S  S26  1  0.66758740  0.35859787  0.41617341  1
  O  O0  1  0.10120459  0.01257940  0.30682493  1
  O  O1  1  0.60801898  0.01972309  0.30648055  1
  O  O2  1  0.40069593  0.79345087  0.29935069  1
  O  O3  1  0.90464627  0.78359908  0.29749711  1
  O  O4  1  0.49253499  0.19396408  0.29897774  1
  O  O5  1  0.98672368  0.19762056  0.29839557  1
  O  O6  1  0.11002882  0.19891373  0.80788758  1
  O  O7  1  0.60550733  0.19389058  0.80987418  1
  O  O8  1  0.48918869  0.78192816  0.79988560  1
  O  O9  1  0.99222159  0.79177909  0.79970946  1
  O  O10  1  0.40369532  0.02190280  0.79899871  1
  O  O11  1  0.90173064  0.01079973  0.80006391  1
  O  O12  1  0.38948801  0.97949214  0.70187044  1
  O  O13  1  0.88516627  0.97167673  0.70261768  1
  O  O14  1  0.09533704  0.20314371  0.69969107  1
  O  O15  1  0.59090278  0.21550828  0.70253313  1
  O  O16  1  0.00274909  0.79616181  0.70146639  1
  O  O17  1  0.50900507  0.79397942  0.70242690  1
  O  O18  1  0.38464797  0.79846446  0.20185010  1
  O  O19  1  0.89172429  0.80177708  0.20025612  1
  O  O20  1  0.00950533  0.22535499  0.20123089  1
  O  O21  1  0.50345002  0.21043597  0.20077004  1
  O  O22  1  0.08971757  0.96449287  0.20018850  1
  O  O23  1  0.59586453  0.98537693  0.19806541  1
  O  O24  1  0.43470148  0.34145752  0.64380136  1
  O  O25  1  0.93971973  0.34530947  0.63185940  1
  O  O26  1  0.23664611  0.13141447  0.62936914  1
  O  O27  1  0.73555233  0.12730323  0.62892907  1
  O  O28  1  0.32380344  0.52571491  0.63217703  1
  O  O29  1  0.82815614  0.53735126  0.63111908  1
  O  O30  1  0.43950630  0.53414212  0.13178743  1
  O  O31  1  0.93639963  0.52859126  0.13484829  1
  O  O32  1  0.32647642  0.11739452  0.13119655  1
  O  O33  1  0.82746617  0.12840001  0.13236966  1
  O  O34  1  0.23401874  0.34493921  0.12945275  1
  O  O35  1  0.73890417  0.34457995  0.12995317  1
  O  O36  1  0.22951516  0.32340669  0.03099483  1
  O  O37  1  0.73007586  0.32232604  0.03176270  1
  O  O38  1  0.43009257  0.53681762  0.03381645  1
  O  O39  1  0.92784350  0.53330808  0.03648340  1
  O  O40  1  0.33876397  0.13764546  0.03363230  1
  O  O41  1  0.83932692  0.14072583  0.03465768  1
  O  O42  1  0.22673958  0.13403126  0.53053896  1
  O  O43  1  0.73185344  0.13961208  0.53054999  1
  O  O44  1  0.33592729  0.53691432  0.53395103  1
  O  O45  1  0.84045415  0.54084007  0.53356354  1
  O  O46  1  0.42715751  0.32457424  0.53358285  1
  O  O47  1  0.93028686  0.32369364  0.53378516  1
  O  O48  1  0.28104342  0.69401243  0.96642346  1
  O  O49  1  0.78079418  0.69454501  0.96567189  1
  O  O50  1  0.07453022  0.44409127  0.96971635  1
  O  O51  1  0.57750205  0.45036153  0.96692372  1
  O  O52  1  0.15693311  0.87629136  0.96611198  1
  O  O53  1  0.65736344  0.87347332  0.96544882  1
  O  O54  1  0.28056496  0.86711595  0.46437268  1
  O  O55  1  0.78142559  0.86866221  0.46601366  1
  O  O56  1  0.15641445  0.44127650  0.46431129  1
  O  O57  1  0.65846821  0.43699351  0.46490768  1
  O  O58  1  0.07866658  0.70281251  0.46523605  1
  O  O59  1  0.57518399  0.70971915  0.46707637  1
  O  O60  1  0.05945640  0.64537601  0.35902071  1
  O  O61  1  0.55602601  0.64329898  0.36283913  1
  O  O62  1  0.26160723  0.87943046  0.36786703  1
  O  O63  1  0.76743632  0.89717331  0.36923000  1
  O  O64  1  0.17759631  0.46832126  0.36725142  1
  O  O65  1  0.68238517  0.46060779  0.36774117  1
  O  O66  1  0.05751627  0.47094987  0.86498380  1
  O  O67  1  0.56217808  0.47645831  0.86143719  1
  O  O68  1  0.18136216  0.90208338  0.86920275  1
  O  O69  1  0.68022251  0.89226147  0.86841881  1
  O  O70  1  0.26698519  0.63706262  0.87001977  1
  O  O71  1  0.76214712  0.64095634  0.86914324  1
  O  O72  1  0.01224079  0.84054630  0.40981132  1
  O  O73  1  0.50943978  0.84241786  0.41012088  1
  O  O74  1  0.39879774  0.99556589  0.40662166  1
  O  O75  1  0.90232910  0.99964307  0.40993814  1
  O  O76  1  0.09053124  0.19913273  0.40887191  1
  O  O77  1  0.59283877  0.19379949  0.41016598  1
  O  O78  1  0.01091672  0.17744629  0.91241684  1
  O  O79  1  0.51193209  0.18133161  0.91041301  1
  O  O80  1  0.09161118  0.98995243  0.91159191  1
  O  O81  1  0.59195561  0.98533268  0.90999827  1
  O  O82  1  0.40221331  0.80525518  0.91111269  1
  O  O83  1  0.89965274  0.80344983  0.90832182  1
  O  O84  1  0.48815135  0.16605043  0.58445046  1
  O  O85  1  0.98576491  0.18114782  0.58222599  1
  O  O86  1  0.10448411  0.02329238  0.58439389  1
  O  O87  1  0.60629759  0.02310714  0.58117778  1
  O  O88  1  0.40643493  0.78553744  0.58588635  1
  O  O89  1  0.91067714  0.79472511  0.58302052  1
  O  O90  1  0.48560986  0.79055750  0.08242597  1
  O  O91  1  0.98384660  0.78619701  0.08570659  1
  O  O92  1  0.40832562  0.02309375  0.08306572  1
  O  O93  1  0.90795046  0.02781130  0.08616562  1
  O  O94  1  0.10443010  0.18556731  0.08225328  1
  O  O95  1  0.60670575  0.18662288  0.08472616  1
  O  O96  1  0.35222665  0.16424994  0.74679768  1
  O  O97  1  0.84412085  0.14693645  0.74972026  1
  O  O98  1  0.24470078  0.31279467  0.74663630  1
  O  O99  1  0.74042900  0.32168503  0.75081884  1
  O  O100  1  0.42753608  0.52972812  0.74768400  1
  O  O101  1  0.92644684  0.53880512  0.74991466  1
  O  O102  1  0.34338120  0.54195736  0.24905386  1
  O  O103  1  0.85475025  0.54188520  0.24331256  1
  O  O104  1  0.42715403  0.31521297  0.24905545  1
  O  O105  1  0.92869387  0.33071097  0.24440237  1
  O  O106  1  0.23810316  0.15522007  0.24827723  1
  O  O107  1  0.74231893  0.17104525  0.24610706  1
  O  O108  1  0.32038935  0.50780515  0.92604875  1
  O  O109  1  0.81619826  0.50567627  0.92297998  1
  O  O110  1  0.42660761  0.34395487  0.92242844  1
  O  O111  1  0.92335914  0.33730865  0.92513264  1
  O  O112  1  0.23713543  0.14651532  0.92475016  1
  O  O113  1  0.73767951  0.14084202  0.92267448  1
  O  O114  1  0.31444828  0.12472392  0.42051320  1
  O  O115  1  0.82102531  0.13408614  0.42509640  1
  O  O116  1  0.23645102  0.33455297  0.42030554  1
  O  O117  1  0.73838025  0.32738346  0.42290497  1
  O  O118  1  0.42168404  0.50755036  0.42170219  1
  O  O119  1  0.92594057  0.50664834  0.42147193  1
  O  O120  1  0.17923219  0.48408901  0.07883994  1
  O  O121  1  0.68282981  0.48508718  0.08078636  1
  O  O122  1  0.05970574  0.63974931  0.08175233  1
  O  O123  1  0.56214001  0.64561405  0.07889305  1
  O  O124  1  0.25928293  0.87230467  0.07789220  1
  O  O125  1  0.75906430  0.87896667  0.08028021  1
  O  O126  1  0.18088992  0.87834255  0.58035503  1
  O  O127  1  0.68369654  0.87970506  0.57833653  1
  O  O128  1  0.25783374  0.64182514  0.58018054  1
  O  O129  1  0.76189183  0.64935695  0.57752305  1
  O  O130  1  0.06219497  0.47918623  0.57879863  1
  O  O131  1  0.57135505  0.49692216  0.58640368  1
  O  O132  1  0.15164394  0.82042539  0.25675367  1
  O  O133  1  0.66327866  0.84058949  0.25109568  1
  O  O134  1  0.26558058  0.68289753  0.25851050  1
  O  O135  1  0.77015250  0.67050804  0.25446174  1
  O  O136  1  0.07444259  0.46720026  0.25692770  1
  O  O137  1  0.57547372  0.45568210  0.25270031  1
  O  O138  1  0.16341279  0.48331190  0.75161679  1
  O  O139  1  0.65350707  0.48251532  0.75868335  1
  O  O140  1  0.07459654  0.69505530  0.75336652  1
  O  O141  1  0.57409403  0.68229048  0.75808253  1
  O  O142  1  0.26898388  0.86661240  0.75667302  1
  O  O143  1  0.76675995  0.85080757  0.76005080  1
loop_
_geom_bond_atom_site_label_1
_geom_bond_atom_site_label_2
_geom_bond_distance
_geom_bond_site_symmetry_2
Na0 O132 2.393498 1_555
Na0 O103 2.531149 1_455
Na0 O136 2.606432 1_555
Na0 O105 2.611338 1_455
Na0 O60 2.786899 1_555
Na0 O22 2.911908 1_555
Na0 O3 2.972903 1_455
Na1 O139 2.477367 1_555
Na1 O96 2.539863 1_555
Na1 O100 2.623751 1_555
Na1 O141 2.635177 1_555
Na1 O24 2.765754 1_555
Na1 O15 2.802519 1_555
Na2 O78 2.451090 1_555
Na2 O112 2.560788 1_555
Na2 O80 2.566431 1_545
Na2 O108 2.680842 1_555
Na2 O6 2.758003 1_555
Na2 O50 2.923042 1_555
Na2 O70 2.951307 1_555
Na3 O79 2.423661 1_555
Na3 O81 2.602926 1_545
Na3 O113 2.622102 1_555
Na3 O109 2.623824 1_555
Na3 O7 2.701999 1_555
Na3 O51 2.896880 1_555
Na3 O71 2.967580 1_555
Na4 O72 2.470750 1_545
Na4 O114 2.541030 1_555
Na4 O116 2.570255 1_555
Na4 O76 2.636921 1_555
Na4 O58 2.869221 1_545
Na4 O0 2.926528 1_555
Na5 O73 2.447362 1_545
Na5 O77 2.583583 1_555
Na5 O117 2.594913 1_555
Na5 O115 2.698994 1_555
Na5 O59 2.754117 1_545
Na5 O1 2.922363 1_555
Na5 O63 2.997362 1_545
Na6 O89 2.695415 1_555
Na6 O72 2.700864 1_655
Na6 O85 2.834199 1_565
Na6 O75 2.853562 1_555
Na6 O86 2.869772 1_665
Na6 O76 2.955949 1_665
Na7 O84 2.602055 1_555
Na7 O88 2.794462 1_545
Na7 O87 2.804045 1_555
Na7 O73 2.823069 1_545
Na7 O77 2.945688 1_555
Na7 O74 2.977351 1_545
Na8 O78 2.497273 1_655
Na8 O80 2.785220 1_645
Na8 O83 2.830691 1_545
Na8 O93 2.897578 1_556
Na8 O94 2.899309 1_656
Na8 O91 3.034732 1_546
Na9 O79 2.607883 1_555
Na9 O92 2.769357 1_556
Na9 O82 2.775889 1_545
Na9 O81 2.881097 1_545
Na9 O90 2.905855 1_546
Na9 O95 2.947677 1_556
Na10 O98 2.510070 1_555
Na10 O96 2.683611 1_555
Na10 O100 2.691877 1_555
Na10 O110 2.962971 1_555
Na10 O112 3.015806 1_555
Na10 O108 3.036492 1_555
Na11 O99 2.659267 1_555
Na11 O101 2.690291 1_555
Na11 O97 2.699147 1_555
Na11 O111 2.850891 1_555
Na11 O109 2.963070 1_555
Na11 O113 2.969589 1_555
Na12 O118 2.559443 1_555
Na12 O114 2.811528 1_555
Na12 O116 2.819108 1_555
Na12 O104 2.838101 1_555
Na12 O102 2.846216 1_555
Na12 O106 2.930776 1_555
Na13 O107 2.735699 1_555
Na13 O119 2.745789 1_555
Na13 O117 2.781906 1_555
Na13 O115 2.841431 1_555
Na13 O105 2.918855 1_555
Na13 O103 2.920852 1_555
Na14 O132 2.597371 1_555
Na14 O134 2.767556 1_555
Na14 O136 2.884635 1_555
Na14 O124 2.897985 1_555
Na14 O122 2.986858 1_555
Na14 O120 3.022966 1_555
Na15 O133 2.428127 1_555
Na15 O137 2.764650 1_555
Na15 O135 2.864259 1_555
Na15 O125 2.960486 1_555
Na15 O123 2.962641 1_555
Na16 O138 2.514313 1_555
Na16 O128 2.853563 1_555
Na16 O140 2.863462 1_555
Na16 O142 2.899144 1_555
Na16 O130 2.939935 1_555
Na16 O126 3.046870 1_555
Na17 O131 2.470826 1_555
Na17 O139 2.793147 1_555
Na17 O129 2.843185 1_555
Na17 O127 2.924903 1_555
Na17 O141 2.992416 1_555
La0 O14 2.119002 1_555
La0 O16 2.389657 1_545
La0 O13 2.452498 1_445
La0 O85 2.469872 1_455
La0 O86 2.477570 1_555
La0 O89 2.576000 1_445
La1 O84 2.204869 1_555
La1 O15 2.218754 1_555
La1 O12 2.454856 1_545
La1 O87 2.489738 1_555
La1 O88 2.560078 1_545
La1 O17 2.565474 1_545
La2 O22 2.157083 1_545
La2 O19 2.408106 1_445
La2 O20 2.420719 1_555
La2 O94 2.456472 1_555
La2 O91 2.461450 1_445
La2 O93 2.559531 1_455
La3 O23 2.117713 1_555
La3 O21 2.371892 1_565
La3 O18 2.435902 1_555
La3 O90 2.470409 1_555
La3 O95 2.507775 1_565
La3 O92 2.594658 1_565
La4 O99 2.205134 1_555
La4 O27 2.353412 1_555
La4 O29 2.381236 1_555
La4 O101 2.453521 1_555
La4 O97 2.469417 1_555
La4 O25 2.520302 1_555
La5 O106 2.192225 1_555
La5 O32 2.401455 1_555
La5 O34 2.407641 1_555
La5 O104 2.413326 1_555
La5 O102 2.436323 1_555
La5 O30 2.515851 1_555
La6 O50 2.148779 1_554
La6 O52 2.411146 1_554
La6 O120 2.441418 1_555
La6 O48 2.443716 1_554
La6 O122 2.474722 1_555
La6 O124 2.514767 1_555
La7 O51 2.152261 1_554
La7 O49 2.424094 1_554
La7 O53 2.424869 1_554
La7 O123 2.427626 1_555
La7 O121 2.464414 1_555
La7 O125 2.560084 1_555
La8 O58 2.182477 1_555
La8 O130 2.429204 1_555
La8 O54 2.430361 1_555
La8 O56 2.434382 1_555
La8 O126 2.437035 1_555
La8 O128 2.498460 1_555
La9 O59 2.198232 1_555
La9 O131 2.218869 1_555
La9 O127 2.450434 1_555
La9 O57 2.455088 1_555
La9 O129 2.558591 1_555
La9 O55 2.666313 1_555
La10 O61 2.148592 1_555
La10 O133 2.259736 1_555
La10 O63 2.450394 1_555
La10 O137 2.451506 1_555
La10 O65 2.571829 1_555
La10 O135 2.622653 1_555
La11 O66 2.194852 1_555
La11 O138 2.214050 1_555
La11 O140 2.418667 1_555
La11 O70 2.486388 1_555
La11 O142 2.533272 1_555
La11 O68 2.614381 1_555
O0 Si0 1.639020 1_545
O0 Y0 2.117629 1_545
O1 Si1 1.641719 1_555
O1 Y1 2.126840 1_545
O2 S0 1.478864 1_555
O2 Y1 2.278353 1_555
O3 S1 1.496216 1_555
O3 Y0 2.319617 1_655
O4 S3 1.475199 1_555
O4 Y1 2.348791 1_545
O5 S2 1.476285 1_655
O5 Y0 2.427201 1_645
O6 Si2 1.666115 1_555
O6 Y2 2.107068 1_555
O7 Si3 1.650295 1_555
O7 Y3 2.100393 1_555
O8 S5 1.493517 1_555
O8 Y3 2.342057 1_565
O9 S4 1.484573 1_555
O9 Y2 2.317524 1_665
O10 S6 1.504713 1_555
O10 Y3 2.259889 1_555
O11 S7 1.493018 1_545
O11 Y2 2.238943 1_655
O12 S6 1.470381 1_565
O13 S7 1.484669 1_555
O14 Si2 1.654111 1_555
O15 Si3 1.639004 1_555
O16 S4 1.482891 1_455
O17 S5 1.460347 1_555
O18 S0 1.488969 1_555
O19 S1 1.488963 1_555
O20 S2 1.485082 1_555
O21 S3 1.489739 1_555
O22 Si0 1.663359 1_555
O23 Si1 1.653859 1_565
O24 Si4 1.650485 1_555
O24 Y4 2.162997 1_555
O25 S8 1.471701 1_555
O26 S9 1.484088 1_555
O26 Y4 2.279766 1_555
O27 S10 1.493930 1_555
O28 S11 1.490782 1_555
O28 Y4 2.248874 1_555
O29 S12 1.490240 1_555
O30 S13 1.471498 1_555
O31 S14 1.479472 1_555
O31 Y5 2.443002 1_555
O32 S15 1.482286 1_555
O33 S16 1.489083 1_555
O33 Y5 2.251622 1_555
O34 S17 1.484110 1_555
O35 S18 1.488467 1_555
O35 Y5 2.254173 1_555
O36 S17 1.479566 1_555
O36 Y6 2.458748 1_554
O37 S18 1.483986 1_555
O37 Y7 2.391309 1_554
O38 S13 1.489164 1_555
O38 Y6 2.245903 1_554
O39 S14 1.487265 1_555
O39 Y7 2.263959 1_554
O40 S15 1.489917 1_555
O40 Y6 2.246656 1_554
O41 S16 1.487974 1_555
O41 Y7 2.249434 1_554
O42 S9 1.486591 1_555
O42 Y8 2.442635 1_555
O43 S10 1.490127 1_555
O43 Y9 2.391191 1_555
O44 S11 1.488336 1_555
O44 Y8 2.261494 1_555
O45 S12 1.495231 1_555
O45 Y9 2.226800 1_555
O46 Si4 1.644986 1_555
O46 Y8 2.049784 1_555
O47 S8 1.488275 1_555
O47 Y9 2.240153 1_555
O48 S19 1.487655 1_555
O49 S20 1.488079 1_555
O50 Si5 1.661552 1_555
O51 Si6 1.665258 1_555
O52 S21 1.491750 1_555
O53 S22 1.485365 1_555
O54 S23 1.484329 1_555
O55 S24 1.464268 1_555
O56 S25 1.480231 1_555
O57 S26 1.471423 1_555
O58 Si7 1.655534 1_555
O59 Si8 1.646531 1_555
O60 Si7 1.649504 1_555
O60 Y10 2.122200 1_555
O61 Si8 1.643319 1_555
O62 S23 1.501341 1_555
O62 Y10 2.265377 1_555
O63 S24 1.493291 1_555
O64 S25 1.486733 1_555
O64 Y10 2.363774 1_555
O65 S26 1.477997 1_555
O66 Si5 1.626543 1_555
O67 Si6 1.636027 1_555
O67 Y11 2.126136 1_555
O68 S21 1.458290 1_555
O69 S22 1.471294 1_555
O69 Y11 2.427533 1_555
O70 S19 1.478626 1_555
O71 S20 1.485833 1_555
O71 Y11 2.350322 1_555
O72 Si7 1.664079 1_555
O72 Y0 2.158074 1_555
O73 Si8 1.657959 1_555
O73 Y1 2.131790 1_555
O74 S23 1.467828 1_555
O74 Y1 2.465888 1_555
O75 S24 1.493886 1_555
O75 Y0 2.394485 1_655
O76 S25 1.505615 1_555
O76 Y0 2.326837 1_545
O77 S26 1.496216 1_555
O77 Y1 2.353477 1_545
O78 Si5 1.656519 1_555
O78 Y2 2.193506 1_555
O79 Si6 1.659937 1_555
O79 Y3 2.193365 1_555
O80 S21 1.500297 1_555
O80 Y2 2.402767 1_565
O81 S22 1.498952 1_555
O81 Y3 2.396976 1_565
O82 S19 1.486212 1_555
O82 Y3 2.462110 1_565
O83 S20 1.481288 1_555
O83 Y2 2.520046 1_665
O84 Si4 1.656019 1_555
O85 S8 1.495563 1_555
O86 S9 1.497262 1_555
O87 S10 1.484722 1_555
O88 S11 1.473405 1_555
O89 S12 1.495039 1_555
O90 S13 1.495256 1_555
O91 S14 1.496499 1_555
O92 S15 1.486926 1_555
O93 S16 1.491423 1_555
O94 S17 1.500341 1_555
O95 S18 1.494840 1_555
O96 S6 1.503245 1_555
O96 Y4 2.436866 1_555
O97 S7 1.492358 1_545
O98 Si2 1.639864 1_555
O98 Y4 2.206415 1_555
O99 Si3 1.648787 1_555
O100 S5 1.506360 1_555
O100 Y4 2.437935 1_555
O101 S4 1.490816 1_555
O102 S0 1.490211 1_555
O103 S1 1.511959 1_555
O103 Y5 2.363218 1_555
O104 S3 1.492692 1_555
O105 S2 1.505168 1_655
O105 Y5 2.387533 1_555
O106 Si0 1.638910 1_545
O107 Si1 1.661852 1_555
O107 Y5 2.076117 1_555
O108 S19 1.504140 1_555
O108 Y6 2.317548 1_555
O109 S20 1.511838 1_555
O109 Y7 2.372549 1_555
O110 Si6 1.643027 1_555
O110 Y6 2.088472 1_555
O111 Si5 1.641038 1_655
O111 Y7 2.080500 1_555
O112 S21 1.511461 1_545
O112 Y6 2.330953 1_555
O113 S22 1.509091 1_545
O113 Y7 2.359279 1_555
O114 S23 1.506392 1_545
O114 Y8 2.444399 1_555
O115 S24 1.512645 1_545
O115 Y9 2.330097 1_555
O116 S25 1.491218 1_555
O116 Y8 2.567797 1_555
O117 S26 1.514412 1_555
O117 Y9 2.345095 1_555
O118 Si8 1.636953 1_555
O118 Y8 2.136653 1_555
O119 Si7 1.641879 1_655
O119 Y9 2.123533 1_555
O120 S17 1.494902 1_555
O121 S18 1.492514 1_555
O122 S14 1.498625 1_455
O123 S13 1.494142 1_555
O124 S15 1.492186 1_565
O125 S16 1.485166 1_565
O126 S9 1.494757 1_565
O127 S10 1.480917 1_565
O128 S11 1.496121 1_555
O129 S12 1.467996 1_555
O130 S8 1.494031 1_455
O131 Si4 1.660318 1_555
O132 Si0 1.659314 1_555
O132 Y10 2.189652 1_555
O133 Si1 1.645429 1_565
O134 S0 1.490326 1_555
O134 Y10 2.389204 1_555
O135 S1 1.460176 1_555
O136 S2 1.498162 1_555
O136 Y10 2.377123 1_555
O137 S3 1.483918 1_555
O138 Si2 1.656674 1_555
O139 Si3 1.658502 1_555
O139 Y11 2.132229 1_555
O140 S4 1.482363 1_455
O141 S5 1.505987 1_555
O141 Y11 2.319476 1_555
O142 S6 1.473139 1_565
O143 S7 1.477032 1_555
O143 Y11 2.368769 1_555
