# generated using pymatgen
data_Na2FeNiF7
_symmetry_space_group_name_H-M   'P 1'
_cell_length_a   7.39679489
_cell_length_b   7.39679489
_cell_length_c   7.39679489
_cell_angle_alpha   120.92134701
_cell_angle_beta   118.60241870
_cell_angle_gamma   90.42457528
_symmetry_Int_Tables_number   1
_chemical_formula_structural   Na2FeNiF7
_chemical_formula_sum   'Na4 Fe2 Ni2 F14'
_cell_volume   287.04019961
_cell_formula_units_Z   2
loop_
 _symmetry_equiv_pos_site_id
 _symmetry_equiv_pos_as_xyz
  1  'x, y, z'
loop_
 _atom_site_type_symbol
 _atom_site_label
 _atom_site_symmetry_multiplicity
 _atom_site_fract_x
 _atom_site_fract_y
 _atom_site_fract_z
 _atom_site_occupancy
  Na  Na0  1  0.50000000  0.50000000  0.00000000  1
  Na  Na1  1  0.00000000  0.00000000  0.00000000  1
  Na  Na2  1  0.50000000  0.00000000  0.00000000  1
  Na  Na3  1  0.50000000  0.50000000  0.50000000  1
  Fe  Fe0  1  0.00000000  0.50000000  0.50000000  1
  Fe  Fe1  1  0.50000000  0.00000000  0.50000000  1
  Ni  Ni0  1  0.00000000  0.00000000  0.50000000  1
  Ni  Ni1  1  0.00000000  0.50000000  0.00000000  1
  F  F0  1  0.94712000  0.58395900  0.76291200  1
  F  F1  1  0.05288000  0.81579200  0.63683900  1
  F  F2  1  0.67895300  0.91604100  0.36316100  1
  F  F3  1  0.32104700  0.68420800  0.23708800  1
  F  F4  1  0.05288000  0.41604100  0.23708800  1
  F  F5  1  0.94712000  0.18420800  0.36316100  1
  F  F6  1  0.32104700  0.08395900  0.63683900  1
  F  F7  1  0.67895300  0.31579200  0.76291200  1
  F  F8  1  0.10289500  0.25000000  0.85289500  1
  F  F9  1  0.89710500  0.75000000  0.14710500  1
  F  F10  1  0.36113800  0.09128600  0.26985100  1
  F  F11  1  0.63886200  0.90871400  0.73014900  1
  F  F12  1  0.67856500  0.40871400  0.26985100  1
  F  F13  1  0.32143500  0.59128600  0.73014900  1
loop_
_geom_bond_atom_site_label_1
_geom_bond_atom_site_label_2
_geom_bond_distance
_geom_bond_site_symmetry_2
F0 Fe0 1.952242 1_655
F0 Ni1 2.019956 1_656
F0 Na1 2.545126 1_666
F0 Na3 2.770529 1_555
F1 Fe0 1.952242 1_555
F1 Ni0 2.019956 1_565
F1 Na1 2.545126 1_566
F1 Na2 2.770529 1_566
F2 Fe1 1.952242 1_565
F2 Ni0 2.019956 1_665
F2 Na0 2.545126 1_555
F2 Na2 2.770529 1_565
F3 Fe1 1.952242 1_565
F3 Ni1 2.019956 1_555
F3 Na0 2.545126 1_555
F3 Na3 2.770529 1_555
F4 Fe0 1.952242 1_555
F4 Ni1 2.019956 1_555
F4 Na1 2.545126 1_555
F4 Na3 2.770529 1_555
F5 Fe0 1.952242 1_655
F5 Ni0 2.019956 1_655
F5 Na1 2.545126 1_655
F5 Na2 2.770529 1_555
F6 Fe1 1.952242 1_555
F6 Ni0 2.019956 1_555
F6 Na0 2.545126 1_556
F6 Na2 2.770529 1_556
F7 Fe1 1.952242 1_555
F7 Ni1 2.019956 1_656
F7 Na0 2.545126 1_556
F7 Na3 2.770529 1_555
F8 Ni0 1.982081 1_555
F8 Ni1 1.982081 1_556
F8 Na1 2.832443 1_556
F8 Na0 2.832443 1_556
F9 Ni0 1.982081 1_665
F9 Ni1 1.982081 1_655
F9 Na0 2.832443 1_555
F9 Na1 2.832443 1_665
F10 Fe1 1.981522 1_555
F10 Na1 2.249169 1_555
F10 Na2 2.466414 1_555
F10 Na3 2.466419 1_555
F11 Fe1 1.981522 1_565
F11 Na1 2.249169 1_666
F11 Na2 2.466414 1_566
F11 Na3 2.466419 1_555
F12 Fe0 1.981523 1_655
F12 Na0 2.249164 1_555
F12 Na2 2.466420 1_555
F12 Na3 2.466420 1_555
F13 Fe0 1.981523 1_555
F13 Na0 2.249164 1_556
F13 Na2 2.466420 1_566
F13 Na3 2.466420 1_555
