# generated using pymatgen
data_Li2V6O15
_symmetry_space_group_name_H-M   'P 1'
_cell_length_a   3.69360600
_cell_length_b   8.00265716
_cell_length_c   10.27004353
_cell_angle_alpha   106.77403868
_cell_angle_beta   90.00000000
_cell_angle_gamma   103.34262841
_symmetry_Int_Tables_number   1
_chemical_formula_structural   Li2V6O15
_chemical_formula_sum   'Li2 V6 O15'
_cell_volume   282.08295121
_cell_formula_units_Z   1
loop_
 _symmetry_equiv_pos_site_id
 _symmetry_equiv_pos_as_xyz
  1  'x, y, z'
loop_
 _atom_site_type_symbol
 _atom_site_label
 _atom_site_symmetry_multiplicity
 _atom_site_fract_x
 _atom_site_fract_y
 _atom_site_fract_z
 _atom_site_occupancy
  Li  Li0  1  0.54721100  0.09442200  0.33576800  1
  Li  Li1  1  0.45278900  0.90557800  0.66423200  1
  V  V0  1  0.11347400  0.22694700  0.11515000  1
  V  V1  1  0.88652600  0.77305300  0.88485000  1
  V  V2  1  0.33160700  0.66321400  0.09293000  1
  V  V3  1  0.66839300  0.33678600  0.90707000  1
  V  V4  1  0.28504300  0.57008600  0.40619000  1
  V  V5  1  0.71495700  0.42991400  0.59381000  1
  O  O0  1  0.00000000  0.00000000  0.00000000  1
  O  O1  1  0.81018500  0.62037000  0.04193700  1
  O  O2  1  0.18981500  0.37963000  0.95806300  1
  O  O3  1  0.63139400  0.26278700  0.08006000  1
  O  O4  1  0.36860600  0.73721300  0.91994000  1
  O  O5  1  0.42927100  0.85854100  0.21281600  1
  O  O6  1  0.57072900  0.14145900  0.78718400  1
  O  O7  1  0.25731700  0.51463400  0.22486800  1
  O  O8  1  0.74268300  0.48536600  0.77513200  1
  O  O9  1  0.09613900  0.19227800  0.26891100  1
  O  O10  1  0.90386100  0.80772200  0.73108900  1
  O  O11  1  0.24507500  0.49014900  0.57426700  1
  O  O12  1  0.75492500  0.50985100  0.42573300  1
  O  O13  1  0.39489400  0.78978900  0.46690300  1
  O  O14  1  0.60510600  0.21021100  0.53309700  1
loop_
_geom_bond_atom_site_label_1
_geom_bond_atom_site_label_2
_geom_bond_distance
_geom_bond_site_symmetry_2
Li0 O5 1.895311 1_545
Li0 O14 1.958575 1_555
Li0 O9 2.184741 1_655
Li0 O9 2.184741 1_555
Li1 O6 1.895311 1_565
Li1 O13 1.958575 1_555
Li1 O10 2.184741 1_555
Li1 O10 2.184741 1_455
O0 V1 1.811537 1_444
O0 V0 1.811537 1_555
O1 V2 1.921614 1_655
O1 V2 1.921614 1_555
O1 V3 2.231624 1_554
O1 V1 2.270231 1_554
O2 V3 1.921614 1_555
O2 V3 1.921614 1_455
O2 V2 2.231624 1_556
O2 V0 2.270231 1_556
O3 V0 1.917836 1_655
O3 V0 1.917836 1_555
O3 V3 2.023767 1_554
O4 V1 1.917836 1_455
O4 V1 1.917836 1_555
O4 V2 2.023767 1_556
O5 V2 1.648739 1_555
O6 V3 1.648739 1_555
O7 V4 1.782468 1_555
O7 V2 2.025959 1_555
O7 V0 2.188711 1_555
O8 V5 1.782468 1_555
O8 V3 2.025959 1_555
O8 V1 2.188711 1_555
O9 V0 1.679112 1_555
O10 V1 1.679112 1_555
O11 V5 1.930489 1_555
O11 V5 1.930493 1_455
O11 V4 2.001104 1_555
O12 V4 1.930489 1_555
O12 V4 1.930493 1_655
O12 V5 2.001104 1_555
O13 V4 1.637887 1_555
O14 V5 1.637887 1_555
