# generated using pymatgen
data_SnF2
_symmetry_space_group_name_H-M   'P 1'
_cell_length_a   4.87662792
_cell_length_b   6.98320535
_cell_length_c   13.38613200
_cell_angle_alpha   77.85783991
_cell_angle_beta   79.50485405
_cell_angle_gamma   69.56354465
_symmetry_Int_Tables_number   1
_chemical_formula_structural   SnF2
_chemical_formula_sum   'Sn8 F16'
_cell_volume   414.65930879
_cell_formula_units_Z   8
loop_
 _symmetry_equiv_pos_site_id
 _symmetry_equiv_pos_as_xyz
  1  'x, y, z'
loop_
 _atom_site_type_symbol
 _atom_site_label
 _atom_site_symmetry_multiplicity
 _atom_site_fract_x
 _atom_site_fract_y
 _atom_site_fract_z
 _atom_site_occupancy
  Sn  Sn0  1  0.35386493  0.54593189  0.68577040  1
  Sn  Sn1  1  0.58556722  0.95406811  0.81422960  1
  Sn  Sn2  1  0.64613507  0.45406811  0.31422960  1
  Sn  Sn3  1  0.41443278  0.04593189  0.18577040  1
  Sn  Sn4  1  0.12602447  0.18534262  0.55768124  1
  Sn  Sn5  1  0.86904933  0.31465738  0.94231876  1
  Sn  Sn6  1  0.87397553  0.81465738  0.44231876  1
  Sn  Sn7  1  0.13095067  0.68534262  0.05768124  1
  F  F0  1  0.86051696  0.01887199  0.91716628  1
  F  F1  1  0.79655623  0.48112801  0.58283372  1
  F  F2  1  0.13948304  0.98112801  0.08283372  1
  F  F3  1  0.20344377  0.51887199  0.41716628  1
  F  F4  1  0.16424591  0.81131530  0.54214503  1
  F  F5  1  0.51770524  0.68868470  0.95785497  1
  F  F6  1  0.83575409  0.18868470  0.45785497  1
  F  F7  1  0.48229476  0.31131530  0.04214503  1
  F  F8  1  0.50922348  0.20844496  0.30613445  1
  F  F9  1  0.02380289  0.29155504  0.19386555  1
  F  F10  1  0.49077652  0.79155504  0.69386555  1
  F  F11  1  0.97619711  0.70844496  0.80613445  1
  F  F12  1  0.39763142  0.59014231  0.17969031  1
  F  F13  1  0.16746404  0.90985769  0.32030969  1
  F  F14  1  0.60236858  0.40985769  0.82030969  1
  F  F15  1  0.83253596  0.09014231  0.67969031  1
loop_
_geom_bond_atom_site_label_1
_geom_bond_atom_site_label_2
_geom_bond_distance
_geom_bond_site_symmetry_2
F0 Sn5 2.176968 1_555
F0 Sn1 2.293559 1_545
F1 Sn4 2.176965 1_655
F1 Sn0 2.293562 1_555
F2 Sn7 2.176968 1_555
F2 Sn3 2.293559 1_565
F3 Sn6 2.176965 1_455
F3 Sn2 2.293562 1_555
F4 Sn6 2.107814 1_455
F4 Sn0 2.436790 1_555
F4 Sn4 2.602782 1_565
F5 Sn7 2.107814 1_556
F5 Sn1 2.436791 1_555
F5 Sn5 2.602785 1_555
F6 Sn4 2.107814 1_655
F6 Sn2 2.436790 1_555
F6 Sn6 2.602782 1_545
F7 Sn5 2.107814 1_554
F7 Sn3 2.436791 1_555
F7 Sn7 2.602785 1_555
F8 Sn2 2.074571 1_555
F8 Sn3 2.346162 1_555
F9 Sn3 2.074571 1_555
F9 Sn2 2.346162 1_455
F10 Sn0 2.074571 1_555
F10 Sn1 2.346162 1_555
F11 Sn1 2.074571 1_555
F11 Sn0 2.346162 1_655
F12 Sn7 2.124611 1_555
F12 Sn2 2.210434 1_555
F13 Sn6 2.124608 1_455
F13 Sn3 2.210434 1_565
F14 Sn5 2.124611 1_555
F14 Sn0 2.210434 1_555
F15 Sn4 2.124608 1_655
F15 Sn1 2.210434 1_545
