# generated using pymatgen
data_Na10Sc2Ta6Si11SO48
_symmetry_space_group_name_H-M   'P 1'
_cell_length_a   18.02591680
_cell_length_b   9.03607050
_cell_length_c   22.70500533
_cell_angle_alpha   89.97749023
_cell_angle_beta   90.03761582
_cell_angle_gamma   120.01241312
_symmetry_Int_Tables_number   1
_chemical_formula_structural   Na10Sc2Ta6Si11SO48
_chemical_formula_sum   'Na30 Sc6 Ta18 Si33 S3 O144'
_cell_volume   3202.39413406
_cell_formula_units_Z   3
loop_
 _symmetry_equiv_pos_site_id
 _symmetry_equiv_pos_as_xyz
  1  'x, y, z'
loop_
 _atom_site_type_symbol
 _atom_site_label
 _atom_site_symmetry_multiplicity
 _atom_site_fract_x
 _atom_site_fract_y
 _atom_site_fract_z
 _atom_site_occupancy
  Na  Na0  1  0.31725061  0.99177770  0.25190222  1
  Na  Na1  1  0.81838813  0.99227383  0.25199718  1
  Na  Na2  1  0.81906219  0.64079323  0.74821922  1
  Na  Na3  1  0.18247865  0.98757124  0.75004409  1
  Na  Na4  1  0.68102672  0.00099798  0.74926516  1
  Na  Na5  1  0.01792029  0.70815869  0.58485729  1
  Na  Na6  1  0.83594281  0.96507104  0.58495127  1
  Na  Na7  1  0.64750707  0.96939861  0.08412010  1
  Na  Na8  1  0.33573444  0.70634510  0.08562336  1
  Na  Na9  1  0.83762090  0.70774020  0.08701029  1
  Na  Na10  1  0.01806905  0.32649348  0.08589476  1
  Na  Na11  1  0.51500102  0.32384720  0.08625991  1
  Na  Na12  1  0.98717986  0.66262507  0.91476921  1
  Na  Na13  1  0.34721304  0.02875850  0.91474391  1
  Na  Na14  1  0.48586139  0.31162652  0.41568318  1
  Na  Na15  1  0.98720179  0.31264691  0.41546697  1
  Na  Na16  1  0.34508240  0.66216234  0.41605487  1
  Na  Na17  1  0.84580690  0.66327371  0.41568288  1
  Na  Na18  1  0.00842922  0.00888166  0.50458979  1
  Na  Na19  1  0.50392732  0.99976793  0.50367289  1
  Na  Na20  1  0.00599279  0.00879219  0.00413631  1
  Na  Na21  1  0.50192644  0.99861754  0.00024981  1
  Na  Na22  1  0.33658225  0.34720586  0.83366237  1
  Na  Na23  1  0.83560542  0.32807508  0.83367421  1
  Na  Na24  1  0.33179979  0.33646779  0.33352731  1
  Na  Na25  1  0.83233367  0.33712166  0.33337108  1
  Na  Na26  1  0.16351831  0.65766949  0.17160914  1
  Na  Na27  1  0.66420654  0.65122471  0.17375731  1
  Na  Na28  1  0.17062708  0.66707393  0.66967501  1
  Na  Na29  1  0.65993614  0.65422662  0.66446634  1
  Sc  Sc0  1  0.99967662  0.99625846  0.64510143  1
  Sc  Sc1  1  0.00012165  0.00251857  0.14625716  1
  Sc  Sc2  1  0.49538105  0.00338401  0.14718582  1
  Sc  Sc3  1  0.16435058  0.65264584  0.31565540  1
  Sc  Sc4  1  0.66480421  0.65319401  0.31568310  1
  Sc  Sc5  1  0.16836248  0.66940274  0.81564687  1
  Ta  Ta0  1  0.99564331  0.99640966  0.35490427  1
  Ta  Ta1  1  0.49493486  0.99640138  0.35472824  1
  Ta  Ta2  1  0.99443930  0.99696348  0.85632275  1
  Ta  Ta3  1  0.49969186  0.99661461  0.85420888  1
  Ta  Ta4  1  0.49833290  0.99974646  0.64511422  1
  Ta  Ta5  1  0.33943004  0.33579140  0.68481223  1
  Ta  Ta6  1  0.83600374  0.33652925  0.68709001  1
  Ta  Ta7  1  0.33785910  0.34354243  0.18632707  1
  Ta  Ta8  1  0.83966240  0.34718694  0.18666680  1
  Ta  Ta9  1  0.33212292  0.33769565  0.97885298  1
  Ta  Ta10  1  0.83155004  0.32695657  0.97793373  1
  Ta  Ta11  1  0.33199234  0.33147699  0.48168665  1
  Ta  Ta12  1  0.83092105  0.32828934  0.48086635  1
  Ta  Ta13  1  0.16686304  0.66856459  0.01950946  1
  Ta  Ta14  1  0.66677984  0.66679103  0.01894321  1
  Ta  Ta15  1  0.16945033  0.66816327  0.52152355  1
  Ta  Ta16  1  0.66280912  0.66219138  0.52072777  1
  Ta  Ta17  1  0.66269294  0.66292926  0.81283077  1
  Si  Si0  1  0.35215571  0.70462224  0.24857265  1
  Si  Si1  1  0.85304615  0.70750707  0.24818354  1
  Si  Si2  1  0.00220530  0.29559820  0.24810226  1
  Si  Si3  1  0.50184254  0.29734682  0.24847267  1
  Si  Si4  1  0.64209237  0.28800032  0.74953746  1
  Si  Si5  1  0.00189967  0.70880725  0.74941924  1
  Si  Si6  1  0.49648273  0.70934275  0.74947694  1
  Si  Si7  1  0.35474031  0.99886884  0.74989477  1
  Si  Si8  1  0.85534283  0.00263702  0.74881083  1
  Si  Si9  1  0.47946369  0.33186897  0.58198519  1
  Si  Si10  1  0.98046314  0.33470862  0.58268787  1
  Si  Si11  1  0.18893741  0.04360828  0.58424630  1
  Si  Si12  1  0.68679703  0.04299893  0.58445865  1
  Si  Si13  1  0.33338984  0.62160108  0.58406733  1
  Si  Si14  1  0.83046598  0.61968251  0.58295301  1
  Si  Si15  1  0.47945713  0.62441156  0.08224636  1
  Si  Si16  1  0.97994810  0.62607661  0.08063058  1
  Si  Si17  1  0.33010037  0.04438123  0.08288182  1
  Si  Si18  1  0.83207030  0.04458022  0.08418645  1
  Si  Si19  1  0.18813119  0.33035046  0.08311889  1
  Si  Si20  1  0.68967752  0.33387366  0.08305102  1
  Si  Si21  1  0.31143480  0.66439187  0.91576250  1
  Si  Si22  1  0.80916490  0.66321213  0.91591467  1
  Si  Si23  1  0.02326761  0.37684198  0.91627707  1
  Si  Si24  1  0.52129994  0.37499102  0.91694358  1
  Si  Si25  1  0.16697036  0.96030831  0.91554234  1
  Si  Si26  1  0.66572940  0.95551601  0.91604624  1
  Si  Si27  1  0.30781449  0.95843743  0.41468819  1
  Si  Si28  1  0.80754030  0.95567081  0.41549172  1
  Si  Si29  1  0.16700970  0.37430645  0.41723247  1
  Si  Si30  1  0.66669627  0.37377732  0.41684213  1
  Si  Si31  1  0.02345310  0.66955672  0.41743672  1
  Si  Si32  1  0.52262806  0.66964325  0.41608244  1
  S  S0  1  0.14436019  0.00177178  0.24986755  1
  S  S1  1  0.64499562  0.00183963  0.24945752  1
  S  S2  1  0.14408646  0.28742015  0.74995189  1
  O  O0  1  0.10301973  0.02721536  0.30358781  1
  O  O1  1  0.60225262  0.02638485  0.30227155  1
  O  O2  1  0.41565316  0.80214133  0.30762141  1
  O  O3  1  0.91570955  0.80223650  0.30763796  1
  O  O4  1  0.48568778  0.16591715  0.30653059  1
  O  O5  1  0.98523259  0.16546625  0.30671489  1
  O  O6  1  0.10274380  0.17557295  0.80340480  1
  O  O7  1  0.59827009  0.16295488  0.80669031  1
  O  O8  1  0.48558777  0.80469524  0.80759109  1
  O  O9  1  0.98459879  0.80478706  0.80744476  1
  O  O10  1  0.41584912  0.03030196  0.80863323  1
  O  O11  1  0.91696139  0.02888747  0.80650321  1
  O  O12  1  0.40680325  0.98012581  0.69368473  1
  O  O13  1  0.89192431  0.95907136  0.69115322  1
  O  O14  1  0.09288915  0.20874582  0.69710078  1
  O  O15  1  0.58354106  0.19552740  0.69221800  1
  O  O16  1  0.01537196  0.82532823  0.69200128  1
  O  O17  1  0.51769448  0.83765226  0.69348404  1
  O  O18  1  0.39772297  0.81948951  0.19087281  1
  O  O19  1  0.89784084  0.82152109  0.19056613  1
  O  O20  1  0.01125908  0.20474176  0.18989445  1
  O  O21  1  0.51250421  0.20821505  0.18993914  1
  O  O22  1  0.09393516  0.97861008  0.19714884  1
  O  O23  1  0.59554529  0.97982332  0.19514926  1
  O  O24  1  0.43246936  0.36264052  0.63938021  1
  O  O25  1  0.93057909  0.36680815  0.63914781  1
  O  O26  1  0.24907408  0.13701714  0.64279579  1
  O  O27  1  0.74969124  0.13318450  0.64226832  1
  O  O28  1  0.31955851  0.49647625  0.64050906  1
  O  O29  1  0.81765576  0.50022546  0.64160976  1
  O  O30  1  0.43411517  0.49646542  0.13988107  1
  O  O31  1  0.93270333  0.49511292  0.13850406  1
  O  O32  1  0.31765113  0.13650575  0.14202055  1
  O  O33  1  0.81293845  0.13163261  0.14203438  1
  O  O34  1  0.25371083  0.36701997  0.13968622  1
  O  O35  1  0.75368293  0.36862839  0.13978380  1
  O  O36  1  0.23888243  0.31114794  0.02654953  1
  O  O37  1  0.73802728  0.30786760  0.02632744  1
  O  O38  1  0.41667772  0.52638421  0.02716002  1
  O  O39  1  0.91699449  0.52730342  0.02433661  1
  O  O40  1  0.34737162  0.16786179  0.02565188  1
  O  O41  1  0.84505875  0.16915454  0.02798054  1
  O  O42  1  0.23995214  0.16738625  0.52796901  1
  O  O43  1  0.73642673  0.16491705  0.52764039  1
  O  O44  1  0.34749518  0.53246544  0.52526177  1
  O  O45  1  0.84555488  0.52564447  0.52614426  1
  O  O46  1  0.42090634  0.30757414  0.52415382  1
  O  O47  1  0.91850220  0.30820227  0.52548758  1
  O  O48  1  0.26725527  0.70012577  0.97505736  1
  O  O49  1  0.76570833  0.69502656  0.97466991  1
  O  O50  1  0.08138482  0.46560789  0.97639944  1
  O  O51  1  0.58200477  0.46969385  0.97516177  1
  O  O52  1  0.14887048  0.82907768  0.97232159  1
  O  O53  1  0.65313597  0.83591359  0.97475223  1
  O  O54  1  0.26533818  0.82920139  0.47163633  1
  O  O55  1  0.76689870  0.83211250  0.47407478  1
  O  O56  1  0.14810326  0.46621988  0.47397563  1
  O  O57  1  0.64834570  0.46646249  0.47376865  1
  O  O58  1  0.08163162  0.69690635  0.47683395  1
  O  O59  1  0.58319895  0.69743556  0.47452079  1
  O  O60  1  0.06068197  0.62135153  0.36168769  1
  O  O61  1  0.56081179  0.62199985  0.36090143  1
  O  O62  1  0.25702112  0.88392454  0.35477208  1
  O  O63  1  0.75638884  0.88217816  0.35564666  1
  O  O64  1  0.19097988  0.49709206  0.36120103  1
  O  O65  1  0.69096855  0.49703656  0.36110746  1
  O  O66  1  0.06087306  0.50153095  0.86104123  1
  O  O67  1  0.57024394  0.50076109  0.86084615  1
  O  O68  1  0.18849544  0.88684652  0.85778678  1
  O  O69  1  0.67992943  0.86294048  0.85847654  1
  O  O70  1  0.25346696  0.63129429  0.85931601  1
  O  O71  1  0.75124788  0.63988285  0.85787088  1
  O  O72  1  0.00889823  0.83595731  0.40927086  1
  O  O73  1  0.50927226  0.83734480  0.40915873  1
  O  O74  1  0.40633828  0.97626234  0.40961045  1
  O  O75  1  0.90629754  0.97594203  0.40968867  1
  O  O76  1  0.07980729  0.18592642  0.40817247  1
  O  O77  1  0.57946867  0.18581209  0.40826549  1
  O  O78  1  0.01245488  0.18562141  0.90850341  1
  O  O79  1  0.51026538  0.18536730  0.90966191  1
  O  O80  1  0.07923783  0.97292352  0.90847647  1
  O  O81  1  0.58106728  0.97443189  0.90935332  1
  O  O82  1  0.40589051  0.84267531  0.91091786  1
  O  O83  1  0.90594072  0.83292791  0.90917416  1
  O  O84  1  0.48798832  0.16258141  0.59014011  1
  O  O85  1  0.98360480  0.16159520  0.58776103  1
  O  O86  1  0.09385654  0.01654232  0.58685437  1
  O  O87  1  0.59320023  0.02387658  0.59057513  1
  O  O88  1  0.41797117  0.81042060  0.59195938  1
  O  O89  1  0.91599725  0.80591522  0.58603604  1
  O  O90  1  0.49138942  0.81202878  0.08762500  1
  O  O91  1  0.98425651  0.80579625  0.08680563  1
  O  O92  1  0.41499204  0.02412608  0.08589624  1
  O  O93  1  0.91524498  0.02326522  0.08571102  1
  O  O94  1  0.09323944  0.17064703  0.08630039  1
  O  O95  1  0.59647372  0.16566930  0.08680039  1
  O  O96  1  0.34384656  0.17203955  0.74267720  1
  O  O97  1  0.84054105  0.16802462  0.74432512  1
  O  O98  1  0.23040937  0.29729312  0.74579409  1
  O  O99  1  0.73814637  0.30774663  0.74261372  1
  O  O100  1  0.41263587  0.51920080  0.74268652  1
  O  O101  1  0.91006268  0.52214274  0.74420159  1
  O  O102  1  0.34487268  0.51445207  0.24362514  1
  O  O103  1  0.84496016  0.51561801  0.24339476  1
  O  O104  1  0.40752068  0.29319021  0.24430814  1
  O  O105  1  0.90760438  0.29325434  0.24348723  1
  O  O106  1  0.23257249  0.16009435  0.24561684  1
  O  O107  1  0.73281435  0.16029649  0.24559084  1
  O  O108  1  0.32539835  0.50088051  0.92610726  1
  O  O109  1  0.82522861  0.50150838  0.92300377  1
  O  O110  1  0.42576412  0.35026905  0.92368366  1
  O  O111  1  0.92753769  0.35679657  0.92716344  1
  O  O112  1  0.25242186  0.14643615  0.92668935  1
  O  O113  1  0.75129093  0.14354914  0.92397801  1
  O  O114  1  0.32962248  0.15575214  0.42536504  1
  O  O115  1  0.82896442  0.15350167  0.42560149  1
  O  O116  1  0.25228299  0.35575561  0.42715116  1
  O  O117  1  0.75186569  0.35553578  0.42700432  1
  O  O118  1  0.42566697  0.50289103  0.42640008  1
  O  O119  1  0.92525210  0.50196011  0.42704283  1
  O  O120  1  0.18365897  0.50888687  0.07589644  1
  O  O121  1  0.68242460  0.50842382  0.07588269  1
  O  O122  1  0.07123714  0.62852204  0.07609678  1
  O  O123  1  0.57326505  0.63526904  0.07630199  1
  O  O124  1  0.24652538  0.85158295  0.07584133  1
  O  O125  1  0.74483924  0.85482041  0.07600487  1
  O  O126  1  0.18051332  0.85421415  0.57566613  1
  O  O127  1  0.68383126  0.85894440  0.57597194  1
  O  O128  1  0.24787880  0.63922819  0.57525343  1
  O  O129  1  0.74666454  0.64385358  0.57646378  1
  O  O130  1  0.07171419  0.51295010  0.57681175  1
  O  O131  1  0.57310511  0.50556424  0.57629974  1
  O  O132  1  0.15756906  0.85346046  0.25630806  1
  O  O133  1  0.65744678  0.85357092  0.25558859  1
  O  O134  1  0.26204199  0.69976814  0.25462710  1
  O  O135  1  0.76211469  0.69978776  0.25451825  1
  O  O136  1  0.08136418  0.48522063  0.25411208  1
  O  O137  1  0.58179472  0.48586467  0.25408039  1
  O  O138  1  0.15546227  0.46002752  0.75677986  1
  O  O139  1  0.65785043  0.48302305  0.75731056  1
  O  O140  1  0.08538733  0.69017313  0.75529749  1
  O  O141  1  0.58466038  0.69588861  0.75796367  1
  O  O142  1  0.25967051  0.83603427  0.75218692  1
  O  O143  1  0.75899571  0.83255671  0.75984748  1
loop_
_geom_bond_atom_site_label_1
_geom_bond_atom_site_label_2
_geom_bond_distance
_geom_bond_site_symmetry_2
Na0 O134 2.308589 1_555
Na0 O104 2.379484 1_565
Na0 O132 2.501742 1_555
Na0 O62 2.554777 1_555
Na0 O106 2.642994 1_565
Na0 O32 2.814726 1_565
Na0 O4 2.906948 1_565
Na0 O18 2.951511 1_555
Na1 O135 2.309830 1_555
Na1 O105 2.375894 1_565
Na1 O133 2.521263 1_555
Na1 O63 2.581937 1_555
Na1 O107 2.654833 1_565
Na1 O33 2.819552 1_565
Na1 O5 2.885477 1_565
Na1 O19 2.931255 1_555
Na2 O101 2.368169 1_555
Na2 O143 2.474316 1_555
Na2 O139 2.525063 1_555
Na2 O99 2.609454 1_555
Na2 O29 2.728236 1_555
Na2 O71 2.772472 1_555
Na2 O13 2.809923 1_555
Na2 O9 2.912210 1_555
Na3 O140 2.365155 1_555
Na3 O142 2.391523 1_555
Na3 O98 2.483807 1_565
Na3 O96 2.533294 1_565
Na3 O68 2.630813 1_555
Na3 O26 2.752054 1_565
Na3 O16 2.922030 1_555
Na3 O6 2.977596 1_565
Na4 O141 2.422100 1_545
Na4 O99 2.431194 1_555
Na4 O97 2.493446 1_555
Na4 O143 2.547339 1_545
Na4 O27 2.717207 1_555
Na4 O69 2.770962 1_545
Na4 O17 2.846103 1_545
Na4 O7 2.873161 1_555
Na5 O89 2.404186 1_455
Na5 O130 2.407621 1_555
Na5 O86 2.413503 1_565
Na5 O126 2.550782 1_555
Na5 O16 2.663070 1_555
Na5 O58 2.732323 1_555
Na5 O25 2.941716 1_455
Na5 O45 3.003484 1_455
Na6 O85 2.348145 1_565
Na6 O127 2.418360 1_555
Na6 O89 2.495454 1_555
Na6 O129 2.525661 1_555
Na6 O13 2.624335 1_555
Na6 O55 2.798642 1_555
Na6 O27 2.964022 1_565
Na6 O47 3.005728 1_565
Na7 O95 2.372254 1_565
Na7 O90 2.438216 1_555
Na7 O125 2.449878 1_555
Na7 O123 2.626065 1_555
Na7 O23 2.707911 1_555
Na7 O53 2.785059 1_554
Na7 O33 2.897224 1_565
Na7 O37 2.957297 1_565
Na8 O120 2.419413 1_555
Na8 O90 2.471046 1_555
Na8 O92 2.486493 1_565
Na8 O124 2.543241 1_555
Na8 O18 2.619167 1_555
Na8 O48 2.784899 1_554
Na8 O34 2.925488 1_555
Na8 O38 2.985472 1_555
Na9 O91 2.330006 1_555
Na9 O121 2.468385 1_555
Na9 O93 2.469141 1_565
Na9 O19 2.577943 1_555
Na9 O125 2.617004 1_555
Na9 O49 2.836634 1_554
Na9 O35 2.911361 1_555
Na9 O39 3.011410 1_555
Na10 O94 2.393358 1_555
Na10 O122 2.408213 1_555
Na10 O93 2.421271 1_455
Na10 O20 2.581560 1_555
Na10 O120 2.599381 1_555
Na10 O50 2.762151 1_554
Na10 O31 2.909563 1_455
Na10 O41 3.006161 1_455
Na11 O92 2.387603 1_555
Na11 O123 2.473088 1_555
Na11 O95 2.509935 1_555
Na11 O21 2.566401 1_555
Na11 O121 2.628796 1_555
Na11 O51 2.822689 1_554
Na11 O30 2.884437 1_555
Na11 O40 2.957412 1_555
Na12 O111 2.428897 1_555
Na12 O80 2.445663 1_655
Na12 O109 2.534896 1_555
Na12 O83 2.604368 1_555
Na12 O66 2.703631 1_655
Na12 O9 2.765413 1_555
Na12 O39 2.781861 1_556
Na12 O52 2.841810 1_655
Na13 O82 2.394374 1_545
Na13 O112 2.437695 1_555
Na13 O110 2.524122 1_555
Na13 O79 2.548346 1_555
Na13 O10 2.705921 1_555
Na13 O68 2.797954 1_545
Na13 O40 2.814244 1_556
Na13 O48 2.913528 1_545
Na14 O114 2.448729 1_555
Na14 O77 2.467297 1_555
Na14 O118 2.469854 1_555
Na14 O74 2.628974 1_545
Na14 O46 2.720042 1_555
Na14 O61 2.728902 1_555
Na14 O4 2.806066 1_555
Na14 O57 2.858740 1_555
Na15 O76 2.457196 1_655
Na15 O119 2.480756 1_555
Na15 O115 2.480762 1_555
Na15 O75 2.638582 1_545
Na15 O60 2.707371 1_655
Na15 O47 2.780199 1_555
Na15 O5 2.796830 1_555
Na15 O56 2.841261 1_655
Na16 O116 2.427811 1_555
Na16 O74 2.482127 1_555
Na16 O118 2.515384 1_555
Na16 O73 2.569738 1_555
Na16 O64 2.710048 1_555
Na16 O44 2.751738 1_555
Na16 O2 2.769748 1_555
Na16 O54 2.848064 1_555
Na17 O117 2.440394 1_555
Na17 O75 2.471399 1_555
Na17 O119 2.515855 1_555
Na17 O72 2.551503 1_655
Na17 O65 2.717509 1_555
Na17 O3 2.757043 1_555
Na17 O45 2.797988 1_555
Na17 O55 2.878095 1_555
Na18 O86 2.398861 1_555
Na18 O85 2.508266 1_455
Na18 O89 2.550270 1_445
Na18 O76 2.636097 1_555
Na18 O72 2.672337 1_545
Na18 O75 2.750985 1_445
Na19 O87 2.485100 1_565
Na19 O84 2.554825 1_565
Na19 O88 2.587605 1_555
Na19 O73 2.629185 1_555
Na19 O77 2.661555 1_565
Na19 O74 2.706006 1_555
Na20 O94 2.406224 1_555
Na20 O91 2.514074 1_445
Na20 O93 2.518261 1_455
Na20 O80 2.645386 1_544
Na20 O78 2.663235 1_554
Na20 O83 2.749063 1_444
Na21 O95 2.543480 1_565
Na21 O90 2.547931 1_555
Na21 O82 2.579478 1_554
Na21 O92 2.579926 1_565
Na21 O81 2.580370 1_554
Na21 O79 2.616208 1_564
Na22 O100 2.536011 1_555
Na22 O108 2.580200 1_555
Na22 O110 2.591134 1_555
Na22 O98 2.641723 1_555
Na22 O96 2.645812 1_555
Na22 O112 2.702212 1_555
Na23 O97 2.519178 1_555
Na23 O101 2.578703 1_555
Na23 O113 2.600063 1_555
Na23 O111 2.623901 1_555
Na23 O109 2.626960 1_555
Na23 O99 2.658464 1_555
Na24 O102 2.535276 1_555
Na24 O104 2.580263 1_555
Na24 O116 2.618747 1_555
Na24 O106 2.620959 1_555
Na24 O114 2.636166 1_555
Na24 O118 2.650153 1_555
Na25 O103 2.541169 1_555
Na25 O105 2.589462 1_555
Na25 O107 2.621792 1_555
Na25 O117 2.626227 1_555
Na25 O115 2.653016 1_555
Na25 O119 2.655076 1_555
Na26 O136 2.413108 1_555
Na26 O134 2.484365 1_555
Na26 O132 2.651890 1_555
Na26 O122 2.663970 1_555
Na26 O120 2.674597 1_555
Na26 O124 2.723170 1_555
Na27 O137 2.355076 1_555
Na27 O135 2.427216 1_555
Na27 O133 2.652523 1_555
Na27 O121 2.671771 1_555
Na27 O123 2.713540 1_555
Na27 O125 2.783741 1_555
Na28 O142 2.442094 1_555
Na28 O140 2.551257 1_555
Na28 O128 2.636926 1_555
Na28 O138 2.640547 1_555
Na28 O130 2.660362 1_555
Na28 O126 2.672723 1_555
Na29 O131 2.481193 1_555
Na29 O129 2.568290 1_555
Na29 O139 2.603418 1_555
Na29 O127 2.616435 1_555
Na29 O141 2.646675 1_555
Na29 O143 2.755772 1_555
O0 S0 1.506221 1_555
O0 Ta0 2.155259 1_445
O1 S1 1.501050 1_555
O1 Ta1 2.170877 1_545
O2 Si0 1.695291 1_555
O2 Ta1 1.938432 1_555
O3 Si1 1.691905 1_555
O3 Ta0 1.943381 1_555
O4 Si3 1.698878 1_555
O4 Ta1 1.955883 1_545
O5 Si2 1.699041 1_655
O5 Ta0 1.962433 1_545
O6 S2 1.515426 1_555
O6 Ta2 2.170097 1_445
O7 Si4 1.640708 1_555
O7 Ta3 1.977421 1_545
O8 Si6 1.640880 1_555
O8 Ta3 1.937119 1_555
O9 Si5 1.690318 1_655
O9 Ta2 1.992906 1_555
O10 Si7 1.660749 1_545
O10 Ta3 1.976245 1_545
O11 Si8 1.655479 1_555
O11 Ta2 1.927158 1_545
O12 Si7 1.642861 1_555
O12 Ta4 1.918172 1_555
O13 Si8 1.601501 1_565
O13 Sc0 2.080466 1_555
O14 S2 1.462855 1_555
O14 Sc0 2.162301 1_445
O15 Si4 1.619480 1_555
O15 Ta4 1.978312 1_545
O16 Si5 1.615757 1_555
O16 Sc0 2.008739 1_455
O17 Si6 1.631776 1_555
O17 Ta4 1.995716 1_555
O18 Si0 1.617338 1_555
O18 Sc2 1.979576 1_565
O19 Si1 1.610255 1_555
O19 Sc1 2.017636 1_665
O20 Si2 1.607008 1_555
O20 Sc1 1.998791 1_555
O21 Si3 1.614893 1_555
O21 Sc2 1.973014 1_555
O22 S0 1.453005 1_565
O22 Sc1 2.145761 1_565
O23 S1 1.475113 1_565
O23 Sc2 2.207501 1_565
O24 Si9 1.652421 1_555
O24 Ta5 1.879012 1_555
O25 Si10 1.672947 1_555
O25 Ta6 1.923982 1_555
O26 Si11 1.654815 1_555
O26 Ta5 1.965139 1_555
O27 Si12 1.657381 1_555
O27 Ta6 1.993005 1_555
O28 Si13 1.643183 1_555
O28 Ta5 1.940878 1_555
O29 Si14 1.655927 1_555
O29 Ta6 1.962501 1_555
O30 Si15 1.664936 1_555
O30 Ta7 1.906531 1_555
O31 Si16 1.686534 1_555
O31 Ta8 1.885194 1_555
O32 Si17 1.653614 1_555
O32 Ta7 1.990940 1_555
O33 Si18 1.653964 1_555
O33 Ta8 2.028560 1_555
O34 Si19 1.662321 1_555
O34 Ta7 1.945997 1_555
O35 Si20 1.650734 1_555
O35 Ta8 1.967430 1_555
O36 Si19 1.636232 1_555
O36 Ta9 1.911564 1_554
O37 Si20 1.637109 1_555
O37 Ta10 1.946918 1_554
O38 Si15 1.620442 1_555
O38 Ta9 1.957734 1_554
O39 Si16 1.644329 1_555
O39 Ta10 1.992397 1_554
O40 Si17 1.637752 1_555
O40 Ta9 1.994999 1_554
O41 Si18 1.638939 1_555
O41 Ta10 1.931175 1_554
O42 Si11 1.643419 1_555
O42 Ta11 1.896190 1_555
O43 Si12 1.640949 1_555
O43 Ta12 1.922026 1_555
O44 Si13 1.643850 1_555
O44 Ta11 1.961803 1_555
O45 Si14 1.640808 1_555
O45 Ta12 1.958863 1_555
O46 Si9 1.628835 1_555
O46 Ta11 1.972133 1_555
O47 Si10 1.649931 1_555
O47 Ta12 1.958615 1_555
O48 Si21 1.676295 1_555
O48 Ta13 1.964879 1_556
O49 Si22 1.644044 1_555
O49 Ta14 1.950038 1_556
O50 Si23 1.662130 1_555
O50 Ta13 1.966754 1_556
O51 Si24 1.655055 1_555
O51 Ta14 1.942179 1_556
O52 Si25 1.669394 1_555
O52 Ta13 1.955936 1_556
O53 Si26 1.658323 1_555
O53 Ta14 1.943471 1_556
O54 Si27 1.651510 1_555
O54 Ta15 1.968045 1_555
O55 Si28 1.653586 1_555
O55 Ta16 2.029632 1_555
O56 Si29 1.658424 1_555
O56 Ta15 1.985428 1_555
O57 Si30 1.661323 1_555
O57 Ta16 1.967898 1_555
O58 Si31 1.648874 1_555
O58 Ta15 2.002983 1_555
O59 Si32 1.655224 1_555
O59 Ta16 1.927798 1_555
O60 Si31 1.592566 1_555
O60 Sc3 2.034245 1_555
O61 Si32 1.589590 1_555
O61 Sc4 2.030077 1_555
O62 Si27 1.588934 1_555
O62 Sc3 2.110430 1_555
O63 Si28 1.588708 1_555
O63 Sc4 2.100562 1_555
O64 Si29 1.598812 1_555
O64 Sc3 1.987127 1_555
O65 Si30 1.595444 1_555
O65 Sc4 1.985240 1_555
O66 Si23 1.593036 1_555
O66 Sc5 2.044191 1_555
O67 Si24 1.639980 1_555
O67 Ta17 1.916030 1_555
O68 Si25 1.603064 1_555
O68 Sc5 2.048272 1_555
O69 Si26 1.639923 1_555
O69 Ta17 1.968838 1_555
O70 Si21 1.584226 1_555
O70 Sc5 1.995315 1_555
O71 Si22 1.627715 1_555
O71 Ta17 1.991862 1_555
O72 Si31 1.660845 1_555
O72 Ta0 2.006903 1_455
O73 Si32 1.656419 1_555
O73 Ta1 2.007375 1_555
O74 Si27 1.705122 1_555
O74 Ta1 1.961658 1_555
O75 Si28 1.701198 1_555
O75 Ta0 1.969709 1_555
O76 Si29 1.653439 1_555
O76 Ta0 2.024168 1_445
O77 Si30 1.650236 1_555
O77 Ta1 2.029553 1_545
O78 Si23 1.648638 1_555
O78 Ta2 1.965320 1_445
O79 Si24 1.631580 1_555
O79 Ta3 2.051035 1_545
O80 Si25 1.649163 1_555
O80 Ta2 2.028675 1_455
O81 Si26 1.625408 1_555
O81 Ta3 2.012721 1_555
O82 Si21 1.662083 1_555
O82 Ta3 2.024926 1_555
O83 Si22 1.655997 1_555
O83 Ta2 1.953855 1_555
O84 Si9 1.622575 1_555
O84 Ta4 2.007598 1_545
O85 Si10 1.597457 1_555
O85 Sc0 2.107580 1_545
O86 Si11 1.606746 1_555
O86 Sc0 2.087150 1_445
O87 Si12 1.613794 1_555
O87 Ta4 2.033435 1_545
O88 Si13 1.632579 1_555
O88 Ta4 2.000472 1_555
O89 Si14 1.618114 1_555
O89 Sc0 2.106136 1_555
O90 Si15 1.603321 1_555
O90 Sc2 2.168180 1_565
O91 Si16 1.592774 1_555
O91 Sc1 2.134607 1_665
O92 Si17 1.630915 1_555
O92 Sc2 2.083344 1_555
O93 Si18 1.604681 1_555
O93 Sc1 2.133014 1_655
O94 Si19 1.595089 1_555
O94 Sc1 2.104531 1_555
O95 Si20 1.607981 1_555
O95 Sc2 2.163184 1_555
O96 Si7 1.679616 1_545
O96 Ta5 2.009499 1_555
O97 Si8 1.647330 1_555
O97 Ta6 2.033890 1_555
O98 S2 1.516402 1_555
O98 Ta5 2.284604 1_555
O99 Si4 1.657041 1_555
O99 Ta6 2.076589 1_555
O100 Si6 1.631640 1_555
O100 Ta5 2.006570 1_555
O101 Si5 1.675150 1_655
O101 Ta6 2.009043 1_555
O102 Si0 1.660474 1_555
O102 Ta7 1.974722 1_555
O103 Si1 1.669388 1_555
O103 Ta8 1.959698 1_555
O104 Si3 1.684360 1_555
O104 Ta7 2.021337 1_555
O105 Si2 1.697942 1_655
O105 Ta8 1.999079 1_555
O106 S0 1.519481 1_555
O106 Ta7 2.239722 1_555
O107 S1 1.515388 1_555
O107 Ta8 2.258138 1_555
O108 Si21 1.634997 1_555
O108 Ta9 1.949473 1_555
O109 Si22 1.633332 1_555
O109 Ta10 2.057736 1_555
O110 Si24 1.629262 1_555
O110 Ta9 2.059616 1_555
O111 Si23 1.661177 1_655
O111 Ta10 1.982672 1_555
O112 Si25 1.635109 1_545
O112 Ta9 1.992264 1_555
O113 Si26 1.635980 1_545
O113 Ta10 1.985231 1_555
O114 Si27 1.640509 1_545
O114 Ta11 2.022890 1_555
O115 Si28 1.645291 1_545
O115 Ta12 2.003995 1_555
O116 Si29 1.642820 1_555
O116 Ta11 1.989627 1_555
O117 Si30 1.640146 1_555
O117 Ta12 1.983784 1_555
O118 Si32 1.657052 1_555
O118 Ta11 2.052061 1_555
O119 Si31 1.671221 1_655
O119 Ta12 2.044332 1_555
O120 Si19 1.663100 1_555
O120 Ta13 2.060980 1_555
O121 Si20 1.654494 1_555
O121 Ta14 2.049508 1_555
O122 Si16 1.637933 1_455
O122 Ta13 2.032628 1_555
O123 Si15 1.649715 1_555
O123 Ta14 2.034949 1_555
O124 Si17 1.644551 1_565
O124 Ta13 2.014064 1_555
O125 Si18 1.658253 1_565
O125 Ta14 2.037875 1_555
O126 Si11 1.652295 1_565
O126 Ta15 2.010774 1_555
O127 Si12 1.648418 1_565
O127 Ta16 2.050588 1_555
O128 Si13 1.639072 1_555
O128 Ta15 1.980541 1_555
O129 Si14 1.637393 1_555
O129 Ta16 2.040011 1_555
O130 Si10 1.633204 1_455
O130 Ta15 2.043630 1_555
O131 Si9 1.636807 1_555
O131 Ta16 1.980321 1_555
O132 S0 1.480910 1_565
O132 Sc3 2.311514 1_555
O133 S1 1.471514 1_565
O133 Sc4 2.322863 1_555
O134 Si0 1.608867 1_555
O134 Sc3 2.110687 1_555
O135 Si1 1.611894 1_555
O135 Sc4 2.108726 1_555
O136 Si2 1.595199 1_555
O136 Sc3 2.052809 1_555
O137 Si3 1.593437 1_555
O137 Sc4 2.053554 1_555
O138 S2 1.476117 1_555
O138 Sc5 2.231899 1_555
O139 Si4 1.648254 1_555
O139 Ta17 2.024581 1_555
O140 Si5 1.601321 1_555
O140 Sc5 2.104239 1_555
O141 Si6 1.664709 1_555
O141 Ta17 2.008891 1_555
O142 Si7 1.606888 1_555
O142 Sc5 2.138797 1_555
O143 Si8 1.664676 1_565
O143 Ta17 2.037044 1_555
