# generated using pymatgen
data_Ga2SiSn2S5O24
_symmetry_space_group_name_H-M   'P 1'
_cell_length_a   8.63861003
_cell_length_b   8.66417563
_cell_length_c   22.47012900
_cell_angle_alpha   89.72410075
_cell_angle_beta   89.67194932
_cell_angle_gamma   120.09503934
_symmetry_Int_Tables_number   1
_chemical_formula_structural   Ga2SiSn2S5O24
_chemical_formula_sum   'Ga6 Si3 Sn6 S15 O72'
_cell_volume   1455.01122570
_cell_formula_units_Z   3
loop_
 _symmetry_equiv_pos_site_id
 _symmetry_equiv_pos_as_xyz
  1  'x, y, z'
loop_
 _atom_site_type_symbol
 _atom_site_label
 _atom_site_symmetry_multiplicity
 _atom_site_fract_x
 _atom_site_fract_y
 _atom_site_fract_z
 _atom_site_occupancy
  Ga  Ga0  1  0.99049726  0.99955728  0.35589569  1
  Ga  Ga1  1  0.00220140  0.00141173  0.85287939  1
  Ga  Ga2  1  0.67817823  0.33703224  0.68627771  1
  Ga  Ga3  1  0.65758845  0.33523249  0.18471121  1
  Ga  Ga4  1  0.65717676  0.33047940  0.98091760  1
  Ga  Ga5  1  0.33126495  0.66516319  0.81393716  1
  Si  Si0  1  0.95784713  0.33732695  0.58626817  1
  Si  Si1  1  0.38606266  0.33434759  0.08299083  1
  Si  Si2  1  0.62856066  0.95731076  0.41578570  1
  Sn  Sn0  1  0.99671111  0.00387477  0.64733151  1
  Sn  Sn1  1  0.00661830  0.00665366  0.14467958  1
  Sn  Sn2  1  0.67130672  0.32171429  0.47871496  1
  Sn  Sn3  1  0.33469524  0.66138672  0.02069016  1
  Sn  Sn4  1  0.33482943  0.66641845  0.52109269  1
  Sn  Sn5  1  0.33825923  0.67097510  0.31352136  1
  S  S0  1  0.29083753  0.00292971  0.25166740  1
  S  S1  1  0.71439554  0.70608641  0.24958783  1
  S  S2  1  0.99420943  0.29313347  0.25047901  1
  S  S3  1  0.29751724  0.29522883  0.75212370  1
  S  S4  1  -0.00002800  0.70876562  0.75227192  1
  S  S5  1  0.70345788  0.99791754  0.75339019  1
  S  S6  1  0.37773970  0.04554587  0.58643452  1
  S  S7  1  0.66646177  0.61755074  0.58516678  1
  S  S8  1  0.95061581  0.61735884  0.08318266  1
  S  S9  1  0.66653927  0.04930839  0.08325834  1
  S  S10  1  0.62943016  0.66866792  0.91355996  1
  S  S11  1  0.03601433  0.37168930  0.91479877  1
  S  S12  1  0.33349549  0.95762295  0.91471425  1
  S  S13  1  0.33095026  0.36833746  0.41585333  1
  S  S14  1  0.04057769  0.67259186  0.41479521  1
  O  O0  1  0.20474930  0.03050743  0.30434889  1
  O  O1  1  0.82581673  0.79161072  0.30194312  1
  O  O2  1  0.96649901  0.18104595  0.30348082  1
  O  O3  1  0.21350754  0.17667981  0.80492512  1
  O  O4  1  0.96875025  0.79504622  0.80433607  1
  O  O5  1  0.82340899  0.03273375  0.80476336  1
  O  O6  1  0.77638973  0.95597070  0.69885838  1
  O  O7  1  0.18289503  0.21971435  0.69831924  1
  O  O8  1  0.03977504  0.82306924  0.69696491  1
  O  O9  1  0.78862399  0.82169010  0.19468108  1
  O  O10  1  0.03513785  0.21992099  0.19635588  1
  O  O11  1  0.17793015  0.96533436  0.19740075  1
  O  O12  1  0.87113715  0.37174658  0.64481530  1
  O  O13  1  0.48629442  0.12867206  0.63945278  1
  O  O14  1  0.63243512  0.50567210  0.63882338  1
  O  O15  1  0.87892071  0.50761634  0.13758748  1
  O  O16  1  0.63937593  0.12588368  0.13790722  1
  O  O17  1  0.50110376  0.37013454  0.14294752  1
  O  O18  1  0.46645810  0.29729192  0.02309869  1
  O  O19  1  0.84689812  0.53986877  0.02867552  1
  O  O20  1  0.70558631  0.15949952  0.02883720  1
  O  O21  1  0.44502141  0.15607179  0.53132520  1
  O  O22  1  0.69557792  0.54341744  0.52952480  1
  O  O23  1  0.84226810  0.29776112  0.52617140  1
  O  O24  1  0.55591682  0.71027540  0.96804209  1
  O  O25  1  0.15067102  0.44709993  0.96866151  1
  O  O26  1  0.29355480  0.84298128  0.97004188  1
  O  O27  1  0.54252047  0.83279665  0.47552312  1
  O  O28  1  0.29005625  0.44222663  0.46891120  1
  O  O29  1  0.14915827  0.70277997  0.46865946  1
  O  O30  1  0.11251971  0.62531111  0.36155306  1
  O  O31  1  0.50179141  0.87624512  0.35720782  1
  O  O32  1  0.36710636  0.48109691  0.36111061  1
  O  O33  1  0.11965405  0.48999156  0.86194610  1
  O  O34  1  0.36470383  0.87174323  0.86248117  1
  O  O35  1  0.50990531  0.63393189  0.86197517  1
  O  O36  1  0.03476722  0.83636679  0.40493227  1
  O  O37  1  0.82026701  0.97313689  0.40708724  1
  O  O38  1  0.17682510  0.19087680  0.40632384  1
  O  O39  1  0.02007261  0.19509479  0.90565739  1
  O  O40  1  0.17280003  0.97487450  0.90653890  1
  O  O41  1  0.80704893  0.83079688  0.90474617  1
  O  O42  1  0.97806811  0.16041332  0.59125097  1
  O  O43  1  0.19503776  0.01915567  0.59264564  1
  O  O44  1  0.83137848  0.79414241  0.59152874  1
  O  O45  1  0.96297795  0.79373123  0.09015689  1
  O  O46  1  0.82185774  0.02096467  0.08987262  1
  O  O47  1  0.18579617  0.15873137  0.08844760  1
  O  O48  1  0.68456648  0.15581266  0.74450727  1
  O  O49  1  0.47398868  0.31125099  0.74191747  1
  O  O50  1  0.83663240  0.53487173  0.74497699  1
  O  O51  1  0.70195423  0.53225726  0.24280225  1
  O  O52  1  0.83614374  0.31114059  0.24082838  1
  O  O53  1  0.46971349  0.15895946  0.24406359  1
  O  O54  1  0.64873042  0.51085801  0.92228848  1
  O  O55  1  0.85937265  0.35571270  0.92511167  1
  O  O56  1  0.49664282  0.13171556  0.92210889  1
  O  O57  1  0.63460174  0.14697210  0.41921358  1
  O  O58  1  0.49696555  0.36290371  0.42425126  1
  O  O59  1  0.85878610  0.51844302  0.42153258  1
  O  O60  1  0.36078080  0.50919610  0.07708888  1
  O  O61  1  0.13493639  0.64600422  0.07641497  1
  O  O62  1  0.50172011  0.87257944  0.07618358  1
  O  O63  1  0.36515372  0.87124152  0.57978835  1
  O  O64  1  0.50882712  0.63929754  0.58034434  1
  O  O65  1  0.15476277  0.51354229  0.57777849  1
  O  O66  1  0.30187293  0.83657882  0.25571285  1
  O  O67  1  0.53228335  0.68453354  0.25444995  1
  O  O68  1  0.15845252  0.47340390  0.25743482  1
  O  O69  1  0.31325943  0.47185172  0.76112826  1
  O  O70  1  0.16080907  0.69171394  0.76024240  1
  O  O71  1  0.52601583  0.83581521  0.76200756  1
loop_
_geom_bond_atom_site_label_1
_geom_bond_atom_site_label_2
_geom_bond_distance
_geom_bond_site_symmetry_2
Ga0 O37 1.782855 1_555
Ga0 O36 1.972711 1_655
Ga0 O38 1.996430 1_665
Ga0 O1 2.051814 1_555
Ga0 O2 2.052949 1_565
Ga0 O0 2.076971 1_665
Ga1 O41 1.961432 1_445
Ga1 O4 1.993595 1_445
Ga1 O3 1.995232 1_555
Ga1 O39 2.001935 1_555
Ga1 O40 2.008994 1_545
Ga1 O5 2.016127 1_455
Ga2 O12 1.792689 1_555
Ga2 O14 1.999224 1_555
Ga2 O13 2.037388 1_555
Ga2 O50 2.059361 1_555
Ga2 O48 2.061124 1_555
Ga2 O49 2.073954 1_555
Ga3 O17 1.794784 1_555
Ga3 O15 2.026177 1_555
Ga3 O51 2.033676 1_555
Ga3 O16 2.038352 1_555
Ga3 O53 2.053044 1_555
Ga3 O52 2.086968 1_555
Ga4 O18 1.788807 1_556
Ga4 O20 2.034680 1_556
Ga4 O19 2.045969 1_556
Ga4 O55 2.064091 1_555
Ga4 O54 2.068563 1_555
Ga4 O56 2.069522 1_555
Ga5 O71 1.960707 1_555
Ga5 O34 1.995173 1_555
Ga5 O33 1.997032 1_555
Ga5 O69 1.999374 1_555
Ga5 O70 2.008549 1_555
Ga5 O35 2.013676 1_555
O0 S0 1.477258 1_555
O1 S1 1.471599 1_555
O2 S2 1.473521 1_555
O3 S3 1.490033 1_555
O4 S4 1.485674 1_655
O5 S5 1.483528 1_545
O6 S5 1.501850 1_555
O6 Sn0 2.076815 1_565
O7 S3 1.497266 1_555
O7 Sn0 2.102851 1_455
O8 S4 1.511691 1_555
O8 Sn0 2.099668 1_465
O9 S1 1.507150 1_555
O9 Sn1 2.075749 1_665
O10 S2 1.494601 1_455
O10 Sn1 2.095406 1_555
O11 S0 1.497713 1_565
O11 Sn1 2.066148 1_565
O12 Si0 1.611594 1_555
O13 S6 1.470067 1_555
O14 S7 1.476007 1_555
O15 S8 1.473663 1_555
O16 S9 1.470995 1_555
O17 Si1 1.615283 1_555
O18 Si1 1.616671 1_555
O19 S8 1.473376 1_555
O20 S9 1.477056 1_555
O21 S6 1.486748 1_555
O21 Sn2 2.102877 1_555
O22 S7 1.484983 1_555
O22 Sn2 2.158047 1_555
O23 Si0 1.616966 1_555
O23 Sn2 1.919532 1_555
O24 S10 1.502299 1_555
O24 Sn3 2.094877 1_556
O25 S11 1.498367 1_555
O25 Sn3 2.103143 1_556
O26 S12 1.513518 1_555
O26 Sn3 2.108356 1_556
O27 Si2 1.639681 1_555
O27 Sn4 1.927820 1_555
O28 S13 1.478295 1_555
O28 Sn4 2.138025 1_555
O29 S14 1.477549 1_555
O29 Sn4 2.141218 1_555
O30 S14 1.495609 1_555
O30 Sn5 2.078993 1_555
O31 Si2 1.636807 1_555
O31 Sn5 1.906666 1_555
O32 S13 1.497703 1_555
O32 Sn5 2.075889 1_555
O33 S11 1.489565 1_555
O34 S12 1.486550 1_555
O35 S10 1.485149 1_555
O36 S14 1.460703 1_555
O37 Si2 1.602465 1_555
O38 S13 1.461517 1_555
O39 S11 1.481295 1_555
O40 S12 1.481179 1_555
O41 S10 1.482920 1_555
O42 Si0 1.630844 1_555
O42 Sn0 1.912666 1_555
O43 S6 1.482572 1_555
O43 Sn0 2.051731 1_455
O44 S7 1.486427 1_555
O44 Sn0 2.086588 1_565
O45 S8 1.486592 1_555
O45 Sn1 2.091873 1_665
O46 S9 1.488296 1_555
O46 Sn1 2.073397 1_655
O47 Si1 1.636782 1_555
O47 Sn1 1.909119 1_555
O48 S5 1.469566 1_545
O49 S3 1.476254 1_555
O50 S4 1.469985 1_655
O51 S1 1.463954 1_555
O52 S2 1.467168 1_555
O53 S0 1.464343 1_555
O54 S10 1.470431 1_555
O55 S11 1.478228 1_655
O56 S12 1.470457 1_545
O57 Si2 1.619944 1_545
O57 Sn2 1.929564 1_555
O58 S13 1.471500 1_555
O58 Sn2 2.109315 1_555
O59 S14 1.471326 1_655
O59 Sn2 2.089462 1_555
O60 Si1 1.640265 1_555
O60 Sn3 1.918511 1_555
O61 S8 1.490169 1_455
O61 Sn3 2.075201 1_555
O62 S9 1.488500 1_565
O62 Sn3 2.092787 1_555
O63 S6 1.467149 1_565
O63 Sn4 2.125485 1_555
O64 S7 1.469829 1_555
O64 Sn4 2.112165 1_555
O65 Si0 1.627863 1_455
O65 Sn4 1.921268 1_555
O66 S0 1.493757 1_565
O66 Sn5 2.069744 1_555
O67 S1 1.491633 1_555
O67 Sn5 2.088182 1_555
O68 S2 1.503160 1_455
O68 Sn5 2.075538 1_555
O69 S3 1.481830 1_555
O70 S4 1.480815 1_555
O71 S5 1.481431 1_555
