# generated using pymatgen
data_TmNiGe
_symmetry_space_group_name_H-M   'P 1'
_cell_length_a   4.16032654
_cell_length_b   6.76964280
_cell_length_c   7.18145722
_cell_angle_alpha   90.00000000
_cell_angle_beta   90.00000000
_cell_angle_gamma   90.00000000
_symmetry_Int_Tables_number   1
_chemical_formula_structural   TmNiGe
_chemical_formula_sum   'Tm4 Ni4 Ge4'
_cell_volume   202.25801971
_cell_formula_units_Z   4
loop_
 _symmetry_equiv_pos_site_id
 _symmetry_equiv_pos_as_xyz
  1  'x, y, z'
loop_
 _atom_site_type_symbol
 _atom_site_label
 _atom_site_symmetry_multiplicity
 _atom_site_fract_x
 _atom_site_fract_y
 _atom_site_fract_z
 _atom_site_occupancy
  Tm  Tm0  1  0.25000000  0.50705115  0.29229077  1
  Tm  Tm1  1  0.25000000  0.00705115  0.20770923  1
  Tm  Tm2  1  0.75000000  0.99294885  0.79229077  1
  Tm  Tm3  1  0.75000000  0.49294885  0.70770923  1
  Ni  Ni0  1  0.75000000  0.19162745  0.41880896  1
  Ni  Ni1  1  0.25000000  0.80837255  0.58119104  1
  Ni  Ni2  1  0.75000000  0.69162745  0.08119104  1
  Ni  Ni3  1  0.25000000  0.30837255  0.91880896  1
  Ge  Ge0  1  0.75000000  0.30083195  0.08928788  1
  Ge  Ge1  1  0.25000000  0.19916805  0.58928788  1
  Ge  Ge2  1  0.25000000  0.69916805  0.91071212  1
  Ge  Ge3  1  0.75000000  0.80083195  0.41071212  1
loop_
_geom_bond_atom_site_label_1
_geom_bond_atom_site_label_2
_geom_bond_distance
_geom_bond_site_symmetry_2
Ni0 Tm1 2.861230 1_655
Ni0 Tm1 2.861230 1_555
Ni0 Tm3 2.909540 1_555
Ni0 Tm2 3.000479 1_545
Ni0 Tm0 3.116430 1_655
Ni0 Tm0 3.116430 1_555
Ni1 Tm2 2.861230 1_455
Ni1 Tm2 2.861230 1_555
Ni1 Tm0 2.909540 1_555
Ni1 Tm1 3.000479 1_565
Ni1 Tm3 3.116430 1_455
Ni1 Tm3 3.116430 1_555
Ni2 Tm0 2.861230 1_655
Ni2 Tm0 2.861230 1_555
Ni2 Tm2 2.909540 1_554
Ni2 Tm3 3.000479 1_554
Ni2 Tm1 3.116430 1_565
Ni2 Tm1 3.116430 1_665
Ni3 Tm3 2.861230 1_555
Ni3 Tm3 2.861230 1_455
Ni3 Tm1 2.909540 1_556
Ni3 Tm0 3.000479 1_556
Ni3 Tm2 3.116430 1_445
Ni3 Tm2 3.116430 1_545
Ge0 Ni3 2.414242 1_654
Ge0 Ni3 2.414242 1_554
Ge0 Ni0 2.479228 1_555
Ge0 Ni2 2.646185 1_555
Ge0 Tm0 2.898504 1_555
Ge0 Tm0 2.898504 1_655
Ge0 Tm2 2.982160 1_544
Ge0 Tm1 3.000935 1_655
Ge0 Tm1 3.000935 1_555
Ge0 Tm3 3.033258 1_554
Ge1 Ni0 2.414242 1_555
Ge1 Ni0 2.414242 1_455
Ge1 Ni3 2.479228 1_555
Ge1 Ni1 2.646185 1_545
Ge1 Tm2 2.898504 1_445
Ge1 Tm2 2.898504 1_545
Ge1 Tm0 2.982160 1_555
Ge1 Tm3 3.000935 1_555
Ge1 Tm3 3.000935 1_455
Ge1 Tm1 3.033258 1_555
Ge2 Ni2 2.414242 1_456
Ge2 Ni2 2.414242 1_556
Ge2 Ni1 2.479228 1_555
Ge2 Ni3 2.646185 1_555
Ge2 Tm3 2.898504 1_455
Ge2 Tm3 2.898504 1_555
Ge2 Tm1 2.982160 1_566
Ge2 Tm2 3.000935 1_555
Ge2 Tm2 3.000935 1_455
Ge2 Tm0 3.033258 1_556
Ge3 Ni1 2.414242 1_555
Ge3 Ni1 2.414242 1_655
Ge3 Ni2 2.479228 1_555
Ge3 Ni0 2.646185 1_565
Ge3 Tm1 2.898504 1_565
Ge3 Tm1 2.898504 1_665
Ge3 Tm3 2.982160 1_555
Ge3 Tm0 3.000935 1_555
Ge3 Tm0 3.000935 1_655
Ge3 Tm2 3.033258 1_555
