# generated using pymatgen
data_MgTi4(FeO4)3
_symmetry_space_group_name_H-M   'P 1'
_cell_length_a   6.51055886
_cell_length_b   6.50644093
_cell_length_c   6.50630062
_cell_angle_alpha   109.49376604
_cell_angle_beta   109.32991749
_cell_angle_gamma   109.56348682
_symmetry_Int_Tables_number   1
_chemical_formula_structural   MgTi4(FeO4)3
_chemical_formula_sum   'Mg1 Ti4 Fe3 O12'
_cell_volume   212.23376433
_cell_formula_units_Z   1
loop_
 _symmetry_equiv_pos_site_id
 _symmetry_equiv_pos_as_xyz
  1  'x, y, z'
loop_
 _atom_site_type_symbol
 _atom_site_label
 _atom_site_symmetry_multiplicity
 _atom_site_fract_x
 _atom_site_fract_y
 _atom_site_fract_z
 _atom_site_occupancy
  Mg  Mg0  1  0.99999400  0.00000100  0.99999400  1
  Ti  Ti0  1  0.99999000  0.99999700  0.49999100  1
  Ti  Ti1  1  0.99999400  0.50000300  0.99999600  1
  Ti  Ti2  1  0.49999700  0.50000700  0.49999200  1
  Ti  Ti3  1  0.50000000  0.00000700  0.99999700  1
  Fe  Fe0  1  0.49998000  0.50000200  0.99997800  1
  Fe  Fe1  1  0.00001300  0.50001100  0.50000500  1
  Fe  Fe2  1  0.50000500  0.00000500  0.50001500  1
  O  O0  1  0.50917600  0.80942800  0.69974700  1
  O  O1  1  0.10911700  0.80917300  0.29998700  1
  O  O2  1  0.89088300  0.19081900  0.70001900  1
  O  O3  1  0.18280600  0.29028700  0.47323800  1
  O  O4  1  0.29886500  0.48340100  0.18447900  1
  O  O5  1  0.70114000  0.51659200  0.81552100  1
  O  O6  1  0.81725100  0.29031000  0.10745600  1
  O  O7  1  0.70117400  0.88564900  0.18455800  1
  O  O8  1  0.49081900  0.19056500  0.30025400  1
  O  O9  1  0.18275900  0.70968100  0.89255100  1
  O  O10  1  0.81720300  0.70971700  0.52678100  1
  O  O11  1  0.29883300  0.11434800  0.81544400  1
loop_
_geom_bond_atom_site_label_1
_geom_bond_atom_site_label_2
_geom_bond_distance
_geom_bond_site_symmetry_2
Mg0 O6 2.578090 1_556
Mg0 O9 2.578239 1_645
Mg0 O10 2.578938 1_545
Mg0 O3 2.579077 1_656
Mg0 O7 2.637039 1_546
Mg0 O11 2.637059 1_655
Mg0 O4 2.637217 1_656
Mg0 O5 2.637258 1_545
Mg0 O2 2.673077 1_555
Mg0 O1 2.673237 1_646
Mg0 O0 2.676215 1_545
Mg0 O8 2.676277 1_656
Fe0 O4 2.049267 1_556
Fe0 O5 2.049270 1_555
Fe0 O7 2.049482 1_556
Fe0 O11 2.049518 1_555
Fe1 O10 2.091601 1_455
Fe1 O3 2.091603 1_555
Fe1 O9 2.091792 1_555
Fe1 O6 2.091813 1_455
Fe2 O0 2.074491 1_545
Fe2 O8 2.074557 1_555
Fe2 O2 2.079532 1_555
Fe2 O1 2.079586 1_545
O0 Ti2 1.966599 1_555
O0 Ti3 1.966609 1_565
O1 Ti0 1.965748 1_455
O1 Ti1 1.966052 1_454
O2 Ti0 1.965727 1_545
O2 Ti1 1.966080 1_555
O3 Ti0 1.966060 1_445
O3 Ti2 1.968046 1_555
O4 Ti2 1.979427 1_555
O4 Ti1 1.979827 1_454
O5 Ti2 1.979602 1_555
O5 Ti1 1.979673 1_555
O6 Ti1 1.966232 1_554
O6 Ti3 1.967893 1_554
O7 Ti0 1.979563 1_555
O7 Ti3 1.979597 1_564
O8 Ti3 1.966622 1_554
O8 Ti2 1.966677 1_555
O9 Ti1 1.966166 1_455
O9 Ti3 1.967953 1_565
O10 Ti0 1.966096 1_555
O10 Ti2 1.967991 1_555
O11 Ti3 1.979456 1_555
O11 Ti0 1.979724 1_445
