# generated using pymatgen
data_TlB3O5
_symmetry_space_group_name_H-M   'P 1'
_cell_length_a   5.16604429
_cell_length_b   8.25487524
_cell_length_c   10.29759602
_cell_angle_alpha   90.00000000
_cell_angle_beta   90.00000000
_cell_angle_gamma   90.00000000
_symmetry_Int_Tables_number   1
_chemical_formula_structural   TlB3O5
_chemical_formula_sum   'Tl4 B12 O20'
_cell_volume   439.14150846
_cell_formula_units_Z   4
loop_
 _symmetry_equiv_pos_site_id
 _symmetry_equiv_pos_as_xyz
  1  'x, y, z'
loop_
 _atom_site_type_symbol
 _atom_site_label
 _atom_site_symmetry_multiplicity
 _atom_site_fract_x
 _atom_site_fract_y
 _atom_site_fract_z
 _atom_site_occupancy
  Tl  Tl0  1  0.47129087  0.72854167  0.62878912  1
  Tl  Tl1  1  0.97129087  0.77145833  0.37121088  1
  Tl  Tl2  1  0.52870913  0.22854167  0.87121088  1
  Tl  Tl3  1  0.02870913  0.27145833  0.12878912  1
  B  B0  1  0.10262689  0.35185727  0.64612713  1
  B  B1  1  0.60262689  0.14814273  0.35387287  1
  B  B2  1  0.89737311  0.85185727  0.85387287  1
  B  B3  1  0.39737311  0.64814273  0.14612713  1
  B  B4  1  0.69714593  0.61537626  0.95951946  1
  B  B5  1  0.19714593  0.88462374  0.04048054  1
  B  B6  1  0.95668221  0.06719282  0.69156791  1
  B  B7  1  0.45668221  0.43280718  0.30843209  1
  B  B8  1  0.04331779  0.56719282  0.80843209  1
  B  B9  1  0.54331779  0.93280718  0.19156791  1
  B  B10  1  0.30285407  0.11537626  0.54048054  1
  B  B11  1  0.80285407  0.38462374  0.45951946  1
  O  O0  1  0.31736477  0.27252224  0.57961896  1
  O  O1  1  0.85733658  0.50649141  0.89239620  1
  O  O2  1  0.64266342  0.49350859  0.39239620  1
  O  O3  1  0.35733658  0.99350859  0.10760380  1
  O  O4  1  0.56449033  0.77077953  0.21131033  1
  O  O5  1  0.06449033  0.72922047  0.78868967  1
  O  O6  1  0.43550967  0.27077953  0.28868967  1
  O  O7  1  0.93550967  0.22922047  0.71131033  1
  O  O8  1  0.29251466  0.53584713  0.24407205  1
  O  O9  1  0.79251466  0.96415287  0.75592795  1
  O  O10  1  0.70748534  0.03584713  0.25592795  1
  O  O11  1  0.20748534  0.46415287  0.74407205  1
  O  O12  1  0.68263523  0.77252224  0.92038104  1
  O  O13  1  0.18263523  0.72747776  0.07961896  1
  O  O14  1  0.94654559  0.44928934  0.55617753  1
  O  O15  1  0.44654559  0.05071066  0.44382247  1
  O  O16  1  0.05345441  0.94928934  0.94382247  1
  O  O17  1  0.55345441  0.55071066  0.05617753  1
  O  O18  1  0.14266342  0.00649141  0.60760380  1
  O  O19  1  0.81736477  0.22747776  0.42038104  1
loop_
_geom_bond_atom_site_label_1
_geom_bond_atom_site_label_2
_geom_bond_distance
_geom_bond_site_symmetry_2
B0 O0 1.458971 1_555
B0 O14 1.467993 1_455
B0 O11 1.473097 1_555
B0 O7 1.490219 1_455
B1 O19 1.458971 1_555
B1 O15 1.467993 1_555
B1 O10 1.473097 1_555
B1 O6 1.490219 1_555
B2 O12 1.458971 1_555
B2 O16 1.467993 1_655
B2 O9 1.473097 1_555
B2 O5 1.490219 1_655
B3 O13 1.458971 1_555
B3 O17 1.467993 1_555
B3 O8 1.473097 1_555
B3 O4 1.490219 1_555
B4 O17 1.351553 1_556
B4 O12 1.360454 1_555
B4 O1 1.403748 1_555
B5 O16 1.351553 1_554
B5 O13 1.360454 1_555
B5 O3 1.403748 1_555
B6 O7 1.357295 1_555
B6 O9 1.371860 1_545
B6 O18 1.386282 1_655
B7 O6 1.357295 1_555
B7 O8 1.371860 1_555
B7 O2 1.386282 1_555
B8 O5 1.357295 1_555
B8 O11 1.371860 1_555
B8 O1 1.386282 1_455
B9 O4 1.357295 1_555
B9 O10 1.371860 1_565
B9 O3 1.386282 1_555
B10 O15 1.351553 1_555
B10 O0 1.360454 1_555
B10 O18 1.403748 1_555
B11 O14 1.351553 1_555
B11 O19 1.360454 1_555
B11 O2 1.403748 1_555
O1 Tl2 2.862560 1_555
O2 Tl1 2.862560 1_555
O3 Tl3 2.862560 1_565
O4 Tl1 2.669795 1_555
O5 Tl0 2.669795 1_555
O6 Tl3 2.669795 1_555
O7 Tl2 2.669795 1_555
O8 Tl3 2.833707 1_555
O8 Tl1 2.872396 1_455
O9 Tl2 2.833707 1_565
O9 Tl0 2.872396 1_555
O10 Tl1 2.833707 1_545
O10 Tl3 2.872396 1_655
O11 Tl0 2.833707 1_555
O11 Tl2 2.872396 1_555
O18 Tl0 2.862560 1_545
