# generated using pymatgen
data_Na2ZrF6
_symmetry_space_group_name_H-M   'P 1'
_cell_length_a   5.34929956
_cell_length_b   5.51008804
_cell_length_c   15.94996041
_cell_angle_alpha   84.78943110
_cell_angle_beta   90.00000000
_cell_angle_gamma   90.00000000
_symmetry_Int_Tables_number   1
_chemical_formula_structural   Na2ZrF6
_chemical_formula_sum   'Na8 Zr4 F24'
_cell_volume   468.18413949
_cell_formula_units_Z   4
loop_
 _symmetry_equiv_pos_site_id
 _symmetry_equiv_pos_as_xyz
  1  'x, y, z'
loop_
 _atom_site_type_symbol
 _atom_site_label
 _atom_site_symmetry_multiplicity
 _atom_site_fract_x
 _atom_site_fract_y
 _atom_site_fract_z
 _atom_site_occupancy
  Na  Na0  1  0.49455017  0.32935437  0.59305011  1
  Na  Na1  1  -0.00544983  0.67064563  0.90694989  1
  Na  Na2  1  0.50544983  0.67064563  0.40694989  1
  Na  Na3  1  0.00544983  0.32935437  0.09305011  1
  Na  Na4  1  0.46526590  0.24329189  0.25258625  1
  Na  Na5  1  0.96526590  0.75670811  0.24741375  1
  Na  Na6  1  0.53473410  0.75670811  0.74741375  1
  Na  Na7  1  0.03473410  0.24329189  0.75258625  1
  Zr  Zr0  1  0.54941994  0.17694512  0.90093729  1
  Zr  Zr1  1  0.04941994  0.82305488  0.59906271  1
  Zr  Zr2  1  0.45058006  0.82305488  0.09906271  1
  Zr  Zr3  1  0.95058006  0.17694512  0.40093729  1
  F  F0  1  0.82439113  0.86726990  0.48722892  1
  F  F1  1  0.32439113  0.13273010  0.01277108  1
  F  F2  1  0.17560887  0.13273010  0.51277108  1
  F  F3  1  0.67560887  0.86726990  0.98722892  1
  F  F4  1  0.77804432  0.43663134  0.31844135  1
  F  F5  1  0.27804432  0.56336866  0.18155865  1
  F  F6  1  0.22195568  0.56336866  0.68155865  1
  F  F7  1  0.72195568  0.43663134  0.81844135  1
  F  F8  1  0.73621958  0.60335721  0.13787282  1
  F  F9  1  0.23621958  0.39664279  0.36212718  1
  F  F10  1  0.26378042  0.39664279  0.86212718  1
  F  F11  1  0.76378042  0.60335721  0.63787282  1
  F  F12  1  0.28647829  0.02042252  0.66820783  1
  F  F13  1  0.78647829  0.97957748  0.83179217  1
  F  F14  1  0.71352171  0.97957748  0.33179217  1
  F  F15  1  0.21352171  0.02042252  0.16820783  1
  F  F16  1  0.81239868  0.06607811  0.64805019  1
  F  F17  1  0.31239868  0.93392189  0.85194981  1
  F  F18  1  0.18760132  0.93392189  0.35194981  1
  F  F19  1  0.68760132  0.06607811  0.14805019  1
  F  F20  1  0.77369926  0.34749134  0.97789207  1
  F  F21  1  0.27369926  0.65250866  0.52210793  1
  F  F22  1  0.22630074  0.65250866  0.02210793  1
  F  F23  1  0.72630074  0.34749134  0.47789207  1
loop_
_geom_bond_atom_site_label_1
_geom_bond_atom_site_label_2
_geom_bond_distance
_geom_bond_site_symmetry_2
F0 Zr1 2.147364 1_655
F0 Zr3 2.198866 1_565
F0 Na2 2.444612 1_555
F1 Zr0 2.147364 1_554
F1 Zr2 2.198866 1_545
F1 Na3 2.444612 1_555
F2 Zr3 2.147364 1_455
F2 Zr1 2.198866 1_545
F2 Na0 2.444612 1_555
F3 Zr2 2.147364 1_556
F3 Zr0 2.198866 1_565
F3 Na1 2.444612 1_655
F4 Zr3 2.070908 1_555
F4 Na5 2.243659 1_555
F4 Na4 2.289296 1_555
F4 Na2 2.472351 1_555
F5 Zr2 2.070908 1_555
F5 Na4 2.243659 1_555
F5 Na5 2.289296 1_455
F5 Na3 2.472351 1_555
F6 Zr1 2.070908 1_555
F6 Na7 2.243659 1_555
F6 Na6 2.289296 1_555
F6 Na0 2.472351 1_555
F7 Zr0 2.070908 1_555
F7 Na6 2.243659 1_555
F7 Na7 2.289296 1_655
F7 Na1 2.472351 1_655
F8 Zr2 2.011769 1_555
F8 Na3 2.249612 1_655
F8 Na5 2.352861 1_555
F9 Zr3 2.011769 1_455
F9 Na2 2.249612 1_555
F9 Na4 2.352861 1_555
F10 Zr0 2.011769 1_555
F10 Na1 2.249612 1_555
F10 Na7 2.352861 1_555
F11 Zr1 2.011769 1_655
F11 Na0 2.249612 1_555
F11 Na6 2.352861 1_555
F12 Zr1 2.055457 1_545
F12 Na6 2.266631 1_545
F12 Na0 2.280982 1_555
F12 Na7 2.330878 1_555
F13 Zr0 2.055457 1_565
F13 Na7 2.266631 1_665
F13 Na1 2.280982 1_655
F13 Na6 2.330878 1_555
F14 Zr3 2.055457 1_565
F14 Na4 2.266631 1_565
F14 Na2 2.280982 1_555
F14 Na5 2.330878 1_555
F15 Zr2 2.055457 1_545
F15 Na5 2.266631 1_445
F15 Na3 2.280982 1_555
F15 Na4 2.330878 1_555
F16 Zr1 2.049693 1_645
F16 Na7 2.333188 1_655
F16 Na0 2.352400 1_555
F16 Na6 2.670774 1_545
F17 Zr0 2.049693 1_565
F17 Na6 2.333188 1_555
F17 Na1 2.352400 1_555
F17 Na7 2.670774 1_565
F18 Zr3 2.049693 1_465
F18 Na5 2.333188 1_455
F18 Na2 2.352400 1_555
F18 Na4 2.670774 1_565
F19 Zr2 2.049693 1_545
F19 Na4 2.333188 1_555
F19 Na3 2.352400 1_655
F19 Na5 2.670774 1_545
F20 Zr0 2.009609 1_555
F20 Na3 2.210706 1_656
F20 Na1 2.341081 1_655
F21 Zr1 2.009609 1_555
F21 Na2 2.210706 1_555
F21 Na0 2.341081 1_555
F22 Zr2 2.009609 1_555
F22 Na1 2.210706 1_554
F22 Na3 2.341081 1_555
F23 Zr3 2.009609 1_555
F23 Na0 2.210706 1_555
F23 Na2 2.341081 1_555
