# generated using pymatgen
data_Na10Sc2Nb6Si11SO48
_symmetry_space_group_name_H-M   'P 1'
_cell_length_a   18.08013290
_cell_length_b   9.06760175
_cell_length_c   22.85545177
_cell_angle_alpha   89.96608483
_cell_angle_beta   90.11253243
_cell_angle_gamma   119.97815636
_symmetry_Int_Tables_number   1
_chemical_formula_structural   Na10Sc2Nb6Si11SO48
_chemical_formula_sum   'Na30 Sc6 Nb18 Si33 S3 O144'
_cell_volume   3245.70591944
_cell_formula_units_Z   3
loop_
 _symmetry_equiv_pos_site_id
 _symmetry_equiv_pos_as_xyz
  1  'x, y, z'
loop_
 _atom_site_type_symbol
 _atom_site_label
 _atom_site_symmetry_multiplicity
 _atom_site_fract_x
 _atom_site_fract_y
 _atom_site_fract_z
 _atom_site_occupancy
  Na  Na0  1  0.31719217  0.99332486  0.25110281  1
  Na  Na1  1  0.81802282  0.99351470  0.25123494  1
  Na  Na2  1  0.81860630  0.63858043  0.74867377  1
  Na  Na3  1  0.18234006  0.99002260  0.75006796  1
  Na  Na4  1  0.68189016  0.00113125  0.74940499  1
  Na  Na5  1  0.01763404  0.70652190  0.58434434  1
  Na  Na6  1  0.83536284  0.96571735  0.58438039  1
  Na  Na7  1  0.64825346  0.96913658  0.08392297  1
  Na  Na8  1  0.33504055  0.70454052  0.08497899  1
  Na  Na9  1  0.83690005  0.70569854  0.08597102  1
  Na  Na10  1  0.01784005  0.32797310  0.08520176  1
  Na  Na11  1  0.51503665  0.32540159  0.08555426  1
  Na  Na12  1  0.98618941  0.66374421  0.91530662  1
  Na  Na13  1  0.34806971  0.02984551  0.91540841  1
  Na  Na14  1  0.48504345  0.30863910  0.41598375  1
  Na  Na15  1  0.98618527  0.30941481  0.41581544  1
  Na  Na16  1  0.34636945  0.66280382  0.41622316  1
  Na  Na17  1  0.84687057  0.66416210  0.41593433  1
  Na  Na18  1  0.00625147  0.00645133  0.50347303  1
  Na  Na19  1  0.50307881  0.00004740  0.50300904  1
  Na  Na20  1  0.00443368  0.00670014  0.00313130  1
  Na  Na21  1  0.50145039  0.99895543  -0.00000034  1
  Na  Na22  1  0.33575069  0.34355768  0.83353494  1
  Na  Na23  1  0.83484244  0.32939453  0.83353002  1
  Na  Na24  1  0.33215310  0.33565448  0.33352726  1
  Na  Na25  1  0.83247811  0.33598445  0.33346919  1
  Na  Na26  1  0.16433937  0.66027333  0.17026985  1
  Na  Na27  1  0.66477157  0.65518442  0.17209735  1
  Na  Na28  1  0.16952347  0.66667387  0.66871741  1
  Na  Na29  1  0.66187042  0.65774102  0.66480442  1
  Sc  Sc0  1  0.00027268  0.99681106  0.64582799  1
  Sc  Sc1  1  0.00024609  0.00277983  0.14734656  1
  Sc  Sc2  1  0.49548308  0.00336960  0.14823384  1
  Sc  Sc3  1  0.16420340  0.65284002  0.31562592  1
  Sc  Sc4  1  0.66461299  0.65334102  0.31562841  1
  Sc  Sc5  1  0.16795517  0.66839014  0.81572661  1
  Nb  Nb0  1  0.99482475  0.99584431  0.35484981  1
  Nb  Nb1  1  0.49406492  0.99575176  0.35477490  1
  Nb  Nb2  1  0.99379964  0.99644832  0.85617623  1
  Nb  Nb3  1  0.49967992  0.99567881  0.85347239  1
  Nb  Nb4  1  0.49774228  0.99930467  0.64549500  1
  Nb  Nb5  1  0.33990660  0.33651852  0.68407139  1
  Nb  Nb6  1  0.83705466  0.33717797  0.68635309  1
  Nb  Nb7  1  0.33852834  0.34503889  0.18590273  1
  Nb  Nb8  1  0.84064950  0.34967366  0.18645260  1
  Nb  Nb9  1  0.33114125  0.33739933  0.97931374  1
  Nb  Nb10  1  0.83157370  0.32608491  0.97866992  1
  Nb  Nb11  1  0.33073193  0.33025761  0.48184675  1
  Nb  Nb12  1  0.83051101  0.32783800  0.48089858  1
  Nb  Nb13  1  0.16709209  0.66933458  0.01892109  1
  Nb  Nb14  1  0.66664632  0.66705975  0.01814034  1
  Nb  Nb15  1  0.16959308  0.66813208  0.52099028  1
  Nb  Nb16  1  0.66229344  0.66118007  0.52037558  1
  Nb  Nb17  1  0.66251931  0.66244508  0.81305494  1
  Si  Si0  1  0.35204430  0.70542637  0.24858413  1
  Si  Si1  1  0.85281339  0.70842632  0.24823342  1
  Si  Si2  1  0.00312083  0.29621088  0.24833588  1
  Si  Si3  1  0.50271732  0.29775381  0.24862312  1
  Si  Si4  1  0.64242857  0.28817773  0.74964503  1
  Si  Si5  1  0.00230555  0.70897077  0.74944523  1
  Si  Si6  1  0.49649042  0.70827805  0.74919054  1
  Si  Si7  1  0.35415607  0.99826530  0.74994114  1
  Si  Si8  1  0.85557991  0.00271521  0.74866613  1
  Si  Si9  1  0.47932048  0.33176736  0.58179142  1
  Si  Si10  1  0.98090241  0.33359921  0.58238582  1
  Si  Si11  1  0.18818449  0.04319339  0.58432550  1
  Si  Si12  1  0.68621082  0.04260108  0.58434335  1
  Si  Si13  1  0.33342858  0.62209737  0.58387951  1
  Si  Si14  1  0.83101917  0.62083909  0.58287510  1
  Si  Si15  1  0.47947806  0.62604246  0.08208693  1
  Si  Si16  1  0.98056570  0.62858533  0.08082087  1
  Si  Si17  1  0.33079084  0.04453682  0.08300159  1
  Si  Si18  1  0.83287486  0.04423003  0.08445032  1
  Si  Si19  1  0.18695093  0.32871765  0.08350770  1
  Si  Si20  1  0.68875175  0.33257010  0.08327789  1
  Si  Si21  1  0.31130958  0.66423248  0.91549161  1
  Si  Si22  1  0.80926638  0.66322413  0.91601987  1
  Si  Si23  1  0.02311373  0.37672886  0.91593301  1
  Si  Si24  1  0.52071860  0.37415726  0.91672530  1
  Si  Si25  1  0.16687301  0.96031646  0.91540368  1
  Si  Si26  1  0.66584289  0.95627155  0.91579613  1
  Si  Si27  1  0.30730122  0.95771975  0.41505999  1
  Si  Si28  1  0.80689369  0.95473442  0.41578406  1
  Si  Si29  1  0.16676336  0.37414260  0.41679333  1
  Si  Si30  1  0.66656546  0.37357757  0.41644411  1
  Si  Si31  1  0.02362330  0.66951220  0.41683715  1
  Si  Si32  1  0.52249784  0.66926267  0.41562773  1
  S  S0  1  0.14426148  0.00056287  0.24979412  1
  S  S1  1  0.64505188  0.00065829  0.24962093  1
  S  S2  1  0.14464672  0.29093178  0.75036581  1
  O  O0  1  0.10420141  0.02813901  0.30288191  1
  O  O1  1  0.60374761  0.02757140  0.30202364  1
  O  O2  1  0.41612014  0.80118507  0.30748785  1
  O  O3  1  0.91605262  0.80090280  0.30756172  1
  O  O4  1  0.48448890  0.16506105  0.30662130  1
  O  O5  1  0.98404855  0.16491696  0.30676605  1
  O  O6  1  0.10419770  0.17779869  0.80266993  1
  O  O7  1  0.59888175  0.16314311  0.80655357  1
  O  O8  1  0.48568373  0.80381637  0.80705734  1
  O  O9  1  0.98365834  0.80318738  0.80725056  1
  O  O10  1  0.41640377  0.03171646  0.80785385  1
  O  O11  1  0.91683163  0.02967629  0.80663338  1
  O  O12  1  0.40551753  0.97694315  0.69387231  1
  O  O13  1  0.89340646  0.95984128  0.69194097  1
  O  O14  1  0.09226674  0.21067542  0.69727029  1
  O  O15  1  0.58306743  0.19595552  0.69278132  1
  O  O16  1  0.01630769  0.82671016  0.69265751  1
  O  O17  1  0.51826554  0.83718552  0.69381871  1
  O  O18  1  0.39728160  0.82229701  0.19189298  1
  O  O19  1  0.89741553  0.82392827  0.19147864  1
  O  O20  1  0.01251875  0.20467203  0.19103964  1
  O  O21  1  0.51370628  0.20736751  0.19119298  1
  O  O22  1  0.09327506  0.97493809  0.19774682  1
  O  O23  1  0.59441032  0.97569930  0.19597449  1
  O  O24  1  0.43314198  0.36450592  0.63907998  1
  O  O25  1  0.93155004  0.36751969  0.63866555  1
  O  O26  1  0.24967160  0.13666313  0.64186930  1
  O  O27  1  0.74999260  0.13263361  0.64143314  1
  O  O28  1  0.31911116  0.49719364  0.64013534  1
  O  O29  1  0.81766910  0.50043225  0.64109204  1
  O  O30  1  0.43424769  0.49705539  0.13919629  1
  O  O31  1  0.93322776  0.49660237  0.13833325  1
  O  O32  1  0.31759265  0.13579952  0.14165144  1
  O  O33  1  0.81314615  0.13102510  0.14128414  1
  O  O34  1  0.25366524  0.36822116  0.13924779  1
  O  O35  1  0.75337504  0.36904563  0.13945980  1
  O  O36  1  0.23785998  0.30877623  0.02710266  1
  O  O37  1  0.73712013  0.30498478  0.02698007  1
  O  O38  1  0.41605813  0.52816355  0.02755263  1
  O  O39  1  0.91669482  0.52933694  0.02540950  1
  O  O40  1  0.34885937  0.16780207  0.02582329  1
  O  O41  1  0.84690829  0.16891442  0.02795752  1
  O  O42  1  0.23812189  0.16724752  0.52783979  1
  O  O43  1  0.73563222  0.16565300  0.52766235  1
  O  O44  1  0.34791644  0.53320741  0.52549376  1
  O  O45  1  0.84774565  0.52909768  0.52625322  1
  O  O46  1  0.41957666  0.30499332  0.52485951  1
  O  O47  1  0.91771165  0.30471243  0.52603749  1
  O  O48  1  0.26794182  0.70068904  0.97483923  1
  O  O49  1  0.76650694  0.69687717  0.97446778  1
  O  O50  1  0.08103477  0.46512503  0.97598442  1
  O  O51  1  0.58226635  0.46917125  0.97447250  1
  O  O52  1  0.14890858  0.83102143  0.97257364  1
  O  O53  1  0.65268178  0.83652810  0.97434496  1
  O  O54  1  0.26689159  0.83072062  0.47230400  1
  O  O55  1  0.76836595  0.83368321  0.47449935  1
  O  O56  1  0.14854279  0.46594129  0.47362727  1
  O  O57  1  0.64860495  0.46576992  0.47351471  1
  O  O58  1  0.08155846  0.69713665  0.47624968  1
  O  O59  1  0.58315403  0.69732247  0.47414126  1
  O  O60  1  0.06109379  0.62394278  0.36104414  1
  O  O61  1  0.56156774  0.62458749  0.36076611  1
  O  O62  1  0.25635074  0.88126819  0.35578752  1
  O  O63  1  0.75603350  0.88076435  0.35623955  1
  O  O64  1  0.18926054  0.49650619  0.36136870  1
  O  O65  1  0.68937584  0.49658451  0.36131903  1
  O  O66  1  0.06095887  0.49939560  0.86076879  1
  O  O67  1  0.56981392  0.50142007  0.86102141  1
  O  O68  1  0.18751296  0.88364051  0.85865933  1
  O  O69  1  0.68119345  0.86477513  0.85883445  1
  O  O70  1  0.25303084  0.63095448  0.85963284  1
  O  O71  1  0.75134332  0.63837325  0.85825367  1
  O  O72  1  0.00886179  0.83530289  0.40931072  1
  O  O73  1  0.50930432  0.83657447  0.40932386  1
  O  O74  1  0.40585350  0.97636751  0.41021869  1
  O  O75  1  0.90602328  0.97672836  0.41010079  1
  O  O76  1  0.08022902  0.18658428  0.40839373  1
  O  O77  1  0.57985433  0.18628254  0.40856727  1
  O  O78  1  0.01224097  0.18568869  0.90859529  1
  O  O79  1  0.51005897  0.18572443  0.90970235  1
  O  O80  1  0.07959790  0.97303236  0.90868388  1
  O  O81  1  0.58147198  0.97510583  0.90934551  1
  O  O82  1  0.40549077  0.84116326  0.91079280  1
  O  O83  1  0.90602482  0.83230579  0.90964012  1
  O  O84  1  0.48783283  0.16354604  0.59065267  1
  O  O85  1  0.98344987  0.16051704  0.58852974  1
  O  O86  1  0.09375027  0.01766659  0.58772778  1
  O  O87  1  0.59303485  0.02431990  0.59059929  1
  O  O88  1  0.41772555  0.81021650  0.59155994  1
  O  O89  1  0.91627347  0.80648991  0.58704523  1
  O  O90  1  0.49066834  0.81219404  0.08842995  1
  O  O91  1  0.98382568  0.80654015  0.08804444  1
  O  O92  1  0.41546818  0.02431648  0.08673022  1
  O  O93  1  0.91609362  0.02338117  0.08619251  1
  O  O94  1  0.09267026  0.16861894  0.08707146  1
  O  O95  1  0.59593909  0.16431910  0.08735744  1
  O  O96  1  0.34321919  0.17048627  0.74239906  1
  O  O97  1  0.84064587  0.16693258  0.74428899  1
  O  O98  1  0.22986875  0.29985573  0.74514045  1
  O  O99  1  0.73809580  0.30835357  0.74310824  1
  O  O100  1  0.41313200  0.51871135  0.74288495  1
  O  O101  1  0.91096284  0.52317590  0.74387221  1
  O  O102  1  0.34519761  0.51629184  0.24314184  1
  O  O103  1  0.84504964  0.51728839  0.24313383  1
  O  O104  1  0.40905769  0.29505731  0.24376175  1
  O  O105  1  0.90909373  0.29505963  0.24311478  1
  O  O106  1  0.23202571  0.15612910  0.24504770  1
  O  O107  1  0.73215127  0.15597851  0.24493820  1
  O  O108  1  0.32421707  0.49977985  0.92618682  1
  O  O109  1  0.82519461  0.50259843  0.92347251  1
  O  O110  1  0.42616694  0.35150976  0.92374936  1
  O  O111  1  0.92806576  0.35881929  0.92690789  1
  O  O112  1  0.25278002  0.14525465  0.92605608  1
  O  O113  1  0.75105422  0.14313688  0.92439633  1
  O  O114  1  0.32869167  0.15405775  0.42519342  1
  O  O115  1  0.82812810  0.15213068  0.42523174  1
  O  O116  1  0.25287883  0.35862511  0.42622929  1
  O  O117  1  0.75254459  0.35860340  0.42633197  1
  O  O118  1  0.42645340  0.50185035  0.42593502  1
  O  O119  1  0.92617065  0.50137275  0.42630852  1
  O  O120  1  0.18258984  0.50619764  0.07591979  1
  O  O121  1  0.68135392  0.50632625  0.07585814  1
  O  O122  1  0.07103804  0.62966496  0.07638991  1
  O  O123  1  0.57292863  0.63718204  0.07639622  1
  O  O124  1  0.24791341  0.85132490  0.07592062  1
  O  O125  1  0.74605228  0.85503792  0.07589513  1
  O  O126  1  0.17916383  0.85443835  0.57556841  1
  O  O127  1  0.68362162  0.85986078  0.57598832  1
  O  O128  1  0.24838329  0.64042058  0.57526697  1
  O  O129  1  0.74764840  0.64533124  0.57646325  1
  O  O130  1  0.07123151  0.51150915  0.57673868  1
  O  O131  1  0.57254509  0.50431248  0.57627897  1
  O  O132  1  0.15710971  0.85170417  0.25628319  1
  O  O133  1  0.65688738  0.85189012  0.25575355  1
  O  O134  1  0.26230980  0.70033572  0.25542829  1
  O  O135  1  0.76216342  0.69993180  0.25532544  1
  O  O136  1  0.08242267  0.48469389  0.25480481  1
  O  O137  1  0.58284148  0.48493088  0.25466471  1
  O  O138  1  0.15475121  0.45942413  0.75652420  1
  O  O139  1  0.65803225  0.48260486  0.75742704  1
  O  O140  1  0.08588857  0.69181972  0.75577360  1
  O  O141  1  0.58469459  0.69654482  0.75797537  1
  O  O142  1  0.25980079  0.83610955  0.75326056  1
  O  O143  1  0.75989655  0.83275015  0.75948971  1
loop_
_geom_bond_atom_site_label_1
_geom_bond_atom_site_label_2
_geom_bond_distance
_geom_bond_site_symmetry_2
Na0 O134 2.327684 1_555
Na0 O104 2.394107 1_565
Na0 O132 2.515351 1_555
Na0 O106 2.615352 1_565
Na0 O62 2.618697 1_555
Na0 O32 2.813142 1_565
Na0 O4 2.909350 1_565
Na0 O18 2.930436 1_555
Na1 O135 2.329968 1_555
Na1 O105 2.392353 1_565
Na1 O133 2.531722 1_555
Na1 O107 2.624102 1_565
Na1 O63 2.631275 1_555
Na1 O33 2.825392 1_565
Na1 O5 2.891728 1_565
Na1 O19 2.916583 1_555
Na2 O101 2.375384 1_555
Na2 O143 2.481323 1_555
Na2 O139 2.523391 1_555
Na2 O99 2.597148 1_555
Na2 O29 2.756372 1_555
Na2 O71 2.785883 1_555
Na2 O13 2.839302 1_555
Na2 O9 2.908766 1_555
Na3 O140 2.378614 1_555
Na3 O142 2.422239 1_555
Na3 O98 2.496291 1_565
Na3 O96 2.532613 1_565
Na3 O68 2.680583 1_555
Na3 O26 2.784905 1_565
Na3 O16 2.910392 1_555
Na3 O6 2.958659 1_565
Na4 O141 2.429996 1_545
Na4 O99 2.446416 1_555
Na4 O97 2.490254 1_555
Na4 O143 2.554146 1_545
Na4 O27 2.751167 1_555
Na4 O69 2.786593 1_545
Na4 O17 2.858036 1_545
Na4 O7 2.886152 1_555
Na5 O130 2.410314 1_555
Na5 O89 2.417559 1_455
Na5 O86 2.445307 1_565
Na5 O126 2.540839 1_555
Na5 O16 2.710379 1_555
Na5 O58 2.748893 1_555
Na5 O25 2.938509 1_455
Na5 O45 2.972197 1_455
Na6 O85 2.360231 1_565
Na6 O127 2.418973 1_555
Na6 O89 2.517651 1_555
Na6 O129 2.526441 1_555
Na6 O13 2.682016 1_555
Na6 O55 2.783886 1_555
Na6 O27 2.952686 1_565
Na6 O47 2.978740 1_565
Na7 O95 2.388822 1_565
Na7 O125 2.461776 1_555
Na7 O90 2.470335 1_555
Na7 O123 2.616811 1_555
Na7 O23 2.752772 1_555
Na7 O53 2.797344 1_554
Na7 O33 2.893980 1_565
Na7 O37 2.943326 1_565
Na8 O120 2.432906 1_555
Na8 O90 2.476037 1_555
Na8 O92 2.511987 1_565
Na8 O124 2.527750 1_555
Na8 O18 2.677500 1_555
Na8 O48 2.784870 1_554
Na8 O34 2.919255 1_555
Na8 O38 2.962656 1_555
Na9 O91 2.338192 1_555
Na9 O121 2.479480 1_555
Na9 O93 2.495253 1_565
Na9 O125 2.608757 1_555
Na9 O19 2.642328 1_555
Na9 O49 2.829594 1_554
Na9 O35 2.913693 1_555
Na9 O39 2.978376 1_555
Na10 O122 2.412457 1_555
Na10 O94 2.423538 1_555
Na10 O93 2.436277 1_455
Na10 O120 2.592451 1_555
Na10 O20 2.645926 1_555
Na10 O50 2.769602 1_554
Na10 O31 2.915488 1_455
Na10 O41 2.979078 1_455
Na11 O92 2.404910 1_555
Na11 O123 2.484931 1_555
Na11 O95 2.531699 1_555
Na11 O121 2.618214 1_555
Na11 O21 2.635709 1_555
Na11 O51 2.836768 1_554
Na11 O30 2.888019 1_555
Na11 O40 2.937414 1_555
Na12 O111 2.432295 1_555
Na12 O80 2.451040 1_655
Na12 O109 2.528653 1_555
Na12 O83 2.581962 1_555
Na12 O66 2.761179 1_655
Na12 O9 2.784563 1_555
Na12 O39 2.806257 1_556
Na12 O52 2.863014 1_655
Na13 O82 2.406616 1_545
Na13 O112 2.434391 1_555
Na13 O110 2.534022 1_555
Na13 O79 2.541056 1_555
Na13 O10 2.749626 1_555
Na13 O40 2.814117 1_556
Na13 O68 2.829829 1_545
Na13 O48 2.921277 1_545
Na14 O114 2.458131 1_555
Na14 O118 2.469682 1_555
Na14 O77 2.469840 1_555
Na14 O74 2.614139 1_545
Na14 O46 2.750753 1_555
Na14 O61 2.784960 1_555
Na14 O4 2.816632 1_555
Na14 O57 2.877570 1_555
Na15 O76 2.460542 1_655
Na15 O119 2.480630 1_555
Na15 O115 2.485132 1_555
Na15 O75 2.616938 1_545
Na15 O60 2.770860 1_655
Na15 O47 2.800019 1_555
Na15 O5 2.807681 1_555
Na15 O56 2.863666 1_655
Na16 O116 2.420465 1_555
Na16 O74 2.490770 1_555
Na16 O118 2.527044 1_555
Na16 O73 2.559041 1_555
Na16 O64 2.760820 1_555
Na16 O44 2.765494 1_555
Na16 O2 2.787169 1_555
Na16 O54 2.867425 1_555
Na17 O117 2.433183 1_555
Na17 O75 2.483015 1_555
Na17 O119 2.530614 1_555
Na17 O72 2.543330 1_655
Na17 O65 2.764012 1_555
Na17 O3 2.774102 1_555
Na17 O45 2.805907 1_555
Na17 O55 2.891256 1_555
Na18 O86 2.459425 1_555
Na18 O85 2.546107 1_455
Na18 O89 2.577379 1_445
Na18 O76 2.646345 1_555
Na18 O72 2.668298 1_545
Na18 O75 2.721788 1_445
Na19 O87 2.516216 1_555
Na19 O84 2.588539 1_555
Na19 O88 2.606530 1_545
Na19 O73 2.639347 1_545
Na19 O77 2.665077 1_555
Na19 O74 2.691185 1_545
Na20 O94 2.455994 1_555
Na20 O93 2.536047 1_455
Na20 O91 2.553868 1_445
Na20 O80 2.650783 1_544
Na20 O78 2.662820 1_554
Na20 O83 2.722044 1_444
Na21 O95 2.565837 1_565
Na21 O90 2.580379 1_555
Na21 O82 2.592886 1_554
Na21 O81 2.599601 1_554
Na21 O92 2.601702 1_565
Na21 O79 2.623975 1_564
Na22 O100 2.561116 1_555
Na22 O110 2.607317 1_555
Na22 O108 2.614354 1_555
Na22 O96 2.652641 1_555
Na22 O98 2.670402 1_555
Na22 O112 2.695840 1_555
Na23 O97 2.549543 1_555
Na23 O101 2.602086 1_555
Na23 O113 2.629024 1_555
Na23 O109 2.646100 1_555
Na23 O111 2.646503 1_555
Na23 O99 2.649489 1_555
Na24 O102 2.572525 1_555
Na24 O104 2.607998 1_555
Na24 O116 2.626325 1_555
Na24 O114 2.645399 1_555
Na24 O118 2.657163 1_555
Na24 O106 2.657284 1_555
Na25 O103 2.577125 1_555
Na25 O105 2.616675 1_555
Na25 O117 2.635174 1_555
Na25 O115 2.655088 1_555
Na25 O119 2.659301 1_555
Na25 O107 2.660714 1_555
Na26 O136 2.472329 1_555
Na26 O134 2.530218 1_555
Na26 O122 2.654273 1_555
Na26 O132 2.669570 1_555
Na26 O120 2.679167 1_555
Na26 O124 2.706809 1_555
Na27 O137 2.420945 1_555
Na27 O135 2.481418 1_555
Na27 O133 2.667707 1_555
Na27 O121 2.675916 1_555
Na27 O123 2.698803 1_555
Na27 O125 2.761294 1_555
Na28 O142 2.498671 1_555
Na28 O140 2.579608 1_555
Na28 O128 2.646353 1_555
Na28 O130 2.654653 1_555
Na28 O138 2.669550 1_555
Na28 O126 2.676233 1_555
Na29 O131 2.526383 1_555
Na29 O129 2.584865 1_555
Na29 O139 2.625763 1_555
Na29 O127 2.629197 1_555
Na29 O141 2.666199 1_555
Na29 O143 2.742441 1_555
Nb0 O3 1.949730 1_555
Nb0 O5 1.972744 1_565
Nb0 O75 1.982935 1_555
Nb0 O72 2.024529 1_655
Nb0 O76 2.049265 1_665
Nb0 O0 2.199383 1_665
Nb1 O2 1.943779 1_555
Nb1 O4 1.964954 1_565
Nb1 O74 1.976823 1_555
Nb1 O73 2.026698 1_555
Nb1 O77 2.054083 1_565
Nb1 O1 2.215092 1_565
Nb2 O11 1.929217 1_565
Nb2 O83 1.967718 1_555
Nb2 O78 1.979932 1_665
Nb2 O9 2.008829 1_555
Nb2 O80 2.052605 1_655
Nb2 O6 2.216027 1_665
Nb3 O8 1.943516 1_555
Nb3 O10 1.986439 1_565
Nb3 O7 1.989117 1_565
Nb3 O81 2.029880 1_555
Nb3 O82 2.049778 1_555
Nb3 O79 2.082062 1_565
Nb4 O12 1.926940 1_555
Nb4 O15 1.993550 1_565
Nb4 O17 2.014968 1_555
Nb4 O88 2.017166 1_555
Nb4 O84 2.021070 1_565
Nb4 O87 2.052228 1_565
Nb5 O24 1.882126 1_555
Nb5 O28 1.953616 1_555
Nb5 O26 1.979245 1_555
Nb5 O100 2.024560 1_555
Nb5 O96 2.033408 1_555
Nb5 O98 2.316500 1_555
Nb6 O25 1.928672 1_555
Nb6 O29 1.974736 1_555
Nb6 O27 2.012497 1_555
Nb6 O101 2.025301 1_555
Nb6 O97 2.058656 1_555
Nb6 O99 2.119796 1_555
Nb7 O30 1.912121 1_555
Nb7 O34 1.962406 1_555
Nb7 O102 1.987967 1_555
Nb7 O32 2.012211 1_555
Nb7 O104 2.037259 1_555
Nb7 O106 2.276101 1_555
Nb8 O31 1.887638 1_555
Nb8 O103 1.968670 1_555
Nb8 O35 1.986053 1_555
Nb8 O105 2.014719 1_555
Nb8 O33 2.063724 1_555
Nb8 O107 2.298722 1_555
Nb9 O36 1.916824 1_556
Nb9 O108 1.959467 1_555
Nb9 O38 1.976479 1_556
Nb9 O112 2.013309 1_555
Nb9 O40 2.021529 1_556
Nb9 O110 2.090366 1_555
Nb10 O41 1.941306 1_556
Nb10 O37 1.962840 1_556
Nb10 O113 1.997981 1_555
Nb10 O111 2.005365 1_555
Nb10 O39 2.016860 1_556
Nb10 O109 2.085217 1_555
Nb11 O42 1.903994 1_555
Nb11 O44 1.976825 1_555
Nb11 O46 1.990094 1_555
Nb11 O116 2.004434 1_555
Nb11 O114 2.043039 1_555
Nb11 O118 2.089121 1_555
Nb12 O43 1.931846 1_555
Nb12 O47 1.979323 1_555
Nb12 O45 1.983618 1_555
Nb12 O117 2.001488 1_555
Nb12 O115 2.023016 1_555
Nb12 O119 2.076173 1_555
Nb13 O52 1.964215 1_554
Nb13 O48 1.977227 1_554
Nb13 O50 1.982335 1_554
Nb13 O124 2.034924 1_555
Nb13 O122 2.062705 1_555
Nb13 O120 2.091491 1_555
Nb14 O51 1.950330 1_554
Nb14 O53 1.952420 1_554
Nb14 O49 1.961670 1_554
Nb14 O125 2.063652 1_555
Nb14 O123 2.065664 1_555
Nb14 O121 2.078166 1_555
Nb15 O54 1.979987 1_555
Nb15 O56 1.995341 1_555
Nb15 O128 1.995429 1_555
Nb15 O58 2.014913 1_555
Nb15 O126 2.037005 1_555
Nb15 O130 2.070232 1_555
Nb16 O59 1.932261 1_555
Nb16 O57 1.977612 1_555
Nb16 O131 1.997053 1_555
Nb16 O55 2.057229 1_555
Nb16 O129 2.063769 1_555
Nb16 O127 2.077600 1_555
Nb17 O67 1.924265 1_555
Nb17 O69 1.989109 1_555
Nb17 O71 2.009330 1_555
Nb17 O141 2.021782 1_555
Nb17 O139 2.037677 1_555
Nb17 O143 2.066989 1_555
O0 S0 1.498042 1_555
O1 S1 1.495889 1_555
O2 Si0 1.702501 1_555
O3 Si1 1.698895 1_555
O4 Si3 1.707927 1_555
O5 Si2 1.705679 1_655
O6 S2 1.506157 1_555
O7 Si4 1.645380 1_555
O8 Si6 1.646019 1_555
O9 Si5 1.697036 1_655
O10 Si7 1.662553 1_545
O11 Si8 1.662986 1_555
O12 Si7 1.651150 1_555
O13 Si8 1.602969 1_565
O13 Sc0 2.077661 1_655
O14 S2 1.485566 1_555
O14 Sc0 2.163592 1_545
O15 Si4 1.624547 1_555
O16 Si5 1.618026 1_555
O16 Sc0 2.013041 1_555
O17 Si6 1.631937 1_555
O18 Si0 1.614681 1_555
O18 Sc2 1.983853 1_565
O19 Si1 1.608816 1_555
O19 Sc1 2.023942 1_665
O20 Si2 1.604933 1_555
O20 Sc1 1.998304 1_555
O21 Si3 1.612179 1_555
O21 Sc2 1.971310 1_555
O22 S0 1.449417 1_565
O22 Sc1 2.153159 1_565
O23 S1 1.477074 1_565
O23 Sc2 2.212049 1_565
O24 Si9 1.658934 1_555
O25 Si10 1.680657 1_555
O26 Si11 1.654663 1_555
O27 Si12 1.659331 1_555
O28 Si13 1.646055 1_555
O29 Si14 1.660393 1_555
O30 Si15 1.669424 1_555
O31 Si16 1.694568 1_555
O32 Si17 1.654848 1_555
O33 Si18 1.648489 1_555
O34 Si19 1.664015 1_555
O35 Si20 1.652811 1_555
O36 Si19 1.647153 1_555
O37 Si20 1.645101 1_555
O38 Si15 1.623179 1_555
O39 Si16 1.644503 1_555
O40 Si17 1.642830 1_555
O41 Si18 1.650034 1_555
O42 Si11 1.653823 1_555
O43 Si12 1.651706 1_555
O44 Si13 1.647006 1_555
O45 Si14 1.646947 1_555
O46 Si9 1.628385 1_555
O47 Si10 1.651686 1_555
O48 Si21 1.681573 1_555
O49 Si22 1.647907 1_555
O50 Si23 1.667250 1_555
O51 Si24 1.661334 1_555
O52 Si25 1.675303 1_555
O53 Si26 1.663598 1_555
O54 Si27 1.653131 1_555
O55 Si28 1.651894 1_555
O56 Si29 1.663043 1_555
O57 Si30 1.667307 1_555
O58 Si31 1.654222 1_555
O59 Si32 1.664853 1_555
O60 Si31 1.593594 1_555
O60 Sc3 2.034873 1_555
O61 Si32 1.589141 1_555
O61 Sc4 2.031035 1_555
O62 Si27 1.588208 1_555
O62 Sc3 2.110965 1_555
O63 Si28 1.589767 1_555
O63 Sc4 2.106208 1_555
O64 Si29 1.597045 1_555
O64 Sc3 1.986439 1_555
O65 Si30 1.594430 1_555
O65 Sc4 1.985884 1_555
O66 Si23 1.592533 1_555
O66 Sc5 2.047877 1_555
O67 Si24 1.649091 1_555
O68 Si25 1.602155 1_555
O68 Sc5 2.051490 1_555
O69 Si26 1.641056 1_555
O70 Si21 1.583871 1_555
O70 Sc5 2.000889 1_555
O71 Si22 1.627800 1_555
O72 Si31 1.661708 1_555
O73 Si32 1.655465 1_555
O74 Si27 1.707467 1_555
O75 Si28 1.706629 1_555
O76 Si29 1.648392 1_555
O77 Si30 1.647120 1_555
O78 Si23 1.651502 1_555
O79 Si24 1.628944 1_555
O80 Si25 1.645492 1_555
O81 Si26 1.623974 1_555
O82 Si21 1.659948 1_555
O83 Si22 1.659113 1_555
O84 Si9 1.620357 1_555
O85 Si10 1.599042 1_555
O85 Sc0 2.111479 1_645
O86 Si11 1.606344 1_555
O86 Sc0 2.084373 1_545
O87 Si12 1.614856 1_555
O88 Si13 1.632372 1_555
O89 Si14 1.620307 1_555
O89 Sc0 2.113119 1_655
O90 Si15 1.603126 1_555
O90 Sc2 2.175411 1_565
O91 Si16 1.593657 1_555
O91 Sc1 2.136557 1_665
O92 Si17 1.632409 1_555
O92 Sc2 2.090748 1_555
O93 Si18 1.607849 1_555
O93 Sc1 2.139805 1_655
O94 Si19 1.596004 1_555
O94 Sc1 2.108768 1_555
O95 Si20 1.610645 1_555
O95 Sc2 2.173286 1_555
O96 Si7 1.677989 1_545
O97 Si8 1.643690 1_555
O98 S2 1.507006 1_555
O99 Si4 1.652974 1_555
O100 Si6 1.630155 1_555
O101 Si5 1.673583 1_655
O102 Si0 1.661338 1_555
O103 Si1 1.671584 1_555
O104 Si3 1.684744 1_555
O105 Si2 1.698792 1_655
O106 S0 1.511001 1_555
O107 S1 1.502985 1_555
O108 Si21 1.638590 1_555
O109 Si22 1.628495 1_555
O110 Si24 1.624982 1_555
O111 Si23 1.662895 1_655
O112 Si25 1.637056 1_545
O113 Si26 1.635144 1_545
O114 Si27 1.638536 1_545
O115 Si28 1.646573 1_545
O116 Si29 1.645622 1_555
O117 Si30 1.641809 1_555
O118 Si32 1.655959 1_555
O119 Si31 1.671044 1_655
O120 Si19 1.659103 1_555
O121 Si20 1.655054 1_555
O122 Si16 1.634222 1_455
O123 Si15 1.646863 1_555
O124 Si17 1.648272 1_565
O125 Si18 1.659339 1_565
O126 Si11 1.648453 1_565
O127 Si12 1.645351 1_565
O128 Si13 1.638516 1_555
O129 Si14 1.636016 1_555
O130 Si10 1.629117 1_455
O131 Si9 1.633997 1_555
O132 S0 1.486899 1_565
O132 Sc3 2.309796 1_555
O133 S1 1.474208 1_565
O133 Sc4 2.319734 1_555
O134 Si0 1.607783 1_555
O134 Sc3 2.114281 1_555
O135 Si1 1.610366 1_555
O135 Sc4 2.110217 1_555
O136 Si2 1.596623 1_555
O136 Sc3 2.045682 1_555
O137 Si3 1.593959 1_555
O137 Sc4 2.048757 1_555
O138 S2 1.452117 1_555
O138 Sc5 2.242304 1_555
O139 Si4 1.649995 1_555
O140 Si5 1.600870 1_555
O140 Sc5 2.104995 1_555
O141 Si6 1.662261 1_555
O142 Si7 1.603642 1_555
O142 Sc5 2.142820 1_555
O143 Si8 1.663133 1_565
