# generated using pymatgen
data_Na8La2Si5Sn2SO24
_symmetry_space_group_name_H-M   'P 1'
_cell_length_a   9.52145695
_cell_length_b   9.50967023
_cell_length_c   23.07498505
_cell_angle_alpha   90.40423569
_cell_angle_beta   89.31964940
_cell_angle_gamma   120.22300456
_symmetry_Int_Tables_number   1
_chemical_formula_structural   Na8La2Si5Sn2SO24
_chemical_formula_sum   'Na24 La6 Si15 Sn6 S3 O72'
_cell_volume   1805.21799578
_cell_formula_units_Z   3
loop_
 _symmetry_equiv_pos_site_id
 _symmetry_equiv_pos_as_xyz
  1  'x, y, z'
loop_
 _atom_site_type_symbol
 _atom_site_label
 _atom_site_symmetry_multiplicity
 _atom_site_fract_x
 _atom_site_fract_y
 _atom_site_fract_z
 _atom_site_occupancy
  Na  Na0  1  0.64253553  0.00228370  0.25355405  1
  Na  Na1  1  0.35685212  0.36130953  0.24711044  1
  Na  Na2  1  0.00028203  0.63907086  0.24939479  1
  Na  Na3  1  0.63752465  0.63449755  0.74325793  1
  Na  Na4  1  0.99341123  0.36170688  0.74716648  1
  Na  Na5  1  0.36901763  0.00730392  0.74734436  1
  Na  Na6  1  0.29841603  0.33606485  0.59105349  1
  Na  Na7  1  0.03850222  0.70479107  0.58518682  1
  Na  Na8  1  0.66683796  0.96026212  0.58507298  1
  Na  Na9  1  0.28123257  0.96438139  0.08200364  1
  Na  Na10  1  0.66852038  0.68549814  0.09274160  1
  Na  Na11  1  0.04933786  0.34004541  0.09212974  1
  Na  Na12  1  0.98078811  0.66971276  0.91272645  1
  Na  Na13  1  0.70555361  0.04839434  0.90062866  1
  Na  Na14  1  0.31699924  0.27996095  0.91657776  1
  Na  Na15  1  0.95415258  0.29745841  0.41145502  1
  Na  Na16  1  0.33151514  0.02146786  0.41668895  1
  Na  Na17  1  0.71102887  0.67642514  0.41974373  1
  Na  Na18  1  0.98728967  0.98600497  0.50445543  1
  Na  Na19  1  0.02962804  0.01202407  0.99911952  1
  Na  Na20  1  0.66815159  0.32307235  0.82818023  1
  Na  Na21  1  0.67263933  0.33152725  0.33179743  1
  Na  Na22  1  0.32229925  0.65346991  0.17091637  1
  Na  Na23  1  0.33425018  0.66596811  0.66682556  1
  La  La0  1  0.99675422  0.99666524  0.34257298  1
  La  La1  1  0.00765983  0.00478983  0.83791119  1
  La  La2  1  0.00426699  0.99928718  0.16069237  1
  La  La3  1  0.66656250  0.33172450  0.98068055  1
  La  La4  1  0.31699397  0.65727168  0.01772279  1
  La  La5  1  0.33435676  0.67315115  0.52131910  1
  Si  Si0  1  0.32341715  0.00456848  0.24981545  1
  Si  Si1  1  0.67392904  0.68155953  0.25194935  1
  Si  Si2  1  0.00013190  0.32292724  0.25048906  1
  Si  Si3  1  0.30929363  0.30928723  0.74743076  1
  Si  Si4  1  0.99501696  0.69269625  0.74695693  1
  Si  Si5  1  0.69260931  0.99905730  0.74795818  1
  Si  Si6  1  0.95445919  0.31807287  0.58729336  1
  Si  Si7  1  0.37284658  0.05404635  0.58590025  1
  Si  Si8  1  0.67931622  0.62628466  0.58532360  1
  Si  Si9  1  0.96196009  0.63312941  0.08533049  1
  Si  Si10  1  0.36833932  0.33316019  0.08564043  1
  Si  Si11  1  0.03468432  0.36550948  0.91109242  1
  Si  Si12  1  0.33376423  0.96288670  0.91292306  1
  Si  Si13  1  0.63268629  0.97520856  0.41880953  1
  Si  Si14  1  0.02441208  0.65825486  0.41986243  1
  Sn  Sn0  1  0.99949464  0.99939672  0.64984931  1
  Sn  Sn1  1  0.66777494  0.33339224  0.68331023  1
  Sn  Sn2  1  0.66659778  0.34399040  0.18642279  1
  Sn  Sn3  1  0.68023550  0.33011620  0.48816309  1
  Sn  Sn4  1  0.32850362  0.67966306  0.31755694  1
  Sn  Sn5  1  0.32078513  0.66735873  0.80818178  1
  S  S0  1  0.66948493  0.03635763  0.08763641  1
  S  S1  1  0.62722670  0.66765595  0.91174282  1
  S  S2  1  0.34379197  0.37042943  0.41600615  1
  O  O0  1  0.25235840  0.05276341  0.30619654  1
  O  O1  1  0.79724521  0.75781844  0.30631380  1
  O  O2  1  0.95618633  0.20308667  0.30609577  1
  O  O3  1  0.25252386  0.20865485  0.80731437  1
  O  O4  1  0.95388067  0.75048467  0.80746363  1
  O  O5  1  0.79387451  0.03990463  0.80721576  1
  O  O6  1  0.78796617  0.96141298  0.69406843  1
  O  O7  1  0.17438497  0.21286243  0.69474201  1
  O  O8  1  0.03202868  0.82591292  0.69381197  1
  O  O9  1  0.74213043  0.79662731  0.19456498  1
  O  O10  1  0.04379180  0.25195319  0.19282876  1
  O  O11  1  0.20528039  0.95867313  0.19401529  1
  O  O12  1  0.86388162  0.34692862  0.64229930  1
  O  O13  1  0.48603683  0.14012521  0.64205701  1
  O  O14  1  0.65605558  0.51497691  0.64171200  1
  O  O15  1  0.85903408  0.51414481  0.14123983  1
  O  O16  1  0.66119322  0.12998340  0.13851179  1
  O  O17  1  0.48071486  0.33643156  0.14123609  1
  O  O18  1  0.44390468  0.31470987  0.02411418  1
  O  O19  1  0.87259583  0.55274386  0.02432000  1
  O  O20  1  0.67992545  0.12098859  0.03246862  1
  O  O21  1  0.45872697  0.16516662  0.52597290  1
  O  O22  1  0.70354093  0.54017788  0.52489865  1
  O  O23  1  0.84830500  0.28995842  0.52667051  1
  O  O24  1  0.55247542  0.67682125  0.96753945  1
  O  O25  1  0.13065255  0.44020633  0.97185922  1
  O  O26  1  0.32857960  0.87648552  0.97469758  1
  O  O27  1  0.56341146  0.86584131  0.47626638  1
  O  O28  1  0.32228275  0.44209888  0.47010844  1
  O  O29  1  0.12719738  0.68494510  0.47777078  1
  O  O30  1  0.11916384  0.63233109  0.36236829  1
  O  O31  1  0.51125503  0.87987096  0.36208540  1
  O  O32  1  0.35405941  0.46999288  0.36449156  1
  O  O33  1  0.14202139  0.48296547  0.85497193  1
  O  O34  1  0.35036493  0.85982084  0.85635206  1
  O  O35  1  0.52728953  0.66051651  0.86105881  1
  O  O36  1  0.00310731  0.81771877  0.41374187  1
  O  O37  1  0.81857825  0.01080421  0.41169744  1
  O  O38  1  0.20116449  0.20257179  0.41244937  1
  O  O39  1  0.00730578  0.18132260  0.91092415  1
  O  O40  1  0.16593009  0.97143033  0.91274153  1
  O  O41  1  0.79133087  0.81365209  0.91000982  1
  O  O42  1  0.96170614  0.14636166  0.59080022  1
  O  O43  1  0.19130971  0.04168099  0.58971108  1
  O  O44  1  0.84952561  0.80888711  0.58855960  1
  O  O45  1  0.97256492  0.81074828  0.08760157  1
  O  O46  1  0.81642237  0.02126803  0.08932382  1
  O  O47  1  0.18341221  0.17475816  0.08747311  1
  O  O48  1  0.66582188  0.15686351  0.73948441  1
  O  O49  1  0.49304808  0.33519937  0.73835342  1
  O  O50  1  0.83846612  0.50700203  0.73902314  1
  O  O51  1  0.65109058  0.49741867  0.24536155  1
  O  O52  1  0.83819599  0.34389757  0.24281147  1
  O  O53  1  0.51065218  0.15867342  0.24026931  1
  O  O54  1  0.63870218  0.51734259  0.90967932  1
  O  O55  1  0.86074852  0.36183884  0.90752107  1
  O  O56  1  0.49732806  0.14363627  0.90710685  1
  O  O57  1  0.63162470  0.15209816  0.42262926  1
  O  O58  1  0.49829893  0.36451599  0.41714275  1
  O  O59  1  0.84235620  0.48486767  0.42171635  1
  O  O60  1  0.36769962  0.50551319  0.09122409  1
  O  O61  1  0.14253746  0.65238572  0.09176578  1
  O  O62  1  0.52113172  0.87322760  0.08934640  1
  O  O63  1  0.34838852  0.87182968  0.58541438  1
  O  O64  1  0.51958411  0.64690337  0.58462424  1
  O  O65  1  0.13769531  0.47372671  0.58613459  1
  O  O66  1  0.33867071  0.83966706  0.25750850  1
  O  O67  1  0.49127632  0.65706129  0.26446366  1
  O  O68  1  0.16474650  0.50409140  0.26013677  1
  O  O69  1  0.32535778  0.49290162  0.75163226  1
  O  O70  1  0.16494712  0.68125605  0.74827772  1
  O  O71  1  0.51083229  0.82789109  0.75196181  1
loop_
_geom_bond_atom_site_label_1
_geom_bond_atom_site_label_2
_geom_bond_distance
_geom_bond_site_symmetry_2
Na0 O53 2.403808 1_555
Na0 O66 2.502397 1_545
Na0 O31 2.773319 1_545
Na0 O52 2.827237 1_555
Na0 O67 2.856295 1_545
Na0 O2 2.889149 1_555
Na0 O16 2.893143 1_555
Na0 O9 2.894091 1_545
Na1 O51 2.423474 1_555
Na1 O67 2.465961 1_555
Na1 O17 2.760371 1_555
Na1 O68 2.785894 1_555
Na1 O32 2.896845 1_555
Na1 O10 2.912908 1_555
Na1 O0 2.922912 1_555
Na1 O53 2.951923 1_555
Na2 O52 2.433606 1_455
Na2 O68 2.489692 1_555
Na2 O66 2.806542 1_555
Na2 O15 2.806750 1_455
Na2 O30 2.868199 1_555
Na2 O51 2.893838 1_455
Na2 O11 2.950167 1_555
Na2 O1 2.975580 1_455
Na3 O49 2.462439 1_555
Na3 O69 2.577938 1_555
Na3 O14 2.639686 1_555
Na3 O71 2.664637 1_555
Na3 O50 2.733006 1_555
Na3 O6 2.921157 1_555
Na3 O35 2.955671 1_555
Na3 O4 3.036920 1_555
Na4 O50 2.486637 1_555
Na4 O70 2.627900 1_655
Na4 O12 2.699604 1_555
Na4 O48 2.728802 1_555
Na4 O69 2.755500 1_655
Na4 O33 2.814348 1_655
Na4 O7 2.969490 1_655
Na4 O5 3.006434 1_555
Na5 O48 2.446861 1_555
Na5 O71 2.659111 1_545
Na5 O13 2.702133 1_555
Na5 O70 2.706366 1_545
Na5 O49 2.730717 1_555
Na5 O34 2.848506 1_545
Na5 O3 2.979250 1_555
Na5 O8 3.047732 1_545
Na6 O43 2.450201 1_555
Na6 O65 2.468102 1_555
Na6 O64 2.631804 1_555
Na6 O7 2.659217 1_555
Na6 O42 2.776774 1_455
Na6 O28 2.941252 1_555
Na7 O44 2.452013 1_455
Na7 O63 2.551651 1_555
Na7 O29 2.645096 1_555
Na7 O8 2.764098 1_555
Na7 O43 2.774492 1_565
Na7 O65 2.794865 1_555
Na8 O42 2.456685 1_565
Na8 O64 2.576748 1_555
Na8 O27 2.686336 1_555
Na8 O63 2.708024 1_555
Na8 O44 2.762284 1_555
Na8 O6 2.776980 1_555
Na9 O45 2.541580 1_455
Na9 O61 2.579820 1_555
Na9 O47 2.599120 1_565
Na9 O11 2.669176 1_555
Na9 O26 2.712294 1_554
Na9 O62 2.828829 1_555
Na10 O60 2.490142 1_555
Na10 O45 2.517133 1_555
Na10 O9 2.527241 1_555
Na10 O46 2.767497 1_565
Na10 O62 2.772982 1_555
Na11 O10 2.466545 1_555
Na11 O47 2.475134 1_555
Na11 O60 2.619555 1_555
Na11 O61 2.637533 1_555
Na11 O46 2.710103 1_455
Na11 O25 2.907318 1_554
Na12 O40 2.499608 1_655
Na12 O55 2.553843 1_555
Na12 O4 2.606644 1_555
Na12 O41 2.760691 1_555
Na12 O19 2.784431 1_556
Na12 O54 2.822449 1_555
Na13 O5 2.320073 1_555
Na13 O39 2.502960 1_655
Na13 O56 2.563640 1_555
Na13 O55 2.580379 1_555
Na13 O41 2.746569 1_545
Na14 O40 2.536921 1_545
Na14 O3 2.605176 1_555
Na14 O39 2.610506 1_555
Na14 O56 2.627638 1_555
Na14 O18 2.717398 1_556
Na14 O54 2.745181 1_555
Na15 O37 2.356870 1_555
Na15 O59 2.502661 1_555
Na15 O2 2.588808 1_555
Na15 O57 2.668437 1_555
Na15 O23 2.820568 1_555
Na15 O38 2.912788 1_655
Na15 O30 2.977291 1_655
Na16 O57 2.482027 1_555
Na16 O38 2.583263 1_555
Na16 O0 2.727506 1_555
Na16 O36 2.727676 1_545
Na16 O58 2.819366 1_555
Na16 O21 2.837459 1_555
Na16 O31 2.928202 1_545
Na17 O36 2.406286 1_655
Na17 O58 2.618452 1_555
Na17 O59 2.679504 1_555
Na17 O1 2.731599 1_555
Na17 O22 2.742032 1_555
Na17 O37 2.814268 1_565
Na18 O44 2.466845 1_555
Na18 O42 2.583413 1_565
Na18 O43 2.639068 1_665
Na18 O36 2.674552 1_655
Na18 O37 2.772634 1_565
Na18 O38 2.938117 1_665
Na19 O40 2.497619 1_545
Na19 O47 2.537830 1_556
Na19 O45 2.666330 1_446
Na19 O39 2.679522 1_555
Na19 O46 2.921979 1_456
Na19 O41 2.946481 1_445
Na20 O56 2.460383 1_555
Na20 O55 2.498027 1_555
Na20 O48 2.570543 1_555
Na20 O50 2.652848 1_555
Na20 O49 2.714462 1_555
Na20 O54 2.736470 1_555
Na21 O52 2.540628 1_555
Na21 O59 2.589879 1_555
Na21 O57 2.610972 1_555
Na21 O51 2.624665 1_555
Na21 O53 2.649051 1_555
Na21 O58 2.677713 1_555
Na22 O60 2.470839 1_555
Na22 O61 2.514279 1_555
Na22 O68 2.515829 1_555
Na22 O66 2.613740 1_555
Na22 O67 2.697301 1_555
Na22 O62 2.735340 1_555
Na23 O70 2.512448 1_555
Na23 O69 2.539011 1_555
Na23 O71 2.546885 1_555
Na23 O65 2.627120 1_555
Na23 O64 2.642428 1_555
Na23 O63 2.675852 1_555
La0 O1 2.266010 1_555
La0 O2 2.346365 1_565
La0 O0 2.358582 1_665
La0 O37 2.367002 1_565
La0 O36 2.396212 1_655
La0 O38 2.532844 1_665
La1 O3 2.263295 1_555
La1 O4 2.311313 1_445
La1 O5 2.340627 1_455
La1 O39 2.371158 1_555
La1 O40 2.429797 1_545
La1 O41 2.550776 1_445
La2 O11 2.277481 1_555
La2 O10 2.352866 1_565
La2 O45 2.361112 1_455
La2 O47 2.377890 1_565
La2 O9 2.384759 1_455
La2 O46 2.530978 1_465
La3 O18 2.265315 1_556
La3 O19 2.268510 1_556
La3 O55 2.397930 1_555
La3 O20 2.398847 1_556
La3 O56 2.408015 1_555
La3 O54 2.528420 1_555
La4 O25 2.203547 1_554
La4 O26 2.266869 1_554
La4 O61 2.352973 1_555
La4 O24 2.433999 1_554
La4 O60 2.438815 1_555
La4 O62 2.595529 1_555
La5 O27 2.268198 1_555
La5 O29 2.276912 1_555
La5 O63 2.342249 1_555
La5 O65 2.395449 1_555
La5 O64 2.411649 1_555
La5 O28 2.439203 1_555
O0 Si0 1.625811 1_555
O1 Si1 1.625769 1_555
O2 Si2 1.627296 1_655
O3 Si3 1.611693 1_555
O4 Si4 1.611722 1_555
O5 Si5 1.611524 1_545
O6 Si5 1.671206 1_555
O6 Sn0 2.109983 1_555
O7 Si3 1.674678 1_555
O7 Sn0 2.138934 1_445
O8 Si4 1.671872 1_455
O8 Sn0 2.095798 1_455
O9 Si1 1.630061 1_555
O10 Si2 1.629501 1_555
O11 Si0 1.626606 1_565
O12 Si6 1.624023 1_555
O12 Sn1 2.028890 1_555
O13 Si7 1.625046 1_555
O13 Sn1 2.022635 1_555
O14 Si8 1.624523 1_555
O14 Sn1 2.033620 1_555
O15 Si9 1.667128 1_555
O15 Sn2 2.013994 1_555
O16 S0 1.493629 1_555
O16 Sn2 2.287101 1_555
O17 Si10 1.670359 1_555
O17 Sn2 2.034577 1_555
O18 Si10 1.631983 1_555
O19 Si9 1.627497 1_555
O20 S0 1.486281 1_555
O21 Si7 1.679689 1_555
O21 Sn3 2.077251 1_555
O22 Si8 1.683506 1_555
O22 Sn3 2.071854 1_555
O23 Si6 1.675163 1_555
O23 Sn3 2.037160 1_555
O24 S1 1.486927 1_555
O25 Si11 1.633587 1_555
O26 Si12 1.638126 1_555
O27 Si13 1.607050 1_555
O28 S2 1.478995 1_555
O29 Si14 1.607460 1_555
O30 Si14 1.680962 1_555
O30 Sn4 2.073435 1_555
O31 Si13 1.684016 1_555
O31 Sn4 2.094769 1_555
O32 S2 1.496314 1_555
O32 Sn4 2.394350 1_555
O33 Si11 1.675956 1_555
O33 Sn5 2.028788 1_555
O34 Si12 1.680071 1_555
O34 Sn5 2.030866 1_555
O35 S1 1.496037 1_555
O35 Sn5 2.354972 1_555
O36 Si14 1.635268 1_555
O37 Si13 1.632482 1_545
O38 S2 1.489117 1_555
O39 Si11 1.635901 1_555
O40 Si12 1.640481 1_555
O41 S1 1.478501 1_555
O42 Si6 1.671274 1_555
O42 Sn0 2.117551 1_545
O43 Si7 1.673670 1_555
O43 Sn0 2.152046 1_445
O44 Si8 1.677890 1_555
O44 Sn0 2.174565 1_555
O45 Si9 1.641086 1_555
O46 S0 1.477484 1_555
O47 Si10 1.643209 1_555
O48 Si5 1.657106 1_545
O48 Sn1 2.120699 1_555
O49 Si3 1.650370 1_555
O49 Sn1 2.087952 1_555
O50 Si4 1.650976 1_555
O50 Sn1 2.082828 1_555
O51 Si1 1.658459 1_555
O51 Sn2 2.045575 1_555
O52 Si2 1.662841 1_655
O52 Sn2 2.101073 1_555
O53 Si0 1.655117 1_555
O53 Sn2 2.051097 1_555
O54 S1 1.487827 1_555
O55 Si11 1.641875 1_655
O56 Si12 1.643554 1_545
O57 Si13 1.688947 1_545
O57 Sn3 2.135067 1_555
O58 S2 1.500767 1_555
O58 Sn3 2.537521 1_555
O59 Si14 1.687353 1_655
O59 Sn3 2.141973 1_555
O60 Si10 1.646231 1_555
O61 Si9 1.643317 1_455
O62 S0 1.482191 1_565
O63 Si7 1.628054 1_565
O64 Si8 1.628691 1_555
O65 Si6 1.623333 1_455
O66 Si0 1.656971 1_565
O66 Sn4 2.030468 1_555
O67 Si1 1.656301 1_555
O67 Sn4 2.058073 1_555
O68 Si2 1.660933 1_555
O68 Sn4 2.090777 1_555
O69 Si3 1.676542 1_555
O69 Sn5 2.120803 1_555
O70 Si4 1.676025 1_455
O70 Sn5 2.092501 1_555
O71 Si5 1.678023 1_555
O71 Sn5 2.116365 1_555
