# generated using pymatgen
data_TiSiGe(SO6)2
_symmetry_space_group_name_H-M   'P 1'
_cell_length_a   8.54307345
_cell_length_b   8.54200893
_cell_length_c   22.12776712
_cell_angle_alpha   89.82308421
_cell_angle_beta   90.18887940
_cell_angle_gamma   119.88758227
_symmetry_Int_Tables_number   1
_chemical_formula_structural   TiSiGe(SO6)2
_chemical_formula_sum   'Ti6 Si6 Ge6 S12 O72'
_cell_volume   1400.00722025
_cell_formula_units_Z   6
loop_
 _symmetry_equiv_pos_site_id
 _symmetry_equiv_pos_as_xyz
  1  'x, y, z'
loop_
 _atom_site_type_symbol
 _atom_site_label
 _atom_site_symmetry_multiplicity
 _atom_site_fract_x
 _atom_site_fract_y
 _atom_site_fract_z
 _atom_site_occupancy
  Ti  Ti0  1  0.98537455  0.00997844  0.35605608  1
  Ti  Ti1  1  0.01119681  0.02446209  0.64432254  1
  Ti  Ti2  1  0.01622747  0.02335444  0.14259756  1
  Ti  Ti3  1  0.67048019  0.33807741  0.68913502  1
  Ti  Ti4  1  0.67609648  0.32276117  0.47682540  1
  Ti  Ti5  1  0.33535239  0.67106603  0.30935097  1
  Si  Si0  1  0.99176749  0.29455986  0.24804556  1
  Si  Si1  1  0.29149690  0.29917325  0.75316547  1
  Si  Si2  1  0.96587014  0.34643030  0.58315192  1
  Si  Si3  1  0.38995606  0.34717100  0.08231041  1
  Si  Si4  1  0.33356641  0.94829495  0.91680023  1
  Si  Si5  1  0.61142492  0.94497268  0.41843418  1
  Ge  Ge0  1  0.02245228  0.00452644  0.85524289  1
  Ge  Ge1  1  0.66482582  0.33908362  0.18709149  1
  Ge  Ge2  1  0.64493715  0.31706635  0.97738171  1
  Ge  Ge3  1  0.32848294  0.66542995  0.02091581  1
  Ge  Ge4  1  0.33714654  0.66553917  0.52120405  1
  Ge  Ge5  1  0.33638151  0.67165539  0.81267713  1
  S  S0  1  0.29046084  0.00408559  0.24955722  1
  S  S1  1  0.71337304  0.70993873  0.24888036  1
  S  S2  1  0.00245112  0.71394467  0.75091609  1
  S  S3  1  0.71268831  0.99720111  0.75191601  1
  S  S4  1  0.37880267  0.04149278  0.58279067  1
  S  S5  1  0.66577251  0.62258648  0.58248652  1
  S  S6  1  0.95247047  0.61794588  0.08173550  1
  S  S7  1  0.66345016  0.04445110  0.08264290  1
  S  S8  1  0.62699556  0.66934761  0.91631923  1
  S  S9  1  0.03963986  0.37525256  0.91712769  1
  S  S10  1  0.33512465  0.38032617  0.41705293  1
  S  S11  1  0.04792996  0.66955835  0.41671539  1
  O  O0  1  0.20960138  0.03263508  0.30380650  1
  O  O1  1  0.82572067  0.78882281  0.30390177  1
  O  O2  1  0.96213303  0.16336579  0.30686391  1
  O  O3  1  0.19793672  0.16314768  0.80963061  1
  O  O4  1  0.96065604  0.78825063  0.80604448  1
  O  O5  1  0.82598051  0.03111787  0.80695281  1
  O  O6  1  0.79149945  0.96310980  0.69738719  1
  O  O7  1  0.16336365  0.20109538  0.69326274  1
  O  O8  1  0.03232078  0.82461775  0.69687137  1
  O  O9  1  0.79289530  0.82106495  0.19503543  1
  O  O10  1  0.02958909  0.19500112  0.19136334  1
  O  O11  1  0.17561138  0.96715369  0.19509076  1
  O  O12  1  0.86386039  0.36949151  0.64142585  1
  O  O13  1  0.49116601  0.12333119  0.63700093  1
  O  O14  1  0.63093499  0.50751427  0.63737115  1
  O  O15  1  0.87748669  0.50335938  0.13709478  1
  O  O16  1  0.62928669  0.12297111  0.13709569  1
  O  O17  1  0.50925101  0.37331217  0.14330426  1
  O  O18  1  0.47212307  0.29977913  0.02412004  1
  O  O19  1  0.83931761  0.53710026  0.02696533  1
  O  O20  1  0.70726363  0.16232461  0.02808779  1
  O  O21  1  0.45555703  0.15742793  0.52886130  1
  O  O22  1  0.69403338  0.54016130  0.52872831  1
  O  O23  1  0.83227038  0.30431429  0.52496124  1
  O  O24  1  0.54811501  0.70352619  0.97083364  1
  O  O25  1  0.15735995  0.45071317  0.97153120  1
  O  O26  1  0.29836789  0.82118421  0.97692716  1
  O  O27  1  0.52456790  0.82161807  0.47802082  1
  O  O28  1  0.29300938  0.45383374  0.47185400  1
  O  O29  1  0.15995850  0.70211408  0.47179201  1
  O  O30  1  0.12497889  0.63084586  0.36299228  1
  O  O31  1  0.49176730  0.85637606  0.35853221  1
  O  O32  1  0.36423147  0.49257653  0.36319079  1
  O  O33  1  0.11835598  0.48907799  0.86268938  1
  O  O34  1  0.36878999  0.85728067  0.85678578  1
  O  O35  1  0.50933799  0.62729498  0.86203029  1
  O  O36  1  0.03111468  0.83040748  0.40771226  1
  O  O37  1  0.81178278  0.96860017  0.40872943  1
  O  O38  1  0.17554159  0.19815996  0.40894623  1
  O  O39  1  0.01708248  0.19259435  0.90906659  1
  O  O40  1  0.15333366  0.96677463  0.90899288  1
  O  O41  1  0.80477480  0.83422997  0.90698980  1
  O  O42  1  0.97393758  0.16040390  0.59208423  1
  O  O43  1  0.19650244  0.01884320  0.59113358  1
  O  O44  1  0.82660797  0.80030583  0.59254737  1
  O  O45  1  0.96920485  0.79535194  0.09088536  1
  O  O46  1  0.82225552  0.02138903  0.09065435  1
  O  O47  1  0.19245029  0.16471681  0.09258050  1
  O  O48  1  0.69291816  0.15767261  0.74362272  1
  O  O49  1  0.48393779  0.31279784  0.73772270  1
  O  O50  1  0.84108667  0.53357114  0.74403484  1
  O  O51  1  0.69428520  0.52793671  0.24334127  1
  O  O52  1  0.81319866  0.30941212  0.23614803  1
  O  O53  1  0.47145682  0.16444886  0.24162592  1
  O  O54  1  0.64975961  0.50876642  0.92438501  1
  O  O55  1  0.86173570  0.36296532  0.92648939  1
  O  O56  1  0.51339350  0.14674665  0.92462438  1
  O  O57  1  0.63503171  0.14484505  0.42598874  1
  O  O58  1  0.49620433  0.36474177  0.42581064  1
  O  O59  1  0.86608112  0.51014343  0.42473684  1
  O  O60  1  0.35804805  0.51775691  0.07041128  1
  O  O61  1  0.13419286  0.63568341  0.07555292  1
  O  O62  1  0.50174178  0.86455467  0.07503361  1
  O  O63  1  0.36127996  0.86210661  0.57555467  1
  O  O64  1  0.50113823  0.63878279  0.57661951  1
  O  O65  1  0.16209000  0.51839832  0.57068791  1
  O  O66  1  0.30813922  0.84120621  0.25648130  1
  O  O67  1  0.53257780  0.68960019  0.25737178  1
  O  O68  1  0.17093226  0.48455897  0.26167895  1
  O  O69  1  0.30970707  0.49588329  0.76379928  1
  O  O70  1  0.16415272  0.69477270  0.75877545  1
  O  O71  1  0.53142780  0.83422589  0.75792422  1
loop_
_geom_bond_atom_site_label_1
_geom_bond_atom_site_label_2
_geom_bond_distance
_geom_bond_site_symmetry_2
Ge0 O3 1.754772 1_555
Ge0 O40 1.765504 1_545
Ge0 O4 1.978257 1_445
Ge0 O39 2.021627 1_555
Ge0 O41 2.047738 1_445
Ge0 O5 2.092201 1_455
Ge1 O52 1.777270 1_555
Ge1 O17 1.779829 1_555
Ge1 O51 1.954650 1_555
Ge1 O53 1.989109 1_555
Ge1 O15 1.989136 1_555
Ge1 O16 2.043462 1_555
Ge2 O18 1.750117 1_556
Ge2 O56 1.764882 1_555
Ge2 O20 1.994470 1_556
Ge2 O54 1.994884 1_555
Ge2 O55 2.034600 1_555
Ge2 O19 2.093853 1_556
Ge3 O26 1.765001 1_554
Ge3 O60 1.778109 1_555
Ge3 O61 1.967816 1_555
Ge3 O62 2.002463 1_555
Ge3 O25 2.006230 1_554
Ge3 O24 2.063398 1_554
Ge4 O27 1.768909 1_555
Ge4 O65 1.773212 1_555
Ge4 O64 1.955681 1_555
Ge4 O28 1.983645 1_555
Ge4 O63 1.993499 1_555
Ge4 O29 2.010661 1_555
Ge5 O34 1.764572 1_555
Ge5 O69 1.772979 1_555
Ge5 O71 1.967151 1_555
Ge5 O70 1.975608 1_555
Ge5 O35 2.015999 1_555
Ge5 O33 2.057721 1_555
O0 S0 1.467250 1_555
O0 Ti0 2.165040 1_455
O1 S1 1.486736 1_555
O1 Ti0 2.048448 1_565
O2 Si0 1.650557 1_555
O2 Ti0 1.786068 1_555
O3 Si1 1.619298 1_555
O4 S2 1.500652 1_655
O5 S3 1.489560 1_545
O6 S3 1.482206 1_555
O6 Ti1 2.050992 1_665
O7 Si1 1.655433 1_555
O7 Ti1 1.784725 1_555
O8 S2 1.464105 1_555
O8 Ti1 2.142922 1_565
O9 S1 1.462141 1_555
O9 Ti2 2.165419 1_665
O10 Si0 1.638259 1_455
O10 Ti2 1.780271 1_555
O11 S0 1.483524 1_565
O11 Ti2 2.017744 1_565
O12 Si2 1.625140 1_555
O12 Ti3 1.866481 1_555
O13 S4 1.475769 1_555
O13 Ti3 2.059934 1_555
O14 S5 1.494380 1_555
O14 Ti3 1.998849 1_555
O15 S6 1.497286 1_555
O16 S7 1.479620 1_555
O17 Si3 1.635875 1_555
O18 Si3 1.614614 1_555
O19 S6 1.487384 1_555
O20 S7 1.493677 1_555
O21 S4 1.478326 1_555
O21 Ti4 2.054890 1_555
O22 S5 1.464759 1_555
O22 Ti4 2.125914 1_555
O23 Si2 1.635255 1_555
O23 Ti4 1.771600 1_555
O24 S8 1.482592 1_555
O25 S9 1.492269 1_555
O26 Si4 1.645550 1_555
O27 Si5 1.618033 1_555
O28 S10 1.492280 1_555
O29 S11 1.485851 1_555
O30 S11 1.476590 1_555
O30 Ti5 2.037930 1_555
O31 Si5 1.612738 1_555
O31 Ti5 1.835379 1_555
O32 S10 1.469353 1_555
O32 Ti5 2.041202 1_555
O33 S9 1.481597 1_555
O34 Si4 1.643375 1_555
O35 S8 1.489075 1_555
O36 S11 1.463885 1_555
O36 Ti0 2.096579 1_465
O37 Si5 1.635402 1_555
O37 Ti0 1.780223 1_565
O38 S10 1.482593 1_555
O38 Ti0 1.997356 1_455
O39 S9 1.485001 1_555
O40 Si4 1.632750 1_555
O41 S8 1.483722 1_555
O42 Si2 1.635842 1_555
O42 Ti1 1.773003 1_655
O43 S4 1.482702 1_555
O43 Ti1 1.995500 1_555
O44 S5 1.470837 1_555
O44 Ti1 2.111405 1_665
O45 S6 1.464129 1_555
O45 Ti2 2.120117 1_665
O46 S7 1.474918 1_555
O46 Ti2 2.006799 1_655
O47 Si3 1.645364 1_555
O47 Ti2 1.772154 1_555
O48 S3 1.473135 1_545
O48 Ti3 2.036313 1_555
O49 Si1 1.626636 1_555
O49 Ti3 1.846391 1_555
O50 S2 1.476748 1_655
O50 Ti3 1.990957 1_555
O51 S1 1.485591 1_555
O52 Si0 1.613278 1_555
O53 S0 1.479035 1_555
O54 S8 1.488391 1_555
O55 S9 1.485541 1_655
O56 Si4 1.633523 1_545
O57 Si5 1.625398 1_545
O57 Ti4 1.781785 1_555
O58 S10 1.459322 1_555
O58 Ti4 2.073650 1_555
O59 S11 1.480312 1_655
O59 Ti4 1.984103 1_555
O60 Si3 1.630927 1_555
O61 S6 1.489523 1_455
O62 S7 1.477368 1_565
O63 S4 1.472684 1_565
O64 S5 1.485529 1_555
O65 Si2 1.609479 1_455
O66 S0 1.479862 1_565
O66 Ti5 1.964514 1_555
O67 S1 1.478310 1_555
O67 Ti5 1.983108 1_555
O68 Si0 1.610005 1_455
O68 Ti5 1.842370 1_555
O69 Si1 1.626240 1_555
O70 S2 1.479565 1_555
O71 S3 1.485069 1_555
