# generated using pymatgen
data_Sr2MgCoWO6
_symmetry_space_group_name_H-M   'P 1'
_cell_length_a   6.99299660
_cell_length_b   6.64796582
_cell_length_c   5.41616425
_cell_angle_alpha   113.57253756
_cell_angle_beta   122.39329018
_cell_angle_gamma   101.12193076
_symmetry_Int_Tables_number   1
_chemical_formula_structural   Sr2MgCoWO6
_chemical_formula_sum   'Sr2 Mg1 Co1 W1 O6'
_cell_volume   165.72590204
_cell_formula_units_Z   1
loop_
 _symmetry_equiv_pos_site_id
 _symmetry_equiv_pos_as_xyz
  1  'x, y, z'
loop_
 _atom_site_type_symbol
 _atom_site_label
 _atom_site_symmetry_multiplicity
 _atom_site_fract_x
 _atom_site_fract_y
 _atom_site_fract_z
 _atom_site_occupancy
  Sr  Sr0  1  0.17701013  0.76806366  0.50271599  1
  Sr  Sr1  1  0.82298841  0.23191778  0.49727886  1
  Mg  Mg0  1  0.50001322  0.49999300  0.50010525  1
  Co  Co0  1  0.99998296  -0.00000272  -0.00000672  1
  W  W0  1  0.49998529  0.50001045  -0.00010155  1
  O  O0  1  0.60232435  0.79588304  0.96706457  1
  O  O1  1  0.30919523  0.59667560  0.14071195  1
  O  O2  1  0.69080393  0.40332966  0.85928457  1
  O  O3  1  0.39768959  0.20411670  0.03293404  1
  O  O4  1  0.17422224  0.31966237  0.44923161  1
  O  O5  1  0.82578466  0.68035046  0.55078143  1
loop_
_geom_bond_atom_site_label_1
_geom_bond_atom_site_label_2
_geom_bond_distance
_geom_bond_site_symmetry_2
Mg0 O0 2.077717 1_555
Mg0 O3 2.078389 1_555
Mg0 O2 2.127719 1_555
Mg0 O1 2.128667 1_555
Mg0 O4 2.170958 1_555
Mg0 O5 2.171593 1_555
Co0 O5 1.899904 1_544
Co0 O4 1.899958 1_655
Co0 O0 2.724954 1_544
Co0 O3 2.725217 1_655
O0 W0 2.070205 1_556
O0 Sr1 2.428781 1_566
O0 Sr0 2.570312 1_555
O1 W0 1.950318 1_555
O1 Sr0 2.560927 1_555
O1 Sr1 2.636256 1_454
O2 W0 1.949865 1_556
O2 Sr1 2.560963 1_555
O2 Sr0 2.636229 1_656
O3 W0 2.070982 1_555
O3 Sr0 2.428837 1_544
O3 Sr1 2.570304 1_555
O4 W0 2.080572 1_556
O4 Sr1 2.587336 1_455
O4 Sr0 2.872501 1_555
O5 W0 2.081360 1_555
O5 Sr0 2.587331 1_655
O5 Sr1 2.872663 1_555
