# generated using pymatgen
data_Na2TaIn3Si2(SO6)4
_symmetry_space_group_name_H-M   'P 1'
_cell_length_a   8.92431345
_cell_length_b   8.90676003
_cell_length_c   23.30368812
_cell_angle_alpha   90.38054095
_cell_angle_beta   89.44847634
_cell_angle_gamma   120.00074950
_symmetry_Int_Tables_number   1
_chemical_formula_structural   Na2TaIn3Si2(SO6)4
_chemical_formula_sum   'Na6 Ta3 In9 Si6 S12 O72'
_cell_volume   1604.07802510
_cell_formula_units_Z   3
loop_
 _symmetry_equiv_pos_site_id
 _symmetry_equiv_pos_as_xyz
  1  'x, y, z'
loop_
 _atom_site_type_symbol
 _atom_site_label
 _atom_site_symmetry_multiplicity
 _atom_site_fract_x
 _atom_site_fract_y
 _atom_site_fract_z
 _atom_site_occupancy
  Na  Na0  1  0.00250791  0.98512518  0.49580049  1
  Na  Na1  1  0.00190359  0.97066918  0.99564138  1
  Na  Na2  1  0.63545608  0.32454202  0.83315540  1
  Na  Na3  1  0.69482132  0.34097407  0.33051815  1
  Na  Na4  1  0.30852544  0.65360247  0.15554605  1
  Na  Na5  1  0.32600511  0.64695264  0.67127276  1
  Ta  Ta0  1  0.66949072  0.34746528  0.97778603  1
  Ta  Ta1  1  0.31323019  0.65626846  0.31239761  1
  Ta  Ta2  1  0.34432081  0.66739787  0.81961581  1
  In  In0  1  0.99692863  0.99432456  0.34937498  1
  In  In1  1  0.01366816  0.99814095  0.85373186  1
  In  In2  1  0.00990414  0.01153950  0.65451701  1
  In  In3  1  0.99760635  0.99787890  0.14359988  1
  In  In4  1  0.65725737  0.33521996  0.68630387  1
  In  In5  1  0.69050829  0.34169351  0.18413815  1
  In  In6  1  0.67733961  0.34223808  0.47805280  1
  In  In7  1  0.33434865  0.67787089  0.01755176  1
  In  In8  1  0.32062648  0.66831127  0.51665884  1
  Si  Si0  1  0.98992645  0.27579196  0.25052109  1
  Si  Si1  1  0.29426421  0.30095851  0.75009828  1
  Si  Si2  1  0.96660421  0.63224395  0.08329377  1
  Si  Si3  1  0.62958572  0.67457788  0.91997340  1
  Si  Si4  1  0.33901282  0.96599720  0.91898402  1
  Si  Si5  1  0.03501178  0.67214666  0.41784208  1
  S  S0  1  0.30115647  0.99911691  0.25076544  1
  S  S1  1  0.69409911  0.69791997  0.25195956  1
  S  S2  1  0.00501802  0.69965047  0.74872246  1
  S  S3  1  0.70000577  0.99438444  0.75057050  1
  S  S4  1  0.95815899  0.32863641  0.58417842  1
  S  S5  1  0.37374726  0.04011116  0.58160008  1
  S  S6  1  0.66774931  0.63750359  0.58274471  1
  S  S7  1  0.66786715  0.04647802  0.08195183  1
  S  S8  1  0.38197983  0.33337315  0.08321867  1
  S  S9  1  0.03815366  0.37813669  0.91678098  1
  S  S10  1  0.61957418  0.95388982  0.41690167  1
  S  S11  1  0.33532298  0.37905814  0.41617937  1
  O  O0  1  0.22508006  0.02192475  0.30384343  1
  O  O1  1  0.80340645  0.76967026  0.30298586  1
  O  O2  1  0.97285966  0.17789898  0.30995949  1
  O  O3  1  0.20098739  0.18006347  0.80387287  1
  O  O4  1  0.96477841  0.77326844  0.79882506  1
  O  O5  1  0.80474542  0.01683654  0.80063303  1
  O  O6  1  0.76619264  0.95602371  0.69674880  1
  O  O7  1  0.19065361  0.23630426  0.68919603  1
  O  O8  1  0.03107178  0.80036289  0.69503364  1
  O  O9  1  0.76589936  0.80324904  0.20033526  1
  O  O10  1  0.03778213  0.20403760  0.19326412  1
  O  O11  1  0.19089486  0.95206492  0.20034481  1
  O  O12  1  0.87414594  0.35109083  0.63608102  1
  O  O13  1  0.47467814  0.12319317  0.63372958  1
  O  O14  1  0.64260857  0.53200493  0.63437697  1
  O  O15  1  0.88428279  0.53412457  0.14243037  1
  O  O16  1  0.64039763  0.11758081  0.13602609  1
  O  O17  1  0.47724233  0.34383672  0.13537727  1
  O  O18  1  0.47616072  0.31963057  0.02975721  1
  O  O19  1  0.83972950  0.51765077  0.02691259  1
  O  O20  1  0.67319669  0.15124651  0.03121978  1
  O  O21  1  0.45756552  0.14342494  0.52899299  1
  O  O22  1  0.69241189  0.55722988  0.53004044  1
  O  O23  1  0.85959452  0.31199063  0.53142146  1
  O  O24  1  0.54087261  0.68745570  0.97710874  1
  O  O25  1  0.13977288  0.44788514  0.96883209  1
  O  O26  1  0.29746000  0.84968782  0.97420791  1
  O  O27  1  0.54609378  0.85535564  0.47066536  1
  O  O28  1  0.31937649  0.45810539  0.47025123  1
  O  O29  1  0.14214385  0.69983827  0.47577409  1
  O  O30  1  0.14843938  0.65491572  0.36163777  1
  O  O31  1  0.51526222  0.85792866  0.36614257  1
  O  O32  1  0.35328762  0.49049197  0.36518948  1
  O  O33  1  0.12792354  0.49219196  0.86501452  1
  O  O34  1  0.35865071  0.86072060  0.86075635  1
  O  O35  1  0.49873945  0.63541520  0.86282110  1
  O  O36  1  0.01713622  0.84314479  0.41056591  1
  O  O37  1  0.79687742  0.98291509  0.41278737  1
  O  O38  1  0.17981154  0.20755679  0.41175616  1
  O  O39  1  0.00398472  0.20283874  0.90738566  1
  O  O40  1  0.18449019  0.00708887  0.91317099  1
  O  O41  1  0.81445364  0.83839208  0.90772768  1
  O  O42  1  0.97045642  0.16842271  0.58683753  1
  O  O43  1  0.19715798  0.01770366  0.58480278  1
  O  O44  1  0.82592221  0.81220039  0.58853659  1
  O  O45  1  0.97311151  0.82004626  0.08302812  1
  O  O46  1  0.83402196  0.04780024  0.08183608  1
  O  O47  1  0.21191152  0.17419392  0.08162359  1
  O  O48  1  0.68051905  0.14815390  0.74382318  1
  O  O49  1  0.49109578  0.33080888  0.74720035  1
  O  O50  1  0.85870524  0.52019472  0.74204790  1
  O  O51  1  0.65429054  0.51679337  0.24609416  1
  O  O52  1  0.83123271  0.31475331  0.24985943  1
  O  O53  1  0.47368124  0.15002349  0.24360548  1
  O  O54  1  0.64403335  0.49460676  0.92520144  1
  O  O55  1  0.86937385  0.37538509  0.92111471  1
  O  O56  1  0.52615254  0.15211531  0.92634869  1
  O  O57  1  0.62114302  0.12201576  0.41873343  1
  O  O58  1  0.49374533  0.36507850  0.41673946  1
  O  O59  1  0.85086537  0.48994803  0.41558691  1
  O  O60  1  0.36686333  0.48925764  0.07953716  1
  O  O61  1  0.15230964  0.64181575  0.07917397  1
  O  O62  1  0.52110738  0.86776949  0.07994607  1
  O  O63  1  0.36211213  0.86739480  0.57968581  1
  O  O64  1  0.51042100  0.65472932  0.57774331  1
  O  O65  1  0.13515495  0.48432493  0.58180366  1
  O  O66  1  0.32742483  0.84187034  0.26079301  1
  O  O67  1  0.52359507  0.69136396  0.26385218  1
  O  O68  1  0.17151422  0.47948078  0.26270275  1
  O  O69  1  0.31283829  0.49669436  0.76143053  1
  O  O70  1  0.16598760  0.69105693  0.75705614  1
  O  O71  1  0.52042291  0.83717005  0.75810325  1
loop_
_geom_bond_atom_site_label_1
_geom_bond_atom_site_label_2
_geom_bond_distance
_geom_bond_site_symmetry_2
Na0 O36 2.385008 1_555
Na0 O43 2.638350 1_565
Na0 O44 2.660339 1_455
Na0 O38 2.668625 1_565
Na0 O37 2.672465 1_455
Na0 O42 2.767168 1_465
Na1 O45 2.386287 1_456
Na1 O40 2.423497 1_565
Na1 O41 2.539041 1_455
Na1 O47 2.727632 1_566
Na1 O46 2.775672 1_466
Na1 O39 2.919549 1_565
Na2 O49 2.407954 1_555
Na2 O56 2.555775 1_555
Na2 O54 2.597188 1_555
Na2 O48 2.745167 1_555
Na2 O55 2.808776 1_555
Na2 O50 2.830131 1_555
Na3 O52 2.303053 1_555
Na3 O59 2.408369 1_555
Na3 O51 2.659853 1_555
Na3 O57 2.684514 1_555
Na3 O53 2.750306 1_555
Na3 O58 2.759258 1_555
Na4 O61 2.240765 1_555
Na4 O60 2.502212 1_555
Na4 O62 2.589013 1_555
Na4 O68 2.869200 1_555
Na4 O66 2.919975 1_555
Na5 O69 2.468697 1_555
Na5 O70 2.585634 1_555
Na5 O65 2.628156 1_555
Na5 O71 2.656621 1_555
Na5 O64 2.698690 1_555
Na5 O63 2.814943 1_555
In0 O2 1.984488 1_565
In0 O36 2.037729 1_655
In0 O1 2.169452 1_555
In0 O0 2.189356 1_665
In0 O37 2.269623 1_555
In0 O38 2.300709 1_665
In1 O3 2.012191 1_565
In1 O40 2.041247 1_565
In1 O41 2.054171 1_455
In1 O4 2.223044 1_455
In1 O39 2.240543 1_565
In1 O5 2.322250 1_465
In2 O7 2.009250 1_555
In2 O6 2.198475 1_445
In2 O8 2.201659 1_545
In2 O42 2.257396 1_455
In2 O43 2.300461 1_555
In2 O44 2.304223 1_445
In3 O10 2.039871 1_665
In3 O45 2.044264 1_555
In3 O46 2.258027 1_565
In3 O47 2.276685 1_665
In3 O9 2.328556 1_555
In3 O11 2.376058 1_655
In4 O49 2.028871 1_555
In4 O13 2.157051 1_555
In4 O50 2.165282 1_555
In4 O14 2.194032 1_555
In4 O12 2.195726 1_555
In4 O48 2.235348 1_555
In5 O15 1.974471 1_555
In5 O52 2.079347 1_555
In5 O16 2.128092 1_555
In5 O17 2.234320 1_555
In5 O51 2.255328 1_555
In5 O53 2.292493 1_555
In6 O59 2.047598 1_555
In6 O23 2.178631 1_555
In6 O22 2.206206 1_555
In6 O21 2.213959 1_555
In6 O57 2.236826 1_555
In6 O58 2.269298 1_555
In7 O26 2.000319 1_554
In7 O24 2.025533 1_554
In7 O61 2.060104 1_555
In7 O62 2.224346 1_555
In7 O25 2.224933 1_554
In7 O60 2.349618 1_555
In8 O29 2.000947 1_555
In8 O27 2.145438 1_555
In8 O28 2.151158 1_555
In8 O63 2.181261 1_555
In8 O65 2.236510 1_555
In8 O64 2.272331 1_555
O0 S0 1.466487 1_545
O1 S1 1.470636 1_555
O2 Si0 1.606611 1_555
O3 Si1 1.588790 1_555
O4 S2 1.462657 1_655
O5 S3 1.451113 1_545
O6 S3 1.490176 1_555
O7 Si1 1.637921 1_555
O8 S2 1.491581 1_555
O9 S1 1.461847 1_555
O10 Si0 1.619213 1_455
O11 S0 1.458707 1_555
O12 S4 1.481338 1_555
O13 S5 1.475551 1_555
O14 S6 1.476489 1_555
O15 Si2 1.599090 1_555
O16 S7 1.479119 1_555
O17 S8 1.465609 1_555
O18 S8 1.534359 1_555
O18 Ta0 2.010242 1_554
O19 Si2 1.704470 1_555
O19 Ta0 1.903663 1_554
O20 S7 1.496635 1_555
O20 Ta0 2.166447 1_554
O21 S5 1.489364 1_555
O22 S6 1.486143 1_555
O23 S4 1.481620 1_555
O24 Si3 1.575194 1_555
O25 S9 1.458582 1_555
O26 Si4 1.578355 1_555
O27 S10 1.480961 1_555
O28 S11 1.479423 1_555
O29 Si5 1.606895 1_555
O30 Si5 1.700260 1_555
O30 Ta1 1.851924 1_555
O31 S10 1.486070 1_555
O31 Ta1 2.195597 1_555
O32 S11 1.508511 1_555
O32 Ta1 2.093296 1_555
O33 S9 1.520817 1_555
O33 Ta2 2.062249 1_555
O34 Si4 1.701186 1_555
O34 Ta2 1.913270 1_555
O35 Si3 1.695736 1_555
O35 Ta2 1.848534 1_555
O36 Si5 1.618880 1_555
O37 S10 1.472436 1_555
O38 S11 1.466525 1_555
O39 S9 1.448904 1_555
O40 Si4 1.600919 1_545
O41 Si3 1.587896 1_555
O42 S4 1.486636 1_555
O43 S5 1.487409 1_555
O44 S6 1.495426 1_555
O45 Si2 1.644493 1_555
O46 S7 1.476941 1_555
O47 S8 1.470893 1_555
O48 S3 1.473875 1_545
O49 Si1 1.640660 1_555
O50 S2 1.482377 1_655
O51 S1 1.473885 1_555
O52 Si0 1.618128 1_555
O53 S0 1.460658 1_545
O54 Si3 1.676462 1_555
O54 Ta0 1.896115 1_555
O55 S9 1.496583 1_655
O55 Ta0 2.122117 1_555
O56 Si4 1.673264 1_545
O56 Ta0 1.968907 1_555
O57 S10 1.490836 1_545
O58 S11 1.480187 1_555
O59 Si5 1.634176 1_655
O60 S8 1.463694 1_555
O61 Si2 1.618289 1_455
O62 S7 1.471923 1_565
O63 S5 1.489534 1_565
O64 S6 1.492408 1_555
O65 S4 1.493288 1_455
O66 S0 1.550762 1_555
O66 Ta1 2.002267 1_555
O67 S1 1.516187 1_555
O67 Ta1 2.068567 1_555
O68 Si0 1.749299 1_455
O68 Ta1 1.852708 1_555
O69 Si1 1.685913 1_555
O69 Ta2 1.944715 1_555
O70 S2 1.490891 1_555
O70 Ta2 2.255393 1_555
O71 S3 1.521092 1_555
O71 Ta2 2.102421 1_555
