# generated using pymatgen
data_Na10Nb6Ga2Si11SO48
_symmetry_space_group_name_H-M   'P 1'
_cell_length_a   17.94778830
_cell_length_b   9.02107316
_cell_length_c   22.55998091
_cell_angle_alpha   90.10505019
_cell_angle_beta   89.78571787
_cell_angle_gamma   120.13265209
_symmetry_Int_Tables_number   1
_chemical_formula_structural   Na10Nb6Ga2Si11SO48
_chemical_formula_sum   'Na30 Nb18 Ga6 Si33 S3 O144'
_cell_volume   3159.02741043
_cell_formula_units_Z   3
loop_
 _symmetry_equiv_pos_site_id
 _symmetry_equiv_pos_as_xyz
  1  'x, y, z'
loop_
 _atom_site_type_symbol
 _atom_site_label
 _atom_site_symmetry_multiplicity
 _atom_site_fract_x
 _atom_site_fract_y
 _atom_site_fract_z
 _atom_site_occupancy
  Na  Na0  1  0.31592319  0.99233775  0.25188565  1
  Na  Na1  1  0.81699360  0.99303289  0.25210341  1
  Na  Na2  1  0.81968893  0.64062709  0.74819330  1
  Na  Na3  1  0.18240420  0.98887979  0.75047659  1
  Na  Na4  1  0.68189789  0.00161869  0.74907191  1
  Na  Na5  1  0.01753643  0.70724632  0.58523396  1
  Na  Na6  1  0.83620445  0.96421783  0.58510149  1
  Na  Na7  1  0.64766449  0.96983783  0.08571769  1
  Na  Na8  1  0.33541402  0.70605983  0.08617786  1
  Na  Na9  1  0.83724727  0.70721908  0.08747336  1
  Na  Na10  1  0.01793828  0.32688069  0.08653301  1
  Na  Na11  1  0.51476064  0.32400808  0.08705587  1
  Na  Na12  1  0.98689554  0.66378997  0.91456865  1
  Na  Na13  1  0.34743779  0.02958277  0.91497586  1
  Na  Na14  1  0.48505813  0.30954052  0.41559980  1
  Na  Na15  1  0.98650680  0.31053049  0.41532377  1
  Na  Na16  1  0.34616645  0.66265304  0.41596976  1
  Na  Na17  1  0.84670731  0.66401617  0.41565644  1
  Na  Na18  1  0.00864512  0.00896094  0.50512136  1
  Na  Na19  1  0.50436725  0.99996746  0.50356864  1
  Na  Na20  1  0.00610170  0.00911432  0.00450287  1
  Na  Na21  1  0.50171696  0.99847804  0.00076483  1
  Na  Na22  1  0.33629291  0.34731298  0.83365834  1
  Na  Na23  1  0.83565508  0.32782234  0.83374852  1
  Na  Na24  1  0.33161805  0.33682453  0.33344435  1
  Na  Na25  1  0.83193695  0.33709550  0.33340252  1
  Na  Na26  1  0.16329663  0.65947384  0.17269797  1
  Na  Na27  1  0.66381561  0.65261733  0.17498850  1
  Na  Na28  1  0.17029855  0.66412845  0.67087347  1
  Na  Na29  1  0.65977466  0.65375132  0.66425390  1
  Nb  Nb0  1  0.99577639  0.99600404  0.35470610  1
  Nb  Nb1  1  0.49509566  0.99587318  0.35444169  1
  Nb  Nb2  1  0.99509184  0.99904841  0.85627414  1
  Nb  Nb3  1  0.49903779  0.99504920  0.85455473  1
  Nb  Nb4  1  0.49685406  0.99929912  0.64519498  1
  Nb  Nb5  1  0.33836190  0.33472427  0.68567380  1
  Nb  Nb6  1  0.83759515  0.33834741  0.68744110  1
  Nb  Nb7  1  0.33810417  0.34371269  0.18768575  1
  Nb  Nb8  1  0.84024203  0.34865215  0.18799065  1
  Nb  Nb9  1  0.33074097  0.33917751  0.97906043  1
  Nb  Nb10  1  0.83259546  0.32768012  0.97873749  1
  Nb  Nb11  1  0.33010155  0.32829715  0.48045001  1
  Nb  Nb12  1  0.83196988  0.32831505  0.48003097  1
  Nb  Nb13  1  0.16681848  0.66892139  0.02001837  1
  Nb  Nb14  1  0.66661153  0.66668042  0.01958881  1
  Nb  Nb15  1  0.16919912  0.66846384  0.52188578  1
  Nb  Nb16  1  0.66253510  0.66212939  0.52059307  1
  Nb  Nb17  1  0.66335207  0.66363547  0.81199989  1
  Ga  Ga0  1  0.99795007  0.98959832  0.64503481  1
  Ga  Ga1  1  0.99747231  0.00403723  0.14668917  1
  Ga  Ga2  1  0.49253882  0.00550787  0.14721817  1
  Ga  Ga3  1  0.16530072  0.64647258  0.31610064  1
  Ga  Ga4  1  0.66575939  0.64690563  0.31620553  1
  Ga  Ga5  1  0.16780607  0.67578429  0.81660829  1
  Si  Si0  1  0.35150497  0.70905525  0.24793797  1
  Si  Si1  1  0.85230435  0.71190199  0.24777746  1
  Si  Si2  1  0.00601698  0.29699616  0.24786418  1
  Si  Si3  1  0.50554855  0.29847837  0.24812787  1
  Si  Si4  1  0.64276376  0.28888083  0.74954329  1
  Si  Si5  1  0.00474898  0.71333987  0.74906491  1
  Si  Si6  1  0.49640345  0.70798183  0.74914471  1
  Si  Si7  1  0.35074790  0.99208587  0.75172664  1
  Si  Si8  1  0.85829078  0.00376873  0.74676483  1
  Si  Si9  1  0.47915060  0.33142747  0.58159274  1
  Si  Si10  1  0.98178002  0.32832616  0.58361684  1
  Si  Si11  1  0.18524157  0.04314132  0.58586019  1
  Si  Si12  1  0.68633508  0.04257984  0.58469967  1
  Si  Si13  1  0.33317580  0.62116351  0.58377304  1
  Si  Si14  1  0.83217972  0.62346743  0.58355657  1
  Si  Si15  1  0.47954742  0.63112032  0.08379672  1
  Si  Si16  1  0.98125369  0.63476898  0.08244554  1
  Si  Si17  1  0.33215434  0.04450858  0.08364442  1
  Si  Si18  1  0.83386828  0.04379288  0.08554623  1
  Si  Si19  1  0.18449042  0.32365789  0.08550567  1
  Si  Si20  1  0.68652672  0.32856750  0.08492518  1
  Si  Si21  1  0.30734151  0.66241097  0.91305700  1
  Si  Si22  1  0.80985181  0.66271875  0.91589740  1
  Si  Si23  1  0.02647133  0.38300866  0.91409460  1
  Si  Si24  1  0.52046550  0.37389530  0.91708826  1
  Si  Si25  1  0.16719348  0.95801291  0.91443831  1
  Si  Si26  1  0.66602268  0.95697646  0.91617464  1
  Si  Si27  1  0.30473643  0.95251410  0.41242266  1
  Si  Si28  1  0.80445439  0.95029564  0.41342969  1
  Si  Si29  1  0.16687523  0.37770147  0.41554364  1
  Si  Si30  1  0.66709702  0.37658657  0.41523744  1
  Si  Si31  1  0.02691272  0.67078393  0.41487196  1
  Si  Si32  1  0.52535302  0.66983564  0.41330359  1
  S  S0  1  0.14246830  -0.00132933  0.24858048  1
  S  S1  1  0.64356069  0.99866287  0.24841039  1
  S  S2  1  0.14280093  0.29087343  0.74934228  1
  O  O0  1  0.10251855  0.02545566  0.30289455  1
  O  O1  1  0.60195955  0.02464759  0.30186674  1
  O  O2  1  0.41467924  0.80106304  0.30745148  1
  O  O3  1  0.91470234  0.80094466  0.30757647  1
  O  O4  1  0.48652113  0.16690336  0.30642172  1
  O  O5  1  0.98601183  0.16665648  0.30665445  1
  O  O6  1  0.10251119  0.17730353  0.80301453  1
  O  O7  1  0.59891110  0.16379585  0.80703736  1
  O  O8  1  0.48537530  0.80257745  0.80791374  1
  O  O9  1  0.98507658  0.80489907  0.80744724  1
  O  O10  1  0.41435114  0.02955884  0.80949414  1
  O  O11  1  0.91721235  0.02966982  0.80615361  1
  O  O12  1  0.40280539  0.97397659  0.69418788  1
  O  O13  1  0.89798055  0.96117349  0.68951748  1
  O  O14  1  0.09068660  0.20846710  0.69569492  1
  O  O15  1  0.58349926  0.19695244  0.69201711  1
  O  O16  1  0.01899359  0.83191885  0.69096824  1
  O  O17  1  0.51797124  0.83671004  0.69309959  1
  O  O18  1  0.39793614  0.82770322  0.19004594  1
  O  O19  1  0.89828641  0.83002670  0.19004686  1
  O  O20  1  0.01447263  0.20436579  0.18900112  1
  O  O21  1  0.51606896  0.20790781  0.18886709  1
  O  O22  1  0.09111247  0.97597623  0.19552232  1
  O  O23  1  0.59355836  0.97739202  0.19398347  1
  O  O24  1  0.43262891  0.36254117  0.63982845  1
  O  O25  1  0.93174591  0.36531140  0.63938893  1
  O  O26  1  0.24743396  0.13441050  0.64357962  1
  O  O27  1  0.74913603  0.13215883  0.64274797  1
  O  O28  1  0.31947476  0.49685642  0.64070638  1
  O  O29  1  0.81820190  0.50275551  0.64220138  1
  O  O30  1  0.43494000  0.49847152  0.14052844  1
  O  O31  1  0.93346786  0.49813279  0.13927264  1
  O  O32  1  0.31824985  0.13508467  0.14274788  1
  O  O33  1  0.81296068  0.12992361  0.14276827  1
  O  O34  1  0.25298017  0.36596833  0.14048889  1
  O  O35  1  0.75298180  0.36818705  0.14057968  1
  O  O36  1  0.23487825  0.30421810  0.02717890  1
  O  O37  1  0.73489804  0.30097114  0.02712914  1
  O  O38  1  0.41627061  0.53417251  0.02769910  1
  O  O39  1  0.91792543  0.53716608  0.02527612  1
  O  O40  1  0.34956186  0.16795701  0.02563806  1
  O  O41  1  0.84802878  0.16945553  0.02831062  1
  O  O42  1  0.23638655  0.16649595  0.52808845  1
  O  O43  1  0.73656474  0.16564433  0.52714488  1
  O  O44  1  0.34725729  0.53250367  0.52413380  1
  O  O45  1  0.84832954  0.53023397  0.52582873  1
  O  O46  1  0.42059442  0.30625044  0.52316755  1
  O  O47  1  0.91915919  0.30005626  0.52559711  1
  O  O48  1  0.26695245  0.69981968  0.97461951  1
  O  O49  1  0.76668695  0.69531377  0.97521767  1
  O  O50  1  0.08157105  0.46557381  0.97609078  1
  O  O51  1  0.58119064  0.46809950  0.97569754  1
  O  O52  1  0.14854531  0.82888828  0.97226115  1
  O  O53  1  0.65318452  0.83733782  0.97522239  1
  O  O54  1  0.26544506  0.82884038  0.47131557  1
  O  O55  1  0.76740461  0.83220057  0.47375345  1
  O  O56  1  0.14769951  0.46590900  0.47369827  1
  O  O57  1  0.64802888  0.46556262  0.47348165  1
  O  O58  1  0.08174236  0.69761804  0.47632862  1
  O  O59  1  0.58363006  0.69800995  0.47373550  1
  O  O60  1  0.06699921  0.62501605  0.35907373  1
  O  O61  1  0.56704358  0.62525349  0.35837031  1
  O  O62  1  0.25150078  0.87030268  0.35296651  1
  O  O63  1  0.75117568  0.86911470  0.35393544  1
  O  O64  1  0.19228968  0.50240141  0.35947252  1
  O  O65  1  0.69242236  0.50206868  0.35950612  1
  O  O66  1  0.06589376  0.50937389  0.85881387  1
  O  O67  1  0.57002262  0.50048117  0.86044113  1
  O  O68  1  0.18898058  0.88341299  0.85652598  1
  O  O69  1  0.68082609  0.86629945  0.85769460  1
  O  O70  1  0.24841799  0.63242983  0.85700679  1
  O  O71  1  0.75239978  0.63954516  0.85730988  1
  O  O72  1  0.01013965  0.83487485  0.40909882  1
  O  O73  1  0.51060945  0.83624882  0.40891164  1
  O  O74  1  0.40420003  0.97389346  0.40928602  1
  O  O75  1  0.90422835  0.97381740  0.40935341  1
  O  O76  1  0.07997536  0.18811609  0.40872326  1
  O  O77  1  0.57976135  0.18802659  0.40872551  1
  O  O78  1  0.01405210  0.18982492  0.90842247  1
  O  O79  1  0.50977606  0.18456521  0.91141406  1
  O  O80  1  0.07976380  0.97198742  0.90904406  1
  O  O81  1  0.58053985  0.97410838  0.91129048  1
  O  O82  1  0.40327319  0.83958830  0.91051973  1
  O  O83  1  0.90665286  0.83399944  0.91092115  1
  O  O84  1  0.48713286  0.16159029  0.58873580  1
  O  O85  1  0.98455452  0.15415683  0.59108901  1
  O  O86  1  0.08994437  0.01855586  0.58988194  1
  O  O87  1  0.59260260  0.02432011  0.58915760  1
  O  O88  1  0.41816512  0.81023896  0.59037833  1
  O  O89  1  0.91898814  0.81028253  0.58710499  1
  O  O90  1  0.49067485  0.81902969  0.09119874  1
  O  O91  1  0.98513179  0.81462936  0.09107290  1
  O  O92  1  0.41805341  0.02486101  0.08700273  1
  O  O93  1  0.91804503  0.02375080  0.08710608  1
  O  O94  1  0.08931830  0.16060104  0.09020447  1
  O  O95  1  0.59249489  0.15811830  0.09004208  1
  O  O96  1  0.34078043  0.16588754  0.74409581  1
  O  O97  1  0.84199342  0.16729926  0.74445965  1
  O  O98  1  0.22925693  0.29901942  0.74551704  1
  O  O99  1  0.73900935  0.30843689  0.74434344  1
  O  O100  1  0.41197833  0.51728988  0.74469770  1
  O  O101  1  0.91272608  0.52585744  0.74441915  1
  O  O102  1  0.34437594  0.51852702  0.24383717  1
  O  O103  1  0.84440162  0.51957636  0.24378058  1
  O  O104  1  0.41096706  0.29620271  0.24453459  1
  O  O105  1  0.91109958  0.29648098  0.24356336  1
  O  O106  1  0.23133233  0.15702945  0.24530510  1
  O  O107  1  0.73210481  0.15749163  0.24561057  1
  O  O108  1  0.32193285  0.49848690  0.92369869  1
  O  O109  1  0.82527230  0.50042662  0.92209420  1
  O  O110  1  0.42523979  0.35181718  0.92259346  1
  O  O111  1  0.92989810  0.36266816  0.92496477  1
  O  O112  1  0.25322830  0.14518301  0.92489790  1
  O  O113  1  0.75253926  0.14509467  0.92324099  1
  O  O114  1  0.32638881  0.15065257  0.42202219  1
  O  O115  1  0.82640496  0.14972134  0.42234389  1
  O  O116  1  0.25278332  0.35907373  0.42449712  1
  O  O117  1  0.75331293  0.35975892  0.42507353  1
  O  O118  1  0.42776153  0.50113012  0.42320807  1
  O  O119  1  0.92820093  0.50063985  0.42402239  1
  O  O120  1  0.18066192  0.50233139  0.07724302  1
  O  O121  1  0.67971975  0.50341336  0.07740741  1
  O  O122  1  0.07149462  0.63280867  0.07785987  1
  O  O123  1  0.57325993  0.64102030  0.07784603  1
  O  O124  1  0.24852938  0.85065258  0.07727813  1
  O  O125  1  0.74654357  0.85405597  0.07740349  1
  O  O126  1  0.17754300  0.85479075  0.57687449  1
  O  O127  1  0.68414406  0.85960573  0.57716195  1
  O  O128  1  0.24770999  0.63989223  0.57674495  1
  O  O129  1  0.74826964  0.64715318  0.57774869  1
  O  O130  1  0.07167072  0.50958205  0.57822965  1
  O  O131  1  0.57297677  0.50556715  0.57791595  1
  O  O132  1  0.15540137  0.84960111  0.25444099  1
  O  O133  1  0.65575346  0.84985705  0.25414923  1
  O  O134  1  0.25982834  0.70208171  0.25550639  1
  O  O135  1  0.75999097  0.70236191  0.25538874  1
  O  O136  1  0.08624440  0.48834074  0.25588861  1
  O  O137  1  0.58659625  0.48854007  0.25592299  1
  O  O138  1  0.15373256  0.46038247  0.75607967  1
  O  O139  1  0.65815160  0.48367120  0.75560075  1
  O  O140  1  0.08851945  0.69333208  0.75653041  1
  O  O141  1  0.58521102  0.69626082  0.75638157  1
  O  O142  1  0.25575721  0.82572072  0.75513735  1
  O  O143  1  0.76138040  0.83232626  0.75650296  1
loop_
_geom_bond_atom_site_label_1
_geom_bond_atom_site_label_2
_geom_bond_distance
_geom_bond_site_symmetry_2
Na0 O134 2.286884 1_555
Na0 O104 2.399225 1_565
Na0 O132 2.497204 1_555
Na0 O62 2.541747 1_555
Na0 O106 2.607962 1_565
Na0 O32 2.771105 1_565
Na0 O18 2.913868 1_555
Na0 O4 2.923801 1_565
Na1 O135 2.287935 1_555
Na1 O105 2.395997 1_565
Na1 O133 2.508289 1_555
Na1 O63 2.566339 1_555
Na1 O107 2.610678 1_565
Na1 O33 2.777873 1_565
Na1 O19 2.895227 1_555
Na1 O5 2.901797 1_565
Na2 O101 2.366819 1_555
Na2 O143 2.436242 1_555
Na2 O139 2.512775 1_555
Na2 O99 2.593817 1_555
Na2 O29 2.687302 1_555
Na2 O71 2.735770 1_555
Na2 O13 2.830030 1_555
Na2 O9 2.898281 1_555
Na3 O140 2.335685 1_555
Na3 O142 2.420292 1_555
Na3 O96 2.467995 1_565
Na3 O98 2.487091 1_565
Na3 O68 2.601205 1_555
Na3 O26 2.711771 1_565
Na3 O16 2.874362 1_555
Na3 O6 2.962628 1_565
Na4 O141 2.413879 1_545
Na4 O99 2.423786 1_555
Na4 O97 2.487460 1_555
Na4 O143 2.566224 1_545
Na4 O27 2.675551 1_555
Na4 O69 2.735444 1_545
Na4 O17 2.844326 1_545
Na4 O7 2.869683 1_555
Na5 O89 2.375719 1_455
Na5 O130 2.426068 1_555
Na5 O86 2.433590 1_565
Na5 O126 2.492667 1_555
Na5 O16 2.629952 1_555
Na5 O58 2.729536 1_555
Na5 O25 2.934198 1_455
Na5 O45 2.953374 1_455
Na6 O85 2.337684 1_565
Na6 O127 2.405848 1_555
Na6 O129 2.483427 1_555
Na6 O89 2.492033 1_555
Na6 O13 2.613307 1_555
Na6 O55 2.790883 1_555
Na6 O47 2.944250 1_565
Na6 O27 2.963627 1_565
Na7 O95 2.358398 1_565
Na7 O90 2.440185 1_555
Na7 O125 2.476559 1_555
Na7 O123 2.576136 1_555
Na7 O23 2.638450 1_555
Na7 O53 2.785421 1_554
Na7 O33 2.874652 1_565
Na7 O37 2.902570 1_565
Na8 O90 2.442787 1_555
Na8 O120 2.451615 1_555
Na8 O92 2.487676 1_565
Na8 O124 2.493772 1_555
Na8 O18 2.593872 1_555
Na8 O48 2.792879 1_554
Na8 O38 2.913467 1_555
Na8 O34 2.923299 1_555
Na9 O91 2.325825 1_555
Na9 O93 2.469655 1_565
Na9 O121 2.491918 1_555
Na9 O19 2.563861 1_555
Na9 O125 2.573968 1_555
Na9 O49 2.813402 1_554
Na9 O35 2.903882 1_555
Na9 O39 2.937011 1_555
Na10 O93 2.402072 1_455
Na10 O94 2.414295 1_555
Na10 O122 2.432260 1_555
Na10 O120 2.536565 1_555
Na10 O20 2.551176 1_555
Na10 O50 2.762820 1_554
Na10 O31 2.903789 1_455
Na10 O41 2.952383 1_455
Na11 O92 2.364838 1_555
Na11 O95 2.507554 1_555
Na11 O123 2.511943 1_555
Na11 O21 2.531199 1_555
Na11 O121 2.572511 1_555
Na11 O51 2.802870 1_554
Na11 O30 2.868528 1_555
Na11 O40 2.919844 1_555
Na12 O111 2.385601 1_555
Na12 O80 2.422941 1_655
Na12 O109 2.514033 1_555
Na12 O83 2.580722 1_555
Na12 O66 2.737893 1_655
Na12 O9 2.741406 1_555
Na12 O39 2.764524 1_556
Na12 O52 2.830600 1_655
Na13 O82 2.382243 1_545
Na13 O112 2.400679 1_555
Na13 O110 2.520722 1_555
Na13 O79 2.521724 1_555
Na13 O10 2.661572 1_555
Na13 O40 2.780984 1_556
Na13 O68 2.796816 1_545
Na13 O48 2.903866 1_545
Na14 O118 2.419955 1_555
Na14 O77 2.445971 1_555
Na14 O114 2.466722 1_555
Na14 O74 2.623490 1_545
Na14 O46 2.678297 1_555
Na14 O61 2.781238 1_555
Na14 O4 2.782957 1_555
Na14 O57 2.851327 1_555
Na15 O119 2.423608 1_555
Na15 O76 2.431738 1_655
Na15 O115 2.489709 1_555
Na15 O75 2.630929 1_545
Na15 O47 2.742746 1_555
Na15 O60 2.762340 1_655
Na15 O5 2.769796 1_555
Na15 O56 2.831802 1_655
Na16 O116 2.395246 1_555
Na16 O74 2.460717 1_555
Na16 O118 2.537623 1_555
Na16 O73 2.558400 1_555
Na16 O64 2.711596 1_555
Na16 O44 2.714273 1_555
Na16 O2 2.740764 1_555
Na16 O54 2.840034 1_555
Na17 O117 2.401801 1_555
Na17 O75 2.449523 1_555
Na17 O72 2.541634 1_655
Na17 O119 2.552347 1_555
Na17 O65 2.713772 1_555
Na17 O3 2.726835 1_555
Na17 O45 2.771608 1_555
Na17 O55 2.862240 1_555
Na18 O86 2.384647 1_555
Na18 O85 2.493387 1_455
Na18 O89 2.513318 1_445
Na18 O76 2.625868 1_555
Na18 O72 2.681251 1_545
Na18 O75 2.776993 1_445
Na19 O87 2.440590 1_565
Na19 O84 2.520162 1_565
Na19 O88 2.547447 1_555
Na19 O73 2.628079 1_555
Na19 O77 2.640853 1_565
Na19 O74 2.722818 1_555
Na20 O94 2.408120 1_555
Na20 O93 2.484850 1_455
Na20 O91 2.525505 1_445
Na20 O80 2.630294 1_544
Na20 O78 2.674582 1_554
Na20 O83 2.706206 1_444
Na21 O81 2.532482 1_554
Na21 O92 2.536081 1_565
Na21 O95 2.538345 1_565
Na21 O90 2.551311 1_555
Na21 O79 2.582377 1_564
Na21 O82 2.606683 1_554
Na22 O100 2.474658 1_555
Na22 O108 2.528097 1_555
Na22 O110 2.556211 1_555
Na22 O96 2.624244 1_555
Na22 O98 2.649411 1_555
Na22 O112 2.654395 1_555
Na23 O97 2.514064 1_555
Na23 O113 2.557246 1_555
Na23 O101 2.584090 1_555
Na23 O111 2.585411 1_555
Na23 O109 2.590121 1_555
Na23 O99 2.613017 1_555
Na24 O102 2.541203 1_555
Na24 O116 2.554145 1_555
Na24 O114 2.583668 1_555
Na24 O104 2.585655 1_555
Na24 O118 2.592808 1_555
Na24 O106 2.628322 1_555
Na25 O103 2.546952 1_555
Na25 O117 2.564446 1_555
Na25 O115 2.595299 1_555
Na25 O105 2.599822 1_555
Na25 O119 2.607169 1_555
Na25 O107 2.618844 1_555
Na26 O136 2.380293 1_555
Na26 O134 2.447935 1_555
Na26 O132 2.567697 1_555
Na26 O122 2.641364 1_555
Na26 O120 2.677962 1_555
Na26 O124 2.699746 1_555
Na27 O137 2.318804 1_555
Na27 O135 2.390317 1_555
Na27 O133 2.573153 1_555
Na27 O121 2.666383 1_555
Na27 O123 2.703768 1_555
Na27 O125 2.763099 1_555
Na28 O142 2.420353 1_555
Na28 O140 2.514576 1_555
Na28 O138 2.573272 1_555
Na28 O128 2.601684 1_555
Na28 O130 2.642846 1_555
Na28 O126 2.694257 1_555
Na29 O131 2.435159 1_555
Na29 O129 2.531024 1_555
Na29 O139 2.562819 1_555
Na29 O127 2.586839 1_555
Na29 O141 2.597930 1_555
Na29 O143 2.705250 1_555
Nb0 O3 1.943745 1_555
Nb0 O5 1.963223 1_565
Nb0 O75 1.978702 1_555
Nb0 O72 2.017468 1_655
Nb0 O76 2.036856 1_665
Nb0 O0 2.140194 1_665
Nb1 O2 1.937359 1_555
Nb1 O4 1.955382 1_565
Nb1 O74 1.972971 1_555
Nb1 O73 2.018101 1_555
Nb1 O77 2.043311 1_565
Nb1 O1 2.153383 1_565
Nb2 O11 1.925930 1_565
Nb2 O78 1.967058 1_665
Nb2 O83 1.968634 1_555
Nb2 O9 1.997883 1_555
Nb2 O80 2.042874 1_655
Nb2 O6 2.150251 1_665
Nb3 O8 1.936441 1_555
Nb3 O10 1.982001 1_565
Nb3 O7 1.982814 1_565
Nb3 O82 2.021185 1_555
Nb3 O81 2.026336 1_555
Nb3 O79 2.066019 1_565
Nb4 O12 1.929478 1_555
Nb4 O15 1.983636 1_565
Nb4 O88 2.004918 1_555
Nb4 O17 2.007464 1_555
Nb4 O84 2.015236 1_565
Nb4 O87 2.048820 1_565
Nb5 O24 1.885938 1_555
Nb5 O28 1.946551 1_555
Nb5 O26 1.968497 1_555
Nb5 O100 2.012856 1_555
Nb5 O96 2.032971 1_555
Nb5 O98 2.260420 1_555
Nb6 O25 1.914248 1_555
Nb6 O29 1.972053 1_555
Nb6 O27 2.009271 1_555
Nb6 O101 2.011671 1_555
Nb6 O97 2.042595 1_555
Nb6 O99 2.087208 1_555
Nb7 O30 1.912326 1_555
Nb7 O34 1.956801 1_555
Nb7 O102 1.979867 1_555
Nb7 O32 2.004804 1_555
Nb7 O104 2.028782 1_555
Nb7 O106 2.224265 1_555
Nb8 O31 1.884760 1_555
Nb8 O103 1.960925 1_555
Nb8 O35 1.979433 1_555
Nb8 O105 2.006401 1_555
Nb8 O33 2.049467 1_555
Nb8 O107 2.249310 1_555
Nb9 O36 1.918487 1_556
Nb9 O108 1.971403 1_555
Nb9 O38 1.987259 1_556
Nb9 O112 2.012851 1_555
Nb9 O40 2.033834 1_556
Nb9 O110 2.074267 1_555
Nb10 O41 1.941634 1_556
Nb10 O37 1.971538 1_556
Nb10 O113 1.993681 1_555
Nb10 O111 2.013257 1_555
Nb10 O39 2.029293 1_556
Nb10 O109 2.071935 1_555
Nb11 O42 1.908379 1_555
Nb11 O44 1.971221 1_555
Nb11 O46 1.985664 1_555
Nb11 O116 1.999342 1_555
Nb11 O114 2.048354 1_555
Nb11 O118 2.101781 1_555
Nb12 O43 1.919499 1_555
Nb12 O45 1.982436 1_555
Nb12 O47 1.995995 1_555
Nb12 O117 2.006749 1_555
Nb12 O115 2.032501 1_555
Nb12 O119 2.071568 1_555
Nb13 O52 1.958144 1_554
Nb13 O48 1.959815 1_554
Nb13 O50 1.968462 1_554
Nb13 O124 2.024746 1_555
Nb13 O122 2.039900 1_555
Nb13 O120 2.090753 1_555
Nb14 O51 1.946143 1_554
Nb14 O53 1.951903 1_554
Nb14 O49 1.953594 1_554
Nb14 O123 2.045317 1_555
Nb14 O125 2.046395 1_555
Nb14 O121 2.069608 1_555
Nb15 O54 1.964884 1_555
Nb15 O56 1.989354 1_555
Nb15 O128 1.990616 1_555
Nb15 O58 2.004204 1_555
Nb15 O126 2.031677 1_555
Nb15 O130 2.050645 1_555
Nb16 O59 1.923658 1_555
Nb16 O57 1.968102 1_555
Nb16 O131 1.990640 1_555
Nb16 O55 2.026046 1_555
Nb16 O127 2.062604 1_555
Nb16 O129 2.067080 1_555
Nb17 O67 1.919195 1_555
Nb17 O69 1.980751 1_555
Nb17 O71 2.002031 1_555
Nb17 O141 2.014161 1_555
Nb17 O139 2.025945 1_555
Nb17 O143 2.069098 1_555
Ga0 O16 1.946156 1_655
Ga0 O13 1.953878 1_555
Ga0 O86 1.973649 1_665
Ga0 O89 2.009364 1_555
Ga0 O85 2.027264 1_565
Ga0 O14 2.163647 1_665
Ga1 O20 1.926762 1_655
Ga1 O19 1.943423 1_545
Ga1 O94 1.997325 1_655
Ga1 O93 2.034797 1_555
Ga1 O91 2.038901 1_545
Ga1 O22 2.131739 1_645
Ga2 O21 1.901966 1_555
Ga2 O18 1.910046 1_545
Ga2 O92 1.977837 1_555
Ga2 O95 2.070520 1_555
Ga2 O90 2.089074 1_545
Ga2 O23 2.222982 1_545
Ga3 O64 1.876561 1_555
Ga3 O60 1.932642 1_555
Ga3 O136 1.966857 1_555
Ga3 O62 2.007340 1_555
Ga3 O134 2.032080 1_555
Ga3 O132 2.379592 1_555
Ga4 O65 1.877860 1_555
Ga4 O61 1.929419 1_555
Ga4 O137 1.969411 1_555
Ga4 O63 2.002776 1_555
Ga4 O135 2.031928 1_555
Ga4 O133 2.384446 1_555
Ga5 O70 1.912100 1_555
Ga5 O66 1.934213 1_555
Ga5 O68 1.935294 1_555
Ga5 O142 2.022687 1_555
Ga5 O140 2.031849 1_555
Ga5 O138 2.281310 1_555
O0 S0 1.496728 1_555
O1 S1 1.494910 1_545
O2 Si0 1.685104 1_555
O3 Si1 1.680339 1_555
O4 Si3 1.688305 1_555
O5 Si2 1.687844 1_655
O6 S2 1.514222 1_555
O7 Si4 1.637431 1_555
O8 Si6 1.639720 1_555
O9 Si5 1.681359 1_655
O10 Si7 1.654652 1_545
O11 Si8 1.652084 1_555
O12 Si7 1.651674 1_555
O13 Si8 1.609091 1_565
O14 S2 1.483015 1_555
O15 Si4 1.619915 1_555
O16 Si5 1.629579 1_555
O17 Si6 1.627093 1_555
O18 Si0 1.627044 1_555
O19 Si1 1.620790 1_555
O20 Si2 1.614465 1_555
O21 Si3 1.624675 1_555
O22 S0 1.463616 1_565
O23 S1 1.477955 1_555
O24 Si9 1.651587 1_555
O25 Si10 1.670827 1_555
O26 Si11 1.644279 1_555
O27 Si12 1.652605 1_555
O28 Si13 1.641266 1_555
O29 Si14 1.651565 1_555
O30 Si15 1.657420 1_555
O31 Si16 1.683639 1_555
O32 Si17 1.645006 1_555
O33 Si18 1.642087 1_555
O34 Si19 1.653470 1_555
O35 Si20 1.645699 1_555
O36 Si19 1.652135 1_555
O37 Si20 1.650184 1_555
O38 Si15 1.632718 1_555
O39 Si16 1.653051 1_555
O40 Si17 1.644157 1_555
O41 Si18 1.652454 1_555
O42 Si11 1.658429 1_555
O43 Si12 1.650099 1_555
O44 Si13 1.646294 1_555
O45 Si14 1.650884 1_555
O46 Si9 1.631874 1_555
O47 Si10 1.662375 1_555
O48 Si21 1.674699 1_555
O49 Si22 1.642287 1_555
O50 Si23 1.660090 1_555
O51 Si24 1.653801 1_555
O52 Si25 1.667762 1_555
O53 Si26 1.657029 1_555
O54 Si27 1.647958 1_555
O55 Si28 1.648176 1_555
O56 Si29 1.655487 1_555
O57 Si30 1.660275 1_555
O58 Si31 1.648961 1_555
O59 Si32 1.661262 1_555
O60 Si31 1.600703 1_555
O61 Si32 1.597139 1_555
O62 Si27 1.598934 1_555
O63 Si28 1.598461 1_555
O64 Si29 1.599806 1_555
O65 Si30 1.597855 1_555
O66 Si23 1.595074 1_555
O67 Si24 1.644810 1_555
O68 Si25 1.603091 1_555
O69 Si26 1.640708 1_555
O70 Si21 1.584951 1_555
O71 Si22 1.626863 1_555
O72 Si31 1.657472 1_555
O73 Si32 1.653208 1_555
O74 Si27 1.697764 1_555
O75 Si28 1.696322 1_555
O76 Si29 1.644362 1_555
O77 Si30 1.641902 1_555
O78 Si23 1.646978 1_555
O79 Si24 1.625028 1_555
O80 Si25 1.641063 1_555
O81 Si26 1.621503 1_555
O82 Si21 1.661031 1_555
O83 Si22 1.649981 1_555
O84 Si9 1.617195 1_555
O85 Si10 1.605968 1_555
O86 Si11 1.612717 1_555
O87 Si12 1.608703 1_555
O88 Si13 1.626905 1_555
O89 Si14 1.624255 1_555
O90 Si15 1.612637 1_555
O91 Si16 1.600281 1_555
O92 Si17 1.639896 1_555
O93 Si18 1.609680 1_555
O94 Si19 1.602875 1_555
O95 Si20 1.618530 1_555
O96 Si7 1.674129 1_545
O97 Si8 1.642610 1_555
O98 S2 1.518268 1_555
O99 Si4 1.649660 1_555
O100 Si6 1.627496 1_555
O101 Si5 1.671934 1_655
O102 Si0 1.660664 1_555
O103 Si1 1.670589 1_555
O104 Si3 1.689565 1_555
O105 Si2 1.704356 1_655
O106 S0 1.517216 1_555
O107 S1 1.515213 1_545
O108 Si21 1.644254 1_555
O109 Si22 1.627096 1_555
O110 Si24 1.622599 1_555
O111 Si23 1.666049 1_655
O112 Si25 1.635410 1_545
O113 Si26 1.634513 1_545
O114 Si27 1.641526 1_545
O115 Si28 1.649195 1_545
O116 Si29 1.645892 1_555
O117 Si30 1.644754 1_555
O118 Si32 1.660120 1_555
O119 Si31 1.674961 1_655
O120 Si19 1.658267 1_555
O121 Si20 1.651110 1_555
O122 Si16 1.631471 1_455
O123 Si15 1.643909 1_555
O124 Si17 1.642250 1_565
O125 Si18 1.651498 1_565
O126 Si11 1.646342 1_565
O127 Si12 1.639778 1_565
O128 Si13 1.633621 1_555
O129 Si14 1.629576 1_555
O130 Si10 1.625406 1_455
O131 Si9 1.629076 1_555
O132 S0 1.481229 1_565
O133 S1 1.470524 1_555
O134 Si0 1.623096 1_555
O135 Si1 1.623796 1_555
O136 Si2 1.609662 1_555
O137 Si3 1.607280 1_555
O138 S2 1.448467 1_555
O139 Si4 1.641620 1_555
O140 Si5 1.611180 1_555
O141 Si6 1.658182 1_555
O142 Si7 1.611030 1_555
O143 Si8 1.662243 1_565
