# generated using pymatgen
data_Y2W2O9
_symmetry_space_group_name_H-M   'P 1'
_cell_length_a   9.66437343
_cell_length_b   9.66437343
_cell_length_c   7.11215815
_cell_angle_alpha   90.00000000
_cell_angle_beta   90.00000000
_cell_angle_gamma   105.83259985
_symmetry_Int_Tables_number   1
_chemical_formula_structural   Y2W2O9
_chemical_formula_sum   'Y8 W8 O36'
_cell_volume   639.07567192
_cell_formula_units_Z   4
loop_
 _symmetry_equiv_pos_site_id
 _symmetry_equiv_pos_as_xyz
  1  'x, y, z'
loop_
 _atom_site_type_symbol
 _atom_site_label
 _atom_site_symmetry_multiplicity
 _atom_site_fract_x
 _atom_site_fract_y
 _atom_site_fract_z
 _atom_site_occupancy
  Y  Y0  1  0.12554315  0.41117376  0.49796290  1
  Y  Y1  1  0.41117376  0.12554315  0.50203710  1
  Y  Y2  1  0.77275934  0.22724066  0.25000000  1
  Y  Y3  1  0.77410742  0.22589258  0.75000000  1
  Y  Y4  1  0.22589258  0.77410742  0.25000000  1
  Y  Y5  1  0.22724066  0.77275934  0.75000000  1
  Y  Y6  1  0.58882624  0.87445685  0.00203710  1
  Y  Y7  1  0.87445685  0.58882624  0.99796290  1
  W  W0  1  0.95248459  0.95248459  -0.00000000  1
  W  W1  1  0.14559245  0.39260900  0.99806653  1
  W  W2  1  0.39260900  0.14559245  0.00193347  1
  W  W3  1  0.49942577  0.50057423  0.25000000  1
  W  W4  1  0.50057423  0.49942577  0.75000000  1
  W  W5  1  0.60739100  0.85440755  0.50193347  1
  W  W6  1  0.85440755  0.60739100  0.49806653  1
  W  W7  1  0.04751541  0.04751541  0.50000000  1
  O  O0  1  0.32801869  0.03154105  0.20642247  1
  O  O1  1  0.03154105  0.32801869  0.79357753  1
  O  O2  1  0.20182862  0.20182862  0.50000000  1
  O  O3  1  0.32929289  0.03187492  0.79685705  1
  O  O4  1  0.03187492  0.32929289  0.20314295  1
  O  O5  1  0.22607999  0.22607999  -0.00000000  1
  O  O6  1  0.11002013  0.57590817  0.99780452  1
  O  O7  1  0.57590817  0.11002013  0.00219548  1
  O  O8  1  0.30326546  0.47681320  0.18909026  1
  O  O9  1  0.47681320  0.30326546  0.81090974  1
  O  O10  1  0.30349793  0.47661944  0.80990869  1
  O  O11  1  0.47661944  0.30349793  0.19009131  1
  O  O12  1  0.63281361  0.20805669  0.50122578  1
  O  O13  1  0.20805669  0.63281361  0.49877422  1
  O  O14  1  0.44031678  0.44031678  0.50000000  1
  O  O15  1  0.08964160  0.84930085  0.99725783  1
  O  O16  1  0.84930085  0.08964160  0.00274217  1
  O  O17  1  0.99849096  0.00150904  0.75000000  1
  O  O18  1  0.00150904  0.99849096  0.25000000  1
  O  O19  1  0.15069915  0.91035840  0.50274217  1
  O  O20  1  0.91035840  0.15069915  0.49725783  1
  O  O21  1  0.55968322  0.55968322  -0.00000000  1
  O  O22  1  0.36718639  0.79194331  0.00122578  1
  O  O23  1  0.79194331  0.36718639  0.99877422  1
  O  O24  1  0.52338056  0.69650207  0.69009131  1
  O  O25  1  0.69650207  0.52338056  0.30990869  1
  O  O26  1  0.52318680  0.69673454  0.31090974  1
  O  O27  1  0.69673454  0.52318680  0.68909026  1
  O  O28  1  0.88997987  0.42409183  0.49780452  1
  O  O29  1  0.42409183  0.88997987  0.50219548  1
  O  O30  1  0.77392001  0.77392001  0.50000000  1
  O  O31  1  0.96812508  0.67070711  0.70314295  1
  O  O32  1  0.67070711  0.96812508  0.29685705  1
  O  O33  1  0.79817138  0.79817138  -0.00000000  1
  O  O34  1  0.96845895  0.67198131  0.29357753  1
  O  O35  1  0.67198131  0.96845895  0.70642247  1
loop_
_geom_bond_atom_site_label_1
_geom_bond_atom_site_label_2
_geom_bond_distance
_geom_bond_site_symmetry_2
O0 W2 1.828743 1_555
O0 Y1 2.343739 1_555
O0 Y4 2.433132 1_545
O1 W1 1.828743 1_555
O1 Y0 2.343739 1_555
O1 Y3 2.433132 1_455
O2 W7 1.798500 1_555
O2 Y1 2.334726 1_555
O2 Y0 2.334726 1_555
O3 W2 1.828286 1_556
O3 Y1 2.334820 1_555
O3 Y5 2.450937 1_545
O4 W1 1.828286 1_554
O4 Y0 2.334820 1_555
O4 Y2 2.450937 1_455
O5 W2 1.969396 1_555
O5 W1 1.969396 1_554
O6 W1 1.894362 1_555
O6 Y7 2.313753 1_455
O6 Y5 2.613964 1_555
O6 Y4 2.640041 1_556
O7 W2 1.894362 1_555
O7 Y6 2.313753 1_545
O7 Y2 2.613964 1_555
O7 Y3 2.640041 1_554
O8 W3 1.896518 1_555
O8 W1 2.037982 1_554
O9 W4 1.896518 1_555
O9 W2 2.037982 1_556
O10 W4 1.904897 1_555
O10 W1 2.025530 1_555
O11 W3 1.904897 1_555
O11 W2 2.025530 1_555
O12 Y1 2.071740 1_555
O12 Y3 2.212783 1_555
O12 Y2 2.217944 1_555
O13 Y0 2.071740 1_555
O13 Y4 2.212783 1_555
O13 Y5 2.217944 1_555
O14 W3 1.909283 1_555
O14 W4 1.909283 1_555
O15 W0 1.863629 1_456
O15 Y5 2.438195 1_555
O15 Y4 2.452610 1_556
O16 W0 1.863629 1_545
O16 Y2 2.438195 1_555
O16 Y3 2.452610 1_554
O17 W0 1.862430 1_546
O17 W7 1.862430 1_655
O18 W0 1.862430 1_455
O18 W7 1.862430 1_565
O19 W7 1.863629 1_565
O19 Y5 2.438195 1_555
O19 Y4 2.452610 1_555
O20 W7 1.863629 1_655
O20 Y2 2.438195 1_555
O20 Y3 2.452610 1_555
O21 W3 1.909283 1_555
O21 W4 1.909283 1_554
O22 Y6 2.071740 1_555
O22 Y4 2.212783 1_555
O22 Y5 2.217944 1_554
O23 Y7 2.071740 1_555
O23 Y3 2.212783 1_555
O23 Y2 2.217944 1_556
O24 W4 1.904897 1_555
O24 W5 2.025530 1_555
O25 W3 1.904897 1_555
O25 W6 2.025530 1_555
O26 W3 1.896518 1_555
O26 W5 2.037982 1_555
O27 W4 1.896518 1_555
O27 W6 2.037982 1_555
O28 W6 1.894362 1_555
O28 Y0 2.313753 1_655
O28 Y2 2.613964 1_555
O28 Y3 2.640041 1_555
O29 W5 1.894362 1_555
O29 Y1 2.313753 1_565
O29 Y5 2.613964 1_555
O29 Y4 2.640041 1_555
O30 W6 1.969396 1_555
O30 W5 1.969396 1_555
O31 W6 1.828286 1_555
O31 Y7 2.334820 1_555
O31 Y5 2.450937 1_655
O32 W5 1.828286 1_555
O32 Y6 2.334820 1_555
O32 Y2 2.450937 1_565
O33 W0 1.798500 1_555
O33 Y6 2.334726 1_555
O33 Y7 2.334726 1_554
O34 W6 1.828743 1_555
O34 Y7 2.343739 1_554
O34 Y4 2.433132 1_655
O35 W5 1.828743 1_555
O35 Y6 2.343739 1_556
O35 Y3 2.433132 1_565
