# generated using pymatgen
data_U4Te3O4
_symmetry_space_group_name_H-M   'P 1'
_cell_length_a   14.28369564
_cell_length_b   14.28369564
_cell_length_c   14.28369564
_cell_angle_alpha   164.04669679
_cell_angle_beta   164.04669679
_cell_angle_gamma   22.63548280
_symmetry_Int_Tables_number   1
_chemical_formula_structural   U4Te3O4
_chemical_formula_sum   'U4 Te3 O4'
_cell_volume   220.11092292
_cell_formula_units_Z   1
loop_
 _symmetry_equiv_pos_site_id
 _symmetry_equiv_pos_as_xyz
  1  'x, y, z'
loop_
 _atom_site_type_symbol
 _atom_site_label
 _atom_site_symmetry_multiplicity
 _atom_site_fract_x
 _atom_site_fract_y
 _atom_site_fract_z
 _atom_site_occupancy
  U  U0  1  0.56822900  0.56822900  0.00000000  1
  U  U1  1  0.43177100  0.43177100  0.00000000  1
  U  U2  1  0.84385900  0.84385900  0.00000000  1
  U  U3  1  0.15614100  0.15614100  0.00000000  1
  Te  Te0  1  0.00000000  0.00000000  0.00000000  1
  Te  Te1  1  0.28939200  0.28939200  0.00000000  1
  Te  Te2  1  0.71060800  0.71060800  0.00000000  1
  O  O0  1  0.39196200  0.89196200  0.50000000  1
  O  O1  1  0.89196200  0.39196200  0.50000000  1
  O  O2  1  0.60803800  0.10803800  0.50000000  1
  O  O3  1  0.10803800  0.60803800  0.50000000  1
loop_
_geom_bond_atom_site_label_1
_geom_bond_atom_site_label_2
_geom_bond_distance
_geom_bond_site_symmetry_2
Te0 U1 3.392719 1_444
Te0 U0 3.392719 1_455
Te0 U0 3.392719 1_556
Te0 U0 3.392719 1_545
Te0 U0 3.392719 1_444
Te0 U1 3.392719 1_545
Te0 U1 3.392719 1_556
Te0 U1 3.392719 1_455
Te1 U2 3.191489 1_556
Te1 U2 3.191489 1_444
Te1 U2 3.191489 1_455
Te1 U2 3.191489 1_545
Te1 U3 3.732609 1_555
Te2 U3 3.191489 1_666
Te2 U3 3.191489 1_565
Te2 U3 3.191489 1_655
Te2 U3 3.191489 1_554
Te2 U2 3.732609 1_555
O0 U1 2.274289 1_566
O0 U1 2.274289 1_555
O0 U2 2.396773 1_556
O0 U2 2.396773 1_455
O1 U1 2.274289 1_656
O1 U1 2.274289 1_555
O1 U2 2.396773 1_556
O1 U2 2.396773 1_545
O2 U0 2.274289 1_556
O2 U0 2.274289 1_545
O2 U3 2.396773 1_555
O2 U3 2.396773 1_656
O3 U0 2.274289 1_455
O3 U0 2.274289 1_556
O3 U3 2.396773 1_555
O3 U3 2.396773 1_566
