# generated using pymatgen
data_MgCrCo3O8
_symmetry_space_group_name_H-M   'P 1'
_cell_length_a   5.96360086
_cell_length_b   5.82708893
_cell_length_c   5.97014427
_cell_angle_alpha   60.42379665
_cell_angle_beta   58.31495802
_cell_angle_gamma   59.74732574
_symmetry_Int_Tables_number   1
_chemical_formula_structural   MgCrCo3O8
_chemical_formula_sum   'Mg1 Cr1 Co3 O8'
_cell_volume   144.91298917
_cell_formula_units_Z   1
loop_
 _symmetry_equiv_pos_site_id
 _symmetry_equiv_pos_as_xyz
  1  'x, y, z'
loop_
 _atom_site_type_symbol
 _atom_site_label
 _atom_site_symmetry_multiplicity
 _atom_site_fract_x
 _atom_site_fract_y
 _atom_site_fract_z
 _atom_site_occupancy
  Mg  Mg0  1  0.87569100  0.88299600  0.86674200  1
  Cr  Cr0  1  0.50066400  0.49491300  0.49950400  1
  Co  Co0  1  0.00937300  0.50258500  0.49392200  1
  Co  Co1  1  0.49821700  0.00562400  0.49745600  1
  Co  Co2  1  0.49681300  0.50079300  0.00312700  1
  O  O0  1  0.26063300  0.24726500  0.29345800  1
  O  O1  1  0.27063400  0.24654700  0.70733700  1
  O  O2  1  0.26135600  0.70349600  0.27454700  1
  O  O3  1  0.70235800  0.24536900  0.26602500  1
  O  O4  1  0.28885500  0.74697400  0.73664300  1
  O  O5  1  0.73754400  0.29321200  0.73046700  1
  O  O6  1  0.73274900  0.74719600  0.28285000  1
  O  O7  1  0.74011200  0.75207900  0.71697100  1
loop_
_geom_bond_atom_site_label_1
_geom_bond_atom_site_label_2
_geom_bond_distance
_geom_bond_site_symmetry_2
Mg0 O5 1.963286 1_565
Mg0 O4 1.982927 1_655
Mg0 O6 2.009662 1_556
Mg0 O7 2.022264 1_555
Cr0 O1 1.988890 1_555
Cr0 O2 1.992979 1_555
Cr0 O3 1.995345 1_555
Cr0 O6 2.010543 1_555
Cr0 O5 2.012892 1_555
Cr0 O4 2.015417 1_555
Co0 O0 1.875787 1_555
Co0 O2 1.880340 1_555
Co0 O7 1.943672 1_455
Co0 O5 1.999461 1_455
Co0 O1 2.035544 1_555
Co0 O6 2.093416 1_455
Co1 O3 1.839578 1_555
Co1 O1 1.847451 1_555
Co1 O0 1.892887 1_555
Co1 O6 1.940440 1_545
Co1 O4 1.941186 1_545
Co1 O7 1.976964 1_545
Co2 O2 1.954625 1_555
Co2 O5 1.978113 1_554
Co2 O3 2.014430 1_555
Co2 O4 2.038167 1_554
Co2 O0 2.043269 1_555
Co2 O7 2.057983 1_554
