# generated using pymatgen
data_MgTi4Pb2O9F2
_symmetry_space_group_name_H-M   'P 1'
_cell_length_a   3.96671632
_cell_length_b   7.83507540
_cell_length_c   7.86864894
_cell_angle_alpha   84.06165005
_cell_angle_beta   75.40065560
_cell_angle_gamma   75.33669763
_symmetry_Int_Tables_number   1
_chemical_formula_structural   MgTi4Pb2O9F2
_chemical_formula_sum   'Mg1 Ti4 Pb2 O9 F2'
_cell_volume   228.74432533
_cell_formula_units_Z   1
loop_
 _symmetry_equiv_pos_site_id
 _symmetry_equiv_pos_as_xyz
  1  'x, y, z'
loop_
 _atom_site_type_symbol
 _atom_site_label
 _atom_site_symmetry_multiplicity
 _atom_site_fract_x
 _atom_site_fract_y
 _atom_site_fract_z
 _atom_site_occupancy
  Mg  Mg0  1  0.73239384  0.43667706  0.09853525  1
  Ti  Ti0  1  0.33229843  0.11132034  0.22408381  1
  Ti  Ti1  1  0.67056522  0.87457949  0.78428908  1
  Ti  Ti2  1  0.38036907  0.67472269  0.56453916  1
  Ti  Ti3  1  0.62129591  0.29661274  0.46079543  1
  Pb  Pb0  1  0.00981433  0.20878509  0.77158724  1
  Pb  Pb1  1  0.00583776  0.75776462  0.23055886  1
  O  O0  1  0.79959328  0.18504794  0.21576549  1
  O  O1  1  0.19518172  0.85400606  0.75563050  1
  O  O2  1  0.13998542  0.27347427  0.44655389  1
  O  O3  1  0.86133157  0.71578334  0.56155453  1
  O  O4  1  0.49934293  0.00758951  0.99372464  1
  O  O5  1  0.56239081  0.54208396  0.33313443  1
  O  O6  1  0.44220109  0.45044339  0.66515444  1
  O  O7  1  0.36998059  0.90432368  0.35571414  1
  O  O8  1  0.63706125  0.09140042  0.63447809  1
  F  F0  1  0.26954659  0.38754429  0.07336352  1
  F  F1  1  0.70414319  0.64450811  0.94720451  1
loop_
_geom_bond_atom_site_label_1
_geom_bond_atom_site_label_2
_geom_bond_distance
_geom_bond_site_symmetry_2
Mg0 O5 1.987561 1_555
Mg0 O0 2.071349 1_555
Mg0 Pb0 3.089687 1_654
O0 Ti0 2.060831 1_555
O0 Ti0 2.060835 1_655
O0 Ti3 2.080864 1_555
O1 Ti1 2.002130 1_555
O1 Ti1 2.002134 1_455
O1 Ti2 2.032611 1_555
O1 Pb0 2.697065 1_565
O2 Ti3 1.994451 1_455
O2 Ti3 1.994455 1_555
O2 Ti0 2.134662 1_555
O2 Pb0 2.502644 1_555
O3 Ti2 2.007607 1_655
O3 Ti2 2.007611 1_555
O3 Ti1 2.120906 1_555
O3 Pb1 2.526997 1_655
O4 Ti1 1.922484 1_545
O4 Ti0 1.952404 1_556
O5 Ti3 2.062458 1_555
O5 Ti2 2.065356 1_555
O5 Pb1 2.666138 1_655
O5 Pb1 2.666141 1_555
O6 Ti2 1.834853 1_555
O6 Ti3 1.983628 1_555
O6 Pb0 2.796434 1_555
O6 Pb0 2.796437 1_655
O7 Ti0 1.825707 1_565
O7 Ti2 2.307133 1_555
O7 Pb1 2.483085 1_555
O7 Pb1 2.483085 1_655
O8 Ti1 1.960488 1_545
O8 Ti3 1.998584 1_555
O8 Pb0 2.427772 1_655
O8 Pb0 2.427772 1_555
F0 Mg0 2.028592 1_555
F0 Mg0 2.028596 1_455
F0 Ti0 2.344648 1_555
F1 Mg0 1.912002 1_556
F1 Ti1 2.096879 1_555
