# generated using pymatgen
data_Na2Nd2MgTi3O10
_symmetry_space_group_name_H-M   'P 1'
_cell_length_a   3.94418575
_cell_length_b   3.94418523
_cell_length_c   13.87220385
_cell_angle_alpha   98.17294369
_cell_angle_beta   98.17294582
_cell_angle_gamma   89.99999361
_symmetry_Int_Tables_number   1
_chemical_formula_structural   Na2Nd2MgTi3O10
_chemical_formula_sum   'Na2 Nd2 Mg1 Ti3 O10'
_cell_volume   211.39794531
_cell_formula_units_Z   1
loop_
 _symmetry_equiv_pos_site_id
 _symmetry_equiv_pos_as_xyz
  1  'x, y, z'
loop_
 _atom_site_type_symbol
 _atom_site_label
 _atom_site_symmetry_multiplicity
 _atom_site_fract_x
 _atom_site_fract_y
 _atom_site_fract_z
 _atom_site_occupancy
  Na  Na0  1  0.68878500  0.68878500  0.37757100  1
  Na  Na1  1  0.31121500  0.31121500  0.62242900  1
  Nd  Nd0  1  0.57210400  0.57210400  0.14420700  1
  Nd  Nd1  1  0.42789600  0.42789600  0.85579300  1
  Mg  Mg0  1  0.75000000  0.25000000  0.50000000  1
  Ti  Ti0  1  0.85446700  0.85446700  0.70893200  1
  Ti  Ti1  1  0.14553300  0.14553300  0.29106800  1
  Ti  Ti2  1  0.00000000  0.00000000  0.00000000  1
  O  O0  1  0.85703600  0.35703600  0.71407100  1
  O  O1  1  0.36436600  0.86436600  0.72873200  1
  O  O2  1  0.13563400  0.63563400  0.27126800  1
  O  O3  1  0.64296400  0.14296400  0.28592900  1
  O  O4  1  0.77927000  0.77927000  0.55853900  1
  O  O5  1  0.22073000  0.22073000  0.44146100  1
  O  O6  1  0.99938400  0.49938400  0.99876800  1
  O  O7  1  0.07186400  0.07186400  0.14372800  1
  O  O8  1  0.92813600  0.92813600  0.85627200  1
  O  O9  1  0.50061600  0.00061600  0.00123200  1
loop_
_geom_bond_atom_site_label_1
_geom_bond_atom_site_label_2
_geom_bond_distance
_geom_bond_site_symmetry_2
Na0 O3 2.332374 1_555
Na0 O3 2.332374 1_565
Na0 O2 2.444557 1_555
Na0 O2 2.444560 1_655
Na0 O4 2.459166 1_555
Na1 O0 2.332374 1_555
Na1 O0 2.332374 1_455
Na1 O1 2.444557 1_555
Na1 O1 2.444560 1_545
Na1 O5 2.459166 1_555
Nd0 O2 2.621141 1_655
Nd0 O2 2.621144 1_555
Nd0 O3 2.756456 1_565
Nd0 O3 2.756461 1_555
Nd0 O9 2.768380 1_565
Nd0 O9 2.768383 1_555
Nd0 O7 2.788965 1_665
Nd0 O7 2.788968 1_565
Nd0 O7 2.788968 1_655
Nd0 O7 2.788971 1_555
Nd0 O6 2.791981 1_554
Nd0 O6 2.791984 1_454
Nd1 O1 2.621141 1_545
Nd1 O1 2.621144 1_555
Nd1 O0 2.756456 1_455
Nd1 O0 2.756462 1_555
Nd1 O6 2.768380 1_455
Nd1 O6 2.768383 1_555
Nd1 O8 2.788965 1_445
Nd1 O8 2.788968 1_545
Nd1 O8 2.788968 1_455
Nd1 O8 2.788971 1_555
Nd1 O9 2.791981 1_556
Nd1 O9 2.791984 1_566
Mg0 O4 2.126485 1_545
Mg0 O5 2.126485 1_655
Mg0 O4 2.126488 1_555
Mg0 O5 2.126488 1_555
O0 Ti0 1.973327 1_545
O0 Ti0 1.973331 1_555
O1 Ti0 1.990359 1_455
O1 Ti0 1.990367 1_555
O2 Ti1 1.990359 1_565
O2 Ti1 1.990367 1_555
O3 Ti1 1.973327 1_655
O3 Ti1 1.973331 1_555
O4 Ti0 2.043684 1_555
O5 Ti1 2.043684 1_555
O6 Ti2 1.972164 1_666
O6 Ti2 1.972164 1_656
O7 Ti2 1.953114 1_555
O7 Ti1 2.002197 1_555
O8 Ti2 1.953114 1_666
O8 Ti0 2.002197 1_555
O9 Ti2 1.972164 1_555
O9 Ti2 1.972164 1_655
