# generated using pymatgen
data_NdInPd
_symmetry_space_group_name_H-M   'P 1'
_cell_length_a   7.81111430
_cell_length_b   7.81111430
_cell_length_c   3.95318481
_cell_angle_alpha   90.00000000
_cell_angle_beta   90.00000000
_cell_angle_gamma   119.99999445
_symmetry_Int_Tables_number   1
_chemical_formula_structural   NdInPd
_chemical_formula_sum   'Nd3 In3 Pd3'
_cell_volume   208.88331933
_cell_formula_units_Z   3
loop_
 _symmetry_equiv_pos_site_id
 _symmetry_equiv_pos_as_xyz
  1  'x, y, z'
loop_
 _atom_site_type_symbol
 _atom_site_label
 _atom_site_symmetry_multiplicity
 _atom_site_fract_x
 _atom_site_fract_y
 _atom_site_fract_z
 _atom_site_occupancy
  Nd  Nd0  1  -0.00000000  0.58822945  0.00000000  1
  Nd  Nd1  1  0.41177055  0.41177055  -0.00000000  1
  Nd  Nd2  1  0.58822945  -0.00000000  0.00000000  1
  In  In0  1  0.74654736  0.74654736  0.50000000  1
  In  In1  1  0.00000000  0.25345264  0.50000000  1
  In  In2  1  0.25345264  0.00000000  0.50000000  1
  Pd  Pd0  1  0.33333300  0.66666700  0.50000000  1
  Pd  Pd1  1  0.00000000  0.00000000  0.00000000  1
  Pd  Pd2  1  0.66666700  0.33333300  0.50000000  1
loop_
_geom_bond_atom_site_label_1
_geom_bond_atom_site_label_2
_geom_bond_distance
_geom_bond_site_symmetry_2
Nd0 Pd0 3.076738 1_555
Nd0 Pd0 3.076738 1_554
Nd0 Pd2 3.076740 1_455
Nd0 Pd2 3.076740 1_454
Nd0 Pd1 3.216387 1_565
Nd1 Pd2 3.076744 1_554
Nd1 Pd0 3.076744 1_555
Nd1 Pd0 3.076744 1_554
Nd1 Pd2 3.076744 1_555
Nd1 Pd1 3.216387 1_555
Nd2 Pd2 3.076738 1_554
Nd2 Pd2 3.076738 1_555
Nd2 Pd0 3.076740 1_545
Nd2 Pd0 3.076740 1_544
Nd2 Pd1 3.216387 1_655
In0 Pd1 2.797556 1_665
In0 Pd1 2.797556 1_666
In0 Pd2 2.965337 1_555
In0 Pd0 2.965337 1_555
In0 Nd1 3.277963 1_555
In0 Nd1 3.277963 1_556
In0 Nd2 3.435670 1_565
In0 Nd0 3.435670 1_656
In0 Nd2 3.435670 1_566
In0 Nd0 3.435670 1_655
In1 Pd1 2.797556 1_555
In1 Pd1 2.797556 1_556
In1 Pd2 2.965329 1_455
In1 Pd0 2.965334 1_555
In1 Nd0 3.277962 1_555
In1 Nd0 3.277962 1_556
In1 Nd1 3.435670 1_555
In1 Nd1 3.435670 1_556
In1 Nd2 3.435670 1_455
In1 Nd2 3.435670 1_456
In2 Pd1 2.797556 1_555
In2 Pd1 2.797556 1_556
In2 Pd0 2.965329 1_545
In2 Pd2 2.965334 1_555
In2 Nd2 3.277962 1_555
In2 Nd2 3.277962 1_556
In2 Nd1 3.435670 1_555
In2 Nd1 3.435670 1_556
In2 Nd0 3.435670 1_546
In2 Nd0 3.435670 1_545
