# generated using pymatgen
data_LiVP2O7
_symmetry_space_group_name_H-M   'P 1'
_cell_length_a   8.29775200
_cell_length_b   7.05801300
_cell_length_c   9.10201504
_cell_angle_alpha   65.42419456
_cell_angle_beta   90.00000000
_cell_angle_gamma   90.00000000
_symmetry_Int_Tables_number   1
_chemical_formula_structural   LiVP2O7
_chemical_formula_sum   'Li4 V4 P8 O28'
_cell_volume   484.77592609
_cell_formula_units_Z   4
loop_
 _symmetry_equiv_pos_site_id
 _symmetry_equiv_pos_as_xyz
  1  'x, y, z'
loop_
 _atom_site_type_symbol
 _atom_site_label
 _atom_site_symmetry_multiplicity
 _atom_site_fract_x
 _atom_site_fract_y
 _atom_site_fract_z
 _atom_site_occupancy
  Li  Li0  1  0.44797800  0.29643400  0.33040000  1
  Li  Li1  1  0.55202200  0.70356600  0.66960000  1
  Li  Li2  1  0.05202200  0.29643400  0.83040000  1
  Li  Li3  1  0.94797800  0.70356600  0.16960000  1
  V  V0  1  0.42236400  0.23740300  0.88744600  1
  V  V1  1  0.07763600  0.23740300  0.38744600  1
  V  V2  1  0.92236400  0.76259700  0.61255400  1
  V  V3  1  0.57763600  0.76259700  0.11255400  1
  P  P0  1  0.76272700  0.05915300  0.25856800  1
  P  P1  1  0.26272700  0.94084700  0.24143200  1
  P  P2  1  0.73727300  0.05915300  0.75856800  1
  P  P3  1  0.26772300  0.53695900  0.53348800  1
  P  P4  1  0.73227700  0.46304100  0.46651200  1
  P  P5  1  0.76772300  0.46304100  0.96651200  1
  P  P6  1  0.23727300  0.94084700  0.74143200  1
  P  P7  1  0.23227700  0.53695900  0.03348800  1
  O  O0  1  0.88952400  0.11494200  0.81600900  1
  O  O1  1  0.24760000  0.38138400  0.95645000  1
  O  O2  1  0.75240000  0.61861600  0.04355000  1
  O  O3  1  0.11047600  0.88505800  0.18399100  1
  O  O4  1  0.09630500  0.47729600  0.15859200  1
  O  O5  1  0.75175300  0.88167500  0.20118500  1
  O  O6  1  0.90647500  0.01359100  0.38273700  1
  O  O7  1  0.25175300  0.11832500  0.29881500  1
  O  O8  1  0.24824700  0.11832500  0.79881500  1
  O  O9  1  0.60482900  0.42325400  0.90340800  1
  O  O10  1  0.74760000  0.61861600  0.54355000  1
  O  O11  1  0.90369500  0.52270400  0.84140800  1
  O  O12  1  0.83546000  0.25041200  0.10312600  1
  O  O13  1  0.25240000  0.38138400  0.45645000  1
  O  O14  1  0.33546000  0.74958800  0.39687400  1
  O  O15  1  0.74824700  0.88167500  0.70118500  1
  O  O16  1  0.38952400  0.88505800  0.68399100  1
  O  O17  1  0.39517100  0.57674600  0.09659200  1
  O  O18  1  0.10482900  0.57674600  0.59659200  1
  O  O19  1  0.16454000  0.74958800  0.89687400  1
  O  O20  1  0.66454000  0.25041200  0.60312600  1
  O  O21  1  0.09352500  0.98640900  0.61726300  1
  O  O22  1  0.61047600  0.11494200  0.31600900  1
  O  O23  1  0.89517100  0.42325400  0.40340800  1
  O  O24  1  0.59352500  0.01359100  0.88273700  1
  O  O25  1  0.40369500  0.47729600  0.65859200  1
  O  O26  1  0.40647500  0.98640900  0.11726300  1
  O  O27  1  0.59630500  0.52270400  0.34140800  1
loop_
_geom_bond_atom_site_label_1
_geom_bond_atom_site_label_2
_geom_bond_distance
_geom_bond_site_symmetry_2
Li0 O22 1.901503 1_555
Li0 O27 2.051443 1_555
Li0 O7 2.148178 1_555
Li0 O13 2.209450 1_555
Li0 O17 2.265611 1_555
Li1 O16 1.901503 1_555
Li1 O25 2.051443 1_555
Li1 O15 2.148178 1_555
Li1 O10 2.209450 1_555
Li1 O9 2.265611 1_555
Li2 O0 1.901503 1_455
Li2 O11 2.051443 1_455
Li2 O8 2.148178 1_555
Li2 O1 2.209450 1_555
Li2 O18 2.265611 1_555
Li3 O3 1.901503 1_655
Li3 O4 2.051443 1_655
Li3 O5 2.148178 1_555
Li3 O2 2.209450 1_555
Li3 O23 2.265611 1_555
O0 P2 1.481778 1_555
O1 P7 1.534277 1_556
O1 V0 2.015196 1_555
O2 P5 1.534277 1_554
O2 V3 2.015196 1_555
O3 P1 1.481778 1_555
O4 P7 1.532346 1_555
O4 V1 2.072720 1_555
O5 P0 1.547388 1_565
O5 V3 2.002128 1_555
O6 P0 1.581507 1_555
O6 V2 2.109250 1_545
O6 V1 2.137901 1_655
O7 P1 1.547388 1_545
O7 V1 2.002128 1_555
O8 P6 1.547388 1_545
O8 V0 2.002128 1_555
O9 P5 1.539446 1_555
O9 V0 2.047592 1_555
O10 P4 1.534277 1_555
O10 V2 2.015196 1_555
O11 P5 1.532346 1_555
O11 V2 2.072720 1_555
O12 P5 1.600660 1_554
O12 P0 1.612330 1_555
O13 P3 1.534277 1_555
O13 V1 2.015196 1_555
O14 P3 1.600660 1_555
O14 P1 1.612330 1_555
O15 P2 1.547388 1_565
O15 V2 2.002128 1_555
O16 P6 1.481778 1_555
O17 P7 1.539446 1_555
O17 V3 2.047592 1_555
O18 P3 1.539446 1_555
O18 V2 2.047592 1_455
O19 P7 1.600660 1_556
O19 P6 1.612330 1_555
O20 P4 1.600660 1_555
O20 P2 1.612330 1_555
O21 P6 1.581507 1_555
O21 V1 2.109250 1_565
O21 V2 2.137901 1_455
O22 P0 1.481778 1_555
O23 P4 1.539446 1_555
O23 V1 2.047592 1_655
O24 P2 1.581507 1_555
O24 V3 2.109250 1_546
O24 V0 2.137901 1_555
O25 P3 1.532346 1_555
O25 V0 2.072720 1_555
O26 P1 1.581507 1_555
O26 V0 2.109250 1_564
O26 V3 2.137901 1_555
O27 P4 1.532346 1_555
O27 V3 2.072720 1_555
