# generated using pymatgen
data_BaYb2NiO5
_symmetry_space_group_name_H-M   'P 1'
_cell_length_a   5.63833300
_cell_length_b   6.99663600
_cell_length_c   12.13696700
_cell_angle_alpha   90.00000000
_cell_angle_beta   90.00000000
_cell_angle_gamma   90.00000000
_symmetry_Int_Tables_number   1
_chemical_formula_structural   BaYb2NiO5
_chemical_formula_sum   'Ba4 Yb8 Ni4 O20'
_cell_volume   478.79562476
_cell_formula_units_Z   4
loop_
 _symmetry_equiv_pos_site_id
 _symmetry_equiv_pos_as_xyz
  1  'x, y, z'
loop_
 _atom_site_type_symbol
 _atom_site_label
 _atom_site_symmetry_multiplicity
 _atom_site_fract_x
 _atom_site_fract_y
 _atom_site_fract_z
 _atom_site_occupancy
  Ba  Ba0  1  0.75000000  0.06948800  0.10160700  1
  Ba  Ba1  1  0.75000000  0.43051200  0.60160700  1
  Ba  Ba2  1  0.25000000  0.56948800  0.39839300  1
  Ba  Ba3  1  0.25000000  0.93051200  0.89839300  1
  Yb  Yb0  1  0.25000000  0.39267400  0.07608200  1
  Yb  Yb1  1  0.75000000  0.61529000  0.20314900  1
  Yb  Yb2  1  0.75000000  0.88471000  0.70314900  1
  Yb  Yb3  1  0.25000000  0.11529000  0.29685100  1
  Yb  Yb4  1  0.75000000  0.60732600  0.92391800  1
  Yb  Yb5  1  0.75000000  0.89267400  0.42391800  1
  Yb  Yb6  1  0.25000000  0.10732600  0.57608200  1
  Yb  Yb7  1  0.25000000  0.38471000  0.79685100  1
  Ni  Ni0  1  0.25000000  0.79629400  0.15713100  1
  Ni  Ni1  1  0.75000000  0.20370600  0.84286900  1
  Ni  Ni2  1  0.75000000  0.29629400  0.34286900  1
  Ni  Ni3  1  0.25000000  0.70370600  0.65713100  1
  O  O0  1  0.25000000  0.44315900  0.60609500  1
  O  O1  1  0.75000000  0.55684100  0.39390500  1
  O  O2  1  0.75000000  0.94315900  0.89390500  1
  O  O3  1  0.25000000  0.05684100  0.10609500  1
  O  O4  1  0.01408500  0.84715800  0.26662400  1
  O  O5  1  0.51408500  0.15284200  0.73337600  1
  O  O6  1  0.98591500  0.34715800  0.23337600  1
  O  O7  1  0.48591500  0.65284200  0.76662400  1
  O  O8  1  0.98591500  0.15284200  0.73337600  1
  O  O9  1  0.48591500  0.84715800  0.26662400  1
  O  O10  1  0.01408500  0.65284200  0.76662400  1
  O  O11  1  0.51408500  0.34715800  0.23337600  1
  O  O12  1  0.47927000  0.68392000  0.06331300  1
  O  O13  1  0.97927000  0.31608000  0.93668700  1
  O  O14  1  0.52073000  0.18392000  0.43668700  1
  O  O15  1  0.02073000  0.81608000  0.56331300  1
  O  O16  1  0.97927000  0.18392000  0.43668700  1
  O  O17  1  0.47927000  0.81608000  0.56331300  1
  O  O18  1  0.02073000  0.68392000  0.06331300  1
  O  O19  1  0.52073000  0.31608000  0.93668700  1
loop_
_geom_bond_atom_site_label_1
_geom_bond_atom_site_label_2
_geom_bond_distance
_geom_bond_site_symmetry_2
Ba0 O2 2.671336 1_544
Ba0 O3 2.821081 1_655
Ba0 O3 2.821081 1_555
Ba0 O11 2.846283 1_555
Ba0 O6 2.846283 1_555
Ba0 O4 2.940769 1_645
Ba0 O9 2.940769 1_545
Ba0 O13 2.941819 1_554
Ba0 O19 2.941819 1_554
Ba0 O12 3.134260 1_545
Ba0 O18 3.134260 1_645
Ba1 O1 2.671336 1_555
Ba1 O0 2.821081 1_555
Ba1 O0 2.821081 1_655
Ba1 O5 2.846283 1_555
Ba1 O8 2.846283 1_555
Ba1 O10 2.940769 1_655
Ba1 O7 2.940769 1_555
Ba1 O16 2.941819 1_555
Ba1 O14 2.941819 1_555
Ba1 O15 3.134260 1_655
Ba1 O17 3.134260 1_555
Ba2 O0 2.671336 1_555
Ba2 O1 2.821081 1_555
Ba2 O1 2.821081 1_455
Ba2 O4 2.846283 1_555
Ba2 O9 2.846283 1_555
Ba2 O11 2.940769 1_555
Ba2 O6 2.940769 1_455
Ba2 O17 2.941819 1_555
Ba2 O15 2.941819 1_555
Ba2 O14 3.134260 1_555
Ba2 O16 3.134260 1_455
Ba3 O3 2.671336 1_566
Ba3 O2 2.821081 1_555
Ba3 O2 2.821081 1_455
Ba3 O7 2.846283 1_555
Ba3 O10 2.846283 1_555
Ba3 O5 2.940769 1_565
Ba3 O8 2.940769 1_465
Ba3 O12 2.941819 1_556
Ba3 O18 2.941819 1_556
Ba3 O19 3.134260 1_565
Ba3 O13 3.134260 1_465
Ni0 O18 1.893623 1_555
Ni0 O12 1.893623 1_555
Ni0 O9 1.913636 1_555
Ni0 O4 1.913636 1_555
Ni0 O3 1.925316 1_565
Ni1 O19 1.893623 1_555
Ni1 O13 1.893623 1_555
Ni1 O8 1.913636 1_555
Ni1 O5 1.913636 1_555
Ni1 O2 1.925316 1_545
Ni2 O14 1.893623 1_555
Ni2 O16 1.893623 1_555
Ni2 O11 1.913636 1_555
Ni2 O6 1.913636 1_555
Ni2 O1 1.925316 1_555
Ni3 O17 1.893623 1_555
Ni3 O15 1.893623 1_555
Ni3 O7 1.913636 1_555
Ni3 O10 1.913636 1_555
Ni3 O0 1.925316 1_555
O0 Yb7 2.351039 1_555
O0 Yb6 2.377769 1_555
O1 Yb1 2.351039 1_555
O1 Yb5 2.377769 1_555
O2 Yb2 2.351039 1_555
O2 Yb4 2.377769 1_555
O3 Yb3 2.351039 1_555
O3 Yb0 2.377769 1_555
O4 Yb3 2.328818 1_565
O4 Yb1 2.332910 1_455
O4 Yb5 2.441944 1_455
O5 Yb2 2.328818 1_545
O5 Yb7 2.332910 1_555
O5 Yb6 2.441944 1_555
O6 Yb1 2.328818 1_555
O6 Yb3 2.332910 1_655
O6 Yb0 2.441944 1_655
O7 Yb7 2.328818 1_555
O7 Yb2 2.332910 1_555
O7 Yb4 2.441944 1_555
O8 Yb2 2.328818 1_545
O8 Yb7 2.332910 1_655
O8 Yb6 2.441944 1_655
O9 Yb3 2.328818 1_565
O9 Yb1 2.332910 1_555
O9 Yb5 2.441944 1_555
O10 Yb7 2.328818 1_555
O10 Yb2 2.332910 1_455
O10 Yb4 2.441944 1_455
O11 Yb1 2.328818 1_555
O11 Yb3 2.332910 1_555
O11 Yb0 2.441944 1_555
O12 Yb1 2.332618 1_555
O12 Yb4 2.340851 1_554
O12 Yb0 2.418158 1_555
O13 Yb7 2.332618 1_655
O13 Yb0 2.340851 1_656
O13 Yb4 2.418158 1_555
O14 Yb3 2.332618 1_555
O14 Yb6 2.340851 1_555
O14 Yb5 2.418158 1_545
O15 Yb2 2.332618 1_455
O15 Yb5 2.340851 1_455
O15 Yb6 2.418158 1_565
O16 Yb3 2.332618 1_655
O16 Yb6 2.340851 1_655
O16 Yb5 2.418158 1_545
O17 Yb2 2.332618 1_555
O17 Yb5 2.340851 1_555
O17 Yb6 2.418158 1_565
O18 Yb1 2.332618 1_455
O18 Yb4 2.340851 1_454
O18 Yb0 2.418158 1_555
O19 Yb7 2.332618 1_555
O19 Yb0 2.340851 1_556
O19 Yb4 2.418158 1_555
