# generated using pymatgen
data_Ni5Sb2
_symmetry_space_group_name_H-M   'P 1'
_cell_length_a   5.39714863
_cell_length_b   6.07651026
_cell_length_c   6.96318918
_cell_angle_alpha   115.52670865
_cell_angle_beta   112.80204490
_cell_angle_gamma   89.99999325
_symmetry_Int_Tables_number   1
_chemical_formula_structural   Ni5Sb2
_chemical_formula_sum   'Ni10 Sb4'
_cell_volume   186.09934951
_cell_formula_units_Z   2
loop_
 _symmetry_equiv_pos_site_id
 _symmetry_equiv_pos_as_xyz
  1  'x, y, z'
loop_
 _atom_site_type_symbol
 _atom_site_label
 _atom_site_symmetry_multiplicity
 _atom_site_fract_x
 _atom_site_fract_y
 _atom_site_fract_z
 _atom_site_occupancy
  Ni  Ni0  1  0.75226801  0.00000000  0.00000000  1
  Ni  Ni1  1  0.25105640  0.00000000  0.00000000  1
  Ni  Ni2  1  0.37369995  0.14953340  0.74407716  1
  Ni  Ni3  1  0.62962279  0.85046660  0.25592284  1
  Ni  Ni4  1  0.89842760  0.59589781  0.79383769  1
  Ni  Ni5  1  0.10458891  0.40410219  0.20616231  1
  Ni  Ni6  1  0.52249669  0.74136545  0.54006185  1
  Ni  Ni7  1  0.98243484  0.25863455  0.45993815  1
  Ni  Ni8  1  0.02084962  0.74147890  0.54010305  1
  Ni  Ni9  1  0.48074657  0.25852110  0.45989695  1
  Sb  Sb0  1  0.87504188  0.15011598  0.74674694  1
  Sb  Sb1  1  0.12829494  0.84988402  0.25325306  1
  Sb  Sb2  1  0.39810155  0.59887990  0.79303229  1
  Sb  Sb3  1  0.60506926  0.40112010  0.20696771  1
loop_
_geom_bond_atom_site_label_1
_geom_bond_atom_site_label_2
_geom_bond_distance
_geom_bond_site_symmetry_2
Ni0 Sb3 2.551280 1_555
Ni0 Sb2 2.551280 1_544
Ni0 Ni5 2.559753 1_655
Ni0 Ni4 2.559755 1_544
Ni0 Sb0 2.583214 1_554
Ni0 Sb1 2.583214 1_645
Ni0 Ni3 2.597943 1_545
Ni0 Ni2 2.597943 1_554
Ni0 Ni6 2.616926 1_544
Ni0 Ni7 2.616926 1_555
Ni0 Ni1 2.692035 1_655
Ni0 Ni1 2.705114 1_555
Ni1 Sb2 2.550840 1_544
Ni1 Sb3 2.550841 1_555
Ni1 Ni4 2.560627 1_444
Ni1 Ni5 2.560629 1_555
Ni1 Sb1 2.583179 1_545
Ni1 Sb0 2.583179 1_454
Ni1 Ni2 2.597938 1_554
Ni1 Ni3 2.597938 1_545
Ni1 Ni9 2.616651 1_555
Ni1 Ni8 2.616651 1_544
Ni2 Ni8 2.580771 1_545
Ni2 Ni6 2.581118 1_545
Ni2 Ni9 2.589136 1_555
Ni2 Ni7 2.589487 1_455
Ni2 Sb2 2.598453 1_555
Ni2 Sb3 2.630382 1_556
Ni2 Sb0 2.698583 1_455
Ni2 Sb0 2.698659 1_555
Ni2 Sb1 2.806833 1_545
Ni3 Ni9 2.580770 1_565
Ni3 Ni7 2.581118 1_565
Ni3 Ni8 2.589137 1_655
Ni3 Ni6 2.589487 1_555
Ni3 Sb3 2.598453 1_555
Ni3 Sb2 2.630382 1_554
Ni3 Sb1 2.698583 1_555
Ni3 Sb1 2.698659 1_655
Ni3 Sb0 2.806833 1_565
Ni4 Ni9 2.553451 1_555
Ni4 Ni7 2.553750 1_555
Ni4 Ni6 2.566679 1_555
Ni4 Ni8 2.567607 1_655
Ni4 Sb0 2.581363 1_555
Ni4 Sb1 2.612148 1_656
Ni4 Sb2 2.698243 1_555
Ni4 Sb2 2.699070 1_655
Ni5 Ni8 2.553447 1_555
Ni5 Ni6 2.553753 1_555
Ni5 Ni7 2.566676 1_455
Ni5 Ni9 2.567610 1_555
Ni5 Sb1 2.581363 1_555
Ni5 Sb0 2.612148 1_454
Ni5 Sb3 2.698237 1_455
Ni5 Sb3 2.699075 1_555
Ni6 Sb3 2.553629 1_555
Ni6 Sb2 2.556226 1_555
Ni6 Sb0 2.580206 1_565
Ni6 Sb1 2.606037 1_555
Ni6 Ni8 2.689574 1_655
Ni6 Ni8 2.707575 1_555
Ni6 Ni9 2.731619 1_555
Ni7 Sb2 2.553630 1_655
Ni7 Sb3 2.556226 1_555
Ni7 Sb1 2.580206 1_645
Ni7 Sb0 2.606036 1_555
Ni7 Ni9 2.689574 1_655
Ni7 Ni9 2.707575 1_555
Ni7 Ni8 2.731619 1_655
Ni8 Sb3 2.554304 1_455
Ni8 Sb2 2.556188 1_555
Ni8 Sb0 2.579486 1_465
Ni8 Sb1 2.606057 1_555
Ni9 Sb2 2.554303 1_555
Ni9 Sb3 2.556188 1_555
Ni9 Sb1 2.579486 1_545
Ni9 Sb0 2.606057 1_555
