# generated using pymatgen
data_HfZn(SO4)3
_symmetry_space_group_name_H-M   'P 1'
_cell_length_a   8.78233221
_cell_length_b   8.78233192
_cell_length_c   22.58552695
_cell_angle_alpha   90.00000000
_cell_angle_beta   90.00000000
_cell_angle_gamma   120.00000104
_symmetry_Int_Tables_number   1
_chemical_formula_structural   HfZn(SO4)3
_chemical_formula_sum   'Hf6 Zn6 S18 O72'
_cell_volume   1508.62243871
_cell_formula_units_Z   6
loop_
 _symmetry_equiv_pos_site_id
 _symmetry_equiv_pos_as_xyz
  1  'x, y, z'
loop_
 _atom_site_type_symbol
 _atom_site_label
 _atom_site_symmetry_multiplicity
 _atom_site_fract_x
 _atom_site_fract_y
 _atom_site_fract_z
 _atom_site_occupancy
  Hf  Hf0  1  -0.00000000  0.00000000  0.64437775  1
  Hf  Hf1  1  -0.00000000  0.00000000  0.14437775  1
  Hf  Hf2  1  0.66666700  0.33333300  0.97771075  1
  Hf  Hf3  1  0.66666700  0.33333300  0.47771075  1
  Hf  Hf4  1  0.33333300  0.66666700  0.31104475  1
  Hf  Hf5  1  0.33333300  0.66666700  0.81104475  1
  Zn  Zn0  1  -0.00000000  0.00000000  0.35328420  1
  Zn  Zn1  1  -0.00000000  0.00000000  0.85328420  1
  Zn  Zn2  1  0.66666700  0.33333300  0.68661720  1
  Zn  Zn3  1  0.66666700  0.33333300  0.18661720  1
  Zn  Zn4  1  0.33333300  0.66666700  0.01995120  1
  Zn  Zn5  1  0.33333300  0.66666700  0.51995120  1
  S  S0  1  0.29312788  0.00609146  0.25102804  1
  S  S1  1  0.71296358  0.70687212  0.25102804  1
  S  S2  1  0.99390854  0.28703642  0.25102804  1
  S  S3  1  0.29312788  0.28703642  0.75102804  1
  S  S4  1  0.99390854  0.70687212  0.75102804  1
  S  S5  1  0.71296358  0.00609146  0.75102804  1
  S  S6  1  0.95979488  0.33942446  0.58436104  1
  S  S7  1  0.37963058  0.04020512  0.58436104  1
  S  S8  1  0.66057554  0.62036942  0.58436104  1
  S  S9  1  0.95979488  0.62036942  0.08436104  1
  S  S10  1  0.66057554  0.04020512  0.08436104  1
  S  S11  1  0.37963058  0.33942446  0.08436104  1
  S  S12  1  0.62646088  0.67275846  0.91769504  1
  S  S13  1  0.04629658  0.37353912  0.91769504  1
  S  S14  1  0.32724154  0.95370342  0.91769504  1
  S  S15  1  0.62646088  0.95370342  0.41769504  1
  S  S16  1  0.32724154  0.37353912  0.41769504  1
  S  S17  1  0.04629658  0.67275846  0.41769504  1
  O  O0  1  0.21059598  0.03005171  0.30317433  1
  O  O1  1  0.81945573  0.78940402  0.30317433  1
  O  O2  1  0.96994829  0.18054427  0.30317433  1
  O  O3  1  0.21059598  0.18054427  0.80317433  1
  O  O4  1  0.96994829  0.78940402  0.80317433  1
  O  O5  1  0.81945573  0.03005171  0.80317433  1
  O  O6  1  0.79129425  0.96835590  0.69713852  1
  O  O7  1  0.17706164  0.20870575  0.69713852  1
  O  O8  1  0.03164410  0.82293836  0.69713852  1
  O  O9  1  0.79129425  0.82293836  0.19713852  1
  O  O10  1  0.03164410  0.20870575  0.19713852  1
  O  O11  1  0.17706164  0.96835590  0.19713852  1
  O  O12  1  0.87726298  0.36338471  0.63650733  1
  O  O13  1  0.48612273  0.12273702  0.63650733  1
  O  O14  1  0.63661529  0.51387727  0.63650733  1
  O  O15  1  0.87726298  0.51387727  0.13650733  1
  O  O16  1  0.63661529  0.12273702  0.13650733  1
  O  O17  1  0.48612273  0.36338471  0.13650733  1
  O  O18  1  0.45796125  0.30168890  0.03047152  1
  O  O19  1  0.84372864  0.54203875  0.03047152  1
  O  O20  1  0.69831110  0.15627136  0.03047152  1
  O  O21  1  0.45796125  0.15627136  0.53047152  1
  O  O22  1  0.69831110  0.54203875  0.53047152  1
  O  O23  1  0.84372864  0.30168890  0.53047152  1
  O  O24  1  0.54392898  0.69671871  0.96984133  1
  O  O25  1  0.15278873  0.45607102  0.96984133  1
  O  O26  1  0.30328129  0.84721127  0.96984133  1
  O  O27  1  0.54392898  0.84721127  0.46984133  1
  O  O28  1  0.30328129  0.45607102  0.46984133  1
  O  O29  1  0.15278873  0.69671871  0.46984133  1
  O  O30  1  0.12462725  0.63502290  0.36380552  1
  O  O31  1  0.51039464  0.87537275  0.36380552  1
  O  O32  1  0.36497710  0.48960536  0.36380552  1
  O  O33  1  0.12462725  0.48960536  0.86380552  1
  O  O34  1  0.36497710  0.87537275  0.86380552  1
  O  O35  1  0.51039464  0.63502290  0.86380552  1
  O  O36  1  0.02248381  0.82267855  0.40778233  1
  O  O37  1  0.80019474  0.97751619  0.40778233  1
  O  O38  1  0.17732145  0.19980526  0.40778233  1
  O  O39  1  0.02248381  0.19980526  0.90778233  1
  O  O40  1  0.17732145  0.97751619  0.90778233  1
  O  O41  1  0.80019474  0.82267855  0.90778233  1
  O  O42  1  0.97359204  0.17536578  0.59165613  1
  O  O43  1  0.20177374  0.02640796  0.59165613  1
  O  O44  1  0.82463422  0.79822626  0.59165613  1
  O  O45  1  0.97359204  0.79822626  0.09165613  1
  O  O46  1  0.82463422  0.02640796  0.09165613  1
  O  O47  1  0.20177374  0.17536578  0.09165613  1
  O  O48  1  0.68915081  0.15601155  0.74111533  1
  O  O49  1  0.46686174  0.31084919  0.74111533  1
  O  O50  1  0.84398845  0.53313826  0.74111533  1
  O  O51  1  0.68915081  0.53313826  0.24111533  1
  O  O52  1  0.84398845  0.31084919  0.24111533  1
  O  O53  1  0.46686174  0.15601155  0.24111533  1
  O  O54  1  0.64025904  0.50869878  0.92498913  1
  O  O55  1  0.86844074  0.35974096  0.92498913  1
  O  O56  1  0.49130122  0.13155926  0.92498913  1
  O  O57  1  0.64025904  0.13155926  0.42498913  1
  O  O58  1  0.49130122  0.35974096  0.42498913  1
  O  O59  1  0.86844074  0.50869878  0.42498913  1
  O  O60  1  0.35581681  0.48934555  0.07444933  1
  O  O61  1  0.13352774  0.64418319  0.07444933  1
  O  O62  1  0.51065445  0.86647226  0.07444933  1
  O  O63  1  0.35581681  0.86647226  0.57444933  1
  O  O64  1  0.51065445  0.64418319  0.57444933  1
  O  O65  1  0.13352774  0.48934555  0.57444933  1
  O  O66  1  0.30692504  0.84203278  0.25832313  1
  O  O67  1  0.53510674  0.69307496  0.25832313  1
  O  O68  1  0.15796722  0.46489326  0.25832313  1
  O  O69  1  0.30692504  0.46489326  0.75832313  1
  O  O70  1  0.15796722  0.69307496  0.75832313  1
  O  O71  1  0.53510674  0.84203278  0.75832313  1
loop_
_geom_bond_atom_site_label_1
_geom_bond_atom_site_label_2
_geom_bond_distance
_geom_bond_site_symmetry_2
Hf0 O44 2.049591 1_445
Hf0 O42 2.049591 1_455
Hf0 O43 2.049591 1_555
Hf0 O8 2.085051 1_545
Hf0 O7 2.085051 1_555
Hf0 O6 2.085051 1_445
Hf1 O45 2.049591 1_445
Hf1 O47 2.049591 1_555
Hf1 O46 2.049591 1_455
Hf1 O11 2.085051 1_545
Hf1 O9 2.085051 1_445
Hf1 O10 2.085051 1_555
Hf2 O56 2.049591 1_555
Hf2 O54 2.049591 1_555
Hf2 O55 2.049591 1_555
Hf2 O20 2.085051 1_556
Hf2 O19 2.085051 1_556
Hf2 O18 2.085051 1_556
Hf3 O57 2.049591 1_555
Hf3 O59 2.049591 1_555
Hf3 O58 2.049591 1_555
Hf3 O23 2.085051 1_555
Hf3 O21 2.085051 1_555
Hf3 O22 2.085051 1_555
Hf4 O68 2.049591 1_555
Hf4 O66 2.049591 1_555
Hf4 O67 2.049591 1_555
Hf4 O32 2.085051 1_555
Hf4 O31 2.085051 1_555
Hf4 O30 2.085051 1_555
Hf5 O69 2.049591 1_555
Hf5 O71 2.049591 1_555
Hf5 O70 2.049591 1_555
Hf5 O35 2.085051 1_555
Hf5 O33 2.085051 1_555
Hf5 O34 2.085051 1_555
O0 S0 1.452332 1_555
O0 Zn0 2.069574 1_555
O1 S1 1.452332 1_555
O1 Zn0 2.069574 1_665
O2 S2 1.452332 1_555
O2 Zn0 2.069574 1_655
O3 S3 1.452332 1_555
O3 Zn1 2.069574 1_555
O4 S4 1.452332 1_555
O4 Zn1 2.069574 1_665
O5 S5 1.452332 1_555
O5 Zn1 2.069574 1_655
O6 S5 1.514082 1_565
O7 S3 1.514082 1_555
O8 S4 1.514082 1_455
O9 S1 1.514082 1_555
O10 S2 1.514082 1_455
O11 S0 1.514082 1_565
O12 S6 1.452332 1_555
O12 Zn2 2.069574 1_555
O13 S7 1.452332 1_555
O13 Zn2 2.069574 1_555
O14 S8 1.452332 1_555
O14 Zn2 2.069574 1_555
O15 S9 1.452332 1_555
O15 Zn3 2.069574 1_555
O16 S10 1.452332 1_555
O16 Zn3 2.069574 1_555
O17 S11 1.452332 1_555
O17 Zn3 2.069574 1_555
O18 S11 1.514082 1_555
O19 S9 1.514082 1_555
O20 S10 1.514082 1_555
O21 S7 1.514082 1_555
O22 S8 1.514082 1_555
O23 S6 1.514082 1_555
O24 S12 1.452332 1_555
O24 Zn4 2.069574 1_556
O25 S13 1.452332 1_555
O25 Zn4 2.069574 1_556
O26 S14 1.452332 1_555
O26 Zn4 2.069574 1_556
O27 S15 1.452332 1_555
O27 Zn5 2.069574 1_555
O28 S16 1.452332 1_555
O28 Zn5 2.069574 1_555
O29 S17 1.452332 1_555
O29 Zn5 2.069574 1_555
O30 S17 1.514082 1_555
O31 S15 1.514082 1_555
O32 S16 1.514082 1_555
O33 S13 1.514082 1_555
O34 S14 1.514082 1_555
O35 S12 1.514082 1_555
O36 S17 1.450095 1_555
O36 Zn0 2.070436 1_565
O37 S15 1.450103 1_555
O37 Zn0 2.070436 1_665
O38 S16 1.450100 1_555
O38 Zn0 2.070436 1_555
O39 S13 1.450103 1_555
O39 Zn1 2.070436 1_555
O40 S14 1.450095 1_555
O40 Zn1 2.070436 1_565
O41 S12 1.450100 1_555
O41 Zn1 2.070436 1_665
O42 S6 1.514058 1_555
O43 S7 1.514067 1_555
O44 S8 1.514063 1_555
O45 S9 1.514067 1_555
O46 S10 1.514058 1_555
O47 S11 1.514063 1_555
O48 S5 1.450095 1_555
O48 Zn2 2.070436 1_555
O49 S3 1.450103 1_555
O49 Zn2 2.070436 1_555
O50 S4 1.450100 1_555
O50 Zn2 2.070436 1_555
O51 S1 1.450103 1_555
O51 Zn3 2.070436 1_555
O52 S2 1.450095 1_555
O52 Zn3 2.070436 1_555
O53 S0 1.450100 1_555
O53 Zn3 2.070436 1_555
O54 S12 1.514069 1_555
O55 S13 1.514052 1_655
O56 S14 1.514059 1_545
O57 S15 1.514052 1_545
O58 S16 1.514069 1_555
O59 S17 1.514059 1_655
O60 S11 1.450105 1_555
O60 Zn4 2.070436 1_555
O61 S9 1.450088 1_455
O61 Zn4 2.070436 1_555
O62 S10 1.450095 1_565
O62 Zn4 2.070436 1_555
O63 S7 1.450088 1_565
O63 Zn5 2.070436 1_555
O64 S8 1.450105 1_555
O64 Zn5 2.070436 1_555
O65 S6 1.450095 1_455
O65 Zn5 2.070436 1_555
O66 S0 1.514058 1_565
O67 S1 1.514067 1_555
O68 S2 1.514063 1_455
O69 S3 1.514067 1_555
O70 S4 1.514058 1_455
O71 S5 1.514063 1_565
