# generated using pymatgen
data_Ho2C3
_symmetry_space_group_name_H-M   'P 1'
_cell_length_a   7.06676054
_cell_length_b   7.06676041
_cell_length_c   7.06676056
_cell_angle_alpha   109.47122692
_cell_angle_beta   109.47122659
_cell_angle_gamma   109.47121510
_symmetry_Int_Tables_number   1
_chemical_formula_structural   Ho2C3
_chemical_formula_sum   'Ho8 C12'
_cell_volume   271.66844212
_cell_formula_units_Z   4
loop_
 _symmetry_equiv_pos_site_id
 _symmetry_equiv_pos_as_xyz
  1  'x, y, z'
loop_
 _atom_site_type_symbol
 _atom_site_label
 _atom_site_symmetry_multiplicity
 _atom_site_fract_x
 _atom_site_fract_y
 _atom_site_fract_z
 _atom_site_occupancy
  Ho  Ho0  1  0.09974058  0.09974058  0.09974058  1
  Ho  Ho1  1  0.90026042  0.50000000  -0.00000000  1
  Ho  Ho2  1  0.00000000  0.90026042  0.50000000  1
  Ho  Ho3  1  0.50000000  -0.00000000  0.90026042  1
  Ho  Ho4  1  0.00000000  0.40025942  0.50000000  1
  Ho  Ho5  1  0.50000000  -0.00000000  0.40025942  1
  Ho  Ho6  1  0.40025942  0.50000000  -0.00000000  1
  Ho  Ho7  1  0.59973958  0.59973958  0.59973958  1
  C  C0  1  0.25000000  0.54319546  0.29319546  1
  C  C1  1  0.45680454  0.25000000  0.70680454  1
  C  C2  1  0.04319546  0.75000000  0.79319546  1
  C  C3  1  0.79319546  0.04319546  0.75000000  1
  C  C4  1  0.70680454  0.45680454  0.25000000  1
  C  C5  1  0.25000000  0.70680454  0.45680454  1
  C  C6  1  0.95680454  0.20680454  0.75000000  1
  C  C7  1  0.20680454  0.75000000  0.95680454  1
  C  C8  1  0.54319546  0.29319546  0.25000000  1
  C  C9  1  0.29319546  0.25000000  0.54319546  1
  C  C10  1  0.75000000  0.95680454  0.20680454  1
  C  C11  1  0.75000000  0.79319546  0.04319546  1
loop_
_geom_bond_atom_site_label_1
_geom_bond_atom_site_label_2
_geom_bond_distance
_geom_bond_site_symmetry_2
C0 C5 1.335049 1_555
C0 Ho7 2.481140 1_555
C0 Ho1 2.481140 1_455
C0 Ho0 2.602847 1_555
C0 Ho6 2.602847 1_555
C1 C9 1.335049 1_555
C1 Ho5 2.481145 1_555
C1 Ho6 2.481145 1_556
C1 Ho1 2.602852 1_556
C1 Ho3 2.602852 1_555
C2 C7 1.335049 1_555
C2 Ho0 2.481145 1_566
C2 Ho4 2.481145 1_555
C2 Ho7 2.602852 1_455
C2 Ho2 2.602852 1_555
C3 C6 1.335049 1_555
C3 Ho0 2.481145 1_656
C3 Ho5 2.481145 1_555
C3 Ho7 2.602852 1_545
C3 Ho3 2.602852 1_555
C4 C8 1.335049 1_555
C4 Ho6 2.481145 1_555
C4 Ho4 2.481145 1_655
C4 Ho2 2.602852 1_655
C4 Ho1 2.602852 1_555
C5 Ho4 2.481145 1_555
C5 Ho5 2.481145 1_565
C5 Ho3 2.602851 1_565
C5 Ho2 2.602852 1_555
C6 Ho2 2.481140 1_645
C6 Ho1 2.481140 1_556
C6 Ho6 2.602847 1_656
C6 Ho4 2.602847 1_655
C7 Ho1 2.481140 1_456
C7 Ho3 2.481140 1_565
C7 Ho5 2.602846 1_566
C7 Ho6 2.602847 1_556
C8 Ho7 2.481140 1_555
C8 Ho3 2.481140 1_554
C8 Ho0 2.602847 1_555
C8 Ho5 2.602847 1_555
C9 Ho7 2.481140 1_555
C9 Ho2 2.481140 1_545
C9 Ho0 2.602847 1_555
C9 Ho4 2.602847 1_555
C10 C11 1.335049 1_555
C10 Ho3 2.481140 1_564
C10 Ho2 2.481140 1_655
C10 Ho4 2.602846 1_665
C10 Ho5 2.602847 1_565
C11 Ho0 2.481145 1_665
C11 Ho6 2.481145 1_555
C11 Ho7 2.602852 1_554
C11 Ho1 2.602852 1_555
