# generated using pymatgen
data_CoPO4
_symmetry_space_group_name_H-M   'P 1'
_cell_length_a   5.19310150
_cell_length_b   6.21157191
_cell_length_c   7.67304458
_cell_angle_alpha   90.90075655
_cell_angle_beta   89.95444564
_cell_angle_gamma   89.97814423
_symmetry_Int_Tables_number   1
_chemical_formula_structural   CoPO4
_chemical_formula_sum   'Co4 P4 O16'
_cell_volume   247.48119682
_cell_formula_units_Z   4
loop_
 _symmetry_equiv_pos_site_id
 _symmetry_equiv_pos_as_xyz
  1  'x, y, z'
loop_
 _atom_site_type_symbol
 _atom_site_label
 _atom_site_symmetry_multiplicity
 _atom_site_fract_x
 _atom_site_fract_y
 _atom_site_fract_z
 _atom_site_occupancy
  Co  Co0  1  0.50000109  0.00000031  0.50000249  1
  Co  Co1  1  0.50000062  0.50000139  0.49999897  1
  Co  Co2  1  0.00000022  -0.00000099  0.00000395  1
  Co  Co3  1  0.00000031  0.50000067  0.00000007  1
  P  P0  1  -0.00013641  0.74724686  0.65152856  1
  P  P1  1  0.50016511  0.73605061  0.14885185  1
  P  P2  1  0.00013702  0.25275472  0.34847352  1
  P  P3  1  0.49983381  0.26395030  0.85114822  1
  O  O0  1  0.24271999  0.75229000  0.53475836  1
  O  O1  1  0.74646673  0.73391111  0.03223107  1
  O  O2  1  0.75728083  0.24771026  0.46524069  1
  O  O3  1  0.25353389  0.26608889  0.96776912  1
  O  O4  1  0.75699932  0.75216667  0.53507146  1
  O  O5  1  0.25476971  0.73419242  0.03214788  1
  O  O6  1  0.24300304  0.24783421  0.46492712  1
  O  O7  1  0.74522758  0.26580637  0.96785249  1
  O  O8  1  0.00012174  0.54461556  0.75824083  1
  O  O9  1  0.49986232  0.53775523  0.26124161  1
  O  O10  1  0.00026014  0.04808251  0.23441571  1
  O  O11  1  0.49946603  0.05643660  0.74268712  1
  O  O12  1  -0.00012166  0.45538327  0.24175781  1
  O  O13  1  0.50013737  0.46224265  0.73875678  1
  O  O14  1  -0.00026081  0.95191731  0.76558391  1
  O  O15  1  0.50053101  0.94356206  0.25731141  1
loop_
_geom_bond_atom_site_label_1
_geom_bond_atom_site_label_2
_geom_bond_distance
_geom_bond_site_symmetry_2
Co0 O11 1.889416 1_555
Co0 O15 1.889467 1_545
Co0 O4 2.058034 1_545
Co0 O6 2.058042 1_555
Co0 O0 2.058557 1_545
Co0 O2 2.058557 1_555
Co1 O9 1.850598 1_555
Co1 O13 1.850606 1_555
Co1 O4 2.072674 1_555
Co1 O6 2.072678 1_555
Co1 O0 2.072868 1_555
Co1 O2 2.072877 1_555
Co2 O10 1.818645 1_555
Co2 O14 1.818706 1_544
Co2 O1 2.130838 1_445
Co2 O3 2.130855 1_554
Co2 O5 2.132836 1_545
Co2 O7 2.132857 1_454
Co3 O12 1.879910 1_555
Co3 O8 1.879919 1_554
Co3 O1 1.972931 1_455
Co3 O3 1.972937 1_554
Co3 O5 1.979430 1_555
Co3 O7 1.979453 1_454
O0 P0 1.547079 1_555
O1 P1 1.560359 1_555
O2 P2 1.547065 1_655
O3 P3 1.560352 1_555
O4 P0 1.546840 1_655
O5 P1 1.558047 1_555
O6 P2 1.546832 1_555
O7 P3 1.558042 1_555
O8 P0 1.512308 1_555
O9 P1 1.514672 1_555
O10 P2 1.532069 1_555
O11 P3 1.523275 1_555
O12 P2 1.512308 1_555
O13 P3 1.514664 1_555
O14 P0 1.532050 1_555
O15 P1 1.523257 1_555
