# generated using pymatgen
data_MgTiNbS4
_symmetry_space_group_name_H-M   'P 1'
_cell_length_a   3.44418844
_cell_length_b   7.01767795
_cell_length_c   7.41636540
_cell_angle_alpha   63.55389951
_cell_angle_beta   103.32909256
_cell_angle_gamma   119.38797461
_symmetry_Int_Tables_number   1
_chemical_formula_structural   MgTiNbS4
_chemical_formula_sum   'Mg1 Ti1 Nb1 S4'
_cell_volume   139.82693124
_cell_formula_units_Z   1
loop_
 _symmetry_equiv_pos_site_id
 _symmetry_equiv_pos_as_xyz
  1  'x, y, z'
loop_
 _atom_site_type_symbol
 _atom_site_label
 _atom_site_symmetry_multiplicity
 _atom_site_fract_x
 _atom_site_fract_y
 _atom_site_fract_z
 _atom_site_occupancy
  Mg  Mg0  1  0.36305700  0.07913500  0.56450500  1
  Ti  Ti0  1  0.95395500  0.94590300  0.01533800  1
  Nb  Nb0  1  0.03858700  0.53739700  0.00216400  1
  S  S0  1  0.65221100  0.77771200  0.74693300  1
  S  S1  1  0.34325400  0.72025900  0.24725500  1
  S  S2  1  0.65583500  0.24829600  0.81292800  1
  S  S3  1  0.33238600  0.23129700  0.20347000  1
loop_
_geom_bond_atom_site_label_1
_geom_bond_atom_site_label_2
_geom_bond_distance
_geom_bond_site_symmetry_2
Mg0 S2 2.395232 1_555
Mg0 S3 2.398826 1_555
Mg0 S0 2.488752 1_545
Mg0 S0 2.488878 1_445
Nb0 S1 2.434842 1_555
Nb0 S0 2.528991 1_454
Nb0 S0 2.529206 1_554
Nb0 S3 2.539184 1_555
Nb0 S3 2.539543 1_455
Nb0 S2 2.623315 1_454
S0 Ti0 2.524009 1_556
S1 Ti0 2.420350 1_455
S1 Ti0 2.421418 1_555
S2 Ti0 2.530095 1_546
S2 Ti0 2.530143 1_446
S3 Ti0 2.597172 1_445
