# generated using pymatgen
data_Na6Nb4In4Si7S5O48
_symmetry_space_group_name_H-M   'P 1'
_cell_length_a   18.08015637
_cell_length_b   9.00202246
_cell_length_c   22.88361043
_cell_angle_alpha   90.03866069
_cell_angle_beta   90.02740820
_cell_angle_gamma   119.81844936
_symmetry_Int_Tables_number   1
_chemical_formula_structural   Na6Nb4In4Si7S5O48
_chemical_formula_sum   'Na18 Nb12 In12 Si21 S15 O144'
_cell_volume   3231.38546679
_cell_formula_units_Z   3
loop_
 _symmetry_equiv_pos_site_id
 _symmetry_equiv_pos_as_xyz
  1  'x, y, z'
loop_
 _atom_site_type_symbol
 _atom_site_label
 _atom_site_symmetry_multiplicity
 _atom_site_fract_x
 _atom_site_fract_y
 _atom_site_fract_z
 _atom_site_occupancy
  Na  Na0  1  0.00075213  0.61633338  0.25438774  1
  Na  Na1  1  0.49908318  0.63445450  0.26266513  1
  Na  Na2  1  0.99851364  0.36777701  0.75291094  1
  Na  Na3  1  0.50144241  0.38534910  0.74920749  1
  Na  Na4  1  0.33142240  0.97575561  0.57789250  1
  Na  Na5  1  0.83014312  0.68478618  0.08204340  1
  Na  Na6  1  0.00187548  0.97344733  0.50165786  1
  Na  Na7  1  0.50288596  0.01061798  0.49725740  1
  Na  Na8  1  0.99522723  0.99171861  0.99938045  1
  Na  Na9  1  0.50384315  0.03204466  0.00456451  1
  Na  Na10  1  0.32683282  0.35929933  0.82497301  1
  Na  Na11  1  0.82923447  0.33534027  0.83389578  1
  Na  Na12  1  0.33074047  0.32707175  0.33644420  1
  Na  Na13  1  0.82288140  0.29262740  0.32712489  1
  Na  Na14  1  0.17155897  0.65463035  0.17655151  1
  Na  Na15  1  0.66853693  0.66414089  0.16902710  1
  Na  Na16  1  0.16754064  0.67042505  0.66268759  1
  Na  Na17  1  0.67179661  0.68959105  0.66837418  1
  Nb  Nb0  1  0.99328197  0.00929032  0.35703334  1
  Nb  Nb1  1  0.50147581  0.98284606  0.35846967  1
  Nb  Nb2  1  0.99575460  0.01834131  0.85355068  1
  Nb  Nb3  1  0.49430839  0.97800917  0.85706117  1
  Nb  Nb4  1  0.99920690  0.00267208  0.64269799  1
  Nb  Nb5  1  0.49984277  0.99879953  0.14566848  1
  Nb  Nb6  1  0.34215195  0.33047430  0.97698332  1
  Nb  Nb7  1  0.83449824  0.35290473  0.98297681  1
  Nb  Nb8  1  0.33499682  0.31476050  0.48357224  1
  Nb  Nb9  1  0.83558934  0.35466620  0.47356726  1
  Nb  Nb10  1  0.16746455  0.66805933  0.02085357  1
  Nb  Nb11  1  0.66569713  0.65002137  0.51686872  1
  In  In0  1  0.50351280  0.99570874  0.64343663  1
  In  In1  1  0.00198859  0.00829496  0.14580312  1
  In  In2  1  0.33493386  0.34589233  0.68718831  1
  In  In3  1  0.82637325  0.32632053  0.68432678  1
  In  In4  1  0.32770232  0.32594025  0.18747321  1
  In  In5  1  0.83532235  0.32578699  0.18835712  1
  In  In6  1  0.66957092  0.64772725  0.01121917  1
  In  In7  1  0.16693450  0.68861012  0.51104214  1
  In  In8  1  0.17041326  0.66343068  0.31446442  1
  In  In9  1  0.66683552  0.68446533  0.32118603  1
  In  In10  1  0.16501282  0.64223727  0.81739762  1
  In  In11  1  0.66979640  0.67527972  0.81323974  1
  Si  Si0  1  0.64684561  -0.00074148  0.25006965  1
  Si  Si1  1  0.35455828  0.70762110  0.24893127  1
  Si  Si2  1  0.00340507  0.29817498  0.24696603  1
  Si  Si3  1  0.14650969  0.28888477  0.74873309  1
  Si  Si4  1  0.50313636  0.70836056  0.74682123  1
  Si  Si5  1  0.85150102  0.00184367  0.74633550  1
  Si  Si6  1  0.48369902  0.33567253  0.59044212  1
  Si  Si7  1  0.18875576  0.04022489  0.58794444  1
  Si  Si8  1  0.83034676  0.62100095  0.58685441  1
  Si  Si9  1  0.98248691  0.63296266  0.08911695  1
  Si  Si10  1  0.33205640  0.04143569  0.08667203  1
  Si  Si11  1  0.68837589  0.33535491  0.08756757  1
  Si  Si12  1  0.31027516  0.65848510  0.91813448  1
  Si  Si13  1  0.81649696  0.67269247  0.91604559  1
  Si  Si14  1  0.01738950  0.37821790  0.91628615  1
  Si  Si15  1  0.52295263  0.37139950  0.91062141  1
  Si  Si16  1  0.31394467  0.95588621  0.41607191  1
  Si  Si17  1  0.80960602  0.96277331  0.41897582  1
  Si  Si18  1  0.66511810  0.37583213  0.41106585  1
  Si  Si19  1  0.02170097  0.67209637  0.41033454  1
  Si  Si20  1  0.51653342  0.65439075  0.41735950  1
  S  S0  1  0.14431363  0.00403051  0.25096942  1
  S  S1  1  0.85281899  0.71385762  0.25077699  1
  S  S2  1  0.50127117  0.28533156  0.24908494  1
  S  S3  1  0.64383137  0.28248994  0.75188244  1
  S  S4  1  0.00269104  0.72018095  0.75011808  1
  S  S5  1  0.35214706  0.99114816  0.75270875  1
  S  S6  1  0.98239493  0.33716416  0.58344218  1
  S  S7  1  0.68878969  0.03866961  0.57982847  1
  S  S8  1  0.32875807  0.62478511  0.58067967  1
  S  S9  1  0.48150781  0.62766462  0.08229898  1
  S  S10  1  0.82927431  0.03383684  0.08019444  1
  S  S11  1  0.18798931  0.33501162  0.08008828  1
  S  S12  1  0.16755689  0.96045947  0.91736491  1
  S  S13  1  0.66742335  0.96809222  0.91821940  1
  S  S14  1  0.16731622  0.36548558  0.41829616  1
  O  O0  1  0.09399328  0.00858677  0.30152020  1
  O  O1  1  0.59278939  0.00354643  0.30797088  1
  O  O2  1  0.41693257  0.80566772  0.30563058  1
  O  O3  1  0.90714129  0.82056971  0.30165903  1
  O  O4  1  0.49537829  0.18522777  0.30042321  1
  O  O5  1  0.99847189  0.17937787  0.30609992  1
  O  O6  1  0.09264192  0.17622462  0.80787140  1
  O  O7  1  0.59389544  0.17753095  0.80305574  1
  O  O8  1  0.49827017  0.81601463  0.80711804  1
  O  O9  1  0.99570696  0.80953689  0.80240702  1
  O  O10  1  0.40635717  0.99227337  0.80396875  1
  O  O11  1  0.91350171  0.02796615  0.80610511  1
  O  O12  1  0.38879171  0.97429614  0.69740848  1
  O  O13  1  0.90751127  0.99116613  0.69096855  1
  O  O14  1  0.08355372  0.17730356  0.69306974  1
  O  O15  1  0.59797084  0.20723054  0.69666299  1
  O  O16  1  0.00509336  0.81136021  0.69534985  1
  O  O17  1  0.51043079  0.81586287  0.68892162  1
  O  O18  1  0.40685509  0.82498180  0.19007710  1
  O  O19  1  0.89186263  0.80097701  0.19473830  1
  O  O20  1  0.01213302  0.21102880  0.18752620  1
  O  O21  1  0.50293730  0.19565082  0.19338117  1
  O  O22  1  0.10007980  0.99095152  0.19490102  1
  O  O23  1  0.58372603  0.98721378  0.19292488  1
  O  O24  1  0.44835537  0.36283165  0.65151417  1
  O  O25  1  0.94706808  0.35624256  0.64005882  1
  O  O26  1  0.25301332  0.12736679  0.64174578  1
  O  O27  1  0.73114433  0.10212320  0.63764999  1
  O  O28  1  0.32395514  0.54155295  0.63692808  1
  O  O29  1  0.81248610  0.51139435  0.64609262  1
  O  O30  1  0.44340364  0.53031165  0.13658419  1
  O  O31  1  0.95062220  0.53251520  0.14967704  1
  O  O32  1  0.31085935  0.11653116  0.14373676  1
  O  O33  1  0.82500565  0.10917835  0.13599784  1
  O  O34  1  0.23219709  0.35963812  0.13613303  1
  O  O35  1  0.75523808  0.37991379  0.13997668  1
  O  O36  1  0.23828067  0.32682043  0.03039735  1
  O  O37  1  0.73579523  0.31368366  0.02720965  1
  O  O38  1  0.42631404  0.53237526  0.03037861  1
  O  O39  1  0.91374283  0.52222006  0.03428220  1
  O  O40  1  0.34376391  0.16710170  0.02928542  1
  O  O41  1  0.83615834  0.14243618  0.02930448  1
  O  O42  1  0.23520687  0.15715951  0.52836096  1
  O  O43  1  0.74062997  0.15334079  0.53246619  1
  O  O44  1  0.33545774  0.52868375  0.53033184  1
  O  O45  1  0.84458758  0.52207406  0.53054253  1
  O  O46  1  0.41373649  0.30655662  0.53598743  1
  O  O47  1  0.92809883  0.32062238  0.53348826  1
  O  O48  1  0.26375560  0.69639520  0.97270239  1
  O  O49  1  0.79034236  0.72121801  0.97806463  1
  O  O50  1  0.08634952  0.48904405  0.96824805  1
  O  O51  1  0.57373313  0.44117216  0.97069346  1
  O  O52  1  0.15781992  0.85549489  0.96990436  1
  O  O53  1  0.64981954  0.85966892  0.96992986  1
  O  O54  1  0.28697796  0.85663853  0.47831772  1
  O  O55  1  0.76330421  0.82828202  0.47220019  1
  O  O56  1  0.14974919  0.43943951  0.47001035  1
  O  O57  1  0.65284048  0.46448880  0.47096986  1
  O  O58  1  0.07413973  0.71175369  0.47018642  1
  O  O59  1  0.58407015  0.68217373  0.46954036  1
  O  O60  1  0.05505613  0.62629903  0.35230316  1
  O  O61  1  0.54309172  0.61166919  0.35473772  1
  O  O62  1  0.24948313  0.87509807  0.36288937  1
  O  O63  1  0.75971865  0.91037395  0.35809322  1
  O  O64  1  0.18103719  0.46316338  0.36430962  1
  O  O65  1  0.68829357  0.49682172  0.35561994  1
  O  O66  1  0.04461972  0.47730192  0.85402858  1
  O  O67  1  0.55461922  0.48319309  0.85257535  1
  O  O68  1  0.18490257  0.89009525  0.86448302  1
  O  O69  1  0.68087390  0.89702808  0.86424503  1
  O  O70  1  0.25926424  0.61872003  0.85796758  1
  O  O71  1  0.75326382  0.63318336  0.86253229  1
  O  O72  1  0.00546023  0.83666382  0.40032231  1
  O  O73  1  0.50971992  0.83204816  0.41462673  1
  O  O74  1  0.41049894  0.99020139  0.40246364  1
  O  O75  1  0.90813812  0.98722284  0.41032766  1
  O  O76  1  0.09012964  0.18677103  0.41134692  1
  O  O77  1  0.58120760  0.18627277  0.40582557  1
  O  O78  1  0.01257675  0.18745909  0.91240570  1
  O  O79  1  0.50508683  0.17377374  0.90214843  1
  O  O80  1  0.09085329  0.97715815  0.91292219  1
  O  O81  1  0.59054650  0.99363137  0.91148422  1
  O  O82  1  0.40872718  0.82662738  0.91109351  1
  O  O83  1  0.91578098  0.82990944  0.90319418  1
  O  O84  1  0.48366183  0.15252489  0.58681051  1
  O  O85  1  0.98560828  0.17053086  0.58528953  1
  O  O86  1  0.09320637  0.02434514  0.59284150  1
  O  O87  1  0.60410175  0.02904604  0.57818800  1
  O  O88  1  0.40538773  0.80091853  0.57896641  1
  O  O89  1  0.91911238  0.81023836  0.59195149  1
  O  O90  1  0.48208340  0.79534394  0.08328537  1
  O  O91  1  0.98390410  0.81683349  0.08592137  1
  O  O92  1  0.41881138  0.02663154  0.09023533  1
  O  O93  1  0.90580947  0.01027318  0.07834229  1
  O  O94  1  0.10304044  0.18032206  0.07818961  1
  O  O95  1  0.59368339  0.15989277  0.09197205  1
  O  O96  1  0.35416277  0.15649037  0.75719590  1
  O  O97  1  0.85326795  0.18642837  0.74554688  1
  O  O98  1  0.23765438  0.30264974  0.74872786  1
  O  O99  1  0.72819238  0.29118825  0.75399587  1
  O  O100  1  0.41629274  0.52338504  0.75138154  1
  O  O101  1  0.92750727  0.54352473  0.74959067  1
  O  O102  1  0.35505189  0.52420088  0.24531103  1
  O  O103  1  0.85374226  0.55123335  0.25537946  1
  O  O104  1  0.42458292  0.30790229  0.24742330  1
  O  O105  1  0.91655044  0.31020179  0.25156673  1
  O  O106  1  0.22880575  0.16443518  0.25357547  1
  O  O107  1  0.73721984  0.16984756  0.24777077  1
  O  O108  1  0.32521819  0.49618166  0.93284488  1
  O  O109  1  0.82797665  0.49898766  0.92499775  1
  O  O110  1  0.42228284  0.33905497  0.92458027  1
  O  O111  1  0.92104459  0.33623640  0.93300071  1
  O  O112  1  0.24329902  0.13772825  0.92677626  1
  O  O113  1  0.74228558  0.14199836  0.92544656  1
  O  O114  1  0.32746356  0.15459578  0.42622046  1
  O  O115  1  0.83008221  0.15631842  0.43571526  1
  O  O116  1  0.24196401  0.34082103  0.42581428  1
  O  O117  1  0.74626770  0.34358943  0.42719296  1
  O  O118  1  0.42004500  0.50042952  0.43382479  1
  O  O119  1  0.92253685  0.50808052  0.42345820  1
  O  O120  1  0.17711139  0.49072731  0.07405294  1
  O  O121  1  0.67897285  0.50627360  0.08156411  1
  O  O122  1  0.07604641  0.65651458  0.06964825  1
  O  O123  1  0.56771578  0.65657139  0.07510209  1
  O  O124  1  0.24954048  0.85154622  0.07170140  1
  O  O125  1  0.75133399  0.86246165  0.07621116  1
  O  O126  1  0.17863418  0.85025206  0.58198501  1
  O  O127  1  0.67707627  0.86432497  0.57363288  1
  O  O128  1  0.25110370  0.64132503  0.57666649  1
  O  O129  1  0.74963250  0.65110764  0.57461284  1
  O  O130  1  0.07033004  0.47962649  0.57764659  1
  O  O131  1  0.57648615  0.50101169  0.57461399  1
  O  O132  1  0.15345661  0.85041393  0.25289013  1
  O  O133  1  0.64422139  0.81442037  0.24881054  1
  O  O134  1  0.26293121  0.69159490  0.25074586  1
  O  O135  1  0.76717188  0.69307937  0.25366060  1
  O  O136  1  0.08614117  0.48827781  0.25094837  1
  O  O137  1  0.57868546  0.45625589  0.24742391  1
  O  O138  1  0.14319063  0.46840601  0.74736258  1
  O  O139  1  0.65289754  0.45443581  0.75460076  1
  O  O140  1  0.08197281  0.70851141  0.75177126  1
  O  O141  1  0.58602414  0.68362646  0.75022501  1
  O  O142  1  0.26482369  0.84415292  0.75815476  1
  O  O143  1  0.76150616  0.83293574  0.74991408  1
loop_
_geom_bond_atom_site_label_1
_geom_bond_atom_site_label_2
_geom_bond_distance
_geom_bond_site_symmetry_2
Na0 O136 2.342736 1_555
Na0 O105 2.396579 1_455
Na0 O103 2.420680 1_455
Na0 O60 2.429528 1_555
Na0 O132 2.505690 1_555
Na0 O31 2.539241 1_455
Na1 O61 2.296894 1_555
Na1 O102 2.313491 1_555
Na1 O133 2.320502 1_555
Na1 O104 2.576379 1_555
Na1 O137 2.657454 1_555
Na1 O2 2.797196 1_555
Na2 O138 2.307157 1_655
Na2 O97 2.307678 1_555
Na2 O101 2.485342 1_555
Na2 O66 2.489777 1_655
Na2 O140 2.661410 1_655
Na2 O25 2.728802 1_555
Na2 O11 2.921044 1_555
Na3 O141 2.337768 1_555
Na3 O24 2.400832 1_555
Na3 O100 2.412291 1_555
Na3 O96 2.431804 1_555
Na3 O139 2.491262 1_555
Na3 O67 2.539343 1_555
Na4 O84 2.406909 1_565
Na4 O126 2.410977 1_555
Na4 O54 2.475018 1_555
Na4 O88 2.521772 1_555
Na4 O128 2.612477 1_555
Na4 O46 2.756800 1_565
Na4 O26 2.816202 1_565
Na4 O12 2.926932 1_555
Na5 O121 2.384259 1_555
Na5 O91 2.421275 1_555
Na5 O93 2.545171 1_565
Na5 O49 2.553644 1_554
Na5 O125 2.621622 1_555
Na5 O35 2.726534 1_555
Na5 O39 2.796426 1_555
Na5 O19 2.796898 1_555
Na6 O89 2.547100 1_455
Na6 O86 2.556086 1_565
Na6 O72 2.640726 1_555
Na6 O85 2.722428 1_465
Na6 O75 2.731593 1_455
Na6 O76 2.732393 1_565
Na7 O73 2.523568 1_545
Na7 O84 2.528048 1_555
Na7 O87 2.549645 1_555
Na7 O77 2.581418 1_555
Na7 O88 2.620226 1_545
Na7 O74 2.687031 1_545
Na8 O91 2.475140 1_556
Na8 O93 2.485461 1_566
Na8 O78 2.572969 1_665
Na8 O94 2.576009 1_666
Na8 O83 2.634695 1_555
Na8 O80 2.673773 1_655
Na9 O95 2.469497 1_555
Na9 O92 2.477466 1_555
Na9 O79 2.663934 1_554
Na9 O90 2.666890 1_545
Na9 O81 2.766809 1_544
Na9 O82 2.789361 1_544
Na10 O98 2.254407 1_555
Na10 O100 2.294321 1_555
Na10 O96 2.622394 1_555
Na10 O108 2.764857 1_555
Na10 O110 2.918312 1_555
Na10 O112 2.949628 1_555
Na11 O99 2.472273 1_555
Na11 O109 2.558530 1_555
Na11 O97 2.578699 1_555
Na11 O101 2.662253 1_555
Na11 O113 2.678926 1_555
Na11 O111 2.807454 1_555
Na12 O106 2.538832 1_555
Na12 O114 2.558846 1_555
Na12 O102 2.630882 1_555
Na12 O116 2.640926 1_555
Na12 O104 2.711529 1_555
Na12 O118 2.737561 1_555
Na13 O107 2.282551 1_555
Na13 O105 2.370538 1_555
Na13 O103 2.672176 1_555
Na13 O115 2.803609 1_555
Na13 O117 2.829581 1_555
Na13 O119 2.895307 1_555
Na14 O134 2.274293 1_555
Na14 O136 2.287348 1_555
Na14 O132 2.614398 1_555
Na14 O120 2.798475 1_555
Na14 O124 2.900074 1_555
Na14 O122 2.998682 1_555
Na15 O133 2.438360 1_555
Na15 O121 2.514810 1_555
Na15 O137 2.518635 1_555
Na15 O135 2.555980 1_555
Na15 O125 2.699950 1_555
Na15 O123 2.796368 1_555
Na16 O126 2.398498 1_555
Na16 O138 2.542627 1_555
Na16 O128 2.573301 1_555
Na16 O130 2.610799 1_555
Na16 O140 2.682592 1_555
Na16 O142 2.751037 1_555
Na17 O143 2.385360 1_555
Na17 O141 2.415822 1_555
Na17 O127 2.653132 1_555
Na17 O129 2.681564 1_555
Na17 O131 2.745377 1_555
Na17 O139 2.788952 1_555
Nb0 O5 1.889784 1_555
Nb0 O75 1.895942 1_545
Nb0 O72 1.945974 1_645
Nb0 O3 2.069137 1_545
Nb0 O76 2.092003 1_655
Nb0 O0 2.223301 1_655
Nb1 O73 1.928680 1_555
Nb1 O1 1.947296 1_565
Nb1 O74 1.957891 1_555
Nb1 O2 1.978247 1_555
Nb1 O77 1.994091 1_565
Nb1 O4 2.301859 1_565
Nb2 O11 1.877401 1_555
Nb2 O6 1.925877 1_655
Nb2 O78 1.939195 1_655
Nb2 O83 1.955391 1_545
Nb2 O9 2.213204 1_545
Nb2 O80 2.360517 1_645
Nb3 O8 1.881380 1_555
Nb3 O82 1.920203 1_555
Nb3 O79 1.965691 1_565
Nb3 O10 2.054911 1_555
Nb3 O81 2.086318 1_555
Nb3 O7 2.187275 1_565
Nb4 O14 1.933211 1_655
Nb4 O13 1.952063 1_545
Nb4 O86 1.974966 1_655
Nb4 O89 1.986784 1_545
Nb4 O85 2.107479 1_555
Nb4 O16 2.148008 1_645
Nb5 O23 1.906917 1_555
Nb5 O18 1.922283 1_555
Nb5 O95 2.012205 1_565
Nb5 O92 2.044991 1_565
Nb5 O21 2.057709 1_565
Nb5 O90 2.215088 1_555
Nb6 O110 1.852952 1_555
Nb6 O40 1.908194 1_556
Nb6 O108 1.948086 1_555
Nb6 O38 2.087242 1_556
Nb6 O112 2.106235 1_555
Nb6 O36 2.227745 1_556
Nb7 O39 1.891694 1_556
Nb7 O109 1.913104 1_555
Nb7 O37 1.926004 1_556
Nb7 O111 2.003473 1_555
Nb7 O41 2.184883 1_556
Nb7 O113 2.227997 1_555
Nb8 O46 1.890473 1_555
Nb8 O114 1.903094 1_555
Nb8 O42 1.943339 1_555
Nb8 O118 1.975418 1_555
Nb8 O44 2.198809 1_555
Nb8 O116 2.240975 1_555
Nb9 O119 1.880999 1_555
Nb9 O117 1.892682 1_555
Nb9 O45 1.936687 1_555
Nb9 O115 1.941480 1_555
Nb9 O43 2.227083 1_555
Nb9 O47 2.297786 1_555
Nb10 O122 1.954638 1_555
Nb10 O50 1.960154 1_554
Nb10 O124 1.960207 1_555
Nb10 O48 1.967407 1_554
Nb10 O120 2.083293 1_555
Nb10 O52 2.128798 1_554
Nb11 O57 1.886264 1_555
Nb11 O59 1.964315 1_555
Nb11 O55 1.980370 1_555
Nb11 O131 1.999951 1_555
Nb11 O129 2.008105 1_555
Nb11 O127 2.247882 1_555
In0 O17 1.980822 1_555
In0 O84 2.075242 1_565
In0 O15 2.187859 1_565
In0 O87 2.255534 1_565
In0 O88 2.301953 1_555
In0 O12 2.338785 1_555
In1 O20 1.985070 1_555
In1 O91 2.095516 1_445
In1 O22 2.169269 1_545
In1 O19 2.238497 1_445
In1 O94 2.307010 1_555
In1 O93 2.331443 1_455
In2 O26 2.059859 1_555
In2 O100 2.128841 1_555
In2 O98 2.133162 1_555
In2 O24 2.141437 1_555
In2 O28 2.194254 1_555
In2 O96 2.487377 1_555
In3 O29 2.005495 1_555
In3 O97 2.096583 1_555
In3 O27 2.172124 1_555
In3 O99 2.288644 1_555
In3 O25 2.297517 1_555
In3 O101 2.415549 1_555
In4 O32 2.018492 1_555
In4 O102 2.073667 1_555
In4 O34 2.230118 1_555
In4 O106 2.240374 1_555
In4 O104 2.292909 1_555
In4 O30 2.301008 1_555
In5 O35 2.064091 1_555
In5 O105 2.114694 1_555
In5 O107 2.119859 1_555
In5 O31 2.176753 1_555
In5 O33 2.215286 1_555
In5 O103 2.430039 1_555
In6 O51 2.027762 1_554
In6 O49 2.084916 1_554
In6 O121 2.111734 1_555
In6 O125 2.299137 1_555
In6 O53 2.310856 1_554
In6 O123 2.383898 1_555
In7 O58 2.019579 1_555
In7 O54 2.073055 1_555
In7 O126 2.118483 1_555
In7 O56 2.305032 1_555
In7 O128 2.322734 1_555
In7 O130 2.377291 1_555
In8 O62 2.046703 1_555
In8 O60 2.126105 1_555
In8 O136 2.127389 1_555
In8 O134 2.137636 1_555
In8 O64 2.221492 1_555
In8 O132 2.329944 1_555
In9 O63 2.066174 1_555
In9 O65 2.068324 1_555
In9 O61 2.137454 1_555
In9 O133 2.180926 1_555
In9 O135 2.355340 1_555
In9 O137 2.519160 1_555
In10 O70 2.041602 1_555
In10 O66 2.105841 1_555
In10 O138 2.134215 1_555
In10 O142 2.267570 1_555
In10 O68 2.338177 1_555
In10 O140 2.399005 1_555
In11 O71 2.064231 1_555
In11 O141 2.119037 1_555
In11 O143 2.127975 1_555
In11 O67 2.135316 1_555
In11 O69 2.232982 1_555
In11 O139 2.288714 1_555
O0 S0 1.485134 1_555
O1 Si0 1.658607 1_555
O2 Si1 1.655728 1_555
O3 S1 1.517324 1_555
O4 S2 1.452457 1_555
O5 Si2 1.699986 1_655
O6 Si3 1.682056 1_555
O7 S3 1.494428 1_555
O8 Si4 1.712858 1_555
O9 S4 1.481416 1_655
O10 S5 1.525033 1_555
O11 Si5 1.708381 1_555
O12 S5 1.471016 1_555
O13 Si5 1.654658 1_565
O14 Si3 1.669403 1_555
O15 S3 1.477302 1_555
O16 S4 1.487390 1_555
O17 Si4 1.607600 1_555
O18 Si1 1.683371 1_555
O19 S1 1.486433 1_555
O20 Si2 1.616276 1_555
O21 S2 1.516692 1_555
O22 S0 1.484874 1_565
O23 Si0 1.702782 1_565
O24 Si6 1.605313 1_555
O25 S6 1.491844 1_555
O26 Si7 1.603702 1_555
O27 S7 1.492132 1_555
O28 S8 1.470520 1_555
O29 Si8 1.612693 1_555
O30 S9 1.479075 1_555
O31 Si9 1.598265 1_555
O32 Si10 1.601889 1_555
O33 S10 1.465474 1_555
O34 S11 1.468073 1_555
O35 Si11 1.605102 1_555
O36 S11 1.480807 1_555
O37 Si11 1.687586 1_555
O38 S9 1.513100 1_555
O39 Si9 1.696398 1_555
O40 Si10 1.677256 1_555
O41 S10 1.485952 1_555
O42 Si7 1.672222 1_555
O43 S7 1.469359 1_555
O44 S8 1.481051 1_555
O45 Si8 1.657317 1_555
O46 Si6 1.699971 1_555
O47 S6 1.464899 1_555
O48 Si12 1.633721 1_555
O49 Si13 1.622916 1_555
O50 Si14 1.650358 1_555
O51 Si15 1.597273 1_555
O52 S12 1.485135 1_555
O53 S13 1.465319 1_555
O54 Si16 1.622975 1_555
O55 Si17 1.626357 1_555
O56 S14 1.467691 1_555
O57 Si18 1.655407 1_555
O58 Si19 1.601159 1_555
O59 Si20 1.635207 1_555
O60 Si19 1.595130 1_555
O61 Si20 1.617271 1_555
O62 Si16 1.588348 1_555
O63 Si17 1.597462 1_555
O64 S14 1.464842 1_555
O65 Si18 1.587512 1_555
O66 Si14 1.622758 1_555
O67 Si15 1.592005 1_555
O68 S12 1.469990 1_555
O69 S13 1.465559 1_555
O70 Si12 1.595059 1_555
O71 Si13 1.589601 1_555
O72 Si19 1.663246 1_555
O73 Si20 1.665181 1_555
O74 Si16 1.644467 1_555
O75 Si17 1.694615 1_555
O76 S14 1.525674 1_555
O77 Si18 1.628747 1_555
O78 Si14 1.677936 1_555
O79 Si15 1.653742 1_555
O80 S12 1.470847 1_555
O81 S13 1.525189 1_555
O82 Si12 1.675298 1_555
O83 Si13 1.669212 1_555
O84 Si6 1.650402 1_555
O85 S6 1.530368 1_555
O86 Si7 1.664940 1_555
O87 S7 1.490443 1_555
O88 S8 1.500175 1_555
O89 Si8 1.664895 1_555
O90 S9 1.504459 1_555
O91 Si9 1.644296 1_555
O92 Si10 1.640889 1_555
O93 S10 1.501187 1_555
O94 S11 1.474042 1_555
O95 Si11 1.657461 1_555
O96 S5 1.474141 1_545
O97 Si5 1.646095 1_555
O98 Si3 1.589933 1_555
O99 S3 1.488636 1_555
O100 Si4 1.627638 1_555
O101 S4 1.492316 1_655
O102 Si1 1.657625 1_555
O103 S1 1.476151 1_555
O104 S2 1.498446 1_555
O105 Si2 1.630341 1_655
O106 S0 1.492755 1_555
O107 Si0 1.592365 1_555
O108 Si12 1.647468 1_555
O109 Si13 1.689185 1_555
O110 Si15 1.724327 1_555
O111 Si14 1.633887 1_655
O112 S12 1.514655 1_545
O113 S13 1.484019 1_545
O114 Si16 1.696468 1_545
O115 Si17 1.636117 1_545
O116 S14 1.482660 1_555
O117 Si18 1.672199 1_555
O118 Si20 1.644080 1_555
O119 Si19 1.689126 1_655
O120 S11 1.515614 1_555
O121 Si11 1.635699 1_555
O122 Si9 1.658018 1_455
O123 S9 1.456426 1_555
O124 Si10 1.651555 1_565
O125 S10 1.487191 1_565
O126 Si7 1.632510 1_565
O127 S7 1.482314 1_565
O128 S8 1.486479 1_555
O129 Si8 1.635422 1_555
O130 S6 1.470604 1_455
O131 Si6 1.636749 1_555
O132 S0 1.472744 1_565
O133 Si0 1.641074 1_565
O134 Si1 1.590394 1_555
O135 S1 1.466048 1_555
O136 Si2 1.621220 1_555
O137 S2 1.478627 1_555
O138 Si3 1.647036 1_555
O139 S3 1.474498 1_555
O140 S4 1.488921 1_555
O141 Si4 1.622737 1_555
O142 S5 1.477130 1_555
O143 Si5 1.583040 1_565
