# generated using pymatgen
data_ZrAlP(SO6)2
_symmetry_space_group_name_H-M   'P 1'
_cell_length_a   8.68248825
_cell_length_b   8.68182686
_cell_length_c   22.28974867
_cell_angle_alpha   90.38223417
_cell_angle_beta   90.00000000
_cell_angle_gamma   120.00252004
_symmetry_Int_Tables_number   1
_chemical_formula_structural   ZrAlP(SO6)2
_chemical_formula_sum   'Zr6 Al6 P6 S12 O72'
_cell_volume   1455.01413580
_cell_formula_units_Z   6
loop_
 _symmetry_equiv_pos_site_id
 _symmetry_equiv_pos_as_xyz
  1  'x, y, z'
loop_
 _atom_site_type_symbol
 _atom_site_label
 _atom_site_symmetry_multiplicity
 _atom_site_fract_x
 _atom_site_fract_y
 _atom_site_fract_z
 _atom_site_occupancy
  Zr  Zr0  1  0.00243787  0.00147991  0.63954696  1
  Zr  Zr1  1  0.99904204  0.00147991  0.13954696  1
  Zr  Zr2  1  0.66491421  0.33254031  0.97318588  1
  Zr  Zr3  1  0.66762711  0.33254031  0.47318588  1
  Zr  Zr4  1  0.33989627  0.65929542  0.30642736  1
  Zr  Zr5  1  0.31939816  0.65929542  0.80642736  1
  Al  Al0  1  0.99971920  0.99698095  0.35497129  1
  Al  Al1  1  0.99726174  0.99698095  0.85497129  1
  Al  Al2  1  0.68522364  0.34394916  0.68964215  1
  Al  Al3  1  0.65872652  0.34394916  0.18964215  1
  Al  Al4  1  0.32758277  0.64567430  0.02123166  1
  Al  Al5  1  0.31809053  0.64567430  0.52123166  1
  P  P0  1  0.73564452  0.71041554  0.25223753  1
  P  P1  1  0.97477102  0.71041554  0.75223753  1
  P  P2  1  0.96051080  0.35566488  0.58522735  1
  P  P3  1  0.39515508  0.35566488  0.08522735  1
  P  P4  1  0.05818274  0.36426853  0.91778623  1
  P  P5  1  0.30608479  0.36426853  0.41778623  1
  S  S0  1  0.29654720  0.01942584  0.25119124  1
  S  S1  1  0.97275048  0.27552888  0.25016769  1
  S  S2  1  0.30277841  0.27552888  0.75016769  1
  S  S3  1  0.72287864  0.01942584  0.75119124  1
  S  S4  1  0.39461197  0.03558961  0.58397152  1
  S  S5  1  0.64246638  0.60805035  0.58433334  1
  S  S6  1  0.96558498  0.60805035  0.08433334  1
  S  S7  1  0.64097864  0.03558961  0.08397152  1
  S  S8  1  0.62839525  0.68928805  0.91741465  1
  S  S9  1  0.31080808  0.93842206  0.91826504  1
  S  S10  1  0.62761298  0.93842206  0.41826504  1
  S  S11  1  0.06089180  0.68928805  0.41741465  1
  O  O0  1  0.21308995  0.04908306  0.30424919  1
  O  O1  1  0.85060944  0.80704490  0.30734912  1
  O  O2  1  0.95084921  0.16736225  0.30351324  1
  O  O3  1  0.21651304  0.16736225  0.80351324  1
  O  O4  1  0.95643546  0.80704490  0.80734912  1
  O  O5  1  0.83599310  0.04908306  0.80424919  1
  O  O6  1  0.79704223  0.98198337  0.69688627  1
  O  O7  1  0.18619088  0.20475012  0.69656074  1
  O  O8  1  0.01377278  0.82683003  0.69620253  1
  O  O9  1  0.81305725  0.82683003  0.19620253  1
  O  O10  1  0.01855924  0.20475012  0.19656074  1
  O  O11  1  0.18494114  0.98198337  0.19688627  1
  O  O12  1  0.86657254  0.37859882  0.64013496  1
  O  O13  1  0.50279453  0.12329004  0.63753108  1
  O  O14  1  0.61693596  0.49780565  0.63737499  1
  O  O15  1  0.88087069  0.49780565  0.13737499  1
  O  O16  1  0.62049651  0.12329004  0.13753108  1
  O  O17  1  0.51202729  0.37859882  0.14013496  1
  O  O18  1  0.47161729  0.31364681  0.02883566  1
  O  O19  1  0.85233514  0.53349266  0.03017733  1
  O  O20  1  0.68296329  0.14981764  0.03023892  1
  O  O21  1  0.46685534  0.14981764  0.53023892  1
  O  O22  1  0.68115852  0.53349266  0.53017733  1
  O  O23  1  0.84203052  0.31364681  0.52883566  1
  O  O24  1  0.54287936  0.71382910  0.97087518  1
  O  O25  1  0.17733704  0.45860906  0.97222989  1
  O  O26  1  0.28975955  0.83046366  0.97111869  1
  O  O27  1  0.54070311  0.83046366  0.47111869  1
  O  O28  1  0.28127102  0.45860906  0.47222989  1
  O  O29  1  0.17094875  0.71382910  0.47087518  1
  O  O30  1  0.13519889  0.65214928  0.36324428  1
  O  O31  1  0.51451167  0.86595626  0.36385672  1
  O  O32  1  0.35061319  0.48537770  0.36185238  1
  O  O33  1  0.13476351  0.48537770  0.86185238  1
  O  O34  1  0.35144360  0.86595626  0.86385672  1
  O  O35  1  0.51694939  0.65214928  0.86324428  1
  O  O36  1  0.04414860  0.84795022  0.40882917  1
  O  O37  1  0.80261607  0.95489885  0.40834186  1
  O  O38  1  0.14267652  0.18498608  0.40357464  1
  O  O39  1  0.04230955  0.18498608  0.90357464  1
  O  O40  1  0.15228278  0.95489885  0.90834186  1
  O  O41  1  0.80380162  0.84795022  0.90882917  1
  O  O42  1  0.98484975  0.19142771  0.59370570  1
  O  O43  1  0.21186245  0.01189925  0.59081369  1
  O  O44  1  0.80131394  0.78945000  0.59129830  1
  O  O45  1  0.98813606  0.78945000  0.09129830  1
  O  O46  1  0.80003680  0.01189925  0.09081369  1
  O  O47  1  0.20657797  0.19142771  0.09370570  1
  O  O48  1  0.70333613  0.17646711  0.74139820  1
  O  O49  1  0.47422802  0.28730175  0.73882045  1
  O  O50  1  0.81050432  0.52837929  0.74186408  1
  O  O51  1  0.71787596  0.52837929  0.24186408  1
  O  O52  1  0.81307473  0.28730175  0.23882045  1
  O  O53  1  0.47313198  0.17646711  0.24139820  1
  O  O54  1  0.65262417  0.53122117  0.92434744  1
  O  O55  1  0.87039203  0.34069801  0.92730936  1
  O  O56  1  0.46920505  0.12118541  0.92432307  1
  O  O57  1  0.65198136  0.12118541  0.42432307  1
  O  O58  1  0.47030698  0.34069801  0.42730936  1
  O  O59  1  0.87859800  0.53122117  0.42434744  1
  O  O60  1  0.38029561  0.52082155  0.07428039  1
  O  O61  1  0.14098541  0.62678922  0.07400938  1
  O  O62  1  0.48279701  0.86167359  0.07277236  1
  O  O63  1  0.37887558  0.86167359  0.57277236  1
  O  O64  1  0.48580281  0.62678922  0.57400938  1
  O  O65  1  0.14052493  0.52082155  0.57428039  1
  O  O66  1  0.31738995  0.86063020  0.25945697  1
  O  O67  1  0.54662193  0.68804274  0.25921253  1
  O  O68  1  0.12853672  0.45951364  0.25781133  1
  O  O69  1  0.33097592  0.45951364  0.75781133  1
  O  O70  1  0.14141981  0.68804274  0.75921253  1
  O  O71  1  0.54323925  0.86063020  0.75945697  1
loop_
_geom_bond_atom_site_label_1
_geom_bond_atom_site_label_2
_geom_bond_distance
_geom_bond_site_symmetry_2
Al0 O38 1.824489 1_665
Al0 O1 1.834027 1_555
Al0 O36 1.945227 1_655
Al0 O37 1.964150 1_555
Al0 O0 2.020810 1_665
Al0 O2 2.081839 1_565
Al1 O39 1.824489 1_665
Al1 O4 1.834027 1_555
Al1 O41 1.945227 1_555
Al1 O40 1.964150 1_655
Al1 O5 2.020810 1_565
Al1 O3 2.081839 1_665
Al2 O12 1.821588 1_555
Al2 O50 1.826265 1_555
Al2 O48 1.928968 1_555
Al2 O49 1.976290 1_555
Al2 O14 2.075056 1_555
Al2 O13 2.112755 1_555
Al3 O17 1.821587 1_555
Al3 O51 1.826265 1_555
Al3 O53 1.928968 1_555
Al3 O52 1.976290 1_555
Al3 O15 2.075056 1_555
Al3 O16 2.112755 1_555
Al4 O60 1.815442 1_555
Al4 O25 1.841163 1_554
Al4 O61 1.942304 1_555
Al4 O24 2.001746 1_554
Al4 O62 2.023970 1_555
Al4 O26 2.116639 1_554
Al5 O65 1.815442 1_555
Al5 O28 1.841163 1_555
Al5 O64 1.942304 1_555
Al5 O29 2.001746 1_555
Al5 O63 2.023970 1_555
Al5 O27 2.116639 1_555
O0 S0 1.473956 1_555
O1 P0 1.535568 1_555
O2 S1 1.472485 1_555
O3 S2 1.472485 1_555
O4 P1 1.535568 1_555
O5 S3 1.473956 1_555
O6 S3 1.479719 1_565
O6 Zr0 2.131540 1_665
O7 S2 1.482621 1_555
O7 Zr0 2.104537 1_555
O8 P1 1.539723 1_455
O8 Zr0 2.019489 1_565
O9 P0 1.539723 1_555
O9 Zr1 2.019489 1_565
O10 S1 1.482621 1_455
O10 Zr1 2.104537 1_455
O11 S0 1.479719 1_565
O11 Zr1 2.131540 1_465
O12 P2 1.536850 1_555
O13 S4 1.469650 1_555
O14 S5 1.471714 1_555
O15 S6 1.471714 1_555
O16 S7 1.469650 1_555
O17 P3 1.536850 1_555
O18 P3 1.545909 1_555
O18 Zr2 2.027223 1_554
O19 S6 1.481906 1_555
O19 Zr2 2.106352 1_554
O20 S7 1.484968 1_555
O20 Zr2 2.105676 1_554
O21 S4 1.484968 1_555
O21 Zr3 2.105676 1_555
O22 S5 1.481906 1_555
O22 Zr3 2.106352 1_555
O23 P2 1.545909 1_555
O23 Zr3 2.027223 1_555
O24 S8 1.473591 1_555
O25 P4 1.533994 1_555
O26 S9 1.463974 1_555
O27 S10 1.463974 1_555
O28 P5 1.533994 1_555
O29 S11 1.473591 1_555
O30 S11 1.476812 1_555
O30 Zr4 2.158058 1_555
O31 S10 1.484202 1_555
O31 Zr4 2.098875 1_555
O32 P5 1.555750 1_555
O32 Zr4 1.995034 1_555
O33 P4 1.555750 1_555
O33 Zr5 1.995034 1_555
O34 S9 1.484202 1_555
O34 Zr5 2.098875 1_555
O35 S8 1.476812 1_555
O35 Zr5 2.158058 1_555
O36 S11 1.469347 1_555
O37 S10 1.470102 1_555
O38 P5 1.523453 1_555
O39 P4 1.523456 1_555
O40 S9 1.470093 1_555
O41 S8 1.469351 1_555
O42 P2 1.555133 1_555
O42 Zr0 2.015246 1_655
O43 S4 1.502427 1_555
O43 Zr0 2.081166 1_555
O44 S5 1.493663 1_555
O44 Zr0 2.086479 1_665
O45 S6 1.493667 1_555
O45 Zr1 2.086479 1_565
O46 S7 1.502419 1_555
O46 Zr1 2.081166 1_555
O47 P3 1.555138 1_555
O47 Zr1 2.015246 1_455
O48 S3 1.473309 1_555
O49 S2 1.462381 1_555
O50 P1 1.525198 1_555
O51 P0 1.525201 1_555
O52 S1 1.462373 1_555
O53 S0 1.473314 1_555
O54 S8 1.497634 1_555
O54 Zr2 2.093056 1_555
O55 P4 1.553168 1_655
O55 Zr2 2.026856 1_555
O56 S9 1.497364 1_545
O56 Zr2 2.072621 1_555
O57 S10 1.497357 1_545
O57 Zr3 2.072621 1_555
O58 P5 1.553185 1_555
O58 Zr3 2.026856 1_555
O59 S11 1.497623 1_655
O59 Zr3 2.093056 1_555
O60 P3 1.523751 1_555
O61 S6 1.466767 1_455
O62 S7 1.466111 1_565
O63 S4 1.466104 1_565
O64 S5 1.466784 1_555
O65 P2 1.523742 1_455
O66 S0 1.490043 1_565
O66 Zr4 2.134399 1_555
O67 P0 1.561087 1_555
O67 Zr4 1.986704 1_555
O68 S1 1.498558 1_455
O68 Zr4 2.083761 1_555
O69 S2 1.498561 1_555
O69 Zr5 2.083761 1_555
O70 P1 1.561078 1_455
O70 Zr5 1.986704 1_555
O71 S3 1.490048 1_565
O71 Zr5 2.134399 1_555
