# generated using pymatgen
data_Zr2Au
_symmetry_space_group_name_H-M   'P 1'
_cell_length_a   6.60071141
_cell_length_b   6.60071449
_cell_length_c   12.55107073
_cell_angle_alpha   105.24545087
_cell_angle_beta   105.24544481
_cell_angle_gamma   89.99998618
_symmetry_Int_Tables_number   1
_chemical_formula_structural   Zr2Au
_chemical_formula_sum   'Zr16 Au8'
_cell_volume   507.62499040
_cell_formula_units_Z   8
loop_
 _symmetry_equiv_pos_site_id
 _symmetry_equiv_pos_as_xyz
  1  'x, y, z'
loop_
 _atom_site_type_symbol
 _atom_site_label
 _atom_site_symmetry_multiplicity
 _atom_site_fract_x
 _atom_site_fract_y
 _atom_site_fract_z
 _atom_site_occupancy
  Zr  Zr0_0  1  0.32985013  0.32985013  0.15969926  1
  Zr  Zr0_1  1  0.32985013  0.32985013  0.65969926  1
  Zr  Zr0_2  1  0.32985013  0.82985013  0.15969926  1
  Zr  Zr0_3  1  0.32985013  0.82985013  0.65969926  1
  Zr  Zr0_4  1  0.82985013  0.32985013  0.15969925  1
  Zr  Zr0_5  1  0.82985013  0.32985013  0.65969926  1
  Zr  Zr0_6  1  0.82985013  0.82985013  0.15969926  1
  Zr  Zr0_7  1  0.82985013  0.82985013  0.65969926  1
  Zr  Zr1_0  1  0.17014987  0.17014987  0.34030075  1
  Zr  Zr1_1  1  0.17014987  0.17014987  0.84030075  1
  Zr  Zr1_2  1  0.17014987  0.67014987  0.34030075  1
  Zr  Zr1_3  1  0.17014987  0.67014987  0.84030075  1
  Zr  Zr1_4  1  0.67014987  0.17014987  0.34030075  1
  Zr  Zr1_5  1  0.67014987  0.17014987  0.84030075  1
  Zr  Zr1_6  1  0.67014987  0.67014987  0.34030075  1
  Zr  Zr1_7  1  0.67014987  0.67014987  0.84030075  1
  Au  Au0_0  1  0.00000000  0.00000000  0.00000000  1
  Au  Au0_1  1  0.00000000  0.00000000  0.50000000  1
  Au  Au0_2  1  0.00000000  0.50000000  0.00000000  1
  Au  Au0_3  1  0.00000000  0.50000000  0.50000000  1
  Au  Au0_4  1  0.50000000  0.00000000  0.00000000  1
  Au  Au0_5  1  0.50000000  0.00000000  0.50000000  1
  Au  Au0_6  1  0.50000000  0.50000000  0.00000000  1
  Au  Au0_7  1  0.50000000  0.50000000  0.50000000  1
loop_
_geom_bond_atom_site_label_1
_geom_bond_atom_site_label_2
_geom_bond_distance
_geom_bond_site_symmetry_2
Zr0_0 Zr1_6 3.142244 1_555
Zr0_0 Zr1_4 3.142251 1_555
Zr0_0 Zr1_2 3.142251 1_555
Zr0_0 Zr1_0 3.142259 1_555
Zr0_0 Zr0_4 3.300356 1_555
Zr0_0 Zr0_4 3.300356 1_455
Zr0_0 Zr0_2 3.300357 1_545
Zr0_0 Zr0_2 3.300357 1_555
Zr0_1 Zr1_7 3.142244 1_555
Zr0_1 Zr1_5 3.142251 1_555
Zr0_1 Zr1_3 3.142251 1_555
Zr0_1 Zr1_1 3.142259 1_555
Zr0_1 Zr0_5 3.300356 1_455
Zr0_1 Zr0_5 3.300356 1_555
Zr0_1 Zr0_3 3.300357 1_545
Zr0_1 Zr0_3 3.300357 1_555
Zr0_2 Zr1_4 3.142244 1_565
Zr0_2 Zr1_6 3.142251 1_555
Zr0_2 Zr1_0 3.142251 1_565
Zr0_2 Zr1_2 3.142259 1_555
Zr0_2 Zr0_6 3.300356 1_455
Zr0_2 Zr0_6 3.300356 1_555
Zr0_3 Zr1_5 3.142244 1_565
Zr0_3 Zr1_7 3.142251 1_555
Zr0_3 Zr1_1 3.142251 1_565
Zr0_3 Zr1_3 3.142259 1_555
Zr0_3 Zr0_7 3.300356 1_555
Zr0_3 Zr0_7 3.300356 1_455
Zr0_4 Zr1_2 3.142244 1_655
Zr0_4 Zr1_0 3.142251 1_655
Zr0_4 Zr1_6 3.142251 1_555
Zr0_4 Zr1_4 3.142259 1_555
Zr0_4 Zr0_6 3.300357 1_555
Zr0_4 Zr0_6 3.300357 1_545
Zr0_5 Zr1_3 3.142244 1_655
Zr0_5 Zr1_1 3.142251 1_655
Zr0_5 Zr1_7 3.142251 1_555
Zr0_5 Zr1_5 3.142259 1_555
Zr0_5 Zr0_7 3.300357 1_545
Zr0_5 Zr0_7 3.300357 1_555
Zr0_6 Zr1_0 3.142244 1_665
Zr0_6 Zr1_2 3.142251 1_655
Zr0_6 Zr1_4 3.142251 1_565
Zr0_6 Zr1_6 3.142259 1_555
Zr0_7 Zr1_1 3.142244 1_665
Zr0_7 Zr1_3 3.142251 1_655
Zr0_7 Zr1_5 3.142251 1_565
Zr0_7 Zr1_7 3.142259 1_555
Zr1_0 Zr1_4 3.300356 1_555
Zr1_0 Zr1_4 3.300356 1_455
Zr1_0 Zr1_2 3.300357 1_555
Zr1_0 Zr1_2 3.300357 1_545
Zr1_1 Zr1_5 3.300356 1_455
Zr1_1 Zr1_5 3.300356 1_555
Zr1_1 Zr1_3 3.300357 1_555
Zr1_1 Zr1_3 3.300357 1_545
Zr1_2 Zr1_6 3.300356 1_555
Zr1_2 Zr1_6 3.300356 1_455
Zr1_3 Zr1_7 3.300356 1_455
Zr1_3 Zr1_7 3.300356 1_555
Zr1_4 Zr1_6 3.300357 1_555
Zr1_4 Zr1_6 3.300357 1_545
Zr1_5 Zr1_7 3.300357 1_555
Zr1_5 Zr1_7 3.300357 1_545
Au0_0 Zr1_1 2.984656 1_554
Au0_0 Zr0_6 2.984656 1_445
Au0_0 Zr1_5 2.984658 1_454
Au0_0 Zr0_2 2.984658 1_545
Au0_0 Zr1_3 2.984658 1_544
Au0_0 Zr0_4 2.984658 1_455
Au0_0 Zr1_7 2.984662 1_444
Au0_0 Zr0_0 2.984662 1_555
Au0_0 Au0_4 3.300356 1_555
Au0_0 Au0_4 3.300356 1_455
Au0_0 Au0_2 3.300357 1_555
Au0_0 Au0_2 3.300357 1_545
Au0_1 Zr1_0 2.984656 1_555
Au0_1 Zr0_7 2.984656 1_445
Au0_1 Zr0_3 2.984658 1_545
Au0_1 Zr1_4 2.984658 1_455
Au0_1 Zr1_2 2.984658 1_545
Au0_1 Zr0_5 2.984658 1_455
Au0_1 Zr1_6 2.984662 1_445
Au0_1 Zr0_1 2.984662 1_555
Au0_1 Au0_5 3.300356 1_455
Au0_1 Au0_5 3.300356 1_555
Au0_1 Au0_3 3.300357 1_555
Au0_1 Au0_3 3.300357 1_545
Au0_2 Zr1_3 2.984656 1_554
Au0_2 Zr0_4 2.984656 1_455
Au0_2 Zr1_7 2.984658 1_454
Au0_2 Zr0_0 2.984658 1_555
Au0_2 Zr1_1 2.984658 1_554
Au0_2 Zr0_6 2.984658 1_455
Au0_2 Zr1_5 2.984662 1_454
Au0_2 Zr0_2 2.984662 1_555
Au0_2 Au0_6 3.300356 1_555
Au0_2 Au0_6 3.300356 1_455
Au0_3 Zr0_5 2.984656 1_455
Au0_3 Zr1_2 2.984656 1_555
Au0_3 Zr1_6 2.984658 1_455
Au0_3 Zr0_1 2.984658 1_555
Au0_3 Zr1_0 2.984658 1_555
Au0_3 Zr0_7 2.984658 1_455
Au0_3 Zr1_4 2.984662 1_455
Au0_3 Zr0_3 2.984662 1_555
Au0_3 Au0_7 3.300356 1_455
Au0_3 Au0_7 3.300356 1_555
Au0_4 Zr0_2 2.984656 1_545
Au0_4 Zr1_5 2.984656 1_554
Au0_4 Zr1_1 2.984658 1_554
Au0_4 Zr0_6 2.984658 1_545
Au0_4 Zr1_7 2.984658 1_544
Au0_4 Zr0_0 2.984658 1_555
Au0_4 Zr1_3 2.984662 1_544
Au0_4 Zr0_4 2.984662 1_555
Au0_4 Au0_6 3.300357 1_545
Au0_4 Au0_6 3.300357 1_555
Au0_5 Zr0_3 2.984656 1_545
Au0_5 Zr1_4 2.984656 1_555
Au0_5 Zr0_7 2.984658 1_545
Au0_5 Zr1_0 2.984658 1_555
Au0_5 Zr1_6 2.984658 1_545
Au0_5 Zr0_1 2.984658 1_555
Au0_5 Zr1_2 2.984662 1_545
Au0_5 Zr0_5 2.984662 1_555
Au0_5 Au0_7 3.300357 1_555
Au0_5 Au0_7 3.300357 1_545
Au0_6 Zr1_7 2.984656 1_554
Au0_6 Zr0_0 2.984656 1_555
Au0_6 Zr0_4 2.984658 1_555
Au0_6 Zr1_3 2.984658 1_554
Au0_6 Zr1_5 2.984658 1_554
Au0_6 Zr0_2 2.984658 1_555
Au0_6 Zr1_1 2.984662 1_554
Au0_6 Zr0_6 2.984662 1_555
Au0_7 Zr1_6 2.984656 1_555
Au0_7 Zr0_1 2.984656 1_555
Au0_7 Zr1_2 2.984658 1_555
Au0_7 Zr0_5 2.984658 1_555
Au0_7 Zr1_4 2.984658 1_555
Au0_7 Zr0_3 2.984658 1_555
Au0_7 Zr1_0 2.984662 1_555
Au0_7 Zr0_7 2.984662 1_555
